=
 OpenBabel10222418073D

 25 26  0  0  1  0  0  0  0  0999 V2000
  190.9910  177.1190  146.1270 C   0  0  1  0  0  3  0  0  0  0  0  0
  189.5390  176.6460  144.1640 C   0  0  1  0  0  3  0  0  0  0  0  0
  190.9830  176.5640  144.6860 C   0  0  0  0  0  2  0  0  0  0  0  0
  189.5720  177.4620  146.3880 C   0  0  0  0  0  0  0  0  0  0  0  0
  187.3910  177.4510  145.3390 C   0  0  0  0  0  0  0  0  0  0  0  0
  186.8360  177.9960  146.5290 C   0  0  0  0  0  0  0  0  0  0  0  0
  188.7700  177.2030  145.3050 C   0  0  0  0  0  0  0  0  0  0  0  0
  187.6810  178.2690  147.6250 C   0  0  0  0  0  3  0  0  0  0  0  0
  189.0530  178.0040  147.5600 C   0  0  0  0  0  3  0  0  0  0  0  0
  192.2530  176.8490  148.0510 N   0  0  0  0  0  1  0  0  0  0  0  0
  192.3180  175.2670  146.4970 O   0  0  0  0  0  1  0  0  0  0  0  0
  191.4870  176.1470  147.1100 N   0  0  0  0  0  0  0  0  0  0  0  0
  189.8220  177.1690  141.7070 C   0  0  0  0  0  0  0  0  0  0  0  0
  190.1810  175.9850  141.4670 O   0  0  0  0  0  0  0  0  0  0  0  0
  189.4770  177.5640  143.0360 N   0  0  0  0  0  2  0  0  0  0  0  0
  189.6970  178.1660  140.5920 C   0  0  1  0  0  3  0  0  0  0  0  0
  190.5680  177.8850  139.5310 O   0  0  0  0  0  1  0  0  0  0  0  0
  188.3650  178.3340  140.1560 O   0  0  0  0  0  0  0  0  0  0  0  0
  186.9010  178.0240  138.3000 C   0  0  0  0  0  1  0  0  0  0  0  0
  188.1650  177.5660  138.9960 C   0  0  0  0  0  2  0  0  0  0  0  0
  185.4010  178.2900  146.6540 C   0  0  0  0  0  3  0  0  0  0  0  0
  184.9020  179.3450  146.1800 O   0  0  0  0  0  0  0  0  0  0  0  0
  186.6370  177.1470  144.1940 O   0  0  0  0  0  0  0  0  0  0  0  0
  186.4470  178.0120  143.1900 O   0  0  0  0  0  0  0  0  0  0  0  0
  185.0690  178.0010  142.9770 C   0  0  0  0  0  1  0  0  0  0  0  0
  1  4  1  0  0  0  0
  1 12  1  1  0  0  0
  2 15  1  6  0  0  0
  2  3  1  0  0  0  0
  2  7  1  0  0  0  0
  3  1  1  0  0  0  0
  4  9  1  0  0  0  0
  5  6  2  0  0  0  0
  6 21  1  0  0  0  0
  6  8  1  0  0  0  0
  7  5  1  0  0  0  0
  7  4  2  0  0  0  0
  9  8  2  0  0  0  0
 11 12  1  0  0  0  0
 12 10  1  0  0  0  0
 13 15  1  0  0  0  0
 14 13  2  0  0  0  0
 16 17  1  6  0  0  0
 16 13  1  0  0  0  0
 18 16  1  0  0  0  0
 19 20  1  0  0  0  0
 20 18  1  0  0  0  0
 22 21  2  0  0  0  0
 23  5  1  0  0  0  0
 24 23  1  0  0  0  0
 25 24  1  0  0  0  0
M  END
>  <MODEL>
1

>  <REMARK>
 VINA RESULT:      -7.4      0.000      0.000
  Name = 
  8 active torsions:
  status: ('A' for Active; 'I' for Inactive)
    1  A    between atoms: C_1  and  C_7
    2  A    between atoms: C_1  and  O_8
    3  A    between atoms: C_2  and  N_12
    4  A    between atoms: C_4  and  N_24
    5  A    between atoms: O_8  and  C_19
    6  A    between atoms: O_11  and  O_17
    7  A    between atoms: C_13  and  O_17
    8  A    between atoms: C_15  and  C_18
                            x       y       z     vdW  Elec       q    Type
                         _______ _______ _______ _____ _____    ______ ____

>  <TORSDO>
F 8

$$$$
=
 OpenBabel10222418073D

 25 26  0  0  1  0  0  0  0  0999 V2000
  185.8320  177.6540  145.6960 C   0  0  1  0  0  3  0  0  0  0  0  0
  187.6320  178.2900  144.1020 C   0  0  1  0  0  3  0  0  0  0  0  0
  186.1070  178.2280  144.2900 C   0  0  0  0  0  2  0  0  0  0  0  0
  187.1840  177.4430  146.2690 C   0  0  0  0  0  0  0  0  0  0  0  0
  189.5330  177.6760  145.7310 C   0  0  0  0  0  0  0  0  0  0  0  0
  189.8590  177.1690  147.0190 C   0  0  0  0  0  0  0  0  0  0  0  0
  188.1780  177.7930  145.3900 C   0  0  0  0  0  0  0  0  0  0  0  0
  188.8210  176.8020  147.9010 C   0  0  0  0  0  3  0  0  0  0  0  0
  187.4790  176.9370  147.5310 C   0  0  0  0  0  3  0  0  0  0  0  0
  183.9190  178.9570  145.7950 N   0  0  0  0  0  1  0  0  0  0  0  0
  185.7600  179.6800  146.8000 O   0  0  0  0  0  1  0  0  0  0  0  0
  185.0400  178.5600  146.5370 N   0  0  0  0  0  0  0  0  0  0  0  0
  188.3910  177.8790  141.7270 C   0  0  0  0  0  0  0  0  0  0  0  0
  188.3910  179.1160  141.4820 O   0  0  0  0  0  0  0  0  0  0  0  0
  188.0310  177.3990  143.0220 N   0  0  0  0  0  2  0  0  0  0  0  0
  188.8260  176.8980  140.6780 C   0  0  1  0  0  3  0  0  0  0  0  0
  188.3800  177.2580  139.3990 O   0  0  0  0  0  1  0  0  0  0  0  0
  190.2150  176.6460  140.7060 O   0  0  0  0  0  0  0  0  0  0  0  0
  191.5250  176.3130  138.7420 C   0  0  0  0  0  1  0  0  0  0  0  0
  190.8210  177.3170  139.6300 C   0  0  0  0  0  2  0  0  0  0  0  0
  191.2510  177.0100  147.4620 C   0  0  0  0  0  3  0  0  0  0  0  0
  191.9750  176.0730  147.0340 O   0  0  0  0  0  0  0  0  0  0  0  0
  190.4890  178.0660  144.7810 O   0  0  0  0  0  0  0  0  0  0  0  0
  191.1370  177.1990  143.9940 O   0  0  0  0  0  0  0  0  0  0  0  0
  191.8900  178.0000  143.1370 C   0  0  0  0  0  1  0  0  0  0  0  0
  1  4  1  0  0  0  0
  1 12  1  1  0  0  0
  2 15  1  6  0  0  0
  2  3  1  0  0  0  0
  2  7  1  0  0  0  0
  3  1  1  0  0  0  0
  4  9  1  0  0  0  0
  5  6  2  0  0  0  0
  6 21  1  0  0  0  0
  6  8  1  0  0  0  0
  7  5  1  0  0  0  0
  7  4  2  0  0  0  0
  9  8  2  0  0  0  0
 10 12  1  0  0  0  0
 12 11  1  0  0  0  0
 13 15  1  0  0  0  0
 14 13  2  0  0  0  0
 16 17  1  6  0  0  0
 16 18  1  0  0  0  0
 16 13  1  0  0  0  0
 19 20  1  0  0  0  0
 20 18  1  0  0  0  0
 22 21  2  0  0  0  0
 23  5  1  0  0  0  0
 24 23  1  0  0  0  0
 25 24  1  0  0  0  0
M  END
>  <MODEL>
2

>  <REMARK>
 VINA RESULT:      -6.9      2.405      4.585
  Name = 
  8 active torsions:
  status: ('A' for Active; 'I' for Inactive)
    1  A    between atoms: C_1  and  C_7
    2  A    between atoms: C_1  and  O_8
    3  A    between atoms: C_2  and  N_12
    4  A    between atoms: C_4  and  N_24
    5  A    between atoms: O_8  and  C_19
    6  A    between atoms: O_11  and  O_17
    7  A    between atoms: C_13  and  O_17
    8  A    between atoms: C_15  and  C_18
                            x       y       z     vdW  Elec       q    Type
                         _______ _______ _______ _____ _____    ______ ____

>  <TORSDO>
F 8

$$$$
=
 OpenBabel10222418073D

 25 26  0  0  1  0  0  0  0  0999 V2000
  186.2710  177.9100  143.2480 C   0  0  1  0  0  3  0  0  0  0  0  0
  188.2080  178.3680  141.7580 C   0  0  1  0  0  3  0  0  0  0  0  0
  186.6730  178.3730  141.8310 C   0  0  0  0  0  2  0  0  0  0  0  0
  187.5670  177.6930  143.9360 C   0  0  0  0  0  0  0  0  0  0  0  0
  189.9560  177.8040  143.5670 C   0  0  0  0  0  0  0  0  0  0  0  0
  190.1650  177.3780  144.9070 C   0  0  0  0  0  0  0  0  0  0  0  0
  188.6370  177.9440  143.1150 C   0  0  0  0  0  0  0  0  0  0  0  0
  189.0500  177.1110  145.7300 C   0  0  0  0  0  3  0  0  0  0  0  0
  187.7460  177.2670  145.2490 C   0  0  0  0  0  3  0  0  0  0  0  0
  184.2950  178.2530  144.4080 N   0  0  0  0  0  1  0  0  0  0  0  0
  185.0630  179.8710  143.0990 O   0  0  0  0  0  1  0  0  0  0  0  0
  185.4560  178.9000  143.9620 N   0  0  0  0  0  0  0  0  0  0  0  0
  188.9440  177.7400  139.4230 C   0  0  0  0  0  0  0  0  0  0  0  0
  188.8450  178.9370  139.0380 O   0  0  0  0  0  0  0  0  0  0  0  0
  188.6500  177.3880  140.7750 N   0  0  0  0  0  2  0  0  0  0  0  0
  189.4290  176.6780  138.4800 C   0  0  1  0  0  3  0  0  0  0  0  0
  188.4200  176.2390  137.6120 O   0  0  0  0  0  1  0  0  0  0  0  0
  190.6000  177.0540  137.7870 O   0  0  0  0  0  0  0  0  0  0  0  0
  192.8620  176.3870  137.4400 C   0  0  0  0  0  1  0  0  0  0  0  0
  191.4360  175.9320  137.6600 C   0  0  0  0  0  2  0  0  0  0  0  0
  191.5130  177.2020  145.4660 C   0  0  0  0  0  3  0  0  0  0  0  0
  191.6950  177.0090  146.6970 O   0  0  0  0  0  0  0  0  0  0  0  0
  190.9960  178.0920  142.6690 O   0  0  0  0  0  0  0  0  0  0  0  0
  191.8660  177.1710  142.2340 O   0  0  0  0  0  0  0  0  0  0  0  0
  192.1960  177.5850  140.9450 C   0  0  0  0  0  1  0  0  0  0  0  0
  1  4  1  0  0  0  0
  1 12  1  1  0  0  0
  2 15  1  6  0  0  0
  2  3  1  0  0  0  0
  2  7  1  0  0  0  0
  3  1  1  0  0  0  0
  4  9  1  0  0  0  0
  5  6  2  0  0  0  0
  6 21  1  0  0  0  0
  6  8  1  0  0  0  0
  7  5  1  0  0  0  0
  7  4  2  0  0  0  0
  9  8  2  0  0  0  0
 11 12  1  0  0  0  0
 12 10  1  0  0  0  0
 13 15  1  0  0  0  0
 14 13  2  0  0  0  0
 16 17  1  6  0  0  0
 16 13  1  0  0  0  0
 18 16  1  0  0  0  0
 19 20  1  0  0  0  0
 20 18  1  0  0  0  0
 21 22  2  0  0  0  0
 23  5  1  0  0  0  0
 24 23  1  0  0  0  0
 25 24  1  0  0  0  0
M  END
>  <MODEL>
3

>  <REMARK>
 VINA RESULT:      -6.9      2.848      5.123
  Name = 
  8 active torsions:
  status: ('A' for Active; 'I' for Inactive)
    1  A    between atoms: C_1  and  C_7
    2  A    between atoms: C_1  and  O_8
    3  A    between atoms: C_2  and  N_12
    4  A    between atoms: C_4  and  N_24
    5  A    between atoms: O_8  and  C_19
    6  A    between atoms: O_11  and  O_17
    7  A    between atoms: C_13  and  O_17
    8  A    between atoms: C_15  and  C_18
                            x       y       z     vdW  Elec       q    Type
                         _______ _______ _______ _____ _____    ______ ____

>  <TORSDO>
F 8

$$$$
=
 OpenBabel10222418073D

 25 26  0  0  1  0  0  0  0  0999 V2000
  188.4740  177.8610  146.1180 C   0  0  1  0  0  3  0  0  0  0  0  0
  187.8130  177.1430  143.8310 C   0  0  1  0  0  3  0  0  0  0  0  0
  188.9780  177.1710  144.8330 C   0  0  0  0  0  2  0  0  0  0  0  0
  187.0530  178.1700  145.8260 C   0  0  0  0  0  0  0  0  0  0  0  0
  185.3840  177.9680  144.0850 C   0  0  0  0  0  0  0  0  0  0  0  0
  184.4410  178.6020  144.9410 C   0  0  0  0  0  0  0  0  0  0  0  0
  186.6870  177.7750  144.5640 C   0  0  0  0  0  0  0  0  0  0  0  0
  184.8430  179.0130  146.2290 C   0  0  0  0  0  3  0  0  0  0  0  0
  186.1500  178.8000  146.6780 C   0  0  0  0  0  3  0  0  0  0  0  0
  188.7580  177.8510  148.4170 N   0  0  0  0  0  1  0  0  0  0  0  0
  189.7180  176.2550  147.2130 O   0  0  0  0  0  1  0  0  0  0  0  0
  188.5940  177.0100  147.3080 N   0  0  0  0  0  0  0  0  0  0  0  0
  188.9850  177.4560  141.6140 C   0  0  0  0  0  0  0  0  0  0  0  0
  189.4500  176.2850  141.6610 O   0  0  0  0  0  0  0  0  0  0  0  0
  188.1500  177.9450  142.6630 N   0  0  0  0  0  2  0  0  0  0  0  0
  189.2560  178.3320  140.4260 C   0  0  1  0  0  3  0  0  0  0  0  0
  190.2620  177.8100  139.6010 O   0  0  0  0  0  1  0  0  0  0  0  0
  188.0860  178.6490  139.7020 O   0  0  0  0  0  0  0  0  0  0  0  0
  187.8430  178.4970  137.3350 C   0  0  0  0  0  1  0  0  0  0  0  0
  187.9470  177.7380  138.6400 C   0  0  0  0  0  2  0  0  0  0  0  0
  183.0540  178.8480  144.5220 C   0  0  0  0  0  3  0  0  0  0  0  0
  182.7630  179.7760  143.7220 O   0  0  0  0  0  0  0  0  0  0  0  0
  185.0850  177.5260  142.7870 O   0  0  0  0  0  0  0  0  0  0  0  0
  185.0570  178.3380  141.7230 O   0  0  0  0  0  0  0  0  0  0  0  0
  183.9110  177.9590  141.0250 C   0  0  0  0  0  1  0  0  0  0  0  0
  1 12  1  1  0  0  0
  2 15  1  6  0  0  0
  2  7  1  0  0  0  0
  2  3  1  0  0  0  0
  3  1  1  0  0  0  0
  4  1  1  0  0  0  0
  4  9  1  0  0  0  0
  5  7  1  0  0  0  0
  5  6  2  0  0  0  0
  6  8  1  0  0  0  0
  7  4  2  0  0  0  0
  8  9  2  0  0  0  0
 11 12  1  0  0  0  0
 12 10  1  0  0  0  0
 13 14  2  0  0  0  0
 13 15  1  0  0  0  0
 16 17  1  6  0  0  0
 16 13  1  0  0  0  0
 18 16  1  0  0  0  0
 19 20  1  0  0  0  0
 20 18  1  0  0  0  0
 21  6  1  0  0  0  0
 22 21  2  0  0  0  0
 23  5  1  0  0  0  0
 24 23  1  0  0  0  0
 25 24  1  0  0  0  0
M  END
>  <MODEL>
4

>  <REMARK>
 VINA RESULT:      -6.8      1.771      2.317
  Name = 
  8 active torsions:
  status: ('A' for Active; 'I' for Inactive)
    1  A    between atoms: C_1  and  C_7
    2  A    between atoms: C_1  and  O_8
    3  A    between atoms: C_2  and  N_12
    4  A    between atoms: C_4  and  N_24
    5  A    between atoms: O_8  and  C_19
    6  A    between atoms: O_11  and  O_17
    7  A    between atoms: C_13  and  O_17
    8  A    between atoms: C_15  and  C_18
                            x       y       z     vdW  Elec       q    Type
                         _______ _______ _______ _____ _____    ______ ____

>  <TORSDO>
F 8

$$$$
=
 OpenBabel10222418073D

 25 26  0  0  1  0  0  0  0  0999 V2000
  184.9190  178.1730  144.0180 C   0  0  1  0  0  3  0  0  0  0  0  0
  185.3370  179.0350  141.7240 C   0  0  1  0  0  3  0  0  0  0  0  0
  184.2840  178.9430  142.8400 C   0  0  0  0  0  2  0  0  0  0  0  0
  186.2990  177.8850  143.5580 C   0  0  0  0  0  0  0  0  0  0  0  0
  187.7740  178.1990  141.6640 C   0  0  0  0  0  0  0  0  0  0  0  0
  188.7990  177.5140  142.3730 C   0  0  0  0  0  0  0  0  0  0  0  0
  186.5310  178.3600  142.2910 C   0  0  0  0  0  0  0  0  0  0  0  0
  188.5340  177.0210  143.6680 C   0  0  0  0  0  3  0  0  0  0  0  0
  187.2840  177.2040  144.2670 C   0  0  0  0  0  3  0  0  0  0  0  0
  185.3730  178.0970  146.2890 N   0  0  0  0  0  1  0  0  0  0  0  0
  183.6640  179.3190  145.5790 O   0  0  0  0  0  1  0  0  0  0  0  0
  184.9310  178.9470  145.2660 N   0  0  0  0  0  0  0  0  0  0  0  0
  184.4810  178.9690  139.3460 C   0  0  0  0  0  0  0  0  0  0  0  0
  184.5440  180.2250  139.2570 O   0  0  0  0  0  0  0  0  0  0  0  0
  184.8730  178.3090  140.5500 N   0  0  0  0  0  2  0  0  0  0  0  0
  184.0490  178.1450  138.1680 C   0  0  1  0  0  3  0  0  0  0  0  0
  185.1380  177.6980  137.4070 O   0  0  0  0  0  1  0  0  0  0  0  0
  183.1810  177.0920  138.5260 O   0  0  0  0  0  0  0  0  0  0  0  0
  181.3340  177.1170  140.0330 C   0  0  0  0  0  1  0  0  0  0  0  0
  181.8880  177.6100  138.7140 C   0  0  0  0  0  2  0  0  0  0  0  0
  190.1320  177.2960  141.7940 C   0  0  0  0  0  3  0  0  0  0  0  0
  190.3710  176.3160  141.0400 O   0  0  0  0  0  0  0  0  0  0  0  0
  187.9350  178.7240  140.3720 O   0  0  0  0  0  0  0  0  0  0  0  0
  187.9410  177.9660  139.2690 O   0  0  0  0  0  0  0  0  0  0  0  0
  188.9720  178.4910  138.4910 C   0  0  0  0  0  1  0  0  0  0  0  0
  1 12  1  1  0  0  0
  2 15  1  6  0  0  0
  2  7  1  0  0  0  0
  2  3  1  0  0  0  0
  3  1  1  0  0  0  0
  4  1  1  0  0  0  0
  4  9  1  0  0  0  0
  5  7  1  0  0  0  0
  5  6  2  0  0  0  0
  6  8  1  0  0  0  0
  7  4  2  0  0  0  0
  8  9  2  0  0  0  0
 12 11  1  0  0  0  0
 12 10  1  0  0  0  0
 13 15  1  0  0  0  0
 14 13  2  0  0  0  0
 16 17  1  1  0  0  0
 16 18  1  0  0  0  0
 16 13  1  0  0  0  0
 18 20  1  0  0  0  0
 20 19  1  0  0  0  0
 21  6  1  0  0  0  0
 22 21  2  0  0  0  0
 23  5  1  0  0  0  0
 24 23  1  0  0  0  0
 25 24  1  0  0  0  0
M  END
>  <MODEL>
5

>  <REMARK>
 VINA RESULT:      -6.7      3.306      6.027
  Name = 
  8 active torsions:
  status: ('A' for Active; 'I' for Inactive)
    1  A    between atoms: C_1  and  C_7
    2  A    between atoms: C_1  and  O_8
    3  A    between atoms: C_2  and  N_12
    4  A    between atoms: C_4  and  N_24
    5  A    between atoms: O_8  and  C_19
    6  A    between atoms: O_11  and  O_17
    7  A    between atoms: C_13  and  O_17
    8  A    between atoms: C_15  and  C_18
                            x       y       z     vdW  Elec       q    Type
                         _______ _______ _______ _____ _____    ______ ____

>  <TORSDO>
F 8

$$$$
=
 OpenBabel10222418073D

 25 26  0  0  1  0  0  0  0  0999 V2000
  186.5230  178.6790  141.8630 C   0  0  1  0  0  3  0  0  0  0  0  0
  187.8520  177.0890  143.2380 C   0  0  1  0  0  3  0  0  0  0  0  0
  186.5510  177.9080  143.2000 C   0  0  0  0  0  2  0  0  0  0  0  0
  187.7690  178.2580  141.1790 C   0  0  0  0  0  0  0  0  0  0  0  0
  189.7180  176.8530  141.4750 C   0  0  0  0  0  0  0  0  0  0  0  0
  190.1840  177.2610  140.1950 C   0  0  0  0  0  0  0  0  0  0  0  0
  188.5040  177.3810  141.9360 C   0  0  0  0  0  0  0  0  0  0  0  0
  189.4200  178.1750  139.4390 C   0  0  0  0  0  3  0  0  0  0  0  0
  188.2090  178.6780  139.9270 C   0  0  0  0  0  3  0  0  0  0  0  0
  184.9350  179.5500  140.4180 N   0  0  0  0  0  1  0  0  0  0  0  0
  184.3250  177.9750  141.8570 O   0  0  0  0  0  1  0  0  0  0  0  0
  185.3430  178.3660  141.0480 N   0  0  0  0  0  0  0  0  0  0  0  0
  188.2810  177.5150  145.6920 C   0  0  0  0  0  0  0  0  0  0  0  0
  187.1540  177.0420  146.0010 O   0  0  0  0  0  0  0  0  0  0  0  0
  188.6970  177.5590  144.3260 N   0  0  0  0  0  2  0  0  0  0  0  0
  189.2250  177.9850  146.7600 C   0  0  1  0  0  3  0  0  0  0  0  0
  188.7320  177.7390  148.0480 O   0  0  0  0  0  1  0  0  0  0  0  0
  190.5360  177.4900  146.5880 O   0  0  0  0  0  0  0  0  0  0  0  0
  192.1630  176.0150  147.5140 C   0  0  0  0  0  1  0  0  0  0  0  0
  190.6900  176.3300  147.3660 C   0  0  0  0  0  2  0  0  0  0  0  0
  191.4460  176.7610  139.6320 C   0  0  0  0  0  3  0  0  0  0  0  0
  192.5520  177.2900  139.9230 O   0  0  0  0  0  0  0  0  0  0  0  0
  190.4040  175.9520  142.3050 O   0  0  0  0  0  0  0  0  0  0  0  0
  191.4720  176.2960  143.0360 O   0  0  0  0  0  0  0  0  0  0  0  0
  191.6230  175.2510  143.9460 C   0  0  0  0  0  1  0  0  0  0  0  0
  1 12  1  6  0  0  0
  1  3  1  0  0  0  0
  2 15  1  1  0  0  0
  3  2  1  0  0  0  0
  4  1  1  0  0  0  0
  4  7  1  0  0  0  0
  5  7  2  0  0  0  0
  5 23  1  0  0  0  0
  6  5  1  0  0  0  0
  7  2  1  0  0  0  0
  8  9  1  0  0  0  0
  8  6  2  0  0  0  0
  9  4  2  0  0  0  0
 10 12  1  0  0  0  0
 12 11  1  0  0  0  0
 13 14  2  0  0  0  0
 13 16  1  0  0  0  0
 15 13  1  0  0  0  0
 16 17  1  1  0  0  0
 18 16  1  0  0  0  0
 18 20  1  0  0  0  0
 20 19  1  0  0  0  0
 21 22  2  0  0  0  0
 21  6  1  0  0  0  0
 23 24  1  0  0  0  0
 24 25  1  0  0  0  0
M  END
>  <MODEL>
6

>  <REMARK>
 VINA RESULT:      -6.6      2.362      7.211
  Name = 
  8 active torsions:
  status: ('A' for Active; 'I' for Inactive)
    1  A    between atoms: C_1  and  C_7
    2  A    between atoms: C_1  and  O_8
    3  A    between atoms: C_2  and  N_12
    4  A    between atoms: C_4  and  N_24
    5  A    between atoms: O_8  and  C_19
    6  A    between atoms: O_11  and  O_17
    7  A    between atoms: C_13  and  O_17
    8  A    between atoms: C_15  and  C_18
                            x       y       z     vdW  Elec       q    Type
                         _______ _______ _______ _____ _____    ______ ____

>  <TORSDO>
F 8

$$$$
=
 OpenBabel10222418073D

 25 26  0  0  1  0  0  0  0  0999 V2000
  190.7650  176.4340  146.7730 C   0  0  1  0  0  3  0  0  0  0  0  0
  189.1700  178.0570  145.7700 C   0  0  1  0  0  3  0  0  0  0  0  0
  189.6740  177.4770  147.1010 C   0  0  0  0  0  2  0  0  0  0  0  0
  190.8700  176.4770  145.2940 C   0  0  0  0  0  0  0  0  0  0  0  0
  189.9260  177.5720  143.3530 C   0  0  0  0  0  0  0  0  0  0  0  0
  190.7940  176.8110  142.5240 C   0  0  0  0  0  0  0  0  0  0  0  0
  189.9900  177.3710  144.7390 C   0  0  0  0  0  0  0  0  0  0  0  0
  191.6800  175.8860  143.1150 C   0  0  0  0  0  3  0  0  0  0  0  0
  191.7230  175.7140  144.5020 C   0  0  0  0  0  3  0  0  0  0  0  0
  192.6080  175.5330  147.8500 N   0  0  0  0  0  1  0  0  0  0  0  0
  191.8530  177.5160  148.4970 O   0  0  0  0  0  1  0  0  0  0  0  0
  192.0560  176.7410  147.4010 N   0  0  0  0  0  0  0  0  0  0  0  0
  186.7380  178.2270  146.4370 C   0  0  0  0  0  0  0  0  0  0  0  0
  187.0210  179.0150  147.3790 O   0  0  0  0  0  0  0  0  0  0  0  0
  187.7660  177.7180  145.5860 N   0  0  0  0  0  2  0  0  0  0  0  0
  185.3100  177.8580  146.1590 C   0  0  1  0  0  3  0  0  0  0  0  0
  184.4420  178.3100  147.1620 O   0  0  0  0  0  1  0  0  0  0  0  0
  184.8840  178.2500  144.8710 O   0  0  0  0  0  0  0  0  0  0  0  0
  182.9690  179.0030  143.6680 C   0  0  0  0  0  1  0  0  0  0  0  0
  183.7040  179.0030  144.9910 C   0  0  0  0  0  2  0  0  0  0  0  0
  190.7940  176.9530  141.0610 C   0  0  0  0  0  3  0  0  0  0  0  0
  191.7510  177.5030  140.4540 O   0  0  0  0  0  0  0  0  0  0  0  0
  189.0070  178.5140  142.8640 O   0  0  0  0  0  0  0  0  0  0  0  0
  187.7680  178.1940  142.4700 O   0  0  0  0  0  0  0  0  0  0  0  0
  187.7010  178.6280  141.1460 C   0  0  0  0  0  1  0  0  0  0  0  0
  1  3  1  0  0  0  0
  1 12  1  1  0  0  0
  2 15  1  6  0  0  0
  2  3  1  0  0  0  0
  4  1  1  0  0  0  0
  5  7  2  0  0  0  0
  6  8  2  0  0  0  0
  6  5  1  0  0  0  0
  7  4  1  0  0  0  0
  7  2  1  0  0  0  0
  8  9  1  0  0  0  0
  9  4  2  0  0  0  0
 12 10  1  0  0  0  0
 12 11  1  0  0  0  0
 13 14  2  0  0  0  0
 15 13  1  0  0  0  0
 16 13  1  0  0  0  0
 16 17  1  1  0  0  0
 18 20  1  0  0  0  0
 18 16  1  0  0  0  0
 19 20  1  0  0  0  0
 21  6  1  0  0  0  0
 22 21  2  0  0  0  0
 23  5  1  0  0  0  0
 24 23  1  0  0  0  0
 25 24  1  0  0  0  0
M  END
>  <MODEL>
7

>  <REMARK>
 VINA RESULT:      -6.6      1.771      5.241
  Name = 
  8 active torsions:
  status: ('A' for Active; 'I' for Inactive)
    1  A    between atoms: C_1  and  C_7
    2  A    between atoms: C_1  and  O_8
    3  A    between atoms: C_2  and  N_12
    4  A    between atoms: C_4  and  N_24
    5  A    between atoms: O_8  and  C_19
    6  A    between atoms: O_11  and  O_17
    7  A    between atoms: C_13  and  O_17
    8  A    between atoms: C_15  and  C_18
                            x       y       z     vdW  Elec       q    Type
                         _______ _______ _______ _____ _____    ______ ____

>  <TORSDO>
F 8

$$$$
=
 OpenBabel10222418073D

 25 26  0  0  1  0  0  0  0  0999 V2000
  184.9540  178.2080  144.0170 C   0  0  1  0  0  3  0  0  0  0  0  0
  185.4650  179.0170  141.7220 C   0  0  1  0  0  3  0  0  0  0  0  0
  184.3610  178.9290  142.7870 C   0  0  0  0  0  2  0  0  0  0  0  0
  186.3620  177.9440  143.6340 C   0  0  0  0  0  0  0  0  0  0  0  0
  187.9220  178.2430  141.8070 C   0  0  0  0  0  0  0  0  0  0  0  0
  188.9270  177.6040  142.5850 C   0  0  0  0  0  0  0  0  0  0  0  0
  186.6450  178.3890  142.3670 C   0  0  0  0  0  0  0  0  0  0  0  0
  188.6100  177.1410  143.8790 C   0  0  0  0  0  3  0  0  0  0  0  0
  187.3260  177.3080  144.4100 C   0  0  0  0  0  3  0  0  0  0  0  0
  185.2870  178.2040  146.3100 N   0  0  0  0  0  1  0  0  0  0  0  0
  183.5960  179.3730  145.4750 O   0  0  0  0  0  1  0  0  0  0  0  0
  184.8850  179.0170  145.2410 N   0  0  0  0  0  0  0  0  0  0  0  0
  184.6120  178.8620  139.3480 C   0  0  0  0  0  0  0  0  0  0  0  0
  184.5370  180.1180  139.2620 O   0  0  0  0  0  0  0  0  0  0  0  0
  185.0780  178.2470  140.5490 N   0  0  0  0  0  2  0  0  0  0  0  0
  184.2670  177.9990  138.1690 C   0  0  1  0  0  3  0  0  0  0  0  0
  183.0420  178.3580  137.5910 O   0  0  0  0  0  1  0  0  0  0  0  0
  185.3070  177.9340  137.2160 O   0  0  0  0  0  0  0  0  0  0  0  0
  186.7200  176.4380  136.0120 C   0  0  0  0  0  1  0  0  0  0  0  0
  185.8770  176.6500  137.2520 C   0  0  0  0  0  2  0  0  0  0  0  0
  190.2920  177.4050  142.0790 C   0  0  0  0  0  3  0  0  0  0  0  0
  190.5550  176.5190  141.2230 O   0  0  0  0  0  0  0  0  0  0  0  0
  188.1350  178.7350  140.5100 O   0  0  0  0  0  0  0  0  0  0  0  0
  188.1670  177.9530  139.4250 O   0  0  0  0  0  0  0  0  0  0  0  0
  189.0430  178.6000  138.5540 C   0  0  0  0  0  1  0  0  0  0  0  0
  1 12  1  1  0  0  0
  2 15  1  6  0  0  0
  2  7  1  0  0  0  0
  2  3  1  0  0  0  0
  3  1  1  0  0  0  0
  4  1  1  0  0  0  0
  4  9  1  0  0  0  0
  5  7  1  0  0  0  0
  5  6  2  0  0  0  0
  6  8  1  0  0  0  0
  7  4  2  0  0  0  0
  8  9  2  0  0  0  0
 12 11  1  0  0  0  0
 12 10  1  0  0  0  0
 13 15  1  0  0  0  0
 14 13  2  0  0  0  0
 16 17  1  6  0  0  0
 16 13  1  0  0  0  0
 18 20  1  0  0  0  0
 18 16  1  0  0  0  0
 19 20  1  0  0  0  0
 21  6  1  0  0  0  0
 22 21  2  0  0  0  0
 23  5  1  0  0  0  0
 24 23  1  0  0  0  0
 25 24  1  0  0  0  0
M  END
>  <MODEL>
8

>  <REMARK>
 VINA RESULT:      -6.5      3.262      5.829
  Name = 
  8 active torsions:
  status: ('A' for Active; 'I' for Inactive)
    1  A    between atoms: C_1  and  C_7
    2  A    between atoms: C_1  and  O_8
    3  A    between atoms: C_2  and  N_12
    4  A    between atoms: C_4  and  N_24
    5  A    between atoms: O_8  and  C_19
    6  A    between atoms: O_11  and  O_17
    7  A    between atoms: C_13  and  O_17
    8  A    between atoms: C_15  and  C_18
                            x       y       z     vdW  Elec       q    Type
                         _______ _______ _______ _____ _____    ______ ____

>  <TORSDO>
F 8

$$$$
=
 OpenBabel10222418073D

 25 26  0  0  1  0  0  0  0  0999 V2000
  188.1140  177.6010  141.4040 C   0  0  1  0  0  3  0  0  0  0  0  0
  189.6520  177.6580  143.3570 C   0  0  1  0  0  3  0  0  0  0  0  0
  189.5980  177.5430  141.8260 C   0  0  0  0  0  2  0  0  0  0  0  0
  187.3840  177.7790  142.6830 C   0  0  0  0  0  0  0  0  0  0  0  0
  187.7490  177.9740  145.0670 C   0  0  0  0  0  0  0  0  0  0  0  0
  186.3450  178.0960  145.2540 C   0  0  0  0  0  0  0  0  0  0  0  0
  188.2310  177.8090  143.7610 C   0  0  0  0  0  0  0  0  0  0  0  0
  185.4910  178.0470  144.1320 C   0  0  0  0  0  3  0  0  0  0  0  0
  186.0060  177.8870  142.8410 C   0  0  0  0  0  3  0  0  0  0  0  0
  186.9670  178.2090  139.4850 N   0  0  0  0  0  1  0  0  0  0  0  0
  188.9720  179.0810  139.8550 O   0  0  0  0  0  1  0  0  0  0  0  0
  187.8270  178.7020  140.4760 N   0  0  0  0  0  0  0  0  0  0  0  0
  191.3680  176.4200  144.7400 C   0  0  0  0  0  0  0  0  0  0  0  0
  191.9670  177.4950  145.0130 O   0  0  0  0  0  0  0  0  0  0  0  0
  190.1960  176.4320  143.9240 N   0  0  0  0  0  2  0  0  0  0  0  0
  191.8440  175.1180  145.3160 C   0  0  1  0  0  3  0  0  0  0  0  0
  192.3580  174.2620  144.3330 O   0  0  0  0  0  1  0  0  0  0  0  0
  192.7410  175.2920  146.3920 O   0  0  0  0  0  0  0  0  0  0  0  0
  192.9610  175.9830  148.6630 C   0  0  0  0  0  1  0  0  0  0  0  0
  192.0080  175.6000  147.5510 C   0  0  0  0  0  2  0  0  0  0  0  0
  185.7500  178.2690  146.5860 C   0  0  0  0  0  3  0  0  0  0  0  0
  185.2800  179.3770  146.9590 O   0  0  0  0  0  0  0  0  0  0  0  0
  188.6810  178.0080  146.1160 O   0  0  0  0  0  0  0  0  0  0  0  0
  188.8660  176.9890  146.9660 O   0  0  0  0  0  0  0  0  0  0  0  0
  188.4210  177.4750  148.1940 C   0  0  0  0  0  1  0  0  0  0  0  0
  1 12  1  6  0  0  0
  1  3  1  0  0  0  0
  1  4  1  0  0  0  0
  2  7  1  0  0  0  0
  2 15  1  1  0  0  0
  3  2  1  0  0  0  0
  4  9  2  0  0  0  0
  4  7  1  0  0  0  0
  5  6  1  0  0  0  0
  5 23  1  0  0  0  0
  6 21  1  0  0  0  0
  7  5  2  0  0  0  0
  8  6  2  0  0  0  0
  9  8  1  0  0  0  0
 10 12  1  0  0  0  0
 11 12  1  0  0  0  0
 13 14  2  0  0  0  0
 13 16  1  0  0  0  0
 15 13  1  0  0  0  0
 16 17  1  6  0  0  0
 16 18  1  0  0  0  0
 18 20  1  0  0  0  0
 20 19  1  0  0  0  0
 21 22  2  0  0  0  0
 23 24  1  0  0  0  0
 24 25  1  0  0  0  0
M  END
>  <MODEL>
9

>  <REMARK>
 VINA RESULT:      -6.4      2.126      5.791
  Name = 
  8 active torsions:
  status: ('A' for Active; 'I' for Inactive)
    1  A    between atoms: C_1  and  C_7
    2  A    between atoms: C_1  and  O_8
    3  A    between atoms: C_2  and  N_12
    4  A    between atoms: C_4  and  N_24
    5  A    between atoms: O_8  and  C_19
    6  A    between atoms: O_11  and  O_17
    7  A    between atoms: C_13  and  O_17
    8  A    between atoms: C_15  and  C_18
                            x       y       z     vdW  Elec       q    Type
                         _______ _______ _______ _____ _____    ______ ____

>  <TORSDO>
F 8

$$$$
