=
 OpenBabel10222417563D

 33 37  0  0  1  0  0  0  0  0999 V2000
  186.8420  177.6600  143.0530 C   0  0  0  0  0  2  0  0  0  0  0  0
  189.2610  177.0940  142.8690 C   0  0  2  0  0  0  0  0  0  0  0  0
  189.3890  178.0550  141.6850 C   0  0  2  0  0  3  0  0  0  0  0  0
  186.9310  178.2510  141.7120 N   0  0  2  0  0  0  0  0  0  0  0  0
  190.2560  177.3690  143.9970 C   0  0  2  0  0  3  0  0  0  0  0  0
  190.4220  176.1460  143.0930 C   0  0  0  0  0  2  0  0  0  0  0  0
  187.8720  176.5420  143.2000 C   0  0  0  0  0  2  0  0  0  0  0  0
  188.1880  179.0040  141.6660 C   0  0  0  0  0  2  0  0  0  0  0  0
  183.8820  178.4030  142.8950 C   0  0  2  0  0  3  0  0  0  0  0  0
  184.6400  178.4100  139.2940 C   0  0  0  0  0  0  0  0  0  0  0  0
  184.7290  178.5280  140.6860 C   0  0  0  0  0  0  0  0  0  0  0  0
  185.0660  179.3750  142.8610 C   0  0  0  0  0  2  0  0  0  0  0  0
  185.7990  179.1730  141.5140 C   0  0  1  0  0  3  0  0  0  0  0  0
  182.5660  177.2580  139.5990 N   0  0  0  0  0  0  0  0  0  0  0  0
  183.7060  178.0670  141.4690 C   0  0  0  0  0  0  0  0  0  0  0  0
  182.6590  179.1230  143.4330 C   0  0  0  0  0  1  0  0  0  0  0  0
  183.5280  177.7450  138.7620 C   0  0  0  0  0  3  0  0  0  0  0  0
  182.6420  177.4250  140.9220 N   0  0  0  0  0  0  0  0  0  0  0  0
  185.6440  179.0120  138.3740 C   0  0  0  0  0  1  0  0  0  0  0  0
  188.4400  177.3960  139.3340 C   0  0  0  0  0  2  0  0  0  0  0  0
  190.7680  176.8660  140.0590 C   0  0  0  0  0  3  0  0  0  0  0  0
  190.1180  176.6260  137.6550 C   0  0  1  0  0  3  0  0  0  0  0  0
  190.3130  175.8410  136.5210 O   0  0  0  0  0  1  0  0  0  0  0  0
  188.6840  176.4710  138.1430 C   0  0  0  0  0  2  0  0  0  0  0  0
  189.5530  177.3520  140.3650 C   0  0  0  0  0  0  0  0  0  0  0  0
  191.0620  176.1660  138.7590 C   0  0  0  0  0  2  0  0  0  0  0  0
  189.8060  177.0050  145.4270 C   0  0  2  0  0  3  0  0  0  0  0  0
  188.7000  177.7380  145.8750 O   0  0  0  0  0  1  0  0  0  0  0  0
  190.9650  177.1300  146.4030 C   0  0  0  0  0  2  0  0  0  0  0  0
  191.8340  175.8860  146.3540 C   0  0  0  0  0  2  0  0  0  0  0  0
  192.5380  175.6860  147.6840 C   0  0  0  0  0  2  0  0  0  0  0  0
  192.4690  176.9030  148.4730 N   0  0  0  0  0  2  0  0  0  0  0  0
  193.4160  176.7500  149.5620 C   0  0  0  0  0  1  0  0  0  0  0  0
  1  7  1  0  0  0  0
  2  6  1  6  0  0  0
  2  7  1  0  0  0  0
  2  5  1  0  0  0  0
  3 25  1  6  0  0  0
  3  2  1  0  0  0  0
  4  8  1  1  0  0  0
  4  1  1  0  0  0  0
  5 27  1  1  0  0  0
  6  5  1  0  0  0  0
  8  3  1  0  0  0  0
  9 16  1  6  0  0  0
 10 11  1  0  0  0  0
 11 15  2  0  0  0  0
 11 13  1  0  0  0  0
 12  9  1  0  0  0  0
 13  4  1  0  0  0  0
 13 12  1  1  0  0  0
 14 18  2  0  0  0  0
 15  9  1  0  0  0  0
 17 10  2  0  0  0  0
 17 14  1  0  0  0  0
 18 15  1  0  0  0  0
 19 10  1  0  0  0  0
 20 25  1  0  0  0  0
 21 25  2  0  0  0  0
 22 23  1  6  0  0  0
 22 24  1  0  0  0  0
 22 26  1  0  0  0  0
 24 20  1  0  0  0  0
 26 21  1  0  0  0  0
 27 28  1  1  0  0  0
 27 29  1  0  0  0  0
 30 29  1  0  0  0  0
 30 31  1  0  0  0  0
 31 32  1  0  0  0  0
 32 33  1  0  0  0  0
M  END
>  <MODEL>
1

>  <REMARK>
 VINA RESULT:      -7.8      0.000      0.000
  Name = 
  7 active torsions:
  status: ('A' for Active; 'I' for Inactive)
    1  A    between atoms: N_2  and  C_9
    2  A    between atoms: C_4  and  C_24
    3  A    between atoms: C_4  and  C_29
    4  A    between atoms: C_9  and  C_23
    5  A    between atoms: C_12  and  N_20
    6  A    between atoms: C_18  and  C_26
    7  A    between atoms: C_23  and  C_29
                            x       y       z     vdW  Elec       q    Type
                         _______ _______ _______ _____ _____    ______ ____

>  <TORSDO>
F 7

$$$$
=
 OpenBabel10222417563D

 33 37  0  0  1  0  0  0  0  0999 V2000
  187.8520  178.0880  142.4770 C   0  0  0  0  0  2  0  0  0  0  0  0
  190.0650  177.1880  141.7750 C   0  0  2  0  0  0  0  0  0  0  0  0
  189.8880  176.0150  142.7430 C   0  0  2  0  0  3  0  0  0  0  0  0
  187.9080  177.1860  143.6340 N   0  0  2  0  0  0  0  0  0  0  0  0
  190.3590  176.7600  140.3370 C   0  0  2  0  0  3  0  0  0  0  0  0
  191.4560  177.3810  141.2040 C   0  0  0  0  0  2  0  0  0  0  0  0
  189.2660  178.4660  142.0400 C   0  0  0  0  0  2  0  0  0  0  0  0
  188.4140  175.9010  143.1410 C   0  0  0  0  0  2  0  0  0  0  0  0
  185.1880  179.0080  143.6140 C   0  0  2  0  0  3  0  0  0  0  0  0
  186.6900  177.6770  146.6990 C   0  0  0  0  0  0  0  0  0  0  0  0
  186.3290  177.8880  145.3630 C   0  0  0  0  0  0  0  0  0  0  0  0
  185.5230  177.5800  143.1680 C   0  0  0  0  0  2  0  0  0  0  0  0
  186.5500  177.0050  144.1720 C   0  0  1  0  0  3  0  0  0  0  0  0
  185.7130  179.7960  147.2210 N   0  0  0  0  0  0  0  0  0  0  0  0
  185.6200  179.0090  145.0260 C   0  0  0  0  0  0  0  0  0  0  0  0
  183.6900  179.2240  143.5110 C   0  0  0  0  0  1  0  0  0  0  0  0
  186.3740  178.6740  147.6290 C   0  0  0  0  0  3  0  0  0  0  0  0
  185.3310  179.9590  145.9510 N   0  0  0  0  0  0  0  0  0  0  0  0
  187.3360  176.4180  147.1630 C   0  0  0  0  0  1  0  0  0  0  0  0
  190.5530  177.1950  144.9860 C   0  0  0  0  0  2  0  0  0  0  0  0
  191.6280  175.0910  144.1850 C   0  0  0  0  0  3  0  0  0  0  0  0
  191.9870  175.8670  146.5360 C   0  0  1  0  0  3  0  0  0  0  0  0
  192.9380  175.9440  147.5520 O   0  0  0  0  0  1  0  0  0  0  0  0
  191.6570  177.2670  146.0380 C   0  0  0  0  0  2  0  0  0  0  0  0
  190.7770  176.1050  143.9540 C   0  0  0  0  0  0  0  0  0  0  0  0
  192.5480  175.0550  145.3750 C   0  0  0  0  0  2  0  0  0  0  0  0
  189.8690  177.7020  139.2160 C   0  0  2  0  0  3  0  0  0  0  0  0
  188.4760  177.8280  139.1540 O   0  0  0  0  0  1  0  0  0  0  0  0
  190.4320  177.2720  137.8710 C   0  0  0  0  0  2  0  0  0  0  0  0
  191.2720  176.0170  138.0250 C   0  0  0  0  0  2  0  0  0  0  0  0
  192.6000  176.1840  137.3100 C   0  0  0  0  0  2  0  0  0  0  0  0
  193.6920  176.1340  138.2680 N   0  0  0  0  0  2  0  0  0  0  0  0
  194.4200  174.9070  138.0080 C   0  0  0  0  0  1  0  0  0  0  0  0
  2  6  1  1  0  0  0
  2  7  1  0  0  0  0
  2  3  1  0  0  0  0
  3  8  1  0  0  0  0
  3 25  1  1  0  0  0
  4  1  1  6  0  0  0
  4 13  1  0  0  0  0
  5 27  1  6  0  0  0
  5  6  1  0  0  0  0
  5  2  1  0  0  0  0
  7  1  1  0  0  0  0
  8  4  1  0  0  0  0
  9 16  1  1  0  0  0
  9 15  1  0  0  0  0
 10 19  1  0  0  0  0
 10 17  1  0  0  0  0
 11 10  2  0  0  0  0
 12  9  1  0  0  0  0
 13 12  1  6  0  0  0
 13 11  1  0  0  0  0
 14 17  2  0  0  0  0
 15 11  1  0  0  0  0
 15 18  2  0  0  0  0
 18 14  1  0  0  0  0
 20 24  1  0  0  0  0
 21 26  1  0  0  0  0
 22 23  1  1  0  0  0
 24 22  1  0  0  0  0
 25 21  2  0  0  0  0
 25 20  1  0  0  0  0
 26 22  1  0  0  0  0
 27 28  1  6  0  0  0
 29 30  1  0  0  0  0
 29 27  1  0  0  0  0
 31 30  1  0  0  0  0
 31 32  1  0  0  0  0
 33 32  1  0  0  0  0
M  END
>  <MODEL>
2

>  <REMARK>
 VINA RESULT:      -7.5      2.913      6.618
  Name = 
  7 active torsions:
  status: ('A' for Active; 'I' for Inactive)
    1  A    between atoms: N_2  and  C_9
    2  A    between atoms: C_4  and  C_24
    3  A    between atoms: C_4  and  C_29
    4  A    between atoms: C_9  and  C_23
    5  A    between atoms: C_12  and  N_20
    6  A    between atoms: C_18  and  C_26
    7  A    between atoms: C_23  and  C_29
                            x       y       z     vdW  Elec       q    Type
                         _______ _______ _______ _____ _____    ______ ____

>  <TORSDO>
F 7

$$$$
=
 OpenBabel10222417563D

 33 37  0  0  1  0  0  0  0  0999 V2000
  187.8300  178.1120  142.4840 C   0  0  0  0  0  2  0  0  0  0  0  0
  190.0370  177.2110  141.7620 C   0  0  2  0  0  0  0  0  0  0  0  0
  189.8660  176.0350  142.7270 C   0  0  2  0  0  3  0  0  0  0  0  0
  187.8940  177.2050  143.6370 N   0  0  2  0  0  0  0  0  0  0  0  0
  190.3190  176.7880  140.3190 C   0  0  2  0  0  3  0  0  0  0  0  0
  191.4230  177.4040  141.1800 C   0  0  0  0  0  2  0  0  0  0  0  0
  189.2410  178.4890  142.0370 C   0  0  0  0  0  2  0  0  0  0  0  0
  188.3940  175.9220  143.1360 C   0  0  0  0  0  2  0  0  0  0  0  0
  185.1740  179.0280  143.6390 C   0  0  2  0  0  3  0  0  0  0  0  0
  186.6990  177.6930  146.7110 C   0  0  0  0  0  0  0  0  0  0  0  0
  186.3280  177.9060  145.3780 C   0  0  0  0  0  0  0  0  0  0  0  0
  185.5060  177.6010  143.1890 C   0  0  0  0  0  2  0  0  0  0  0  0
  186.5390  177.0250  144.1850 C   0  0  1  0  0  3  0  0  0  0  0  0
  185.7260  179.8120  147.2430 N   0  0  0  0  0  0  0  0  0  0  0  0
  185.6170  179.0270  145.0470 C   0  0  0  0  0  0  0  0  0  0  0  0
  183.6760  179.2460  143.5470 C   0  0  0  0  0  1  0  0  0  0  0  0
  186.3900  178.6900  147.6450 C   0  0  0  0  0  3  0  0  0  0  0  0
  185.3350  179.9770  145.9760 N   0  0  0  0  0  0  0  0  0  0  0  0
  187.3480  176.4340  147.1690 C   0  0  0  0  0  1  0  0  0  0  0  0
  190.5560  177.2130  144.9630 C   0  0  0  0  0  2  0  0  0  0  0  0
  191.6070  175.0980  144.1580 C   0  0  0  0  0  3  0  0  0  0  0  0
  191.9900  175.8750  146.5050 C   0  0  1  0  0  3  0  0  0  0  0  0
  192.9490  175.9460  147.5140 O   0  0  0  0  0  1  0  0  0  0  0  0
  191.6690  177.2770  146.0070 C   0  0  0  0  0  2  0  0  0  0  0  0
  190.7640  176.1200  143.9310 C   0  0  0  0  0  0  0  0  0  0  0  0
  192.5360  175.0570  145.3420 C   0  0  0  0  0  2  0  0  0  0  0  0
  189.8230  177.7340  139.2070 C   0  0  2  0  0  3  0  0  0  0  0  0
  188.4280  177.8630  139.1550 O   0  0  0  0  0  1  0  0  0  0  0  0
  190.3740  177.3090  137.8550 C   0  0  0  0  0  2  0  0  0  0  0  0
  189.2510  176.8350  136.9510 C   0  0  0  0  0  2  0  0  0  0  0  0
  189.3240  177.5410  135.6090 C   0  0  0  0  0  2  0  0  0  0  0  0
  188.0530  177.4300  134.9160 N   0  0  0  0  0  2  0  0  0  0  0  0
  187.0190  177.7320  135.8880 C   0  0  0  0  0  1  0  0  0  0  0  0
  2  6  1  1  0  0  0
  2  7  1  0  0  0  0
  2  3  1  0  0  0  0
  3  8  1  0  0  0  0
  3 25  1  1  0  0  0
  4  1  1  6  0  0  0
  4 13  1  0  0  0  0
  5 27  1  6  0  0  0
  5  6  1  0  0  0  0
  5  2  1  0  0  0  0
  7  1  1  0  0  0  0
  8  4  1  0  0  0  0
  9 16  1  1  0  0  0
  9 15  1  0  0  0  0
 10 19  1  0  0  0  0
 10 17  1  0  0  0  0
 11 10  2  0  0  0  0
 12  9  1  0  0  0  0
 13 12  1  6  0  0  0
 13 11  1  0  0  0  0
 14 17  2  0  0  0  0
 15 11  1  0  0  0  0
 15 18  2  0  0  0  0
 18 14  1  0  0  0  0
 20 24  1  0  0  0  0
 21 26  1  0  0  0  0
 22 23  1  1  0  0  0
 24 22  1  0  0  0  0
 25 21  2  0  0  0  0
 25 20  1  0  0  0  0
 26 22  1  0  0  0  0
 27 28  1  6  0  0  0
 29 27  1  0  0  0  0
 30 29  1  0  0  0  0
 31 30  1  0  0  0  0
 32 31  1  0  0  0  0
 32 33  1  0  0  0  0
M  END
>  <MODEL>
3

>  <REMARK>
 VINA RESULT:      -7.1      2.845      7.200
  Name = 
  7 active torsions:
  status: ('A' for Active; 'I' for Inactive)
    1  A    between atoms: N_2  and  C_9
    2  A    between atoms: C_4  and  C_24
    3  A    between atoms: C_4  and  C_29
    4  A    between atoms: C_9  and  C_23
    5  A    between atoms: C_12  and  N_20
    6  A    between atoms: C_18  and  C_26
    7  A    between atoms: C_23  and  C_29
                            x       y       z     vdW  Elec       q    Type
                         _______ _______ _______ _____ _____    ______ ____

>  <TORSDO>
F 7

$$$$
=
 OpenBabel10222417563D

 33 37  0  0  1  0  0  0  0  0999 V2000
  190.3760  176.9750  140.5980 C   0  0  0  0  0  2  0  0  0  0  0  0
  190.2890  176.4820  138.1580 C   0  0  2  0  0  0  0  0  0  0  0  0
  189.2120  177.5570  137.9860 C   0  0  2  0  0  3  0  0  0  0  0  0
  189.1050  177.6950  140.4460 N   0  0  2  0  0  0  0  0  0  0  0  0
  191.4970  176.6680  137.2390 C   0  0  2  0  0  3  0  0  0  0  0  0
  190.4920  175.5430  136.9860 C   0  0  0  0  0  2  0  0  0  0  0  0
  190.4780  175.8700  139.5480 C   0  0  0  0  0  2  0  0  0  0  0  0
  189.2100  178.4760  139.2100 C   0  0  0  0  0  2  0  0  0  0  0  0
  189.7210  177.4730  143.6550 C   0  0  2  0  0  3  0  0  0  0  0  0
  186.4190  178.3730  142.3010 C   0  0  0  0  0  0  0  0  0  0  0  0
  187.7920  178.1530  142.4570 C   0  0  0  0  0  0  0  0  0  0  0  0
  190.1290  178.4560  142.5520 C   0  0  0  0  0  2  0  0  0  0  0  0
  188.9270  178.6060  141.5900 C   0  0  1  0  0  3  0  0  0  0  0  0
  186.0660  177.1270  144.3110 N   0  0  0  0  0  0  0  0  0  0  0  0
  188.2470  177.4890  143.5630 C   0  0  0  0  0  0  0  0  0  0  0  0
  190.1810  178.0090  144.9970 C   0  0  0  0  0  1  0  0  0  0  0  0
  185.5540  177.8270  143.2570 C   0  0  0  0  0  3  0  0  0  0  0  0
  187.3830  176.9690  144.4720 N   0  0  0  0  0  0  0  0  0  0  0  0
  185.8620  179.2060  141.2000 C   0  0  0  0  0  1  0  0  0  0  0  0
  186.6320  177.9020  137.6910 C   0  0  0  0  0  2  0  0  0  0  0  0
  187.7610  175.7060  137.3320 C   0  0  0  0  0  3  0  0  0  0  0  0
  185.4020  176.0440  136.5690 C   0  0  1  0  0  3  0  0  0  0  0  0
  184.1690  175.4080  136.4470 O   0  0  0  0  0  1  0  0  0  0  0  0
  185.3080  177.1450  137.6150 C   0  0  0  0  0  2  0  0  0  0  0  0
  187.8440  176.9890  137.7240 C   0  0  0  0  0  0  0  0  0  0  0  0
  186.4520  175.0340  137.0170 C   0  0  0  0  0  2  0  0  0  0  0  0
  192.8560  176.1560  137.7640 C   0  0  2  0  0  3  0  0  0  0  0  0
  193.4720  177.0240  138.6750 O   0  0  0  0  0  1  0  0  0  0  0  0
  193.7910  175.8370  136.6080 C   0  0  0  0  0  2  0  0  0  0  0  0
  194.8900  174.8930  137.0630 C   0  0  0  0  0  2  0  0  0  0  0  0
  194.2910  173.7060  137.7950 C   0  0  0  0  0  2  0  0  0  0  0  0
  195.2380  173.1920  138.7690 N   0  0  0  0  0  2  0  0  0  0  0  0
  196.0020  174.3280  139.2500 C   0  0  0  0  0  1  0  0  0  0  0  0
  2  6  1  6  0  0  0
  2  7  1  0  0  0  0
  3 25  1  1  0  0  0
  3  2  1  0  0  0  0
  3  8  1  0  0  0  0
  4  8  1  6  0  0  0
  4  1  1  0  0  0  0
  4 13  1  0  0  0  0
  5 27  1  1  0  0  0
  5  2  1  0  0  0  0
  6  5  1  0  0  0  0
  7  1  1  0  0  0  0
  9 16  1  1  0  0  0
 10 11  2  0  0  0  0
 10 17  1  0  0  0  0
 11 15  1  0  0  0  0
 12  9  1  0  0  0  0
 13 11  1  0  0  0  0
 13 12  1  1  0  0  0
 14 18  1  0  0  0  0
 15  9  1  0  0  0  0
 15 18  2  0  0  0  0
 17 14  2  0  0  0  0
 19 10  1  0  0  0  0
 20 25  1  0  0  0  0
 21 25  2  0  0  0  0
 22 23  1  1  0  0  0
 22 26  1  0  0  0  0
 22 24  1  0  0  0  0
 24 20  1  0  0  0  0
 26 21  1  0  0  0  0
 27 28  1  1  0  0  0
 29 30  1  0  0  0  0
 29 27  1  0  0  0  0
 30 31  1  0  0  0  0
 31 32  1  0  0  0  0
 32 33  1  0  0  0  0
M  END
>  <MODEL>
4

>  <REMARK>
 VINA RESULT:      -6.9      3.076      6.229
  Name = 
  7 active torsions:
  status: ('A' for Active; 'I' for Inactive)
    1  A    between atoms: N_2  and  C_9
    2  A    between atoms: C_4  and  C_24
    3  A    between atoms: C_4  and  C_29
    4  A    between atoms: C_9  and  C_23
    5  A    between atoms: C_12  and  N_20
    6  A    between atoms: C_18  and  C_26
    7  A    between atoms: C_23  and  C_29
                            x       y       z     vdW  Elec       q    Type
                         _______ _______ _______ _____ _____    ______ ____

>  <TORSDO>
F 7

$$$$
=
 OpenBabel10222417563D

 33 37  0  0  1  0  0  0  0  0999 V2000
  184.1270  177.1430  138.0490 C   0  0  0  0  0  2  0  0  0  0  0  0
  183.3070  178.3440  140.0700 C   0  0  2  0  0  0  0  0  0  0  0  0
  184.6110  179.1460  140.1150 C   0  0  2  0  0  3  0  0  0  0  0  0
  185.4720  177.6420  138.3590 N   0  0  2  0  0  0  0  0  0  0  0  0
  182.0490  179.2150  140.0550 C   0  0  2  0  0  3  0  0  0  0  0  0
  182.4310  178.4200  141.3050 C   0  0  0  0  0  2  0  0  0  0  0  0
  183.3120  177.0030  139.3330 C   0  0  0  0  0  2  0  0  0  0  0  0
  185.3180  179.0440  138.7610 C   0  0  0  0  0  2  0  0  0  0  0  0
  186.3260  175.2210  136.3270 C   0  0  2  0  0  3  0  0  0  0  0  0
  188.7780  177.3990  137.9970 C   0  0  0  0  0  0  0  0  0  0  0  0
  187.6040  176.8760  137.4410 C   0  0  0  0  0  0  0  0  0  0  0  0
  185.6570  176.5880  136.1420 C   0  0  0  0  0  2  0  0  0  0  0  0
  186.3070  177.5660  137.1480 C   0  0  1  0  0  3  0  0  0  0  0  0
  189.7550  175.2260  137.7930 N   0  0  0  0  0  0  0  0  0  0  0  0
  187.5780  175.5730  137.0260 C   0  0  0  0  0  0  0  0  0  0  0  0
  186.6210  174.6210  134.9650 C   0  0  0  0  0  1  0  0  0  0  0  0
  189.8610  176.5310  138.1780 C   0  0  0  0  0  3  0  0  0  0  0  0
  188.6450  174.7550  137.2170 N   0  0  0  0  0  0  0  0  0  0  0  0
  188.9270  178.8400  138.3400 C   0  0  0  0  0  1  0  0  0  0  0  0
  184.9390  178.2440  142.5530 C   0  0  0  0  0  2  0  0  0  0  0  0
  186.8350  178.6320  140.9780 C   0  0  0  0  0  3  0  0  0  0  0  0
  187.1990  177.3320  143.0860 C   0  0  1  0  0  3  0  0  0  0  0  0
  188.1190  177.0980  144.1060 O   0  0  0  0  0  1  0  0  0  0  0  0
  185.9870  178.0610  143.6480 C   0  0  0  0  0  2  0  0  0  0  0  0
  185.5210  178.7350  141.2410 C   0  0  0  0  0  0  0  0  0  0  0  0
  187.8410  178.2060  142.0150 C   0  0  0  0  0  2  0  0  0  0  0  0
  180.8150  178.6410  139.3280 C   0  0  2  0  0  3  0  0  0  0  0  0
  180.9020  178.7020  137.9320 O   0  0  0  0  0  1  0  0  0  0  0  0
  179.5430  179.3150  139.8180 C   0  0  0  0  0  2  0  0  0  0  0  0
  179.8590  180.6820  140.3980 C   0  0  0  0  0  2  0  0  0  0  0  0
  179.1420  180.8680  141.7230 C   0  0  0  0  0  2  0  0  0  0  0  0
  180.0320  180.5380  142.8230 N   0  0  0  0  0  2  0  0  0  0  0  0
  179.3810  179.4910  143.5870 C   0  0  0  0  0  1  0  0  0  0  0  0
  1  7  1  0  0  0  0
  2  7  1  6  0  0  0
  2  3  1  0  0  0  0
  2  6  1  0  0  0  0
  3 25  1  1  0  0  0
  4  1  1  6  0  0  0
  4  8  1  0  0  0  0
  5 27  1  6  0  0  0
  5  2  1  0  0  0  0
  5  6  1  0  0  0  0
  8  3  1  0  0  0  0
  9 16  1  6  0  0  0
  9 15  1  0  0  0  0
 10 17  1  0  0  0  0
 10 19  1  0  0  0  0
 11 10  2  0  0  0  0
 12  9  1  0  0  0  0
 13 12  1  6  0  0  0
 13 11  1  0  0  0  0
 13  4  1  0  0  0  0
 14 17  2  0  0  0  0
 15 18  2  0  0  0  0
 15 11  1  0  0  0  0
 18 14  1  0  0  0  0
 20 24  1  0  0  0  0
 21 25  2  0  0  0  0
 21 26  1  0  0  0  0
 22 24  1  0  0  0  0
 22 23  1  1  0  0  0
 25 20  1  0  0  0  0
 26 22  1  0  0  0  0
 27 28  1  6  0  0  0
 27 29  1  0  0  0  0
 29 30  1  0  0  0  0
 30 31  1  0  0  0  0
 31 32  1  0  0  0  0
 32 33  1  0  0  0  0
M  END
>  <MODEL>
5

>  <REMARK>
 VINA RESULT:      -6.8      3.870      8.455
  Name = 
  7 active torsions:
  status: ('A' for Active; 'I' for Inactive)
    1  A    between atoms: N_2  and  C_9
    2  A    between atoms: C_4  and  C_24
    3  A    between atoms: C_4  and  C_29
    4  A    between atoms: C_9  and  C_23
    5  A    between atoms: C_12  and  N_20
    6  A    between atoms: C_18  and  C_26
    7  A    between atoms: C_23  and  C_29
                            x       y       z     vdW  Elec       q    Type
                         _______ _______ _______ _____ _____    ______ ____

>  <TORSDO>
F 7

$$$$
=
 OpenBabel10222417563D

 33 37  0  0  1  0  0  0  0  0999 V2000
  187.4770  178.1250  141.2500 C   0  0  0  0  0  2  0  0  0  0  0  0
  189.8750  177.4530  141.2620 C   0  0  2  0  0  0  0  0  0  0  0  0
  189.9750  177.8050  139.7750 C   0  0  2  0  0  3  0  0  0  0  0  0
  187.5230  178.0760  139.7840 N   0  0  2  0  0  0  0  0  0  0  0  0
  190.9200  178.1540  142.1320 C   0  0  2  0  0  3  0  0  0  0  0  0
  191.0270  176.6560  141.8410 C   0  0  0  0  0  2  0  0  0  0  0  0
  188.4910  177.1450  141.8370 C   0  0  0  0  0  2  0  0  0  0  0  0
  188.7910  178.6930  139.3820 C   0  0  0  0  0  2  0  0  0  0  0  0
  184.2660  177.8980  140.0710 C   0  0  2  0  0  3  0  0  0  0  0  0
  185.9960  177.9370  136.8230 C   0  0  0  0  0  0  0  0  0  0  0  0
  185.6790  178.0860  138.1780 C   0  0  0  0  0  0  0  0  0  0  0  0
  185.3040  178.9980  140.3210 C   0  0  0  0  0  2  0  0  0  0  0  0
  186.4010  178.8600  139.2390 C   0  0  1  0  0  3  0  0  0  0  0  0
  184.0520  176.5620  136.5960 N   0  0  0  0  0  0  0  0  0  0  0  0
  184.5320  177.5230  138.6680 C   0  0  0  0  0  0  0  0  0  0  0  0
  182.8740  178.4820  140.2170 C   0  0  0  0  0  1  0  0  0  0  0  0
  185.1530  177.1420  136.0360 C   0  0  0  0  0  3  0  0  0  0  0  0
  183.7370  176.7560  137.8800 N   0  0  0  0  0  0  0  0  0  0  0  0
  187.1480  178.6360  136.1900 C   0  0  0  0  0  1  0  0  0  0  0  0
  188.8610  176.1240  138.1030 C   0  0  0  0  0  2  0  0  0  0  0  0
  191.2930  176.0820  138.6570 C   0  0  0  0  0  3  0  0  0  0  0  0
  190.4270  174.7670  136.7130 C   0  0  1  0  0  3  0  0  0  0  0  0
  190.5830  173.5680  136.0190 O   0  0  0  0  0  1  0  0  0  0  0  0
  189.0750  174.7780  137.4120 C   0  0  0  0  0  2  0  0  0  0  0  0
  190.0730  176.5960  138.8850 C   0  0  0  0  0  0  0  0  0  0  0  0
  191.5220  174.8910  137.7650 C   0  0  0  0  0  2  0  0  0  0  0  0
  190.5200  178.4580  143.5910 C   0  0  2  0  0  3  0  0  0  0  0  0
  190.9030  179.7330  144.0280 O   0  0  0  0  0  1  0  0  0  0  0  0
  191.0540  177.3850  144.5280 C   0  0  0  0  0  2  0  0  0  0  0  0
  190.2160  177.3230  145.7920 C   0  0  0  0  0  2  0  0  0  0  0  0
  188.7420  177.2460  145.4410 C   0  0  0  0  0  2  0  0  0  0  0  0
  187.9440  177.8390  146.5000 N   0  0  0  0  0  2  0  0  0  0  0  0
  188.4990  177.3670  147.7550 C   0  0  0  0  0  1  0  0  0  0  0  0
  1  7  1  0  0  0  0
  2  7  1  1  0  0  0
  2  6  1  0  0  0  0
  2  5  1  0  0  0  0
  3 25  1  6  0  0  0
  3  2  1  0  0  0  0
  4  8  1  6  0  0  0
  4  1  1  0  0  0  0
  5 27  1  1  0  0  0
  6  5  1  0  0  0  0
  8  3  1  0  0  0  0
  9 16  1  6  0  0  0
  9 12  1  0  0  0  0
 10 11  1  0  0  0  0
 11 15  2  0  0  0  0
 11 13  1  0  0  0  0
 13  4  1  0  0  0  0
 13 12  1  1  0  0  0
 14 18  2  0  0  0  0
 15  9  1  0  0  0  0
 17 14  1  0  0  0  0
 17 10  2  0  0  0  0
 18 15  1  0  0  0  0
 19 10  1  0  0  0  0
 20 25  1  0  0  0  0
 21 25  2  0  0  0  0
 22 23  1  1  0  0  0
 22 24  1  0  0  0  0
 22 26  1  0  0  0  0
 24 20  1  0  0  0  0
 26 21  1  0  0  0  0
 27 28  1  1  0  0  0
 27 29  1  0  0  0  0
 29 30  1  0  0  0  0
 31 30  1  0  0  0  0
 31 32  1  0  0  0  0
 32 33  1  0  0  0  0
M  END
>  <MODEL>
6

>  <REMARK>
 VINA RESULT:      -6.2      2.188      2.771
  Name = 
  7 active torsions:
  status: ('A' for Active; 'I' for Inactive)
    1  A    between atoms: N_2  and  C_9
    2  A    between atoms: C_4  and  C_24
    3  A    between atoms: C_4  and  C_29
    4  A    between atoms: C_9  and  C_23
    5  A    between atoms: C_12  and  N_20
    6  A    between atoms: C_18  and  C_26
    7  A    between atoms: C_23  and  C_29
                            x       y       z     vdW  Elec       q    Type
                         _______ _______ _______ _____ _____    ______ ____

>  <TORSDO>
F 7

$$$$
=
 OpenBabel10222417563D

 33 37  0  0  1  0  0  0  0  0999 V2000
  181.6430  177.9150  140.5250 C   0  0  0  0  0  2  0  0  0  0  0  0
  184.0370  178.4150  140.9970 C   0  0  2  0  0  0  0  0  0  0  0  0
  184.1450  179.1370  139.6510 C   0  0  2  0  0  3  0  0  0  0  0  0
  181.8990  178.2650  139.1230 N   0  0  2  0  0  0  0  0  0  0  0  0
  184.4790  179.2650  142.1890 C   0  0  2  0  0  3  0  0  0  0  0  0
  185.3450  178.1040  141.6970 C   0  0  0  0  0  2  0  0  0  0  0  0
  182.9210  177.3830  141.1720 C   0  0  0  0  0  2  0  0  0  0  0  0
  182.7410  179.4650  139.1350 C   0  0  0  0  0  2  0  0  0  0  0  0
  181.0450  179.0300  136.0560 C   0  0  2  0  0  3  0  0  0  0  0  0
  180.1410  181.0940  138.9650 C   0  0  0  0  0  0  0  0  0  0  0  0
  180.5230  180.0310  138.1390 C   0  0  0  0  0  0  0  0  0  0  0  0
  180.6150  177.9430  137.0470 C   0  0  0  0  0  2  0  0  0  0  0  0
  180.6190  178.5700  138.4600 C   0  0  1  0  0  3  0  0  0  0  0  0
  180.4920  182.5640  137.1110 N   0  0  0  0  0  0  0  0  0  0  0  0
  180.8090  180.2690  136.8220 C   0  0  0  0  0  0  0  0  0  0  0  0
  180.1480  178.9750  134.8330 C   0  0  0  0  0  1  0  0  0  0  0  0
  180.1440  182.3830  138.4180 C   0  0  0  0  0  3  0  0  0  0  0  0
  180.8060  181.5310  136.3230 N   0  0  0  0  0  0  0  0  0  0  0  0
  179.6800  180.8920  140.3660 C   0  0  0  0  0  1  0  0  0  0  0  0
  184.2300  177.5110  137.5990 C   0  0  0  0  0  2  0  0  0  0  0  0
  186.2550  178.6280  138.5350 C   0  0  0  0  0  3  0  0  0  0  0  0
  186.3660  177.4890  136.3100 C   0  0  1  0  0  3  0  0  0  0  0  0
  187.1910  176.7220  135.4900 O   0  0  0  0  0  1  0  0  0  0  0  0
  185.1820  176.6510  136.7710 C   0  0  0  0  0  2  0  0  0  0  0  0
  184.9390  178.3710  138.6280 C   0  0  0  0  0  0  0  0  0  0  0  0
  187.1490  177.9450  137.5350 C   0  0  0  0  0  2  0  0  0  0  0  0
  183.7950  178.9760  143.5420 C   0  0  2  0  0  3  0  0  0  0  0  0
  182.4530  179.3780  143.5930 O   0  0  0  0  0  1  0  0  0  0  0  0
  184.5850  179.5930  144.6850 C   0  0  0  0  0  2  0  0  0  0  0  0
  184.6650  178.6260  145.8540 C   0  0  0  0  0  2  0  0  0  0  0  0
  186.1160  178.3430  146.2010 C   0  0  0  0  0  2  0  0  0  0  0  0
  186.7270  177.5300  145.1640 N   0  0  0  0  0  2  0  0  0  0  0  0
  188.1520  177.5030  145.4400 C   0  0  0  0  0  1  0  0  0  0  0  0
  1  7  1  0  0  0  0
  2  7  1  1  0  0  0
  2  6  1  0  0  0  0
  2  5  1  0  0  0  0
  3 25  1  6  0  0  0
  3  2  1  0  0  0  0
  4  8  1  1  0  0  0
  4  1  1  0  0  0  0
  5 27  1  1  0  0  0
  6  5  1  0  0  0  0
  8  3  1  0  0  0  0
  9 16  1  6  0  0  0
  9 15  1  0  0  0  0
  9 12  1  0  0  0  0
 10 19  1  0  0  0  0
 11 13  1  0  0  0  0
 11 10  2  0  0  0  0
 13 12  1  6  0  0  0
 13  4  1  0  0  0  0
 14 17  2  0  0  0  0
 15 11  1  0  0  0  0
 17 10  1  0  0  0  0
 18 15  2  0  0  0  0
 18 14  1  0  0  0  0
 20 25  1  0  0  0  0
 21 25  2  0  0  0  0
 22 23  1  6  0  0  0
 22 24  1  0  0  0  0
 22 26  1  0  0  0  0
 24 20  1  0  0  0  0
 26 21  1  0  0  0  0
 27 28  1  6  0  0  0
 27 29  1  0  0  0  0
 29 30  1  0  0  0  0
 30 31  1  0  0  0  0
 32 33  1  0  0  0  0
 32 31  1  0  0  0  0
M  END
>  <MODEL>
7

>  <REMARK>
 VINA RESULT:      -6.1      3.395      6.067
  Name = 
  7 active torsions:
  status: ('A' for Active; 'I' for Inactive)
    1  A    between atoms: N_2  and  C_9
    2  A    between atoms: C_4  and  C_24
    3  A    between atoms: C_4  and  C_29
    4  A    between atoms: C_9  and  C_23
    5  A    between atoms: C_12  and  N_20
    6  A    between atoms: C_18  and  C_26
    7  A    between atoms: C_23  and  C_29
                            x       y       z     vdW  Elec       q    Type
                         _______ _______ _______ _____ _____    ______ ____

>  <TORSDO>
F 7

$$$$
=
 OpenBabel10222417563D

 33 37  0  0  1  0  0  0  0  0999 V2000
  190.5990  178.2490  141.4500 C   0  0  0  0  0  2  0  0  0  0  0  0
  189.4840  177.2160  143.4230 C   0  0  2  0  0  0  0  0  0  0  0  0
  188.2880  176.8410  142.5430 C   0  0  2  0  0  3  0  0  0  0  0  0
  189.3020  178.2150  140.7630 N   0  0  2  0  0  0  0  0  0  0  0  0
  190.0870  176.0310  144.1800 C   0  0  2  0  0  3  0  0  0  0  0  0
  189.2770  177.0980  144.9200 C   0  0  0  0  0  2  0  0  0  0  0  0
  190.3880  178.3600  142.9590 C   0  0  0  0  0  2  0  0  0  0  0  0
  188.6970  176.9150  141.0690 C   0  0  0  0  0  2  0  0  0  0  0  0
  187.6220  177.2470  138.1240 C   0  0  2  0  0  3  0  0  0  0  0  0
  191.1520  176.3710  138.6890 C   0  0  0  0  0  0  0  0  0  0  0  0
  189.8990  176.9950  138.7300 C   0  0  0  0  0  0  0  0  0  0  0  0
  188.1700  178.5940  138.6090 C   0  0  0  0  0  2  0  0  0  0  0  0
  189.5220  178.3240  139.3110 C   0  0  1  0  0  3  0  0  0  0  0  0
  190.1210  174.5380  137.5510 N   0  0  0  0  0  0  0  0  0  0  0  0
  188.8280  176.3960  138.1240 C   0  0  0  0  0  0  0  0  0  0  0  0
  187.0780  177.4080  136.7170 C   0  0  0  0  0  1  0  0  0  0  0  0
  191.2370  175.1080  138.0910 C   0  0  0  0  0  3  0  0  0  0  0  0
  188.9430  175.1700  137.5530 N   0  0  0  0  0  0  0  0  0  0  0  0
  192.3870  177.0260  139.2010 C   0  0  0  0  0  1  0  0  0  0  0  0
  186.4010  178.4440  141.6880 C   0  0  0  0  0  2  0  0  0  0  0  0
  186.4830  177.5590  144.0200 C   0  0  0  0  0  3  0  0  0  0  0  0
  184.4110  178.6780  143.1740 C   0  0  1  0  0  3  0  0  0  0  0  0
  183.3660  179.5200  143.5510 O   0  0  0  0  0  1  0  0  0  0  0  0
  185.3040  179.3920  142.1690 C   0  0  0  0  0  2  0  0  0  0  0  0
  187.0660  177.6760  142.8150 C   0  0  0  0  0  0  0  0  0  0  0  0
  185.2430  178.3230  144.4000 C   0  0  0  0  0  2  0  0  0  0  0  0
  191.5970  176.0980  144.4880 C   0  0  2  0  0  3  0  0  0  0  0  0
  192.2550  174.8680  144.3620 O   0  0  0  0  0  1  0  0  0  0  0  0
  191.8370  176.6990  145.8650 C   0  0  0  0  0  2  0  0  0  0  0  0
  192.2880  175.6250  146.8380 C   0  0  0  0  0  2  0  0  0  0  0  0
  192.2340  176.1510  148.2610 C   0  0  0  0  0  2  0  0  0  0  0  0
  193.5540  176.0920  148.8660 N   0  0  0  0  0  2  0  0  0  0  0  0
  193.5780  177.0950  149.9140 C   0  0  0  0  0  1  0  0  0  0  0  0
  1  7  1  0  0  0  0
  2  7  1  6  0  0  0
  2  5  1  0  0  0  0
  2  6  1  0  0  0  0
  3 25  1  6  0  0  0
  3  2  1  0  0  0  0
  4  8  1  6  0  0  0
  4  1  1  0  0  0  0
  5 27  1  1  0  0  0
  5  6  1  0  0  0  0
  8  3  1  0  0  0  0
  9 16  1  6  0  0  0
  9 12  1  0  0  0  0
 10 11  1  0  0  0  0
 10 19  1  0  0  0  0
 11 13  1  0  0  0  0
 13 12  1  6  0  0  0
 13  4  1  0  0  0  0
 14 18  2  0  0  0  0
 14 17  1  0  0  0  0
 15  9  1  0  0  0  0
 15 11  2  0  0  0  0
 17 10  2  0  0  0  0
 18 15  1  0  0  0  0
 20 24  1  0  0  0  0
 20 25  1  0  0  0  0
 21 26  1  0  0  0  0
 22 23  1  1  0  0  0
 22 26  1  0  0  0  0
 24 22  1  0  0  0  0
 25 21  2  0  0  0  0
 27 28  1  1  0  0  0
 27 29  1  0  0  0  0
 29 30  1  0  0  0  0
 30 31  1  0  0  0  0
 31 32  1  0  0  0  0
 32 33  1  0  0  0  0
M  END
>  <MODEL>
8

>  <REMARK>
 VINA RESULT:      -6.0      2.773      5.337
  Name = 
  7 active torsions:
  status: ('A' for Active; 'I' for Inactive)
    1  A    between atoms: N_2  and  C_9
    2  A    between atoms: C_4  and  C_24
    3  A    between atoms: C_4  and  C_29
    4  A    between atoms: C_9  and  C_23
    5  A    between atoms: C_12  and  N_20
    6  A    between atoms: C_18  and  C_26
    7  A    between atoms: C_23  and  C_29
                            x       y       z     vdW  Elec       q    Type
                         _______ _______ _______ _____ _____    ______ ____

>  <TORSDO>
F 7

$$$$
=
 OpenBabel10222417563D

 33 37  0  0  1  0  0  0  0  0999 V2000
  190.4340  176.2310  139.1000 C   0  0  0  0  0  2  0  0  0  0  0  0
  189.6100  176.1800  136.7500 C   0  0  2  0  0  0  0  0  0  0  0  0
  188.7720  177.4320  137.0240 C   0  0  2  0  0  3  0  0  0  0  0  0
  189.3460  177.1670  139.4080 N   0  0  2  0  0  0  0  0  0  0  0  0
  190.5460  176.3160  135.5480 C   0  0  2  0  0  3  0  0  0  0  0  0
  189.2990  175.4330  135.4690 C   0  0  0  0  0  2  0  0  0  0  0  0
  190.0270  175.3190  137.9450 C   0  0  0  0  0  2  0  0  0  0  0  0
  189.2810  178.1190  138.2940 C   0  0  0  0  0  2  0  0  0  0  0  0
  190.6310  176.2850  142.2880 C   0  0  2  0  0  3  0  0  0  0  0  0
  187.4170  178.0510  141.9800 C   0  0  0  0  0  0  0  0  0  0  0  0
  188.6950  177.5350  141.7360 C   0  0  0  0  0  0  0  0  0  0  0  0
  190.9900  177.3370  141.2330 C   0  0  0  0  0  2  0  0  0  0  0  0
  189.6670  177.8880  140.6520 C   0  0  1  0  0  3  0  0  0  0  0  0
  187.2620  176.5800  143.8590 N   0  0  0  0  0  0  0  0  0  0  0  0
  189.2260  176.6140  142.5980 C   0  0  0  0  0  0  0  0  0  0  0  0
  191.5110  176.4810  143.5080 C   0  0  0  0  0  1  0  0  0  0  0  0
  186.6980  177.5380  143.0670 C   0  0  0  0  0  3  0  0  0  0  0  0
  188.5030  176.1340  143.6420 N   0  0  0  0  0  0  0  0  0  0  0  0
  186.8320  179.1550  141.1690 C   0  0  0  0  0  1  0  0  0  0  0  0
  186.7840  175.7260  137.0250 C   0  0  0  0  0  2  0  0  0  0  0  0
  186.4840  178.1660  137.4490 C   0  0  0  0  0  3  0  0  0  0  0  0
  184.6220  176.5690  137.9410 C   0  0  1  0  0  3  0  0  0  0  0  0
  183.2360  176.4250  137.8990 O   0  0  0  0  0  1  0  0  0  0  0  0
  185.2630  175.6360  136.9240 C   0  0  0  0  0  2  0  0  0  0  0  0
  187.2960  177.1520  137.1070 C   0  0  0  0  0  0  0  0  0  0  0  0
  184.9940  178.0040  137.5900 C   0  0  0  0  0  2  0  0  0  0  0  0
  191.8580  175.5050  135.5930 C   0  0  2  0  0  3  0  0  0  0  0  0
  191.6950  174.1910  136.0500 O   0  0  0  0  0  1  0  0  0  0  0  0
  192.9100  176.2330  136.4140 C   0  0  0  0  0  2  0  0  0  0  0  0
  193.6100  175.2670  137.3540 C   0  0  0  0  0  2  0  0  0  0  0  0
  194.9940  174.9330  136.8270 C   0  0  0  0  0  2  0  0  0  0  0  0
  195.9560  174.9350  137.9150 N   0  0  0  0  0  2  0  0  0  0  0  0
  195.5980  173.8350  138.7910 C   0  0  0  0  0  1  0  0  0  0  0  0
  1  4  1  0  0  0  0
  2  6  1  6  0  0  0
  2  3  1  0  0  0  0
  2  7  1  0  0  0  0
  3 25  1  1  0  0  0
  3  8  1  0  0  0  0
  4  8  1  6  0  0  0
  4 13  1  0  0  0  0
  5 27  1  1  0  0  0
  5  2  1  0  0  0  0
  6  5  1  0  0  0  0
  7  1  1  0  0  0  0
  9 15  1  0  0  0  0
  9 16  1  1  0  0  0
 10 17  1  0  0  0  0
 11 10  2  0  0  0  0
 11 15  1  0  0  0  0
 12  9  1  0  0  0  0
 13 12  1  1  0  0  0
 13 11  1  0  0  0  0
 15 18  2  0  0  0  0
 17 14  2  0  0  0  0
 18 14  1  0  0  0  0
 19 10  1  0  0  0  0
 20 25  1  0  0  0  0
 21 26  1  0  0  0  0
 22 23  1  6  0  0  0
 24 20  1  0  0  0  0
 24 22  1  0  0  0  0
 25 21  2  0  0  0  0
 26 22  1  0  0  0  0
 27 28  1  1  0  0  0
 27 29  1  0  0  0  0
 29 30  1  0  0  0  0
 31 30  1  0  0  0  0
 31 32  1  0  0  0  0
 32 33  1  0  0  0  0
M  END
>  <MODEL>
9

>  <REMARK>
 VINA RESULT:      -6.0      3.386      7.071
  Name = 
  7 active torsions:
  status: ('A' for Active; 'I' for Inactive)
    1  A    between atoms: N_2  and  C_9
    2  A    between atoms: C_4  and  C_24
    3  A    between atoms: C_4  and  C_29
    4  A    between atoms: C_9  and  C_23
    5  A    between atoms: C_12  and  N_20
    6  A    between atoms: C_18  and  C_26
    7  A    between atoms: C_23  and  C_29
                            x       y       z     vdW  Elec       q    Type
                         _______ _______ _______ _____ _____    ______ ____

>  <TORSDO>
F 7

$$$$
