=
 OpenBabel10222418093D

 25 27  0  0  1  0  0  0  0  0999 V2000
  186.2790  178.1240  142.6740 C   0  0  0  0  0  0  0  0  0  0  0  0
  186.2020  178.3300  146.4540 C   0  0  0  0  0  0  0  0  0  0  0  0
  187.8220  177.4610  144.4390 N   0  0  0  0  0  0  0  0  0  0  0  0
  185.8010  178.4510  145.0790 C   0  0  0  0  0  0  0  0  0  0  0  0
  184.9910  178.6250  142.3660 C   0  0  0  0  0  0  0  0  0  0  0  0
  188.1920  177.3430  145.7370 N   0  0  0  0  0  0  0  0  0  0  0  0
  187.4510  177.7500  146.7800 C   0  0  0  0  0  0  0  0  0  0  0  0
  185.4390  178.7300  147.3770 O   0  0  0  0  0  0  0  0  0  0  0  0
  184.5500  178.9750  144.7430 C   0  0  0  0  0  3  0  0  0  0  0  0
  186.6610  178.0120  144.0270 C   0  0  0  0  0  0  0  0  0  0  0  0
  189.0440  176.8000  144.0090 C   0  0  0  0  0  2  0  0  0  0  0  0
  187.8470  177.6060  147.9680 O   0  0  0  0  0  0  0  0  0  0  0  0
  189.4400  176.6960  145.3550 C   0  0  1  0  0  3  0  0  0  0  0  0
  184.1530  179.0540  143.4090 C   0  0  0  0  0  3  0  0  0  0  0  0
  184.8970  179.6770  140.2340 O   0  0  0  0  0  0  0  0  0  0  0  0
  184.4860  178.7420  140.9750 C   0  0  0  0  0  0  0  0  0  0  0  0
  183.5310  177.8260  140.4490 N   0  0  0  0  0  1  0  0  0  0  0  0
  190.6280  177.6150  145.6360 C   0  0  1  0  0  3  0  0  0  0  0  0
  191.3960  177.0970  146.7560 N   0  0  0  0  0  1  0  0  0  0  0  0
  191.7820  179.0400  144.1040 O   0  0  0  0  0  1  0  0  0  0  0  0
  191.5260  177.7030  144.4120 C   0  0  0  0  0  2  0  0  0  0  0  0
  187.1500  177.7540  141.6470 O   0  0  0  0  0  0  0  0  0  0  0  0
  188.1110  178.6600  141.1240 C   0  0  0  0  0  2  0  0  0  0  0  0
  188.8520  179.0220  138.8880 O   0  0  0  0  0  1  0  0  0  0  0  0
  188.7690  178.0620  139.8960 C   0  0  0  0  0  2  0  0  0  0  0  0
  1 10  1  0  0  0  0
  2  7  1  0  0  0  0
  2  8  2  0  0  0  0
  3  6  1  0  0  0  0
  4  2  1  0  0  0  0
  5  1  2  0  0  0  0
  5 14  1  0  0  0  0
  6  7  1  0  0  0  0
  7 12  2  0  0  0  0
  9  4  1  0  0  0  0
 10  3  1  0  0  0  0
 10  4  2  0  0  0  0
 11  3  1  0  0  0  0
 11 13  1  0  0  0  0
 13 18  1  6  0  0  0
 13  6  1  0  0  0  0
 14  9  2  0  0  0  0
 15 16  2  0  0  0  0
 16  5  1  0  0  0  0
 17 16  1  0  0  0  0
 18 19  1  1  0  0  0
 20 21  1  0  0  0  0
 21 18  1  0  0  0  0
 22  1  1  0  0  0  0
 23 22  1  0  0  0  0
 24 25  1  0  0  0  0
 25 23  1  0  0  0  0
M  END
>  <MODEL>
1

>  <REMARK>
 VINA RESULT:      -8.2      0.000      0.000
  Name = 
  6 active torsions:
  status: ('A' for Active; 'I' for Inactive)
    1  A    between atoms: C_1  and  O_22
    2  A    between atoms: C_5  and  C_10
    3  A    between atoms: CA_15  and  C_20
    4  A    between atoms: CA_15  and  C_25
    5  A    between atoms: C_16  and  C_24
    6  A    between atoms: O_22  and  C_24
                            x       y       z     vdW  Elec       q    Type
                         _______ _______ _______ _____ _____    ______ ____

>  <TORSDO>
F 6

$$$$
=
 OpenBabel10222418093D

 25 27  0  0  1  0  0  0  0  0999 V2000
  185.4150  178.1800  144.0280 C   0  0  0  0  0  0  0  0  0  0  0  0
  188.0350  177.6980  146.7180 C   0  0  0  0  0  0  0  0  0  0  0  0
  187.6590  177.2330  144.0570 N   0  0  0  0  0  0  0  0  0  0  0  0
  186.8020  178.0590  146.0720 C   0  0  0  0  0  0  0  0  0  0  0  0
  184.3520  178.7080  144.8000 C   0  0  0  0  0  0  0  0  0  0  0  0
  188.8160  176.8880  144.6730 N   0  0  0  0  0  0  0  0  0  0  0  0
  189.0740  177.0880  145.9760 C   0  0  0  0  0  0  0  0  0  0  0  0
  188.1920  177.9130  147.9520 O   0  0  0  0  0  0  0  0  0  0  0  0
  185.7490  178.6150  146.8010 C   0  0  0  0  0  3  0  0  0  0  0  0
  186.6190  177.8310  144.6740 C   0  0  0  0  0  0  0  0  0  0  0  0
  188.1400  176.6800  142.8010 C   0  0  0  0  0  2  0  0  0  0  0  0
  190.1680  176.7380  146.4940 O   0  0  0  0  0  0  0  0  0  0  0  0
  189.3500  176.3410  143.4330 C   0  0  1  0  0  3  0  0  0  0  0  0
  184.5440  178.9280  146.1740 C   0  0  0  0  0  3  0  0  0  0  0  0
  182.8980  180.1590  143.5990 O   0  0  0  0  0  0  0  0  0  0  0  0
  183.0350  179.0670  144.2150 C   0  0  0  0  0  0  0  0  0  0  0  0
  181.9050  178.2100  144.3410 N   0  0  0  0  0  1  0  0  0  0  0  0
  190.4900  177.2130  142.9090 C   0  0  1  0  0  3  0  0  0  0  0  0
  191.7480  176.7850  143.5010 N   0  0  0  0  0  1  0  0  0  0  0  0
  191.8520  177.5020  140.9680 O   0  0  0  0  0  1  0  0  0  0  0  0
  190.5850  177.1010  141.3960 C   0  0  0  0  0  2  0  0  0  0  0  0
  185.2640  178.0150  142.6490 O   0  0  0  0  0  0  0  0  0  0  0  0
  185.4990  179.0840  141.7420 C   0  0  0  0  0  2  0  0  0  0  0  0
  184.9220  179.8100  139.5480 O   0  0  0  0  0  1  0  0  0  0  0  0
  184.4750  179.0460  140.6250 C   0  0  0  0  0  2  0  0  0  0  0  0
  1 10  2  0  0  0  0
  1  5  1  0  0  0  0
  2  8  2  0  0  0  0
  3  6  1  0  0  0  0
  3 10  1  0  0  0  0
  4  2  1  0  0  0  0
  4  9  2  0  0  0  0
  5 14  2  0  0  0  0
  6  7  1  0  0  0  0
  7 12  2  0  0  0  0
  7  2  1  0  0  0  0
 10  4  1  0  0  0  0
 11 13  1  0  0  0  0
 11  3  1  0  0  0  0
 13 18  1  6  0  0  0
 13  6  1  0  0  0  0
 14  9  1  0  0  0  0
 15 16  2  0  0  0  0
 16 17  1  0  0  0  0
 16  5  1  0  0  0  0
 18 19  1  1  0  0  0
 20 21  1  0  0  0  0
 21 18  1  0  0  0  0
 22  1  1  0  0  0  0
 23 22  1  0  0  0  0
 24 25  1  0  0  0  0
 25 23  1  0  0  0  0
M  END
>  <MODEL>
2

>  <REMARK>
 VINA RESULT:      -8.0      2.013      2.780
  Name = 
  6 active torsions:
  status: ('A' for Active; 'I' for Inactive)
    1  A    between atoms: C_1  and  O_22
    2  A    between atoms: C_5  and  C_10
    3  A    between atoms: CA_15  and  C_20
    4  A    between atoms: CA_15  and  C_25
    5  A    between atoms: C_16  and  C_24
    6  A    between atoms: O_22  and  C_24
                            x       y       z     vdW  Elec       q    Type
                         _______ _______ _______ _____ _____    ______ ____

>  <TORSDO>
F 6

$$$$
=
 OpenBabel10222418093D

 25 27  0  0  1  0  0  0  0  0999 V2000
  188.0980  177.3510  143.0770 C   0  0  0  0  0  0  0  0  0  0  0  0
  185.5600  178.3780  145.6920 C   0  0  0  0  0  0  0  0  0  0  0  0
  185.8810  178.3560  142.9830 N   0  0  0  0  0  0  0  0  0  0  0  0
  186.7660  177.8720  145.0940 C   0  0  0  0  0  0  0  0  0  0  0  0
  189.1660  176.9350  143.9080 C   0  0  0  0  0  0  0  0  0  0  0  0
  184.7500  178.8380  143.5520 N   0  0  0  0  0  0  0  0  0  0  0  0
  184.5190  178.8790  144.8740 C   0  0  0  0  0  0  0  0  0  0  0  0
  185.4290  178.3890  146.9470 O   0  0  0  0  0  0  0  0  0  0  0  0
  187.8220  177.4210  145.8890 C   0  0  0  0  0  3  0  0  0  0  0  0
  186.9200  177.8440  143.6750 C   0  0  0  0  0  0  0  0  0  0  0  0
  185.3840  178.6930  141.6590 C   0  0  0  0  0  2  0  0  0  0  0  0
  183.4480  179.3470  145.3440 O   0  0  0  0  0  0  0  0  0  0  0  0
  184.1990  179.1750  142.2460 C   0  0  1  0  0  3  0  0  0  0  0  0
  189.0030  176.9660  145.3030 C   0  0  0  0  0  3  0  0  0  0  0  0
  190.5350  175.2730  142.8970 O   0  0  0  0  0  0  0  0  0  0  0  0
  190.4580  176.4390  143.3690 C   0  0  0  0  0  0  0  0  0  0  0  0
  191.6300  177.2480  143.3820 N   0  0  0  0  0  1  0  0  0  0  0  0
  183.0240  178.2590  141.9070 C   0  0  1  0  0  3  0  0  0  0  0  0
  181.7930  178.8230  142.4390 N   0  0  0  0  0  1  0  0  0  0  0  0
  182.9320  176.7550  140.0540 O   0  0  0  0  0  1  0  0  0  0  0  0
  182.8930  178.1060  140.4000 C   0  0  0  0  0  2  0  0  0  0  0  0
  188.2180  177.2660  141.6870 O   0  0  0  0  0  0  0  0  0  0  0  0
  188.7560  178.3340  140.9210 C   0  0  0  0  0  2  0  0  0  0  0  0
  189.0130  179.1350  138.6920 O   0  0  0  0  0  1  0  0  0  0  0  0
  188.3700  178.1690  139.4640 C   0  0  0  0  0  2  0  0  0  0  0  0
  1 10  2  0  0  0  0
  1  5  1  0  0  0  0
  2  8  2  0  0  0  0
  3  6  1  0  0  0  0
  3 10  1  0  0  0  0
  4  2  1  0  0  0  0
  4  9  2  0  0  0  0
  5 14  2  0  0  0  0
  6  7  1  0  0  0  0
  7 12  2  0  0  0  0
  7  2  1  0  0  0  0
 10  4  1  0  0  0  0
 11 13  1  0  0  0  0
 11  3  1  0  0  0  0
 13 18  1  6  0  0  0
 13  6  1  0  0  0  0
 14  9  1  0  0  0  0
 15 16  2  0  0  0  0
 16 17  1  0  0  0  0
 16  5  1  0  0  0  0
 18 19  1  6  0  0  0
 20 21  1  0  0  0  0
 21 18  1  0  0  0  0
 22  1  1  0  0  0  0
 23 22  1  0  0  0  0
 24 25  1  0  0  0  0
 25 23  1  0  0  0  0
M  END
>  <MODEL>
3

>  <REMARK>
 VINA RESULT:      -7.8      1.949      5.543
  Name = 
  6 active torsions:
  status: ('A' for Active; 'I' for Inactive)
    1  A    between atoms: C_1  and  O_22
    2  A    between atoms: C_5  and  C_10
    3  A    between atoms: CA_15  and  C_20
    4  A    between atoms: CA_15  and  C_25
    5  A    between atoms: C_16  and  C_24
    6  A    between atoms: O_22  and  C_24
                            x       y       z     vdW  Elec       q    Type
                         _______ _______ _______ _____ _____    ______ ____

>  <TORSDO>
F 6

$$$$
=
 OpenBabel10222418093D

 25 27  0  0  1  0  0  0  0  0999 V2000
  188.4330  177.7450  144.7860 C   0  0  0  0  0  0  0  0  0  0  0  0
  185.4500  178.3920  142.5460 C   0  0  0  0  0  0  0  0  0  0  0  0
  188.1690  178.2210  142.4120 N   0  0  0  0  0  0  0  0  0  0  0  0
  186.2320  178.1190  143.7210 C   0  0  0  0  0  0  0  0  0  0  0  0
  187.7900  177.6460  146.0440 C   0  0  0  0  0  0  0  0  0  0  0  0
  187.4270  178.4850  141.3090 N   0  0  0  0  0  0  0  0  0  0  0  0
  186.0880  178.5800  141.2970 C   0  0  0  0  0  0  0  0  0  0  0  0
  184.1930  178.4740  142.6240 O   0  0  0  0  0  0  0  0  0  0  0  0
  185.6210  177.9800  144.9690 C   0  0  0  0  0  3  0  0  0  0  0  0
  187.6540  178.0110  143.6410 C   0  0  0  0  0  0  0  0  0  0  0  0
  189.3950  178.3320  141.6380 C   0  0  0  0  0  2  0  0  0  0  0  0
  185.4530  178.8360  140.2390 O   0  0  0  0  0  0  0  0  0  0  0  0
  188.6260  178.5840  140.4880 C   0  0  1  0  0  3  0  0  0  0  0  0
  186.3900  177.7530  146.1100 C   0  0  0  0  0  3  0  0  0  0  0  0
  188.9180  176.2440  147.5990 O   0  0  0  0  0  0  0  0  0  0  0  0
  188.5300  177.4080  147.3080 C   0  0  0  0  0  0  0  0  0  0  0  0
  188.8080  178.4660  148.2200 N   0  0  0  0  0  1  0  0  0  0  0  0
  188.7110  177.4060  139.5180 C   0  0  1  0  0  3  0  0  0  0  0  0
  187.8530  177.6510  138.3700 N   0  0  0  0  0  1  0  0  0  0  0  0
  190.5650  175.9140  139.3090 O   0  0  0  0  0  1  0  0  0  0  0  0
  190.1430  177.2170  139.0420 C   0  0  0  0  0  2  0  0  0  0  0  0
  189.8160  177.5770  144.6920 O   0  0  0  0  0  0  0  0  0  0  0  0
  190.3920  176.3160  144.3840 C   0  0  0  0  0  2  0  0  0  0  0  0
  191.8330  177.1180  146.1050 O   0  0  0  0  0  1  0  0  0  0  0  0
  191.7320  176.1770  145.0810 C   0  0  0  0  0  2  0  0  0  0  0  0
  1  5  1  0  0  0  0
  2  8  2  0  0  0  0
  2  4  1  0  0  0  0
  3 10  1  0  0  0  0
  4  9  2  0  0  0  0
  5 14  2  0  0  0  0
  5 16  1  0  0  0  0
  6  3  1  0  0  0  0
  7  6  1  0  0  0  0
  7  2  1  0  0  0  0
  9 14  1  0  0  0  0
 10  4  1  0  0  0  0
 10  1  2  0  0  0  0
 11  3  1  0  0  0  0
 12  7  2  0  0  0  0
 13 18  1  6  0  0  0
 13  6  1  0  0  0  0
 13 11  1  0  0  0  0
 16 15  2  0  0  0  0
 16 17  1  0  0  0  0
 18 19  1  6  0  0  0
 21 20  1  0  0  0  0
 21 18  1  0  0  0  0
 22  1  1  0  0  0  0
 23 22  1  0  0  0  0
 23 25  1  0  0  0  0
 25 24  1  0  0  0  0
M  END
>  <MODEL>
4

>  <REMARK>
 VINA RESULT:      -7.5      2.089      5.703
  Name = 
  6 active torsions:
  status: ('A' for Active; 'I' for Inactive)
    1  A    between atoms: C_1  and  O_22
    2  A    between atoms: C_5  and  C_10
    3  A    between atoms: CA_15  and  C_20
    4  A    between atoms: CA_15  and  C_25
    5  A    between atoms: C_16  and  C_24
    6  A    between atoms: O_22  and  C_24
                            x       y       z     vdW  Elec       q    Type
                         _______ _______ _______ _____ _____    ______ ____

>  <TORSDO>
F 6

$$$$
=
 OpenBabel10222418093D

 25 27  0  0  1  0  0  0  0  0999 V2000
  188.6720  177.7880  144.0830 C   0  0  0  0  0  0  0  0  0  0  0  0
  185.5370  178.2690  146.1500 C   0  0  0  0  0  0  0  0  0  0  0  0
  186.4150  178.5530  143.5830 N   0  0  0  0  0  0  0  0  0  0  0  0
  186.8950  177.9570  145.7940 C   0  0  0  0  0  0  0  0  0  0  0  0
  189.5880  177.4080  145.0940 C   0  0  0  0  0  0  0  0  0  0  0  0
  185.1380  178.8520  143.9250 N   0  0  0  0  0  0  0  0  0  0  0  0
  184.6340  178.7340  145.1650 C   0  0  0  0  0  0  0  0  0  0  0  0
  185.1460  178.1380  147.3430 O   0  0  0  0  0  0  0  0  0  0  0  0
  187.8110  177.5440  146.7650 C   0  0  0  0  0  3  0  0  0  0  0  0
  187.3430  178.0890  144.4450 C   0  0  0  0  0  0  0  0  0  0  0  0
  186.1650  178.9670  142.2120 C   0  0  0  0  0  2  0  0  0  0  0  0
  183.4380  179.0350  145.4230 O   0  0  0  0  0  0  0  0  0  0  0  0
  184.8330  179.2570  142.5600 C   0  0  1  0  0  3  0  0  0  0  0  0
  189.1350  177.2810  146.4180 C   0  0  0  0  0  3  0  0  0  0  0  0
  191.8760  178.0280  144.8970 O   0  0  0  0  0  0  0  0  0  0  0  0
  191.0150  177.1100  144.8150 C   0  0  0  0  0  0  0  0  0  0  0  0
  191.4450  175.8050  144.4420 N   0  0  0  0  0  1  0  0  0  0  0  0
  183.8790  178.2600  141.9050 C   0  0  1  0  0  3  0  0  0  0  0  0
  182.5040  178.6270  142.2010 N   0  0  0  0  0  1  0  0  0  0  0  0
  183.1560  177.3940  139.7990 O   0  0  0  0  0  1  0  0  0  0  0  0
  184.0810  178.2500  140.3980 C   0  0  0  0  0  2  0  0  0  0  0  0
  189.0890  177.8570  142.7510 O   0  0  0  0  0  0  0  0  0  0  0  0
  189.0230  176.7280  141.8920 C   0  0  0  0  0  2  0  0  0  0  0  0
  191.2310  177.5040  141.4460 O   0  0  0  0  0  1  0  0  0  0  0  0
  190.1820  176.7540  140.9150 C   0  0  0  0  0  2  0  0  0  0  0  0
  1 10  2  0  0  0  0
  1  5  1  0  0  0  0
  2  8  2  0  0  0  0
  3  6  1  0  0  0  0
  3 10  1  0  0  0  0
  4  2  1  0  0  0  0
  4  9  2  0  0  0  0
  5 14  2  0  0  0  0
  6  7  1  0  0  0  0
  7 12  2  0  0  0  0
  7  2  1  0  0  0  0
 10  4  1  0  0  0  0
 11 13  1  0  0  0  0
 11  3  1  0  0  0  0
 13 18  1  6  0  0  0
 13  6  1  0  0  0  0
 14  9  1  0  0  0  0
 16 15  2  0  0  0  0
 16  5  1  0  0  0  0
 17 16  1  0  0  0  0
 18 19  1  6  0  0  0
 20 21  1  0  0  0  0
 21 18  1  0  0  0  0
 22  1  1  0  0  0  0
 23 22  1  0  0  0  0
 25 24  1  0  0  0  0
 25 23  1  0  0  0  0
M  END
>  <MODEL>
5

>  <REMARK>
 VINA RESULT:      -7.4      1.817      5.586
  Name = 
  6 active torsions:
  status: ('A' for Active; 'I' for Inactive)
    1  A    between atoms: C_1  and  O_22
    2  A    between atoms: C_5  and  C_10
    3  A    between atoms: CA_15  and  C_20
    4  A    between atoms: CA_15  and  C_25
    5  A    between atoms: C_16  and  C_24
    6  A    between atoms: O_22  and  C_24
                            x       y       z     vdW  Elec       q    Type
                         _______ _______ _______ _____ _____    ______ ____

>  <TORSDO>
F 6

$$$$
=
 OpenBabel10222418093D

 25 27  0  0  1  0  0  0  0  0999 V2000
  189.2220  177.2550  141.8480 C   0  0  0  0  0  0  0  0  0  0  0  0
  185.8300  178.9360  141.7890 C   0  0  0  0  0  0  0  0  0  0  0  0
  187.4550  177.5610  143.4950 N   0  0  0  0  0  0  0  0  0  0  0  0
  187.1100  178.4440  141.3560 C   0  0  0  0  0  0  0  0  0  0  0  0
  189.6090  177.4140  140.4950 C   0  0  0  0  0  0  0  0  0  0  0  0
  186.2450  178.0210  143.8960 N   0  0  0  0  0  0  0  0  0  0  0  0
  185.3940  178.7070  143.1150 C   0  0  0  0  0  0  0  0  0  0  0  0
  185.0860  179.5650  140.9870 O   0  0  0  0  0  0  0  0  0  0  0  0
  187.5340  178.6200  140.0370 C   0  0  0  0  0  3  0  0  0  0  0  0
  187.9650  177.7430  142.2600 C   0  0  0  0  0  0  0  0  0  0  0  0
  187.6770  176.9540  144.7980 C   0  0  0  0  0  2  0  0  0  0  0  0
  184.2770  179.1020  143.5440 O   0  0  0  0  0  0  0  0  0  0  0  0
  186.4310  177.4480  145.2220 C   0  0  1  0  0  3  0  0  0  0  0  0
  188.7590  178.1070  139.6150 C   0  0  0  0  0  3  0  0  0  0  0  0
  190.8990  175.9040  139.1870 O   0  0  0  0  0  0  0  0  0  0  0  0
  190.8940  176.8990  139.9600 C   0  0  0  0  0  0  0  0  0  0  0  0
  192.1390  177.4970  140.3080 N   0  0  0  0  0  1  0  0  0  0  0  0
  186.6200  178.5530  146.2620 C   0  0  1  0  0  3  0  0  0  0  0  0
  185.3380  179.1710  146.5600 N   0  0  0  0  0  1  0  0  0  0  0  0
  188.5740  178.2530  147.6020 O   0  0  0  0  0  1  0  0  0  0  0  0
  187.2070  177.9780  147.5400 C   0  0  0  0  0  2  0  0  0  0  0  0
  190.0810  176.6260  142.7510 O   0  0  0  0  0  0  0  0  0  0  0  0
  191.0030  177.3660  143.5390 C   0  0  0  0  0  2  0  0  0  0  0  0
  191.6840  177.4050  145.8220 O   0  0  0  0  0  1  0  0  0  0  0  0
  191.4140  176.5540  144.7520 C   0  0  0  0  0  2  0  0  0  0  0  0
  1 10  1  0  0  0  0
  1 22  1  0  0  0  0
  2  7  1  0  0  0  0
  3  6  1  0  0  0  0
  3 11  1  0  0  0  0
  4  2  1  0  0  0  0
  4 10  2  0  0  0  0
  5  1  2  0  0  0  0
  6 13  1  0  0  0  0
  7 12  2  0  0  0  0
  7  6  1  0  0  0  0
  8  2  2  0  0  0  0
  9  4  1  0  0  0  0
 10  3  1  0  0  0  0
 11 13  1  0  0  0  0
 13 18  1  1  0  0  0
 14  9  2  0  0  0  0
 14  5  1  0  0  0  0
 15 16  2  0  0  0  0
 16 17  1  0  0  0  0
 16  5  1  0  0  0  0
 18 19  1  1  0  0  0
 18 21  1  0  0  0  0
 21 20  1  0  0  0  0
 22 23  1  0  0  0  0
 23 25  1  0  0  0  0
 25 24  1  0  0  0  0
M  END
>  <MODEL>
6

>  <REMARK>
 VINA RESULT:      -7.3      2.199      5.146
  Name = 
  6 active torsions:
  status: ('A' for Active; 'I' for Inactive)
    1  A    between atoms: C_1  and  O_22
    2  A    between atoms: C_5  and  C_10
    3  A    between atoms: CA_15  and  C_20
    4  A    between atoms: CA_15  and  C_25
    5  A    between atoms: C_16  and  C_24
    6  A    between atoms: O_22  and  C_24
                            x       y       z     vdW  Elec       q    Type
                         _______ _______ _______ _____ _____    ______ ____

>  <TORSDO>
F 6

$$$$
=
 OpenBabel10222418093D

 25 27  0  0  1  0  0  0  0  0999 V2000
  187.2960  178.2250  145.1610 C   0  0  0  0  0  0  0  0  0  0  0  0
  190.7370  176.6470  145.2230 C   0  0  0  0  0  0  0  0  0  0  0  0
  188.7960  177.3630  143.4460 N   0  0  0  0  0  0  0  0  0  0  0  0
  189.5090  177.2470  145.6710 C   0  0  0  0  0  0  0  0  0  0  0  0
  187.0570  178.3690  146.5490 C   0  0  0  0  0  0  0  0  0  0  0  0
  189.9520  176.7920  143.0290 N   0  0  0  0  0  0  0  0  0  0  0  0
  190.9520  176.4170  143.8440 C   0  0  0  0  0  0  0  0  0  0  0  0
  191.6240  176.3150  146.0580 O   0  0  0  0  0  0  0  0  0  0  0  0
  189.2620  177.4350  147.0330 C   0  0  0  0  0  3  0  0  0  0  0  0
  188.5050  177.6370  144.7340 C   0  0  0  0  0  0  0  0  0  0  0  0
  188.3000  177.4010  142.0800 C   0  0  0  0  0  2  0  0  0  0  0  0
  192.0020  175.8830  143.3970 O   0  0  0  0  0  0  0  0  0  0  0  0
  189.5080  176.8280  141.6430 C   0  0  1  0  0  3  0  0  0  0  0  0
  188.0530  177.9820  147.4610 C   0  0  0  0  0  3  0  0  0  0  0  0
  185.8190  180.0500  147.6890 O   0  0  0  0  0  0  0  0  0  0  0  0
  185.7990  178.9400  147.0930 C   0  0  0  0  0  0  0  0  0  0  0  0
  184.5560  178.2550  146.9690 N   0  0  0  0  0  1  0  0  0  0  0  0
  190.3240  177.8430  140.8450 C   0  0  1  0  0  3  0  0  0  0  0  0
  191.7320  177.4800  140.8810 N   0  0  0  0  0  1  0  0  0  0  0  0
  189.0560  179.0030  139.1850 O   0  0  0  0  0  1  0  0  0  0  0  0
  189.8540  177.8780  139.3990 C   0  0  0  0  0  2  0  0  0  0  0  0
  186.3450  178.6640  144.2370 O   0  0  0  0  0  0  0  0  0  0  0  0
  185.3090  177.8100  143.7730 C   0  0  0  0  0  2  0  0  0  0  0  0
  183.1580  178.8210  143.9560 O   0  0  0  0  0  1  0  0  0  0  0  0
  184.2330  178.6300  143.0880 C   0  0  0  0  0  2  0  0  0  0  0  0
  1  5  1  0  0  0  0
  2  4  1  0  0  0  0
  2  8  2  0  0  0  0
  3 10  1  0  0  0  0
  4  9  2  0  0  0  0
  5 16  1  0  0  0  0
  5 14  2  0  0  0  0
  6  3  1  0  0  0  0
  6  7  1  0  0  0  0
  7  2  1  0  0  0  0
  9 14  1  0  0  0  0
 10  1  2  0  0  0  0
 10  4  1  0  0  0  0
 11  3  1  0  0  0  0
 12  7  2  0  0  0  0
 13 18  1  6  0  0  0
 13 11  1  0  0  0  0
 13  6  1  0  0  0  0
 16 15  2  0  0  0  0
 17 16  1  0  0  0  0
 18 19  1  6  0  0  0
 20 21  1  0  0  0  0
 21 18  1  0  0  0  0
 22  1  1  0  0  0  0
 23 22  1  0  0  0  0
 25 23  1  0  0  0  0
 25 24  1  0  0  0  0
M  END
>  <MODEL>
7

>  <REMARK>
 VINA RESULT:      -7.1      2.323      5.087
  Name = 
  6 active torsions:
  status: ('A' for Active; 'I' for Inactive)
    1  A    between atoms: C_1  and  O_22
    2  A    between atoms: C_5  and  C_10
    3  A    between atoms: CA_15  and  C_20
    4  A    between atoms: CA_15  and  C_25
    5  A    between atoms: C_16  and  C_24
    6  A    between atoms: O_22  and  C_24
                            x       y       z     vdW  Elec       q    Type
                         _______ _______ _______ _____ _____    ______ ____

>  <TORSDO>
F 6

$$$$
=
 OpenBabel10222418093D

 25 27  0  0  1  0  0  0  0  0999 V2000
  189.4330  177.1330  145.5590 C   0  0  0  0  0  0  0  0  0  0  0  0
  189.6870  177.5330  141.8030 C   0  0  0  0  0  0  0  0  0  0  0  0
  187.8090  177.4930  143.7800 N   0  0  0  0  0  0  0  0  0  0  0  0
  190.0630  177.3310  143.1760 C   0  0  0  0  0  0  0  0  0  0  0  0
  190.7870  176.8680  145.8790 C   0  0  0  0  0  0  0  0  0  0  0  0
  187.4590  177.6770  142.4840 N   0  0  0  0  0  0  0  0  0  0  0  0
  188.3260  177.7120  141.4590 C   0  0  0  0  0  0  0  0  0  0  0  0
  190.5660  177.5430  140.8970 O   0  0  0  0  0  0  0  0  0  0  0  0
  191.3970  177.1040  143.5250 C   0  0  0  0  0  3  0  0  0  0  0  0
  189.0780  177.3310  144.2090 C   0  0  0  0  0  0  0  0  0  0  0  0
  186.4120  177.5350  144.1840 C   0  0  0  0  0  2  0  0  0  0  0  0
  187.9380  177.8780  140.2720 O   0  0  0  0  0  0  0  0  0  0  0  0
  186.0490  177.7470  142.8420 C   0  0  1  0  0  3  0  0  0  0  0  0
  191.7480  176.8720  144.8530 C   0  0  0  0  0  3  0  0  0  0  0  0
  191.0600  177.4730  148.1630 O   0  0  0  0  0  0  0  0  0  0  0  0
  191.2500  176.6080  147.2650 C   0  0  0  0  0  0  0  0  0  0  0  0
  191.9200  175.4010  147.6130 N   0  0  0  0  0  1  0  0  0  0  0  0
  185.5170  179.1670  142.6490 C   0  0  1  0  0  3  0  0  0  0  0  0
  185.1850  179.3820  141.2500 N   0  0  0  0  0  1  0  0  0  0  0  0
  183.2150  178.6280  142.9910 O   0  0  0  0  0  1  0  0  0  0  0  0
  184.2730  179.3830  143.4970 C   0  0  0  0  0  2  0  0  0  0  0  0
  188.4750  177.1980  146.5730 O   0  0  0  0  0  0  0  0  0  0  0  0
  188.0870  178.4350  147.1520 C   0  0  0  0  0  2  0  0  0  0  0  0
  185.8710  179.3100  147.1570 O   0  0  0  0  0  1  0  0  0  0  0  0
  186.6840  178.3240  147.7150 C   0  0  0  0  0  2  0  0  0  0  0  0
  1  5  1  0  0  0  0
  1 22  1  0  0  0  0
  2  4  1  0  0  0  0
  3 11  1  0  0  0  0
  3 10  1  0  0  0  0
  4  9  2  0  0  0  0
  4 10  1  0  0  0  0
  5 16  1  0  0  0  0
  6 13  1  0  0  0  0
  6  3  1  0  0  0  0
  7  2  1  0  0  0  0
  7  6  1  0  0  0  0
  8  2  2  0  0  0  0
  9 14  1  0  0  0  0
 10  1  2  0  0  0  0
 12  7  2  0  0  0  0
 13 18  1  1  0  0  0
 13 11  1  0  0  0  0
 14  5  2  0  0  0  0
 16 17  1  0  0  0  0
 16 15  2  0  0  0  0
 18 19  1  6  0  0  0
 18 21  1  0  0  0  0
 20 21  1  0  0  0  0
 22 23  1  0  0  0  0
 23 25  1  0  0  0  0
 24 25  1  0  0  0  0
M  END
>  <MODEL>
8

>  <REMARK>
 VINA RESULT:      -7.0      1.668      6.974
  Name = 
  6 active torsions:
  status: ('A' for Active; 'I' for Inactive)
    1  A    between atoms: C_1  and  O_22
    2  A    between atoms: C_5  and  C_10
    3  A    between atoms: CA_15  and  C_20
    4  A    between atoms: CA_15  and  C_25
    5  A    between atoms: C_16  and  C_24
    6  A    between atoms: O_22  and  C_24
                            x       y       z     vdW  Elec       q    Type
                         _______ _______ _______ _____ _____    ______ ____

>  <TORSDO>
F 6

$$$$
=
 OpenBabel10222418093D

 25 27  0  0  1  0  0  0  0  0999 V2000
  189.2840  177.0060  143.9800 C   0  0  0  0  0  0  0  0  0  0  0  0
  187.9980  178.4350  140.7180 C   0  0  0  0  0  0  0  0  0  0  0  0
  187.0870  177.6860  143.1770 N   0  0  0  0  0  0  0  0  0  0  0  0
  188.8950  177.9020  141.7080 C   0  0  0  0  0  0  0  0  0  0  0  0
  190.6430  176.7910  143.6450 C   0  0  0  0  0  0  0  0  0  0  0  0
  186.2450  178.1810  142.2380 N   0  0  0  0  0  0  0  0  0  0  0  0
  186.6200  178.5740  141.0090 C   0  0  0  0  0  0  0  0  0  0  0  0
  188.4330  178.7720  139.5810 O   0  0  0  0  0  0  0  0  0  0  0  0
  190.2480  177.7130  141.4180 C   0  0  0  0  0  3  0  0  0  0  0  0
  188.4150  177.5300  143.0000 C   0  0  0  0  0  0  0  0  0  0  0  0
  185.9770  177.4870  144.0960 C   0  0  0  0  0  2  0  0  0  0  0  0
  185.7880  179.0210  140.1760 O   0  0  0  0  0  0  0  0  0  0  0  0
  185.1050  178.0220  143.1300 C   0  0  1  0  0  3  0  0  0  0  0  0
  191.1030  177.1610  142.3700 C   0  0  0  0  0  3  0  0  0  0  0  0
  192.1550  175.0930  144.3430 O   0  0  0  0  0  0  0  0  0  0  0  0
  191.6220  176.2070  144.5960 C   0  0  0  0  0  0  0  0  0  0  0  0
  191.9730  176.8710  145.8060 N   0  0  0  0  0  1  0  0  0  0  0  0
  184.5810  179.3850  143.5790 C   0  0  1  0  0  3  0  0  0  0  0  0
  183.1830  179.5230  143.2010 N   0  0  0  0  0  1  0  0  0  0  0  0
  183.5210  179.1270  145.7050 O   0  0  0  0  0  1  0  0  0  0  0  0
  184.7070  179.5270  145.0880 C   0  0  0  0  0  2  0  0  0  0  0  0
  188.8230  176.7040  145.2630 O   0  0  0  0  0  0  0  0  0  0  0  0
  188.6860  177.7080  146.2590 C   0  0  0  0  0  2  0  0  0  0  0  0
  188.8450  178.0820  148.6070 O   0  0  0  0  0  1  0  0  0  0  0  0
  188.7770  177.0820  147.6370 C   0  0  0  0  0  2  0  0  0  0  0  0
  1 22  1  0  0  0  0
  2  7  1  0  0  0  0
  2  4  1  0  0  0  0
  3 11  1  0  0  0  0
  4 10  1  0  0  0  0
  5  1  1  0  0  0  0
  5 16  1  0  0  0  0
  6 13  1  0  0  0  0
  6  3  1  0  0  0  0
  7  6  1  0  0  0  0
  8  2  2  0  0  0  0
  9  4  2  0  0  0  0
  9 14  1  0  0  0  0
 10  3  1  0  0  0  0
 10  1  2  0  0  0  0
 12  7  2  0  0  0  0
 13 18  1  1  0  0  0
 13 11  1  0  0  0  0
 14  5  2  0  0  0  0
 15 16  2  0  0  0  0
 16 17  1  0  0  0  0
 18 19  1  1  0  0  0
 18 21  1  0  0  0  0
 21 20  1  0  0  0  0
 22 23  1  0  0  0  0
 23 25  1  0  0  0  0
 25 24  1  0  0  0  0
M  END
>  <MODEL>
9

>  <REMARK>
 VINA RESULT:      -6.9      1.833      6.777
  Name = 
  6 active torsions:
  status: ('A' for Active; 'I' for Inactive)
    1  A    between atoms: C_1  and  O_22
    2  A    between atoms: C_5  and  C_10
    3  A    between atoms: CA_15  and  C_20
    4  A    between atoms: CA_15  and  C_25
    5  A    between atoms: C_16  and  C_24
    6  A    between atoms: O_22  and  C_24
                            x       y       z     vdW  Elec       q    Type
                         _______ _______ _______ _____ _____    ______ ____

>  <TORSDO>
F 6

$$$$
