=
 OpenBabel10222419323D

 26 29  0  0  1  0  0  0  0  0999 V2000
  183.1600  178.8660  144.3010 C   0  0  0  0  0  0  0  0  0  0  0  0
  188.9920  177.2560  141.3600 C   0  0  0  0  0  2  0  0  0  0  0  0
  190.6410  177.0660  143.0880 C   0  0  1  0  0  0  0  0  0  0  0  0
  181.8410  179.0990  143.6470 C   0  0  0  0  0  1  0  0  0  0  0  0
  186.0430  177.9630  141.8160 C   0  0  0  0  0  2  0  0  0  0  0  0
  183.7350  178.4320  141.3670 O   0  0  0  0  0  0  0  0  0  0  0  0
  187.6570  177.9560  145.3270 C   0  0  0  0  0  3  0  0  0  0  0  0
  188.3740  177.5100  142.6780 C   0  0  0  0  0  0  0  0  0  0  0  0
  190.3690  176.8210  141.6390 N   0  0  0  0  0  0  0  0  0  0  0  0
  184.3390  178.5330  143.6580 C   0  0  0  0  0  0  0  0  0  0  0  0
  188.9790  177.6240  145.0080 C   0  0  0  0  0  3  0  0  0  0  0  0
  186.6870  178.0680  144.3140 C   0  0  0  0  0  0  0  0  0  0  0  0
  191.5880  178.2470  143.3560 C   0  0  0  0  0  1  0  0  0  0  0  0
  189.3100  177.3990  143.6670 C   0  0  0  0  0  0  0  0  0  0  0  0
  184.6590  178.6840  145.8220 C   0  0  0  0  0  0  0  0  0  0  0  0
  185.2940  178.4160  144.6250 C   0  0  0  0  0  0  0  0  0  0  0  0
  183.3520  178.9600  145.6350 N   0  0  0  0  0  2  0  0  0  0  0  0
  187.0450  177.8470  142.9560 C   0  0  0  0  0  0  0  0  0  0  0  0
  185.2770  178.6750  147.1050 N   0  0  0  0  0  1  0  0  0  0  0  0
  184.6370  178.3200  142.2380 C   0  0  0  0  0  0  0  0  0  0  0  0
  192.5220  175.5970  143.2870 F   0  0  0  0  0  0  0  0  0  0  0  0
  191.2180  175.7830  143.7140 C   0  0  0  0  0  0  0  0  0  0  0  0
  190.4680  174.6840  143.3300 F   0  0  0  0  0  0  0  0  0  0  0  0
  191.2130  175.8650  145.0970 F   0  0  0  0  0  0  0  0  0  0  0  0
  191.2640  177.5270  140.7230 C   0  0  0  0  0  2  0  0  0  0  0  0
  191.0310  177.0450  139.3050 C   0  0  0  0  0  1  0  0  0  0  0  0
  1 17  1  0  0  0  0
  2  9  1  0  0  0  0
  2  8  1  0  0  0  0
  3 13  1  1  0  0  0
  3 14  1  0  0  0  0
  3 22  1  0  0  0  0
  4  1  1  0  0  0  0
  5 20  1  0  0  0  0
  5 18  1  0  0  0  0
  6 20  2  0  0  0  0
  8 18  2  0  0  0  0
  8 14  1  0  0  0  0
  9  3  1  0  0  0  0
 10  1  2  0  0  0  0
 10 16  1  0  0  0  0
 11  7  1  0  0  0  0
 12 16  1  0  0  0  0
 12  7  2  0  0  0  0
 14 11  2  0  0  0  0
 15 19  1  0  0  0  0
 16 15  2  0  0  0  0
 17 15  1  0  0  0  0
 18 12  1  0  0  0  0
 20 10  1  0  0  0  0
 21 22  1  0  0  0  0
 22 24  1  0  0  0  0
 23 22  1  0  0  0  0
 25  9  1  0  0  0  0
 26 25  1  0  0  0  0
M  END
>  <MODEL>
1

>  <REMARK>
 VINA RESULT:      -9.9      0.000      0.000
  Name = 
  2 active torsions:
  status: ('A' for Active; 'I' for Inactive)
    1  A    between atoms: C_3  and  C_5
    2  A    between atoms: C_8  and  N_12
                            x       y       z     vdW  Elec       q    Type
                         _______ _______ _______ _____ _____    ______ ____

>  <TORSDO>
F 2

$$$$
=
 OpenBabel10222419323D

 26 29  0  0  1  0  0  0  0  0999 V2000
  182.8330  178.9210  142.8890 C   0  0  0  0  0  0  0  0  0  0  0  0
  188.7220  177.6890  145.9000 C   0  0  0  0  0  2  0  0  0  0  0  0
  190.3630  177.3960  144.1790 C   0  0  1  0  0  0  0  0  0  0  0  0
  181.5130  179.1670  143.5330 C   0  0  0  0  0  1  0  0  0  0  0  0
  185.7540  178.2900  145.4140 C   0  0  0  0  0  2  0  0  0  0  0  0
  183.4390  178.7440  145.8430 O   0  0  0  0  0  0  0  0  0  0  0  0
  187.3470  178.0510  141.9010 C   0  0  0  0  0  3  0  0  0  0  0  0
  188.0970  177.8600  144.5720 C   0  0  0  0  0  0  0  0  0  0  0  0
  190.1660  177.5600  145.6510 N   0  0  0  0  0  0  0  0  0  0  0  0
  184.0260  178.6730  143.5470 C   0  0  1  0  0  3  0  0  0  0  0  0
  188.6800  177.7820  142.2350 C   0  0  0  0  0  3  0  0  0  0  0  0
  186.3820  178.2240  142.9110 C   0  0  0  0  0  0  0  0  0  0  0  0
  190.7620  175.9720  143.7560 C   0  0  0  0  0  1  0  0  0  0  0  0
  189.0300  177.6980  143.5870 C   0  0  0  0  0  0  0  0  0  0  0  0
  184.3280  178.6570  141.3750 C   0  0  0  0  0  0  0  0  0  0  0  0
  184.9770  178.5060  142.5840 C   0  0  0  0  0  0  0  0  0  0  0  0
  183.0140  178.9130  141.5500 N   0  0  0  0  0  0  0  0  0  0  0  0
  186.7540  178.1230  144.2790 C   0  0  0  0  0  0  0  0  0  0  0  0
  184.9380  178.5640  140.0920 N   0  0  0  0  0  1  0  0  0  0  0  0
  184.3380  178.5830  144.9770 C   0  0  0  0  0  0  0  0  0  0  0  0
  192.4420  178.4910  144.6370 F   0  0  0  0  0  0  0  0  0  0  0  0
  191.4280  178.4000  143.7000 C   0  0  0  0  0  0  0  0  0  0  0  0
  190.8630  179.6540  143.5370 F   0  0  0  0  0  0  0  0  0  0  0  0
  191.9760  177.9970  142.4930 F   0  0  0  0  0  0  0  0  0  0  0  0
  190.6710  176.4520  146.4610 C   0  0  0  0  0  2  0  0  0  0  0  0
  191.3570  176.9940  147.7000 C   0  0  0  0  0  1  0  0  0  0  0  0
  1  4  1  0  0  0  0
  1 10  1  0  0  0  0
  3 13  1  6  0  0  0
  3  9  1  0  0  0  0
  7 11  2  0  0  0  0
  7 12  1  0  0  0  0
  8  2  1  0  0  0  0
  9  2  1  0  0  0  0
  9 25  1  0  0  0  0
 10 16  1  1  0  0  0
 10 20  1  0  0  0  0
 11 14  1  0  0  0  0
 12 18  2  0  0  0  0
 14  3  1  0  0  0  0
 14  8  2  0  0  0  0
 15 17  1  0  0  0  0
 15 16  2  0  0  0  0
 16 12  1  0  0  0  0
 17  1  2  0  0  0  0
 18  8  1  0  0  0  0
 18  5  1  0  0  0  0
 19 15  1  0  0  0  0
 20  5  1  0  0  0  0
 20  6  2  0  0  0  0
 22  3  1  0  0  0  0
 22 21  1  0  0  0  0
 23 22  1  0  0  0  0
 24 22  1  0  0  0  0
 25 26  1  0  0  0  0
M  END
>  <MODEL>
2

>  <REMARK>
 VINA RESULT:      -9.8      2.398      3.748
  Name = 
  2 active torsions:
  status: ('A' for Active; 'I' for Inactive)
    1  A    between atoms: C_3  and  C_5
    2  A    between atoms: C_8  and  N_12
                            x       y       z     vdW  Elec       q    Type
                         _______ _______ _______ _____ _____    ______ ____

>  <TORSDO>
F 2

$$$$
=
 OpenBabel10222419323D

 26 29  0  0  1  0  0  0  0  0999 V2000
  189.0300  177.2840  146.0890 C   0  0  0  0  0  0  0  0  0  0  0  0
  190.8760  176.7200  139.6440 C   0  0  0  0  0  2  0  0  0  0  0  0
  189.0170  177.4120  138.3000 C   0  0  1  0  0  0  0  0  0  0  0  0
  189.8370  176.9690  147.3010 C   0  0  0  0  0  1  0  0  0  0  0  0
  190.9020  176.6620  142.7100 C   0  0  0  0  0  2  0  0  0  0  0  0
  191.6720  176.3500  144.9590 O   0  0  0  0  0  0  0  0  0  0  0  0
  187.3930  177.9530  141.7330 C   0  0  0  0  0  3  0  0  0  0  0  0
  189.7520  177.1330  140.5110 C   0  0  0  0  0  0  0  0  0  0  0  0
  190.4660  177.0500  138.2700 N   0  0  0  0  0  0  0  0  0  0  0  0
  189.4490  177.1560  144.7760 C   0  0  0  0  0  0  0  0  0  0  0  0
  187.4900  177.9440  140.3360 C   0  0  0  0  0  3  0  0  0  0  0  0
  188.4840  177.5480  142.5240 C   0  0  0  0  0  0  0  0  0  0  0  0
  188.0930  176.3450  137.6890 C   0  0  0  0  0  1  0  0  0  0  0  0
  188.6910  177.5320  139.7480 C   0  0  0  0  0  0  0  0  0  0  0  0
  187.3880  177.9000  144.8560 C   0  0  0  0  0  0  0  0  0  0  0  0
  188.4050  177.5480  143.9910 C   0  0  0  0  0  0  0  0  0  0  0  0
  187.7610  177.7420  146.1440 N   0  0  0  0  0  2  0  0  0  0  0  0
  189.6920  177.1220  141.9090 C   0  0  0  0  0  0  0  0  0  0  0  0
  186.1020  178.3740  144.4700 N   0  0  0  0  0  1  0  0  0  0  0  0
  190.7250  176.7050  144.2100 C   0  0  0  0  0  0  0  0  0  0  0  0
  189.5570  178.7620  136.3980 F   0  0  0  0  0  0  0  0  0  0  0  0
  188.8190  178.7520  137.5690 C   0  0  0  0  0  0  0  0  0  0  0  0
  189.2460  179.8000  138.3680 F   0  0  0  0  0  0  0  0  0  0  0  0
  187.4850  178.9480  137.2520 F   0  0  0  0  0  0  0  0  0  0  0  0
  190.7930  175.9110  137.4120 C   0  0  0  0  0  2  0  0  0  0  0  0
  192.0880  175.2740  137.8770 C   0  0  0  0  0  1  0  0  0  0  0  0
  1 17  1  0  0  0  0
  1  4  1  0  0  0  0
  2  8  1  0  0  0  0
  3 13  1  6  0  0  0
  3 14  1  0  0  0  0
  5 20  1  0  0  0  0
  7 12  1  0  0  0  0
  8 18  1  0  0  0  0
  9  3  1  0  0  0  0
  9  2  1  0  0  0  0
 10  1  2  0  0  0  0
 11  7  2  0  0  0  0
 12 16  1  0  0  0  0
 14 11  1  0  0  0  0
 14  8  2  0  0  0  0
 15 17  1  0  0  0  0
 16 10  1  0  0  0  0
 16 15  2  0  0  0  0
 18 12  2  0  0  0  0
 18  5  1  0  0  0  0
 19 15  1  0  0  0  0
 20 10  1  0  0  0  0
 20  6  2  0  0  0  0
 21 22  1  0  0  0  0
 22  3  1  0  0  0  0
 22 23  1  0  0  0  0
 24 22  1  0  0  0  0
 25 26  1  0  0  0  0
 25  9  1  0  0  0  0
M  END
>  <MODEL>
3

>  <REMARK>
 VINA RESULT:      -8.7      3.812      5.521
  Name = 
  2 active torsions:
  status: ('A' for Active; 'I' for Inactive)
    1  A    between atoms: C_3  and  C_5
    2  A    between atoms: C_8  and  N_12
                            x       y       z     vdW  Elec       q    Type
                         _______ _______ _______ _____ _____    ______ ____

>  <TORSDO>
F 2

$$$$
=
 OpenBabel10222419323D

 26 29  0  0  1  0  0  0  0  0999 V2000
  187.4710  178.0210  146.0500 C   0  0  0  0  0  0  0  0  0  0  0  0
  181.6020  179.0030  142.9130 C   0  0  0  0  0  2  0  0  0  0  0  0
  181.9980  178.7850  140.5600 C   0  0  1  0  0  0  0  0  0  0  0  0
  187.7410  178.0580  147.5140 C   0  0  0  0  0  1  0  0  0  0  0  0
  183.7410  178.7050  145.0900 C   0  0  0  0  0  2  0  0  0  0  0  0
  184.7680  178.6280  147.2550 O   0  0  0  0  0  0  0  0  0  0  0  0
  185.5870  178.1310  141.7440 C   0  0  0  0  0  3  0  0  0  0  0  0
  183.0240  178.6850  142.6670 C   0  0  0  0  0  0  0  0  0  0  0  0
  180.9360  178.9040  141.6050 N   0  0  0  0  0  0  0  0  0  0  0  0
  186.2440  178.2260  145.4430 C   0  0  1  0  0  3  0  0  0  0  0  0
  184.5340  178.2840  140.8330 C   0  0  0  0  0  3  0  0  0  0  0  0
  185.3560  178.2580  143.1260 C   0  0  0  0  0  0  0  0  0  0  0  0
  182.1820  180.0520  139.7090 C   0  0  0  0  0  1  0  0  0  0  0  0
  183.2540  178.5560  141.3270 C   0  0  0  0  0  0  0  0  0  0  0  0
  187.7890  177.8280  143.9390 C   0  0  0  0  0  0  0  0  0  0  0  0
  186.4450  178.1030  144.1000 C   0  0  0  0  0  0  0  0  0  0  0  0
  188.4270  177.7740  145.1270 N   0  0  0  0  0  0  0  0  0  0  0  0
  184.0500  178.5460  143.6080 C   0  0  0  0  0  0  0  0  0  0  0  0
  188.4470  177.6200  142.6930 N   0  0  0  0  0  1  0  0  0  0  0  0
  184.9240  178.5220  146.0100 C   0  0  0  0  0  0  0  0  0  0  0  0
  182.2990  177.7450  138.4240 F   0  0  0  0  0  0  0  0  0  0  0  0
  181.6720  177.5870  139.6480 C   0  0  0  0  0  0  0  0  0  0  0  0
  180.3060  177.5040  139.4370 F   0  0  0  0  0  0  0  0  0  0  0  0
  182.1080  176.4020  140.2180 F   0  0  0  0  0  0  0  0  0  0  0  0
  180.0570  180.0620  141.4520 C   0  0  0  0  0  2  0  0  0  0  0  0
  179.5500  180.5030  142.8110 C   0  0  0  0  0  1  0  0  0  0  0  0
  1  4  1  0  0  0  0
  3 13  1  6  0  0  0
  3 14  1  0  0  0  0
  3  9  1  0  0  0  0
  5 20  1  0  0  0  0
  7 12  1  0  0  0  0
  8  2  1  0  0  0  0
  8 18  1  0  0  0  0
  9  2  1  0  0  0  0
 10 16  1  1  0  0  0
 10 20  1  0  0  0  0
 10  1  1  0  0  0  0
 11 14  1  0  0  0  0
 11  7  2  0  0  0  0
 12 18  2  0  0  0  0
 12 16  1  0  0  0  0
 14  8  2  0  0  0  0
 15 16  2  0  0  0  0
 15 17  1  0  0  0  0
 17  1  2  0  0  0  0
 18  5  1  0  0  0  0
 19 15  1  0  0  0  0
 20  6  2  0  0  0  0
 21 22  1  0  0  0  0
 22 24  1  0  0  0  0
 22  3  1  0  0  0  0
 23 22  1  0  0  0  0
 25  9  1  0  0  0  0
 25 26  1  0  0  0  0
M  END
>  <MODEL>
4

>  <REMARK>
 VINA RESULT:      -8.7      4.403      7.520
  Name = 
  2 active torsions:
  status: ('A' for Active; 'I' for Inactive)
    1  A    between atoms: C_3  and  C_5
    2  A    between atoms: C_8  and  N_12
                            x       y       z     vdW  Elec       q    Type
                         _______ _______ _______ _____ _____    ______ ____

>  <TORSDO>
F 2

$$$$
=
 OpenBabel10222419323D

 26 29  0  0  1  0  0  0  0  0999 V2000
  186.4850  178.1900  145.9460 C   0  0  0  0  0  0  0  0  0  0  0  0
  190.1690  177.0070  140.4420 C   0  0  0  0  0  2  0  0  0  0  0  0
  188.8120  177.5380  138.5400 C   0  0  1  0  0  0  0  0  0  0  0  0
  186.8860  178.0080  147.3690 C   0  0  0  0  0  1  0  0  0  0  0  0
  189.2730  177.2570  143.3640 C   0  0  0  0  0  2  0  0  0  0  0  0
  189.3260  177.1810  145.7600 O   0  0  0  0  0  0  0  0  0  0  0  0
  186.2430  178.4010  141.2550 C   0  0  0  0  0  3  0  0  0  0  0  0
  188.8450  177.4910  140.8850 C   0  0  0  0  0  0  0  0  0  0  0  0
  190.1970  177.1920  138.9830 N   0  0  0  0  0  0  0  0  0  0  0  0
  187.2770  177.9370  144.8390 C   0  0  0  0  0  0  0  0  0  0  0  0
  186.7550  178.2530  139.9600 C   0  0  0  0  0  3  0  0  0  0  0  0
  187.0390  178.0900  142.3730 C   0  0  0  0  0  0  0  0  0  0  0  0
  188.0940  176.4040  137.7890 C   0  0  0  0  0  1  0  0  0  0  0  0
  188.0680  177.7990  139.8040 C   0  0  0  0  0  0  0  0  0  0  0  0
  185.3000  178.6600  144.2220 C   0  0  0  0  0  0  0  0  0  0  0  0
  186.5240  178.2360  143.7410 C   0  0  0  0  0  0  0  0  0  0  0  0
  185.2670  178.6370  145.5710 N   0  0  0  0  0  2  0  0  0  0  0  0
  188.3680  177.6190  142.1950 C   0  0  0  0  0  0  0  0  0  0  0  0
  184.1980  179.0770  143.4230 N   0  0  0  0  0  1  0  0  0  0  0  0
  188.6550  177.4470  144.7300 C   0  0  0  0  0  0  0  0  0  0  0  0
  189.8050  178.6230  136.6510 F   0  0  0  0  0  0  0  0  0  0  0  0
  188.8680  178.7960  137.6540 C   0  0  0  0  0  0  0  0  0  0  0  0
  189.2300  179.8980  138.4110 F   0  0  0  0  0  0  0  0  0  0  0  0
  187.6360  179.0420  137.0700 F   0  0  0  0  0  0  0  0  0  0  0  0
  190.7450  175.9780  138.3800 C   0  0  0  0  0  2  0  0  0  0  0  0
  192.0390  176.3030  137.6600 C   0  0  0  0  0  1  0  0  0  0  0  0
  1  4  1  0  0  0  0
  2  8  1  0  0  0  0
  3 13  1  6  0  0  0
  3  9  1  0  0  0  0
  3 14  1  0  0  0  0
  5 20  1  0  0  0  0
  7 12  1  0  0  0  0
  8 18  1  0  0  0  0
  9  2  1  0  0  0  0
 10  1  2  0  0  0  0
 11  7  2  0  0  0  0
 12 16  1  0  0  0  0
 14 11  1  0  0  0  0
 14  8  2  0  0  0  0
 15 17  1  0  0  0  0
 16 15  2  0  0  0  0
 16 10  1  0  0  0  0
 17  1  1  0  0  0  0
 18 12  2  0  0  0  0
 18  5  1  0  0  0  0
 19 15  1  0  0  0  0
 20 10  1  0  0  0  0
 20  6  2  0  0  0  0
 21 22  1  0  0  0  0
 22 23  1  0  0  0  0
 22  3  1  0  0  0  0
 24 22  1  0  0  0  0
 25  9  1  0  0  0  0
 26 25  1  0  0  0  0
M  END
>  <MODEL>
5

>  <REMARK>
 VINA RESULT:      -8.3      3.394      4.798
  Name = 
  2 active torsions:
  status: ('A' for Active; 'I' for Inactive)
    1  A    between atoms: C_3  and  C_5
    2  A    between atoms: C_8  and  N_12
                            x       y       z     vdW  Elec       q    Type
                         _______ _______ _______ _____ _____    ______ ____

>  <TORSDO>
F 2

$$$$
=
 OpenBabel10222419323D

 26 29  0  0  1  0  0  0  0  0999 V2000
  187.5570  177.9930  145.2910 C   0  0  0  0  0  0  0  0  0  0  0  0
  183.2000  178.2530  140.1720 C   0  0  0  0  0  2  0  0  0  0  0  0
  181.0300  178.6780  141.0940 C   0  0  1  0  0  0  0  0  0  0  0  0
  189.0250  177.7490  145.2280 C   0  0  0  0  0  1  0  0  0  0  0  0
  185.7810  177.9800  141.8050 C   0  0  0  0  0  2  0  0  0  0  0  0
  188.0960  177.6570  142.3370 O   0  0  0  0  0  0  0  0  0  0  0  0
  182.9900  178.6550  144.3910 C   0  0  0  0  0  3  0  0  0  0  0  0
  183.2920  178.3830  141.6410 C   0  0  0  0  0  0  0  0  0  0  0  0
  181.8130  178.5980  139.8240 N   0  0  0  0  0  0  0  0  0  0  0  0
  186.6930  178.0420  144.2100 C   0  0  0  0  0  0  0  0  0  0  0  0
  181.8750  178.7650  143.5520 C   0  0  0  0  0  3  0  0  0  0  0  0
  184.2650  178.4060  143.8510 C   0  0  0  0  0  0  0  0  0  0  0  0
  180.0600  177.5030  141.3070 C   0  0  0  0  0  1  0  0  0  0  0  0
  182.0580  178.6300  142.1710 C   0  0  0  0  0  0  0  0  0  0  0  0
  185.6020  178.3770  146.0820 C   0  0  0  0  0  0  0  0  0  0  0  0
  185.4490  178.2860  144.7130 C   0  0  0  0  0  0  0  0  0  0  0  0
  186.8890  178.2000  146.4470 N   0  0  0  0  0  2  0  0  0  0  0  0
  184.4300  178.2610  142.4470 C   0  0  0  0  0  0  0  0  0  0  0  0
  184.5560  178.6270  147.0150 N   0  0  0  0  0  1  0  0  0  0  0  0
  186.9370  177.8800  142.7730 C   0  0  0  0  0  0  0  0  0  0  0  0
  178.9310  179.7850  140.7760 F   0  0  0  0  0  0  0  0  0  0  0  0
  180.2520  180.0070  141.1220 C   0  0  0  0  0  0  0  0  0  0  0  0
  180.8010  180.9010  140.2170 F   0  0  0  0  0  0  0  0  0  0  0  0
  180.2900  180.5730  142.3860 F   0  0  0  0  0  0  0  0  0  0  0  0
  181.3230  177.6070  138.8670 C   0  0  0  0  0  2  0  0  0  0  0  0
  182.4960  176.9000  138.2160 C   0  0  0  0  0  1  0  0  0  0  0  0
  1 17  1  0  0  0  0
  2  8  1  0  0  0  0
  3 22  1  0  0  0  0
  3 13  1  1  0  0  0
  3 14  1  0  0  0  0
  4  1  1  0  0  0  0
  5 18  1  0  0  0  0
  5 20  1  0  0  0  0
  6 20  2  0  0  0  0
  8 14  2  0  0  0  0
  8 18  1  0  0  0  0
  9  2  1  0  0  0  0
  9  3  1  0  0  0  0
 10 16  1  0  0  0  0
 10  1  2  0  0  0  0
 11  7  2  0  0  0  0
 12  7  1  0  0  0  0
 12 16  1  0  0  0  0
 14 11  1  0  0  0  0
 15 17  1  0  0  0  0
 15 19  1  0  0  0  0
 16 15  2  0  0  0  0
 18 12  2  0  0  0  0
 20 10  1  0  0  0  0
 21 22  1  0  0  0  0
 22 24  1  0  0  0  0
 23 22  1  0  0  0  0
 25  9  1  0  0  0  0
 26 25  1  0  0  0  0
M  END
>  <MODEL>
6

>  <REMARK>
 VINA RESULT:      -8.2      4.880      7.524
  Name = 
  2 active torsions:
  status: ('A' for Active; 'I' for Inactive)
    1  A    between atoms: C_3  and  C_5
    2  A    between atoms: C_8  and  N_12
                            x       y       z     vdW  Elec       q    Type
                         _______ _______ _______ _____ _____    ______ ____

>  <TORSDO>
F 2

$$$$
=
 OpenBabel10222419323D

 26 29  0  0  1  0  0  0  0  0999 V2000
  189.7800  177.0600  135.7470 C   0  0  0  0  0  0  0  0  0  0  0  0
  191.1330  176.3520  142.2990 C   0  0  0  0  0  2  0  0  0  0  0  0
  189.4900  177.6050  143.5130 C   0  0  1  0  0  0  0  0  0  0  0  0
  190.5200  176.4750  134.5940 C   0  0  0  0  0  1  0  0  0  0  0  0
  191.2650  176.1240  139.2440 C   0  0  0  0  0  2  0  0  0  0  0  0
  192.0040  175.4870  137.0540 O   0  0  0  0  0  0  0  0  0  0  0  0
  188.2120  178.3770  139.9790 C   0  0  0  0  0  3  0  0  0  0  0  0
  190.1820  176.9820  141.3590 C   0  0  0  0  0  0  0  0  0  0  0  0
  190.6000  176.6120  143.6450 N   0  0  0  0  0  0  0  0  0  0  0  0
  190.0910  176.8870  137.0850 C   0  0  1  0  0  3  0  0  0  0  0  0
  188.2420  178.4110  141.3790 C   0  0  0  0  0  3  0  0  0  0  0  0
  189.1760  177.6410  139.2650 C   0  0  0  0  0  0  0  0  0  0  0  0
  189.8450  179.0110  144.0240 C   0  0  0  0  0  1  0  0  0  0  0  0
  189.2410  177.6940  142.0470 C   0  0  0  0  0  0  0  0  0  0  0  0
  188.3240  178.1670  136.8640 C   0  0  0  0  0  0  0  0  0  0  0  0
  189.1640  177.5910  137.7970 C   0  0  0  0  0  0  0  0  0  0  0  0
  188.6920  177.8480  135.6060 N   0  0  0  0  0  0  0  0  0  0  0  0
  190.1900  176.9280  139.9610 C   0  0  0  0  0  0  0  0  0  0  0  0
  187.2040  178.9950  137.1620 N   0  0  0  0  0  1  0  0  0  0  0  0
  191.1650  176.1300  137.7360 C   0  0  0  0  0  0  0  0  0  0  0  0
  187.7440  175.9680  143.6020 F   0  0  0  0  0  0  0  0  0  0  0  0
  188.2520  177.0760  144.2590 C   0  0  0  0  0  0  0  0  0  0  0  0
  187.2690  178.0510  144.3060 F   0  0  0  0  0  0  0  0  0  0  0  0
  188.5780  176.7100  145.5550 F   0  0  0  0  0  0  0  0  0  0  0  0
  191.7070  177.0450  144.4980 C   0  0  0  0  0  2  0  0  0  0  0  0
  191.7060  176.2430  145.7840 C   0  0  0  0  0  1  0  0  0  0  0  0
  2  9  1  0  0  0  0
  3  9  1  0  0  0  0
  3 13  1  1  0  0  0
  3 22  1  0  0  0  0
  4  1  1  0  0  0  0
  5 18  1  0  0  0  0
  6 20  2  0  0  0  0
  7 11  1  0  0  0  0
  8 14  1  0  0  0  0
  8  2  1  0  0  0  0
  9 25  1  0  0  0  0
 10  1  1  1  0  0  0
 10 20  1  0  0  0  0
 10 16  1  0  0  0  0
 11 14  2  0  0  0  0
 12 18  1  0  0  0  0
 12  7  2  0  0  0  0
 14  3  1  0  0  0  0
 15 19  1  0  0  0  0
 15 16  2  0  0  0  0
 16 12  1  0  0  0  0
 17  1  2  0  0  0  0
 17 15  1  0  0  0  0
 18  8  2  0  0  0  0
 20  5  1  0  0  0  0
 21 22  1  0  0  0  0
 22 23  1  0  0  0  0
 22 24  1  0  0  0  0
 25 26  1  0  0  0  0
M  END
>  <MODEL>
7

>  <REMARK>
 VINA RESULT:      -7.9      3.959      6.778
  Name = 
  2 active torsions:
  status: ('A' for Active; 'I' for Inactive)
    1  A    between atoms: C_3  and  C_5
    2  A    between atoms: C_8  and  N_12
                            x       y       z     vdW  Elec       q    Type
                         _______ _______ _______ _____ _____    ______ ____

>  <TORSDO>
F 2

$$$$
=
 OpenBabel10222419323D

 26 29  0  0  1  0  0  0  0  0999 V2000
  187.6530  178.0000  146.0380 C   0  0  0  0  0  0  0  0  0  0  0  0
  185.9870  178.1430  139.5230 C   0  0  0  0  0  2  0  0  0  0  0  0
  183.6260  178.5310  139.3920 C   0  0  1  0  0  0  0  0  0  0  0  0
  189.0030  177.7840  146.6310 C   0  0  0  0  0  1  0  0  0  0  0  0
  187.5910  177.9310  142.1280 C   0  0  0  0  0  2  0  0  0  0  0  0
  189.4410  177.6570  143.6280 O   0  0  0  0  0  0  0  0  0  0  0  0
  183.9370  178.5660  143.2150 C   0  0  0  0  0  3  0  0  0  0  0  0
  185.4220  178.2840  140.8810 C   0  0  0  0  0  0  0  0  0  0  0  0
  184.8890  178.4590  138.5960 N   0  0  0  0  0  0  0  0  0  0  0  0
  187.3520  178.0250  144.6880 C   0  0  0  0  0  0  0  0  0  0  0  0
  183.3030  178.6490  141.9690 C   0  0  0  0  0  3  0  0  0  0  0  0
  185.3240  178.3390  143.2930 C   0  0  0  0  0  0  0  0  0  0  0  0
  182.6800  177.3380  139.1730 C   0  0  0  0  0  1  0  0  0  0  0  0
  184.0760  178.5090  140.8110 C   0  0  0  0  0  0  0  0  0  0  0  0
  185.5440  178.3500  145.8850 C   0  0  0  0  0  0  0  0  0  0  0  0
  186.0100  178.2480  144.5890 C   0  0  0  0  0  0  0  0  0  0  0  0
  186.5420  178.2000  146.7810 N   0  0  0  0  0  2  0  0  0  0  0  0
  186.0910  178.1890  142.1060 C   0  0  0  0  0  0  0  0  0  0  0  0
  184.1900  178.5840  146.2600 N   0  0  0  0  0  1  0  0  0  0  0  0
  188.2050  177.8600  143.5060 C   0  0  0  0  0  0  0  0  0  0  0  0
  183.7950  180.8960  139.0560 F   0  0  0  0  0  0  0  0  0  0  0  0
  182.8950  179.8440  139.0560 C   0  0  0  0  0  0  0  0  0  0  0  0
  181.9160  180.1020  140.0010 F   0  0  0  0  0  0  0  0  0  0  0  0
  182.3010  179.7710  137.8070 F   0  0  0  0  0  0  0  0  0  0  0  0
  184.8840  177.4520  137.5350 C   0  0  0  0  0  2  0  0  0  0  0  0
  186.3080  177.0430  137.2110 C   0  0  0  0  0  1  0  0  0  0  0  0
  1  4  1  0  0  0  0
  1 17  1  0  0  0  0
  2  8  1  0  0  0  0
  3 13  1  6  0  0  0
  3 14  1  0  0  0  0
  5 20  1  0  0  0  0
  7 12  1  0  0  0  0
  8 18  1  0  0  0  0
  9  3  1  0  0  0  0
  9  2  1  0  0  0  0
 10  1  2  0  0  0  0
 11  7  2  0  0  0  0
 12 16  1  0  0  0  0
 14  8  2  0  0  0  0
 14 11  1  0  0  0  0
 15 19  1  0  0  0  0
 15 17  1  0  0  0  0
 16 10  1  0  0  0  0
 16 15  2  0  0  0  0
 18  5  1  0  0  0  0
 18 12  2  0  0  0  0
 20  6  2  0  0  0  0
 20 10  1  0  0  0  0
 22 21  1  0  0  0  0
 22  3  1  0  0  0  0
 22 23  1  0  0  0  0
 24 22  1  0  0  0  0
 25  9  1  0  0  0  0
 26 25  1  0  0  0  0
M  END
>  <MODEL>
8

>  <REMARK>
 VINA RESULT:      -7.7      4.480      6.411
  Name = 
  2 active torsions:
  status: ('A' for Active; 'I' for Inactive)
    1  A    between atoms: C_3  and  C_5
    2  A    between atoms: C_8  and  N_12
                            x       y       z     vdW  Elec       q    Type
                         _______ _______ _______ _____ _____    ______ ____

>  <TORSDO>
F 2

$$$$
=
 OpenBabel10222419323D

 26 29  0  0  1  0  0  0  0  0999 V2000
  188.1760  177.7980  145.8170 C   0  0  0  0  0  0  0  0  0  0  0  0
  182.6340  178.6580  142.1030 C   0  0  0  0  0  2  0  0  0  0  0  0
  183.3140  178.7590  139.8070 C   0  0  1  0  0  0  0  0  0  0  0  0
  188.2730  177.6800  147.2990 C   0  0  0  0  0  1  0  0  0  0  0  0
  184.5310  178.2800  144.4820 C   0  0  0  0  0  2  0  0  0  0  0  0
  185.3080  178.0280  146.7360 O   0  0  0  0  0  0  0  0  0  0  0  0
  186.7920  178.2690  141.3490 C   0  0  0  0  0  3  0  0  0  0  0  0
  184.0990  178.4920  142.0020 C   0  0  0  0  0  0  0  0  0  0  0  0
  182.1340  178.6620  140.7190 N   0  0  0  0  0  0  0  0  0  0  0  0
  187.0120  177.9720  145.0890 C   0  0  1  0  0  3  0  0  0  0  0  0
  185.8390  178.4410  140.3370 C   0  0  0  0  0  3  0  0  0  0  0  0
  186.3940  178.2090  142.6970 C   0  0  0  0  0  0  0  0  0  0  0  0
  183.4700  180.1310  139.1300 C   0  0  0  0  0  1  0  0  0  0  0  0
  184.4910  178.5440  140.6940 C   0  0  0  0  0  0  0  0  0  0  0  0
  188.7500  177.8880  143.7530 C   0  0  0  0  0  0  0  0  0  0  0  0
  187.3760  178.0290  143.7750 C   0  0  0  0  0  0  0  0  0  0  0  0
  189.2500  177.7450  144.9990 N   0  0  0  0  0  0  0  0  0  0  0  0
  185.0210  178.3260  143.0420 C   0  0  0  0  0  0  0  0  0  0  0  0
  189.5610  177.8870  142.5830 N   0  0  0  0  0  1  0  0  0  0  0  0
  185.6140  178.0860  145.5170 C   0  0  0  0  0  0  0  0  0  0  0  0
  183.3810  176.4150  139.3230 F   0  0  0  0  0  0  0  0  0  0  0  0
  183.2120  177.6570  138.7360 C   0  0  0  0  0  0  0  0  0  0  0  0
  184.1970  177.8300  137.7770 F   0  0  0  0  0  0  0  0  0  0  0  0
  181.9750  177.6880  138.1150 F   0  0  0  0  0  0  0  0  0  0  0  0
  181.1690  179.7540  140.5860 C   0  0  0  0  0  2  0  0  0  0  0  0
  179.8370  179.2050  140.1160 C   0  0  0  0  0  1  0  0  0  0  0  0
  1  4  1  0  0  0  0
  3 13  1  6  0  0  0
  3 14  1  0  0  0  0
  3  9  1  0  0  0  0
  5 20  1  0  0  0  0
  7 12  1  0  0  0  0
  8  2  1  0  0  0  0
  8 18  1  0  0  0  0
  9  2  1  0  0  0  0
 10 16  1  6  0  0  0
 10 20  1  0  0  0  0
 10  1  1  0  0  0  0
 11 14  1  0  0  0  0
 11  7  2  0  0  0  0
 12 18  2  0  0  0  0
 12 16  1  0  0  0  0
 14  8  2  0  0  0  0
 15 16  2  0  0  0  0
 15 17  1  0  0  0  0
 17  1  2  0  0  0  0
 18  5  1  0  0  0  0
 19 15  1  0  0  0  0
 20  6  2  0  0  0  0
 22 21  1  0  0  0  0
 22  3  1  0  0  0  0
 23 22  1  0  0  0  0
 24 22  1  0  0  0  0
 25  9  1  0  0  0  0
 26 25  1  0  0  0  0
M  END
>  <MODEL>
9

>  <REMARK>
 VINA RESULT:      -7.7      4.060      7.007
  Name = 
  2 active torsions:
  status: ('A' for Active; 'I' for Inactive)
    1  A    between atoms: C_3  and  C_5
    2  A    between atoms: C_8  and  N_12
                            x       y       z     vdW  Elec       q    Type
                         _______ _______ _______ _____ _____    ______ ____

>  <TORSDO>
F 2

$$$$
