=
 OpenBabel10222417083D

 25 27  0  0  1  0  0  0  0  0999 V2000
  186.7280  177.4510  144.7640 C   0  0  0  0  0  3  0  0  0  0  0  0
  185.7470  179.2780  146.6780 N   0  0  0  0  0  0  0  0  0  0  0  0
  186.8980  178.1660  148.3680 O   0  0  0  0  0  0  0  0  0  0  0  0
  186.6480  178.2660  147.1370 C   0  0  0  0  0  0  0  0  0  0  0  0
  187.2690  177.2930  146.1610 C   0  0  2  0  0  3  0  0  0  0  0  0
  185.8670  178.4160  144.4160 C   0  0  0  0  0  0  0  0  0  0  0  0
  185.3780  179.3650  145.4360 C   0  0  0  0  0  3  0  0  0  0  0  0
  190.4700  177.2410  144.3120 C   0  0  0  0  0  3  0  0  0  0  0  0
  190.8730  176.6220  147.3150 C   0  0  0  0  0  3  0  0  0  0  0  0
  191.5030  176.6180  144.8830 C   0  0  0  0  0  3  0  0  0  0  0  0
  188.7710  177.3360  146.1440 C   0  0  0  0  0  0  0  0  0  0  0  0
  189.5020  178.0890  145.0680 C   0  0  0  0  0  2  0  0  0  0  0  0
  189.4130  176.7520  147.1620 C   0  0  0  0  0  3  0  0  0  0  0  0
  191.7780  176.5660  146.3300 C   0  0  0  0  0  3  0  0  0  0  0  0
  183.5800  178.6330  141.4120 C   0  0  0  0  0  0  0  0  0  0  0  0
  186.2810  178.5340  141.9880 N   0  0  0  0  0  0  0  0  0  0  0  0
  184.0190  178.5540  142.7400 C   0  0  0  0  0  3  0  0  0  0  0  0
  185.3900  178.5050  143.0190 C   0  0  0  0  0  0  0  0  0  0  0  0
  184.5200  178.6590  140.3820 C   0  0  0  0  0  3  0  0  0  0  0  0
  185.8810  178.6060  140.6850 C   0  0  0  0  0  0  0  0  0  0  0  0
  181.1970  178.6990  141.9950 C   0  0  0  0  0  2  0  0  0  0  0  0
  182.1530  178.7060  141.0720 C   0  0  0  0  0  3  0  0  0  0  0  0
  186.8150  178.6290  139.6450 O   0  0  0  0  0  0  0  0  0  0  0  0
  188.1670  178.2190  139.8090 C   0  0  0  0  0  2  0  0  0  0  0  0
  188.9800  178.5990  138.5870 C   0  0  0  0  0  1  0  0  0  0  0  0
  1  5  1  0  0  0  0
  2  4  1  0  0  0  0
  4  3  2  0  0  0  0
  5 11  1  6  0  0  0
  5  4  1  0  0  0  0
  6  1  2  0  0  0  0
  6  7  1  0  0  0  0
  7  2  2  0  0  0  0
  8 10  2  0  0  0  0
  8 12  1  0  0  0  0
 10 14  1  0  0  0  0
 11 13  2  0  0  0  0
 12 11  1  0  0  0  0
 13  9  1  0  0  0  0
 14  9  2  0  0  0  0
 15 17  1  0  0  0  0
 16 18  1  0  0  0  0
 17 18  2  0  0  0  0
 18  6  1  0  0  0  0
 19 20  1  0  0  0  0
 19 15  2  0  0  0  0
 20 16  2  0  0  0  0
 22 15  1  0  0  0  0
 22 21  2  0  0  0  0
 23 24  1  0  0  0  0
 23 20  1  0  0  0  0
 25 24  1  0  0  0  0
M  END
>  <MODEL>
1

>  <REMARK>
 VINA RESULT:      -9.3      0.000      0.000
  Name = 
  5 active torsions:
  status: ('A' for Active; 'I' for Inactive)
    1  A    between atoms: C_1  and  O_21
    2  A    between atoms: C_4  and  C_19
    3  A    between atoms: C_9  and  C_16
    4  A    between atoms: C_13  and  C_20
    5  A    between atoms: O_21  and  C_24
                            x       y       z     vdW  Elec       q    Type
                         _______ _______ _______ _____ _____    ______ ____

>  <TORSDO>
F 5

$$$$
=
 OpenBabel10222417083D

 25 27  0  0  1  0  0  0  0  0999 V2000
  186.6220  177.4800  145.1770 C   0  0  0  0  0  3  0  0  0  0  0  0
  186.0140  179.2720  147.2700 N   0  0  0  0  0  0  0  0  0  0  0  0
  187.4200  178.1050  148.7130 O   0  0  0  0  0  0  0  0  0  0  0  0
  186.9640  178.2380  147.5450 C   0  0  0  0  0  0  0  0  0  0  0  0
  187.3920  177.2800  146.4560 C   0  0  2  0  0  3  0  0  0  0  0  0
  185.7290  178.4630  145.0040 C   0  0  0  0  0  0  0  0  0  0  0  0
  185.4390  179.3930  146.1130 C   0  0  0  0  0  3  0  0  0  0  0  0
  190.2290  177.1440  144.0900 C   0  0  0  0  0  3  0  0  0  0  0  0
  191.1360  176.5980  146.9950 C   0  0  0  0  0  3  0  0  0  0  0  0
  191.3400  176.5240  144.4920 C   0  0  0  0  0  3  0  0  0  0  0  0
  188.8690  177.3060  146.1820 C   0  0  0  0  0  0  0  0  0  0  0  0
  189.4100  178.0220  144.9760 C   0  0  0  0  0  2  0  0  0  0  0  0
  189.6720  176.7410  147.0900 C   0  0  0  0  0  3  0  0  0  0  0  0
  191.8580  176.5070  145.8720 C   0  0  0  0  0  3  0  0  0  0  0  0
  182.9630  178.7730  142.4440 C   0  0  0  0  0  0  0  0  0  0  0  0
  185.7220  178.6420  142.5440 N   0  0  0  0  0  0  0  0  0  0  0  0
  183.6220  178.6560  143.6740 C   0  0  0  0  0  3  0  0  0  0  0  0
  185.0210  178.5910  143.7120 C   0  0  0  0  0  0  0  0  0  0  0  0
  183.7130  178.8200  141.2680 C   0  0  0  0  0  3  0  0  0  0  0  0
  185.1050  178.7510  141.3320 C   0  0  0  0  0  0  0  0  0  0  0  0
  180.7110  178.7480  143.4190 C   0  0  0  0  0  2  0  0  0  0  0  0
  181.4990  178.8640  142.3560 C   0  0  0  0  0  3  0  0  0  0  0  0
  185.8460  178.7960  140.1470 O   0  0  0  0  0  0  0  0  0  0  0  0
  185.2880  178.5020  138.8730 C   0  0  0  0  0  2  0  0  0  0  0  0
  186.3730  178.0410  137.9190 C   0  0  0  0  0  1  0  0  0  0  0  0
  1  5  1  0  0  0  0
  2  4  1  0  0  0  0
  4  3  2  0  0  0  0
  5 11  1  6  0  0  0
  5  4  1  0  0  0  0
  6  1  2  0  0  0  0
  6  7  1  0  0  0  0
  7  2  2  0  0  0  0
  8 10  2  0  0  0  0
  8 12  1  0  0  0  0
  9 13  1  0  0  0  0
 10 14  1  0  0  0  0
 11 13  2  0  0  0  0
 12 11  1  0  0  0  0
 14  9  2  0  0  0  0
 15 17  1  0  0  0  0
 16 18  1  0  0  0  0
 17 18  2  0  0  0  0
 18  6  1  0  0  0  0
 19 20  1  0  0  0  0
 19 15  2  0  0  0  0
 20 16  2  0  0  0  0
 22 15  1  0  0  0  0
 22 21  2  0  0  0  0
 23 20  1  0  0  0  0
 24 23  1  0  0  0  0
 25 24  1  0  0  0  0
M  END
>  <MODEL>
2

>  <REMARK>
 VINA RESULT:      -9.2      1.012      1.125
  Name = 
  5 active torsions:
  status: ('A' for Active; 'I' for Inactive)
    1  A    between atoms: C_1  and  O_21
    2  A    between atoms: C_4  and  C_19
    3  A    between atoms: C_9  and  C_16
    4  A    between atoms: C_13  and  C_20
    5  A    between atoms: O_21  and  C_24
                            x       y       z     vdW  Elec       q    Type
                         _______ _______ _______ _____ _____    ______ ____

>  <TORSDO>
F 5

$$$$
=
 OpenBabel10222417083D

 25 27  0  0  1  0  0  0  0  0999 V2000
  186.5340  177.4390  144.9590 C   0  0  0  0  0  3  0  0  0  0  0  0
  185.8540  179.2650  147.0000 N   0  0  0  0  0  0  0  0  0  0  0  0
  187.2490  178.1540  148.4950 O   0  0  0  0  0  0  0  0  0  0  0  0
  186.8150  178.2540  147.3170 C   0  0  0  0  0  0  0  0  0  0  0  0
  187.2810  177.2800  146.2580 C   0  0  2  0  0  3  0  0  0  0  0  0
  185.6290  178.4030  144.7460 C   0  0  0  0  0  0  0  0  0  0  0  0
  185.3010  179.3520  145.8280 C   0  0  0  0  0  3  0  0  0  0  0  0
  190.1710  177.0800  143.9610 C   0  0  0  0  0  3  0  0  0  0  0  0
  191.0270  176.7150  146.9100 C   0  0  0  0  0  3  0  0  0  0  0  0
  191.2860  176.5090  144.4190 C   0  0  0  0  0  3  0  0  0  0  0  0
  188.7630  177.3250  146.0130 C   0  0  0  0  0  0  0  0  0  0  0  0
  189.3140  177.9860  144.7800 C   0  0  0  0  0  2  0  0  0  0  0  0
  189.5580  176.8290  146.9670 C   0  0  0  0  0  3  0  0  0  0  0  0
  191.7740  176.5790  145.8080 C   0  0  0  0  0  3  0  0  0  0  0  0
  185.0260  178.5990  141.0180 C   0  0  0  0  0  0  0  0  0  0  0  0
  183.5850  178.5600  143.3760 N   0  0  0  0  0  0  0  0  0  0  0  0
  185.6860  178.5110  142.2500 C   0  0  0  0  0  3  0  0  0  0  0  0
  184.9450  178.4910  143.4380 C   0  0  0  0  0  0  0  0  0  0  0  0
  183.6330  178.6690  140.9920 C   0  0  0  0  0  3  0  0  0  0  0  0
  182.9170  178.6510  142.1900 C   0  0  0  0  0  0  0  0  0  0  0  0
  185.1490  178.5240  138.5690 C   0  0  0  0  0  2  0  0  0  0  0  0
  185.7600  178.6030  139.7450 C   0  0  0  0  0  3  0  0  0  0  0  0
  181.5210  178.7250  142.1530 O   0  0  0  0  0  0  0  0  0  0  0  0
  180.7520  179.3550  143.1700 C   0  0  0  0  0  2  0  0  0  0  0  0
  180.0210  178.3130  143.9950 C   0  0  0  0  0  1  0  0  0  0  0  0
  1  5  1  0  0  0  0
  2  4  1  0  0  0  0
  4  3  2  0  0  0  0
  5 11  1  6  0  0  0
  5  4  1  0  0  0  0
  6  1  2  0  0  0  0
  6  7  1  0  0  0  0
  7  2  2  0  0  0  0
  8 10  2  0  0  0  0
  8 12  1  0  0  0  0
  9 13  1  0  0  0  0
 10 14  1  0  0  0  0
 11 13  2  0  0  0  0
 12 11  1  0  0  0  0
 14  9  2  0  0  0  0
 15 17  1  0  0  0  0
 16 18  1  0  0  0  0
 17 18  2  0  0  0  0
 18  6  1  0  0  0  0
 19 15  2  0  0  0  0
 19 20  1  0  0  0  0
 20 16  2  0  0  0  0
 21 22  2  0  0  0  0
 22 15  1  0  0  0  0
 23 20  1  0  0  0  0
 23 24  1  0  0  0  0
 24 25  1  0  0  0  0
M  END
>  <MODEL>
3

>  <REMARK>
 VINA RESULT:      -9.0      1.678      3.362
  Name = 
  5 active torsions:
  status: ('A' for Active; 'I' for Inactive)
    1  A    between atoms: C_1  and  O_21
    2  A    between atoms: C_4  and  C_19
    3  A    between atoms: C_9  and  C_16
    4  A    between atoms: C_13  and  C_20
    5  A    between atoms: O_21  and  C_24
                            x       y       z     vdW  Elec       q    Type
                         _______ _______ _______ _____ _____    ______ ____

>  <TORSDO>
F 5

$$$$
=
 OpenBabel10222417083D

 25 27  0  0  1  0  0  0  0  0999 V2000
  189.8380  178.0440  143.7160 C   0  0  0  0  0  3  0  0  0  0  0  0
  191.6960  175.9600  144.1220 N   0  0  0  0  0  0  0  0  0  0  0  0
  192.0140  176.6370  146.3260 O   0  0  0  0  0  0  0  0  0  0  0  0
  191.3900  176.7950  145.2430 C   0  0  0  0  0  0  0  0  0  0  0  0
  190.3550  177.8900  145.1230 C   0  0  2  0  0  3  0  0  0  0  0  0
  190.1890  177.2310  142.7120 C   0  0  0  0  0  0  0  0  0  0  0  0
  191.1560  176.1420  142.9550 C   0  0  0  0  0  3  0  0  0  0  0  0
  186.7500  178.1520  145.8990 C   0  0  0  0  0  3  0  0  0  0  0  0
  188.4640  177.9880  148.4670 C   0  0  0  0  0  3  0  0  0  0  0  0
  186.4090  178.5390  147.1300 C   0  0  0  0  0  3  0  0  0  0  0  0
  189.2090  177.7400  146.0830 C   0  0  0  0  0  0  0  0  0  0  0  0
  187.8800  177.2210  145.6120 C   0  0  0  0  0  2  0  0  0  0  0  0
  189.4490  178.0090  147.3710 C   0  0  0  0  0  3  0  0  0  0  0  0
  187.1490  178.2140  148.3630 C   0  0  0  0  0  3  0  0  0  0  0  0
  189.8410  177.3490  138.9490 C   0  0  0  0  0  0  0  0  0  0  0  0
  188.3770  177.9650  141.2100 N   0  0  0  0  0  0  0  0  0  0  0  0
  190.3820  177.1340  140.2220 C   0  0  0  0  0  3  0  0  0  0  0  0
  189.6300  177.4490  141.3610 C   0  0  0  0  0  0  0  0  0  0  0  0
  188.5560  177.8800  138.8320 C   0  0  0  0  0  3  0  0  0  0  0  0
  187.8280  178.1890  139.9810 C   0  0  0  0  0  0  0  0  0  0  0  0
  191.7060  176.3030  137.7440 C   0  0  0  0  0  2  0  0  0  0  0  0
  190.5850  177.0160  137.7260 C   0  0  0  0  0  3  0  0  0  0  0  0
  186.5430  178.7240  139.8520 O   0  0  0  0  0  0  0  0  0  0  0  0
  185.6810  178.9430  140.9630 C   0  0  0  0  0  2  0  0  0  0  0  0
  184.2330  178.9190  140.5140 C   0  0  0  0  0  1  0  0  0  0  0  0
  1  5  1  0  0  0  0
  2  4  1  0  0  0  0
  4  3  2  0  0  0  0
  5  4  1  0  0  0  0
  5 11  1  1  0  0  0
  6  7  1  0  0  0  0
  6  1  2  0  0  0  0
  7  2  2  0  0  0  0
  8 10  2  0  0  0  0
 10 14  1  0  0  0  0
 11 13  2  0  0  0  0
 12  8  1  0  0  0  0
 12 11  1  0  0  0  0
 13  9  1  0  0  0  0
 14  9  2  0  0  0  0
 15 17  1  0  0  0  0
 16 18  1  0  0  0  0
 17 18  2  0  0  0  0
 18  6  1  0  0  0  0
 19 15  2  0  0  0  0
 19 20  1  0  0  0  0
 20 16  2  0  0  0  0
 22 21  2  0  0  0  0
 22 15  1  0  0  0  0
 23 20  1  0  0  0  0
 23 24  1  0  0  0  0
 25 24  1  0  0  0  0
M  END
>  <MODEL>
4

>  <REMARK>
 VINA RESULT:      -9.0      2.291      5.307
  Name = 
  5 active torsions:
  status: ('A' for Active; 'I' for Inactive)
    1  A    between atoms: C_1  and  O_21
    2  A    between atoms: C_4  and  C_19
    3  A    between atoms: C_9  and  C_16
    4  A    between atoms: C_13  and  C_20
    5  A    between atoms: O_21  and  C_24
                            x       y       z     vdW  Elec       q    Type
                         _______ _______ _______ _____ _____    ______ ____

>  <TORSDO>
F 5

$$$$
=
 OpenBabel10222417083D

 25 27  0  0  1  0  0  0  0  0999 V2000
  187.0750  177.5520  143.1750 C   0  0  0  0  0  3  0  0  0  0  0  0
  184.9590  179.4170  143.2710 N   0  0  0  0  0  0  0  0  0  0  0  0
  184.3830  178.6920  145.4060 O   0  0  0  0  0  0  0  0  0  0  0  0
  185.1790  178.6110  144.4330 C   0  0  0  0  0  0  0  0  0  0  0  0
  186.3340  177.6380  144.4840 C   0  0  2  0  0  3  0  0  0  0  0  0
  186.7950  178.3300  142.1210 C   0  0  0  0  0  0  0  0  0  0  0  0
  185.6890  179.3040  142.2030 C   0  0  0  0  0  3  0  0  0  0  0  0
  189.6080  177.1010  146.1170 C   0  0  0  0  0  3  0  0  0  0  0  0
  187.5340  178.2940  148.0760 C   0  0  0  0  0  3  0  0  0  0  0  0
  189.6340  177.0660  147.4500 C   0  0  0  0  0  3  0  0  0  0  0  0
  187.2950  177.9060  145.6070 C   0  0  0  0  0  0  0  0  0  0  0  0
  188.7660  178.0550  145.3360 C   0  0  0  0  0  2  0  0  0  0  0  0
  186.7780  178.0830  146.8280 C   0  0  0  0  0  3  0  0  0  0  0  0
  188.7700  177.8570  148.3440 C   0  0  0  0  0  3  0  0  0  0  0  0
  189.6300  177.6000  139.7270 C   0  0  0  0  0  0  0  0  0  0  0  0
  187.0180  178.5000  139.6710 N   0  0  0  0  0  0  0  0  0  0  0  0
  188.9000  177.7290  140.9150 C   0  0  0  0  0  3  0  0  0  0  0  0
  187.5760  178.1850  140.8740 C   0  0  0  0  0  0  0  0  0  0  0  0
  189.0260  177.9340  138.5140 C   0  0  0  0  0  3  0  0  0  0  0  0
  187.7070  178.3890  138.4990 C   0  0  0  0  0  0  0  0  0  0  0  0
  191.9130  177.4890  140.6190 C   0  0  0  0  0  2  0  0  0  0  0  0
  191.0140  177.1070  139.7190 C   0  0  0  0  0  3  0  0  0  0  0  0
  187.1130  178.7230  137.2790 O   0  0  0  0  0  0  0  0  0  0  0  0
  186.6070  177.7500  136.3730 C   0  0  0  0  0  2  0  0  0  0  0  0
  187.1130  178.0290  134.9700 C   0  0  0  0  0  1  0  0  0  0  0  0
  1  5  1  0  0  0  0
  2  4  1  0  0  0  0
  4  5  1  0  0  0  0
  4  3  2  0  0  0  0
  5 11  1  1  0  0  0
  6  7  1  0  0  0  0
  6  1  2  0  0  0  0
  7  2  2  0  0  0  0
  8 10  2  0  0  0  0
  9 14  2  0  0  0  0
 10 14  1  0  0  0  0
 11 13  2  0  0  0  0
 12 11  1  0  0  0  0
 12  8  1  0  0  0  0
 13  9  1  0  0  0  0
 15 17  1  0  0  0  0
 16 18  1  0  0  0  0
 18 17  2  0  0  0  0
 18  6  1  0  0  0  0
 19 15  2  0  0  0  0
 20 19  1  0  0  0  0
 20 16  2  0  0  0  0
 22 15  1  0  0  0  0
 22 21  2  0  0  0  0
 23 20  1  0  0  0  0
 24 23  1  0  0  0  0
 25 24  1  0  0  0  0
M  END
>  <MODEL>
5

>  <REMARK>
 VINA RESULT:      -8.9      2.132      4.338
  Name = 
  5 active torsions:
  status: ('A' for Active; 'I' for Inactive)
    1  A    between atoms: C_1  and  O_21
    2  A    between atoms: C_4  and  C_19
    3  A    between atoms: C_9  and  C_16
    4  A    between atoms: C_13  and  C_20
    5  A    between atoms: O_21  and  C_24
                            x       y       z     vdW  Elec       q    Type
                         _______ _______ _______ _____ _____    ______ ____

>  <TORSDO>
F 5

$$$$
=
 OpenBabel10222417083D

 25 27  0  0  1  0  0  0  0  0999 V2000
  188.6090  178.4790  142.9330 C   0  0  0  0  0  3  0  0  0  0  0  0
  189.9620  177.1390  140.8500 N   0  0  0  0  0  0  0  0  0  0  0  0
  191.9760  177.3280  142.0030 O   0  0  0  0  0  0  0  0  0  0  0  0
  190.7300  177.5170  141.9970 C   0  0  0  0  0  0  0  0  0  0  0  0
  190.0640  178.1770  143.1830 C   0  0  2  0  0  3  0  0  0  0  0  0
  187.9640  178.1090  141.8190 C   0  0  0  0  0  0  0  0  0  0  0  0
  188.6940  177.4000  140.7500 C   0  0  0  0  0  3  0  0  0  0  0  0
  188.9820  177.4200  146.6360 C   0  0  0  0  0  3  0  0  0  0  0  0
  191.8550  176.4140  146.0910 C   0  0  0  0  0  3  0  0  0  0  0  0
  189.9290  177.1400  147.5320 C   0  0  0  0  0  3  0  0  0  0  0  0
  190.2220  177.4090  144.4640 C   0  0  0  0  0  0  0  0  0  0  0  0
  189.0150  176.9350  145.2250 C   0  0  0  0  0  2  0  0  0  0  0  0
  191.4660  177.1030  144.8460 C   0  0  0  0  0  3  0  0  0  0  0  0
  191.1890  176.4280  147.2510 C   0  0  0  0  0  3  0  0  0  0  0  0
  184.3140  178.7280  142.5910 C   0  0  0  0  0  0  0  0  0  0  0  0
  186.0350  178.7660  140.4290 N   0  0  0  0  0  0  0  0  0  0  0  0
  185.6680  178.4170  142.7590 C   0  0  0  0  0  3  0  0  0  0  0  0
  186.5320  178.4400  141.6560 C   0  0  0  0  0  0  0  0  0  0  0  0
  183.8400  179.0550  141.3190 C   0  0  0  0  0  3  0  0  0  0  0  0
  184.7190  179.0680  140.2360 C   0  0  0  0  0  0  0  0  0  0  0  0
  183.7630  178.9670  144.9700 C   0  0  0  0  0  2  0  0  0  0  0  0
  183.3750  178.7360  143.7210 C   0  0  0  0  0  3  0  0  0  0  0  0
  184.2340  179.3950  138.9660 O   0  0  0  0  0  0  0  0  0  0  0  0
  182.8590  179.2970  138.6140 C   0  0  0  0  0  2  0  0  0  0  0  0
  182.2390  180.6790  138.5350 C   0  0  0  0  0  1  0  0  0  0  0  0
  1  5  1  0  0  0  0
  2  4  1  0  0  0  0
  4  3  2  0  0  0  0
  4  5  1  0  0  0  0
  5 11  1  1  0  0  0
  6  1  2  0  0  0  0
  7  2  2  0  0  0  0
  7  6  1  0  0  0  0
  8 10  2  0  0  0  0
  9 14  2  0  0  0  0
 11 13  2  0  0  0  0
 11 12  1  0  0  0  0
 12  8  1  0  0  0  0
 13  9  1  0  0  0  0
 14 10  1  0  0  0  0
 15 17  1  0  0  0  0
 15 22  1  0  0  0  0
 16 18  1  0  0  0  0
 18  6  1  0  0  0  0
 18 17  2  0  0  0  0
 19 15  2  0  0  0  0
 20 16  2  0  0  0  0
 20 19  1  0  0  0  0
 22 21  2  0  0  0  0
 23 20  1  0  0  0  0
 24 23  1  0  0  0  0
 25 24  1  0  0  0  0
M  END
>  <MODEL>
6

>  <REMARK>
 VINA RESULT:      -8.6      2.540      4.018
  Name = 
  5 active torsions:
  status: ('A' for Active; 'I' for Inactive)
    1  A    between atoms: C_1  and  O_21
    2  A    between atoms: C_4  and  C_19
    3  A    between atoms: C_9  and  C_16
    4  A    between atoms: C_13  and  C_20
    5  A    between atoms: O_21  and  C_24
                            x       y       z     vdW  Elec       q    Type
                         _______ _______ _______ _____ _____    ______ ____

>  <TORSDO>
F 5

$$$$
=
 OpenBabel10222417083D

 25 27  0  0  1  0  0  0  0  0999 V2000
  189.8720  178.0330  143.8370 C   0  0  0  0  0  3  0  0  0  0  0  0
  191.7390  175.9630  144.2710 N   0  0  0  0  0  0  0  0  0  0  0  0
  192.0350  176.6550  146.4740 O   0  0  0  0  0  0  0  0  0  0  0  0
  191.4190  176.8030  145.3840 C   0  0  0  0  0  0  0  0  0  0  0  0
  190.3780  177.8900  145.2490 C   0  0  2  0  0  3  0  0  0  0  0  0
  190.2370  177.2160  142.8410 C   0  0  0  0  0  0  0  0  0  0  0  0
  191.2080  176.1340  143.0990 C   0  0  0  0  0  3  0  0  0  0  0  0
  186.7660  178.1380  145.9950 C   0  0  0  0  0  3  0  0  0  0  0  0
  188.4590  177.9940  148.5780 C   0  0  0  0  0  3  0  0  0  0  0  0
  186.4130  178.5280  147.2210 C   0  0  0  0  0  3  0  0  0  0  0  0
  189.2260  177.7390  146.2010 C   0  0  0  0  0  0  0  0  0  0  0  0
  187.9030  177.2110  145.7210 C   0  0  0  0  0  2  0  0  0  0  0  0
  189.4540  178.0140  147.4890 C   0  0  0  0  0  3  0  0  0  0  0  0
  187.1440  178.2130  148.4610 C   0  0  0  0  0  3  0  0  0  0  0  0
  187.8670  178.0740  140.0220 C   0  0  0  0  0  0  0  0  0  0  0  0
  190.4490  177.1580  140.3850 N   0  0  0  0  0  0  0  0  0  0  0  0
  188.3760  177.8860  141.3120 C   0  0  0  0  0  3  0  0  0  0  0  0
  189.6870  177.4230  141.4840 C   0  0  0  0  0  0  0  0  0  0  0  0
  188.6740  177.7910  138.9200 C   0  0  0  0  0  3  0  0  0  0  0  0
  189.9760  177.3270  139.1160 C   0  0  0  0  0  0  0  0  0  0  0  0
  185.6780  178.8760  140.7880 C   0  0  0  0  0  2  0  0  0  0  0  0
  186.5050  178.5760  139.7930 C   0  0  0  0  0  3  0  0  0  0  0  0
  190.7750  177.0440  138.0050 O   0  0  0  0  0  0  0  0  0  0  0  0
  192.0630  176.4490  138.1100 C   0  0  0  0  0  2  0  0  0  0  0  0
  192.0650  175.0860  137.4430 C   0  0  0  0  0  1  0  0  0  0  0  0
  1  5  1  0  0  0  0
  2  4  1  0  0  0  0
  4  3  2  0  0  0  0
  5  4  1  0  0  0  0
  5 11  1  1  0  0  0
  6  7  1  0  0  0  0
  6  1  2  0  0  0  0
  7  2  2  0  0  0  0
  8 10  2  0  0  0  0
 10 14  1  0  0  0  0
 11 13  2  0  0  0  0
 12  8  1  0  0  0  0
 12 11  1  0  0  0  0
 13  9  1  0  0  0  0
 14  9  2  0  0  0  0
 15 17  1  0  0  0  0
 16 18  1  0  0  0  0
 17 18  2  0  0  0  0
 18  6  1  0  0  0  0
 19 20  1  0  0  0  0
 19 15  2  0  0  0  0
 20 16  2  0  0  0  0
 22 15  1  0  0  0  0
 22 21  2  0  0  0  0
 23 24  1  0  0  0  0
 23 20  1  0  0  0  0
 25 24  1  0  0  0  0
M  END
>  <MODEL>
7

>  <REMARK>
 VINA RESULT:      -8.5      2.832      4.640
  Name = 
  5 active torsions:
  status: ('A' for Active; 'I' for Inactive)
    1  A    between atoms: C_1  and  O_21
    2  A    between atoms: C_4  and  C_19
    3  A    between atoms: C_9  and  C_16
    4  A    between atoms: C_13  and  C_20
    5  A    between atoms: O_21  and  C_24
                            x       y       z     vdW  Elec       q    Type
                         _______ _______ _______ _____ _____    ______ ____

>  <TORSDO>
F 5

$$$$
=
 OpenBabel10222417083D

 25 27  0  0  1  0  0  0  0  0999 V2000
  189.8300  177.9170  143.3310 C   0  0  0  0  0  3  0  0  0  0  0  0
  191.6820  176.0110  144.2770 N   0  0  0  0  0  0  0  0  0  0  0  0
  191.5150  176.8790  146.4310 O   0  0  0  0  0  0  0  0  0  0  0  0
  191.1120  176.9070  145.2370 C   0  0  0  0  0  0  0  0  0  0  0  0
  190.0630  177.9110  144.8190 C   0  0  2  0  0  3  0  0  0  0  0  0
  190.4200  177.0560  142.4920 C   0  0  0  0  0  0  0  0  0  0  0  0
  191.3770  176.0620  143.0160 C   0  0  0  0  0  3  0  0  0  0  0  0
  186.3670  178.0030  144.8600 C   0  0  0  0  0  3  0  0  0  0  0  0
  187.5460  178.1100  147.7170 C   0  0  0  0  0  3  0  0  0  0  0  0
  185.7730  178.4470  145.9690 C   0  0  0  0  0  3  0  0  0  0  0  0
  188.7590  177.7540  145.5480 C   0  0  0  0  0  0  0  0  0  0  0  0
  187.5740  177.1260  144.8680 C   0  0  0  0  0  2  0  0  0  0  0  0
  188.7270  178.1190  146.8340 C   0  0  0  0  0  3  0  0  0  0  0  0
  186.2680  178.2490  147.3430 C   0  0  0  0  0  3  0  0  0  0  0  0
  188.6470  177.7020  139.2140 C   0  0  0  0  0  0  0  0  0  0  0  0
  191.0460  176.6840  140.1360 N   0  0  0  0  0  0  0  0  0  0  0  0
  188.9110  177.6440  140.5880 C   0  0  0  0  0  3  0  0  0  0  0  0
  190.1300  177.1270  141.0440 C   0  0  0  0  0  0  0  0  0  0  0  0
  189.6070  177.2370  138.3140 C   0  0  0  0  0  3  0  0  0  0  0  0
  190.8130  176.7240  138.7920 C   0  0  0  0  0  0  0  0  0  0  0  0
  186.8120  177.7890  137.5880 C   0  0  0  0  0  2  0  0  0  0  0  0
  187.3910  178.2540  138.6900 C   0  0  0  0  0  3  0  0  0  0  0  0
  191.7660  176.2590  137.8820 O   0  0  0  0  0  0  0  0  0  0  0  0
  193.1670  176.3740  138.1010 C   0  0  0  0  0  2  0  0  0  0  0  0
  193.8470  175.0420  137.8490 C   0  0  0  0  0  1  0  0  0  0  0  0
  1  5  1  0  0  0  0
  2  4  1  0  0  0  0
  4  3  2  0  0  0  0
  5  4  1  0  0  0  0
  5 11  1  1  0  0  0
  6  7  1  0  0  0  0
  6  1  2  0  0  0  0
  7  2  2  0  0  0  0
  8 12  1  0  0  0  0
  8 10  2  0  0  0  0
 10 14  1  0  0  0  0
 11 13  2  0  0  0  0
 12 11  1  0  0  0  0
 13  9  1  0  0  0  0
 14  9  2  0  0  0  0
 15 17  1  0  0  0  0
 16 18  1  0  0  0  0
 17 18  2  0  0  0  0
 18  6  1  0  0  0  0
 19 20  1  0  0  0  0
 19 15  2  0  0  0  0
 20 16  2  0  0  0  0
 21 22  2  0  0  0  0
 22 15  1  0  0  0  0
 23 24  1  0  0  0  0
 23 20  1  0  0  0  0
 25 24  1  0  0  0  0
M  END
>  <MODEL>
8

>  <REMARK>
 VINA RESULT:      -8.4      3.341      5.230
  Name = 
  5 active torsions:
  status: ('A' for Active; 'I' for Inactive)
    1  A    between atoms: C_1  and  O_21
    2  A    between atoms: C_4  and  C_19
    3  A    between atoms: C_9  and  C_16
    4  A    between atoms: C_13  and  C_20
    5  A    between atoms: O_21  and  C_24
                            x       y       z     vdW  Elec       q    Type
                         _______ _______ _______ _____ _____    ______ ____

>  <TORSDO>
F 5

$$$$
=
 OpenBabel10222417083D

 25 27  0  0  1  0  0  0  0  0999 V2000
  189.2700  176.8920  141.5580 C   0  0  0  0  0  3  0  0  0  0  0  0
  192.0150  177.5280  141.4030 N   0  0  0  0  0  0  0  0  0  0  0  0
  192.0500  176.9430  139.1500 O   0  0  0  0  0  0  0  0  0  0  0  0
  191.3700  177.1050  140.1980 C   0  0  0  0  0  0  0  0  0  0  0  0
  189.8860  176.8120  140.1860 C   0  0  2  0  0  3  0  0  0  0  0  0
  189.9500  177.2790  142.6460 C   0  0  0  0  0  0  0  0  0  0  0  0
  191.3830  177.6150  142.5340 C   0  0  0  0  0  3  0  0  0  0  0  0
  186.6730  177.9840  138.7820 C   0  0  0  0  0  3  0  0  0  0  0  0
  189.0420  178.6060  136.8940 C   0  0  0  0  0  3  0  0  0  0  0  0
  186.6260  178.2320  137.4720 C   0  0  0  0  0  3  0  0  0  0  0  0
  189.1150  177.6660  139.2200 C   0  0  0  0  0  0  0  0  0  0  0  0
  187.8390  178.3380  139.6440 C   0  0  0  0  0  2  0  0  0  0  0  0
  189.6510  177.8610  138.0100 C   0  0  0  0  0  3  0  0  0  0  0  0
  187.7330  178.7690  136.6620 C   0  0  0  0  0  3  0  0  0  0  0  0
  187.2790  177.7440  145.2830 C   0  0  0  0  0  0  0  0  0  0  0  0
  189.9480  177.0510  145.1010 N   0  0  0  0  0  0  0  0  0  0  0  0
  187.9130  177.6890  144.0350 C   0  0  0  0  0  3  0  0  0  0  0  0
  189.2660  177.3360  143.9560 C   0  0  0  0  0  0  0  0  0  0  0  0
  188.0090  177.4470  146.4340 C   0  0  0  0  0  3  0  0  0  0  0  0
  189.3570  177.1010  146.3290 C   0  0  0  0  0  0  0  0  0  0  0  0
  185.3030  178.3990  146.5800 C   0  0  0  0  0  2  0  0  0  0  0  0
  185.8580  178.0910  145.4130 C   0  0  0  0  0  3  0  0  0  0  0  0
  190.0790  176.8080  147.4900 O   0  0  0  0  0  0  0  0  0  0  0  0
  191.4950  176.9190  147.5690 C   0  0  0  0  0  2  0  0  0  0  0  0
  192.1340  175.5490  147.4460 C   0  0  0  0  0  1  0  0  0  0  0  0
  1  6  2  0  0  0  0
  2  7  2  0  0  0  0
  3  4  2  0  0  0  0
  4  2  1  0  0  0  0
  5 11  1  6  0  0  0
  5  4  1  0  0  0  0
  5  1  1  0  0  0  0
  6 18  1  0  0  0  0
  7  6  1  0  0  0  0
  8 12  1  0  0  0  0
  9 13  1  0  0  0  0
 10  8  2  0  0  0  0
 11 12  1  0  0  0  0
 13 11  2  0  0  0  0
 14  9  2  0  0  0  0
 14 10  1  0  0  0  0
 15 22  1  0  0  0  0
 15 19  2  0  0  0  0
 16 20  2  0  0  0  0
 17 15  1  0  0  0  0
 18 17  2  0  0  0  0
 18 16  1  0  0  0  0
 20 19  1  0  0  0  0
 20 23  1  0  0  0  0
 22 21  2  0  0  0  0
 23 24  1  0  0  0  0
 25 24  1  0  0  0  0
M  END
>  <MODEL>
9

>  <REMARK>
 VINA RESULT:      -8.3      2.973      7.509
  Name = 
  5 active torsions:
  status: ('A' for Active; 'I' for Inactive)
    1  A    between atoms: C_1  and  O_21
    2  A    between atoms: C_4  and  C_19
    3  A    between atoms: C_9  and  C_16
    4  A    between atoms: C_13  and  C_20
    5  A    between atoms: O_21  and  C_24
                            x       y       z     vdW  Elec       q    Type
                         _______ _______ _______ _____ _____    ______ ____

>  <TORSDO>
F 5

$$$$
