=
 OpenBabel10222416243D

 38 40  0  0  1  0  0  0  0  0999 V2000
  184.9730  178.9350  146.3390 C   0  0  0  0  0  3  0  0  0  0  0  0
  186.1130  178.2380  146.3660 C   0  0  0  0  0  0  0  0  0  0  0  0
  183.2780  178.8360  144.3060 C   0  0  0  0  0  0  0  0  0  0  0  0
  184.0490  178.8900  145.2330 C   0  0  0  0  0  0  0  0  0  0  0  0
  182.3660  178.7540  143.2010 C   0  0  0  0  0  0  0  0  0  0  0  0
  180.8850  178.7130  143.4870 C   0  0  0  0  0  2  0  0  0  0  0  0
  182.0030  178.4570  140.7550 C   0  0  0  0  0  2  0  0  0  0  0  0
  182.8660  178.5650  141.9760 C   0  0  0  0  0  3  0  0  0  0  0  0
  180.6240  177.9080  141.1010 C   0  0  0  0  0  2  0  0  0  0  0  0
  179.9970  178.7210  142.2350 C   0  0  2  0  0  3  0  0  0  0  0  0
  179.7330  181.0580  142.6320 O   0  0  0  0  0  1  0  0  0  0  0  0
  179.6520  180.1130  141.8060 C   0  0  0  0  0  0  0  0  0  0  0  0
  179.2100  180.3700  140.5130 O   0  0  0  0  0  0  0  0  0  0  0  0
  186.9560  178.3650  147.5150 N   0  0  0  0  0  2  0  0  0  0  0  0
  187.8350  177.3040  147.9870 C   0  0  0  0  0  2  0  0  0  0  0  0
  189.5680  177.8530  147.9460 S   0  0  0  0  0  0  0  0  0  0  0  0
  189.9660  176.7730  146.5420 C   0  0  0  0  0  2  0  0  0  0  0  0
  190.6760  177.5620  145.4580 C   0  0  0  0  0  2  0  0  0  0  0  0
  191.8050  176.9400  143.4930 O   0  0  0  0  0  0  0  0  0  0  0  0
  191.5440  176.6590  144.6510 C   0  0  0  0  0  3  0  0  0  0  0  0
  186.5000  177.3320  145.2350 C   0  0  0  0  0  2  0  0  0  0  0  0
  187.2820  178.0750  144.2600 N   0  0  0  0  0  2  0  0  0  0  0  0
  186.1270  179.5220  141.7570 N   0  0  0  0  0  1  0  0  0  0  0  0
  188.6950  175.6270  143.1030 O   0  0  0  0  0  0  0  0  0  0  0  0
  187.1000  178.4930  141.8860 C   0  0  0  0  0  0  0  0  0  0  0  0
  188.0940  178.3800  141.0630 N   0  0  0  0  0  0  0  0  0  0  0  0
  188.8850  177.2960  141.4400 N   0  0  0  0  0  0  0  0  0  0  0  0
  188.2820  176.6880  142.5670 C   0  0  0  0  0  0  0  0  0  0  0  0
  187.0670  177.4470  142.9690 C   0  0  1  0  0  3  0  0  0  0  0  0
  189.9390  176.7310  140.6140 C   0  0  0  0  0  2  0  0  0  0  0  0
  191.5340  175.8250  138.0800 C   0  0  0  0  0  2  0  0  0  0  0  0
  190.3640  175.4920  137.1470 C   0  0  2  0  0  3  0  0  0  0  0  0
  191.3990  177.2530  138.6060 C   0  0  0  0  0  2  0  0  0  0  0  0
  190.0470  177.4830  139.2920 C   0  0  1  0  0  3  0  0  0  0  0  0
  188.8890  177.1260  138.3570 C   0  0  0  0  0  2  0  0  0  0  0  0
  189.0050  175.6980  137.8290 C   0  0  0  0  0  2  0  0  0  0  0  0
  190.4900  174.2270  136.5310 O   0  0  0  0  0  0  0  0  0  0  0  0
  189.3560  173.4520  136.8310 C   0  0  0  0  0  1  0  0  0  0  0  0
  1  2  2  0  0  0  0
  2 14  1  0  0  0  0
  3  4  3  0  0  0  0
  4  1  1  0  0  0  0
  5  6  1  0  0  0  0
  5  3  1  0  0  0  0
  7  9  1  0  0  0  0
  7  8  1  0  0  0  0
  8  5  2  0  0  0  0
  9 10  1  0  0  0  0
 10 12  1  6  0  0  0
 10  6  1  0  0  0  0
 12 11  1  0  0  0  0
 13 12  2  0  0  0  0
 14 15  1  0  0  0  0
 16 15  1  0  0  0  0
 17 16  1  0  0  0  0
 18 17  1  0  0  0  0
 19 20  2  0  0  0  0
 20 18  1  0  0  0  0
 21  2  1  0  0  0  0
 22 21  1  0  0  0  0
 23 25  1  0  0  0  0
 25 29  1  0  0  0  0
 26 27  1  0  0  0  0
 26 25  2  0  0  0  0
 27 28  1  0  0  0  0
 28 29  1  0  0  0  0
 28 24  2  0  0  0  0
 29 22  1  1  0  0  0
 30 27  1  0  0  0  0
 31 33  1  0  0  0  0
 32 37  1  1  0  0  0
 32 36  1  0  0  0  0
 32 31  1  0  0  0  0
 33 34  1  0  0  0  0
 34 30  1  1  0  0  0
 35 34  1  0  0  0  0
 36 35  1  0  0  0  0
 37 38  1  0  0  0  0
M  END
>  <MODEL>
1

>  <REMARK>
 VINA RESULT:      -7.3      0.000      0.000
  Name = 
  15 active torsions:
  status: ('A' for Active; 'I' for Inactive)
    1  A    between atoms: N_1  and  C_22
    2  A    between atoms: N_1  and  C_28
    3  A    between atoms: C_3  and  C_4
    4  A    between atoms: C_3  and  C_19
    5  A    between atoms: S_7  and  C_19
    6  A    between atoms: S_7  and  C_22
    7  A    between atoms: C_9  and  C_30
    8  A    between atoms: C_11  and  O_18
    9  A    between atoms: C_14  and  C_31
   10  A    between atoms: N_20  and  C_29
   11  A    between atoms: C_23  and  C_29
   12  A    between atoms: C_28  and  C_36
   13  A    between atoms: C_32  and  C_37
   14  A    between atoms: C_33  and  N_35
   15  A    between atoms: N_35  and  C_36
                            x       y       z     vdW  Elec       q    Type
                         _______ _______ _______ _____ _____    ______ ____

>  <TORSDO>
F 15

$$$$
=
 OpenBabel10222416243D

 38 40  0  0  1  0  0  0  0  0999 V2000
  183.6930  178.1300  138.1900 C   0  0  0  0  0  3  0  0  0  0  0  0
  183.3810  178.8980  139.2380 C   0  0  0  0  0  0  0  0  0  0  0  0
  186.1610  177.3390  137.6440 C   0  0  0  0  0  0  0  0  0  0  0  0
  185.0400  177.7080  137.8960 C   0  0  0  0  0  0  0  0  0  0  0  0
  187.4880  176.8860  137.3410 C   0  0  0  0  0  0  0  0  0  0  0  0
  188.6580  177.7410  137.7600 C   0  0  0  0  0  2  0  0  0  0  0  0
  188.9690  175.2510  136.1830 C   0  0  0  0  0  2  0  0  0  0  0  0
  187.6290  175.8040  136.5680 C   0  0  0  0  0  3  0  0  0  0  0  0
  190.0300  176.3450  136.1530 C   0  0  0  0  0  2  0  0  0  0  0  0
  190.0320  177.1200  137.4710 C   0  0  2  0  0  3  0  0  0  0  0  0
  190.3670  176.6940  139.7950 O   0  0  0  0  0  1  0  0  0  0  0  0
  190.5170  176.2840  138.6150 C   0  0  0  0  0  0  0  0  0  0  0  0
  191.1610  175.0730  138.3870 O   0  0  0  0  0  0  0  0  0  0  0  0
  182.0100  179.2600  139.4270 N   0  0  0  0  0  2  0  0  0  0  0  0
  181.2980  179.0820  140.6850 C   0  0  0  0  0  2  0  0  0  0  0  0
  179.7040  179.9550  140.6390 S   0  0  0  0  0  0  0  0  0  0  0  0
  179.7810  180.3680  142.4050 C   0  0  0  0  0  2  0  0  0  0  0  0
  180.6540  179.3700  143.1400 C   0  0  0  0  0  2  0  0  0  0  0  0
  179.7050  177.4810  144.1670 O   0  0  0  0  0  0  0  0  0  0  0  0
  179.8700  178.6890  144.2080 C   0  0  0  0  0  3  0  0  0  0  0  0
  184.4290  179.3610  140.2050 C   0  0  0  0  0  2  0  0  0  0  0  0
  184.6160  178.3580  141.2400 N   0  0  0  0  0  2  0  0  0  0  0  0
  184.0280  178.6900  144.2790 N   0  0  0  0  0  1  0  0  0  0  0  0
  187.6650  178.4380  141.0710 O   0  0  0  0  0  0  0  0  0  0  0  0
  185.2260  178.3770  143.5790 C   0  0  0  0  0  0  0  0  0  0  0  0
  186.1380  177.6090  144.0860 N   0  0  0  0  0  0  0  0  0  0  0  0
  187.1850  177.4740  143.1760 N   0  0  0  0  0  0  0  0  0  0  0  0
  186.8830  178.2660  142.0430 C   0  0  0  0  0  0  0  0  0  0  0  0
  185.5510  178.9060  142.2070 C   0  0  1  0  0  3  0  0  0  0  0  0
  188.4750  176.8870  143.5010 C   0  0  0  0  0  2  0  0  0  0  0  0
  190.1150  176.8960  146.1650 C   0  0  0  0  0  2  0  0  0  0  0  0
  191.5200  176.6520  145.6010 C   0  0  2  0  0  3  0  0  0  0  0  0
  189.4760  178.1060  145.4870 C   0  0  0  0  0  2  0  0  0  0  0  0
  189.4550  177.9610  143.9610 C   0  0  1  0  0  3  0  0  0  0  0  0
  190.8600  177.6980  143.4140 C   0  0  0  0  0  2  0  0  0  0  0  0
  191.5090  176.4840  144.0760 C   0  0  0  0  0  2  0  0  0  0  0  0
  192.2140  175.6190  146.2690 O   0  0  0  0  0  0  0  0  0  0  0  0
  192.1870  175.8670  147.6530 C   0  0  0  0  0  1  0  0  0  0  0  0
  1  2  2  0  0  0  0
  2 14  1  0  0  0  0
  2 21  1  0  0  0  0
  3  4  3  0  0  0  0
  4  1  1  0  0  0  0
  5  3  1  0  0  0  0
  5  6  1  0  0  0  0
  7  8  1  0  0  0  0
  8  5  2  0  0  0  0
  9  7  1  0  0  0  0
  9 10  1  0  0  0  0
 10  6  1  0  0  0  0
 10 12  1  1  0  0  0
 12 11  1  0  0  0  0
 13 12  2  0  0  0  0
 14 15  1  0  0  0  0
 16 15  1  0  0  0  0
 16 17  1  0  0  0  0
 17 18  1  0  0  0  0
 18 20  1  0  0  0  0
 19 20  2  0  0  0  0
 21 22  1  0  0  0  0
 24 28  2  0  0  0  0
 25 26  2  0  0  0  0
 25 23  1  0  0  0  0
 27 30  1  0  0  0  0
 27 26  1  0  0  0  0
 28 29  1  0  0  0  0
 28 27  1  0  0  0  0
 29 22  1  6  0  0  0
 29 25  1  0  0  0  0
 32 31  1  0  0  0  0
 32 37  1  1  0  0  0
 33 31  1  0  0  0  0
 34 30  1  1  0  0  0
 34 33  1  0  0  0  0
 35 34  1  0  0  0  0
 35 36  1  0  0  0  0
 36 32  1  0  0  0  0
 37 38  1  0  0  0  0
M  END
>  <MODEL>
2

>  <REMARK>
 VINA RESULT:      -7.2      2.995      8.515
  Name = 
  15 active torsions:
  status: ('A' for Active; 'I' for Inactive)
    1  A    between atoms: N_1  and  C_22
    2  A    between atoms: N_1  and  C_28
    3  A    between atoms: C_3  and  C_4
    4  A    between atoms: C_3  and  C_19
    5  A    between atoms: S_7  and  C_19
    6  A    between atoms: S_7  and  C_22
    7  A    between atoms: C_9  and  C_30
    8  A    between atoms: C_11  and  O_18
    9  A    between atoms: C_14  and  C_31
   10  A    between atoms: N_20  and  C_29
   11  A    between atoms: C_23  and  C_29
   12  A    between atoms: C_28  and  C_36
   13  A    between atoms: C_32  and  C_37
   14  A    between atoms: C_33  and  N_35
   15  A    between atoms: N_35  and  C_36
                            x       y       z     vdW  Elec       q    Type
                         _______ _______ _______ _____ _____    ______ ____

>  <TORSDO>
F 15

$$$$
=
 OpenBabel10222416243D

 38 40  0  0  1  0  0  0  0  0999 V2000
  183.4150  178.0810  138.4630 C   0  0  0  0  0  3  0  0  0  0  0  0
  183.2160  178.7310  139.6130 C   0  0  0  0  0  0  0  0  0  0  0  0
  185.8320  177.5020  137.5450 C   0  0  0  0  0  0  0  0  0  0  0  0
  184.7270  177.7620  137.9560 C   0  0  0  0  0  0  0  0  0  0  0  0
  187.1520  177.2020  137.0700 C   0  0  0  0  0  0  0  0  0  0  0  0
  188.2470  178.2160  137.2880 C   0  0  0  0  0  2  0  0  0  0  0  0
  188.6590  175.7070  135.7660 C   0  0  0  0  0  2  0  0  0  0  0  0
  187.3250  176.1080  136.3210 C   0  0  0  0  0  3  0  0  0  0  0  0
  189.5530  176.9220  135.5480 C   0  0  0  0  0  2  0  0  0  0  0  0
  189.6370  177.7570  136.8260 C   0  0  2  0  0  3  0  0  0  0  0  0
  189.8980  177.0090  139.0770 O   0  0  0  0  0  1  0  0  0  0  0  0
  190.3800  177.0470  137.9160 C   0  0  0  0  0  0  0  0  0  0  0  0
  191.6140  176.4580  137.6670 O   0  0  0  0  0  0  0  0  0  0  0  0
  181.8700  178.9980  140.0160 N   0  0  0  0  0  2  0  0  0  0  0  0
  180.8250  179.4200  139.0930 C   0  0  0  0  0  2  0  0  0  0  0  0
  180.3470  181.1430  139.4240 S   0  0  0  0  0  0  0  0  0  0  0  0
  181.6250  181.8010  138.3150 C   0  0  0  0  0  2  0  0  0  0  0  0
  180.9840  182.4860  137.1230 C   0  0  0  0  0  2  0  0  0  0  0  0
  181.4180  184.6270  136.2580 O   0  0  0  0  0  0  0  0  0  0  0  0
  181.1300  183.9640  137.2400 C   0  0  0  0  0  3  0  0  0  0  0  0
  184.3660  179.1600  140.4760 C   0  0  0  0  0  2  0  0  0  0  0  0
  184.5080  178.2400  141.5930 N   0  0  0  0  0  2  0  0  0  0  0  0
  183.6960  178.9010  144.5240 N   0  0  0  0  0  1  0  0  0  0  0  0
  187.5620  178.2650  141.6560 O   0  0  0  0  0  0  0  0  0  0  0  0
  184.9370  178.5020  143.9570 C   0  0  0  0  0  0  0  0  0  0  0  0
  185.7920  177.7820  144.6120 N   0  0  0  0  0  0  0  0  0  0  0  0
  186.9030  177.5380  143.8070 N   0  0  0  0  0  0  0  0  0  0  0  0
  186.7050  178.2080  142.5760 C   0  0  0  0  0  0  0  0  0  0  0  0
  185.3770  178.8770  142.5670 C   0  0  1  0  0  3  0  0  0  0  0  0
  188.1520  176.9720  144.2920 C   0  0  0  0  0  2  0  0  0  0  0  0
  189.9860  176.6090  146.8000 C   0  0  0  0  0  2  0  0  0  0  0  0
  191.3600  176.7270  146.1300 C   0  0  2  0  0  3  0  0  0  0  0  0
  189.1310  177.8310  146.4680 C   0  0  0  0  0  2  0  0  0  0  0  0
  189.0060  178.0470  144.9560 C   0  0  1  0  0  3  0  0  0  0  0  0
  190.3850  178.1420  144.2980 C   0  0  0  0  0  2  0  0  0  0  0  0
  191.2490  176.9220  144.6120 C   0  0  0  0  0  2  0  0  0  0  0  0
  192.2440  175.6860  146.4930 O   0  0  0  0  0  0  0  0  0  0  0  0
  192.5030  175.7620  147.8730 C   0  0  0  0  0  1  0  0  0  0  0  0
  1  2  2  0  0  0  0
  2 14  1  0  0  0  0
  2 21  1  0  0  0  0
  3  4  3  0  0  0  0
  4  1  1  0  0  0  0
  5  6  1  0  0  0  0
  5  3  1  0  0  0  0
  7  8  1  0  0  0  0
  8  5  2  0  0  0  0
  9  7  1  0  0  0  0
  9 10  1  0  0  0  0
 10  6  1  0  0  0  0
 10 12  1  1  0  0  0
 12 11  1  0  0  0  0
 13 12  2  0  0  0  0
 15 16  1  0  0  0  0
 15 14  1  0  0  0  0
 17 16  1  0  0  0  0
 18 20  1  0  0  0  0
 18 17  1  0  0  0  0
 19 20  2  0  0  0  0
 21 22  1  0  0  0  0
 24 28  2  0  0  0  0
 25 23  1  0  0  0  0
 25 26  2  0  0  0  0
 27 30  1  0  0  0  0
 27 26  1  0  0  0  0
 28 27  1  0  0  0  0
 29 22  1  6  0  0  0
 29 28  1  0  0  0  0
 29 25  1  0  0  0  0
 32 37  1  6  0  0  0
 32 31  1  0  0  0  0
 33 31  1  0  0  0  0
 34 30  1  6  0  0  0
 34 33  1  0  0  0  0
 35 36  1  0  0  0  0
 35 34  1  0  0  0  0
 36 32  1  0  0  0  0
 37 38  1  0  0  0  0
M  END
>  <MODEL>
3

>  <REMARK>
 VINA RESULT:      -7.1      3.557      9.034
  Name = 
  15 active torsions:
  status: ('A' for Active; 'I' for Inactive)
    1  A    between atoms: N_1  and  C_22
    2  A    between atoms: N_1  and  C_28
    3  A    between atoms: C_3  and  C_4
    4  A    between atoms: C_3  and  C_19
    5  A    between atoms: S_7  and  C_19
    6  A    between atoms: S_7  and  C_22
    7  A    between atoms: C_9  and  C_30
    8  A    between atoms: C_11  and  O_18
    9  A    between atoms: C_14  and  C_31
   10  A    between atoms: N_20  and  C_29
   11  A    between atoms: C_23  and  C_29
   12  A    between atoms: C_28  and  C_36
   13  A    between atoms: C_32  and  C_37
   14  A    between atoms: C_33  and  N_35
   15  A    between atoms: N_35  and  C_36
                            x       y       z     vdW  Elec       q    Type
                         _______ _______ _______ _____ _____    ______ ____

>  <TORSDO>
F 15

$$$$
=
 OpenBabel10222416243D

 38 40  0  0  1  0  0  0  0  0999 V2000
  186.5000  177.1720  136.6420 C   0  0  0  0  0  3  0  0  0  0  0  0
  187.7620  177.4630  136.9660 C   0  0  0  0  0  0  0  0  0  0  0  0
  184.4090  177.9270  138.0830 C   0  0  0  0  0  0  0  0  0  0  0  0
  185.3680  177.5880  137.4320 C   0  0  0  0  0  0  0  0  0  0  0  0
  183.2600  178.3220  138.8450 C   0  0  0  0  0  0  0  0  0  0  0  0
  182.7450  177.3900  139.9140 C   0  0  0  0  0  2  0  0  0  0  0  0
  181.3840  179.9240  139.1980 C   0  0  0  0  0  2  0  0  0  0  0  0
  182.6020  179.4260  138.4780 C   0  0  0  0  0  3  0  0  0  0  0  0
  180.6270  178.7780  139.8590 C   0  0  0  0  0  2  0  0  0  0  0  0
  181.5720  177.9490  140.7310 C   0  0  2  0  0  3  0  0  0  0  0  0
  183.2490  178.6440  142.2790 O   0  0  0  0  0  0  0  0  0  0  0  0
  182.0430  178.7110  141.9320 C   0  0  0  0  0  0  0  0  0  0  0  0
  181.1530  179.4650  142.6890 O   0  0  0  0  0  1  0  0  0  0  0  0
  188.8070  176.9930  136.1090 N   0  0  0  0  0  2  0  0  0  0  0  0
  188.8830  175.6280  135.6110 C   0  0  0  0  0  2  0  0  0  0  0  0
  189.2690  174.4790  136.9670 S   0  0  0  0  0  0  0  0  0  0  0  0
  191.0590  174.6410  136.7100 C   0  0  0  0  0  2  0  0  0  0  0  0
  191.6950  175.3590  137.8830 C   0  0  0  0  0  2  0  0  0  0  0  0
  193.5460  176.7940  138.0830 O   0  0  0  0  0  0  0  0  0  0  0  0
  192.6040  176.4350  137.3960 C   0  0  0  0  0  3  0  0  0  0  0  0
  188.0870  178.2730  138.1870 C   0  0  0  0  0  2  0  0  0  0  0  0
  188.0550  177.4190  139.3620 N   0  0  0  0  0  2  0  0  0  0  0  0
  186.1350  179.3040  140.9270 N   0  0  0  0  0  1  0  0  0  0  0  0
  190.3740  176.9640  141.2980 O   0  0  0  0  0  0  0  0  0  0  0  0
  187.2390  178.5150  141.3560 C   0  0  0  0  0  0  0  0  0  0  0  0
  187.2850  177.9810  142.5350 N   0  0  0  0  0  0  0  0  0  0  0  0
  188.4700  177.2610  142.6690 N   0  0  0  0  0  0  0  0  0  0  0  0
  189.2110  177.4150  141.4730 C   0  0  0  0  0  0  0  0  0  0  0  0
  188.4440  178.2350  140.4980 C   0  0  1  0  0  3  0  0  0  0  0  0
  188.9660  176.7350  143.9300 C   0  0  0  0  0  2  0  0  0  0  0  0
  189.5590  176.6830  147.0010 C   0  0  0  0  0  2  0  0  0  0  0  0
  191.0870  176.5550  146.9640 C   0  0  2  0  0  3  0  0  0  0  0  0
  189.1110  177.8930  146.1830 C   0  0  0  0  0  2  0  0  0  0  0  0
  189.6380  177.8350  144.7440 C   0  0  1  0  0  3  0  0  0  0  0  0
  191.1610  177.6860  144.7220 C   0  0  0  0  0  2  0  0  0  0  0  0
  191.6250  176.4750  145.5290 C   0  0  0  0  0  2  0  0  0  0  0  0
  191.5770  175.5260  147.7990 O   0  0  0  0  0  0  0  0  0  0  0  0
  192.8630  175.8720  148.2500 C   0  0  0  0  0  1  0  0  0  0  0  0
  1  2  2  0  0  0  0
  1  4  1  0  0  0  0
  2 21  1  0  0  0  0
  3  5  1  0  0  0  0
  4  3  3  0  0  0  0
  5  6  1  0  0  0  0
  6 10  1  0  0  0  0
  7  9  1  0  0  0  0
  8  5  2  0  0  0  0
  8  7  1  0  0  0  0
  9 10  1  0  0  0  0
 10 12  1  1  0  0  0
 12 11  2  0  0  0  0
 12 13  1  0  0  0  0
 14  2  1  0  0  0  0
 15 14  1  0  0  0  0
 15 16  1  0  0  0  0
 17 16  1  0  0  0  0
 17 18  1  0  0  0  0
 20 18  1  0  0  0  0
 20 19  2  0  0  0  0
 21 22  1  0  0  0  0
 23 25  1  0  0  0  0
 24 28  2  0  0  0  0
 25 26  2  0  0  0  0
 26 27  1  0  0  0  0
 27 30  1  0  0  0  0
 28 27  1  0  0  0  0
 29 22  1  6  0  0  0
 29 25  1  0  0  0  0
 29 28  1  0  0  0  0
 32 31  1  0  0  0  0
 32 37  1  1  0  0  0
 33 31  1  0  0  0  0
 34 30  1  1  0  0  0
 34 33  1  0  0  0  0
 35 34  1  0  0  0  0
 35 36  1  0  0  0  0
 36 32  1  0  0  0  0
 37 38  1  0  0  0  0
M  END
>  <MODEL>
4

>  <REMARK>
 VINA RESULT:      -7.1      2.973      6.983
  Name = 
  15 active torsions:
  status: ('A' for Active; 'I' for Inactive)
    1  A    between atoms: N_1  and  C_22
    2  A    between atoms: N_1  and  C_28
    3  A    between atoms: C_3  and  C_4
    4  A    between atoms: C_3  and  C_19
    5  A    between atoms: S_7  and  C_19
    6  A    between atoms: S_7  and  C_22
    7  A    between atoms: C_9  and  C_30
    8  A    between atoms: C_11  and  O_18
    9  A    between atoms: C_14  and  C_31
   10  A    between atoms: N_20  and  C_29
   11  A    between atoms: C_23  and  C_29
   12  A    between atoms: C_28  and  C_36
   13  A    between atoms: C_32  and  C_37
   14  A    between atoms: C_33  and  N_35
   15  A    between atoms: N_35  and  C_36
                            x       y       z     vdW  Elec       q    Type
                         _______ _______ _______ _____ _____    ______ ____

>  <TORSDO>
F 15

$$$$
=
 OpenBabel10222416243D

 38 40  0  0  1  0  0  0  0  0999 V2000
  185.3450  178.8600  146.2140 C   0  0  0  0  0  3  0  0  0  0  0  0
  186.4750  178.1520  146.1340 C   0  0  0  0  0  0  0  0  0  0  0  0
  183.4610  178.8050  144.3530 C   0  0  0  0  0  0  0  0  0  0  0  0
  184.3250  178.8340  145.1950 C   0  0  0  0  0  0  0  0  0  0  0  0
  182.4240  178.7600  143.3630 C   0  0  0  0  0  0  0  0  0  0  0  0
  182.7800  179.0610  141.9280 C   0  0  0  0  0  2  0  0  0  0  0  0
  180.0010  178.5520  142.8210 C   0  0  0  0  0  2  0  0  0  0  0  0
  181.1600  178.6030  143.7710 C   0  0  0  0  0  3  0  0  0  0  0  0
  180.2920  179.3430  141.5520 C   0  0  0  0  0  2  0  0  0  0  0  0
  181.6190  178.8940  140.9380 C   0  0  2  0  0  3  0  0  0  0  0  0
  180.4290  177.0020  140.1030 O   0  0  0  0  0  0  0  0  0  0  0  0
  181.5460  177.5000  140.3960 C   0  0  0  0  0  0  0  0  0  0  0  0
  182.6980  176.7360  140.2440 O   0  0  0  0  0  1  0  0  0  0  0  0
  187.4190  178.2600  147.2030 N   0  0  0  0  0  2  0  0  0  0  0  0
  188.1620  177.1270  147.7360 C   0  0  0  0  0  2  0  0  0  0  0  0
  189.9180  177.5590  147.9350 S   0  0  0  0  0  0  0  0  0  0  0  0
  190.3060  177.1330  146.2140 C   0  0  0  0  0  2  0  0  0  0  0  0
  191.6340  176.4040  146.1400 C   0  0  0  0  0  2  0  0  0  0  0  0
  192.8260  176.0150  148.1270 O   0  0  0  0  0  0  0  0  0  0  0  0
  191.8940  175.6800  147.4150 C   0  0  0  0  0  3  0  0  0  0  0  0
  186.7510  177.2540  144.9640 C   0  0  0  0  0  2  0  0  0  0  0  0
  187.6320  177.9300  144.0260 N   0  0  0  0  0  2  0  0  0  0  0  0
  186.3910  179.0630  141.4050 N   0  0  0  0  0  1  0  0  0  0  0  0
  189.4110  175.6410  143.0650 O   0  0  0  0  0  0  0  0  0  0  0  0
  187.4900  178.1870  141.6270 C   0  0  0  0  0  0  0  0  0  0  0  0
  188.5220  178.1670  140.8440 N   0  0  0  0  0  0  0  0  0  0  0  0
  189.4370  177.2260  141.3110 N   0  0  0  0  0  0  0  0  0  0  0  0
  188.8780  176.6030  142.4520 C   0  0  0  0  0  0  0  0  0  0  0  0
  187.5570  177.2080  142.7690 C   0  0  1  0  0  3  0  0  0  0  0  0
  190.5910  176.7670  140.5540 C   0  0  0  0  0  2  0  0  0  0  0  0
  191.8490  175.5670  137.9530 C   0  0  0  0  0  2  0  0  0  0  0  0
  190.5680  175.2730  137.1620 C   0  0  2  0  0  3  0  0  0  0  0  0
  191.8790  177.0320  138.3850 C   0  0  0  0  0  2  0  0  0  0  0  0
  190.6240  177.4190  139.1760 C   0  0  1  0  0  3  0  0  0  0  0  0
  189.3540  177.1020  138.3840 C   0  0  0  0  0  2  0  0  0  0  0  0
  189.3040  175.6380  137.9530 C   0  0  0  0  0  2  0  0  0  0  0  0
  190.5340  173.9650  136.6310 O   0  0  0  0  0  0  0  0  0  0  0  0
  189.2380  173.4400  136.7830 C   0  0  0  0  0  1  0  0  0  0  0  0
  2  1  2  0  0  0  0
  2 14  1  0  0  0  0
  3  4  3  0  0  0  0
  4  1  1  0  0  0  0
  5  8  2  0  0  0  0
  5  3  1  0  0  0  0
  6  5  1  0  0  0  0
  7  8  1  0  0  0  0
  9  7  1  0  0  0  0
 10 12  1  1  0  0  0
 10  9  1  0  0  0  0
 10  6  1  0  0  0  0
 11 12  2  0  0  0  0
 13 12  1  0  0  0  0
 14 15  1  0  0  0  0
 15 16  1  0  0  0  0
 17 16  1  0  0  0  0
 18 17  1  0  0  0  0
 18 20  1  0  0  0  0
 20 19  2  0  0  0  0
 21  2  1  0  0  0  0
 22 21  1  0  0  0  0
 23 25  1  0  0  0  0
 25 29  1  0  0  0  0
 26 27  1  0  0  0  0
 26 25  2  0  0  0  0
 27 28  1  0  0  0  0
 28 29  1  0  0  0  0
 28 24  2  0  0  0  0
 29 22  1  1  0  0  0
 30 27  1  0  0  0  0
 31 33  1  0  0  0  0
 32 37  1  1  0  0  0
 32 31  1  0  0  0  0
 32 36  1  0  0  0  0
 33 34  1  0  0  0  0
 34 30  1  1  0  0  0
 35 34  1  0  0  0  0
 36 35  1  0  0  0  0
 37 38  1  0  0  0  0
M  END
>  <MODEL>
5

>  <REMARK>
 VINA RESULT:      -6.9      1.446      1.847
  Name = 
  15 active torsions:
  status: ('A' for Active; 'I' for Inactive)
    1  A    between atoms: N_1  and  C_22
    2  A    between atoms: N_1  and  C_28
    3  A    between atoms: C_3  and  C_4
    4  A    between atoms: C_3  and  C_19
    5  A    between atoms: S_7  and  C_19
    6  A    between atoms: S_7  and  C_22
    7  A    between atoms: C_9  and  C_30
    8  A    between atoms: C_11  and  O_18
    9  A    between atoms: C_14  and  C_31
   10  A    between atoms: N_20  and  C_29
   11  A    between atoms: C_23  and  C_29
   12  A    between atoms: C_28  and  C_36
   13  A    between atoms: C_32  and  C_37
   14  A    between atoms: C_33  and  N_35
   15  A    between atoms: N_35  and  C_36
                            x       y       z     vdW  Elec       q    Type
                         _______ _______ _______ _____ _____    ______ ____

>  <TORSDO>
F 15

$$$$
=
 OpenBabel10222416243D

 38 40  0  0  1  0  0  0  0  0999 V2000
  184.5290  178.6610  144.2270 C   0  0  0  0  0  3  0  0  0  0  0  0
  183.7410  178.7370  143.1510 C   0  0  0  0  0  0  0  0  0  0  0  0
  187.0270  177.7850  144.1460 C   0  0  0  0  0  0  0  0  0  0  0  0
  185.8860  178.1770  144.1760 C   0  0  0  0  0  0  0  0  0  0  0  0
  188.3880  177.3310  144.1190 C   0  0  0  0  0  0  0  0  0  0  0  0
  189.4430  178.1670  144.8020 C   0  0  0  0  0  2  0  0  0  0  0  0
  190.0810  175.7200  143.2560 C   0  0  0  0  0  2  0  0  0  0  0  0
  188.6910  176.2710  143.3630 C   0  0  0  0  0  3  0  0  0  0  0  0
  191.1240  176.8080  143.4840 C   0  0  0  0  0  2  0  0  0  0  0  0
  190.8460  177.5450  144.7950 C   0  0  2  0  0  3  0  0  0  0  0  0
  192.1000  175.9470  146.0460 O   0  0  0  0  0  0  0  0  0  0  0  0
  191.0750  176.6740  145.9910 C   0  0  0  0  0  0  0  0  0  0  0  0
  190.1500  176.6330  147.0280 O   0  0  0  0  0  1  0  0  0  0  0  0
  182.4080  179.2280  143.3220 N   0  0  0  0  0  2  0  0  0  0  0  0
  181.3720  178.5040  144.0450 C   0  0  0  0  0  2  0  0  0  0  0  0
  179.7390  179.2310  143.7070 S   0  0  0  0  0  0  0  0  0  0  0  0
  180.2180  179.7430  142.0330 C   0  0  0  0  0  2  0  0  0  0  0  0
  179.0790  179.4970  141.0630 C   0  0  0  0  0  2  0  0  0  0  0  0
  179.8430  177.3000  140.7280 O   0  0  0  0  0  0  0  0  0  0  0  0
  179.3710  178.3040  140.2200 C   0  0  0  0  0  3  0  0  0  0  0  0
  184.2340  178.3360  141.7930 C   0  0  0  0  0  2  0  0  0  0  0  0
  183.1090  177.9340  140.9640 N   0  0  0  0  0  2  0  0  0  0  0  0
  182.8100  175.4830  139.0680 N   0  0  0  0  0  1  0  0  0  0  0  0
  183.5850  180.2770  139.0630 O   0  0  0  0  0  0  0  0  0  0  0  0
  182.7770  176.8820  138.8130 C   0  0  0  0  0  0  0  0  0  0  0  0
  182.0450  177.3920  137.8740 N   0  0  0  0  0  0  0  0  0  0  0  0
  182.2040  178.7770  137.8660 N   0  0  0  0  0  0  0  0  0  0  0  0
  183.1470  179.1130  138.8670 C   0  0  0  0  0  0  0  0  0  0  0  0
  183.5810  177.8890  139.5910 C   0  0  1  0  0  3  0  0  0  0  0  0
  181.7270  179.6450  136.8020 C   0  0  0  0  0  2  0  0  0  0  0  0
  181.0680  182.6300  137.4700 C   0  0  0  0  0  2  0  0  0  0  0  0
  180.2810  183.0060  136.2090 C   0  0  2  0  0  3  0  0  0  0  0  0
  180.4540  181.3950  138.1270 C   0  0  0  0  0  2  0  0  0  0  0  0
  180.3570  180.2180  137.1500 C   0  0  1  0  0  3  0  0  0  0  0  0
  179.5870  180.6130  135.8870 C   0  0  0  0  0  2  0  0  0  0  0  0
  180.1940  181.8420  135.2130 C   0  0  0  0  0  2  0  0  0  0  0  0
  180.7240  184.2100  135.6180 O   0  0  0  0  0  0  0  0  0  0  0  0
  180.6730  185.2390  136.5760 C   0  0  0  0  0  1  0  0  0  0  0  0
  2 14  1  0  0  0  0
  2  1  2  0  0  0  0
  3  4  3  0  0  0  0
  4  1  1  0  0  0  0
  5  3  1  0  0  0  0
  5  6  1  0  0  0  0
  7  8  1  0  0  0  0
  7  9  1  0  0  0  0
  8  5  2  0  0  0  0
  9 10  1  0  0  0  0
 10  6  1  0  0  0  0
 10 12  1  1  0  0  0
 12 11  2  0  0  0  0
 12 13  1  0  0  0  0
 14 15  1  0  0  0  0
 16 15  1  0  0  0  0
 17 16  1  0  0  0  0
 18 17  1  0  0  0  0
 20 19  2  0  0  0  0
 20 18  1  0  0  0  0
 21  2  1  0  0  0  0
 22 21  1  0  0  0  0
 25 23  1  0  0  0  0
 25 29  1  0  0  0  0
 26 25  2  0  0  0  0
 27 26  1  0  0  0  0
 27 28  1  0  0  0  0
 28 24  2  0  0  0  0
 28 29  1  0  0  0  0
 29 22  1  1  0  0  0
 30 27  1  0  0  0  0
 31 33  1  0  0  0  0
 32 37  1  6  0  0  0
 32 31  1  0  0  0  0
 34 30  1  6  0  0  0
 34 33  1  0  0  0  0
 35 34  1  0  0  0  0
 36 35  1  0  0  0  0
 36 32  1  0  0  0  0
 37 38  1  0  0  0  0
M  END
>  <MODEL>
6

>  <REMARK>
 VINA RESULT:      -6.9      4.197      9.599
  Name = 
  15 active torsions:
  status: ('A' for Active; 'I' for Inactive)
    1  A    between atoms: N_1  and  C_22
    2  A    between atoms: N_1  and  C_28
    3  A    between atoms: C_3  and  C_4
    4  A    between atoms: C_3  and  C_19
    5  A    between atoms: S_7  and  C_19
    6  A    between atoms: S_7  and  C_22
    7  A    between atoms: C_9  and  C_30
    8  A    between atoms: C_11  and  O_18
    9  A    between atoms: C_14  and  C_31
   10  A    between atoms: N_20  and  C_29
   11  A    between atoms: C_23  and  C_29
   12  A    between atoms: C_28  and  C_36
   13  A    between atoms: C_32  and  C_37
   14  A    between atoms: C_33  and  N_35
   15  A    between atoms: N_35  and  C_36
                            x       y       z     vdW  Elec       q    Type
                         _______ _______ _______ _____ _____    ______ ____

>  <TORSDO>
F 15

$$$$
=
 OpenBabel10222416243D

 38 40  0  0  1  0  0  0  0  0999 V2000
  183.3870  178.2050  138.6790 C   0  0  0  0  0  3  0  0  0  0  0  0
  183.2930  178.7570  139.8920 C   0  0  0  0  0  0  0  0  0  0  0  0
  185.6920  177.5740  137.5360 C   0  0  0  0  0  0  0  0  0  0  0  0
  184.6470  177.8650  138.0640 C   0  0  0  0  0  0  0  0  0  0  0  0
  186.9260  177.2190  136.8960 C   0  0  0  0  0  0  0  0  0  0  0  0
  188.0450  178.2310  136.8700 C   0  0  0  0  0  2  0  0  0  0  0  0
  188.2200  175.6070  135.5050 C   0  0  0  0  0  2  0  0  0  0  0  0
  186.9840  176.0680  136.2180 C   0  0  0  0  0  3  0  0  0  0  0  0
  189.0750  176.7880  135.0630 C   0  0  0  0  0  2  0  0  0  0  0  0
  189.3500  177.7180  136.2460 C   0  0  2  0  0  3  0  0  0  0  0  0
  190.0880  177.3520  138.4850 O   0  0  0  0  0  1  0  0  0  0  0  0
  190.2430  177.0840  137.2660 C   0  0  0  0  0  0  0  0  0  0  0  0
  191.2670  176.2260  136.8790 O   0  0  0  0  0  0  0  0  0  0  0  0
  181.9890  179.0570  140.3990 N   0  0  0  0  0  2  0  0  0  0  0  0
  180.7580  178.7230  139.6980 C   0  0  0  0  0  2  0  0  0  0  0  0
  179.7690  177.5530  140.6780 S   0  0  0  0  0  0  0  0  0  0  0  0
  179.9530  176.2320  139.4480 C   0  0  0  0  0  2  0  0  0  0  0  0
  180.4590  174.9650  140.1100 C   0  0  0  0  0  2  0  0  0  0  0  0
  178.9310  174.4920  141.8320 O   0  0  0  0  0  0  0  0  0  0  0  0
  179.3240  174.2110  140.7120 C   0  0  0  0  0  3  0  0  0  0  0  0
  184.5130  179.0450  140.7150 C   0  0  0  0  0  2  0  0  0  0  0  0
  184.4580  178.2850  141.9530 N   0  0  0  0  0  2  0  0  0  0  0  0
  183.7140  179.0440  144.8790 N   0  0  0  0  0  1  0  0  0  0  0  0
  187.5120  178.2440  141.9610 O   0  0  0  0  0  0  0  0  0  0  0  0
  184.9370  178.6020  144.3010 C   0  0  0  0  0  0  0  0  0  0  0  0
  185.7870  177.8810  144.9600 N   0  0  0  0  0  0  0  0  0  0  0  0
  186.8770  177.5900  144.1420 N   0  0  0  0  0  0  0  0  0  0  0  0
  186.6710  178.2300  142.8970 C   0  0  0  0  0  0  0  0  0  0  0  0
  185.3580  178.9290  142.8930 C   0  0  1  0  0  3  0  0  0  0  0  0
  188.1220  177.0100  144.6200 C   0  0  0  0  0  2  0  0  0  0  0  0
  190.1180  176.6500  147.0020 C   0  0  0  0  0  2  0  0  0  0  0  0
  191.4450  176.7660  146.2420 C   0  0  2  0  0  3  0  0  0  0  0  0
  189.2430  177.8710  146.7260 C   0  0  0  0  0  2  0  0  0  0  0  0
  189.0180  178.0850  145.2250 C   0  0  1  0  0  3  0  0  0  0  0  0
  190.3510  178.1790  144.4770 C   0  0  0  0  0  2  0  0  0  0  0  0
  191.2340  176.9600  144.7350 C   0  0  0  0  0  2  0  0  0  0  0  0
  192.3510  175.7260  146.5480 O   0  0  0  0  0  0  0  0  0  0  0  0
  192.5170  175.6540  147.9420 C   0  0  0  0  0  1  0  0  0  0  0  0
  1  2  2  0  0  0  0
  2 14  1  0  0  0  0
  2 21  1  0  0  0  0
  3  4  3  0  0  0  0
  4  1  1  0  0  0  0
  5  3  1  0  0  0  0
  6  5  1  0  0  0  0
  7  8  1  0  0  0  0
  8  5  2  0  0  0  0
  9  7  1  0  0  0  0
  9 10  1  0  0  0  0
 10  6  1  0  0  0  0
 10 12  1  1  0  0  0
 12 11  1  0  0  0  0
 13 12  2  0  0  0  0
 15 14  1  0  0  0  0
 15 16  1  0  0  0  0
 17 18  1  0  0  0  0
 17 16  1  0  0  0  0
 18 20  1  0  0  0  0
 20 19  2  0  0  0  0
 21 22  1  0  0  0  0
 24 28  2  0  0  0  0
 25 23  1  0  0  0  0
 25 26  2  0  0  0  0
 27 30  1  0  0  0  0
 27 26  1  0  0  0  0
 28 27  1  0  0  0  0
 29 22  1  6  0  0  0
 29 28  1  0  0  0  0
 29 25  1  0  0  0  0
 32 37  1  6  0  0  0
 32 31  1  0  0  0  0
 33 31  1  0  0  0  0
 34 30  1  6  0  0  0
 34 33  1  0  0  0  0
 35 36  1  0  0  0  0
 35 34  1  0  0  0  0
 36 32  1  0  0  0  0
 37 38  1  0  0  0  0
M  END
>  <MODEL>
7

>  <REMARK>
 VINA RESULT:      -6.8      3.273      8.782
  Name = 
  15 active torsions:
  status: ('A' for Active; 'I' for Inactive)
    1  A    between atoms: N_1  and  C_22
    2  A    between atoms: N_1  and  C_28
    3  A    between atoms: C_3  and  C_4
    4  A    between atoms: C_3  and  C_19
    5  A    between atoms: S_7  and  C_19
    6  A    between atoms: S_7  and  C_22
    7  A    between atoms: C_9  and  C_30
    8  A    between atoms: C_11  and  O_18
    9  A    between atoms: C_14  and  C_31
   10  A    between atoms: N_20  and  C_29
   11  A    between atoms: C_23  and  C_29
   12  A    between atoms: C_28  and  C_36
   13  A    between atoms: C_32  and  C_37
   14  A    between atoms: C_33  and  N_35
   15  A    between atoms: N_35  and  C_36
                            x       y       z     vdW  Elec       q    Type
                         _______ _______ _______ _____ _____    ______ ____

>  <TORSDO>
F 15

$$$$
=
 OpenBabel10222416243D

 38 40  0  0  1  0  0  0  0  0999 V2000
  185.2650  178.1710  144.7070 C   0  0  0  0  0  3  0  0  0  0  0  0
  186.5220  177.7280  144.8040 C   0  0  0  0  0  0  0  0  0  0  0  0
  184.0700  178.6330  142.3880 C   0  0  0  0  0  0  0  0  0  0  0  0
  184.6170  178.4310  143.4450 C   0  0  0  0  0  0  0  0  0  0  0  0
  183.4180  178.8550  141.1290 C   0  0  0  0  0  0  0  0  0  0  0  0
  181.9770  178.4350  140.9770 C   0  0  0  0  0  2  0  0  0  0  0  0
  183.5760  179.5400  138.7390 C   0  0  0  0  0  2  0  0  0  0  0  0
  184.1540  179.2840  140.0990 C   0  0  0  0  0  3  0  0  0  0  0  0
  182.3570  178.6600  138.4840 C   0  0  0  0  0  2  0  0  0  0  0  0
  181.3500  178.8030  139.6250 C   0  0  2  0  0  3  0  0  0  0  0  0
  180.4320  180.6920  140.7580 O   0  0  0  0  0  1  0  0  0  0  0  0
  180.7210  180.1620  139.6550 C   0  0  0  0  0  0  0  0  0  0  0  0
  180.4210  180.8320  138.4740 O   0  0  0  0  0  0  0  0  0  0  0  0
  187.0630  177.5090  146.1100 N   0  0  0  0  0  2  0  0  0  0  0  0
  187.0060  178.4970  147.1780 C   0  0  0  0  0  2  0  0  0  0  0  0
  188.2370  178.1120  148.4610 S   0  0  0  0  0  0  0  0  0  0  0  0
  188.9670  176.7710  147.4800 C   0  0  0  0  0  2  0  0  0  0  0  0
  190.3790  177.1330  147.0640 C   0  0  0  0  0  2  0  0  0  0  0  0
  192.4650  176.0530  146.9710 O   0  0  0  0  0  0  0  0  0  0  0  0
  191.3040  175.9980  147.3410 C   0  0  0  0  0  3  0  0  0  0  0  0
  187.3480  177.4500  143.5820 C   0  0  0  0  0  2  0  0  0  0  0  0
  188.7590  177.5610  143.9120 N   0  0  0  0  0  2  0  0  0  0  0  0
  191.7510  177.1420  143.1610 N   0  0  0  0  0  1  0  0  0  0  0  0
  187.4910  178.5790  141.3270 O   0  0  0  0  0  0  0  0  0  0  0  0
  190.5950  177.3360  142.3560 C   0  0  0  0  0  0  0  0  0  0  0  0
  190.4760  176.7970  141.1840 N   0  0  0  0  0  0  0  0  0  0  0  0
  189.2430  177.1490  140.6370 N   0  0  0  0  0  0  0  0  0  0  0  0
  188.5890  178.0070  141.5540 C   0  0  0  0  0  0  0  0  0  0  0  0
  189.4190  178.1780  142.7750 C   0  0  1  0  0  3  0  0  0  0  0  0
  188.8740  176.9250  139.2490 C   0  0  0  0  0  2  0  0  0  0  0  0
  189.1640  176.5570  136.1560 C   0  0  0  0  0  2  0  0  0  0  0  0
  188.4650  177.8370  135.6800 C   0  0  2  0  0  3  0  0  0  0  0  0
  190.2820  176.9010  137.1390 C   0  0  0  0  0  2  0  0  0  0  0  0
  189.7680  177.7360  138.3170 C   0  0  1  0  0  3  0  0  0  0  0  0
  189.0560  178.9990  137.8280 C   0  0  0  0  0  2  0  0  0  0  0  0
  187.9290  178.6720  136.8500 C   0  0  0  0  0  2  0  0  0  0  0  0
  187.4990  177.6000  134.6770 O   0  0  0  0  0  0  0  0  0  0  0  0
  186.6510  176.5580  135.0910 C   0  0  0  0  0  1  0  0  0  0  0  0
  1  2  2  0  0  0  0
  2 14  1  0  0  0  0
  3  4  3  0  0  0  0
  4  1  1  0  0  0  0
  5  3  1  0  0  0  0
  6  5  1  0  0  0  0
  7  8  1  0  0  0  0
  8  5  2  0  0  0  0
  9  7  1  0  0  0  0
  9 10  1  0  0  0  0
 10 12  1  1  0  0  0
 10  6  1  0  0  0  0
 12 11  1  0  0  0  0
 13 12  2  0  0  0  0
 14 15  1  0  0  0  0
 15 16  1  0  0  0  0
 17 16  1  0  0  0  0
 18 20  1  0  0  0  0
 18 17  1  0  0  0  0
 19 20  2  0  0  0  0
 21 22  1  0  0  0  0
 21  2  1  0  0  0  0
 24 28  2  0  0  0  0
 25 29  1  0  0  0  0
 25 23  1  0  0  0  0
 26 25  2  0  0  0  0
 27 26  1  0  0  0  0
 27 28  1  0  0  0  0
 28 29  1  0  0  0  0
 29 22  1  1  0  0  0
 30 27  1  0  0  0  0
 31 33  1  0  0  0  0
 32 37  1  6  0  0  0
 32 31  1  0  0  0  0
 32 36  1  0  0  0  0
 33 34  1  0  0  0  0
 34 30  1  6  0  0  0
 35 34  1  0  0  0  0
 36 35  1  0  0  0  0
 37 38  1  0  0  0  0
M  END
>  <MODEL>
8

>  <REMARK>
 VINA RESULT:      -6.8      2.118      2.746
  Name = 
  15 active torsions:
  status: ('A' for Active; 'I' for Inactive)
    1  A    between atoms: N_1  and  C_22
    2  A    between atoms: N_1  and  C_28
    3  A    between atoms: C_3  and  C_4
    4  A    between atoms: C_3  and  C_19
    5  A    between atoms: S_7  and  C_19
    6  A    between atoms: S_7  and  C_22
    7  A    between atoms: C_9  and  C_30
    8  A    between atoms: C_11  and  O_18
    9  A    between atoms: C_14  and  C_31
   10  A    between atoms: N_20  and  C_29
   11  A    between atoms: C_23  and  C_29
   12  A    between atoms: C_28  and  C_36
   13  A    between atoms: C_32  and  C_37
   14  A    between atoms: C_33  and  N_35
   15  A    between atoms: N_35  and  C_36
                            x       y       z     vdW  Elec       q    Type
                         _______ _______ _______ _____ _____    ______ ____

>  <TORSDO>
F 15

$$$$
=
 OpenBabel10222416243D

 38 40  0  0  1  0  0  0  0  0999 V2000
  185.7870  178.2630  144.8380 C   0  0  0  0  0  3  0  0  0  0  0  0
  186.9740  177.6920  144.6180 C   0  0  0  0  0  0  0  0  0  0  0  0
  183.9120  178.4820  142.9800 C   0  0  0  0  0  0  0  0  0  0  0  0
  184.7660  178.3730  143.8250 C   0  0  0  0  0  0  0  0  0  0  0  0
  182.8940  178.6280  141.9790 C   0  0  0  0  0  0  0  0  0  0  0  0
  183.2870  178.5200  140.5260 C   0  0  0  0  0  2  0  0  0  0  0  0
  180.5370  179.1960  141.4020 C   0  0  0  0  0  2  0  0  0  0  0  0
  181.6710  179.0050  142.3660 C   0  0  0  0  0  3  0  0  0  0  0  0
  181.0480  179.5900  140.0210 C   0  0  0  0  0  2  0  0  0  0  0  0
  182.1100  178.5980  139.5440 C   0  0  2  0  0  3  0  0  0  0  0  0
  180.4880  177.1470  138.5650 O   0  0  0  0  0  0  0  0  0  0  0  0
  181.5310  177.2460  139.2600 C   0  0  0  0  0  0  0  0  0  0  0  0
  182.1160  176.0990  139.7860 O   0  0  0  0  0  1  0  0  0  0  0  0
  187.9130  177.6450  145.6970 N   0  0  0  0  0  2  0  0  0  0  0  0
  187.5460  177.8540  147.0900 C   0  0  0  0  0  2  0  0  0  0  0  0
  189.0350  177.9360  148.1310 S   0  0  0  0  0  0  0  0  0  0  0  0
  189.7740  176.4810  147.3380 C   0  0  0  0  0  2  0  0  0  0  0  0
  191.2770  176.6490  147.2290 C   0  0  0  0  0  2  0  0  0  0  0  0
  191.6830  177.8390  145.2430 O   0  0  0  0  0  0  0  0  0  0  0  0
  191.6810  176.7530  145.7980 C   0  0  0  0  0  3  0  0  0  0  0  0
  187.3200  177.1000  143.2840 C   0  0  0  0  0  2  0  0  0  0  0  0
  188.7610  176.9330  143.1820 N   0  0  0  0  0  2  0  0  0  0  0  0
  191.6750  177.1250  142.1060 N   0  0  0  0  0  1  0  0  0  0  0  0
  187.1660  178.7430  141.3080 O   0  0  0  0  0  0  0  0  0  0  0  0
  190.4300  177.5030  141.5300 C   0  0  0  0  0  0  0  0  0  0  0  0
  190.2190  177.4490  140.2530 N   0  0  0  0  0  0  0  0  0  0  0  0
  188.9170  177.8650  139.9830 N   0  0  0  0  0  0  0  0  0  0  0  0
  188.3150  178.2360  141.2090 C   0  0  0  0  0  0  0  0  0  0  0  0
  189.2580  178.0010  142.3340 C   0  0  1  0  0  3  0  0  0  0  0  0
  188.4160  178.1590  138.6500 C   0  0  0  0  0  2  0  0  0  0  0  0
  187.0960  175.8400  137.0170 C   0  0  0  0  0  2  0  0  0  0  0  0
  187.0730  176.4880  135.6270 C   0  0  2  0  0  3  0  0  0  0  0  0
  188.5140  175.8590  137.5850 C   0  0  0  0  0  2  0  0  0  0  0  0
  189.0990  177.2760  137.6120 C   0  0  1  0  0  3  0  0  0  0  0  0
  189.0500  177.9170  136.2230 C   0  0  0  0  0  2  0  0  0  0  0  0
  187.6370  177.9140  135.6450 C   0  0  0  0  0  2  0  0  0  0  0  0
  185.8130  176.3960  134.9950 O   0  0  0  0  0  0  0  0  0  0  0  0
  184.8430  177.0080  135.8080 C   0  0  0  0  0  1  0  0  0  0  0  0
  2  1  2  0  0  0  0
  2 14  1  0  0  0  0
  3  4  3  0  0  0  0
  4  1  1  0  0  0  0
  5  8  2  0  0  0  0
  5  3  1  0  0  0  0
  6  5  1  0  0  0  0
  7  8  1  0  0  0  0
  9  7  1  0  0  0  0
 10 12  1  1  0  0  0
 10  9  1  0  0  0  0
 10  6  1  0  0  0  0
 11 12  2  0  0  0  0
 12 13  1  0  0  0  0
 14 15  1  0  0  0  0
 15 16  1  0  0  0  0
 17 16  1  0  0  0  0
 18 17  1  0  0  0  0
 19 20  2  0  0  0  0
 20 18  1  0  0  0  0
 21  2  1  0  0  0  0
 22 21  1  0  0  0  0
 25 23  1  0  0  0  0
 25 29  1  0  0  0  0
 26 25  2  0  0  0  0
 27 26  1  0  0  0  0
 27 28  1  0  0  0  0
 28 24  2  0  0  0  0
 28 29  1  0  0  0  0
 29 22  1  1  0  0  0
 30 27  1  0  0  0  0
 31 33  1  0  0  0  0
 32 37  1  1  0  0  0
 32 36  1  0  0  0  0
 32 31  1  0  0  0  0
 33 34  1  0  0  0  0
 34 30  1  1  0  0  0
 35 34  1  0  0  0  0
 36 35  1  0  0  0  0
 37 38  1  0  0  0  0
M  END
>  <MODEL>
9

>  <REMARK>
 VINA RESULT:      -6.8      2.270      3.136
  Name = 
  15 active torsions:
  status: ('A' for Active; 'I' for Inactive)
    1  A    between atoms: N_1  and  C_22
    2  A    between atoms: N_1  and  C_28
    3  A    between atoms: C_3  and  C_4
    4  A    between atoms: C_3  and  C_19
    5  A    between atoms: S_7  and  C_19
    6  A    between atoms: S_7  and  C_22
    7  A    between atoms: C_9  and  C_30
    8  A    between atoms: C_11  and  O_18
    9  A    between atoms: C_14  and  C_31
   10  A    between atoms: N_20  and  C_29
   11  A    between atoms: C_23  and  C_29
   12  A    between atoms: C_28  and  C_36
   13  A    between atoms: C_32  and  C_37
   14  A    between atoms: C_33  and  N_35
   15  A    between atoms: N_35  and  C_36
                            x       y       z     vdW  Elec       q    Type
                         _______ _______ _______ _____ _____    ______ ____

>  <TORSDO>
F 15

$$$$
