=
 OpenBabel10222420043D

 59 66  0  0  1  0  0  0  0  0999 V2000
  187.7300  175.5140  135.9430 C   0  0  0  0  0  2  0  0  0  0  0  0
  187.9070  177.8150  139.5600 C   0  0  0  0  0  3  0  0  0  0  0  0
  187.9100  177.3820  138.3030 C   0  0  0  0  0  0  0  0  0  0  0  0
  186.5920  176.3700  136.3700 C   0  0  0  0  0  0  0  0  0  0  0  0
  190.1010  177.4350  138.9420 C   0  0  0  0  0  3  0  0  0  0  0  0
  189.3110  177.1280  137.9230 C   0  0  0  0  0  0  0  0  0  0  0  0
  189.2920  177.8990  140.1000 C   0  0  0  0  0  2  0  0  0  0  0  0
  189.8810  176.5740  136.6400 C   0  0  2  0  0  3  0  0  0  0  0  0
  184.2780  176.9860  135.9630 C   0  0  0  0  0  0  0  0  0  0  0  0
  185.4950  177.9990  137.8140 C   0  0  0  0  0  0  0  0  0  0  0  0
  184.3220  177.8430  137.0610 C   0  0  0  0  0  3  0  0  0  0  0  0
  186.6610  177.2500  137.4790 C   0  0  0  0  0  0  0  0  0  0  0  0
  185.4150  176.2560  135.6250 C   0  0  0  0  0  3  0  0  0  0  0  0
  188.8850  176.3900  135.5050 C   0  0  0  0  0  2  0  0  0  0  0  0
  191.8400  175.0760  136.0890 N   0  0  0  0  0  2  0  0  0  0  0  0
  190.3470  174.5190  137.7860 O   0  0  0  0  0  0  0  0  0  0  0  0
  190.6830  175.3290  136.8810 C   0  0  0  0  0  0  0  0  0  0  0  0
  192.7580  174.0820  136.4590 N   0  0  0  0  0  2  0  0  0  0  0  0
  197.3300  175.0320  136.7080 C   0  0  0  0  0  2  0  0  0  0  0  0
  195.5500  174.5940  138.9580 C   0  0  0  0  0  2  0  0  0  0  0  0
  195.9530  173.0760  135.9740 O   0  0  0  0  0  0  0  0  0  0  0  0
  197.0050  174.1300  139.1040 C   0  0  0  0  0  2  0  0  0  0  0  0
  197.8220  174.0860  137.8050 C   0  0  0  0  0  2  0  0  0  0  0  0
  195.3580  172.6720  137.2080 C   0  0  0  0  0  2  0  0  0  0  0  0
  194.8300  175.2750  136.0000 C   0  0  2  0  0  3  0  0  0  0  0  0
  193.9000  174.7330  137.0900 C   0  0  2  0  0  3  0  0  0  0  0  0
  194.6440  173.7740  138.0230 C   0  0  2  0  0  3  0  0  0  0  0  0
  196.1470  174.4800  135.8780 C   0  0  1  0  0  3  0  0  0  0  0  0
  195.2910  177.2710  134.6120 S   0  0  0  0  0  1  0  0  0  0  0  0
  195.0670  176.6370  136.1940 O   0  0  0  0  0  0  0  0  0  0  0  0
  183.0470  176.8500  135.1680 C   0  0  0  0  0  0  0  0  0  0  0  0
  182.4300  177.8780  134.7780 O   0  0  0  0  0  0  0  0  0  0  0  0
  182.5620  175.5750  134.8610 O   0  0  0  0  0  0  0  0  0  0  0  0
  182.1370  174.6550  135.8650 C   0  0  2  0  0  3  0  0  0  0  0  0
  182.8500  172.7890  137.3030 O   0  0  0  0  0  0  0  0  0  0  0  0
  183.9630  173.6420  137.4620 C   0  0  1  0  0  0  0  0  0  0  0  0
  183.6960  174.6550  138.3660 F   0  0  0  0  0  0  0  0  0  0  0  0
  185.2470  172.8480  137.6240 C   0  0  0  0  0  1  0  0  0  0  0  0
  183.1960  173.5830  136.1890 C   0  0  2  0  0  0  0  0  0  0  0  0
  183.0670  171.5180  134.9790 O   0  0  0  0  0  1  0  0  0  0  0  0
  183.7460  172.7360  135.0480 C   0  0  0  0  0  2  0  0  0  0  0  0
  179.7630  174.5570  136.2300 O   0  0  0  0  0  1  0  0  0  0  0  0
  180.8080  174.0220  135.4700 C   0  0  0  0  0  2  0  0  0  0  0  0
  185.5210  178.9080  138.8810 O   0  0  0  0  0  0  0  0  0  0  0  0
  184.3860  179.2530  139.6700 C   0  0  0  0  0  2  0  0  0  0  0  0
  184.0260  178.1300  140.6350 C   0  0  0  0  0  2  0  0  0  0  0  0
  183.8300  178.6350  141.9250 O   0  0  0  0  0  0  0  0  0  0  0  0
  186.0600  177.9080  142.4890 C   0  0  0  0  0  2  0  0  0  0  0  0
  187.0800  177.1550  145.8190 O   0  0  0  0  0  0  0  0  0  0  0  0
  185.5600  178.3470  144.6060 C   0  0  2  0  0  3  0  0  0  0  0  0
  185.0770  179.0970  142.3600 C   0  0  2  0  0  3  0  0  0  0  0  0
  187.3220  176.9440  144.4240 C   0  0  1  0  0  3  0  0  0  0  0  0
  185.5510  178.4960  147.1050 C   0  0  0  0  0  2  0  0  0  0  0  0
  186.0580  178.0780  145.9550 C   0  0  0  0  0  0  0  0  0  0  0  0
  186.7000  178.0980  143.7710 N   0  0  1  0  0  0  0  0  0  0  0  0
  184.8730  179.8850  144.0230 S   0  0  0  0  0  0  0  0  0  0  0  0
  188.8280  176.9480  144.1800 C   0  0  0  0  0  2  0  0  0  0  0  0
  189.3850  178.3630  144.1180 C   0  0  0  0  0  2  0  0  0  0  0  0
  190.8910  178.3490  144.3080 C   0  0  0  0  0  1  0  0  0  0  0  0
  1  4  1  0  0  0  0
  2  7  1  0  0  0  0
  3  2  2  0  0  0  0
  4 12  1  0  0  0  0
  5  7  1  0  0  0  0
  6  3  1  0  0  0  0
  6  5  2  0  0  0  0
  8 17  1  1  0  0  0
  8  6  1  0  0  0  0
  9 11  2  0  0  0  0
 10 44  1  0  0  0  0
 11 10  1  0  0  0  0
 12 10  2  0  0  0  0
 12  3  1  0  0  0  0
 13  9  1  0  0  0  0
 13  4  2  0  0  0  0
 14  1  1  0  0  0  0
 14  8  1  0  0  0  0
 15 18  1  0  0  0  0
 15 17  1  0  0  0  0
 17 16  2  0  0  0  0
 19 23  1  0  0  0  0
 20 22  1  0  0  0  0
 21 24  1  0  0  0  0
 23 22  1  0  0  0  0
 25 30  1  1  0  0  0
 25 26  1  0  0  0  0
 26 18  1  6  0  0  0
 26 27  1  0  0  0  0
 27 24  1  6  0  0  0
 27 20  1  0  0  0  0
 28 21  1  0  0  0  0
 28 25  1  0  0  0  0
 28 19  1  1  0  0  0
 29 30  1  0  0  0  0
 31  9  1  0  0  0  0
 32 31  2  0  0  0  0
 33 31  1  0  0  0  0
 33 34  1  0  0  0  0
 34 43  1  6  0  0  0
 34 39  1  0  0  0  0
 35 36  1  0  0  0  0
 36 38  1  1  0  0  0
 36 37  1  0  0  0  0
 39 41  1  6  0  0  0
 39 35  1  0  0  0  0
 39 36  1  0  0  0  0
 40 41  1  0  0  0  0
 43 42  1  0  0  0  0
 44 45  1  0  0  0  0
 45 46  1  0  0  0  0
 46 47  1  0  0  0  0
 49 54  1  0  0  0  0
 50 56  1  1  0  0  0
 50 54  1  0  0  0  0
 51 47  1  1  0  0  0
 51 48  1  0  0  0  0
 51 56  1  0  0  0  0
 52 57  1  1  0  0  0
 52 49  1  0  0  0  0
 54 53  2  0  0  0  0
 55 48  1  6  0  0  0
 55 52  1  0  0  0  0
 55 50  1  0  0  0  0
 58 57  1  0  0  0  0
 58 59  1  0  0  0  0
M  END
>  <MODEL>
1

>  <REMARK>
 VINA RESULT:      -7.5      0.000      0.000
  Name = 
  17 active torsions:
  status: ('A' for Active; 'I' for Inactive)
    1  A    between atoms: C_4  and  C_19
    2  A    between atoms: C_4  and  O_20
    3  A    between atoms: C_4  and  C_54
    4  A    between atoms: C_6  and  C_28
    5  A    between atoms: C_6  and  C_30
    6  A    between atoms: N_7  and  N_59
    7  A    between atoms: C_10  and  O_20
    8  A    between atoms: C_10  and  C_36
    9  A    between atoms: C_14  and  C_54
   10  A    between atoms: C_27  and  O_58
   11  A    between atoms: C_32  and  O_38
   12  A    between atoms: C_35  and  C_45
   13  A    between atoms: C_39  and  O_46
   14  A    between atoms: C_40  and  N_59
   15  A    between atoms: O_46  and  C_56
   16  A    between atoms: C_52  and  C_56
   17  A    between atoms: C_52  and  O_58
                            x       y       z     vdW  Elec       q    Type
                         _______ _______ _______ _____ _____    ______ ____

>  <TORSDO>
F 17

$$$$
=
 OpenBabel10222420043D

 59 66  0  0  1  0  0  0  0  0999 V2000
  191.1580  176.0980  138.6470 C   0  0  0  0  0  2  0  0  0  0  0  0
  187.8470  178.3090  137.0500 C   0  0  0  0  0  3  0  0  0  0  0  0
  188.6480  177.4130  137.6160 C   0  0  2  0  0  3  0  0  0  0  0  0
  190.2260  176.8420  139.5350 C   0  0  0  0  0  0  0  0  0  0  0  0
  188.3730  176.7170  135.4590 C   0  0  0  0  0  3  0  0  0  0  0  0
  188.9900  176.4100  136.5910 C   0  0  0  0  0  0  0  0  0  0  0  0
  187.5820  177.9650  135.6260 C   0  0  0  0  0  3  0  0  0  0  0  0
  189.9080  175.2150  136.6740 C   0  0  2  0  0  3  0  0  0  0  0  0
  189.7950  177.6210  141.7950 C   0  0  0  0  0  0  0  0  0  0  0  0
  188.2440  178.1800  140.0030 C   0  0  0  0  0  0  0  0  0  0  0  0
  188.6400  178.2570  141.3470 C   0  0  0  0  0  3  0  0  0  0  0  0
  189.0450  177.4680  139.0640 C   0  0  0  0  0  0  0  0  0  0  0  0
  190.5800  176.9160  140.8850 C   0  0  0  0  0  3  0  0  0  0  0  0
  190.4480  174.8970  138.0610 C   0  0  0  0  0  2  0  0  0  0  0  0
  192.0960  176.1820  135.8610 N   0  0  0  0  0  2  0  0  0  0  0  0
  190.9780  174.5520  134.6310 O   0  0  0  0  0  0  0  0  0  0  0  0
  191.0070  175.2870  135.6550 C   0  0  0  0  0  0  0  0  0  0  0  0
  193.2620  176.0830  135.0870 N   0  0  0  0  0  2  0  0  0  0  0  0
  197.3220  174.0380  136.1850 C   0  0  0  0  0  2  0  0  0  0  0  0
  195.1640  174.6510  138.0260 C   0  0  0  0  0  2  0  0  0  0  0  0
  195.2750  173.3690  134.9090 O   0  0  0  0  0  0  0  0  0  0  0  0
  195.9930  173.3900  138.3000 C   0  0  0  0  0  2  0  0  0  0  0  0
  196.9010  172.9290  137.1510 C   0  0  0  0  0  2  0  0  0  0  0  0
  194.2930  173.3430  135.9460 C   0  0  0  0  0  2  0  0  0  0  0  0
  195.6770  175.7910  135.1670 C   0  0  2  0  0  3  0  0  0  0  0  0
  194.3870  175.8680  135.9890 C   0  0  2  0  0  3  0  0  0  0  0  0
  194.1930  174.6050  136.8320 C   0  0  2  0  0  3  0  0  0  0  0  0
  196.2680  174.3670  135.1000 C   0  0  1  0  0  3  0  0  0  0  0  0
  196.1800  178.1980  134.8890 S   0  0  0  0  0  1  0  0  0  0  0  0
  196.6130  176.7140  135.6400 O   0  0  0  0  0  0  0  0  0  0  0  0
  190.1870  177.6890  143.2120 C   0  0  0  0  0  0  0  0  0  0  0  0
  191.2810  177.1900  143.5900 O   0  0  0  0  0  0  0  0  0  0  0  0
  189.3320  178.2990  144.1350 O   0  0  0  0  0  0  0  0  0  0  0  0
  188.6670  177.5670  145.1630 C   0  0  2  0  0  3  0  0  0  0  0  0
  186.3270  176.8190  145.3220 O   0  0  0  0  0  0  0  0  0  0  0  0
  186.2220  177.6700  144.2010 C   0  0  1  0  0  0  0  0  0  0  0  0
  186.6770  177.0490  143.0520 F   0  0  0  0  0  0  0  0  0  0  0  0
  184.8730  178.3650  144.1620 C   0  0  0  0  0  1  0  0  0  0  0  0
  187.1790  177.9440  145.3070 C   0  0  2  0  0  0  0  0  0  0  0  0
  185.9320  178.3680  147.3090 O   0  0  0  0  0  1  0  0  0  0  0  0
  186.7850  178.9570  146.3740 C   0  0  0  0  0  2  0  0  0  0  0  0
  189.5570  176.4840  147.1160 O   0  0  0  0  0  1  0  0  0  0  0  0
  189.4100  177.7230  146.4850 C   0  0  0  0  0  2  0  0  0  0  0  0
  187.0480  178.7880  139.5950 O   0  0  0  0  0  0  0  0  0  0  0  0
  185.8090  178.6700  140.2890 C   0  0  0  0  0  2  0  0  0  0  0  0
  184.6330  178.6880  139.3200 C   0  0  0  0  0  2  0  0  0  0  0  0
  184.2180  180.0020  139.0770 O   0  0  0  0  0  0  0  0  0  0  0  0
  182.1030  179.7620  140.2120 C   0  0  0  0  0  2  0  0  0  0  0  0
  180.4530  176.6300  140.6170 O   0  0  0  0  0  0  0  0  0  0  0  0
  181.9650  177.7370  139.3160 C   0  0  2  0  0  3  0  0  0  0  0  0
  182.8370  179.9450  138.8620 C   0  0  2  0  0  3  0  0  0  0  0  0
  180.6120  177.9640  141.1110 C   0  0  1  0  0  3  0  0  0  0  0  0
  181.3230  175.3840  138.7510 C   0  0  0  0  0  2  0  0  0  0  0  0
  181.2100  176.4940  139.4660 C   0  0  0  0  0  0  0  0  0  0  0  0
  181.1410  178.7130  139.9680 N   0  0  1  0  0  0  0  0  0  0  0  0
  182.4640  178.4890  137.7790 S   0  0  0  0  0  0  0  0  0  0  0  0
  179.2430  178.5070  141.5100 C   0  0  0  0  0  2  0  0  0  0  0  0
  179.2000  178.9050  142.9790 C   0  0  0  0  0  2  0  0  0  0  0  0
  180.5790  178.7850  143.6010 C   0  0  0  0  0  1  0  0  0  0  0  0
  1  4  1  0  0  0  0
  3  2  1  1  0  0  0
  3 12  1  0  0  0  0
  4 13  1  0  0  0  0
  5  7  1  0  0  0  0
  5  6  2  0  0  0  0
  6  8  1  0  0  0  0
  6  3  1  0  0  0  0
  7  2  2  0  0  0  0
  8 17  1  6  0  0  0
  8 14  1  0  0  0  0
  9 31  1  0  0  0  0
 10 11  2  0  0  0  0
 11  9  1  0  0  0  0
 12  4  2  0  0  0  0
 12 10  1  0  0  0  0
 13  9  2  0  0  0  0
 14  1  1  0  0  0  0
 16 17  2  0  0  0  0
 17 15  1  0  0  0  0
 18 15  1  0  0  0  0
 19 23  1  0  0  0  0
 20 22  1  0  0  0  0
 21 28  1  0  0  0  0
 21 24  1  0  0  0  0
 23 22  1  0  0  0  0
 25 30  1  1  0  0  0
 25 26  1  0  0  0  0
 26 18  1  6  0  0  0
 26 27  1  0  0  0  0
 27 24  1  6  0  0  0
 27 20  1  0  0  0  0
 28 25  1  0  0  0  0
 28 19  1  1  0  0  0
 29 30  1  0  0  0  0
 31 32  2  0  0  0  0
 31 33  1  0  0  0  0
 33 34  1  0  0  0  0
 34 39  1  0  0  0  0
 34 43  1  1  0  0  0
 36 38  1  6  0  0  0
 36 39  1  0  0  0  0
 36 35  1  0  0  0  0
 37 36  1  0  0  0  0
 39 35  1  0  0  0  0
 39 41  1  1  0  0  0
 41 40  1  0  0  0  0
 43 42  1  0  0  0  0
 44 10  1  0  0  0  0
 44 45  1  0  0  0  0
 46 45  1  0  0  0  0
 47 46  1  0  0  0  0
 49 52  1  0  0  0  0
 50 56  1  6  0  0  0
 50 54  1  0  0  0  0
 50 55  1  0  0  0  0
 51 47  1  1  0  0  0
 51 48  1  0  0  0  0
 52 57  1  6  0  0  0
 53 54  2  0  0  0  0
 54 49  1  0  0  0  0
 55 48  1  1  0  0  0
 55 52  1  0  0  0  0
 56 51  1  0  0  0  0
 57 58  1  0  0  0  0
 58 59  1  0  0  0  0
M  END
>  <MODEL>
2

>  <REMARK>
 VINA RESULT:      -7.1      3.033      6.980
  Name = 
  17 active torsions:
  status: ('A' for Active; 'I' for Inactive)
    1  A    between atoms: C_4  and  C_19
    2  A    between atoms: C_4  and  O_20
    3  A    between atoms: C_4  and  C_54
    4  A    between atoms: C_6  and  C_28
    5  A    between atoms: C_6  and  C_30
    6  A    between atoms: N_7  and  N_59
    7  A    between atoms: C_10  and  O_20
    8  A    between atoms: C_10  and  C_36
    9  A    between atoms: C_14  and  C_54
   10  A    between atoms: C_27  and  O_58
   11  A    between atoms: C_32  and  O_38
   12  A    between atoms: C_35  and  C_45
   13  A    between atoms: C_39  and  O_46
   14  A    between atoms: C_40  and  N_59
   15  A    between atoms: O_46  and  C_56
   16  A    between atoms: C_52  and  C_56
   17  A    between atoms: C_52  and  O_58
                            x       y       z     vdW  Elec       q    Type
                         _______ _______ _______ _____ _____    ______ ____

>  <TORSDO>
F 17

$$$$
=
 OpenBabel10222420043D

 59 66  0  0  1  0  0  0  0  0999 V2000
  187.1800  176.0050  135.9840 C   0  0  0  0  0  2  0  0  0  0  0  0
  188.4020  177.9430  139.6110 C   0  0  0  0  0  3  0  0  0  0  0  0
  188.0390  177.6360  138.3700 C   0  0  0  0  0  0  0  0  0  0  0  0
  186.2150  176.7790  136.8090 C   0  0  0  0  0  0  0  0  0  0  0  0
  190.3210  177.6960  138.3460 C   0  0  0  0  0  3  0  0  0  0  0  0
  189.2680  177.4660  137.5750 C   0  0  0  0  0  0  0  0  0  0  0  0
  189.8840  178.0180  139.7300 C   0  0  0  0  0  2  0  0  0  0  0  0
  189.4390  177.0590  136.1310 C   0  0  2  0  0  3  0  0  0  0  0  0
  183.8820  177.3580  137.1590 C   0  0  0  0  0  0  0  0  0  0  0  0
  185.5860  178.2210  138.6700 C   0  0  0  0  0  0  0  0  0  0  0  0
  184.2430  178.1040  138.2790 C   0  0  0  0  0  3  0  0  0  0  0  0
  186.6030  177.5470  137.9350 C   0  0  0  0  0  0  0  0  0  0  0  0
  184.8720  176.7010  136.4310 C   0  0  0  0  0  3  0  0  0  0  0  0
  188.1540  176.9560  135.3220 C   0  0  0  0  0  2  0  0  0  0  0  0
  191.3820  175.8180  135.0980 N   0  0  0  0  0  2  0  0  0  0  0  0
  190.0210  174.7990  136.6880 O   0  0  0  0  0  0  0  0  0  0  0  0
  190.2780  175.8220  135.9980 C   0  0  0  0  0  0  0  0  0  0  0  0
  192.3420  174.7950  135.1460 N   0  0  0  0  0  2  0  0  0  0  0  0
  196.7520  174.9000  136.6990 C   0  0  0  0  0  2  0  0  0  0  0  0
  194.3760  174.5250  138.3230 C   0  0  0  0  0  2  0  0  0  0  0  0
  195.3760  173.3100  135.3400 O   0  0  0  0  0  0  0  0  0  0  0  0
  195.6550  173.8000  138.7600 C   0  0  0  0  0  2  0  0  0  0  0  0
  196.7860  173.7630  137.7220 C   0  0  0  0  0  2  0  0  0  0  0  0
  194.4140  172.8780  136.3030 C   0  0  0  0  0  2  0  0  0  0  0  0
  194.6020  175.6540  135.4230 C   0  0  2  0  0  3  0  0  0  0  0  0
  193.3430  175.1620  136.1410 C   0  0  2  0  0  3  0  0  0  0  0  0
  193.6600  173.9870  137.0710 C   0  0  2  0  0  3  0  0  0  0  0  0
  195.7800  174.6610  135.5180 C   0  0  1  0  0  3  0  0  0  0  0  0
  195.8800  177.6070  134.6010 S   0  0  0  0  0  1  0  0  0  0  0  0
  194.9620  176.9220  135.8830 O   0  0  0  0  0  0  0  0  0  0  0  0
  182.4720  177.2620  136.7460 C   0  0  0  0  0  0  0  0  0  0  0  0
  181.7490  178.2940  136.7210 O   0  0  0  0  0  0  0  0  0  0  0  0
  181.9410  176.0170  136.3950 O   0  0  0  0  0  0  0  0  0  0  0  0
  181.8200  174.9450  137.3290 C   0  0  2  0  0  3  0  0  0  0  0  0
  181.1760  172.5860  137.6120 O   0  0  0  0  0  0  0  0  0  0  0  0
  182.2450  172.4260  136.7040 C   0  0  1  0  0  0  0  0  0  0  0  0
  183.4680  172.5020  137.3470 F   0  0  0  0  0  0  0  0  0  0  0  0
  181.9960  171.2660  135.7580 C   0  0  0  0  0  1  0  0  0  0  0  0
  181.3640  173.6250  136.6760 C   0  0  2  0  0  0  0  0  0  0  0  0
  178.9960  173.6180  136.3050 O   0  0  0  0  0  1  0  0  0  0  0  0
  180.2330  173.6700  135.6570 C   0  0  0  0  0  2  0  0  0  0  0  0
  181.6420  175.7030  139.6020 O   0  0  0  0  0  1  0  0  0  0  0  0
  180.8980  175.3460  138.4750 C   0  0  0  0  0  2  0  0  0  0  0  0
  185.9210  179.0220  139.7720 O   0  0  0  0  0  0  0  0  0  0  0  0
  185.1220  179.1480  140.9450 C   0  0  0  0  0  2  0  0  0  0  0  0
  185.4100  178.0220  141.9300 C   0  0  0  0  0  2  0  0  0  0  0  0
  186.1160  178.5060  143.0360 O   0  0  0  0  0  0  0  0  0  0  0  0
  187.0570  177.7640  145.1300 C   0  0  0  0  0  2  0  0  0  0  0  0
  190.5620  177.6680  145.7660 O   0  0  0  0  0  0  0  0  0  0  0  0
  189.0130  177.6370  144.0900 C   0  0  2  0  0  3  0  0  0  0  0  0
  186.6440  177.3860  143.6870 C   0  0  2  0  0  3  0  0  0  0  0  0
  189.2500  177.7400  146.3350 C   0  0  1  0  0  3  0  0  0  0  0  0
  191.4480  177.4440  143.5390 C   0  0  0  0  0  2  0  0  0  0  0  0
  190.4390  177.5200  144.3950 C   0  0  0  0  0  0  0  0  0  0  0  0
  188.3740  177.1940  145.2960 N   0  0  1  0  0  0  0  0  0  0  0  0
  188.1470  176.8170  142.7660 S   0  0  0  0  0  0  0  0  0  0  0  0
  189.2070  176.8580  147.5790 C   0  0  0  0  0  2  0  0  0  0  0  0
  188.1270  177.3090  148.5530 C   0  0  0  0  0  2  0  0  0  0  0  0
  187.7800  178.7680  148.3210 C   0  0  0  0  0  1  0  0  0  0  0  0
  1  4  1  0  0  0  0
  2  7  1  0  0  0  0
  3  2  2  0  0  0  0
  4 12  1  0  0  0  0
  5  7  1  0  0  0  0
  6  5  2  0  0  0  0
  6  3  1  0  0  0  0
  8 17  1  1  0  0  0
  8  6  1  0  0  0  0
  9 11  2  0  0  0  0
 10 44  1  0  0  0  0
 11 10  1  0  0  0  0
 12  3  1  0  0  0  0
 12 10  2  0  0  0  0
 13  4  2  0  0  0  0
 13  9  1  0  0  0  0
 14  1  1  0  0  0  0
 14  8  1  0  0  0  0
 15 18  1  0  0  0  0
 15 17  1  0  0  0  0
 17 16  2  0  0  0  0
 19 23  1  0  0  0  0
 20 22  1  0  0  0  0
 21 28  1  0  0  0  0
 21 24  1  0  0  0  0
 23 22  1  0  0  0  0
 25 28  1  0  0  0  0
 25 30  1  1  0  0  0
 25 26  1  0  0  0  0
 26 18  1  6  0  0  0
 26 27  1  0  0  0  0
 27 24  1  6  0  0  0
 27 20  1  0  0  0  0
 28 19  1  1  0  0  0
 29 30  1  0  0  0  0
 31  9  1  0  0  0  0
 32 31  2  0  0  0  0
 33 31  1  0  0  0  0
 33 34  1  0  0  0  0
 34 43  1  1  0  0  0
 36 38  1  6  0  0  0
 36 37  1  0  0  0  0
 36 35  1  0  0  0  0
 39 41  1  6  0  0  0
 39 36  1  0  0  0  0
 39 34  1  0  0  0  0
 39 35  1  0  0  0  0
 41 40  1  0  0  0  0
 43 42  1  0  0  0  0
 44 45  1  0  0  0  0
 45 46  1  0  0  0  0
 46 47  1  0  0  0  0
 49 52  1  0  0  0  0
 50 56  1  6  0  0  0
 50 54  1  0  0  0  0
 50 55  1  0  0  0  0
 51 47  1  6  0  0  0
 51 48  1  0  0  0  0
 52 57  1  1  0  0  0
 53 54  2  0  0  0  0
 54 49  1  0  0  0  0
 55 48  1  1  0  0  0
 55 52  1  0  0  0  0
 56 51  1  0  0  0  0
 57 58  1  0  0  0  0
 59 58  1  0  0  0  0
M  END
>  <MODEL>
3

>  <REMARK>
 VINA RESULT:      -7.0      1.695      2.465
  Name = 
  17 active torsions:
  status: ('A' for Active; 'I' for Inactive)
    1  A    between atoms: C_4  and  C_19
    2  A    between atoms: C_4  and  O_20
    3  A    between atoms: C_4  and  C_54
    4  A    between atoms: C_6  and  C_28
    5  A    between atoms: C_6  and  C_30
    6  A    between atoms: N_7  and  N_59
    7  A    between atoms: C_10  and  O_20
    8  A    between atoms: C_10  and  C_36
    9  A    between atoms: C_14  and  C_54
   10  A    between atoms: C_27  and  O_58
   11  A    between atoms: C_32  and  O_38
   12  A    between atoms: C_35  and  C_45
   13  A    between atoms: C_39  and  O_46
   14  A    between atoms: C_40  and  N_59
   15  A    between atoms: O_46  and  C_56
   16  A    between atoms: C_52  and  C_56
   17  A    between atoms: C_52  and  O_58
                            x       y       z     vdW  Elec       q    Type
                         _______ _______ _______ _____ _____    ______ ____

>  <TORSDO>
F 17

$$$$
=
 OpenBabel10222420043D

 59 66  0  0  1  0  0  0  0  0999 V2000
  191.5100  176.4790  139.4420 C   0  0  0  0  0  2  0  0  0  0  0  0
  188.9470  178.3080  136.5280 C   0  0  0  0  0  3  0  0  0  0  0  0
  189.5470  177.4940  137.3910 C   0  0  2  0  0  3  0  0  0  0  0  0
  190.1700  177.0040  139.8140 C   0  0  0  0  0  0  0  0  0  0  0  0
  190.3860  176.9440  135.3400 C   0  0  0  0  0  3  0  0  0  0  0  0
  190.4730  176.6390  136.6270 C   0  0  0  0  0  0  0  0  0  0  0  0
  189.4090  178.0460  135.1370 C   0  0  0  0  0  3  0  0  0  0  0  0
  191.4420  175.5870  137.1100 C   0  0  2  0  0  3  0  0  0  0  0  0
  188.6500  177.5250  141.6360 C   0  0  0  0  0  0  0  0  0  0  0  0
  187.9960  177.9970  139.3380 C   0  0  0  0  0  0  0  0  0  0  0  0
  187.7290  178.0210  140.7150 C   0  0  0  0  0  3  0  0  0  0  0  0
  189.2380  177.4880  138.8610 C   0  0  0  0  0  0  0  0  0  0  0  0
  189.8650  177.0190  141.1770 C   0  0  0  0  0  3  0  0  0  0  0  0
  191.3480  175.2390  138.5890 C   0  0  0  0  0  2  0  0  0  0  0  0
  193.4960  175.0890  135.7260 N   0  0  0  0  0  2  0  0  0  0  0  0
  193.4570  176.8850  137.2080 O   0  0  0  0  0  0  0  0  0  0  0  0
  192.8510  175.9010  136.7030 C   0  0  0  0  0  0  0  0  0  0  0  0
  194.6930  175.5060  135.1250 N   0  0  0  0  0  2  0  0  0  0  0  0
  196.9520  171.7940  136.8550 C   0  0  0  0  0  2  0  0  0  0  0  0
  197.9110  173.5520  134.7550 C   0  0  0  0  0  2  0  0  0  0  0  0
  196.3550  174.0730  137.7010 O   0  0  0  0  0  0  0  0  0  0  0  0
  198.9530  172.9460  135.7030 C   0  0  0  0  0  2  0  0  0  0  0  0
  198.3940  172.2900  136.9730 C   0  0  0  0  0  2  0  0  0  0  0  0
  197.1400  174.9050  136.8450 C   0  0  0  0  0  2  0  0  0  0  0  0
  195.0030  173.1970  135.8290 C   0  0  2  0  0  3  0  0  0  0  0  0
  195.5500  174.3370  134.9650 C   0  0  2  0  0  3  0  0  0  0  0  0
  197.0030  174.6560  135.3260 C   0  0  2  0  0  3  0  0  0  0  0  0
  195.8840  172.8960  137.0610 C   0  0  1  0  0  3  0  0  0  0  0  0
  193.3040  171.4110  135.6190 S   0  0  0  0  0  1  0  0  0  0  0  0
  194.7950  172.0540  135.0550 O   0  0  0  0  0  0  0  0  0  0  0  0
  188.3490  177.5340  143.0760 C   0  0  0  0  0  0  0  0  0  0  0  0
  187.2630  177.0520  143.4980 O   0  0  0  0  0  0  0  0  0  0  0  0
  189.2680  178.0940  143.9690 O   0  0  0  0  0  0  0  0  0  0  0  0
  190.2740  177.3190  144.6190 C   0  0  2  0  0  3  0  0  0  0  0  0
  188.9830  176.5240  146.5580 O   0  0  0  0  0  0  0  0  0  0  0  0
  188.9290  177.9140  146.7990 C   0  0  1  0  0  0  0  0  0  0  0  0
  187.9720  178.5260  146.0090 F   0  0  0  0  0  0  0  0  0  0  0  0
  188.9400  178.2150  148.2860 C   0  0  0  0  0  1  0  0  0  0  0  0
  190.1060  177.2740  146.1500 C   0  0  2  0  0  0  0  0  0  0  0  0
  191.3170  175.6210  147.3930 O   0  0  0  0  0  1  0  0  0  0  0  0
  191.3260  176.9630  147.0070 C   0  0  0  0  0  2  0  0  0  0  0  0
  191.6180  179.1790  143.9030 O   0  0  0  0  0  1  0  0  0  0  0  0
  191.6600  177.8200  144.2260 C   0  0  0  0  0  2  0  0  0  0  0  0
  187.0260  178.4560  138.4350 O   0  0  0  0  0  0  0  0  0  0  0  0
  185.6240  178.4500  138.6890 C   0  0  0  0  0  2  0  0  0  0  0  0
  184.8800  177.6250  137.6460 C   0  0  0  0  0  2  0  0  0  0  0  0
  185.5860  177.6100  136.4380 O   0  0  0  0  0  0  0  0  0  0  0  0
  184.5590  175.4580  136.8010 C   0  0  0  0  0  2  0  0  0  0  0  0
  186.4170  172.5170  137.5730 O   0  0  0  0  0  0  0  0  0  0  0  0
  186.5800  174.5690  136.5890 C   0  0  2  0  0  3  0  0  0  0  0  0
  185.2400  176.4170  135.7950 C   0  0  2  0  0  3  0  0  0  0  0  0
  185.1500  173.1790  137.6510 C   0  0  1  0  0  3  0  0  0  0  0  0
  188.5570  173.0320  136.6000 C   0  0  0  0  0  2  0  0  0  0  0  0
  187.2870  173.3160  136.8520 C   0  0  0  0  0  0  0  0  0  0  0  0
  185.1990  174.1810  136.5840 N   0  0  1  0  0  0  0  0  0  0  0  0
  186.7840  175.6150  135.1600 S   0  0  0  0  0  0  0  0  0  0  0  0
  184.0470  172.1630  137.3710 C   0  0  0  0  0  2  0  0  0  0  0  0
  183.9040  171.8830  135.8820 C   0  0  0  0  0  2  0  0  0  0  0  0
  182.4600  172.0490  135.4470 C   0  0  0  0  0  1  0  0  0  0  0  0
  1  4  1  0  0  0  0
  3  2  1  6  0  0  0
  3 12  1  0  0  0  0
  4 13  1  0  0  0  0
  5  6  2  0  0  0  0
  6  8  1  0  0  0  0
  6  3  1  0  0  0  0
  7  5  1  0  0  0  0
  7  2  2  0  0  0  0
  8 17  1  1  0  0  0
  8 14  1  0  0  0  0
  9 31  1  0  0  0  0
 10 11  2  0  0  0  0
 11  9  1  0  0  0  0
 12 10  1  0  0  0  0
 12  4  2  0  0  0  0
 13  9  2  0  0  0  0
 14  1  1  0  0  0  0
 15 17  1  0  0  0  0
 17 16  2  0  0  0  0
 18 15  1  0  0  0  0
 19 23  1  0  0  0  0
 20 22  1  0  0  0  0
 22 23  1  0  0  0  0
 24 21  1  0  0  0  0
 25 30  1  6  0  0  0
 25 28  1  0  0  0  0
 26 18  1  1  0  0  0
 26 27  1  0  0  0  0
 26 25  1  0  0  0  0
 27 20  1  1  0  0  0
 27 24  1  0  0  0  0
 28 19  1  6  0  0  0
 28 21  1  0  0  0  0
 30 29  1  0  0  0  0
 31 32  2  0  0  0  0
 31 33  1  0  0  0  0
 33 34  1  0  0  0  0
 34 43  1  1  0  0  0
 34 39  1  0  0  0  0
 35 36  1  0  0  0  0
 36 38  1  1  0  0  0
 37 36  1  0  0  0  0
 39 35  1  0  0  0  0
 39 36  1  0  0  0  0
 39 41  1  1  0  0  0
 41 40  1  0  0  0  0
 42 43  1  0  0  0  0
 44 45  1  0  0  0  0
 44 10  1  0  0  0  0
 46 45  1  0  0  0  0
 47 46  1  0  0  0  0
 49 52  1  0  0  0  0
 50 56  1  6  0  0  0
 50 54  1  0  0  0  0
 51 47  1  1  0  0  0
 51 48  1  0  0  0  0
 52 57  1  6  0  0  0
 53 54  2  0  0  0  0
 54 49  1  0  0  0  0
 55 50  1  0  0  0  0
 55 48  1  1  0  0  0
 55 52  1  0  0  0  0
 56 51  1  0  0  0  0
 58 57  1  0  0  0  0
 59 58  1  0  0  0  0
M  END
>  <MODEL>
4

>  <REMARK>
 VINA RESULT:      -6.7      3.163      7.945
  Name = 
  17 active torsions:
  status: ('A' for Active; 'I' for Inactive)
    1  A    between atoms: C_4  and  C_19
    2  A    between atoms: C_4  and  O_20
    3  A    between atoms: C_4  and  C_54
    4  A    between atoms: C_6  and  C_28
    5  A    between atoms: C_6  and  C_30
    6  A    between atoms: N_7  and  N_59
    7  A    between atoms: C_10  and  O_20
    8  A    between atoms: C_10  and  C_36
    9  A    between atoms: C_14  and  C_54
   10  A    between atoms: C_27  and  O_58
   11  A    between atoms: C_32  and  O_38
   12  A    between atoms: C_35  and  C_45
   13  A    between atoms: C_39  and  O_46
   14  A    between atoms: C_40  and  N_59
   15  A    between atoms: O_46  and  C_56
   16  A    between atoms: C_52  and  C_56
   17  A    between atoms: C_52  and  O_58
                            x       y       z     vdW  Elec       q    Type
                         _______ _______ _______ _____ _____    ______ ____

>  <TORSDO>
F 17

$$$$
=
 OpenBabel10222420043D

 59 66  0  0  1  0  0  0  0  0999 V2000
  182.8440  177.7290  139.5410 C   0  0  0  0  0  2  0  0  0  0  0  0
  181.6080  179.5510  143.2230 C   0  0  0  0  0  3  0  0  0  0  0  0
  182.0340  178.7330  142.2670 C   0  0  0  0  0  0  0  0  0  0  0  0
  183.8380  178.1750  140.5540 C   0  0  0  0  0  0  0  0  0  0  0  0
  179.8020  178.3040  142.4940 C   0  0  0  0  0  3  0  0  0  0  0  0
  180.8740  177.9530  141.7980 C   0  0  0  0  0  0  0  0  0  0  0  0
  180.1520  179.3670  143.4740 C   0  0  0  0  0  2  0  0  0  0  0  0
  180.7780  176.9280  140.6930 C   0  0  2  0  0  3  0  0  0  0  0  0
  186.1890  178.5510  141.0330 C   0  0  0  0  0  0  0  0  0  0  0  0
  184.5090  179.0830  142.7140 C   0  0  0  0  0  0  0  0  0  0  0  0
  185.8460  179.0390  142.2920 C   0  0  0  0  0  3  0  0  0  0  0  0
  183.4710  178.6520  141.8370 C   0  0  0  0  0  0  0  0  0  0  0  0
  185.1810  178.1210  140.1730 C   0  0  0  0  0  3  0  0  0  0  0  0
  182.1010  176.5170  140.0630 C   0  0  0  0  0  2  0  0  0  0  0  0
  179.6810  178.6870  139.2480 N   0  0  0  0  0  2  0  0  0  0  0  0
  179.0160  176.4590  139.1330 O   0  0  0  0  0  0  0  0  0  0  0  0
  179.7690  177.3250  139.6550 C   0  0  0  0  0  0  0  0  0  0  0  0
  178.9560  179.0470  138.1020 N   0  0  0  0  0  2  0  0  0  0  0  0
  181.9930  182.5800  137.6930 C   0  0  0  0  0  2  0  0  0  0  0  0
  179.8020  181.9910  135.8830 C   0  0  0  0  0  2  0  0  0  0  0  0
  180.1080  182.0180  139.2410 O   0  0  0  0  0  0  0  0  0  0  0  0
  180.1720  183.4650  136.0930 C   0  0  0  0  0  2  0  0  0  0  0  0
  181.1050  183.7540  137.2780 C   0  0  0  0  0  2  0  0  0  0  0  0
  178.9880  182.0870  138.3580 C   0  0  0  0  0  2  0  0  0  0  0  0
  181.1300  180.1360  138.0120 C   0  0  2  0  0  3  0  0  0  0  0  0
  179.7890  179.9360  137.3010 C   0  0  2  0  0  3  0  0  0  0  0  0
  179.0930  181.2750  137.0470 C   0  0  2  0  0  3  0  0  0  0  0  0
  181.2920  181.5500  138.6120 C   0  0  1  0  0  3  0  0  0  0  0  0
  181.5800  178.5540  136.1630 S   0  0  0  0  0  1  0  0  0  0  0  0
  182.1880  179.8170  137.1580 O   0  0  0  0  0  0  0  0  0  0  0  0
  187.5980  178.4880  140.6110 C   0  0  0  0  0  0  0  0  0  0  0  0
  188.4140  179.3660  141.0020 O   0  0  0  0  0  0  0  0  0  0  0  0
  188.0190  177.4580  139.7650 O   0  0  0  0  0  0  0  0  0  0  0  0
  188.0620  177.6010  138.3470 C   0  0  2  0  0  3  0  0  0  0  0  0
  187.8390  176.3070  136.2650 O   0  0  0  0  0  0  0  0  0  0  0  0
  187.0840  175.4850  137.1300 C   0  0  1  0  0  0  0  0  0  0  0  0
  185.8130  175.9940  137.3260 F   0  0  0  0  0  0  0  0  0  0  0  0
  187.2280  174.0190  136.7620 C   0  0  0  0  0  1  0  0  0  0  0  0
  188.2600  176.2610  137.6110 C   0  0  2  0  0  0  0  0  0  0  0  0
  190.4510  175.8980  136.7120 O   0  0  0  0  0  1  0  0  0  0  0  0
  189.5940  175.5420  137.7550 C   0  0  0  0  0  2  0  0  0  0  0  0
  188.6440  179.4860  136.9740 O   0  0  0  0  0  1  0  0  0  0  0  0
  189.1310  178.6140  137.9520 C   0  0  0  0  0  2  0  0  0  0  0  0
  184.2020  179.5320  144.0060 O   0  0  0  0  0  0  0  0  0  0  0  0
  184.5350  178.8300  145.2010 C   0  0  0  0  0  2  0  0  0  0  0  0
  185.5950  177.7680  144.9360 C   0  0  0  0  0  2  0  0  0  0  0  0
  186.3480  177.5280  146.0910 O   0  0  0  0  0  0  0  0  0  0  0  0
  188.2570  178.1020  144.7320 C   0  0  0  0  0  2  0  0  0  0  0  0
  191.5020  176.7250  145.2480 O   0  0  0  0  0  0  0  0  0  0  0  0
  189.5250  177.1700  146.2960 C   0  0  2  0  0  3  0  0  0  0  0  0
  187.4530  178.3840  146.0240 C   0  0  2  0  0  3  0  0  0  0  0  0
  190.6040  177.3400  144.3180 C   0  0  1  0  0  3  0  0  0  0  0  0
  191.4190  176.1630  147.5860 C   0  0  0  0  0  2  0  0  0  0  0  0
  190.8910  176.6860  146.4900 C   0  0  0  0  0  0  0  0  0  0  0  0
  189.6350  178.0420  145.1620 N   0  0  1  0  0  0  0  0  0  0  0  0
  188.5430  178.0620  147.4870 S   0  0  0  0  0  0  0  0  0  0  0  0
  191.3860  178.3380  143.4690 C   0  0  0  0  0  2  0  0  0  0  0  0
  191.6570  177.7990  142.0710 C   0  0  0  0  0  2  0  0  0  0  0  0
  190.7350  176.6340  141.7640 C   0  0  0  0  0  1  0  0  0  0  0  0
  1 14  1  0  0  0  0
  1  4  1  0  0  0  0
  2  7  1  0  0  0  0
  3  2  2  0  0  0  0
  4 12  1  0  0  0  0
  5  7  1  0  0  0  0
  6  3  1  0  0  0  0
  6  5  2  0  0  0  0
  8 17  1  6  0  0  0
  8  6  1  0  0  0  0
  9 11  2  0  0  0  0
 10 44  1  0  0  0  0
 11 10  1  0  0  0  0
 12  3  1  0  0  0  0
 12 10  2  0  0  0  0
 13  4  2  0  0  0  0
 13  9  1  0  0  0  0
 14  8  1  0  0  0  0
 15 17  1  0  0  0  0
 16 17  2  0  0  0  0
 18 15  1  0  0  0  0
 20 22  1  0  0  0  0
 22 23  1  0  0  0  0
 23 19  1  0  0  0  0
 24 21  1  0  0  0  0
 25 30  1  6  0  0  0
 25 28  1  0  0  0  0
 26 25  1  0  0  0  0
 26 18  1  1  0  0  0
 27 20  1  6  0  0  0
 27 26  1  0  0  0  0
 27 24  1  0  0  0  0
 28 19  1  6  0  0  0
 28 21  1  0  0  0  0
 29 30  1  0  0  0  0
 31 32  2  0  0  0  0
 31  9  1  0  0  0  0
 33 31  1  0  0  0  0
 34 43  1  1  0  0  0
 34 33  1  0  0  0  0
 35 36  1  0  0  0  0
 35 39  1  0  0  0  0
 36 38  1  6  0  0  0
 36 37  1  0  0  0  0
 36 39  1  0  0  0  0
 39 41  1  1  0  0  0
 39 34  1  0  0  0  0
 40 41  1  0  0  0  0
 42 43  1  0  0  0  0
 44 45  1  0  0  0  0
 46 45  1  0  0  0  0
 46 47  1  0  0  0  0
 48 51  1  0  0  0  0
 49 54  1  0  0  0  0
 50 54  1  1  0  0  0
 50 56  1  0  0  0  0
 51 47  1  1  0  0  0
 51 56  1  0  0  0  0
 52 57  1  6  0  0  0
 52 55  1  0  0  0  0
 52 49  1  0  0  0  0
 54 53  2  0  0  0  0
 55 48  1  6  0  0  0
 55 50  1  0  0  0  0
 58 57  1  0  0  0  0
 59 58  1  0  0  0  0
M  END
>  <MODEL>
5

>  <REMARK>
 VINA RESULT:      -6.7      4.547      9.977
  Name = 
  17 active torsions:
  status: ('A' for Active; 'I' for Inactive)
    1  A    between atoms: C_4  and  C_19
    2  A    between atoms: C_4  and  O_20
    3  A    between atoms: C_4  and  C_54
    4  A    between atoms: C_6  and  C_28
    5  A    between atoms: C_6  and  C_30
    6  A    between atoms: N_7  and  N_59
    7  A    between atoms: C_10  and  O_20
    8  A    between atoms: C_10  and  C_36
    9  A    between atoms: C_14  and  C_54
   10  A    between atoms: C_27  and  O_58
   11  A    between atoms: C_32  and  O_38
   12  A    between atoms: C_35  and  C_45
   13  A    between atoms: C_39  and  O_46
   14  A    between atoms: C_40  and  N_59
   15  A    between atoms: O_46  and  C_56
   16  A    between atoms: C_52  and  C_56
   17  A    between atoms: C_52  and  O_58
                            x       y       z     vdW  Elec       q    Type
                         _______ _______ _______ _____ _____    ______ ____

>  <TORSDO>
F 17

$$$$
=
 OpenBabel10222420043D

 59 66  0  0  1  0  0  0  0  0999 V2000
  185.7240  178.3610  141.9240 C   0  0  0  0  0  2  0  0  0  0  0  0
  181.4830  178.2690  142.5660 C   0  0  0  0  0  3  0  0  0  0  0  0
  182.7410  178.6000  142.2960 C   0  0  0  0  0  0  0  0  0  0  0  0
  184.7720  178.3010  140.7840 C   0  0  0  0  0  0  0  0  0  0  0  0
  182.3910  179.2250  144.4650 C   0  0  0  0  0  3  0  0  0  0  0  0
  183.3160  179.1960  143.5160 C   0  0  0  0  0  0  0  0  0  0  0  0
  181.1230  178.6300  143.9650 C   0  0  0  0  0  2  0  0  0  0  0  0
  184.7180  179.6890  143.7850 C   0  0  2  0  0  3  0  0  0  0  0  0
  184.5240  178.0030  138.3860 C   0  0  0  0  0  0  0  0  0  0  0  0
  182.5500  178.3050  139.7810 C   0  0  0  0  0  0  0  0  0  0  0  0
  183.1400  178.0890  138.5260 C   0  0  0  0  0  3  0  0  0  0  0  0
  183.3670  178.4090  140.9440 C   0  0  0  0  0  0  0  0  0  0  0  0
  185.3300  178.1110  139.5170 C   0  0  0  0  0  3  0  0  0  0  0  0
  185.6440  179.7240  142.5780 C   0  0  0  0  0  2  0  0  0  0  0  0
  186.5070  178.1740  144.7280 N   0  0  0  0  0  2  0  0  0  0  0  0
  184.8620  179.0830  146.1020 O   0  0  0  0  0  0  0  0  0  0  0  0
  185.3460  178.9710  144.9440 C   0  0  0  0  0  0  0  0  0  0  0  0
  187.2740  177.7180  145.8110 N   0  0  0  0  0  2  0  0  0  0  0  0
  191.6370  176.9860  144.2960 C   0  0  0  0  0  2  0  0  0  0  0  0
  189.2310  175.7610  143.2330 C   0  0  0  0  0  2  0  0  0  0  0  0
  190.0160  178.8910  144.2120 O   0  0  0  0  0  0  0  0  0  0  0  0
  190.3700  176.0570  142.2490 C   0  0  0  0  0  2  0  0  0  0  0  0
  191.4800  176.9790  142.7750 C   0  0  0  0  0  2  0  0  0  0  0  0
  188.9940  178.3530  143.3720 C   0  0  0  0  0  2  0  0  0  0  0  0
  189.6460  177.1980  145.9710 C   0  0  2  0  0  3  0  0  0  0  0  0
  188.3210  176.8480  145.2880 C   0  0  2  0  0  3  0  0  0  0  0  0
  188.4360  176.9670  143.7660 C   0  0  2  0  0  3  0  0  0  0  0  0
  190.6410  177.9140  145.0320 C   0  0  1  0  0  3  0  0  0  0  0  0
  191.4440  176.6630  147.5860 S   0  0  0  0  0  1  0  0  0  0  0  0
  190.2130  176.0600  146.5480 O   0  0  0  0  0  0  0  0  0  0  0  0
  185.1310  177.8000  137.0610 C   0  0  0  0  0  0  0  0  0  0  0  0
  184.4120  177.4660  136.0800 O   0  0  0  0  0  0  0  0  0  0  0  0
  186.5100  177.9670  136.9020 O   0  0  0  0  0  0  0  0  0  0  0  0
  187.4270  176.8780  136.9770 C   0  0  2  0  0  3  0  0  0  0  0  0
  189.8410  177.3380  136.8330 O   0  0  0  0  0  0  0  0  0  0  0  0
  189.8640  176.2700  137.7560 C   0  0  1  0  0  0  0  0  0  0  0  0
  189.7350  175.0490  137.1170 F   0  0  0  0  0  0  0  0  0  0  0  0
  190.9820  176.4420  138.7680 C   0  0  0  0  0  1  0  0  0  0  0  0
  188.7370  177.2400  137.7050 C   0  0  2  0  0  0  0  0  0  0  0  0
  189.1080  179.5740  138.0990 O   0  0  0  0  0  1  0  0  0  0  0  0
  188.7170  178.3830  138.7120 C   0  0  0  0  0  2  0  0  0  0  0  0
  187.4920  177.3070  134.6130 O   0  0  0  0  0  1  0  0  0  0  0  0
  187.7020  176.3230  135.5830 C   0  0  0  0  0  2  0  0  0  0  0  0
  181.1580  178.4380  139.8810 O   0  0  0  0  0  0  0  0  0  0  0  0
  180.2600  178.3340  138.7790 C   0  0  0  0  0  2  0  0  0  0  0  0
  179.5770  176.9720  138.7530 C   0  0  0  0  0  2  0  0  0  0  0  0
  180.0180  176.2230  137.6560 O   0  0  0  0  0  0  0  0  0  0  0  0
  181.9140  174.8160  137.1630 C   0  0  0  0  0  2  0  0  0  0  0  0
  181.6090  171.5680  135.7290 O   0  0  0  0  0  0  0  0  0  0  0  0
  180.4820  173.1340  136.9470 C   0  0  2  0  0  3  0  0  0  0  0  0
  180.8040  175.1900  138.1750 C   0  0  2  0  0  3  0  0  0  0  0  0
  182.4560  172.7050  135.9330 C   0  0  1  0  0  3  0  0  0  0  0  0
  179.3940  170.9400  136.4290 C   0  0  0  0  0  2  0  0  0  0  0  0
  180.4230  171.7740  136.4130 C   0  0  0  0  0  0  0  0  0  0  0  0
  181.8880  173.3720  137.1070 N   0  0  1  0  0  0  0  0  0  0  0  0
  179.7290  173.7080  138.4560 S   0  0  0  0  0  0  0  0  0  0  0  0
  183.8690  172.2160  136.2360 C   0  0  0  0  0  2  0  0  0  0  0  0
  184.3780  172.7530  137.5660 C   0  0  0  0  0  2  0  0  0  0  0  0
  185.5460  173.6960  137.3460 C   0  0  0  0  0  1  0  0  0  0  0  0
  1 14  1  0  0  0  0
  2  7  1  0  0  0  0
  3  2  2  0  0  0  0
  3  6  1  0  0  0  0
  4 12  1  0  0  0  0
  4  1  1  0  0  0  0
  6  8  1  0  0  0  0
  6  5  2  0  0  0  0
  7  5  1  0  0  0  0
  8 17  1  1  0  0  0
  9 11  2  0  0  0  0
  9 13  1  0  0  0  0
 10 44  1  0  0  0  0
 10 12  2  0  0  0  0
 11 10  1  0  0  0  0
 12  3  1  0  0  0  0
 13  4  2  0  0  0  0
 14  8  1  0  0  0  0
 15 17  1  0  0  0  0
 15 18  1  0  0  0  0
 17 16  2  0  0  0  0
 21 28  1  0  0  0  0
 22 23  1  0  0  0  0
 22 20  1  0  0  0  0
 23 19  1  0  0  0  0
 24 27  1  0  0  0  0
 24 21  1  0  0  0  0
 25 30  1  6  0  0  0
 26 18  1  1  0  0  0
 26 25  1  0  0  0  0
 27 20  1  1  0  0  0
 27 26  1  0  0  0  0
 28 19  1  6  0  0  0
 28 25  1  0  0  0  0
 30 29  1  0  0  0  0
 31  9  1  0  0  0  0
 32 31  2  0  0  0  0
 33 34  1  0  0  0  0
 33 31  1  0  0  0  0
 34 43  1  6  0  0  0
 34 39  1  0  0  0  0
 35 39  1  0  0  0  0
 35 36  1  0  0  0  0
 36 38  1  1  0  0  0
 37 36  1  0  0  0  0
 39 36  1  0  0  0  0
 39 41  1  1  0  0  0
 40 41  1  0  0  0  0
 42 43  1  0  0  0  0
 45 44  1  0  0  0  0
 46 45  1  0  0  0  0
 47 46  1  0  0  0  0
 48 51  1  0  0  0  0
 49 52  1  0  0  0  0
 49 54  1  0  0  0  0
 50 54  1  1  0  0  0
 50 55  1  0  0  0  0
 50 56  1  0  0  0  0
 51 47  1  6  0  0  0
 51 56  1  0  0  0  0
 52 57  1  1  0  0  0
 52 55  1  0  0  0  0
 54 53  2  0  0  0  0
 55 48  1  6  0  0  0
 57 58  1  0  0  0  0
 59 58  1  0  0  0  0
M  END
>  <MODEL>
6

>  <REMARK>
 VINA RESULT:      -6.6      4.149      8.715
  Name = 
  17 active torsions:
  status: ('A' for Active; 'I' for Inactive)
    1  A    between atoms: C_4  and  C_19
    2  A    between atoms: C_4  and  O_20
    3  A    between atoms: C_4  and  C_54
    4  A    between atoms: C_6  and  C_28
    5  A    between atoms: C_6  and  C_30
    6  A    between atoms: N_7  and  N_59
    7  A    between atoms: C_10  and  O_20
    8  A    between atoms: C_10  and  C_36
    9  A    between atoms: C_14  and  C_54
   10  A    between atoms: C_27  and  O_58
   11  A    between atoms: C_32  and  O_38
   12  A    between atoms: C_35  and  C_45
   13  A    between atoms: C_39  and  O_46
   14  A    between atoms: C_40  and  N_59
   15  A    between atoms: O_46  and  C_56
   16  A    between atoms: C_52  and  C_56
   17  A    between atoms: C_52  and  O_58
                            x       y       z     vdW  Elec       q    Type
                         _______ _______ _______ _____ _____    ______ ____

>  <TORSDO>
F 17

$$$$
=
 OpenBabel10222420043D

 59 66  0  0  1  0  0  0  0  0999 V2000
  187.0430  176.3490  135.7060 C   0  0  0  0  0  2  0  0  0  0  0  0
  188.2620  177.6700  139.6010 C   0  0  0  0  0  3  0  0  0  0  0  0
  187.9080  177.5680  138.3240 C   0  0  0  0  0  0  0  0  0  0  0  0
  186.0860  177.0120  136.6300 C   0  0  0  0  0  0  0  0  0  0  0  0
  190.1920  177.5680  138.3330 C   0  0  0  0  0  3  0  0  0  0  0  0
  189.1450  177.4890  137.5250 C   0  0  0  0  0  0  0  0  0  0  0  0
  189.7430  177.6840  139.7460 C   0  0  0  0  0  2  0  0  0  0  0  0
  189.3260  177.3060  136.0370 C   0  0  2  0  0  3  0  0  0  0  0  0
  183.7640  177.5950  137.0410 C   0  0  0  0  0  0  0  0  0  0  0  0
  185.4670  178.1670  138.6850 C   0  0  0  0  0  0  0  0  0  0  0  0
  184.1280  178.1480  138.2670 C   0  0  0  0  0  3  0  0  0  0  0  0
  186.4780  177.5860  137.8660 C   0  0  0  0  0  0  0  0  0  0  0  0
  184.7470  177.0310  136.2310 C   0  0  0  0  0  3  0  0  0  0  0  0
  188.0510  177.3640  135.2090 C   0  0  0  0  0  2  0  0  0  0  0  0
  191.4920  176.2240  135.3150 N   0  0  0  0  0  2  0  0  0  0  0  0
  189.6250  174.9340  135.8350 O   0  0  0  0  0  0  0  0  0  0  0  0
  190.1350  176.0820  135.7240 C   0  0  0  0  0  0  0  0  0  0  0  0
  192.3510  175.1150  135.2800 N   0  0  0  0  0  2  0  0  0  0  0  0
  196.9400  175.1240  136.1800 C   0  0  0  0  0  2  0  0  0  0  0  0
  194.8260  174.5600  138.0860 C   0  0  0  0  0  2  0  0  0  0  0  0
  195.3790  173.6580  134.8850 O   0  0  0  0  0  0  0  0  0  0  0  0
  196.1530  173.8130  138.2590 C   0  0  0  0  0  2  0  0  0  0  0  0
  197.1210  173.8930  137.0700 C   0  0  0  0  0  2  0  0  0  0  0  0
  194.5660  173.1200  135.9290 C   0  0  0  0  0  2  0  0  0  0  0  0
  194.6290  175.9720  135.3110 C   0  0  2  0  0  3  0  0  0  0  0  0
  193.4860  175.3950  136.1510 C   0  0  2  0  0  3  0  0  0  0  0  0
  193.9340  174.1390  136.9040 C   0  0  2  0  0  3  0  0  0  0  0  0
  195.8070  174.9900  135.1350 C   0  0  1  0  0  3  0  0  0  0  0  0
  196.0230  177.8890  134.6000 S   0  0  0  0  0  1  0  0  0  0  0  0
  195.0530  177.1940  135.8370 O   0  0  0  0  0  0  0  0  0  0  0  0
  182.3590  177.6020  136.6040 C   0  0  0  0  0  0  0  0  0  0  0  0
  182.0790  177.6930  135.3780 O   0  0  0  0  0  0  0  0  0  0  0  0
  181.3390  177.5210  137.5570 O   0  0  0  0  0  0  0  0  0  0  0  0
  180.8740  178.6590  138.2800 C   0  0  2  0  0  3  0  0  0  0  0  0
  179.3370  178.7910  140.1980 O   0  0  0  0  0  0  0  0  0  0  0  0
  180.4440  179.4750  140.7430 C   0  0  1  0  0  0  0  0  0  0  0  0
  180.5010  180.7820  140.2910 F   0  0  0  0  0  0  0  0  0  0  0  0
  180.5710  179.2200  142.2340 C   0  0  0  0  0  1  0  0  0  0  0  0
  180.6110  178.3620  139.7700 C   0  0  2  0  0  0  0  0  0  0  0  0
  179.7700  176.2510  140.5310 O   0  0  0  0  0  1  0  0  0  0  0  0
  180.9430  176.9750  140.3040 C   0  0  0  0  0  2  0  0  0  0  0  0
  179.1000  178.3340  136.6930 O   0  0  0  0  0  1  0  0  0  0  0  0
  179.6400  179.2450  137.6040 C   0  0  0  0  0  2  0  0  0  0  0  0
  185.8060  178.7780  139.9010 O   0  0  0  0  0  0  0  0  0  0  0  0
  184.8640  179.3590  140.7990 C   0  0  0  0  0  2  0  0  0  0  0  0
  184.0320  178.2860  141.4900 C   0  0  0  0  0  2  0  0  0  0  0  0
  184.8210  177.5510  142.3820 O   0  0  0  0  0  0  0  0  0  0  0  0
  187.0640  177.6290  143.2660 C   0  0  0  0  0  2  0  0  0  0  0  0
  187.7840  177.6640  146.7550 O   0  0  0  0  0  0  0  0  0  0  0  0
  186.1670  178.1610  145.2240 C   0  0  2  0  0  3  0  0  0  0  0  0
  185.8060  178.4280  142.8500 C   0  0  2  0  0  3  0  0  0  0  0  0
  188.2700  177.3600  145.4430 C   0  0  1  0  0  3  0  0  0  0  0  0
  185.7660  178.6200  147.6520 C   0  0  0  0  0  2  0  0  0  0  0  0
  186.5280  178.2340  146.6400 C   0  0  0  0  0  0  0  0  0  0  0  0
  187.4350  178.1710  144.5530 N   0  0  1  0  0  0  0  0  0  0  0  0
  185.1490  179.3220  144.3340 S   0  0  0  0  0  0  0  0  0  0  0  0
  189.7270  177.7990  145.3450 C   0  0  0  0  0  2  0  0  0  0  0  0
  190.3920  177.2680  144.0820 C   0  0  0  0  0  2  0  0  0  0  0  0
  191.6080  178.1050  143.7310 C   0  0  0  0  0  1  0  0  0  0  0  0
  1  4  1  0  0  0  0
  2  7  1  0  0  0  0
  3  2  2  0  0  0  0
  4 12  1  0  0  0  0
  5  7  1  0  0  0  0
  6  3  1  0  0  0  0
  6  5  2  0  0  0  0
  8 17  1  1  0  0  0
  8  6  1  0  0  0  0
  9 11  2  0  0  0  0
 10 44  1  0  0  0  0
 11 10  1  0  0  0  0
 12  3  1  0  0  0  0
 12 10  2  0  0  0  0
 13  4  2  0  0  0  0
 13  9  1  0  0  0  0
 14  1  1  0  0  0  0
 14  8  1  0  0  0  0
 15 17  1  0  0  0  0
 17 16  2  0  0  0  0
 18 15  1  0  0  0  0
 19 23  1  0  0  0  0
 20 22  1  0  0  0  0
 21 28  1  0  0  0  0
 21 24  1  0  0  0  0
 23 22  1  0  0  0  0
 25 30  1  1  0  0  0
 25 26  1  0  0  0  0
 26 18  1  6  0  0  0
 26 27  1  0  0  0  0
 27 24  1  6  0  0  0
 27 20  1  0  0  0  0
 28 25  1  0  0  0  0
 28 19  1  1  0  0  0
 29 30  1  0  0  0  0
 31  9  1  0  0  0  0
 31 33  1  0  0  0  0
 32 31  2  0  0  0  0
 33 34  1  0  0  0  0
 34 43  1  6  0  0  0
 34 39  1  0  0  0  0
 35 36  1  0  0  0  0
 36 38  1  1  0  0  0
 37 36  1  0  0  0  0
 39 35  1  0  0  0  0
 39 41  1  1  0  0  0
 39 36  1  0  0  0  0
 41 40  1  0  0  0  0
 42 43  1  0  0  0  0
 44 45  1  0  0  0  0
 45 46  1  0  0  0  0
 46 47  1  0  0  0  0
 50 56  1  6  0  0  0
 50 54  1  0  0  0  0
 51 47  1  1  0  0  0
 51 48  1  0  0  0  0
 51 56  1  0  0  0  0
 52 57  1  1  0  0  0
 52 49  1  0  0  0  0
 54 49  1  0  0  0  0
 54 53  2  0  0  0  0
 55 48  1  6  0  0  0
 55 50  1  0  0  0  0
 55 52  1  0  0  0  0
 58 57  1  0  0  0  0
 59 58  1  0  0  0  0
M  END
>  <MODEL>
7

>  <REMARK>
 VINA RESULT:      -6.3      2.186      3.074
  Name = 
  17 active torsions:
  status: ('A' for Active; 'I' for Inactive)
    1  A    between atoms: C_4  and  C_19
    2  A    between atoms: C_4  and  O_20
    3  A    between atoms: C_4  and  C_54
    4  A    between atoms: C_6  and  C_28
    5  A    between atoms: C_6  and  C_30
    6  A    between atoms: N_7  and  N_59
    7  A    between atoms: C_10  and  O_20
    8  A    between atoms: C_10  and  C_36
    9  A    between atoms: C_14  and  C_54
   10  A    between atoms: C_27  and  O_58
   11  A    between atoms: C_32  and  O_38
   12  A    between atoms: C_35  and  C_45
   13  A    between atoms: C_39  and  O_46
   14  A    between atoms: C_40  and  N_59
   15  A    between atoms: O_46  and  C_56
   16  A    between atoms: C_52  and  C_56
   17  A    between atoms: C_52  and  O_58
                            x       y       z     vdW  Elec       q    Type
                         _______ _______ _______ _____ _____    ______ ____

>  <TORSDO>
F 17

$$$$
=
 OpenBabel10222420043D

 59 66  0  0  1  0  0  0  0  0999 V2000
  189.6040  176.2650  136.3470 C   0  0  0  0  0  2  0  0  0  0  0  0
  189.3680  178.5250  139.9850 C   0  0  0  0  0  3  0  0  0  0  0  0
  189.4300  177.5780  139.0550 C   0  0  0  0  0  0  0  0  0  0  0  0
  190.7910  176.4420  137.2230 C   0  0  0  0  0  0  0  0  0  0  0  0
  187.2100  177.8340  139.5270 C   0  0  0  0  0  3  0  0  0  0  0  0
  188.0490  177.1540  138.7590 C   0  0  0  0  0  0  0  0  0  0  0  0
  187.9590  178.7880  140.3870 C   0  0  0  0  0  2  0  0  0  0  0  0
  187.5390  176.1560  137.7470 C   0  0  2  0  0  3  0  0  0  0  0  0
  193.1900  176.1320  137.4450 C   0  0  0  0  0  0  0  0  0  0  0  0
  191.9350  177.2050  139.2350 C   0  0  0  0  0  0  0  0  0  0  0  0
  193.1470  176.7530  138.6920 C   0  0  0  0  0  3  0  0  0  0  0  0
  190.7250  177.0610  138.4970 C   0  0  0  0  0  0  0  0  0  0  0  0
  192.0100  175.9800  136.7200 C   0  0  0  0  0  3  0  0  0  0  0  0
  188.6080  175.3480  137.0250 C   0  0  0  0  0  2  0  0  0  0  0  0
  185.2080  176.3870  136.7990 N   0  0  0  0  0  2  0  0  0  0  0  0
  186.9670  177.6730  135.9780 O   0  0  0  0  0  0  0  0  0  0  0  0
  186.5760  176.7860  136.7840 C   0  0  0  0  0  0  0  0  0  0  0  0
  184.2360  177.1340  136.1180 N   0  0  0  0  0  2  0  0  0  0  0  0
  181.2750  175.5170  139.3560 C   0  0  0  0  0  2  0  0  0  0  0  0
  180.5970  177.2630  137.1400 C   0  0  0  0  0  2  0  0  0  0  0  0
  182.5380  174.5220  137.4370 O   0  0  0  0  0  0  0  0  0  0  0  0
  179.5380  176.2510  137.5940 C   0  0  0  0  0  2  0  0  0  0  0  0
  180.0360  175.1470  138.5390 C   0  0  0  0  0  2  0  0  0  0  0  0
  181.9140  175.1660  136.3260 C   0  0  0  0  0  2  0  0  0  0  0  0
  183.4040  176.6450  138.3520 C   0  0  2  0  0  3  0  0  0  0  0  0
  183.0890  177.2990  137.0040 C   0  0  2  0  0  3  0  0  0  0  0  0
  181.8190  176.7080  136.3870 C   0  0  2  0  0  3  0  0  0  0  0  0
  182.6110  175.3430  138.5940 C   0  0  1  0  0  3  0  0  0  0  0  0
  183.6890  179.0750  138.7300 S   0  0  0  0  0  1  0  0  0  0  0  0
  183.2210  177.5590  139.3920 O   0  0  0  0  0  0  0  0  0  0  0  0
  194.4640  175.6400  136.8970 C   0  0  0  0  0  0  0  0  0  0  0  0
  194.9440  176.1580  135.8520 O   0  0  0  0  0  0  0  0  0  0  0  0
  195.1290  174.5880  137.5340 O   0  0  0  0  0  0  0  0  0  0  0  0
  196.5500  174.4610  137.5240 C   0  0  2  0  0  3  0  0  0  0  0  0
  195.9990  172.5110  136.1270 O   0  0  0  0  0  0  0  0  0  0  0  0
  196.5760  171.8480  137.2310 C   0  0  1  0  0  0  0  0  0  0  0  0
  195.6820  171.7490  138.2830 F   0  0  0  0  0  0  0  0  0  0  0  0
  197.3220  170.6000  136.7960 C   0  0  0  0  0  1  0  0  0  0  0  0
  197.0370  173.1940  136.7940 C   0  0  2  0  0  0  0  0  0  0  0  0
  198.2570  174.4480  135.1560 O   0  0  0  0  0  1  0  0  0  0  0  0
  198.2890  173.2870  135.9320 C   0  0  0  0  0  2  0  0  0  0  0  0
  196.0760  174.8440  139.8480 O   0  0  0  0  0  1  0  0  0  0  0  0
  197.0950  174.5280  138.9460 C   0  0  0  0  0  2  0  0  0  0  0  0
  191.9190  177.7800  140.5150 O   0  0  0  0  0  0  0  0  0  0  0  0
  192.0490  177.0430  141.7280 C   0  0  0  0  0  2  0  0  0  0  0  0
  191.6140  177.8780  142.9260 C   0  0  0  0  0  2  0  0  0  0  0  0
  191.9210  177.2170  144.1210 O   0  0  0  0  0  0  0  0  0  0  0  0
  189.5120  177.2090  144.0030 C   0  0  0  0  0  2  0  0  0  0  0  0
  187.4270  178.3650  146.6520 O   0  0  0  0  0  0  0  0  0  0  0  0
  189.5030  177.5340  146.1980 C   0  0  2  0  0  3  0  0  0  0  0  0
  190.7910  176.4640  144.4560 C   0  0  2  0  0  3  0  0  0  0  0  0
  187.5360  178.1120  145.2460 C   0  0  1  0  0  3  0  0  0  0  0  0
  188.8540  178.0400  148.5620 C   0  0  0  0  0  2  0  0  0  0  0  0
  188.5920  177.9400  147.2670 C   0  0  0  0  0  0  0  0  0  0  0  0
  188.6220  177.1340  145.1390 N   0  0  1  0  0  0  0  0  0  0  0  0
  190.7390  176.2540  146.2950 S   0  0  0  0  0  0  0  0  0  0  0  0
  186.2270  177.5030  144.7540 C   0  0  0  0  0  2  0  0  0  0  0  0
  185.9560  177.8510  143.2970 C   0  0  0  0  0  2  0  0  0  0  0  0
  184.5070  178.2630  143.1110 C   0  0  0  0  0  1  0  0  0  0  0  0
  1 14  1  0  0  0  0
  1  4  1  0  0  0  0
  2  7  1  0  0  0  0
  3  2  2  0  0  0  0
  4 12  1  0  0  0  0
  5  7  1  0  0  0  0
  6  3  1  0  0  0  0
  6  5  2  0  0  0  0
  8 17  1  6  0  0  0
  8  6  1  0  0  0  0
  9 11  2  0  0  0  0
 10 44  1  0  0  0  0
 11 10  1  0  0  0  0
 12  3  1  0  0  0  0
 12 10  2  0  0  0  0
 13  4  2  0  0  0  0
 13  9  1  0  0  0  0
 14  8  1  0  0  0  0
 16 17  2  0  0  0  0
 17 15  1  0  0  0  0
 18 15  1  0  0  0  0
 20 22  1  0  0  0  0
 21 28  1  0  0  0  0
 22 23  1  0  0  0  0
 23 19  1  0  0  0  0
 24 21  1  0  0  0  0
 25 28  1  0  0  0  0
 25 30  1  1  0  0  0
 26 18  1  6  0  0  0
 26 25  1  0  0  0  0
 27 24  1  1  0  0  0
 27 26  1  0  0  0  0
 27 20  1  0  0  0  0
 28 19  1  6  0  0  0
 29 30  1  0  0  0  0
 31  9  1  0  0  0  0
 31 33  1  0  0  0  0
 32 31  2  0  0  0  0
 34 33  1  0  0  0  0
 34 43  1  1  0  0  0
 35 39  1  0  0  0  0
 35 36  1  0  0  0  0
 36 38  1  6  0  0  0
 36 37  1  0  0  0  0
 39 41  1  6  0  0  0
 39 36  1  0  0  0  0
 39 34  1  0  0  0  0
 40 41  1  0  0  0  0
 43 42  1  0  0  0  0
 44 45  1  0  0  0  0
 45 46  1  0  0  0  0
 46 47  1  0  0  0  0
 48 51  1  0  0  0  0
 49 54  1  0  0  0  0
 50 56  1  1  0  0  0
 50 54  1  0  0  0  0
 51 47  1  1  0  0  0
 51 56  1  0  0  0  0
 52 57  1  1  0  0  0
 52 49  1  0  0  0  0
 54 53  2  0  0  0  0
 55 48  1  6  0  0  0
 55 52  1  0  0  0  0
 55 50  1  0  0  0  0
 58 57  1  0  0  0  0
 59 58  1  0  0  0  0
M  END
>  <MODEL>
8

>  <REMARK>
 VINA RESULT:      -6.3      3.341     10.014
  Name = 
  17 active torsions:
  status: ('A' for Active; 'I' for Inactive)
    1  A    between atoms: C_4  and  C_19
    2  A    between atoms: C_4  and  O_20
    3  A    between atoms: C_4  and  C_54
    4  A    between atoms: C_6  and  C_28
    5  A    between atoms: C_6  and  C_30
    6  A    between atoms: N_7  and  N_59
    7  A    between atoms: C_10  and  O_20
    8  A    between atoms: C_10  and  C_36
    9  A    between atoms: C_14  and  C_54
   10  A    between atoms: C_27  and  O_58
   11  A    between atoms: C_32  and  O_38
   12  A    between atoms: C_35  and  C_45
   13  A    between atoms: C_39  and  O_46
   14  A    between atoms: C_40  and  N_59
   15  A    between atoms: O_46  and  C_56
   16  A    between atoms: C_52  and  C_56
   17  A    between atoms: C_52  and  O_58
                            x       y       z     vdW  Elec       q    Type
                         _______ _______ _______ _____ _____    ______ ____

>  <TORSDO>
F 17

$$$$
=
 OpenBabel10222420043D

 59 66  0  0  1  0  0  0  0  0999 V2000
  188.5740  174.2270  135.7240 C   0  0  0  0  0  2  0  0  0  0  0  0
  189.3230  177.8070  137.9660 C   0  0  0  0  0  3  0  0  0  0  0  0
  189.0930  176.5630  137.5580 C   0  0  0  0  0  0  0  0  0  0  0  0
  189.9250  174.5310  136.2630 C   0  0  0  0  0  0  0  0  0  0  0  0
  187.0550  177.4030  138.1550 C   0  0  0  0  0  3  0  0  0  0  0  0
  187.6430  176.3200  137.6680 C   0  0  0  0  0  0  0  0  0  0  0  0
  188.0610  178.4720  138.3920 C   0  0  0  0  0  2  0  0  0  0  0  0
  186.8330  175.1040  137.2850 C   0  0  2  0  0  3  0  0  0  0  0  0
  192.2710  173.9010  136.2810 C   0  0  0  0  0  0  0  0  0  0  0  0
  191.5270  175.8400  137.5520 C   0  0  0  0  0  0  0  0  0  0  0  0
  192.5480  174.9840  137.1120 C   0  0  0  0  0  3  0  0  0  0  0  0
  190.1850  175.6280  137.1230 C   0  0  0  0  0  0  0  0  0  0  0  0
  190.9600  173.6820  135.8630 C   0  0  0  0  0  3  0  0  0  0  0  0
  187.6400  173.8840  136.8650 C   0  0  0  0  0  2  0  0  0  0  0  0
  184.4120  175.1220  136.5630 N   0  0  0  0  0  2  0  0  0  0  0  0
  186.0740  176.0120  135.1980 O   0  0  0  0  0  0  0  0  0  0  0  0
  185.7710  175.4390  136.2790 C   0  0  0  0  0  0  0  0  0  0  0  0
  183.3730  175.6570  135.7870 N   0  0  0  0  0  2  0  0  0  0  0  0
  179.8710  178.0470  137.7600 C   0  0  0  0  0  2  0  0  0  0  0  0
  181.3290  175.8460  138.9640 C   0  0  0  0  0  2  0  0  0  0  0  0
  182.2490  178.5400  137.1560 O   0  0  0  0  0  0  0  0  0  0  0  0
  180.8300  176.9580  139.8940 C   0  0  0  0  0  2  0  0  0  0  0  0
  180.3510  178.2410  139.1990 C   0  0  0  0  0  2  0  0  0  0  0  0
  182.9510  177.6680  138.0430 C   0  0  0  0  0  2  0  0  0  0  0  0
  181.1670  176.6710  135.9600 C   0  0  2  0  0  3  0  0  0  0  0  0
  182.1770  175.7280  136.6190 C   0  0  2  0  0  3  0  0  0  0  0  0
  182.5140  176.1850  138.0410 C   0  0  2  0  0  3  0  0  0  0  0  0
  181.0080  178.0100  136.7110 C   0  0  1  0  0  3  0  0  0  0  0  0
  180.3460  174.4100  135.3790 S   0  0  0  0  0  1  0  0  0  0  0  0
  179.9390  176.0280  135.7890 O   0  0  0  0  0  0  0  0  0  0  0  0
  193.3470  172.9960  135.8450 C   0  0  0  0  0  0  0  0  0  0  0  0
  193.1670  171.7490  135.8560 O   0  0  0  0  0  0  0  0  0  0  0  0
  194.5730  173.5300  135.4350 O   0  0  0  0  0  0  0  0  0  0  0  0
  195.8230  173.0140  135.8860 C   0  0  2  0  0  3  0  0  0  0  0  0
  197.1970  173.0100  137.9290 O   0  0  0  0  0  0  0  0  0  0  0  0
  195.9880  173.5050  138.4640 C   0  0  1  0  0  0  0  0  0  0  0  0
  195.0810  172.4840  138.6890 F   0  0  0  0  0  0  0  0  0  0  0  0
  196.2470  174.5010  139.5800 C   0  0  0  0  0  1  0  0  0  0  0  0
  196.4110  173.8070  137.0700 C   0  0  2  0  0  0  0  0  0  0  0  0
  198.4660  175.0160  136.8250 O   0  0  0  0  0  1  0  0  0  0  0  0
  197.0760  175.1480  136.7880 C   0  0  0  0  0  2  0  0  0  0  0  0
  197.3130  171.6360  134.5990 O   0  0  0  0  0  1  0  0  0  0  0  0
  196.8100  172.9340  134.7270 C   0  0  0  0  0  2  0  0  0  0  0  0
  191.8310  176.8910  138.4300 O   0  0  0  0  0  0  0  0  0  0  0  0
  192.8220  176.8220  139.4520 C   0  0  0  0  0  2  0  0  0  0  0  0
  192.2090  177.0500  140.8280 C   0  0  0  0  0  2  0  0  0  0  0  0
  190.9280  177.6010  140.7090 O   0  0  0  0  0  0  0  0  0  0  0  0
  188.8240  177.5260  141.8840 C   0  0  0  0  0  2  0  0  0  0  0  0
  188.5540  177.8690  145.4210 O   0  0  0  0  0  0  0  0  0  0  0  0
  189.9910  177.2690  143.7540 C   0  0  2  0  0  3  0  0  0  0  0  0
  190.0650  176.7420  141.3970 C   0  0  2  0  0  3  0  0  0  0  0  0
  187.8890  177.9940  144.1590 C   0  0  1  0  0  3  0  0  0  0  0  0
  190.7230  177.1170  146.1430 C   0  0  0  0  0  2  0  0  0  0  0  0
  189.8170  177.3460  145.2040 C   0  0  0  0  0  0  0  0  0  0  0  0
  188.6520  177.1230  143.2610 N   0  0  1  0  0  0  0  0  0  0  0  0
  190.9560  176.0590  142.8700 S   0  0  0  0  0  0  0  0  0  0  0  0
  186.4600  177.4820  144.3040 C   0  0  0  0  0  2  0  0  0  0  0  0
  185.4640  178.6240  144.4550 C   0  0  0  0  0  2  0  0  0  0  0  0
  184.3380  178.4820  143.4470 C   0  0  0  0  0  1  0  0  0  0  0  0
  1  4  1  0  0  0  0
  1 14  1  0  0  0  0
  2  7  1  0  0  0  0
  3  6  1  0  0  0  0
  3  2  2  0  0  0  0
  4 12  1  0  0  0  0
  5  7  1  0  0  0  0
  6  5  2  0  0  0  0
  8 17  1  6  0  0  0
  8  6  1  0  0  0  0
  9 11  2  0  0  0  0
 10 44  1  0  0  0  0
 11 10  1  0  0  0  0
 12 10  2  0  0  0  0
 12  3  1  0  0  0  0
 13  4  2  0  0  0  0
 13  9  1  0  0  0  0
 14  8  1  0  0  0  0
 16 17  2  0  0  0  0
 17 15  1  0  0  0  0
 18 15  1  0  0  0  0
 19 23  1  0  0  0  0
 20 22  1  0  0  0  0
 21 24  1  0  0  0  0
 23 22  1  0  0  0  0
 25 30  1  1  0  0  0
 25 26  1  0  0  0  0
 25 28  1  0  0  0  0
 26 18  1  6  0  0  0
 26 27  1  0  0  0  0
 27 24  1  6  0  0  0
 27 20  1  0  0  0  0
 28 21  1  0  0  0  0
 28 19  1  1  0  0  0
 29 30  1  0  0  0  0
 31 32  2  0  0  0  0
 31  9  1  0  0  0  0
 33 31  1  0  0  0  0
 33 34  1  0  0  0  0
 34 43  1  6  0  0  0
 34 39  1  0  0  0  0
 35 36  1  0  0  0  0
 36 37  1  0  0  0  0
 36 38  1  1  0  0  0
 39 41  1  6  0  0  0
 39 35  1  0  0  0  0
 39 36  1  0  0  0  0
 41 40  1  0  0  0  0
 42 43  1  0  0  0  0
 44 45  1  0  0  0  0
 45 46  1  0  0  0  0
 47 46  1  0  0  0  0
 50 56  1  1  0  0  0
 50 54  1  0  0  0  0
 51 47  1  1  0  0  0
 51 48  1  0  0  0  0
 51 56  1  0  0  0  0
 52 57  1  1  0  0  0
 52 49  1  0  0  0  0
 54 49  1  0  0  0  0
 54 53  2  0  0  0  0
 55 48  1  6  0  0  0
 55 50  1  0  0  0  0
 55 52  1  0  0  0  0
 57 58  1  0  0  0  0
 59 58  1  0  0  0  0
M  END
>  <MODEL>
9

>  <REMARK>
 VINA RESULT:      -6.1      3.421     10.165
  Name = 
  17 active torsions:
  status: ('A' for Active; 'I' for Inactive)
    1  A    between atoms: C_4  and  C_19
    2  A    between atoms: C_4  and  O_20
    3  A    between atoms: C_4  and  C_54
    4  A    between atoms: C_6  and  C_28
    5  A    between atoms: C_6  and  C_30
    6  A    between atoms: N_7  and  N_59
    7  A    between atoms: C_10  and  O_20
    8  A    between atoms: C_10  and  C_36
    9  A    between atoms: C_14  and  C_54
   10  A    between atoms: C_27  and  O_58
   11  A    between atoms: C_32  and  O_38
   12  A    between atoms: C_35  and  C_45
   13  A    between atoms: C_39  and  O_46
   14  A    between atoms: C_40  and  N_59
   15  A    between atoms: O_46  and  C_56
   16  A    between atoms: C_52  and  C_56
   17  A    between atoms: C_52  and  O_58
                            x       y       z     vdW  Elec       q    Type
                         _______ _______ _______ _____ _____    ______ ____

>  <TORSDO>
F 17

$$$$
