=
 OpenBabel10222415543D

 29 31  0  0  0  0  0  0  0  0999 V2000
  190.0310  177.4550  140.3160 N   0  0  0  0  0  0  0  0  0  0  0  0
  189.5910  177.0860  141.4870 C   0  0  0  0  0  0  0  0  0  0  0  0
  183.4350  178.8920  144.9370 C   0  0  0  0  0  1  0  0  0  0  0  0
  185.2460  179.2460  141.6770 C   0  0  0  0  0  3  0  0  0  0  0  0
  186.4090  178.5380  141.9540 C   0  0  0  0  0  0  0  0  0  0  0  0
  188.2820  177.5800  141.9420 C   0  0  0  0  0  0  0  0  0  0  0  0
  186.6080  177.9580  143.1640 C   0  0  0  0  0  0  0  0  0  0  0  0
  184.3090  179.3380  142.6660 N   0  0  0  0  0  0  0  0  0  0  0  0
  187.7950  177.3370  143.1900 N   0  0  0  0  0  0  0  0  0  0  0  0
  184.4890  178.7590  143.8970 C   0  0  0  0  0  0  0  0  0  0  0  0
  185.6650  178.0420  144.1830 C   0  0  0  0  0  3  0  0  0  0  0  0
  187.4570  178.3170  141.1480 N   0  0  0  0  0  2  0  0  0  0  0  0
  191.3830  176.0780  138.3620 S   0  0  0  0  0  0  0  0  0  0  0  0
  192.5510  177.5200  140.0490 C   0  0  0  0  0  3  0  0  0  0  0  0
  191.2730  177.1050  139.6850 C   0  0  0  0  0  0  0  0  0  0  0  0
  193.0600  176.2020  138.2950 C   0  0  0  0  0  0  0  0  0  0  0  0
  193.5410  177.0120  139.2650 N   0  0  0  0  0  0  0  0  0  0  0  0
  194.5790  176.1900  136.4840 O   0  0  0  0  0  0  0  0  0  0  0  0
  193.9080  175.5220  137.3130 C   0  0  0  0  0  0  0  0  0  0  0  0
  193.9730  174.1680  137.2930 F   0  0  0  0  0  0  0  0  0  0  0  0
  190.3940  176.2220  142.4090 C   0  0  0  0  0  2  0  0  0  0  0  0
  192.0040  178.0420  145.1360 O   0  0  0  0  0  0  0  0  0  0  0  0
  190.0350  176.7890  145.2480 N   0  0  0  0  0  2  0  0  0  0  0  0
  191.1600  177.3230  144.5390 C   0  0  0  0  0  0  0  0  0  0  0  0
  191.3370  177.0420  143.1520 N   0  0  0  0  0  2  0  0  0  0  0  0
  189.7920  177.0630  146.6550 C   0  0  0  0  0  2  0  0  0  0  0  0
  188.3010  177.2110  146.9070 C   0  0  0  0  0  2  0  0  0  0  0  0
  189.2530  178.3810  148.7560 O   0  0  0  0  0  1  0  0  0  0  0  0
  188.0560  178.1410  148.0810 C   0  0  0  0  0  2  0  0  0  0  0  0
  1  2  2  0  0  0  0
  2  6  1  0  0  0  0
  2 21  1  0  0  0  0
  4  5  2  0  0  0  0
  4  8  1  0  0  0  0
  5  7  1  0  0  0  0
  6  9  2  0  0  0  0
  7  9  1  0  0  0  0
  7 11  2  0  0  0  0
  8 10  2  0  0  0  0
 10 11  1  0  0  0  0
 10  3  1  0  0  0  0
 12  6  1  0  0  0  0
 12  5  1  0  0  0  0
 13 15  1  0  0  0  0
 15 14  2  0  0  0  0
 15  1  1  0  0  0  0
 16 13  1  0  0  0  0
 16 17  2  0  0  0  0
 17 14  1  0  0  0  0
 18 19  2  0  0  0  0
 19 16  1  0  0  0  0
 20 19  1  0  0  0  0
 21 25  1  0  0  0  0
 23 26  1  0  0  0  0
 24 22  2  0  0  0  0
 24 23  1  0  0  0  0
 25 24  1  0  0  0  0
 26 27  1  0  0  0  0
 27 29  1  0  0  0  0
 29 28  1  0  0  0  0
M  END
>  <MODEL>
1

>  <REMARK>
 VINA RESULT:      -7.8      0.000      0.000
  Name = 
  8 active torsions:
  status: ('A' for Active; 'I' for Inactive)
    1  A    between atoms: C_6  and  C_17
    2  A    between atoms: N_7  and  C_12
    3  A    between atoms: N_8  and  C_22
    4  A    between atoms: C_10  and  C_17
    5  A    between atoms: C_10  and  N_18
    6  A    between atoms: C_12  and  C_20
    7  A    between atoms: C_20  and  C_23
    8  A    between atoms: C_21  and  C_26
                            x       y       z     vdW  Elec       q    Type
                         _______ _______ _______ _____ _____    ______ ____

>  <TORSDO>
F 8

$$$$
=
 OpenBabel10222415543D

 29 31  0  0  0  0  0  0  0  0999 V2000
  189.2230  177.6050  140.5920 N   0  0  0  0  0  0  0  0  0  0  0  0
  188.6740  178.1220  141.6550 C   0  0  0  0  0  0  0  0  0  0  0  0
  192.3350  175.8600  147.5320 C   0  0  0  0  0  1  0  0  0  0  0  0
  189.0100  177.1640  146.4040 C   0  0  0  0  0  3  0  0  0  0  0  0
  189.2480  177.3270  145.0440 C   0  0  0  0  0  0  0  0  0  0  0  0
  189.1740  177.7200  142.9800 C   0  0  0  0  0  0  0  0  0  0  0  0
  190.4530  177.0230  144.5010 C   0  0  0  0  0  0  0  0  0  0  0  0
  190.0320  176.6880  147.1750 N   0  0  0  0  0  0  0  0  0  0  0  0
  190.4400  177.2630  143.1830 N   0  0  0  0  0  0  0  0  0  0  0  0
  191.2580  176.3740  146.6460 C   0  0  0  0  0  0  0  0  0  0  0  0
  191.5050  176.5380  145.2700 C   0  0  0  0  0  3  0  0  0  0  0  0
  188.4070  177.7750  144.1030 N   0  0  0  0  0  2  0  0  0  0  0  0
  188.1690  176.6970  138.2230 S   0  0  0  0  0  0  0  0  0  0  0  0
  189.1060  179.0090  138.4840 C   0  0  0  0  0  3  0  0  0  0  0  0
  188.8880  177.8450  139.2150 C   0  0  0  0  0  0  0  0  0  0  0  0
  188.1540  177.7290  136.8940 C   0  0  0  0  0  0  0  0  0  0  0  0
  188.6910  178.9340  137.1900 N   0  0  0  0  0  0  0  0  0  0  0  0
  187.1160  178.2630  134.8390 O   0  0  0  0  0  0  0  0  0  0  0  0
  187.6290  177.3780  135.5730 C   0  0  0  0  0  0  0  0  0  0  0  0
  187.6930  176.0980  135.1330 F   0  0  0  0  0  0  0  0  0  0  0  0
  187.5160  179.0690  141.5810 C   0  0  0  0  0  2  0  0  0  0  0  0
  184.0850  177.8220  141.6950 O   0  0  0  0  0  0  0  0  0  0  0  0
  185.0670  179.3780  143.1340 N   0  0  0  0  0  2  0  0  0  0  0  0
  185.1070  178.4830  142.0170 C   0  0  0  0  0  0  0  0  0  0  0  0
  186.3040  178.3350  141.2550 N   0  0  0  0  0  2  0  0  0  0  0  0
  183.8820  179.5500  143.9610 C   0  0  0  0  0  2  0  0  0  0  0  0
  184.0540  178.8110  145.2770 C   0  0  0  0  0  2  0  0  0  0  0  0
  185.5740  179.4400  147.0060 O   0  0  0  0  0  1  0  0  0  0  0  0
  185.5000  178.8770  145.7320 C   0  0  0  0  0  2  0  0  0  0  0  0
  1  2  2  0  0  0  0
  2  6  1  0  0  0  0
  4  8  1  0  0  0  0
  5  4  2  0  0  0  0
  6  9  2  0  0  0  0
  6 12  1  0  0  0  0
  7  5  1  0  0  0  0
  7 11  2  0  0  0  0
  9  7  1  0  0  0  0
 10  8  2  0  0  0  0
 10  3  1  0  0  0  0
 11 10  1  0  0  0  0
 12  5  1  0  0  0  0
 13 15  1  0  0  0  0
 14 15  2  0  0  0  0
 15  1  1  0  0  0  0
 16 17  2  0  0  0  0
 16 13  1  0  0  0  0
 17 14  1  0  0  0  0
 18 19  2  0  0  0  0
 19 16  1  0  0  0  0
 20 19  1  0  0  0  0
 21  2  1  0  0  0  0
 22 24  2  0  0  0  0
 23 26  1  0  0  0  0
 24 23  1  0  0  0  0
 25 21  1  0  0  0  0
 25 24  1  0  0  0  0
 26 27  1  0  0  0  0
 27 29  1  0  0  0  0
 29 28  1  0  0  0  0
M  END
>  <MODEL>
2

>  <REMARK>
 VINA RESULT:      -7.7      3.356      5.587
  Name = 
  8 active torsions:
  status: ('A' for Active; 'I' for Inactive)
    1  A    between atoms: C_6  and  C_17
    2  A    between atoms: N_7  and  C_12
    3  A    between atoms: N_8  and  C_22
    4  A    between atoms: C_10  and  C_17
    5  A    between atoms: C_10  and  N_18
    6  A    between atoms: C_12  and  C_20
    7  A    between atoms: C_20  and  C_23
    8  A    between atoms: C_21  and  C_26
                            x       y       z     vdW  Elec       q    Type
                         _______ _______ _______ _____ _____    ______ ____

>  <TORSDO>
F 8

$$$$
=
 OpenBabel10222415543D

 29 31  0  0  0  0  0  0  0  0999 V2000
  188.1480  177.2870  141.7880 N   0  0  0  0  0  0  0  0  0  0  0  0
  189.4300  177.5070  141.7130 C   0  0  0  0  0  0  0  0  0  0  0  0
  194.0900  176.0920  136.2960 C   0  0  0  0  0  1  0  0  0  0  0  0
  190.4460  176.1540  137.1620 C   0  0  0  0  0  3  0  0  0  0  0  0
  190.5060  176.5690  138.4870 C   0  0  0  0  0  0  0  0  0  0  0  0
  190.1390  177.1630  140.4710 C   0  0  0  0  0  0  0  0  0  0  0  0
  191.6940  176.8240  139.0900 C   0  0  0  0  0  0  0  0  0  0  0  0
  191.6250  176.0120  136.4880 N   0  0  0  0  0  0  0  0  0  0  0  0
  191.4960  177.2060  140.3590 N   0  0  0  0  0  0  0  0  0  0  0  0
  192.8370  176.2640  137.0780 C   0  0  0  0  0  0  0  0  0  0  0  0
  192.9040  176.6840  138.4200 C   0  0  0  0  0  3  0  0  0  0  0  0
  189.4920  176.7750  139.3380 N   0  0  0  0  0  2  0  0  0  0  0  0
  185.9570  178.5810  142.8240 S   0  0  0  0  0  0  0  0  0  0  0  0
  187.3500  176.9930  144.1770 C   0  0  0  0  0  3  0  0  0  0  0  0
  187.2680  177.5350  142.8970 C   0  0  0  0  0  0  0  0  0  0  0  0
  185.5350  178.3020  144.4290 C   0  0  0  0  0  0  0  0  0  0  0  0
  186.3770  177.4260  145.0240 N   0  0  0  0  0  0  0  0  0  0  0  0
  184.2620  178.8010  146.3580 O   0  0  0  0  0  0  0  0  0  0  0  0
  184.3990  178.9240  145.1130 C   0  0  0  0  0  0  0  0  0  0  0  0
  183.4860  179.6360  144.4060 F   0  0  0  0  0  0  0  0  0  0  0  0
  190.2200  178.0480  142.8660 C   0  0  0  0  0  2  0  0  0  0  0  0
  191.9420  175.7800  145.1540 O   0  0  0  0  0  0  0  0  0  0  0  0
  190.3010  177.3520  145.6970 N   0  0  0  0  0  2  0  0  0  0  0  0
  191.1520  176.6790  144.7620 C   0  0  0  0  0  0  0  0  0  0  0  0
  191.1090  177.0160  143.3770 N   0  0  0  0  0  2  0  0  0  0  0  0
  190.3200  177.0660  147.1230 C   0  0  0  0  0  2  0  0  0  0  0  0
  188.9020  176.8960  147.6400 C   0  0  0  0  0  2  0  0  0  0  0  0
  187.3490  178.6630  148.0360 O   0  0  0  0  0  1  0  0  0  0  0  0
  188.5170  178.0720  148.5170 C   0  0  0  0  0  2  0  0  0  0  0  0
  1 15  1  0  0  0  0
  2  1  2  0  0  0  0
  2 21  1  0  0  0  0
  3 10  1  0  0  0  0
  4  5  1  0  0  0  0
  5  7  2  0  0  0  0
  5 12  1  0  0  0  0
  6  2  1  0  0  0  0
  7  9  1  0  0  0  0
  8 10  1  0  0  0  0
  8  4  2  0  0  0  0
  9  6  2  0  0  0  0
 10 11  2  0  0  0  0
 11  7  1  0  0  0  0
 12  6  1  0  0  0  0
 13 15  1  0  0  0  0
 13 16  1  0  0  0  0
 14 17  1  0  0  0  0
 15 14  2  0  0  0  0
 16 17  2  0  0  0  0
 16 19  1  0  0  0  0
 19 18  2  0  0  0  0
 20 19  1  0  0  0  0
 21 25  1  0  0  0  0
 23 26  1  0  0  0  0
 24 22  2  0  0  0  0
 24 23  1  0  0  0  0
 25 24  1  0  0  0  0
 26 27  1  0  0  0  0
 27 29  1  0  0  0  0
 28 29  1  0  0  0  0
M  END
>  <MODEL>
3

>  <REMARK>
 VINA RESULT:      -7.5      3.663      7.370
  Name = 
  8 active torsions:
  status: ('A' for Active; 'I' for Inactive)
    1  A    between atoms: C_6  and  C_17
    2  A    between atoms: N_7  and  C_12
    3  A    between atoms: N_8  and  C_22
    4  A    between atoms: C_10  and  C_17
    5  A    between atoms: C_10  and  N_18
    6  A    between atoms: C_12  and  C_20
    7  A    between atoms: C_20  and  C_23
    8  A    between atoms: C_21  and  C_26
                            x       y       z     vdW  Elec       q    Type
                         _______ _______ _______ _____ _____    ______ ____

>  <TORSDO>
F 8

$$$$
=
 OpenBabel10222415543D

 29 31  0  0  0  0  0  0  0  0999 V2000
  189.3430  176.7030  142.2510 N   0  0  0  0  0  0  0  0  0  0  0  0
  189.2800  177.4440  141.1810 C   0  0  0  0  0  0  0  0  0  0  0  0
  191.7500  175.1190  134.7350 C   0  0  0  0  0  1  0  0  0  0  0  0
  192.8600  176.4640  138.0500 C   0  0  0  0  0  3  0  0  0  0  0  0
  191.6330  176.6290  138.6810 C   0  0  0  0  0  0  0  0  0  0  0  0
  190.0330  177.0310  139.9860 C   0  0  0  0  0  0  0  0  0  0  0  0
  190.4720  176.3150  138.0540 C   0  0  0  0  0  0  0  0  0  0  0  0
  192.8560  175.9730  136.7750 N   0  0  0  0  0  0  0  0  0  0  0  0
  189.4300  176.5590  138.8600 N   0  0  0  0  0  0  0  0  0  0  0  0
  191.6940  175.6490  136.1220 C   0  0  0  0  0  0  0  0  0  0  0  0
  190.4490  175.8150  136.7570 C   0  0  0  0  0  3  0  0  0  0  0  0
  191.3910  177.0900  139.9160 N   0  0  0  0  0  2  0  0  0  0  0  0
  189.5200  177.4420  144.8910 S   0  0  0  0  0  0  0  0  0  0  0  0
  187.3610  176.7320  143.8320 C   0  0  0  0  0  3  0  0  0  0  0  0
  188.7040  176.9210  143.5200 C   0  0  0  0  0  0  0  0  0  0  0  0
  188.1280  177.4130  145.8360 C   0  0  0  0  0  0  0  0  0  0  0  0
  187.0500  177.0110  145.1270 N   0  0  0  0  0  0  0  0  0  0  0  0
  187.0550  178.3390  147.7280 O   0  0  0  0  0  0  0  0  0  0  0  0
  188.0760  177.7760  147.2540 C   0  0  0  0  0  0  0  0  0  0  0  0
  189.1290  177.5060  148.0650 F   0  0  0  0  0  0  0  0  0  0  0  0
  188.5140  178.7300  141.1390 C   0  0  0  0  0  2  0  0  0  0  0  0
  185.0700  178.6050  139.9260 O   0  0  0  0  0  0  0  0  0  0  0  0
  185.7810  179.0530  142.1060 N   0  0  0  0  0  2  0  0  0  0  0  0
  186.0300  178.7420  140.7310 C   0  0  0  0  0  0  0  0  0  0  0  0
  187.3660  178.5880  140.2570 N   0  0  0  0  0  2  0  0  0  0  0  0
  184.4390  179.1960  142.6480 C   0  0  0  0  0  2  0  0  0  0  0  0
  184.5060  179.7150  144.0750 C   0  0  0  0  0  2  0  0  0  0  0  0
  184.1480  178.8830  146.2820 O   0  0  0  0  0  1  0  0  0  0  0  0
  183.6380  178.8650  144.9840 C   0  0  0  0  0  2  0  0  0  0  0  0
  1 15  1  0  0  0  0
  2  1  2  0  0  0  0
  3 10  1  0  0  0  0
  4  5  1  0  0  0  0
  5 12  1  0  0  0  0
  6  2  1  0  0  0  0
  7  5  2  0  0  0  0
  7  9  1  0  0  0  0
  8  4  2  0  0  0  0
  9  6  2  0  0  0  0
 10 11  2  0  0  0  0
 10  8  1  0  0  0  0
 11  7  1  0  0  0  0
 12  6  1  0  0  0  0
 13 16  1  0  0  0  0
 14 17  1  0  0  0  0
 15 14  2  0  0  0  0
 15 13  1  0  0  0  0
 16 19  1  0  0  0  0
 17 16  2  0  0  0  0
 19 18  2  0  0  0  0
 19 20  1  0  0  0  0
 21  2  1  0  0  0  0
 22 24  2  0  0  0  0
 23 26  1  0  0  0  0
 24 23  1  0  0  0  0
 25 24  1  0  0  0  0
 25 21  1  0  0  0  0
 26 27  1  0  0  0  0
 27 29  1  0  0  0  0
 29 28  1  0  0  0  0
M  END
>  <MODEL>
4

>  <REMARK>
 VINA RESULT:      -7.3      3.755      7.888
  Name = 
  8 active torsions:
  status: ('A' for Active; 'I' for Inactive)
    1  A    between atoms: C_6  and  C_17
    2  A    between atoms: N_7  and  C_12
    3  A    between atoms: N_8  and  C_22
    4  A    between atoms: C_10  and  C_17
    5  A    between atoms: C_10  and  N_18
    6  A    between atoms: C_12  and  C_20
    7  A    between atoms: C_20  and  C_23
    8  A    between atoms: C_21  and  C_26
                            x       y       z     vdW  Elec       q    Type
                         _______ _______ _______ _____ _____    ______ ____

>  <TORSDO>
F 8

$$$$
=
 OpenBabel10222415543D

 29 31  0  0  0  0  0  0  0  0999 V2000
  186.3750  178.0450  145.4530 N   0  0  0  0  0  0  0  0  0  0  0  0
  186.1350  177.9180  144.1780 C   0  0  0  0  0  0  0  0  0  0  0  0
  179.2080  179.8400  143.0030 C   0  0  0  0  0  1  0  0  0  0  0  0
  182.3430  178.7560  141.2630 C   0  0  0  0  0  3  0  0  0  0  0  0
  183.1980  178.6070  142.3480 C   0  0  0  0  0  0  0  0  0  0  0  0
  184.7980  178.2630  143.6690 C   0  0  0  0  0  0  0  0  0  0  0  0
  182.7750  178.8500  143.6140 C   0  0  0  0  0  0  0  0  0  0  0  0
  181.0610  179.1550  141.5150 N   0  0  0  0  0  0  0  0  0  0  0  0
  183.7730  178.6390  144.4830 N   0  0  0  0  0  0  0  0  0  0  0  0
  180.6130  179.4060  142.7870 C   0  0  0  0  0  0  0  0  0  0  0  0
  181.4750  179.2580  143.8900 C   0  0  0  0  0  3  0  0  0  0  0  0
  184.4830  178.2300  142.3450 N   0  0  0  0  0  2  0  0  0  0  0  0
  189.0160  177.2900  145.3990 S   0  0  0  0  0  0  0  0  0  0  0  0
  187.8020  177.7950  147.5340 C   0  0  0  0  0  3  0  0  0  0  0  0
  187.5940  177.7580  146.1580 C   0  0  0  0  0  0  0  0  0  0  0  0
  189.8510  177.1570  146.8540 C   0  0  0  0  0  0  0  0  0  0  0  0
  189.0650  177.4600  147.9120 N   0  0  0  0  0  0  0  0  0  0  0  0
  191.9300  177.1160  147.9780 O   0  0  0  0  0  0  0  0  0  0  0  0
  191.2560  176.7620  146.9760 C   0  0  0  0  0  0  0  0  0  0  0  0
  191.8380  176.0120  146.0080 F   0  0  0  0  0  0  0  0  0  0  0  0
  187.1530  177.3830  143.2190 C   0  0  0  0  0  2  0  0  0  0  0  0
  188.3370  178.9550  140.1410 O   0  0  0  0  0  0  0  0  0  0  0  0
  189.3870  177.2520  141.3470 N   0  0  0  0  0  2  0  0  0  0  0  0
  188.3200  178.1840  141.1370 C   0  0  0  0  0  0  0  0  0  0  0  0
  187.2260  178.2450  142.0500 N   0  0  0  0  0  2  0  0  0  0  0  0
  190.5380  177.1640  140.4630 C   0  0  0  0  0  2  0  0  0  0  0  0
  191.8100  177.4870  141.2300 C   0  0  0  0  0  2  0  0  0  0  0  0
  191.7200  178.4120  143.4270 O   0  0  0  0  0  1  0  0  0  0  0  0
  191.6130  177.2200  142.7100 C   0  0  0  0  0  2  0  0  0  0  0  0
  1 15  1  0  0  0  0
  2  1  2  0  0  0  0
  4  8  2  0  0  0  0
  4  5  1  0  0  0  0
  5  7  2  0  0  0  0
  6  2  1  0  0  0  0
  6  9  2  0  0  0  0
  7 11  1  0  0  0  0
  7  9  1  0  0  0  0
  8 10  1  0  0  0  0
 10  3  1  0  0  0  0
 10 11  2  0  0  0  0
 12  5  1  0  0  0  0
 12  6  1  0  0  0  0
 13 15  1  0  0  0  0
 13 16  1  0  0  0  0
 14 17  1  0  0  0  0
 15 14  2  0  0  0  0
 16 19  1  0  0  0  0
 16 17  2  0  0  0  0
 19 18  2  0  0  0  0
 20 19  1  0  0  0  0
 21  2  1  0  0  0  0
 22 24  2  0  0  0  0
 24 23  1  0  0  0  0
 24 25  1  0  0  0  0
 25 21  1  0  0  0  0
 26 27  1  0  0  0  0
 26 23  1  0  0  0  0
 27 29  1  0  0  0  0
 29 28  1  0  0  0  0
M  END
>  <MODEL>
5

>  <REMARK>
 VINA RESULT:      -7.2      3.309      6.365
  Name = 
  8 active torsions:
  status: ('A' for Active; 'I' for Inactive)
    1  A    between atoms: C_6  and  C_17
    2  A    between atoms: N_7  and  C_12
    3  A    between atoms: N_8  and  C_22
    4  A    between atoms: C_10  and  C_17
    5  A    between atoms: C_10  and  N_18
    6  A    between atoms: C_12  and  C_20
    7  A    between atoms: C_20  and  C_23
    8  A    between atoms: C_21  and  C_26
                            x       y       z     vdW  Elec       q    Type
                         _______ _______ _______ _____ _____    ______ ____

>  <TORSDO>
F 8

$$$$
=
 OpenBabel10222415543D

 29 31  0  0  0  0  0  0  0  0999 V2000
  187.7740  177.8260  144.6490 N   0  0  0  0  0  0  0  0  0  0  0  0
  187.3310  177.7550  143.4250 C   0  0  0  0  0  0  0  0  0  0  0  0
  180.2730  179.5560  143.4900 C   0  0  0  0  0  1  0  0  0  0  0  0
  183.0980  178.6280  141.2110 C   0  0  0  0  0  3  0  0  0  0  0  0
  184.1220  178.4520  142.1340 C   0  0  0  0  0  0  0  0  0  0  0  0
  185.9230  178.0890  143.1580 C   0  0  0  0  0  0  0  0  0  0  0  0
  183.9090  178.6280  143.4620 C   0  0  0  0  0  0  0  0  0  0  0  0
  181.8690  178.9850  141.6880 N   0  0  0  0  0  0  0  0  0  0  0  0
  185.0390  178.4030  144.1450 N   0  0  0  0  0  0  0  0  0  0  0  0
  181.6310  179.1680  143.0270 C   0  0  0  0  0  0  0  0  0  0  0  0
  182.6650  178.9910  143.9650 C   0  0  0  0  0  3  0  0  0  0  0  0
  185.3960  178.1070  141.9030 N   0  0  0  0  0  2  0  0  0  0  0  0
  189.4030  176.8250  146.6210 S   0  0  0  0  0  0  0  0  0  0  0  0
  190.3040  177.7980  144.4920 C   0  0  0  0  0  3  0  0  0  0  0  0
  189.0960  177.5370  145.1320 C   0  0  0  0  0  0  0  0  0  0  0  0
  191.0700  176.8700  146.3950 C   0  0  0  0  0  0  0  0  0  0  0  0
  191.4000  177.4200  145.2050 N   0  0  0  0  0  0  0  0  0  0  0  0
  192.2490  176.9960  148.4400 O   0  0  0  0  0  0  0  0  0  0  0  0
  192.0550  176.3780  147.3610 C   0  0  0  0  0  0  0  0  0  0  0  0
  192.7650  175.2530  147.0970 F   0  0  0  0  0  0  0  0  0  0  0  0
  188.1880  177.2930  142.2870 C   0  0  0  0  0  2  0  0  0  0  0  0
  189.0570  179.3140  139.3700 O   0  0  0  0  0  0  0  0  0  0  0  0
  188.5680  177.0300  139.4070 N   0  0  0  0  0  2  0  0  0  0  0  0
  188.7400  178.3000  140.0460 C   0  0  0  0  0  0  0  0  0  0  0  0
  188.5500  178.4290  141.4540 N   0  0  0  0  0  2  0  0  0  0  0  0
  188.7730  176.8350  137.9800 C   0  0  0  0  0  2  0  0  0  0  0  0
  187.4350  176.6710  137.2790 C   0  0  0  0  0  2  0  0  0  0  0  0
  187.1790  179.0040  136.8510 O   0  0  0  0  0  1  0  0  0  0  0  0
  187.2540  177.7560  136.2340 C   0  0  0  0  0  2  0  0  0  0  0  0
  1 15  1  0  0  0  0
  2  1  2  0  0  0  0
  4  8  2  0  0  0  0
  4  5  1  0  0  0  0
  5  7  2  0  0  0  0
  6  2  1  0  0  0  0
  6  9  2  0  0  0  0
  7 11  1  0  0  0  0
  7  9  1  0  0  0  0
  8 10  1  0  0  0  0
 10  3  1  0  0  0  0
 10 11  2  0  0  0  0
 12  5  1  0  0  0  0
 12  6  1  0  0  0  0
 14 15  2  0  0  0  0
 14 17  1  0  0  0  0
 15 13  1  0  0  0  0
 16 13  1  0  0  0  0
 16 19  1  0  0  0  0
 17 16  2  0  0  0  0
 19 18  2  0  0  0  0
 20 19  1  0  0  0  0
 21  2  1  0  0  0  0
 22 24  2  0  0  0  0
 23 24  1  0  0  0  0
 24 25  1  0  0  0  0
 25 21  1  0  0  0  0
 26 23  1  0  0  0  0
 27 26  1  0  0  0  0
 29 28  1  0  0  0  0
 29 27  1  0  0  0  0
M  END
>  <MODEL>
6

>  <REMARK>
 VINA RESULT:      -7.1      3.790      6.670
  Name = 
  8 active torsions:
  status: ('A' for Active; 'I' for Inactive)
    1  A    between atoms: C_6  and  C_17
    2  A    between atoms: N_7  and  C_12
    3  A    between atoms: N_8  and  C_22
    4  A    between atoms: C_10  and  C_17
    5  A    between atoms: C_10  and  N_18
    6  A    between atoms: C_12  and  C_20
    7  A    between atoms: C_20  and  C_23
    8  A    between atoms: C_21  and  C_26
                            x       y       z     vdW  Elec       q    Type
                         _______ _______ _______ _____ _____    ______ ____

>  <TORSDO>
F 8

$$$$
=
 OpenBabel10222415543D

 29 31  0  0  0  0  0  0  0  0999 V2000
  187.5290  177.8770  144.6840 N   0  0  0  0  0  0  0  0  0  0  0  0
  187.0760  177.7780  143.4660 C   0  0  0  0  0  0  0  0  0  0  0  0
  180.0120  179.5530  143.5530 C   0  0  0  0  0  1  0  0  0  0  0  0
  182.8310  178.6290  141.2660 C   0  0  0  0  0  3  0  0  0  0  0  0
  183.8590  178.4590  142.1860 C   0  0  0  0  0  0  0  0  0  0  0  0
  185.6650  178.1050  143.2040 C   0  0  0  0  0  0  0  0  0  0  0  0
  183.6510  178.6380  143.5140 C   0  0  0  0  0  0  0  0  0  0  0  0
  181.6020  178.9820  141.7470 N   0  0  0  0  0  0  0  0  0  0  0  0
  184.7840  178.4190  144.1930 N   0  0  0  0  0  0  0  0  0  0  0  0
  181.3700  179.1680  143.0860 C   0  0  0  0  0  0  0  0  0  0  0  0
  182.4070  178.9980  144.0210 C   0  0  0  0  0  3  0  0  0  0  0  0
  185.1340  178.1180  141.9510 N   0  0  0  0  0  2  0  0  0  0  0  0
  189.1750  176.8940  146.6520 S   0  0  0  0  0  0  0  0  0  0  0  0
  190.0600  177.8680  144.5160 C   0  0  0  0  0  3  0  0  0  0  0  0
  188.8560  177.5990  145.1620 C   0  0  0  0  0  0  0  0  0  0  0  0
  190.8400  176.9510  146.4190 C   0  0  0  0  0  0  0  0  0  0  0  0
  191.1610  177.5000  145.2260 N   0  0  0  0  0  0  0  0  0  0  0  0
  192.0780  177.1290  148.4250 O   0  0  0  0  0  0  0  0  0  0  0  0
  191.8330  176.4690  147.3820 C   0  0  0  0  0  0  0  0  0  0  0  0
  192.4950  175.3080  147.1530 F   0  0  0  0  0  0  0  0  0  0  0  0
  187.9230  177.2890  142.3320 C   0  0  0  0  0  2  0  0  0  0  0  0
  188.7010  179.0020  139.2000 O   0  0  0  0  0  0  0  0  0  0  0  0
  189.5640  176.9620  139.9430 N   0  0  0  0  0  2  0  0  0  0  0  0
  188.7320  178.1170  140.0960 C   0  0  0  0  0  0  0  0  0  0  0  0
  187.9260  178.2750  141.2620 N   0  0  0  0  0  2  0  0  0  0  0  0
  190.4240  176.7620  138.7870 C   0  0  0  0  0  2  0  0  0  0  0  0
  189.6660  176.0250  137.6950 C   0  0  0  0  0  2  0  0  0  0  0  0
  191.4830  174.5030  137.9690 O   0  0  0  0  0  1  0  0  0  0  0  0
  190.5620  174.9890  137.0410 C   0  0  0  0  0  2  0  0  0  0  0  0
  1 15  1  0  0  0  0
  2  1  2  0  0  0  0
  4  8  2  0  0  0  0
  4  5  1  0  0  0  0
  5  7  2  0  0  0  0
  6  2  1  0  0  0  0
  6  9  2  0  0  0  0
  7 11  1  0  0  0  0
  7  9  1  0  0  0  0
  8 10  1  0  0  0  0
 10  3  1  0  0  0  0
 10 11  2  0  0  0  0
 12  5  1  0  0  0  0
 12  6  1  0  0  0  0
 14 15  2  0  0  0  0
 14 17  1  0  0  0  0
 15 13  1  0  0  0  0
 16 13  1  0  0  0  0
 16 19  1  0  0  0  0
 17 16  2  0  0  0  0
 19 18  2  0  0  0  0
 20 19  1  0  0  0  0
 21  2  1  0  0  0  0
 22 24  2  0  0  0  0
 23 24  1  0  0  0  0
 24 25  1  0  0  0  0
 25 21  1  0  0  0  0
 26 23  1  0  0  0  0
 27 26  1  0  0  0  0
 29 27  1  0  0  0  0
 29 28  1  0  0  0  0
M  END
>  <MODEL>
7

>  <REMARK>
 VINA RESULT:      -7.1      3.398      6.660
  Name = 
  8 active torsions:
  status: ('A' for Active; 'I' for Inactive)
    1  A    between atoms: C_6  and  C_17
    2  A    between atoms: N_7  and  C_12
    3  A    between atoms: N_8  and  C_22
    4  A    between atoms: C_10  and  C_17
    5  A    between atoms: C_10  and  N_18
    6  A    between atoms: C_12  and  C_20
    7  A    between atoms: C_20  and  C_23
    8  A    between atoms: C_21  and  C_26
                            x       y       z     vdW  Elec       q    Type
                         _______ _______ _______ _____ _____    ______ ____

>  <TORSDO>
F 8

$$$$
=
 OpenBabel10222415543D

 29 31  0  0  0  0  0  0  0  0999 V2000
  187.0960  177.6770  143.2880 N   0  0  0  0  0  0  0  0  0  0  0  0
  187.0590  178.2800  142.1330 C   0  0  0  0  0  0  0  0  0  0  0  0
  181.3450  180.0840  137.9920 C   0  0  0  0  0  1  0  0  0  0  0  0
  182.2860  178.5830  141.2920 C   0  0  0  0  0  3  0  0  0  0  0  0
  183.6720  178.6440  141.2130 C   0  0  0  0  0  0  0  0  0  0  0  0
  185.7520  178.5430  141.5110 C   0  0  0  0  0  0  0  0  0  0  0  0
  184.2920  179.1570  140.1220 C   0  0  0  0  0  0  0  0  0  0  0  0
  181.5690  179.0580  140.2310 N   0  0  0  0  0  0  0  0  0  0  0  0
  185.6210  179.1090  140.2790 N   0  0  0  0  0  0  0  0  0  0  0  0
  182.1750  179.5810  139.1180 C   0  0  0  0  0  0  0  0  0  0  0  0
  183.5780  179.6450  139.0320 C   0  0  0  0  0  3  0  0  0  0  0  0
  184.5730  178.2420  142.1200 N   0  0  0  0  0  2  0  0  0  0  0  0
  188.5380  177.8770  145.6180 S   0  0  0  0  0  0  0  0  0  0  0  0
  189.2990  176.4830  143.6770 C   0  0  0  0  0  3  0  0  0  0  0  0
  188.2500  177.3130  144.0630 C   0  0  0  0  0  0  0  0  0  0  0  0
  189.9900  177.0370  145.7470 C   0  0  0  0  0  0  0  0  0  0  0  0
  190.2640  176.3340  144.6250 N   0  0  0  0  0  0  0  0  0  0  0  0
  192.0770  176.7450  146.8180 O   0  0  0  0  0  0  0  0  0  0  0  0
  190.8610  177.0550  146.9240 C   0  0  0  0  0  0  0  0  0  0  0  0
  190.3620  177.4050  148.1350 F   0  0  0  0  0  0  0  0  0  0  0  0
  188.3000  178.6650  141.3890 C   0  0  0  0  0  2  0  0  0  0  0  0
  189.3560  176.6210  138.5520 O   0  0  0  0  0  0  0  0  0  0  0  0
  188.6790  178.8560  138.5030 N   0  0  0  0  0  2  0  0  0  0  0  0
  188.9500  177.6280  139.1890 C   0  0  0  0  0  0  0  0  0  0  0  0
  188.7690  177.5370  140.6010 N   0  0  0  0  0  2  0  0  0  0  0  0
  188.8230  178.9990  137.0630 C   0  0  0  0  0  2  0  0  0  0  0  0
  187.5200  178.6350  136.3710 C   0  0  0  0  0  2  0  0  0  0  0  0
  189.1170  177.3210  135.1810 O   0  0  0  0  0  1  0  0  0  0  0  0
  187.7500  177.5080  135.3800 C   0  0  0  0  0  2  0  0  0  0  0  0
  1 15  1  0  0  0  0
  2  1  2  0  0  0  0
  3 10  1  0  0  0  0
  5  4  1  0  0  0  0
  5 12  1  0  0  0  0
  6 12  1  0  0  0  0
  6  2  1  0  0  0  0
  7  9  1  0  0  0  0
  7  5  2  0  0  0  0
  8  4  2  0  0  0  0
  9  6  2  0  0  0  0
 10  8  1  0  0  0  0
 11 10  2  0  0  0  0
 11  7  1  0  0  0  0
 13 16  1  0  0  0  0
 14 15  2  0  0  0  0
 14 17  1  0  0  0  0
 15 13  1  0  0  0  0
 16 19  1  0  0  0  0
 17 16  2  0  0  0  0
 18 19  2  0  0  0  0
 19 20  1  0  0  0  0
 21  2  1  0  0  0  0
 22 24  2  0  0  0  0
 23 24  1  0  0  0  0
 24 25  1  0  0  0  0
 25 21  1  0  0  0  0
 26 23  1  0  0  0  0
 27 26  1  0  0  0  0
 28 29  1  0  0  0  0
 29 27  1  0  0  0  0
M  END
>  <MODEL>
8

>  <REMARK>
 VINA RESULT:      -7.1      4.016      7.247
  Name = 
  8 active torsions:
  status: ('A' for Active; 'I' for Inactive)
    1  A    between atoms: C_6  and  C_17
    2  A    between atoms: N_7  and  C_12
    3  A    between atoms: N_8  and  C_22
    4  A    between atoms: C_10  and  C_17
    5  A    between atoms: C_10  and  N_18
    6  A    between atoms: C_12  and  C_20
    7  A    between atoms: C_20  and  C_23
    8  A    between atoms: C_21  and  C_26
                            x       y       z     vdW  Elec       q    Type
                         _______ _______ _______ _____ _____    ______ ____

>  <TORSDO>
F 8

$$$$
=
 OpenBabel10222415543D

 29 31  0  0  0  0  0  0  0  0999 V2000
  190.2220  177.0350  142.9530 N   0  0  0  0  0  0  0  0  0  0  0  0
  189.2340  177.1030  142.1050 C   0  0  0  0  0  0  0  0  0  0  0  0
  189.4320  177.2580  134.8260 C   0  0  0  0  0  1  0  0  0  0  0  0
  191.3790  176.1970  137.8450 C   0  0  0  0  0  3  0  0  0  0  0  0
  190.5110  176.5870  138.8570 C   0  0  0  0  0  0  0  0  0  0  0  0
  189.5250  177.0100  140.6660 C   0  0  0  0  0  0  0  0  0  0  0  0
  189.3240  177.1800  138.5760 C   0  0  0  0  0  0  0  0  0  0  0  0
  190.9950  176.4300  136.5550 N   0  0  0  0  0  0  0  0  0  0  0  0
  188.6680  177.4630  139.7090 N   0  0  0  0  0  0  0  0  0  0  0  0
  189.7990  177.0280  136.2480 C   0  0  0  0  0  0  0  0  0  0  0  0
  188.9170  177.4260  137.2700 C   0  0  0  0  0  3  0  0  0  0  0  0
  190.6730  176.4630  140.1820 N   0  0  0  0  0  2  0  0  0  0  0  0
  188.7720  177.4830  145.2420 S   0  0  0  0  0  0  0  0  0  0  0  0
  191.2170  176.9270  145.2830 C   0  0  0  0  0  3  0  0  0  0  0  0
  190.1680  177.1140  144.3870 C   0  0  0  0  0  0  0  0  0  0  0  0
  189.5530  177.3850  146.7290 C   0  0  0  0  0  0  0  0  0  0  0  0
  190.8620  177.0780  146.5880 N   0  0  0  0  0  0  0  0  0  0  0  0
  187.7150  177.2450  148.2100 O   0  0  0  0  0  0  0  0  0  0  0  0
  188.9080  177.6040  148.0260 C   0  0  0  0  0  0  0  0  0  0  0  0
  189.5930  178.1950  149.0360 F   0  0  0  0  0  0  0  0  0  0  0  0
  187.8190  177.3280  142.5400 C   0  0  0  0  0  2  0  0  0  0  0  0
  185.4160  179.7510  141.2350 O   0  0  0  0  0  0  0  0  0  0  0  0
  185.0820  178.2360  142.9820 N   0  0  0  0  0  2  0  0  0  0  0  0
  185.8850  178.8300  141.9550 C   0  0  0  0  0  0  0  0  0  0  0  0
  187.2240  178.3890  141.7420 N   0  0  0  0  0  2  0  0  0  0  0  0
  183.7030  178.6290  143.2270 C   0  0  0  0  0  2  0  0  0  0  0  0
  183.5570  179.1650  144.6410 C   0  0  0  0  0  2  0  0  0  0  0  0
  184.5590  178.6430  146.7430 O   0  0  0  0  0  1  0  0  0  0  0  0
  184.8460  178.9630  145.4150 C   0  0  0  0  0  2  0  0  0  0  0  0
  1 15  1  0  0  0  0
  2 21  1  0  0  0  0
  2  1  2  0  0  0  0
  3 10  1  0  0  0  0
  4  5  1  0  0  0  0
  5 12  1  0  0  0  0
  6  2  1  0  0  0  0
  7  5  2  0  0  0  0
  7  9  1  0  0  0  0
  8  4  2  0  0  0  0
  9  6  2  0  0  0  0
 10  8  1  0  0  0  0
 10 11  2  0  0  0  0
 11  7  1  0  0  0  0
 12  6  1  0  0  0  0
 13 16  1  0  0  0  0
 14 17  1  0  0  0  0
 15 13  1  0  0  0  0
 15 14  2  0  0  0  0
 16 19  1  0  0  0  0
 17 16  2  0  0  0  0
 19 18  2  0  0  0  0
 19 20  1  0  0  0  0
 22 24  2  0  0  0  0
 23 26  1  0  0  0  0
 24 23  1  0  0  0  0
 25 24  1  0  0  0  0
 25 21  1  0  0  0  0
 26 27  1  0  0  0  0
 27 29  1  0  0  0  0
 29 28  1  0  0  0  0
M  END
>  <MODEL>
9

>  <REMARK>
 VINA RESULT:      -7.0      3.869      7.388
  Name = 
  8 active torsions:
  status: ('A' for Active; 'I' for Inactive)
    1  A    between atoms: C_6  and  C_17
    2  A    between atoms: N_7  and  C_12
    3  A    between atoms: N_8  and  C_22
    4  A    between atoms: C_10  and  C_17
    5  A    between atoms: C_10  and  N_18
    6  A    between atoms: C_12  and  C_20
    7  A    between atoms: C_20  and  C_23
    8  A    between atoms: C_21  and  C_26
                            x       y       z     vdW  Elec       q    Type
                         _______ _______ _______ _____ _____    ______ ____

>  <TORSDO>
F 8

$$$$
