=
 OpenBabel10222421123D

 37 41  0  0  1  0  0  0  0  0999 V2000
  191.0800  177.4880  144.8490 C   0  0  1  0  0  3  0  0  0  0  0  0
  191.5480  177.6430  143.3940 C   0  0  0  0  0  2  0  0  0  0  0  0
  189.5170  177.3010  141.9840 C   0  0  0  0  0  0  0  0  0  0  0  0
  190.8190  176.7040  142.4350 C   0  0  0  0  0  2  0  0  0  0  0  0
  189.3420  177.6720  140.6200 C   0  0  0  0  0  0  0  0  0  0  0  0
  189.6430  177.9880  145.0510 C   0  0  0  0  0  2  0  0  0  0  0  0
  187.2750  178.0660  142.4360 C   0  0  0  0  0  0  0  0  0  0  0  0
  187.1110  178.4160  141.1110 C   0  0  0  0  0  0  0  0  0  0  0  0
  186.0800  178.3740  143.0490 C   0  0  0  0  0  0  0  0  0  0  0  0
  185.6810  178.1730  144.3050 C   0  0  0  0  0  2  0  0  0  0  0  0
  183.5920  179.5210  143.7460 C   0  0  0  0  0  2  0  0  0  0  0  0
  184.2330  178.4440  144.6530 C   0  0  2  0  0  3  0  0  0  0  0  0
  185.8900  178.9380  140.8580 N   0  0  0  0  0  0  0  0  0  0  0  0
  185.2770  178.9220  142.0640 C   0  0  0  0  0  0  0  0  0  0  0  0
  188.1270  178.2320  140.1830 C   0  0  0  0  0  3  0  0  0  0  0  0
  188.4620  177.4930  142.9110 C   0  0  2  0  0  3  0  0  0  0  0  0
  184.0670  179.4260  142.3120 C   0  0  0  0  0  2  0  0  0  0  0  0
  188.6070  177.1080  144.3540 C   0  0  0  0  0  2  0  0  0  0  0  0
  191.3190  176.0760  145.4190 C   0  0  1  0  0  3  0  0  0  0  0  0
  192.1530  175.2270  144.4700 C   0  0  0  0  0  1  0  0  0  0  0  0
  191.6580  177.1280  147.6570 O   0  0  0  0  0  1  0  0  0  0  0  0
  192.8560  175.2620  147.0730 O   0  0  0  0  0  0  0  0  0  0  0  0
  191.9890  176.1220  146.7580 C   0  0  0  0  0  0  0  0  0  0  0  0
  184.1230  178.8150  145.9950 O   0  0  0  0  0  0  0  0  0  0  0  0
  185.0410  178.0040  146.6680 C   0  0  0  0  0  2  0  0  0  0  0  0
  187.2390  178.2920  147.8050 O   0  0  0  0  0  1  0  0  0  0  0  0
  186.0420  178.8500  147.3740 C   0  0  0  0  0  0  0  0  0  0  0  0
  185.8050  180.0670  147.5900 O   0  0  0  0  0  0  0  0  0  0  0  0
  190.4530  177.5130  139.6280 C   0  0  0  0  0  2  0  0  0  0  0  0
  189.0050  178.5130  137.4190 S   0  0  0  0  0  0  0  0  0  0  0  0
  188.7650  177.5000  136.0990 C   0  0  0  0  0  0  0  0  0  0  0  0
  189.9800  176.2030  137.4580 C   0  0  0  0  0  0  0  0  0  0  0  0
  189.3460  176.2920  136.2570 N   0  0  0  0  0  0  0  0  0  0  0  0
  188.0540  177.8710  134.9230 N   0  0  0  0  0  1  0  0  0  0  0  0
  189.9030  177.3510  138.2460 C   0  0  0  0  0  0  0  0  0  0  0  0
  190.6830  174.9850  137.8790 C   0  0  0  0  0  3  0  0  0  0  0  0
  190.2910  173.8200  137.4810 N   0  0  0  0  0  2  0  0  0  0  0  0
  1  6  1  0  0  0  0
  1 19  1  6  0  0  0
  2  1  1  0  0  0  0
  3  4  1  0  0  0  0
  3 16  1  0  0  0  0
  4  2  1  0  0  0  0
  5  3  2  0  0  0  0
  7 16  1  0  0  0  0
  7  9  2  0  0  0  0
  8  7  1  0  0  0  0
  9 10  1  0  0  0  0
 10 12  1  0  0  0  0
 11 12  1  0  0  0  0
 12 24  1  1  0  0  0
 13  8  1  0  0  0  0
 13 14  2  0  0  0  0
 14 17  1  0  0  0  0
 14  9  1  0  0  0  0
 15  5  1  0  0  0  0
 15  8  2  0  0  0  0
 16 18  1  1  0  0  0
 17 11  1  0  0  0  0
 18  6  1  0  0  0  0
 19 20  1  6  0  0  0
 19 23  1  0  0  0  0
 23 22  2  0  0  0  0
 23 21  1  0  0  0  0
 24 25  1  0  0  0  0
 25 27  1  0  0  0  0
 27 28  2  0  0  0  0
 27 26  1  0  0  0  0
 29  5  1  0  0  0  0
 30 35  1  0  0  0  0
 31 33  2  0  0  0  0
 31 30  1  0  0  0  0
 32 36  1  0  0  0  0
 32 35  2  0  0  0  0
 33 32  1  0  0  0  0
 34 31  1  0  0  0  0
 35 29  1  0  0  0  0
 37 36  2  0  0  0  0
M  END
>  <MODEL>
1

>  <REMARK>
 VINA RESULT:      -9.9      0.000      0.000
  Name = 
  8 active torsions:
  status: ('A' for Active; 'I' for Inactive)
    1  A    between atoms: C_3  and  C_22
    2  A    between atoms: C_7  and  C_14
    3  A    between atoms: C_10  and  C_30
    4  A    between atoms: C_11  and  C_16
    5  A    between atoms: C_14  and  O_23
    6  A    between atoms: C_20  and  O_23
    7  A    between atoms: C_22  and  C_32
    8  A    between atoms: C_30  and  C_34
                            x       y       z     vdW  Elec       q    Type
                         _______ _______ _______ _____ _____    ______ ____

>  <TORSDO>
F 8

$$$$
=
 OpenBabel10222421123D

 37 41  0  0  1  0  0  0  0  0999 V2000
  191.0250  177.5240  144.7610 C   0  0  1  0  0  3  0  0  0  0  0  0
  191.4570  177.7040  143.2980 C   0  0  0  0  0  2  0  0  0  0  0  0
  189.3970  177.3630  141.9310 C   0  0  0  0  0  0  0  0  0  0  0  0
  190.7140  176.7720  142.3430 C   0  0  0  0  0  2  0  0  0  0  0  0
  189.1870  177.7520  140.5770 C   0  0  0  0  0  0  0  0  0  0  0  0
  189.5890  178.0090  145.0040 C   0  0  0  0  0  2  0  0  0  0  0  0
  187.1600  178.1020  142.4460 C   0  0  0  0  0  0  0  0  0  0  0  0
  186.9620  178.4690  141.1310 C   0  0  0  0  0  0  0  0  0  0  0  0
  185.9770  178.3900  143.0910 C   0  0  0  0  0  0  0  0  0  0  0  0
  185.6090  178.1680  144.3540 C   0  0  0  0  0  2  0  0  0  0  0  0
  183.4960  179.5050  143.8630 C   0  0  0  0  0  2  0  0  0  0  0  0
  184.1680  178.4220  144.7390 C   0  0  2  0  0  3  0  0  0  0  0  0
  185.7300  178.9830  140.9140 N   0  0  0  0  0  0  0  0  0  0  0  0
  185.1460  178.9440  142.1330 C   0  0  0  0  0  0  0  0  0  0  0  0
  187.9570  178.3070  140.1770 C   0  0  0  0  0  3  0  0  0  0  0  0
  188.3630  177.5330  142.8850 C   0  0  2  0  0  3  0  0  0  0  0  0
  183.9380  179.4340  142.4170 C   0  0  0  0  0  2  0  0  0  0  0  0
  188.5450  177.1290  144.3190 C   0  0  0  0  0  2  0  0  0  0  0  0
  191.2900  176.1070  145.3060 C   0  0  1  0  0  3  0  0  0  0  0  0
  192.1240  175.2840  144.3330 C   0  0  0  0  0  1  0  0  0  0  0  0
  191.6760  177.1550  147.5380 O   0  0  0  0  0  1  0  0  0  0  0  0
  192.8270  175.2630  146.9450 O   0  0  0  0  0  0  0  0  0  0  0  0
  191.9750  176.1410  146.6380 C   0  0  0  0  0  0  0  0  0  0  0  0
  184.0850  178.7730  146.0880 O   0  0  0  0  0  0  0  0  0  0  0  0
  185.0530  177.9880  146.7230 C   0  0  0  0  0  2  0  0  0  0  0  0
  187.2940  178.3330  147.7540 O   0  0  0  0  0  1  0  0  0  0  0  0
  186.0680  178.8620  147.3730 C   0  0  0  0  0  0  0  0  0  0  0  0
  185.8160  180.0760  147.5860 O   0  0  0  0  0  0  0  0  0  0  0  0
  190.2750  177.6160  139.5580 C   0  0  0  0  0  2  0  0  0  0  0  0
  189.7990  175.3400  137.9540 S   0  0  0  0  0  0  0  0  0  0  0  0
  189.1220  175.5660  136.4320 C   0  0  0  0  0  0  0  0  0  0  0  0
  189.2030  177.6620  137.2130 C   0  0  0  0  0  0  0  0  0  0  0  0
  188.8510  176.8620  136.1690 N   0  0  0  0  0  0  0  0  0  0  0  0
  188.8310  174.5130  135.5200 N   0  0  0  0  0  1  0  0  0  0  0  0
  189.7470  176.9880  138.3060 C   0  0  0  0  0  0  0  0  0  0  0  0
  189.0220  179.1170  137.1760 C   0  0  0  0  0  3  0  0  0  0  0  0
  187.8800  179.6370  136.8660 N   0  0  0  0  0  2  0  0  0  0  0  0
  1  6  1  0  0  0  0
  1 19  1  6  0  0  0
  2  1  1  0  0  0  0
  3  4  1  0  0  0  0
  3 16  1  0  0  0  0
  4  2  1  0  0  0  0
  5  3  2  0  0  0  0
  7 16  1  0  0  0  0
  7  9  2  0  0  0  0
  8  7  1  0  0  0  0
  9 10  1  0  0  0  0
 10 12  1  0  0  0  0
 11 12  1  0  0  0  0
 12 24  1  1  0  0  0
 13  8  1  0  0  0  0
 13 14  2  0  0  0  0
 14 17  1  0  0  0  0
 14  9  1  0  0  0  0
 15  5  1  0  0  0  0
 15  8  2  0  0  0  0
 16 18  1  1  0  0  0
 17 11  1  0  0  0  0
 18  6  1  0  0  0  0
 19 20  1  6  0  0  0
 19 23  1  0  0  0  0
 23 22  2  0  0  0  0
 23 21  1  0  0  0  0
 24 25  1  0  0  0  0
 25 27  1  0  0  0  0
 27 28  2  0  0  0  0
 27 26  1  0  0  0  0
 29  5  1  0  0  0  0
 30 35  1  0  0  0  0
 31 30  1  0  0  0  0
 32 35  2  0  0  0  0
 33 31  2  0  0  0  0
 33 32  1  0  0  0  0
 34 31  1  0  0  0  0
 35 29  1  0  0  0  0
 36 32  1  0  0  0  0
 37 36  2  0  0  0  0
M  END
>  <MODEL>
2

>  <REMARK>
 VINA RESULT:      -9.9      0.910      1.573
  Name = 
  8 active torsions:
  status: ('A' for Active; 'I' for Inactive)
    1  A    between atoms: C_3  and  C_22
    2  A    between atoms: C_7  and  C_14
    3  A    between atoms: C_10  and  C_30
    4  A    between atoms: C_11  and  C_16
    5  A    between atoms: C_14  and  O_23
    6  A    between atoms: C_20  and  O_23
    7  A    between atoms: C_22  and  C_32
    8  A    between atoms: C_30  and  C_34
                            x       y       z     vdW  Elec       q    Type
                         _______ _______ _______ _____ _____    ______ ____

>  <TORSDO>
F 8

$$$$
=
 OpenBabel10222421123D

 37 41  0  0  1  0  0  0  0  0999 V2000
  188.7270  178.2970  140.3700 C   0  0  1  0  0  3  0  0  0  0  0  0
  187.3770  178.8710  139.9140 C   0  0  0  0  0  2  0  0  0  0  0  0
  185.7390  178.2610  141.6950 C   0  0  0  0  0  0  0  0  0  0  0  0
  186.1960  177.9800  140.2930 C   0  0  0  0  0  2  0  0  0  0  0  0
  184.4560  178.8370  141.9200 C   0  0  0  0  0  0  0  0  0  0  0  0
  188.8770  178.3170  141.8980 C   0  0  0  0  0  2  0  0  0  0  0  0
  186.1050  178.2500  144.0790 C   0  0  0  0  0  0  0  0  0  0  0  0
  184.8570  178.8000  144.2890 C   0  0  0  0  0  0  0  0  0  0  0  0
  186.6450  178.0740  145.3340 C   0  0  0  0  0  0  0  0  0  0  0  0
  187.7990  177.5170  145.7040 C   0  0  0  0  0  2  0  0  0  0  0  0
  187.2970  178.3000  148.0760 C   0  0  0  0  0  2  0  0  0  0  0  0
  188.0490  177.2890  147.1790 C   0  0  2  0  0  3  0  0  0  0  0  0
  184.5870  178.9940  145.5990 N   0  0  0  0  0  0  0  0  0  0  0  0
  185.7040  178.5590  146.2260 C   0  0  0  0  0  0  0  0  0  0  0  0
  184.0130  179.1050  143.2290 C   0  0  0  0  0  3  0  0  0  0  0  0
  186.5790  177.9530  142.7940 C   0  0  2  0  0  3  0  0  0  0  0  0
  185.9220  178.6380  147.5390 C   0  0  0  0  0  2  0  0  0  0  0  0
  187.9340  177.3390  142.5970 C   0  0  0  0  0  2  0  0  0  0  0  0
  189.0490  176.9270  139.7450 C   0  0  1  0  0  3  0  0  0  0  0  0
  188.4550  176.7990  138.3480 C   0  0  0  0  0  1  0  0  0  0  0  0
  191.3980  177.5490  140.3170 O   0  0  0  0  0  1  0  0  0  0  0  0
  190.9830  175.6910  139.0400 O   0  0  0  0  0  0  0  0  0  0  0  0
  190.5260  176.6780  139.6780 C   0  0  0  0  0  0  0  0  0  0  0  0
  189.4190  177.3320  147.4460 O   0  0  0  0  0  0  0  0  0  0  0  0
  190.0330  177.1370  146.2060 C   0  0  0  0  0  2  0  0  0  0  0  0
  192.0480  176.7740  147.6240 O   0  0  0  0  0  1  0  0  0  0  0  0
  191.4130  176.6130  146.4000 C   0  0  0  0  0  0  0  0  0  0  0  0
  192.0090  176.0310  145.4570 O   0  0  0  0  0  0  0  0  0  0  0  0
  183.5630  179.2040  140.7750 C   0  0  0  0  0  2  0  0  0  0  0  0
  182.6210  176.7480  139.7480 S   0  0  0  0  0  0  0  0  0  0  0  0
  181.0110  176.3400  140.0090 C   0  0  0  0  0  0  0  0  0  0  0  0
  181.1650  178.3050  141.0700 C   0  0  0  0  0  0  0  0  0  0  0  0
  180.3500  177.2660  140.7350 N   0  0  0  0  0  0  0  0  0  0  0  0
  180.4040  175.1390  139.5470 N   0  0  0  0  0  1  0  0  0  0  0  0
  182.4760  178.1890  140.6090 C   0  0  0  0  0  0  0  0  0  0  0  0
  180.6860  179.4500  141.8510 C   0  0  0  0  0  3  0  0  0  0  0  0
  180.1240  180.4610  141.2730 N   0  0  0  0  0  2  0  0  0  0  0  0
  1 19  1  1  0  0  0
  1  6  1  0  0  0  0
  2  4  1  0  0  0  0
  2  1  1  0  0  0  0
  3  5  2  0  0  0  0
  3 16  1  0  0  0  0
  4  3  1  0  0  0  0
  5 15  1  0  0  0  0
  6 18  1  0  0  0  0
  7  8  1  0  0  0  0
  7  9  2  0  0  0  0
  8 13  1  0  0  0  0
  9 10  1  0  0  0  0
  9 14  1  0  0  0  0
 10 12  1  0  0  0  0
 12 24  1  6  0  0  0
 12 11  1  0  0  0  0
 13 14  2  0  0  0  0
 14 17  1  0  0  0  0
 15  8  2  0  0  0  0
 16 18  1  6  0  0  0
 16  7  1  0  0  0  0
 17 11  1  0  0  0  0
 19 20  1  6  0  0  0
 22 23  2  0  0  0  0
 23 19  1  0  0  0  0
 23 21  1  0  0  0  0
 25 27  1  0  0  0  0
 25 24  1  0  0  0  0
 27 26  1  0  0  0  0
 28 27  2  0  0  0  0
 29  5  1  0  0  0  0
 30 31  1  0  0  0  0
 30 35  1  0  0  0  0
 31 33  2  0  0  0  0
 32 36  1  0  0  0  0
 33 32  1  0  0  0  0
 34 31  1  0  0  0  0
 35 29  1  0  0  0  0
 35 32  2  0  0  0  0
 37 36  2  0  0  0  0
M  END
>  <MODEL>
3

>  <REMARK>
 VINA RESULT:      -9.7      3.601      6.574
  Name = 
  8 active torsions:
  status: ('A' for Active; 'I' for Inactive)
    1  A    between atoms: C_3  and  C_22
    2  A    between atoms: C_7  and  C_14
    3  A    between atoms: C_10  and  C_30
    4  A    between atoms: C_11  and  C_16
    5  A    between atoms: C_14  and  O_23
    6  A    between atoms: C_20  and  O_23
    7  A    between atoms: C_22  and  C_32
    8  A    between atoms: C_30  and  C_34
                            x       y       z     vdW  Elec       q    Type
                         _______ _______ _______ _____ _____    ______ ____

>  <TORSDO>
F 8

$$$$
=
 OpenBabel10222421123D

 37 41  0  0  1  0  0  0  0  0999 V2000
  187.5460  176.8270  144.9570 C   0  0  1  0  0  3  0  0  0  0  0  0
  186.0810  177.2280  144.7290 C   0  0  0  0  0  2  0  0  0  0  0  0
  186.0640  178.5960  142.6400 C   0  0  0  0  0  0  0  0  0  0  0  0
  185.9360  178.6280  144.1360 C   0  0  0  0  0  2  0  0  0  0  0  0
  184.9400  178.9110  141.8250 C   0  0  0  0  0  0  0  0  0  0  0  0
  188.3020  176.6210  143.6360 C   0  0  0  0  0  2  0  0  0  0  0  0
  187.3590  178.2270  140.6390 C   0  0  0  0  0  0  0  0  0  0  0  0
  186.2670  178.5410  139.8570 C   0  0  0  0  0  0  0  0  0  0  0  0
  188.3790  177.9540  139.7540 C   0  0  0  0  0  0  0  0  0  0  0  0
  189.6610  177.6650  139.9830 C   0  0  0  0  0  2  0  0  0  0  0  0
  189.8910  177.2000  137.4880 C   0  0  0  0  0  2  0  0  0  0  0  0
  190.6050  177.5960  138.8020 C   0  0  2  0  0  3  0  0  0  0  0  0
  186.5360  178.4680  138.5340 N   0  0  0  0  0  0  0  0  0  0  0  0
  187.8330  178.0880  138.4900 C   0  0  0  0  0  0  0  0  0  0  0  0
  185.0460  178.8840  140.4220 C   0  0  0  0  0  3  0  0  0  0  0  0
  187.3020  178.2540  142.0390 C   0  0  2  0  0  3  0  0  0  0  0  0
  188.5100  177.8080  137.3750 C   0  0  0  0  0  2  0  0  0  0  0  0
  188.5100  177.9230  142.8650 C   0  0  0  0  0  2  0  0  0  0  0  0
  188.2850  177.7530  145.9430 C   0  0  1  0  0  3  0  0  0  0  0  0
  187.4590  178.0020  147.1970 C   0  0  0  0  0  1  0  0  0  0  0  0
  190.7500  177.5440  145.6040 O   0  0  0  0  0  0  0  0  0  0  0  0
  189.7270  176.4100  147.3140 O   0  0  0  0  0  1  0  0  0  0  0  0
  189.6200  177.1970  146.3340 C   0  0  0  0  0  0  0  0  0  0  0  0
  191.6480  176.7080  139.0710 O   0  0  0  0  0  0  0  0  0  0  0  0
  192.0200  176.2020  137.8220 C   0  0  0  0  0  2  0  0  0  0  0  0
  194.3100  175.7650  138.7000 O   0  0  0  0  0  1  0  0  0  0  0  0
  193.5010  176.2450  137.6790 C   0  0  0  0  0  0  0  0  0  0  0  0
  194.0240  176.7220  136.6380 O   0  0  0  0  0  0  0  0  0  0  0  0
  183.6130  179.2400  142.4350 C   0  0  0  0  0  2  0  0  0  0  0  0
  182.7240  177.4310  140.4560 S   0  0  0  0  0  0  0  0  0  0  0  0
  181.0710  177.3040  140.1770 C   0  0  0  0  0  0  0  0  0  0  0  0
  181.1430  178.8030  141.8370 C   0  0  0  0  0  0  0  0  0  0  0  0
  180.3430  178.0950  140.9930 N   0  0  0  0  0  0  0  0  0  0  0  0
  180.4860  176.4380  139.2120 N   0  0  0  0  0  1  0  0  0  0  0  0
  182.5080  178.5610  141.6880 C   0  0  0  0  0  0  0  0  0  0  0  0
  180.5970  179.7470  142.8190 C   0  0  0  0  0  3  0  0  0  0  0  0
  179.8370  180.7250  142.4500 N   0  0  0  0  0  2  0  0  0  0  0  0
  1 19  1  1  0  0  0
  2  1  1  0  0  0  0
  3  4  1  0  0  0  0
  4  2  1  0  0  0  0
  5 29  1  0  0  0  0
  5  3  2  0  0  0  0
  6  1  1  0  0  0  0
  7 16  1  0  0  0  0
  8 15  2  0  0  0  0
  8  7  1  0  0  0  0
  9 10  1  0  0  0  0
  9  7  2  0  0  0  0
 11 12  1  0  0  0  0
 12 24  1  1  0  0  0
 12 10  1  0  0  0  0
 13  8  1  0  0  0  0
 14 13  2  0  0  0  0
 14  9  1  0  0  0  0
 15  5  1  0  0  0  0
 16  3  1  0  0  0  0
 16 18  1  1  0  0  0
 17 11  1  0  0  0  0
 17 14  1  0  0  0  0
 18  6  1  0  0  0  0
 19 23  1  0  0  0  0
 19 20  1  1  0  0  0
 21 23  2  0  0  0  0
 23 22  1  0  0  0  0
 25 24  1  0  0  0  0
 27 25  1  0  0  0  0
 27 26  1  0  0  0  0
 28 27  2  0  0  0  0
 30 35  1  0  0  0  0
 31 30  1  0  0  0  0
 31 33  2  0  0  0  0
 32 36  1  0  0  0  0
 33 32  1  0  0  0  0
 34 31  1  0  0  0  0
 35 32  2  0  0  0  0
 35 29  1  0  0  0  0
 37 36  2  0  0  0  0
M  END
>  <MODEL>
4

>  <REMARK>
 VINA RESULT:      -9.0      3.707      7.532
  Name = 
  8 active torsions:
  status: ('A' for Active; 'I' for Inactive)
    1  A    between atoms: C_3  and  C_22
    2  A    between atoms: C_7  and  C_14
    3  A    between atoms: C_10  and  C_30
    4  A    between atoms: C_11  and  C_16
    5  A    between atoms: C_14  and  O_23
    6  A    between atoms: C_20  and  O_23
    7  A    between atoms: C_22  and  C_32
    8  A    between atoms: C_30  and  C_34
                            x       y       z     vdW  Elec       q    Type
                         _______ _______ _______ _____ _____    ______ ____

>  <TORSDO>
F 8

$$$$
=
 OpenBabel10222421123D

 37 41  0  0  1  0  0  0  0  0999 V2000
  189.6910  178.1990  140.3590 C   0  0  1  0  0  3  0  0  0  0  0  0
  188.4350  178.7660  139.6820 C   0  0  0  0  0  2  0  0  0  0  0  0
  186.5260  178.1740  141.1780 C   0  0  0  0  0  0  0  0  0  0  0  0
  187.2070  177.8780  139.8730 C   0  0  0  0  0  2  0  0  0  0  0  0
  185.2240  178.7510  141.1820 C   0  0  0  0  0  0  0  0  0  0  0  0
  189.5890  178.2360  141.8910 C   0  0  0  0  0  2  0  0  0  0  0  0
  186.4960  178.1910  143.5890 C   0  0  0  0  0  0  0  0  0  0  0  0
  185.2320  178.7430  143.5850 C   0  0  0  0  0  0  0  0  0  0  0  0
  186.8240  178.0310  144.9180 C   0  0  0  0  0  0  0  0  0  0  0  0
  187.9010  177.4790  145.4780 C   0  0  0  0  0  2  0  0  0  0  0  0
  187.0180  178.2900  147.7260 C   0  0  0  0  0  2  0  0  0  0  0  0
  187.9060  177.2690  146.9760 C   0  0  2  0  0  3  0  0  0  0  0  0
  184.7510  178.9520  144.8310 N   0  0  0  0  0  0  0  0  0  0  0  0
  185.7500  178.5260  145.6370 C   0  0  0  0  0  0  0  0  0  0  0  0
  184.5730  179.0340  142.3970 C   0  0  0  0  0  3  0  0  0  0  0  0
  187.1750  177.8800  142.4030 C   0  0  2  0  0  3  0  0  0  0  0  0
  185.7500  178.6190  146.9680 C   0  0  0  0  0  2  0  0  0  0  0  0
  188.5440  177.2660  142.4370 C   0  0  0  0  0  2  0  0  0  0  0  0
  190.1100  176.8210  139.8110 C   0  0  1  0  0  3  0  0  0  0  0  0
  189.3170  176.4540  138.5650 C   0  0  0  0  0  1  0  0  0  0  0  0
  192.4680  177.5030  140.2660 O   0  0  0  0  0  1  0  0  0  0  0  0
  192.0020  176.0710  138.5380 O   0  0  0  0  0  0  0  0  0  0  0  0
  191.5750  176.7680  139.4980 C   0  0  0  0  0  0  0  0  0  0  0  0
  189.2140  177.3170  147.4640 O   0  0  0  0  0  0  0  0  0  0  0  0
  190.0230  177.1280  146.3400 C   0  0  0  0  0  2  0  0  0  0  0  0
  191.8940  177.0740  147.9840 O   0  0  0  0  0  1  0  0  0  0  0  0
  191.3760  176.6700  146.7610 C   0  0  0  0  0  0  0  0  0  0  0  0
  192.0560  175.9250  146.0080 O   0  0  0  0  0  0  0  0  0  0  0  0
  184.5320  179.1050  139.9020 C   0  0  0  0  0  2  0  0  0  0  0  0
  181.9620  178.1200  140.5380 S   0  0  0  0  0  0  0  0  0  0  0  0
  181.3700  176.8140  139.6600 C   0  0  0  0  0  0  0  0  0  0  0  0
  183.3580  177.1550  138.6910 C   0  0  0  0  0  0  0  0  0  0  0  0
  182.2230  176.4020  138.6990 N   0  0  0  0  0  0  0  0  0  0  0  0
  180.0960  176.2160  139.8740 N   0  0  0  0  0  1  0  0  0  0  0  0
  183.3910  178.1700  139.6460 C   0  0  0  0  0  0  0  0  0  0  0  0
  184.4520  176.9040  137.7460 C   0  0  0  0  0  3  0  0  0  0  0  0
  184.3020  177.1240  136.4810 N   0  0  0  0  0  2  0  0  0  0  0  0
  1 19  1  6  0  0  0
  1  6  1  0  0  0  0
  2  4  1  0  0  0  0
  2  1  1  0  0  0  0
  3  5  2  0  0  0  0
  3 16  1  0  0  0  0
  4  3  1  0  0  0  0
  5 15  1  0  0  0  0
  6 18  1  0  0  0  0
  7  9  2  0  0  0  0
  8  7  1  0  0  0  0
  8 13  1  0  0  0  0
  9 10  1  0  0  0  0
  9 14  1  0  0  0  0
 10 12  1  0  0  0  0
 12 24  1  1  0  0  0
 12 11  1  0  0  0  0
 13 14  2  0  0  0  0
 14 17  1  0  0  0  0
 15  8  2  0  0  0  0
 16 18  1  6  0  0  0
 16  7  1  0  0  0  0
 17 11  1  0  0  0  0
 19 20  1  6  0  0  0
 22 23  2  0  0  0  0
 23 19  1  0  0  0  0
 23 21  1  0  0  0  0
 25 27  1  0  0  0  0
 25 24  1  0  0  0  0
 27 26  1  0  0  0  0
 28 27  2  0  0  0  0
 29  5  1  0  0  0  0
 31 34  1  0  0  0  0
 31 30  1  0  0  0  0
 32 33  1  0  0  0  0
 32 35  2  0  0  0  0
 33 31  2  0  0  0  0
 35 29  1  0  0  0  0
 35 30  1  0  0  0  0
 36 32  1  0  0  0  0
 37 36  2  0  0  0  0
M  END
>  <MODEL>
5

>  <REMARK>
 VINA RESULT:      -8.9      3.265      5.659
  Name = 
  8 active torsions:
  status: ('A' for Active; 'I' for Inactive)
    1  A    between atoms: C_3  and  C_22
    2  A    between atoms: C_7  and  C_14
    3  A    between atoms: C_10  and  C_30
    4  A    between atoms: C_11  and  C_16
    5  A    between atoms: C_14  and  O_23
    6  A    between atoms: C_20  and  O_23
    7  A    between atoms: C_22  and  C_32
    8  A    between atoms: C_30  and  C_34
                            x       y       z     vdW  Elec       q    Type
                         _______ _______ _______ _____ _____    ______ ____

>  <TORSDO>
F 8

$$$$
=
 OpenBabel10222421123D

 37 41  0  0  1  0  0  0  0  0999 V2000
  185.1370  177.8500  143.4610 C   0  0  1  0  0  3  0  0  0  0  0  0
  184.1780  177.9310  142.2640 C   0  0  0  0  0  2  0  0  0  0  0  0
  185.5540  178.7170  140.3360 C   0  0  0  0  0  0  0  0  0  0  0  0
  184.4930  179.0960  141.3290 C   0  0  0  0  0  2  0  0  0  0  0  0
  185.2290  178.6270  138.9530 C   0  0  0  0  0  0  0  0  0  0  0  0
  186.5590  177.4540  143.0370 C   0  0  0  0  0  2  0  0  0  0  0  0
  187.8200  178.0870  139.8030 C   0  0  0  0  0  0  0  0  0  0  0  0
  187.4990  178.0100  138.4630 C   0  0  0  0  0  0  0  0  0  0  0  0
  189.1610  177.7790  139.8780 C   0  0  0  0  0  0  0  0  0  0  0  0
  189.9850  177.7750  140.9280 C   0  0  0  0  0  2  0  0  0  0  0  0
  191.7520  176.7530  139.4030 C   0  0  0  0  0  2  0  0  0  0  0  0
  191.4640  177.5760  140.6800 C   0  0  2  0  0  3  0  0  0  0  0  0
  188.5550  177.6590  137.6940 N   0  0  0  0  0  0  0  0  0  0  0  0
  189.5620  177.5030  138.5830 C   0  0  0  0  0  0  0  0  0  0  0  0
  186.2130  178.2730  138.0100 C   0  0  0  0  0  3  0  0  0  0  0  0
  186.8760  178.4500  140.7730 C   0  0  2  0  0  3  0  0  0  0  0  0
  190.7880  177.0740  138.2800 C   0  0  0  0  0  2  0  0  0  0  0  0
  187.2570  178.5410  142.2210 C   0  0  0  0  0  2  0  0  0  0  0  0
  185.0980  179.1010  144.3600 C   0  0  1  0  0  3  0  0  0  0  0  0
  183.7220  179.7540  144.3430 C   0  0  0  0  0  1  0  0  0  0  0  0
  186.8140  178.6280  146.1100 O   0  0  0  0  0  0  0  0  0  0  0  0
  184.5890  178.6440  146.6610 O   0  0  0  0  0  1  0  0  0  0  0  0
  185.4750  178.7820  145.7750 C   0  0  0  0  0  0  0  0  0  0  0  0
  192.0590  176.9690  141.7890 O   0  0  0  0  0  0  0  0  0  0  0  0
  191.4480  177.5660  142.8960 C   0  0  0  0  0  2  0  0  0  0  0  0
  191.9050  175.3740  143.9850 O   0  0  0  0  0  0  0  0  0  0  0  0
  191.6800  176.7380  144.1110 C   0  0  0  0  0  0  0  0  0  0  0  0
  191.6640  177.2680  145.2520 O   0  0  0  0  0  1  0  0  0  0  0  0
  183.8330  178.8700  138.4700 C   0  0  0  0  0  2  0  0  0  0  0  0
  183.4700  176.2360  137.5150 S   0  0  0  0  0  0  0  0  0  0  0  0
  182.0960  175.3960  137.9960 C   0  0  0  0  0  0  0  0  0  0  0  0
  181.8530  177.3370  139.0840 C   0  0  0  0  0  0  0  0  0  0  0  0
  181.3200  176.1080  138.8400 N   0  0  0  0  0  0  0  0  0  0  0  0
  181.7860  174.0680  137.5900 N   0  0  0  0  0  1  0  0  0  0  0  0
  183.0600  177.5890  138.4330 C   0  0  0  0  0  0  0  0  0  0  0  0
  181.1960  178.3100  139.9640 C   0  0  0  0  0  3  0  0  0  0  0  0
  180.7030  177.9510  141.1040 N   0  0  0  0  0  2  0  0  0  0  0  0
  1 19  1  6  0  0  0
  2  1  1  0  0  0  0
  3 16  1  0  0  0  0
  3  4  1  0  0  0  0
  4  2  1  0  0  0  0
  5  3  2  0  0  0  0
  6  1  1  0  0  0  0
  7  9  2  0  0  0  0
  7 16  1  0  0  0  0
  8  7  1  0  0  0  0
  9 10  1  0  0  0  0
 11 12  1  0  0  0  0
 12 10  1  0  0  0  0
 12 24  1  1  0  0  0
 13  8  1  0  0  0  0
 13 14  2  0  0  0  0
 14  9  1  0  0  0  0
 15  8  2  0  0  0  0
 15  5  1  0  0  0  0
 16 18  1  1  0  0  0
 17 14  1  0  0  0  0
 17 11  1  0  0  0  0
 18  6  1  0  0  0  0
 19 20  1  1  0  0  0
 19 23  1  0  0  0  0
 23 21  2  0  0  0  0
 23 22  1  0  0  0  0
 24 25  1  0  0  0  0
 25 27  1  0  0  0  0
 26 27  2  0  0  0  0
 27 28  1  0  0  0  0
 29  5  1  0  0  0  0
 30 31  1  0  0  0  0
 30 35  1  0  0  0  0
 31 33  2  0  0  0  0
 32 36  1  0  0  0  0
 33 32  1  0  0  0  0
 34 31  1  0  0  0  0
 35 29  1  0  0  0  0
 35 32  2  0  0  0  0
 36 37  2  0  0  0  0
M  END
>  <MODEL>
6

>  <REMARK>
 VINA RESULT:      -8.9      3.089      6.886
  Name = 
  8 active torsions:
  status: ('A' for Active; 'I' for Inactive)
    1  A    between atoms: C_3  and  C_22
    2  A    between atoms: C_7  and  C_14
    3  A    between atoms: C_10  and  C_30
    4  A    between atoms: C_11  and  C_16
    5  A    between atoms: C_14  and  O_23
    6  A    between atoms: C_20  and  O_23
    7  A    between atoms: C_22  and  C_32
    8  A    between atoms: C_30  and  C_34
                            x       y       z     vdW  Elec       q    Type
                         _______ _______ _______ _____ _____    ______ ____

>  <TORSDO>
F 8

$$$$
=
 OpenBabel10222421123D

 37 41  0  0  1  0  0  0  0  0999 V2000
  182.9170  177.9140  140.6010 C   0  0  1  0  0  3  0  0  0  0  0  0
  183.6030  177.7800  139.2330 C   0  0  0  0  0  2  0  0  0  0  0  0
  185.9650  178.5090  139.5780 C   0  0  0  0  0  0  0  0  0  0  0  0
  184.6370  178.8740  138.9790 C   0  0  0  0  0  2  0  0  0  0  0  0
  187.0780  178.2520  138.7290 C   0  0  0  0  0  0  0  0  0  0  0  0
  183.8800  177.6250  141.7620 C   0  0  0  0  0  2  0  0  0  0  0  0
  187.3700  178.0640  141.4860 C   0  0  0  0  0  0  0  0  0  0  0  0
  188.4460  177.8240  140.6570 C   0  0  0  0  0  0  0  0  0  0  0  0
  187.8500  177.9030  142.7680 C   0  0  0  0  0  0  0  0  0  0  0  0
  187.2440  178.0850  143.9430 C   0  0  0  0  0  2  0  0  0  0  0  0
  189.3210  177.1030  145.0460 C   0  0  0  0  0  2  0  0  0  0  0  0
  188.0800  178.0140  145.2020 C   0  0  2  0  0  3  0  0  0  0  0  0
  189.5690  177.5080  141.3400 N   0  0  0  0  0  0  0  0  0  0  0  0
  189.1800  177.5430  142.6350 C   0  0  0  0  0  0  0  0  0  0  0  0
  188.3290  177.9090  139.2760 C   0  0  0  0  0  3  0  0  0  0  0  0
  186.1110  178.4220  140.9850 C   0  0  2  0  0  3  0  0  0  0  0  0
  189.9490  177.2130  143.6730 C   0  0  0  0  0  2  0  0  0  0  0  0
  184.9620  178.6920  141.9110 C   0  0  0  0  0  2  0  0  0  0  0  0
  182.1440  179.2370  140.7680 C   0  0  1  0  0  3  0  0  0  0  0  0
  181.3840  179.6000  139.4990 C   0  0  0  0  0  1  0  0  0  0  0  0
  181.5370  179.7510  143.1340 O   0  0  0  0  0  1  0  0  0  0  0  0
  180.0660  178.6120  141.7950 O   0  0  0  0  0  0  0  0  0  0  0  0
  181.1850  179.1800  141.9180 C   0  0  0  0  0  0  0  0  0  0  0  0
  187.2970  177.5830  146.2750 O   0  0  0  0  0  0  0  0  0  0  0  0
  185.9890  177.5660  145.7810 C   0  0  0  0  0  2  0  0  0  0  0  0
  183.9560  179.0030  145.8670 O   0  0  0  0  0  0  0  0  0  0  0  0
  185.2070  178.6840  146.3780 C   0  0  0  0  0  0  0  0  0  0  0  0
  185.6790  179.3460  147.3380 O   0  0  0  0  0  1  0  0  0  0  0  0
  186.9410  178.3020  137.2390 C   0  0  0  0  0  2  0  0  0  0  0  0
  185.6880  175.8110  136.7930 S   0  0  0  0  0  0  0  0  0  0  0  0
  186.5570  174.6130  135.9950 C   0  0  0  0  0  0  0  0  0  0  0  0
  188.0130  176.3120  135.9990 C   0  0  0  0  0  0  0  0  0  0  0  0
  187.7880  175.0230  135.6240 N   0  0  0  0  0  0  0  0  0  0  0  0
  186.0520  173.3140  135.7060 N   0  0  0  0  0  1  0  0  0  0  0  0
  186.9490  176.9210  136.6630 C   0  0  0  0  0  0  0  0  0  0  0  0
  189.2840  176.9930  135.7230 C   0  0  0  0  0  3  0  0  0  0  0  0
  190.3290  176.7690  136.4490 N   0  0  0  0  0  2  0  0  0  0  0  0
  1 19  1  1  0  0  0
  1  6  1  0  0  0  0
  2  1  1  0  0  0  0
  3 16  1  0  0  0  0
  4  2  1  0  0  0  0
  4  3  1  0  0  0  0
  5 15  1  0  0  0  0
  5  3  2  0  0  0  0
  6 18  1  0  0  0  0
  7  9  2  0  0  0  0
  8 13  1  0  0  0  0
  8  7  1  0  0  0  0
  9 10  1  0  0  0  0
 10 12  1  0  0  0  0
 11 12  1  0  0  0  0
 12 24  1  1  0  0  0
 13 14  2  0  0  0  0
 14  9  1  0  0  0  0
 14 17  1  0  0  0  0
 15  8  2  0  0  0  0
 16  7  1  0  0  0  0
 16 18  1  6  0  0  0
 17 11  1  0  0  0  0
 19 20  1  6  0  0  0
 19 23  1  0  0  0  0
 22 23  2  0  0  0  0
 23 21  1  0  0  0  0
 25 24  1  0  0  0  0
 25 27  1  0  0  0  0
 26 27  2  0  0  0  0
 27 28  1  0  0  0  0
 29  5  1  0  0  0  0
 31 30  1  0  0  0  0
 32 35  2  0  0  0  0
 33 31  2  0  0  0  0
 33 32  1  0  0  0  0
 34 31  1  0  0  0  0
 35 30  1  0  0  0  0
 35 29  1  0  0  0  0
 36 32  1  0  0  0  0
 36 37  2  0  0  0  0
M  END
>  <MODEL>
7

>  <REMARK>
 VINA RESULT:      -8.6      2.445      6.090
  Name = 
  8 active torsions:
  status: ('A' for Active; 'I' for Inactive)
    1  A    between atoms: C_3  and  C_22
    2  A    between atoms: C_7  and  C_14
    3  A    between atoms: C_10  and  C_30
    4  A    between atoms: C_11  and  C_16
    5  A    between atoms: C_14  and  O_23
    6  A    between atoms: C_20  and  O_23
    7  A    between atoms: C_22  and  C_32
    8  A    between atoms: C_30  and  C_34
                            x       y       z     vdW  Elec       q    Type
                         _______ _______ _______ _____ _____    ______ ____

>  <TORSDO>
F 8

$$$$
=
 OpenBabel10222421123D

 37 41  0  0  1  0  0  0  0  0999 V2000
  190.3360  178.0910  144.0570 C   0  0  1  0  0  3  0  0  0  0  0  0
  191.2920  177.9260  142.8660 C   0  0  0  0  0  2  0  0  0  0  0  0
  189.8750  177.1810  140.9510 C   0  0  0  0  0  0  0  0  0  0  0  0
  190.9090  176.7620  141.9560 C   0  0  0  0  0  2  0  0  0  0  0  0
  190.2070  177.2200  139.5670 C   0  0  0  0  0  0  0  0  0  0  0  0
  188.9420  178.5620  143.6190 C   0  0  0  0  0  2  0  0  0  0  0  0
  187.6520  177.9340  140.3960 C   0  0  0  0  0  0  0  0  0  0  0  0
  187.9790  177.9610  139.0560 C   0  0  0  0  0  0  0  0  0  0  0  0
  186.3310  178.3230  140.4600 C   0  0  0  0  0  0  0  0  0  0  0  0
  185.5080  178.4000  141.5060 C   0  0  0  0  0  2  0  0  0  0  0  0
  183.8080  179.4920  139.9530 C   0  0  0  0  0  2  0  0  0  0  0  0
  184.0430  178.6820  141.2500 C   0  0  2  0  0  3  0  0  0  0  0  0
  186.9480  178.3580  138.2760 N   0  0  0  0  0  0  0  0  0  0  0  0
  185.9500  178.5940  139.1580 C   0  0  0  0  0  0  0  0  0  0  0  0
  189.2480  177.6110  138.6140 C   0  0  0  0  0  3  0  0  0  0  0  0
  188.5710  177.5370  141.3770 C   0  0  2  0  0  3  0  0  0  0  0  0
  184.7530  179.0890  138.8410 C   0  0  0  0  0  2  0  0  0  0  0  0
  188.1820  177.5020  142.8260 C   0  0  0  0  0  2  0  0  0  0  0  0
  190.2990  176.8610  144.9840 C   0  0  1  0  0  3  0  0  0  0  0  0
  191.7030  176.3800  145.3260 C   0  0  0  0  0  1  0  0  0  0  0  0
  188.1700  176.9930  146.2810 O   0  0  0  0  0  0  0  0  0  0  0  0
  190.1610  177.5170  147.2890 O   0  0  0  0  0  1  0  0  0  0  0  0
  189.5510  177.1410  146.2520 C   0  0  0  0  0  0  0  0  0  0  0  0
  183.4830  179.3480  142.3420 O   0  0  0  0  0  0  0  0  0  0  0  0
  184.2500  178.9440  143.4400 C   0  0  0  0  0  2  0  0  0  0  0  0
  182.0250  178.6440  144.5190 O   0  0  0  0  0  0  0  0  0  0  0  0
  183.3910  178.8530  144.6520 C   0  0  0  0  0  0  0  0  0  0  0  0
  183.8970  178.9750  145.7980 O   0  0  0  0  0  1  0  0  0  0  0  0
  191.5870  176.8840  139.0940 C   0  0  0  0  0  2  0  0  0  0  0  0
  190.1450  175.0770  137.4710 S   0  0  0  0  0  0  0  0  0  0  0  0
  191.0030  173.8940  136.6400 C   0  0  0  0  0  0  0  0  0  0  0  0
  192.6450  175.0110  137.6730 C   0  0  0  0  0  0  0  0  0  0  0  0
  192.3350  173.9800  136.8390 N   0  0  0  0  0  0  0  0  0  0  0  0
  190.4070  172.9190  135.7920 N   0  0  0  0  0  1  0  0  0  0  0  0
  191.5490  175.7430  138.1260 C   0  0  0  0  0  0  0  0  0  0  0  0
  194.0280  175.3130  138.0580 C   0  0  0  0  0  3  0  0  0  0  0  0
  194.9200  175.5960  137.1660 N   0  0  0  0  0  2  0  0  0  0  0  0
  1 19  1  6  0  0  0
  2  1  1  0  0  0  0
  3 16  1  0  0  0  0
  3  4  1  0  0  0  0
  4  2  1  0  0  0  0
  5  3  2  0  0  0  0
  6  1  1  0  0  0  0
  7  9  2  0  0  0  0
  7 16  1  0  0  0  0
  8  7  1  0  0  0  0
  9 10  1  0  0  0  0
 11 12  1  0  0  0  0
 12 10  1  0  0  0  0
 12 24  1  1  0  0  0
 13  8  1  0  0  0  0
 13 14  2  0  0  0  0
 14  9  1  0  0  0  0
 15  8  2  0  0  0  0
 15  5  1  0  0  0  0
 16 18  1  1  0  0  0
 17 14  1  0  0  0  0
 17 11  1  0  0  0  0
 18  6  1  0  0  0  0
 19 20  1  1  0  0  0
 19 23  1  0  0  0  0
 23 21  2  0  0  0  0
 23 22  1  0  0  0  0
 24 25  1  0  0  0  0
 25 27  1  0  0  0  0
 26 27  2  0  0  0  0
 27 28  1  0  0  0  0
 29  5  1  0  0  0  0
 30 35  1  0  0  0  0
 31 33  2  0  0  0  0
 31 30  1  0  0  0  0
 32 36  1  0  0  0  0
 32 35  2  0  0  0  0
 33 32  1  0  0  0  0
 34 31  1  0  0  0  0
 35 29  1  0  0  0  0
 37 36  2  0  0  0  0
M  END
>  <MODEL>
8

>  <REMARK>
 VINA RESULT:      -8.5      1.961      3.078
  Name = 
  8 active torsions:
  status: ('A' for Active; 'I' for Inactive)
    1  A    between atoms: C_3  and  C_22
    2  A    between atoms: C_7  and  C_14
    3  A    between atoms: C_10  and  C_30
    4  A    between atoms: C_11  and  C_16
    5  A    between atoms: C_14  and  O_23
    6  A    between atoms: C_20  and  O_23
    7  A    between atoms: C_22  and  C_32
    8  A    between atoms: C_30  and  C_34
                            x       y       z     vdW  Elec       q    Type
                         _______ _______ _______ _____ _____    ______ ____

>  <TORSDO>
F 8

$$$$
=
 OpenBabel10222421123D

 37 41  0  0  1  0  0  0  0  0999 V2000
  189.1080  178.4080  138.2190 C   0  0  1  0  0  3  0  0  0  0  0  0
  187.7310  179.0040  137.8940 C   0  0  0  0  0  2  0  0  0  0  0  0
  186.2160  178.2670  139.7360 C   0  0  0  0  0  0  0  0  0  0  0  0
  186.5790  178.0830  138.2900 C   0  0  0  0  0  2  0  0  0  0  0  0
  184.9500  178.8190  140.0840 C   0  0  0  0  0  0  0  0  0  0  0  0
  189.3610  178.3260  139.7320 C   0  0  0  0  0  2  0  0  0  0  0  0
  186.7410  178.0980  142.0830 C   0  0  0  0  0  0  0  0  0  0  0  0
  185.5090  178.6260  142.4130 C   0  0  0  0  0  0  0  0  0  0  0  0
  187.3640  177.8410  143.2850 C   0  0  0  0  0  0  0  0  0  0  0  0
  188.5410  177.2660  143.5380 C   0  0  0  0  0  2  0  0  0  0  0  0
  188.1980  177.8860  145.9860 C   0  0  0  0  0  2  0  0  0  0  0  0
  188.8890  176.9420  144.9740 C   0  0  2  0  0  3  0  0  0  0  0  0
  185.3280  178.7300  143.7480 N   0  0  0  0  0  0  0  0  0  0  0  0
  186.4840  178.2610  144.2680 C   0  0  0  0  0  0  0  0  0  0  0  0
  184.5960  178.9970  141.4340 C   0  0  0  0  0  3  0  0  0  0  0  0
  187.1280  177.8900  140.7530 C   0  0  2  0  0  3  0  0  0  0  0  0
  186.7900  178.2520  145.5670 C   0  0  0  0  0  2  0  0  0  0  0  0
  188.4680  177.2990  140.4240 C   0  0  0  0  0  2  0  0  0  0  0  0
  189.3890  177.0840  137.4830 C   0  0  1  0  0  3  0  0  0  0  0  0
  189.4540  177.2890  135.9750 C   0  0  0  0  0  1  0  0  0  0  0  0
  191.8700  177.1070  137.7630 O   0  0  0  0  0  0  0  0  0  0  0  0
  190.6490  175.3120  138.5010 O   0  0  0  0  0  1  0  0  0  0  0  0
  190.6620  176.4460  137.9490 C   0  0  0  0  0  0  0  0  0  0  0  0
  190.2740  176.9740  145.1520 O   0  0  0  0  0  0  0  0  0  0  0  0
  190.4560  177.1020  146.5320 C   0  0  0  0  0  2  0  0  0  0  0  0
  192.3100  176.6960  148.1450 O   0  0  0  0  0  1  0  0  0  0  0  0
  191.6790  176.3660  146.9530 C   0  0  0  0  0  0  0  0  0  0  0  0
  192.1490  175.4510  146.2290 O   0  0  0  0  0  0  0  0  0  0  0  0
  183.9830  179.2580  139.0280 C   0  0  0  0  0  2  0  0  0  0  0  0
  182.9990  176.7360  138.2230 S   0  0  0  0  0  0  0  0  0  0  0  0
  181.3570  176.4250  138.4080 C   0  0  0  0  0  0  0  0  0  0  0  0
  181.5300  178.4930  139.2450 C   0  0  0  0  0  0  0  0  0  0  0  0
  180.6930  177.4550  138.9720 N   0  0  0  0  0  0  0  0  0  0  0  0
  180.7280  175.2020  138.0430 N   0  0  0  0  0  1  0  0  0  0  0  0
  182.8630  178.2740  138.8990 C   0  0  0  0  0  0  0  0  0  0  0  0
  181.0520  179.7410  139.8520 C   0  0  0  0  0  3  0  0  0  0  0  0
  180.5590  179.7520  141.0470 N   0  0  0  0  0  2  0  0  0  0  0  0
  1 19  1  1  0  0  0
  1  6  1  0  0  0  0
  2  1  1  0  0  0  0
  2  4  1  0  0  0  0
  3  5  2  0  0  0  0
  3 16  1  0  0  0  0
  4  3  1  0  0  0  0
  5 15  1  0  0  0  0
  6 18  1  0  0  0  0
  7  8  1  0  0  0  0
  7  9  2  0  0  0  0
  8 13  1  0  0  0  0
  9 10  1  0  0  0  0
  9 14  1  0  0  0  0
 10 12  1  0  0  0  0
 12 24  1  6  0  0  0
 12 11  1  0  0  0  0
 13 14  2  0  0  0  0
 14 17  1  0  0  0  0
 15  8  2  0  0  0  0
 16 18  1  6  0  0  0
 16  7  1  0  0  0  0
 17 11  1  0  0  0  0
 19 20  1  6  0  0  0
 19 23  1  0  0  0  0
 21 23  2  0  0  0  0
 23 22  1  0  0  0  0
 24 25  1  0  0  0  0
 25 27  1  0  0  0  0
 27 26  1  0  0  0  0
 28 27  2  0  0  0  0
 29  5  1  0  0  0  0
 30 31  1  0  0  0  0
 30 35  1  0  0  0  0
 31 33  2  0  0  0  0
 32 36  1  0  0  0  0
 33 32  1  0  0  0  0
 34 31  1  0  0  0  0
 35 29  1  0  0  0  0
 35 32  2  0  0  0  0
 36 37  2  0  0  0  0
M  END
>  <MODEL>
9

>  <REMARK>
 VINA RESULT:      -8.4      3.548      6.661
  Name = 
  8 active torsions:
  status: ('A' for Active; 'I' for Inactive)
    1  A    between atoms: C_3  and  C_22
    2  A    between atoms: C_7  and  C_14
    3  A    between atoms: C_10  and  C_30
    4  A    between atoms: C_11  and  C_16
    5  A    between atoms: C_14  and  O_23
    6  A    between atoms: C_20  and  O_23
    7  A    between atoms: C_22  and  C_32
    8  A    between atoms: C_30  and  C_34
                            x       y       z     vdW  Elec       q    Type
                         _______ _______ _______ _____ _____    ______ ____

>  <TORSDO>
F 8

$$$$
