=
 OpenBabel10222419193D

 65 69  0  0  1  0  0  0  0  0999 V2000
  185.4160  177.2290  143.0740 C   0  0  0  0  0  2  0  0  0  0  0  0
  186.8700  177.5520  143.2290 C   0  0  0  0  0  3  0  0  0  0  0  0
  183.5690  178.7350  142.4020 C   0  0  0  0  0  0  0  0  0  0  0  0
  185.5950  178.8120  145.6570 N   0  0  0  0  0  2  0  0  0  0  0  0
  183.9230  180.1730  144.8610 O   0  0  0  0  0  0  0  0  0  0  0  0
  184.5290  178.4250  143.3250 C   0  0  0  0  0  0  0  0  0  0  0  0
  184.6490  179.1680  144.6350 C   0  0  0  0  0  0  0  0  0  0  0  0
  187.3960  177.7600  144.4370 C   0  0  0  0  0  0  0  0  0  0  0  0
  186.5170  177.6840  145.6390 C   0  0  0  0  0  2  0  0  0  0  0  0
  179.2260  178.6220  142.8510 C   0  0  0  0  0  3  0  0  0  0  0  0
  181.1480  179.5140  142.8320 C   0  0  0  0  0  0  0  0  0  0  0  0
  179.1170  179.9510  143.2170 C   0  0  0  0  0  3  0  0  0  0  0  0
  180.5220  178.3460  142.6050 N   0  0  0  0  0  0  0  0  0  0  0  0
  180.3250  180.4650  143.1900 O   0  0  0  0  0  0  0  0  0  0  0  0
  182.5630  179.7170  142.7200 N   0  0  0  0  0  2  0  0  0  0  0  0
  183.3730  178.6620  139.9230 C   0  0  0  0  0  3  0  0  0  0  0  0
  183.4680  178.0390  141.0940 C   0  0  0  0  0  3  0  0  0  0  0  0
  182.6090  176.3730  137.0310 C   0  0  1  0  0  3  0  0  0  0  0  0
  182.1610  177.1020  138.3120 C   0  0  1  0  0  3  0  0  0  0  0  0
  184.6260  176.7680  135.7280 O   0  0  0  0  0  0  0  0  0  0  0  0
  183.3020  177.9300  138.6970 N   0  0  0  0  0  0  0  0  0  0  0  0
  183.9280  177.0070  136.7480 C   0  0  0  0  0  0  0  0  0  0  0  0
  184.3330  177.8980  137.7600 N   0  0  0  0  0  2  0  0  0  0  0  0
  180.7380  178.1400  137.9860 S   0  0  0  0  0  0  0  0  0  0  0  0
  180.1560  178.6310  139.2820 O   0  0  0  0  0  0  0  0  0  0  0  0
  179.7050  177.3120  137.2740 O   0  0  0  0  0  0  0  0  0  0  0  0
  181.1530  179.5270  136.9320 C   0  0  2  0  0  3  0  0  0  0  0  0
  180.9320  180.8340  137.6200 C   0  0  0  0  0  0  0  0  0  0  0  0
  181.8670  181.3550  138.2830 O   0  0  0  0  0  1  0  0  0  0  0  0
  179.7180  181.5010  137.4960 O   0  0  0  0  0  0  0  0  0  0  0  0
  181.3130  179.1670  134.7550 C   0  0  0  0  0  1  0  0  0  0  0  0
  180.3940  179.4780  135.7610 O   0  0  0  0  0  0  0  0  0  0  0  0
  182.8060  175.0230  137.3310 O   0  0  0  0  0  0  0  0  0  0  0  0
  181.9280  174.3260  136.4980 C   0  0  0  0  0  2  0  0  0  0  0  0
  181.0960  173.3810  137.3390 C   0  0  0  0  0  2  0  0  0  0  0  0
  179.8870  172.9010  136.5570 C   0  0  0  0  0  2  0  0  0  0  0  0
  179.9480  170.6720  136.2290 O   0  0  0  0  0  1  0  0  0  0  0  0
  179.4450  171.6130  137.0630 N   0  0  0  0  0  2  0  0  0  0  0  0
  188.7530  178.0520  144.6110 O   0  0  0  0  0  0  0  0  0  0  0  0
  189.4870  178.8930  143.7280 C   0  0  0  0  0  2  0  0  0  0  0  0
  190.2570  178.0570  142.7590 C   0  0  0  0  0  0  0  0  0  0  0  0
  189.6870  177.6750  141.6650 N   0  0  0  0  0  0  0  0  0  0  0  0
  190.3590  176.8890  140.6590 C   0  0  0  0  0  2  0  0  0  0  0  0
  190.7020  176.9380  138.1190 N   0  0  0  0  0  2  0  0  0  0  0  0
  190.0790  177.4550  139.3020 C   0  0  0  0  0  0  0  0  0  0  0  0
  189.2990  178.4380  139.2010 O   0  0  0  0  0  0  0  0  0  0  0  0
  191.5650  175.7600  138.0120 C   0  0  2  0  0  3  0  0  0  0  0  0
  194.9370  175.3140  136.9970 C   0  0  2  0  0  3  0  0  0  0  0  0
  193.9670  175.5810  137.9780 O   0  0  0  0  0  0  0  0  0  0  0  0
  192.8960  175.4890  135.8490 C   0  0  0  0  0  2  0  0  0  0  0  0
  194.2170  174.7870  135.7610 C   0  0  2  0  0  3  0  0  0  0  0  0
  192.8620  176.0650  137.2580 C   0  0  1  0  0  3  0  0  0  0  0  0
  193.9610  173.2870  135.8290 C   0  0  0  0  0  1  0  0  0  0  0  0
  196.0500  174.4050  137.5300 C   0  0  2  0  0  3  0  0  0  0  0  0
  195.8010  174.0630  138.9870 C   0  0  0  0  0  1  0  0  0  0  0  0
  197.2810  175.0530  137.4230 O   0  0  0  0  0  1  0  0  0  0  0  0
  190.8240  174.5200  137.5140 C   0  0  0  0  0  2  0  0  0  0  0  0
  189.5590  174.8790  137.0470 O   0  0  0  0  0  1  0  0  0  0  0  0
  191.6930  177.7340  143.0640 C   0  0  0  0  0  2  0  0  0  0  0  0
  191.7880  176.7800  144.2080 C   0  0  0  0  0  0  0  0  0  0  0  0
  191.6920  177.2520  145.5210 C   0  0  0  0  0  3  0  0  0  0  0  0
  192.0220  175.0050  146.3570 C   0  0  0  0  0  3  0  0  0  0  0  0
  192.0060  175.4170  143.9720 C   0  0  0  0  0  3  0  0  0  0  0  0
  192.1240  174.5310  145.0450 C   0  0  0  0  0  3  0  0  0  0  0  0
  191.8070  176.3650  146.5950 C   0  0  0  0  0  3  0  0  0  0  0  0
  1  2  1  0  0  0  0
  1  6  1  0  0  0  0
  2  8  2  0  0  0  0
  3 15  1  0  0  0  0
  3  6  2  0  0  0  0
  6  7  1  0  0  0  0
  7  5  2  0  0  0  0
  7  4  1  0  0  0  0
  8 39  1  0  0  0  0
  8  9  1  0  0  0  0
  9  4  1  0  0  0  0
 10 12  2  0  0  0  0
 11 14  1  0  0  0  0
 13 11  2  0  0  0  0
 13 10  1  0  0  0  0
 14 12  1  0  0  0  0
 15 11  1  0  0  0  0
 16 17  2  0  0  0  0
 17  3  1  0  0  0  0
 18 33  1  1  0  0  0
 18 19  1  0  0  0  0
 19 24  1  6  0  0  0
 19 21  1  0  0  0  0
 20 22  2  0  0  0  0
 21 16  1  0  0  0  0
 22 18  1  0  0  0  0
 22 23  1  0  0  0  0
 23 21  1  0  0  0  0
 24 25  2  0  0  0  0
 26 24  2  0  0  0  0
 27 32  1  6  0  0  0
 27 28  1  0  0  0  0
 27 24  1  0  0  0  0
 28 29  1  0  0  0  0
 30 28  2  0  0  0  0
 31 32  1  0  0  0  0
 34 33  1  0  0  0  0
 34 35  1  0  0  0  0
 36 38  1  0  0  0  0
 36 35  1  0  0  0  0
 37 38  1  0  0  0  0
 40 39  1  0  0  0  0
 41 59  1  0  0  0  0
 41 40  1  0  0  0  0
 42 41  2  0  0  0  0
 43 42  1  0  0  0  0
 44 45  1  0  0  0  0
 45 43  1  0  0  0  0
 46 45  2  0  0  0  0
 47 57  1  6  0  0  0
 47 44  1  0  0  0  0
 48 54  1  1  0  0  0
 48 49  1  0  0  0  0
 50 52  1  0  0  0  0
 51 53  1  1  0  0  0
 51 50  1  0  0  0  0
 51 48  1  0  0  0  0
 52 49  1  0  0  0  0
 52 47  1  1  0  0  0
 54 55  1  1  0  0  0
 56 54  1  0  0  0  0
 58 57  1  0  0  0  0
 59 60  1  0  0  0  0
 60 61  1  0  0  0  0
 61 65  2  0  0  0  0
 62 65  1  0  0  0  0
 63 60  2  0  0  0  0
 63 64  1  0  0  0  0
 64 62  2  0  0  0  0
M  END
>  <MODEL>
1

>  <REMARK>
 VINA RESULT:      -6.2      0.000      0.000
  Name = 
  23 active torsions:
  status: ('A' for Active; 'I' for Inactive)
    1  A    between atoms: C_1  and  C_13
    2  A    between atoms: C_2  and  N_25
    3  A    between atoms: C_3  and  C_62
    4  A    between atoms: S_4  and  C_9
    5  A    between atoms: S_4  and  C_21
    6  A    between atoms: C_6  and  O_63
    7  A    between atoms: N_7  and  CA_49
    8  A    between atoms: C_8  and  C_38
    9  A    between atoms: C_17  and  CA_49
   10  A    between atoms: C_20  and  C_26
   11  A    between atoms: C_21  and  O_30
   12  A    between atoms: C_21  and  C_33
   13  A    between atoms: C_26  and  N_61
   14  A    between atoms: C_31  and  CA_49
   15  A    between atoms: C_32  and  C_44
   16  A    between atoms: C_32  and  C_64
   17  A    between atoms: C_38  and  N_54
   18  A    between atoms: C_39  and  C_47
   19  A    between atoms: C_39  and  O_56
   20  A    between atoms: C_44  and  O_63
   21  A    between atoms: C_47  and  C_62
   22  A    between atoms: C_53  and  O_56
   23  A    between atoms: N_55  and  C_64
                            x       y       z     vdW  Elec       q    Type
                         _______ _______ _______ _____ _____    ______ ____

>  <TORSDO>
F 23

$$$$
=
 OpenBabel10222419193D

 65 69  0  0  1  0  0  0  0  0999 V2000
  187.8820  174.1470  137.4580 C   0  0  0  0  0  2  0  0  0  0  0  0
  186.7030  173.7990  136.6040 C   0  0  0  0  0  3  0  0  0  0  0  0
  189.6040  175.8840  137.0700 C   0  0  0  0  0  0  0  0  0  0  0  0
  189.0470  172.6470  135.0900 N   0  0  0  0  0  2  0  0  0  0  0  0
  190.5330  174.3760  134.8100 O   0  0  0  0  0  0  0  0  0  0  0  0
  189.0290  174.7140  136.6560 C   0  0  0  0  0  0  0  0  0  0  0  0
  189.5800  173.9180  135.4960 C   0  0  0  0  0  0  0  0  0  0  0  0
  186.7360  172.7390  135.7950 C   0  0  0  0  0  0  0  0  0  0  0  0
  187.9710  171.9050  135.7360 C   0  0  0  0  0  2  0  0  0  0  0  0
  193.8170  174.9100  137.6880 C   0  0  0  0  0  3  0  0  0  0  0  0
  192.1680  175.8970  136.7930 C   0  0  0  0  0  0  0  0  0  0  0  0
  194.2700  175.7230  136.6640 C   0  0  0  0  0  3  0  0  0  0  0  0
  192.4760  175.0230  137.7680 N   0  0  0  0  0  0  0  0  0  0  0  0
  193.2220  176.3150  136.1410 O   0  0  0  0  0  0  0  0  0  0  0  0
  190.8390  176.3240  136.4710 N   0  0  0  0  0  2  0  0  0  0  0  0
  189.1900  176.3930  139.4700 C   0  0  0  0  0  3  0  0  0  0  0  0
  189.0460  176.6940  138.1820 C   0  0  0  0  0  3  0  0  0  0  0  0
  187.7800  177.9670  142.5870 C   0  0  1  0  0  3  0  0  0  0  0  0
  188.6150  176.8660  141.9070 C   0  0  1  0  0  3  0  0  0  0  0  0
  186.9830  180.0450  141.6020 O   0  0  0  0  0  0  0  0  0  0  0  0
  188.6460  177.2300  140.4930 N   0  0  0  0  0  0  0  0  0  0  0  0
  187.5600  178.9340  141.4740 C   0  0  0  0  0  0  0  0  0  0  0  0
  188.0500  178.4640  140.2400 N   0  0  0  0  0  2  0  0  0  0  0  0
  190.2810  176.8370  142.5650 S   0  0  0  0  0  0  0  0  0  0  0  0
  191.2160  177.5400  141.6190 O   0  0  0  0  0  0  0  0  0  0  0  0
  190.7120  175.4040  142.6950 O   0  0  0  0  0  0  0  0  0  0  0  0
  190.3690  177.5880  144.1890 C   0  0  2  0  0  3  0  0  0  0  0  0
  191.2600  178.7870  144.2010 C   0  0  0  0  0  0  0  0  0  0  0  0
  192.4910  178.6460  144.4220 O   0  0  0  0  0  1  0  0  0  0  0  0
  190.7470  180.0500  143.9260 O   0  0  0  0  0  0  0  0  0  0  0  0
  190.1230  176.9450  146.2920 C   0  0  0  0  0  1  0  0  0  0  0  0
  190.8260  176.6530  145.1200 O   0  0  0  0  0  0  0  0  0  0  0  0
  186.5520  177.4250  142.9700 O   0  0  0  0  0  0  0  0  0  0  0  0
  186.1870  178.1140  144.1290 C   0  0  0  0  0  2  0  0  0  0  0  0
  186.9220  177.5170  145.3100 C   0  0  0  0  0  2  0  0  0  0  0  0
  186.4200  178.1240  146.6070 C   0  0  0  0  0  2  0  0  0  0  0  0
  184.2190  178.5970  146.7100 O   0  0  0  0  0  1  0  0  0  0  0  0
  185.4060  179.1260  146.3290 N   0  0  0  0  0  2  0  0  0  0  0  0
  185.6460  172.3850  134.9950 O   0  0  0  0  0  0  0  0  0  0  0  0
  184.6400  173.3110  134.5970 C   0  0  0  0  0  2  0  0  0  0  0  0
  183.7570  173.6280  135.7600 C   0  0  0  0  0  0  0  0  0  0  0  0
  183.3830  174.8490  135.9510 N   0  0  0  0  0  0  0  0  0  0  0  0
  182.5100  175.2450  137.0300 C   0  0  0  0  0  2  0  0  0  0  0  0
  180.2440  176.4360  137.1490 N   0  0  0  0  0  2  0  0  0  0  0  0
  181.5320  176.2660  136.5420 C   0  0  0  0  0  0  0  0  0  0  0  0
  181.8340  176.9720  135.5450 O   0  0  0  0  0  0  0  0  0  0  0  0
  179.7380  175.7800  138.3570 C   0  0  2  0  0  3  0  0  0  0  0  0
  180.9780  178.1360  140.7050 C   0  0  2  0  0  3  0  0  0  0  0  0
  180.9720  176.8560  140.1250 O   0  0  0  0  0  0  0  0  0  0  0  0
  179.1730  178.1230  139.2050 C   0  0  0  0  0  2  0  0  0  0  0  0
  180.1770  179.0630  139.8000 C   0  0  2  0  0  3  0  0  0  0  0  0
  179.6940  176.7350  139.5530 C   0  0  1  0  0  3  0  0  0  0  0  0
  181.0140  179.6410  138.6670 C   0  0  0  0  0  1  0  0  0  0  0  0
  182.4020  178.6120  141.0160 C   0  0  2  0  0  3  0  0  0  0  0  0
  183.4130  177.5560  140.6100 C   0  0  0  0  0  1  0  0  0  0  0  0
  182.5300  178.8560  142.3850 O   0  0  0  0  0  1  0  0  0  0  0  0
  180.4220  174.4450  138.6430 C   0  0  0  0  0  2  0  0  0  0  0  0
  179.5290  173.5830  139.2810 O   0  0  0  0  0  1  0  0  0  0  0  0
  183.2870  172.5030  136.6380 C   0  0  0  0  0  2  0  0  0  0  0  0
  182.2370  171.6960  135.9490 C   0  0  0  0  0  0  0  0  0  0  0  0
  182.5180  170.3890  135.5370 C   0  0  0  0  0  3  0  0  0  0  0  0
  180.2920  170.2000  134.6070 C   0  0  0  0  0  3  0  0  0  0  0  0
  180.9810  172.2560  135.6840 C   0  0  0  0  0  3  0  0  0  0  0  0
  180.0110  171.5080  135.0120 C   0  0  0  0  0  3  0  0  0  0  0  0
  181.5460  169.6410  134.8690 C   0  0  0  0  0  3  0  0  0  0  0  0
  2  1  1  0  0  0  0
  3 17  1  0  0  0  0
  4  7  1  0  0  0  0
  4  9  1  0  0  0  0
  5  7  2  0  0  0  0
  6  3  2  0  0  0  0
  6  1  1  0  0  0  0
  7  6  1  0  0  0  0
  8  2  2  0  0  0  0
  9  8  1  0  0  0  0
 10 13  1  0  0  0  0
 11 13  2  0  0  0  0
 12 10  2  0  0  0  0
 14 12  1  0  0  0  0
 14 11  1  0  0  0  0
 15 11  1  0  0  0  0
 15  3  1  0  0  0  0
 16 21  1  0  0  0  0
 17 16  2  0  0  0  0
 18 33  1  6  0  0  0
 19 24  1  1  0  0  0
 19 18  1  0  0  0  0
 21 19  1  0  0  0  0
 22 20  2  0  0  0  0
 22 18  1  0  0  0  0
 23 21  1  0  0  0  0
 23 22  1  0  0  0  0
 24 26  2  0  0  0  0
 24 27  1  0  0  0  0
 25 24  2  0  0  0  0
 27 28  1  6  0  0  0
 27 32  1  0  0  0  0
 28 29  1  0  0  0  0
 30 28  2  0  0  0  0
 32 31  1  0  0  0  0
 33 34  1  0  0  0  0
 34 35  1  0  0  0  0
 35 36  1  0  0  0  0
 38 36  1  0  0  0  0
 38 37  1  0  0  0  0
 39  8  1  0  0  0  0
 40 39  1  0  0  0  0
 40 41  1  0  0  0  0
 41 42  2  0  0  0  0
 41 59  1  0  0  0  0
 42 43  1  0  0  0  0
 44 47  1  0  0  0  0
 45 43  1  0  0  0  0
 45 44  1  0  0  0  0
 46 45  2  0  0  0  0
 47 57  1  1  0  0  0
 48 54  1  6  0  0  0
 49 48  1  0  0  0  0
 50 52  1  0  0  0  0
 50 51  1  0  0  0  0
 51 53  1  6  0  0  0
 51 48  1  0  0  0  0
 52 47  1  6  0  0  0
 52 49  1  0  0  0  0
 54 55  1  1  0  0  0
 54 56  1  0  0  0  0
 57 58  1  0  0  0  0
 60 59  1  0  0  0  0
 61 60  2  0  0  0  0
 62 65  2  0  0  0  0
 62 64  1  0  0  0  0
 63 60  1  0  0  0  0
 64 63  2  0  0  0  0
 65 61  1  0  0  0  0
M  END
>  <MODEL>
2

>  <REMARK>
 VINA RESULT:      -5.2      2.986     12.030
  Name = 
  23 active torsions:
  status: ('A' for Active; 'I' for Inactive)
    1  A    between atoms: C_1  and  C_13
    2  A    between atoms: C_2  and  N_25
    3  A    between atoms: C_3  and  C_62
    4  A    between atoms: S_4  and  C_9
    5  A    between atoms: S_4  and  C_21
    6  A    between atoms: C_6  and  O_63
    7  A    between atoms: N_7  and  CA_49
    8  A    between atoms: C_8  and  C_38
    9  A    between atoms: C_17  and  CA_49
   10  A    between atoms: C_20  and  C_26
   11  A    between atoms: C_21  and  O_30
   12  A    between atoms: C_21  and  C_33
   13  A    between atoms: C_26  and  N_61
   14  A    between atoms: C_31  and  CA_49
   15  A    between atoms: C_32  and  C_44
   16  A    between atoms: C_32  and  C_64
   17  A    between atoms: C_38  and  N_54
   18  A    between atoms: C_39  and  C_47
   19  A    between atoms: C_39  and  O_56
   20  A    between atoms: C_44  and  O_63
   21  A    between atoms: C_47  and  C_62
   22  A    between atoms: C_53  and  O_56
   23  A    between atoms: N_55  and  C_64
                            x       y       z     vdW  Elec       q    Type
                         _______ _______ _______ _____ _____    ______ ____

>  <TORSDO>
F 23

$$$$
=
 OpenBabel10222419193D

 65 69  0  0  1  0  0  0  0  0999 V2000
  186.4330  178.9460  142.4100 C   0  0  0  0  0  2  0  0  0  0  0  0
  185.1930  178.3240  141.8460 C   0  0  0  0  0  3  0  0  0  0  0  0
  188.0890  177.9470  143.9570 C   0  0  0  0  0  0  0  0  0  0  0  0
  184.4560  178.9180  144.7130 N   0  0  0  0  0  2  0  0  0  0  0  0
  186.0760  177.9210  146.0030 O   0  0  0  0  0  0  0  0  0  0  0  0
  186.8050  178.3740  143.7570 C   0  0  0  0  0  0  0  0  0  0  0  0
  185.7880  178.3990  144.8730 C   0  0  0  0  0  0  0  0  0  0  0  0
  183.9950  178.6070  142.3610 C   0  0  0  0  0  0  0  0  0  0  0  0
  183.9000  179.5410  143.5190 C   0  0  0  0  0  2  0  0  0  0  0  0
  191.8490  176.5140  145.6540 C   0  0  0  0  0  3  0  0  0  0  0  0
  189.8290  177.1530  145.6870 C   0  0  0  0  0  0  0  0  0  0  0  0
  191.4010  176.5470  146.9620 C   0  0  0  0  0  3  0  0  0  0  0  0
  190.8450  176.9000  144.8420 N   0  0  0  0  0  0  0  0  0  0  0  0
  190.1500  176.9430  146.9370 O   0  0  0  0  0  0  0  0  0  0  0  0
  188.5340  177.6190  145.2880 N   0  0  0  0  0  2  0  0  0  0  0  0
  189.1610  176.8840  141.9800 C   0  0  0  0  0  3  0  0  0  0  0  0
  189.0850  177.8800  142.8580 C   0  0  0  0  0  3  0  0  0  0  0  0
  191.2090  176.4770  138.8460 C   0  0  1  0  0  3  0  0  0  0  0  0
  189.8420  176.4870  139.5560 C   0  0  1  0  0  3  0  0  0  0  0  0
  193.3340  177.2920  139.7070 O   0  0  0  0  0  0  0  0  0  0  0  0
  190.1310  176.8920  140.9300 N   0  0  0  0  0  0  0  0  0  0  0  0
  192.1150  177.0400  139.8870 C   0  0  0  0  0  0  0  0  0  0  0  0
  191.4650  177.2470  141.1190 N   0  0  0  0  0  2  0  0  0  0  0  0
  188.7400  177.6740  138.7910 S   0  0  0  0  0  0  0  0  0  0  0  0
  189.5160  178.8900  138.3640 O   0  0  0  0  0  0  0  0  0  0  0  0
  187.7140  178.0870  139.8070 O   0  0  0  0  0  0  0  0  0  0  0  0
  187.8740  176.9730  137.3880 C   0  0  2  0  0  3  0  0  0  0  0  0
  186.9340  177.9520  136.7670 C   0  0  0  0  0  0  0  0  0  0  0  0
  185.8520  178.2300  137.3460 O   0  0  0  0  0  1  0  0  0  0  0  0
  187.2660  178.5910  135.5770 O   0  0  0  0  0  0  0  0  0  0  0  0
  187.2970  174.9460  136.7120 C   0  0  0  0  0  1  0  0  0  0  0  0
  187.1730  175.8330  137.7850 O   0  0  0  0  0  0  0  0  0  0  0  0
  191.5720  175.1520  138.5930 O   0  0  0  0  0  0  0  0  0  0  0  0
  191.3480  174.9600  137.2280 C   0  0  0  0  0  2  0  0  0  0  0  0
  192.6020  175.3300  136.4650 C   0  0  0  0  0  2  0  0  0  0  0  0
  192.9640  174.2350  135.4790 C   0  0  0  0  0  2  0  0  0  0  0  0
  190.8650  173.5000  135.1110 O   0  0  0  0  0  1  0  0  0  0  0  0
  192.0560  173.1110  135.6260 N   0  0  0  0  0  2  0  0  0  0  0  0
  182.8200  178.0490  141.8470 O   0  0  0  0  0  0  0  0  0  0  0  0
  181.8540  178.8040  141.1230 C   0  0  0  0  0  2  0  0  0  0  0  0
  181.8560  178.3820  139.6890 C   0  0  0  0  0  0  0  0  0  0  0  0
  181.5880  179.2560  138.7770 N   0  0  0  0  0  0  0  0  0  0  0  0
  181.5930  178.9490  137.3660 C   0  0  0  0  0  2  0  0  0  0  0  0
  180.5270  176.9580  136.1550 N   0  0  0  0  0  2  0  0  0  0  0  0
  180.4170  178.0870  137.0310 C   0  0  0  0  0  0  0  0  0  0  0  0
  179.2890  178.3840  137.5040 O   0  0  0  0  0  0  0  0  0  0  0  0
  181.7500  176.4000  135.5740 C   0  0  2  0  0  3  0  0  0  0  0  0
  181.1900  172.8980  135.4160 C   0  0  2  0  0  3  0  0  0  0  0  0
  181.9900  174.0080  135.7340 O   0  0  0  0  0  0  0  0  0  0  0  0
  180.0380  174.7740  134.5980 C   0  0  0  0  0  2  0  0  0  0  0  0
  179.7780  173.4040  135.1470 C   0  0  2  0  0  3  0  0  0  0  0  0
  181.5030  175.0410  134.9150 C   0  0  1  0  0  3  0  0  0  0  0  0
  178.9570  173.5530  136.4210 C   0  0  0  0  0  1  0  0  0  0  0  0
  181.2880  171.8010  136.4820 C   0  0  2  0  0  3  0  0  0  0  0  0
  182.7390  171.4360  136.7320 C   0  0  0  0  0  1  0  0  0  0  0  0
  180.6030  170.6630  136.0540 O   0  0  0  0  0  1  0  0  0  0  0  0
  182.9350  176.4270  136.5370 C   0  0  0  0  0  2  0  0  0  0  0  0
  184.1000  176.0540  135.8650 O   0  0  0  0  0  1  0  0  0  0  0  0
  182.2270  176.9660  139.3520 C   0  0  0  0  0  2  0  0  0  0  0  0
  181.0900  176.0400  139.6320 C   0  0  0  0  0  0  0  0  0  0  0  0
  180.0160  176.4710  140.4180 C   0  0  0  0  0  3  0  0  0  0  0  0
  178.9820  174.2930  140.2040 C   0  0  0  0  0  3  0  0  0  0  0  0
  181.1100  174.7320  139.1340 C   0  0  0  0  0  3  0  0  0  0  0  0
  180.0570  173.8590  139.4210 C   0  0  0  0  0  3  0  0  0  0  0  0
  178.9620  175.5990  140.7030 C   0  0  0  0  0  3  0  0  0  0  0  0
  1  6  1  0  0  0  0
  2  8  2  0  0  0  0
  2  1  1  0  0  0  0
  3 15  1  0  0  0  0
  4  7  1  0  0  0  0
  6  3  2  0  0  0  0
  6  7  1  0  0  0  0
  7  5  2  0  0  0  0
  8  9  1  0  0  0  0
  9  4  1  0  0  0  0
 10 12  2  0  0  0  0
 11 14  1  0  0  0  0
 13 10  1  0  0  0  0
 13 11  2  0  0  0  0
 14 12  1  0  0  0  0
 15 11  1  0  0  0  0
 16 17  2  0  0  0  0
 17  3  1  0  0  0  0
 18 33  1  1  0  0  0
 18 19  1  0  0  0  0
 18 22  1  0  0  0  0
 19 24  1  6  0  0  0
 19 21  1  0  0  0  0
 20 22  2  0  0  0  0
 21 23  1  0  0  0  0
 21 16  1  0  0  0  0
 22 23  1  0  0  0  0
 24 26  2  0  0  0  0
 25 24  2  0  0  0  0
 27 28  1  1  0  0  0
 27 32  1  0  0  0  0
 27 24  1  0  0  0  0
 28 29  1  0  0  0  0
 30 28  2  0  0  0  0
 31 32  1  0  0  0  0
 34 33  1  0  0  0  0
 35 34  1  0  0  0  0
 36 38  1  0  0  0  0
 36 35  1  0  0  0  0
 37 38  1  0  0  0  0
 39  8  1  0  0  0  0
 40 39  1  0  0  0  0
 41 40  1  0  0  0  0
 42 41  2  0  0  0  0
 43 42  1  0  0  0  0
 44 45  1  0  0  0  0
 45 43  1  0  0  0  0
 45 46  2  0  0  0  0
 47 44  1  0  0  0  0
 47 57  1  1  0  0  0
 48 49  1  0  0  0  0
 48 54  1  1  0  0  0
 50 52  1  0  0  0  0
 50 51  1  0  0  0  0
 51 48  1  0  0  0  0
 51 53  1  1  0  0  0
 52 47  1  1  0  0  0
 52 49  1  0  0  0  0
 54 55  1  6  0  0  0
 56 54  1  0  0  0  0
 58 57  1  0  0  0  0
 59 60  1  0  0  0  0
 59 41  1  0  0  0  0
 60 61  1  0  0  0  0
 61 65  2  0  0  0  0
 62 65  1  0  0  0  0
 63 64  1  0  0  0  0
 63 60  2  0  0  0  0
 64 62  2  0  0  0  0
M  END
>  <MODEL>
3

>  <REMARK>
 VINA RESULT:      -5.1      2.476      9.928
  Name = 
  23 active torsions:
  status: ('A' for Active; 'I' for Inactive)
    1  A    between atoms: C_1  and  C_13
    2  A    between atoms: C_2  and  N_25
    3  A    between atoms: C_3  and  C_62
    4  A    between atoms: S_4  and  C_9
    5  A    between atoms: S_4  and  C_21
    6  A    between atoms: C_6  and  O_63
    7  A    between atoms: N_7  and  CA_49
    8  A    between atoms: C_8  and  C_38
    9  A    between atoms: C_17  and  CA_49
   10  A    between atoms: C_20  and  C_26
   11  A    between atoms: C_21  and  O_30
   12  A    between atoms: C_21  and  C_33
   13  A    between atoms: C_26  and  N_61
   14  A    between atoms: C_31  and  CA_49
   15  A    between atoms: C_32  and  C_44
   16  A    between atoms: C_32  and  C_64
   17  A    between atoms: C_38  and  N_54
   18  A    between atoms: C_39  and  C_47
   19  A    between atoms: C_39  and  O_56
   20  A    between atoms: C_44  and  O_63
   21  A    between atoms: C_47  and  C_62
   22  A    between atoms: C_53  and  O_56
   23  A    between atoms: N_55  and  C_64
                            x       y       z     vdW  Elec       q    Type
                         _______ _______ _______ _____ _____    ______ ____

>  <TORSDO>
F 23

$$$$
=
 OpenBabel10222419193D

 65 69  0  0  1  0  0  0  0  0999 V2000
  188.8690  175.0170  137.7270 C   0  0  0  0  0  2  0  0  0  0  0  0
  187.5100  175.5110  137.3420 C   0  0  0  0  0  3  0  0  0  0  0  0
  190.9870  176.2920  137.8680 C   0  0  0  0  0  0  0  0  0  0  0  0
  188.9950  175.3880  134.7170 N   0  0  0  0  0  2  0  0  0  0  0  0
  190.9130  176.6180  135.0160 O   0  0  0  0  0  0  0  0  0  0  0  0
  189.9780  175.8120  137.0800 C   0  0  0  0  0  0  0  0  0  0  0  0
  190.0000  175.9530  135.5760 C   0  0  0  0  0  0  0  0  0  0  0  0
  187.0270  175.2940  136.1180 C   0  0  0  0  0  0  0  0  0  0  0  0
  187.8640  174.5630  135.1220 C   0  0  0  0  0  2  0  0  0  0  0  0
  194.8230  174.6430  136.5860 C   0  0  0  0  0  3  0  0  0  0  0  0
  193.3690  176.1550  136.8890 C   0  0  0  0  0  0  0  0  0  0  0  0
  195.2900  175.8370  136.0680 C   0  0  0  0  0  3  0  0  0  0  0  0
  193.5980  174.8480  137.1100 N   0  0  0  0  0  0  0  0  0  0  0  0
  194.3640  176.7430  136.2780 O   0  0  0  0  0  0  0  0  0  0  0  0
  192.1690  176.8460  137.2560 N   0  0  0  0  0  2  0  0  0  0  0  0
  190.9290  177.2450  140.1640 C   0  0  0  0  0  3  0  0  0  0  0  0
  190.9550  176.1950  139.3490 C   0  0  0  0  0  3  0  0  0  0  0  0
  190.3580  177.4400  143.8820 C   0  0  1  0  0  3  0  0  0  0  0  0
  189.9170  177.7730  142.4440 C   0  0  1  0  0  3  0  0  0  0  0  0
  192.0510  175.8380  144.5820 O   0  0  0  0  0  0  0  0  0  0  0  0
  190.8760  177.0820  141.5830 N   0  0  0  0  0  0  0  0  0  0  0  0
  191.4500  176.4500  143.6610 C   0  0  0  0  0  0  0  0  0  0  0  0
  191.7610  176.2780  142.2980 N   0  0  0  0  0  2  0  0  0  0  0  0
  188.2640  177.1580  142.1300 S   0  0  0  0  0  0  0  0  0  0  0  0
  188.1210  175.7690  142.6900 O   0  0  0  0  0  0  0  0  0  0  0  0
  188.0570  177.1030  140.6430 O   0  0  0  0  0  0  0  0  0  0  0  0
  187.0100  178.2330  142.8210 C   0  0  2  0  0  3  0  0  0  0  0  0
  186.5650  177.7750  144.1710 C   0  0  0  0  0  0  0  0  0  0  0  0
  186.6820  176.5620  144.4860 O   0  0  0  0  0  0  0  0  0  0  0  0
  186.0660  178.6850  145.0960 O   0  0  0  0  0  1  0  0  0  0  0  0
  185.2540  179.4790  142.3100 C   0  0  0  0  0  1  0  0  0  0  0  0
  185.9130  178.2970  141.9610 O   0  0  0  0  0  0  0  0  0  0  0  0
  190.8960  178.5910  144.4620 O   0  0  0  0  0  0  0  0  0  0  0  0
  190.8090  178.3870  145.8410 C   0  0  0  0  0  2  0  0  0  0  0  0
  189.6480  177.4600  146.1310 C   0  0  0  0  0  2  0  0  0  0  0  0
  188.6740  178.1170  147.0910 C   0  0  0  0  0  2  0  0  0  0  0  0
  188.0980  178.2100  149.2680 O   0  0  0  0  0  1  0  0  0  0  0  0
  188.6320  177.3790  148.3420 N   0  0  0  0  0  2  0  0  0  0  0  0
  185.7560  175.7340  135.7350 O   0  0  0  0  0  0  0  0  0  0  0  0
  185.3300  177.0870  135.8670 C   0  0  0  0  0  2  0  0  0  0  0  0
  184.2990  177.1880  136.9430 C   0  0  0  0  0  0  0  0  0  0  0  0
  183.6480  178.2940  137.0880 N   0  0  0  0  0  0  0  0  0  0  0  0
  182.6170  178.4760  138.0810 C   0  0  0  0  0  2  0  0  0  0  0  0
  181.8610  180.5150  139.4380 N   0  0  0  0  0  2  0  0  0  0  0  0
  182.9060  179.6980  138.8950 C   0  0  0  0  0  0  0  0  0  0  0  0
  184.1040  180.0380  139.0780 O   0  0  0  0  0  0  0  0  0  0  0  0
  180.4210  180.2490  139.4100 C   0  0  2  0  0  3  0  0  0  0  0  0
  180.0190  182.8240  136.9990 C   0  0  2  0  0  3  0  0  0  0  0  0
  180.4960  182.3500  138.2320 O   0  0  0  0  0  0  0  0  0  0  0  0
  179.1430  180.6580  137.2350 C   0  0  0  0  0  2  0  0  0  0  0  0
  179.5840  181.6190  136.1730 C   0  0  2  0  0  3  0  0  0  0  0  0
  179.6690  181.2550  138.5340 C   0  0  1  0  0  3  0  0  0  0  0  0
  180.7400  180.9840  135.4120 C   0  0  0  0  0  1  0  0  0  0  0  0
  181.0350  183.7430  136.3110 C   0  0  2  0  0  3  0  0  0  0  0  0
  181.4320  184.8780  137.2360 C   0  0  0  0  0  1  0  0  0  0  0  0
  180.4750  184.2820  135.1510 O   0  0  0  0  0  1  0  0  0  0  0  0
  179.8220  180.0560  140.8010 C   0  0  0  0  0  2  0  0  0  0  0  0
  179.6440  181.2950  141.4180 O   0  0  0  0  0  1  0  0  0  0  0  0
  184.0120  175.9780  137.7860 C   0  0  0  0  0  2  0  0  0  0  0  0
  183.2000  174.9830  137.0250 C   0  0  0  0  0  0  0  0  0  0  0  0
  183.5560  173.6300  137.0430 C   0  0  0  0  0  3  0  0  0  0  0  0
  181.7140  173.1220  135.5570 C   0  0  0  0  0  3  0  0  0  0  0  0
  182.1010  175.4040  136.2680 C   0  0  0  0  0  3  0  0  0  0  0  0
  181.3600  174.4750  135.5340 C   0  0  0  0  0  3  0  0  0  0  0  0
  182.8130  172.7000  136.3110 C   0  0  0  0  0  3  0  0  0  0  0  0
  2  1  1  0  0  0  0
  3 17  1  0  0  0  0
  4  9  1  0  0  0  0
  4  7  1  0  0  0  0
  5  7  2  0  0  0  0
  6  1  1  0  0  0  0
  6  3  2  0  0  0  0
  7  6  1  0  0  0  0
  8  2  2  0  0  0  0
  9  8  1  0  0  0  0
 10 13  1  0  0  0  0
 11 13  2  0  0  0  0
 11 15  1  0  0  0  0
 12 14  1  0  0  0  0
 12 10  2  0  0  0  0
 14 11  1  0  0  0  0
 15  3  1  0  0  0  0
 16 21  1  0  0  0  0
 17 16  2  0  0  0  0
 18 33  1  6  0  0  0
 19 24  1  6  0  0  0
 19 18  1  0  0  0  0
 21 23  1  0  0  0  0
 21 19  1  0  0  0  0
 22 18  1  0  0  0  0
 22 20  2  0  0  0  0
 23 22  1  0  0  0  0
 24 25  2  0  0  0  0
 24 27  1  0  0  0  0
 26 24  2  0  0  0  0
 27 32  1  6  0  0  0
 27 28  1  0  0  0  0
 28 29  2  0  0  0  0
 28 30  1  0  0  0  0
 32 31  1  0  0  0  0
 33 34  1  0  0  0  0
 34 35  1  0  0  0  0
 35 36  1  0  0  0  0
 36 38  1  0  0  0  0
 38 37  1  0  0  0  0
 39 40  1  0  0  0  0
 39  8  1  0  0  0  0
 40 41  1  0  0  0  0
 41 42  2  0  0  0  0
 41 59  1  0  0  0  0
 42 43  1  0  0  0  0
 43 45  1  0  0  0  0
 45 46  2  0  0  0  0
 45 44  1  0  0  0  0
 47 44  1  0  0  0  0
 47 57  1  1  0  0  0
 48 54  1  6  0  0  0
 48 49  1  0  0  0  0
 49 52  1  0  0  0  0
 50 52  1  0  0  0  0
 51 53  1  1  0  0  0
 51 48  1  0  0  0  0
 51 50  1  0  0  0  0
 52 47  1  6  0  0  0
 54 55  1  1  0  0  0
 56 54  1  0  0  0  0
 57 58  1  0  0  0  0
 60 61  1  0  0  0  0
 60 59  1  0  0  0  0
 62 65  1  0  0  0  0
 63 60  2  0  0  0  0
 64 62  2  0  0  0  0
 64 63  1  0  0  0  0
 65 61  2  0  0  0  0
M  END
>  <MODEL>
4

>  <REMARK>
 VINA RESULT:      -5.0      2.762     12.123
  Name = 
  23 active torsions:
  status: ('A' for Active; 'I' for Inactive)
    1  A    between atoms: C_1  and  C_13
    2  A    between atoms: C_2  and  N_25
    3  A    between atoms: C_3  and  C_62
    4  A    between atoms: S_4  and  C_9
    5  A    between atoms: S_4  and  C_21
    6  A    between atoms: C_6  and  O_63
    7  A    between atoms: N_7  and  CA_49
    8  A    between atoms: C_8  and  C_38
    9  A    between atoms: C_17  and  CA_49
   10  A    between atoms: C_20  and  C_26
   11  A    between atoms: C_21  and  O_30
   12  A    between atoms: C_21  and  C_33
   13  A    between atoms: C_26  and  N_61
   14  A    between atoms: C_31  and  CA_49
   15  A    between atoms: C_32  and  C_44
   16  A    between atoms: C_32  and  C_64
   17  A    between atoms: C_38  and  N_54
   18  A    between atoms: C_39  and  C_47
   19  A    between atoms: C_39  and  O_56
   20  A    between atoms: C_44  and  O_63
   21  A    between atoms: C_47  and  C_62
   22  A    between atoms: C_53  and  O_56
   23  A    between atoms: N_55  and  C_64
                            x       y       z     vdW  Elec       q    Type
                         _______ _______ _______ _____ _____    ______ ____

>  <TORSDO>
F 23

$$$$
=
 OpenBabel10222419193D

 65 69  0  0  1  0  0  0  0  0999 V2000
  188.1760  177.2850  139.5050 C   0  0  0  0  0  2  0  0  0  0  0  0
  189.2010  177.6030  138.4610 C   0  0  0  0  0  3  0  0  0  0  0  0
  187.7300  178.4680  141.6340 C   0  0  0  0  0  0  0  0  0  0  0  0
  190.8180  176.3920  140.7030 N   0  0  0  0  0  2  0  0  0  0  0  0
  190.2970  177.6020  142.5860 O   0  0  0  0  0  0  0  0  0  0  0  0
  188.6010  177.7260  140.8850 C   0  0  0  0  0  0  0  0  0  0  0  0
  189.9200  177.2400  141.4390 C   0  0  0  0  0  0  0  0  0  0  0  0
  190.3400  176.9130  138.3920 C   0  0  0  0  0  0  0  0  0  0  0  0
  190.5960  175.8250  139.3790 C   0  0  0  0  0  2  0  0  0  0  0  0
  186.0470  176.9740  145.3770 C   0  0  0  0  0  3  0  0  0  0  0  0
  187.3510  178.1200  144.1610 C   0  0  0  0  0  0  0  0  0  0  0  0
  186.9400  177.6570  146.1810 C   0  0  0  0  0  3  0  0  0  0  0  0
  186.3100  177.2710  144.0890 N   0  0  0  0  0  0  0  0  0  0  0  0
  187.7250  178.3530  145.3920 O   0  0  0  0  0  0  0  0  0  0  0  0
  188.0080  178.7020  143.0290 N   0  0  0  0  0  2  0  0  0  0  0  0
  185.3090  178.3030  141.0890 C   0  0  0  0  0  3  0  0  0  0  0  0
  186.4510  178.9850  141.0860 C   0  0  0  0  0  3  0  0  0  0  0  0
  181.8060  179.1930  140.0290 C   0  0  1  0  0  3  0  0  0  0  0  0
  182.7670  178.4610  140.9850 C   0  0  1  0  0  3  0  0  0  0  0  0
  182.3580  180.9210  138.4070 O   0  0  0  0  0  0  0  0  0  0  0  0
  184.1060  178.8700  140.5650 N   0  0  0  0  0  0  0  0  0  0  0  0
  182.7300  180.0720  139.2580 C   0  0  0  0  0  0  0  0  0  0  0  0
  184.0850  179.8420  139.5670 N   0  0  0  0  0  2  0  0  0  0  0  0
  182.4800  178.9660  142.6800 S   0  0  0  0  0  0  0  0  0  0  0  0
  183.3690  180.1300  143.0230 O   0  0  0  0  0  0  0  0  0  0  0  0
  182.8240  177.8130  143.5790 O   0  0  0  0  0  0  0  0  0  0  0  0
  180.7650  179.3960  142.9660 C   0  0  2  0  0  3  0  0  0  0  0  0
  179.9420  178.2000  143.3170 C   0  0  0  0  0  0  0  0  0  0  0  0
  179.5870  178.0180  144.5110 O   0  0  0  0  0  1  0  0  0  0  0  0
  179.5290  177.3140  142.3290 O   0  0  0  0  0  0  0  0  0  0  0  0
  179.2380  180.8630  142.3240 C   0  0  0  0  0  1  0  0  0  0  0  0
  180.2360  180.0160  141.8330 O   0  0  0  0  0  0  0  0  0  0  0  0
  181.2390  178.2560  139.1620 O   0  0  0  0  0  0  0  0  0  0  0  0
  181.5830  177.0080  139.6880 C   0  0  0  0  0  2  0  0  0  0  0  0
  181.5770  175.9840  138.5730 C   0  0  0  0  0  2  0  0  0  0  0  0
  180.1610  175.5160  138.2920 C   0  0  0  0  0  2  0  0  0  0  0  0
  180.2390  173.3960  137.5300 O   0  0  0  0  0  1  0  0  0  0  0  0
  180.0170  174.1160  138.6550 N   0  0  0  0  0  2  0  0  0  0  0  0
  191.3090  177.1820  137.4200 O   0  0  0  0  0  0  0  0  0  0  0  0
  192.3690  176.2830  137.1090 C   0  0  0  0  0  2  0  0  0  0  0  0
  192.0620  175.5620  135.8380 C   0  0  0  0  0  0  0  0  0  0  0  0
  191.0360  174.7790  135.7910 N   0  0  0  0  0  0  0  0  0  0  0  0
  190.6460  174.0630  134.6000 C   0  0  0  0  0  2  0  0  0  0  0  0
  189.2550  171.9880  135.1750 N   0  0  0  0  0  2  0  0  0  0  0  0
  190.5220  172.6030  134.9050 C   0  0  0  0  0  0  0  0  0  0  0  0
  191.5650  171.9010  134.9600 O   0  0  0  0  0  0  0  0  0  0  0  0
  187.9310  172.6040  135.0790 C   0  0  2  0  0  3  0  0  0  0  0  0
  186.3990  175.2240  136.9200 C   0  0  2  0  0  3  0  0  0  0  0  0
  187.2530  174.7640  135.9030 O   0  0  0  0  0  0  0  0  0  0  0  0
  186.4990  172.8930  137.1750 C   0  0  0  0  0  2  0  0  0  0  0  0
  185.5650  174.0430  137.3990 C   0  0  2  0  0  3  0  0  0  0  0  0
  187.6090  173.4650  136.3030 C   0  0  1  0  0  3  0  0  0  0  0  0
  184.3250  173.8180  136.5440 C   0  0  0  0  0  1  0  0  0  0  0  0
  185.5880  176.4460  136.4710 C   0  0  2  0  0  3  0  0  0  0  0  0
  186.4810  177.4390  135.7520 C   0  0  0  0  0  1  0  0  0  0  0  0
  185.0220  177.0710  137.5840 O   0  0  0  0  0  1  0  0  0  0  0  0
  186.8340  171.6080  134.7040 C   0  0  0  0  0  2  0  0  0  0  0  0
  187.3030  170.3040  134.8660 O   0  0  0  0  0  1  0  0  0  0  0  0
  192.9280  175.8150  134.6360 C   0  0  0  0  0  2  0  0  0  0  0  0
  194.3240  175.3480  134.8810 C   0  0  0  0  0  0  0  0  0  0  0  0
  195.3580  176.2790  135.0180 C   0  0  0  0  0  3  0  0  0  0  0  0
  196.9510  174.4760  135.2860 C   0  0  0  0  0  3  0  0  0  0  0  0
  194.6060  173.9780  134.9430 C   0  0  0  0  0  3  0  0  0  0  0  0
  195.9180  173.5430  135.1440 C   0  0  0  0  0  3  0  0  0  0  0  0
  196.6710  175.8440  135.2220 C   0  0  0  0  0  3  0  0  0  0  0  0
  1  6  1  0  0  0  0
  2  1  1  0  0  0  0
  3 15  1  0  0  0  0
  4  7  1  0  0  0  0
  6  7  1  0  0  0  0
  6  3  2  0  0  0  0
  7  5  2  0  0  0  0
  8  2  2  0  0  0  0
  8  9  1  0  0  0  0
  9  4  1  0  0  0  0
 10 12  2  0  0  0  0
 11 14  1  0  0  0  0
 13 11  2  0  0  0  0
 13 10  1  0  0  0  0
 14 12  1  0  0  0  0
 15 11  1  0  0  0  0
 17 16  2  0  0  0  0
 17  3  1  0  0  0  0
 18 33  1  6  0  0  0
 18 19  1  0  0  0  0
 19 24  1  1  0  0  0
 20 22  2  0  0  0  0
 21 19  1  0  0  0  0
 21 16  1  0  0  0  0
 22 23  1  0  0  0  0
 22 18  1  0  0  0  0
 23 21  1  0  0  0  0
 24 27  1  0  0  0  0
 24 25  2  0  0  0  0
 24 26  2  0  0  0  0
 27 32  1  6  0  0  0
 27 28  1  0  0  0  0
 28 29  1  0  0  0  0
 30 28  2  0  0  0  0
 32 31  1  0  0  0  0
 33 34  1  0  0  0  0
 35 34  1  0  0  0  0
 36 35  1  0  0  0  0
 36 38  1  0  0  0  0
 37 38  1  0  0  0  0
 39  8  1  0  0  0  0
 40 39  1  0  0  0  0
 41 40  1  0  0  0  0
 42 41  2  0  0  0  0
 43 45  1  0  0  0  0
 43 42  1  0  0  0  0
 45 46  2  0  0  0  0
 45 44  1  0  0  0  0
 47 57  1  1  0  0  0
 47 44  1  0  0  0  0
 48 54  1  6  0  0  0
 48 51  1  0  0  0  0
 49 52  1  0  0  0  0
 49 48  1  0  0  0  0
 50 51  1  0  0  0  0
 51 53  1  6  0  0  0
 52 47  1  6  0  0  0
 52 50  1  0  0  0  0
 54 55  1  1  0  0  0
 54 56  1  0  0  0  0
 57 58  1  0  0  0  0
 59 60  1  0  0  0  0
 59 41  1  0  0  0  0
 60 63  2  0  0  0  0
 60 61  1  0  0  0  0
 61 65  2  0  0  0  0
 63 64  1  0  0  0  0
 64 62  2  0  0  0  0
 65 62  1  0  0  0  0
M  END
>  <MODEL>
5

>  <REMARK>
 VINA RESULT:      -4.8      2.748      7.083
  Name = 
  23 active torsions:
  status: ('A' for Active; 'I' for Inactive)
    1  A    between atoms: C_1  and  C_13
    2  A    between atoms: C_2  and  N_25
    3  A    between atoms: C_3  and  C_62
    4  A    between atoms: S_4  and  C_9
    5  A    between atoms: S_4  and  C_21
    6  A    between atoms: C_6  and  O_63
    7  A    between atoms: N_7  and  CA_49
    8  A    between atoms: C_8  and  C_38
    9  A    between atoms: C_17  and  CA_49
   10  A    between atoms: C_20  and  C_26
   11  A    between atoms: C_21  and  O_30
   12  A    between atoms: C_21  and  C_33
   13  A    between atoms: C_26  and  N_61
   14  A    between atoms: C_31  and  CA_49
   15  A    between atoms: C_32  and  C_44
   16  A    between atoms: C_32  and  C_64
   17  A    between atoms: C_38  and  N_54
   18  A    between atoms: C_39  and  C_47
   19  A    between atoms: C_39  and  O_56
   20  A    between atoms: C_44  and  O_63
   21  A    between atoms: C_47  and  C_62
   22  A    between atoms: C_53  and  O_56
   23  A    between atoms: N_55  and  C_64
                            x       y       z     vdW  Elec       q    Type
                         _______ _______ _______ _____ _____    ______ ____

>  <TORSDO>
F 23

$$$$
=
 OpenBabel10222419193D

 65 69  0  0  1  0  0  0  0  0999 V2000
  185.8590  177.0330  135.0610 C   0  0  0  0  0  2  0  0  0  0  0  0
  186.4240  177.8420  136.1860 C   0  0  0  0  0  3  0  0  0  0  0  0
  185.6220  174.5730  134.9020 C   0  0  0  0  0  0  0  0  0  0  0  0
  188.8620  176.6250  134.8870 N   0  0  0  0  0  2  0  0  0  0  0  0
  188.4840  174.3600  134.8270 O   0  0  0  0  0  0  0  0  0  0  0  0
  186.4610  175.6500  134.9850 C   0  0  0  0  0  0  0  0  0  0  0  0
  187.9610  175.5050  134.8850 C   0  0  0  0  0  0  0  0  0  0  0  0
  187.6660  178.3250  136.1220 C   0  0  0  0  0  0  0  0  0  0  0  0
  188.5000  178.0360  134.9200 C   0  0  0  0  0  2  0  0  0  0  0  0
  187.7150  171.5090  137.2050 C   0  0  0  0  0  3  0  0  0  0  0  0
  186.8310  172.3700  135.4820 C   0  0  0  0  0  0  0  0  0  0  0  0
  187.7780  170.6070  136.1590 C   0  0  0  0  0  3  0  0  0  0  0  0
  187.1110  172.6330  136.7710 N   0  0  0  0  0  0  0  0  0  0  0  0
  187.2250  171.1790  135.1150 O   0  0  0  0  0  0  0  0  0  0  0  0
  186.1590  173.2720  134.5940 N   0  0  0  0  0  2  0  0  0  0  0  0
  183.5220  174.8890  136.1970 C   0  0  0  0  0  3  0  0  0  0  0  0
  184.1490  174.7000  135.0400 C   0  0  0  0  0  3  0  0  0  0  0  0
  179.8570  174.9680  137.0580 C   0  0  1  0  0  3  0  0  0  0  0  0
  181.3320  174.9660  137.4990 C   0  0  1  0  0  3  0  0  0  0  0  0
  178.9780  175.3450  134.8190 O   0  0  0  0  0  0  0  0  0  0  0  0
  182.1010  175.0250  136.2570 N   0  0  0  0  0  0  0  0  0  0  0  0
  179.9630  175.1890  135.5870 C   0  0  0  0  0  0  0  0  0  0  0  0
  181.2960  175.1870  135.1320 N   0  0  0  0  0  2  0  0  0  0  0  0
  181.6930  176.4020  138.5080 S   0  0  0  0  0  0  0  0  0  0  0  0
  181.9950  177.5820  137.6260 O   0  0  0  0  0  0  0  0  0  0  0  0
  182.9050  176.0980  139.3420 O   0  0  0  0  0  0  0  0  0  0  0  0
  180.3440  176.7920  139.6190 C   0  0  2  0  0  3  0  0  0  0  0  0
  180.1710  178.2660  139.7890 C   0  0  0  0  0  0  0  0  0  0  0  0
  179.2830  178.8680  139.1310 O   0  0  0  0  0  0  0  0  0  0  0  0
  180.9520  178.9680  140.7000 O   0  0  0  0  0  1  0  0  0  0  0  0
  179.3180  175.7010  141.2470 C   0  0  0  0  0  1  0  0  0  0  0  0
  180.5660  176.1980  140.8620 O   0  0  0  0  0  0  0  0  0  0  0  0
  179.3190  173.7000  137.2900 O   0  0  0  0  0  0  0  0  0  0  0  0
  180.3970  172.8170  137.1980 C   0  0  0  0  0  2  0  0  0  0  0  0
  180.1400  171.8400  136.0710 C   0  0  0  0  0  2  0  0  0  0  0  0
  181.3190  170.8980  135.9070 C   0  0  0  0  0  2  0  0  0  0  0  0
  183.3840  171.3590  135.1330 O   0  0  0  0  0  1  0  0  0  0  0  0
  182.5600  171.6020  136.1800 N   0  0  0  0  0  2  0  0  0  0  0  0
  188.2150  179.0920  137.1540 O   0  0  0  0  0  0  0  0  0  0  0  0
  189.3460  178.6790  137.9130 C   0  0  0  0  0  2  0  0  0  0  0  0
  188.9590  178.5180  139.3480 C   0  0  0  0  0  0  0  0  0  0  0  0
  187.7490  178.7910  139.7070 N   0  0  0  0  0  0  0  0  0  0  0  0
  187.2770  178.6390  141.0620 C   0  0  0  0  0  2  0  0  0  0  0  0
  185.0550  178.7940  142.3300 N   0  0  0  0  0  2  0  0  0  0  0  0
  185.7870  178.7640  141.0970 C   0  0  0  0  0  0  0  0  0  0  0  0
  185.1530  178.8090  140.0100 O   0  0  0  0  0  0  0  0  0  0  0  0
  185.6030  178.8370  143.6870 C   0  0  2  0  0  3  0  0  0  0  0  0
  188.3400  176.7390  144.5260 C   0  0  2  0  0  3  0  0  0  0  0  0
  187.6570  177.5800  143.6310 O   0  0  0  0  0  0  0  0  0  0  0  0
  186.2840  177.2260  145.5490 C   0  0  0  0  0  2  0  0  0  0  0  0
  187.7050  176.9060  145.9000 C   0  0  2  0  0  3  0  0  0  0  0  0
  186.3190  177.5360  144.0580 C   0  0  1  0  0  3  0  0  0  0  0  0
  188.2790  178.0880  146.6700 C   0  0  0  0  0  1  0  0  0  0  0  0
  189.8550  176.9740  144.4830 C   0  0  2  0  0  3  0  0  0  0  0  0
  190.4850  176.1630  143.3670 C   0  0  0  0  0  1  0  0  0  0  0  0
  190.4260  176.5910  145.6980 O   0  0  0  0  0  1  0  0  0  0  0  0
  184.5890  179.3160  144.7250 C   0  0  0  0  0  2  0  0  0  0  0  0
  183.4840  178.4630  144.7370 O   0  0  0  0  0  1  0  0  0  0  0  0
  189.9790  177.9880  140.3160 C   0  0  0  0  0  2  0  0  0  0  0  0
  191.1030  177.3260  139.5920 C   0  0  0  0  0  0  0  0  0  0  0  0
  190.8530  176.2160  138.7780 C   0  0  0  0  0  3  0  0  0  0  0  0
  193.2140  176.0480  138.2750 C   0  0  0  0  0  3  0  0  0  0  0  0
  192.4130  177.7940  139.7490 C   0  0  0  0  0  3  0  0  0  0  0  0
  193.4680  177.1550  139.0920 C   0  0  0  0  0  3  0  0  0  0  0  0
  191.9070  175.5780  138.1190 C   0  0  0  0  0  3  0  0  0  0  0  0
  1  2  1  0  0  0  0
  3  6  2  0  0  0  0
  3 17  1  0  0  0  0
  4  9  1  0  0  0  0
  5  7  2  0  0  0  0
  6  1  1  0  0  0  0
  7  4  1  0  0  0  0
  7  6  1  0  0  0  0
  8  2  2  0  0  0  0
  8 39  1  0  0  0  0
  9  8  1  0  0  0  0
 11 13  2  0  0  0  0
 12 10  2  0  0  0  0
 13 10  1  0  0  0  0
 14 11  1  0  0  0  0
 14 12  1  0  0  0  0
 15  3  1  0  0  0  0
 15 11  1  0  0  0  0
 16 21  1  0  0  0  0
 17 16  2  0  0  0  0
 18 33  1  6  0  0  0
 18 19  1  0  0  0  0
 19 24  1  1  0  0  0
 20 22  2  0  0  0  0
 21 19  1  0  0  0  0
 22 18  1  0  0  0  0
 23 22  1  0  0  0  0
 23 21  1  0  0  0  0
 24 26  2  0  0  0  0
 24 27  1  0  0  0  0
 25 24  2  0  0  0  0
 27 28  1  1  0  0  0
 27 32  1  0  0  0  0
 28 30  1  0  0  0  0
 29 28  2  0  0  0  0
 32 31  1  0  0  0  0
 34 33  1  0  0  0  0
 35 34  1  0  0  0  0
 36 35  1  0  0  0  0
 36 38  1  0  0  0  0
 37 38  1  0  0  0  0
 39 40  1  0  0  0  0
 40 41  1  0  0  0  0
 41 42  2  0  0  0  0
 41 59  1  0  0  0  0
 42 43  1  0  0  0  0
 43 45  1  0  0  0  0
 44 47  1  0  0  0  0
 45 44  1  0  0  0  0
 46 45  2  0  0  0  0
 47 57  1  1  0  0  0
 48 54  1  1  0  0  0
 48 51  1  0  0  0  0
 49 52  1  0  0  0  0
 49 48  1  0  0  0  0
 50 51  1  0  0  0  0
 51 53  1  6  0  0  0
 52 47  1  1  0  0  0
 52 50  1  0  0  0  0
 54 55  1  6  0  0  0
 54 56  1  0  0  0  0
 57 58  1  0  0  0  0
 60 63  1  0  0  0  0
 60 59  1  0  0  0  0
 61 60  2  0  0  0  0
 62 64  1  0  0  0  0
 64 63  2  0  0  0  0
 65 62  2  0  0  0  0
 65 61  1  0  0  0  0
M  END
>  <MODEL>
6

>  <REMARK>
 VINA RESULT:      -4.3      2.940      7.872
  Name = 
  23 active torsions:
  status: ('A' for Active; 'I' for Inactive)
    1  A    between atoms: C_1  and  C_13
    2  A    between atoms: C_2  and  N_25
    3  A    between atoms: C_3  and  C_62
    4  A    between atoms: S_4  and  C_9
    5  A    between atoms: S_4  and  C_21
    6  A    between atoms: C_6  and  O_63
    7  A    between atoms: N_7  and  CA_49
    8  A    between atoms: C_8  and  C_38
    9  A    between atoms: C_17  and  CA_49
   10  A    between atoms: C_20  and  C_26
   11  A    between atoms: C_21  and  O_30
   12  A    between atoms: C_21  and  C_33
   13  A    between atoms: C_26  and  N_61
   14  A    between atoms: C_31  and  CA_49
   15  A    between atoms: C_32  and  C_44
   16  A    between atoms: C_32  and  C_64
   17  A    between atoms: C_38  and  N_54
   18  A    between atoms: C_39  and  C_47
   19  A    between atoms: C_39  and  O_56
   20  A    between atoms: C_44  and  O_63
   21  A    between atoms: C_47  and  C_62
   22  A    between atoms: C_53  and  O_56
   23  A    between atoms: N_55  and  C_64
                            x       y       z     vdW  Elec       q    Type
                         _______ _______ _______ _____ _____    ______ ____

>  <TORSDO>
F 23

$$$$
=
 OpenBabel10222419193D

 65 69  0  0  1  0  0  0  0  0999 V2000
  185.1240  177.6030  142.2450 C   0  0  0  0  0  2  0  0  0  0  0  0
  186.5350  178.0790  142.0930 C   0  0  0  0  0  3  0  0  0  0  0  0
  183.0270  178.8820  141.9290 C   0  0  0  0  0  0  0  0  0  0  0  0
  185.6420  179.3090  144.7010 N   0  0  0  0  0  2  0  0  0  0  0  0
  183.7070  180.4560  144.2320 O   0  0  0  0  0  0  0  0  0  0  0  0
  184.1800  178.7130  142.6440 C   0  0  0  0  0  0  0  0  0  0  0  0
  184.4780  179.5210  143.8850 C   0  0  0  0  0  0  0  0  0  0  0  0
  187.2670  178.3930  143.1630 C   0  0  0  0  0  0  0  0  0  0  0  0
  186.6600  178.2820  144.5210 C   0  0  0  0  0  2  0  0  0  0  0  0
  179.3190  178.3220  144.1690 C   0  0  0  0  0  3  0  0  0  0  0  0
  180.8240  179.4200  143.1580 C   0  0  0  0  0  0  0  0  0  0  0  0
  179.0360  179.6730  144.2560 C   0  0  0  0  0  3  0  0  0  0  0  0
  180.4590  178.1630  143.4670 N   0  0  0  0  0  0  0  0  0  0  0  0
  179.9870  180.3140  143.6170 O   0  0  0  0  0  0  0  0  0  0  0  0
  182.0040  179.7690  142.4230 N   0  0  0  0  0  2  0  0  0  0  0  0
  182.9130  178.6070  139.4600 C   0  0  0  0  0  3  0  0  0  0  0  0
  182.7420  178.1210  140.6860 C   0  0  0  0  0  3  0  0  0  0  0  0
  181.4790  176.5390  136.6580 C   0  0  1  0  0  3  0  0  0  0  0  0
  181.2990  177.5920  137.7680 C   0  0  1  0  0  3  0  0  0  0  0  0
  183.5680  175.6850  135.7460 O   0  0  0  0  0  0  0  0  0  0  0  0
  182.6410  177.8120  138.3030 N   0  0  0  0  0  0  0  0  0  0  0  0
  182.9610  176.3960  136.5890 C   0  0  0  0  0  0  0  0  0  0  0  0
  183.6260  177.1310  137.5900 N   0  0  0  0  0  2  0  0  0  0  0  0
  180.6550  179.1210  137.0910 S   0  0  0  0  0  0  0  0  0  0  0  0
  179.1790  178.9840  136.8370 O   0  0  0  0  0  0  0  0  0  0  0  0
  181.3480  179.3870  135.7860 O   0  0  0  0  0  0  0  0  0  0  0  0
  180.9670  180.5120  138.1740 C   0  0  2  0  0  3  0  0  0  0  0  0
  179.7640  180.8690  138.9840 C   0  0  0  0  0  0  0  0  0  0  0  0
  179.5240  180.2450  140.0510 O   0  0  0  0  0  1  0  0  0  0  0  0
  178.9340  181.9140  138.5920 O   0  0  0  0  0  0  0  0  0  0  0  0
  181.5410  182.6420  138.3580 C   0  0  0  0  0  1  0  0  0  0  0  0
  181.3730  181.6170  137.4230 O   0  0  0  0  0  0  0  0  0  0  0  0
  180.9240  175.3330  137.0920 O   0  0  0  0  0  0  0  0  0  0  0  0
  180.2080  175.6490  138.2490 C   0  0  0  0  0  2  0  0  0  0  0  0
  179.7230  174.3690  138.8950 C   0  0  0  0  0  2  0  0  0  0  0  0
  180.1390  174.3220  140.3540 C   0  0  0  0  0  2  0  0  0  0  0  0
  178.9890  175.9890  141.3450 O   0  0  0  0  0  1  0  0  0  0  0  0
  180.2250  175.6700  140.8920 N   0  0  0  0  0  2  0  0  0  0  0  0
  188.5910  178.8290  143.0510 O   0  0  0  0  0  0  0  0  0  0  0  0
  189.6720  178.2170  143.7460 C   0  0  0  0  0  2  0  0  0  0  0  0
  190.3550  177.2340  142.8510 C   0  0  0  0  0  0  0  0  0  0  0  0
  190.0660  177.2230  141.5930 N   0  0  0  0  0  0  0  0  0  0  0  0
  190.6930  176.3300  140.6490 C   0  0  0  0  0  2  0  0  0  0  0  0
  191.5910  176.9370  138.3260 N   0  0  0  0  0  2  0  0  0  0  0  0
  191.6070  177.1020  139.7500 C   0  0  0  0  0  0  0  0  0  0  0  0
  192.4400  177.8940  140.2630 O   0  0  0  0  0  0  0  0  0  0  0  0
  190.6540  176.1370  137.5350 C   0  0  2  0  0  3  0  0  0  0  0  0
  193.3780  175.0160  135.5540 C   0  0  2  0  0  3  0  0  0  0  0  0
  192.5320  176.0320  136.0300 O   0  0  0  0  0  0  0  0  0  0  0  0
  191.7110  173.9300  136.8010 C   0  0  0  0  0  2  0  0  0  0  0  0
  193.1510  173.7800  136.4150 C   0  0  2  0  0  3  0  0  0  0  0  0
  191.3610  175.3620  136.4200 C   0  0  1  0  0  3  0  0  0  0  0  0
  193.9870  173.7930  137.6880 C   0  0  0  0  0  1  0  0  0  0  0  0
  194.8360  175.4830  135.4680 C   0  0  2  0  0  3  0  0  0  0  0  0
  194.9400  176.7400  134.6250 C   0  0  0  0  0  1  0  0  0  0  0  0
  195.6180  174.4840  134.8870 O   0  0  0  0  0  1  0  0  0  0  0  0
  189.4330  176.9300  137.0740 C   0  0  0  0  0  2  0  0  0  0  0  0
  189.5570  178.2640  137.4670 O   0  0  0  0  0  1  0  0  0  0  0  0
  191.4000  176.3270  143.4370 C   0  0  0  0  0  2  0  0  0  0  0  0
  191.3910  176.4040  144.9280 C   0  0  0  0  0  0  0  0  0  0  0  0
  192.1630  175.5100  145.6780 C   0  0  0  0  0  3  0  0  0  0  0  0
  191.3370  176.5070  147.7230 C   0  0  0  0  0  3  0  0  0  0  0  0
  190.5890  177.3480  145.5790 C   0  0  0  0  0  3  0  0  0  0  0  0
  190.5610  177.3990  146.9750 C   0  0  0  0  0  3  0  0  0  0  0  0
  192.1370  175.5620  147.0740 C   0  0  0  0  0  3  0  0  0  0  0  0
  1  6  1  0  0  0  0
  2  1  1  0  0  0  0
  2  8  2  0  0  0  0
  3 15  1  0  0  0  0
  3  6  2  0  0  0  0
  6  7  1  0  0  0  0
  7  5  2  0  0  0  0
  7  4  1  0  0  0  0
  8  9  1  0  0  0  0
  9  4  1  0  0  0  0
 10 12  2  0  0  0  0
 11 13  2  0  0  0  0
 11 14  1  0  0  0  0
 13 10  1  0  0  0  0
 14 12  1  0  0  0  0
 15 11  1  0  0  0  0
 16 17  2  0  0  0  0
 17  3  1  0  0  0  0
 18 33  1  1  0  0  0
 18 19  1  0  0  0  0
 19 24  1  6  0  0  0
 19 21  1  0  0  0  0
 20 22  2  0  0  0  0
 21 16  1  0  0  0  0
 22 18  1  0  0  0  0
 22 23  1  0  0  0  0
 23 21  1  0  0  0  0
 24 27  1  0  0  0  0
 25 24  2  0  0  0  0
 26 24  2  0  0  0  0
 27 32  1  6  0  0  0
 27 28  1  0  0  0  0
 28 29  1  0  0  0  0
 30 28  2  0  0  0  0
 32 31  1  0  0  0  0
 33 34  1  0  0  0  0
 34 35  1  0  0  0  0
 35 36  1  0  0  0  0
 36 38  1  0  0  0  0
 38 37  1  0  0  0  0
 39  8  1  0  0  0  0
 39 40  1  0  0  0  0
 41 59  1  0  0  0  0
 41 40  1  0  0  0  0
 42 41  2  0  0  0  0
 43 42  1  0  0  0  0
 44 45  1  0  0  0  0
 45 46  2  0  0  0  0
 45 43  1  0  0  0  0
 47 57  1  6  0  0  0
 47 44  1  0  0  0  0
 48 54  1  1  0  0  0
 48 49  1  0  0  0  0
 48 51  1  0  0  0  0
 49 52  1  0  0  0  0
 51 50  1  0  0  0  0
 51 53  1  1  0  0  0
 52 50  1  0  0  0  0
 52 47  1  1  0  0  0
 54 55  1  6  0  0  0
 56 54  1  0  0  0  0
 57 58  1  0  0  0  0
 59 60  1  0  0  0  0
 60 63  2  0  0  0  0
 60 61  1  0  0  0  0
 61 65  2  0  0  0  0
 63 64  1  0  0  0  0
 64 62  2  0  0  0  0
 65 62  1  0  0  0  0
M  END
>  <MODEL>
7

>  <REMARK>
 VINA RESULT:      -4.0      1.716      2.343
  Name = 
  23 active torsions:
  status: ('A' for Active; 'I' for Inactive)
    1  A    between atoms: C_1  and  C_13
    2  A    between atoms: C_2  and  N_25
    3  A    between atoms: C_3  and  C_62
    4  A    between atoms: S_4  and  C_9
    5  A    between atoms: S_4  and  C_21
    6  A    between atoms: C_6  and  O_63
    7  A    between atoms: N_7  and  CA_49
    8  A    between atoms: C_8  and  C_38
    9  A    between atoms: C_17  and  CA_49
   10  A    between atoms: C_20  and  C_26
   11  A    between atoms: C_21  and  O_30
   12  A    between atoms: C_21  and  C_33
   13  A    between atoms: C_26  and  N_61
   14  A    between atoms: C_31  and  CA_49
   15  A    between atoms: C_32  and  C_44
   16  A    between atoms: C_32  and  C_64
   17  A    between atoms: C_38  and  N_54
   18  A    between atoms: C_39  and  C_47
   19  A    between atoms: C_39  and  O_56
   20  A    between atoms: C_44  and  O_63
   21  A    between atoms: C_47  and  C_62
   22  A    between atoms: C_53  and  O_56
   23  A    between atoms: N_55  and  C_64
                            x       y       z     vdW  Elec       q    Type
                         _______ _______ _______ _____ _____    ______ ____

>  <TORSDO>
F 23

$$$$
=
 OpenBabel10222419193D

 65 69  0  0  1  0  0  0  0  0999 V2000
  186.6750  176.8270  135.7350 C   0  0  0  0  0  2  0  0  0  0  0  0
  187.2040  177.6570  136.8630 C   0  0  0  0  0  3  0  0  0  0  0  0
  186.0260  174.4380  135.7560 C   0  0  0  0  0  0  0  0  0  0  0  0
  189.5480  175.9170  136.0950 N   0  0  0  0  0  2  0  0  0  0  0  0
  188.7820  173.7520  136.1730 O   0  0  0  0  0  0  0  0  0  0  0  0
  187.0220  175.3650  135.8810 C   0  0  0  0  0  0  0  0  0  0  0  0
  188.4700  174.9660  136.0430 C   0  0  0  0  0  0  0  0  0  0  0  0
  188.5080  177.9200  136.9620 C   0  0  0  0  0  0  0  0  0  0  0  0
  189.4440  177.3630  135.9430 C   0  0  0  0  0  2  0  0  0  0  0  0
  183.7040  170.7720  135.2580 C   0  0  0  0  0  3  0  0  0  0  0  0
  185.4600  171.9350  135.4910 C   0  0  0  0  0  0  0  0  0  0  0  0
  184.8120  169.9460  135.1960 C   0  0  0  0  0  3  0  0  0  0  0  0
  184.1200  172.0400  135.4460 N   0  0  0  0  0  0  0  0  0  0  0  0
  185.8740  170.7030  135.3470 O   0  0  0  0  0  0  0  0  0  0  0  0
  186.3590  173.0390  135.6570 N   0  0  0  0  0  2  0  0  0  0  0  0
  183.8160  175.1210  136.6730 C   0  0  0  0  0  3  0  0  0  0  0  0
  184.5950  174.8180  135.6380 C   0  0  0  0  0  3  0  0  0  0  0  0
  180.2370  176.2650  136.9300 C   0  0  1  0  0  3  0  0  0  0  0  0
  181.6800  176.2600  137.4700 C   0  0  1  0  0  3  0  0  0  0  0  0
  179.4650  175.4950  134.7550 O   0  0  0  0  0  0  0  0  0  0  0  0
  182.4510  175.5020  136.4870 N   0  0  0  0  0  0  0  0  0  0  0  0
  180.3940  175.6240  135.5940 C   0  0  0  0  0  0  0  0  0  0  0  0
  181.7010  175.1520  135.3660 N   0  0  0  0  0  2  0  0  0  0  0  0
  182.3180  177.9300  137.5880 S   0  0  0  0  0  0  0  0  0  0  0  0
  181.9130  178.7180  136.3720 O   0  0  0  0  0  0  0  0  0  0  0  0
  183.8170  177.8580  137.6410 O   0  0  0  0  0  0  0  0  0  0  0  0
  181.7530  178.7560  139.0730 C   0  0  2  0  0  3  0  0  0  0  0  0
  181.8690  177.8800  140.2770 C   0  0  0  0  0  0  0  0  0  0  0  0
  181.8630  176.6290  140.1390 O   0  0  0  0  0  0  0  0  0  0  0  0
  182.0290  178.4360  141.5420 O   0  0  0  0  0  1  0  0  0  0  0  0
  180.5140  180.4720  138.4270 C   0  0  0  0  0  1  0  0  0  0  0  0
  180.4280  179.1650  138.9140 O   0  0  0  0  0  0  0  0  0  0  0  0
  179.4540  175.4420  137.7420 O   0  0  0  0  0  0  0  0  0  0  0  0
  180.2620  174.3440  138.0470 C   0  0  0  0  0  2  0  0  0  0  0  0
  179.4270  173.0830  137.9840 C   0  0  0  0  0  2  0  0  0  0  0  0
  180.0820  172.0590  137.0760 C   0  0  0  0  0  2  0  0  0  0  0  0
  179.0130  170.8500  135.5020 O   0  0  0  0  0  1  0  0  0  0  0  0
  179.1760  170.9470  136.8430 N   0  0  0  0  0  2  0  0  0  0  0  0
  189.0280  178.7010  137.9980 O   0  0  0  0  0  0  0  0  0  0  0  0
  189.8370  178.1690  139.0430 C   0  0  0  0  0  2  0  0  0  0  0  0
  189.2210  178.4840  140.3670 C   0  0  0  0  0  0  0  0  0  0  0  0
  187.9360  178.4570  140.4860 N   0  0  0  0  0  0  0  0  0  0  0  0
  187.2540  178.7200  141.7300 C   0  0  0  0  0  2  0  0  0  0  0  0
  184.8430  178.8570  142.5900 N   0  0  0  0  0  2  0  0  0  0  0  0
  185.7740  178.7070  141.5100 C   0  0  0  0  0  0  0  0  0  0  0  0
  185.3320  178.5230  140.3460 O   0  0  0  0  0  0  0  0  0  0  0  0
  185.1490  179.1620  143.9890 C   0  0  2  0  0  3  0  0  0  0  0  0
  187.3330  177.2790  146.0590 C   0  0  2  0  0  3  0  0  0  0  0  0
  187.0620  178.0040  144.8870 O   0  0  0  0  0  0  0  0  0  0  0  0
  185.0340  177.7540  146.1190 C   0  0  0  0  0  2  0  0  0  0  0  0
  186.1950  177.5350  147.0400 C   0  0  2  0  0  3  0  0  0  0  0  0
  185.6660  177.9340  144.7440 C   0  0  1  0  0  3  0  0  0  0  0  0
  186.4000  178.8060  147.8540 C   0  0  0  0  0  1  0  0  0  0  0  0
  188.7330  177.5810  146.6040 C   0  0  2  0  0  3  0  0  0  0  0  0
  189.5930  178.2170  145.5290 C   0  0  0  0  0  1  0  0  0  0  0  0
  189.3420  176.3980  147.0270 O   0  0  0  0  0  1  0  0  0  0  0  0
  184.0200  179.9080  144.6990 C   0  0  0  0  0  2  0  0  0  0  0  0
  182.9150  179.0670  144.8450 O   0  0  0  0  0  1  0  0  0  0  0  0
  190.1240  178.7690  141.5350 C   0  0  0  0  0  2  0  0  0  0  0  0
  190.4380  177.5140  142.2790 C   0  0  0  0  0  0  0  0  0  0  0  0
  191.6590  177.3850  142.9480 C   0  0  0  0  0  3  0  0  0  0  0  0
  191.0540  175.1430  143.6300 C   0  0  0  0  0  3  0  0  0  0  0  0
  189.5250  176.4520  142.2830 C   0  0  0  0  0  3  0  0  0  0  0  0
  189.8350  175.2670  142.9570 C   0  0  0  0  0  3  0  0  0  0  0  0
  191.9670  176.2020  143.6240 C   0  0  0  0  0  3  0  0  0  0  0  0
  1  6  1  0  0  0  0
  1  2  1  0  0  0  0
  2  8  2  0  0  0  0
  3  6  2  0  0  0  0
  6  7  1  0  0  0  0
  7  4  1  0  0  0  0
  7  5  2  0  0  0  0
  8 39  1  0  0  0  0
  9  4  1  0  0  0  0
  9  8  1  0  0  0  0
 10 13  1  0  0  0  0
 11 15  1  0  0  0  0
 12 10  2  0  0  0  0
 12 14  1  0  0  0  0
 13 11  2  0  0  0  0
 14 11  1  0  0  0  0
 15  3  1  0  0  0  0
 17  3  1  0  0  0  0
 17 16  2  0  0  0  0
 18 19  1  0  0  0  0
 18 33  1  1  0  0  0
 19 24  1  6  0  0  0
 20 22  2  0  0  0  0
 21 16  1  0  0  0  0
 21 19  1  0  0  0  0
 22 18  1  0  0  0  0
 23 22  1  0  0  0  0
 23 21  1  0  0  0  0
 24 26  2  0  0  0  0
 24 27  1  0  0  0  0
 25 24  2  0  0  0  0
 27 32  1  6  0  0  0
 27 28  1  0  0  0  0
 28 30  1  0  0  0  0
 29 28  2  0  0  0  0
 31 32  1  0  0  0  0
 33 34  1  0  0  0  0
 35 34  1  0  0  0  0
 36 35  1  0  0  0  0
 37 38  1  0  0  0  0
 38 36  1  0  0  0  0
 39 40  1  0  0  0  0
 40 41  1  0  0  0  0
 41 42  2  0  0  0  0
 41 59  1  0  0  0  0
 42 43  1  0  0  0  0
 44 47  1  0  0  0  0
 45 43  1  0  0  0  0
 45 44  1  0  0  0  0
 46 45  2  0  0  0  0
 47 57  1  1  0  0  0
 48 54  1  1  0  0  0
 48 51  1  0  0  0  0
 49 48  1  0  0  0  0
 50 51  1  0  0  0  0
 51 53  1  6  0  0  0
 52 47  1  1  0  0  0
 52 49  1  0  0  0  0
 52 50  1  0  0  0  0
 54 55  1  6  0  0  0
 54 56  1  0  0  0  0
 57 58  1  0  0  0  0
 59 60  1  0  0  0  0
 60 63  2  0  0  0  0
 60 61  1  0  0  0  0
 61 65  2  0  0  0  0
 63 64  1  0  0  0  0
 64 62  2  0  0  0  0
 65 62  1  0  0  0  0
M  END
>  <MODEL>
8

>  <REMARK>
 VINA RESULT:      -4.0      3.081      7.727
  Name = 
  23 active torsions:
  status: ('A' for Active; 'I' for Inactive)
    1  A    between atoms: C_1  and  C_13
    2  A    between atoms: C_2  and  N_25
    3  A    between atoms: C_3  and  C_62
    4  A    between atoms: S_4  and  C_9
    5  A    between atoms: S_4  and  C_21
    6  A    between atoms: C_6  and  O_63
    7  A    between atoms: N_7  and  CA_49
    8  A    between atoms: C_8  and  C_38
    9  A    between atoms: C_17  and  CA_49
   10  A    between atoms: C_20  and  C_26
   11  A    between atoms: C_21  and  O_30
   12  A    between atoms: C_21  and  C_33
   13  A    between atoms: C_26  and  N_61
   14  A    between atoms: C_31  and  CA_49
   15  A    between atoms: C_32  and  C_44
   16  A    between atoms: C_32  and  C_64
   17  A    between atoms: C_38  and  N_54
   18  A    between atoms: C_39  and  C_47
   19  A    between atoms: C_39  and  O_56
   20  A    between atoms: C_44  and  O_63
   21  A    between atoms: C_47  and  C_62
   22  A    between atoms: C_53  and  O_56
   23  A    between atoms: N_55  and  C_64
                            x       y       z     vdW  Elec       q    Type
                         _______ _______ _______ _____ _____    ______ ____

>  <TORSDO>
F 23

$$$$
=
 OpenBabel10222419193D

 65 69  0  0  1  0  0  0  0  0999 V2000
  186.1760  178.1180  136.8070 C   0  0  0  0  0  2  0  0  0  0  0  0
  187.1620  178.0560  137.9310 C   0  0  0  0  0  3  0  0  0  0  0  0
  184.6540  176.3420  135.9940 C   0  0  0  0  0  0  0  0  0  0  0  0
  188.4790  176.4550  135.7370 N   0  0  0  0  0  2  0  0  0  0  0  0
  186.9490  174.8600  135.1100 O   0  0  0  0  0  0  0  0  0  0  0  0
  185.9410  176.7700  136.1690 C   0  0  0  0  0  0  0  0  0  0  0  0
  187.1220  175.9900  135.6400 C   0  0  0  0  0  0  0  0  0  0  0  0
  188.4620  177.8810  137.6890 C   0  0  0  0  0  0  0  0  0  0  0  0
  188.9280  177.7310  136.2810 C   0  0  0  0  0  2  0  0  0  0  0  0
  184.4210  172.0540  136.7930 C   0  0  0  0  0  3  0  0  0  0  0  0
  184.3490  173.8100  135.6080 C   0  0  0  0  0  0  0  0  0  0  0  0
  184.0680  171.7190  135.4980 C   0  0  0  0  0  3  0  0  0  0  0  0
  184.6010  173.3880  136.8600 N   0  0  0  0  0  0  0  0  0  0  0  0
  184.0370  172.8300  134.8000 O   0  0  0  0  0  0  0  0  0  0  0  0
  184.3920  175.1790  135.1850 N   0  0  0  0  0  2  0  0  0  0  0  0
  182.8170  176.7070  137.6320 C   0  0  0  0  0  3  0  0  0  0  0  0
  183.4890  177.0790  136.5460 C   0  0  0  0  0  3  0  0  0  0  0  0
  179.9840  178.2900  139.5410 C   0  0  1  0  0  3  0  0  0  0  0  0
  181.3010  177.4920  139.5240 C   0  0  1  0  0  3  0  0  0  0  0  0
  178.9880  179.5510  137.7130 O   0  0  0  0  0  0  0  0  0  0  0  0
  181.7170  177.4750  138.1230 N   0  0  0  0  0  0  0  0  0  0  0  0
  179.8850  178.7750  138.1350 C   0  0  0  0  0  0  0  0  0  0  0  0
  180.9000  178.2560  137.3080 N   0  0  0  0  0  2  0  0  0  0  0  0
  182.5480  178.3070  140.5190 S   0  0  0  0  0  0  0  0  0  0  0  0
  182.5710  179.7780  140.2050 O   0  0  0  0  0  0  0  0  0  0  0  0
  183.8860  177.7170  140.1740 O   0  0  0  0  0  0  0  0  0  0  0  0
  182.2710  178.0560  142.2710 C   0  0  2  0  0  3  0  0  0  0  0  0
  180.8770  178.4090  142.6710 C   0  0  0  0  0  0  0  0  0  0  0  0
  180.1100  177.5130  143.1120 O   0  0  0  0  0  1  0  0  0  0  0  0
  180.4340  179.7260  142.6030 O   0  0  0  0  0  0  0  0  0  0  0  0
  182.5720  178.9880  144.2560 C   0  0  0  0  0  1  0  0  0  0  0  0
  183.1800  178.8180  143.0090 O   0  0  0  0  0  0  0  0  0  0  0  0
  178.9310  177.4090  139.7940 O   0  0  0  0  0  0  0  0  0  0  0  0
  179.5080  176.1370  139.8130 C   0  0  0  0  0  2  0  0  0  0  0  0
  179.1720  175.4240  138.5210 C   0  0  0  0  0  2  0  0  0  0  0  0
  179.6160  173.9740  138.5860 C   0  0  0  0  0  2  0  0  0  0  0  0
  180.8970  172.3980  137.6080 O   0  0  0  0  0  1  0  0  0  0  0  0
  180.6820  173.7350  137.6270 N   0  0  0  0  0  2  0  0  0  0  0  0
  189.4060  177.8300  138.7200 O   0  0  0  0  0  0  0  0  0  0  0  0
  189.3080  176.9310  139.8200 C   0  0  0  0  0  2  0  0  0  0  0  0
  190.4920  177.0980  140.7150 C   0  0  0  0  0  0  0  0  0  0  0  0
  190.4460  177.9750  141.6620 N   0  0  0  0  0  0  0  0  0  0  0  0
  191.5300  178.1880  142.5910 C   0  0  0  0  0  2  0  0  0  0  0  0
  190.2800  178.2730  144.8270 N   0  0  0  0  0  2  0  0  0  0  0  0
  191.0300  178.9250  143.7930 C   0  0  0  0  0  0  0  0  0  0  0  0
  191.2430  180.1630  143.8820 O   0  0  0  0  0  0  0  0  0  0  0  0
  190.0000  176.8420  144.9530 C   0  0  2  0  0  3  0  0  0  0  0  0
  186.5870  177.5810  145.5890 C   0  0  2  0  0  3  0  0  0  0  0  0
  187.9270  177.4880  145.9980 O   0  0  0  0  0  0  0  0  0  0  0  0
  187.7350  176.5900  143.7970 C   0  0  0  0  0  2  0  0  0  0  0  0
  186.5540  177.4710  144.0700 C   0  0  2  0  0  3  0  0  0  0  0  0
  188.5030  176.5620  145.1120 C   0  0  1  0  0  3  0  0  0  0  0  0
  186.7920  178.8080  143.3820 C   0  0  0  0  0  1  0  0  0  0  0  0
  185.9040  178.8300  146.1590 C   0  0  2  0  0  3  0  0  0  0  0  0
  186.8100  179.5170  147.1630 C   0  0  0  0  0  1  0  0  0  0  0  0
  184.7150  178.4690  146.7960 O   0  0  0  0  0  1  0  0  0  0  0  0
  190.8830  176.1490  145.9890 C   0  0  0  0  0  2  0  0  0  0  0  0
  191.6850  177.0910  146.6350 O   0  0  0  0  0  1  0  0  0  0  0  0
  191.6800  176.1990  140.5180 C   0  0  0  0  0  2  0  0  0  0  0  0
  192.1190  176.2080  139.0910 C   0  0  0  0  0  0  0  0  0  0  0  0
  193.2300  176.9660  138.7060 C   0  0  0  0  0  3  0  0  0  0  0  0
  192.9130  176.2710  136.4090 C   0  0  0  0  0  3  0  0  0  0  0  0
  191.4030  175.4830  138.1310 C   0  0  0  0  0  3  0  0  0  0  0  0
  191.7990  175.5160  136.7910 C   0  0  0  0  0  3  0  0  0  0  0  0
  193.6270  176.9960  137.3670 C   0  0  0  0  0  3  0  0  0  0  0  0
  1  2  1  0  0  0  0
  3  6  2  0  0  0  0
  3 17  1  0  0  0  0
  4  9  1  0  0  0  0
  5  7  2  0  0  0  0
  6  1  1  0  0  0  0
  7  4  1  0  0  0  0
  7  6  1  0  0  0  0
  8  2  2  0  0  0  0
  8 39  1  0  0  0  0
  9  8  1  0  0  0  0
 10 13  1  0  0  0  0
 11 13  2  0  0  0  0
 12 10  2  0  0  0  0
 14 12  1  0  0  0  0
 14 11  1  0  0  0  0
 15 11  1  0  0  0  0
 15  3  1  0  0  0  0
 16 21  1  0  0  0  0
 17 16  2  0  0  0  0
 18 33  1  6  0  0  0
 19 18  1  0  0  0  0
 19 24  1  1  0  0  0
 20 22  2  0  0  0  0
 21 19  1  0  0  0  0
 22 18  1  0  0  0  0
 23 21  1  0  0  0  0
 23 22  1  0  0  0  0
 24 27  1  0  0  0  0
 25 24  2  0  0  0  0
 26 24  2  0  0  0  0
 27 28  1  1  0  0  0
 27 32  1  0  0  0  0
 28 29  1  0  0  0  0
 30 28  2  0  0  0  0
 32 31  1  0  0  0  0
 33 34  1  0  0  0  0
 35 36  1  0  0  0  0
 35 34  1  0  0  0  0
 37 38  1  0  0  0  0
 38 36  1  0  0  0  0
 39 40  1  0  0  0  0
 40 41  1  0  0  0  0
 41 42  2  0  0  0  0
 42 43  1  0  0  0  0
 43 45  1  0  0  0  0
 44 47  1  0  0  0  0
 45 46  2  0  0  0  0
 45 44  1  0  0  0  0
 47 57  1  1  0  0  0
 48 49  1  0  0  0  0
 48 54  1  6  0  0  0
 50 51  1  0  0  0  0
 50 52  1  0  0  0  0
 51 53  1  6  0  0  0
 51 48  1  0  0  0  0
 52 47  1  6  0  0  0
 52 49  1  0  0  0  0
 54 56  1  0  0  0  0
 54 55  1  1  0  0  0
 57 58  1  0  0  0  0
 59 41  1  0  0  0  0
 60 59  1  0  0  0  0
 61 60  1  0  0  0  0
 62 64  2  0  0  0  0
 62 65  1  0  0  0  0
 63 60  2  0  0  0  0
 64 63  1  0  0  0  0
 65 61  2  0  0  0  0
M  END
>  <MODEL>
9

>  <REMARK>
 VINA RESULT:      -3.9      2.574      7.789
  Name = 
  23 active torsions:
  status: ('A' for Active; 'I' for Inactive)
    1  A    between atoms: C_1  and  C_13
    2  A    between atoms: C_2  and  N_25
    3  A    between atoms: C_3  and  C_62
    4  A    between atoms: S_4  and  C_9
    5  A    between atoms: S_4  and  C_21
    6  A    between atoms: C_6  and  O_63
    7  A    between atoms: N_7  and  CA_49
    8  A    between atoms: C_8  and  C_38
    9  A    between atoms: C_17  and  CA_49
   10  A    between atoms: C_20  and  C_26
   11  A    between atoms: C_21  and  O_30
   12  A    between atoms: C_21  and  C_33
   13  A    between atoms: C_26  and  N_61
   14  A    between atoms: C_31  and  CA_49
   15  A    between atoms: C_32  and  C_44
   16  A    between atoms: C_32  and  C_64
   17  A    between atoms: C_38  and  N_54
   18  A    between atoms: C_39  and  C_47
   19  A    between atoms: C_39  and  O_56
   20  A    between atoms: C_44  and  O_63
   21  A    between atoms: C_47  and  C_62
   22  A    between atoms: C_53  and  O_56
   23  A    between atoms: N_55  and  C_64
                            x       y       z     vdW  Elec       q    Type
                         _______ _______ _______ _____ _____    ______ ____

>  <TORSDO>
F 23

$$$$
