=
 OpenBabel10222418463D

 52 57  0  0  1  0  0  0  0  0999 V2000
  189.7450  176.8300  140.3700 C   0  0  2  0  0  3  0  0  0  0  0  0
  190.1200  176.9660  137.5480 C   0  0  0  0  0  2  0  0  0  0  0  0
  190.4050  175.7740  138.4760 C   0  0  2  0  0  3  0  0  0  0  0  0
  190.8510  176.2460  139.7220 O   0  0  0  0  0  0  0  0  0  0  0  0
  189.0190  177.8190  138.1630 C   0  0  1  0  0  3  0  0  0  0  0  0
  189.2910  178.1130  139.6460 C   0  0  1  0  0  3  0  0  0  0  0  0
  188.9090  179.0100  137.4450 O   0  0  0  0  0  1  0  0  0  0  0  0
  193.1110  173.9330  135.8590 C   0  0  0  0  0  2  0  0  0  0  0  0
  191.7970  173.2040  136.1260 C   0  0  0  0  0  2  0  0  0  0  0  0
  193.6080  174.5380  137.0930 N   0  0  0  0  0  0  0  0  0  0  0  0
  191.3780  174.8240  137.9220 N   0  0  1  0  0  0  0  0  0  0  0  0
  190.8030  174.1900  136.7320 C   0  0  0  0  0  2  0  0  0  0  0  0
  192.6200  175.5130  137.5460 C   0  0  0  0  0  2  0  0  0  0  0  0
  194.8070  175.2870  136.7540 C   0  0  0  0  0  2  0  0  0  0  0  0
  195.0760  177.2070  135.2890 C   0  0  0  0  0  2  0  0  0  0  0  0
  196.0520  176.1910  134.8630 N   0  0  0  0  0  2  0  0  0  0  0  0
  194.7140  175.7950  135.3270 C   0  0  1  0  0  3  0  0  0  0  0  0
  190.0950  177.1260  141.8320 C   0  0  2  0  0  3  0  0  0  0  0  0
  191.4810  177.0890  142.0320 O   0  0  0  0  0  0  0  0  0  0  0  0
  191.6600  177.4890  143.2730 O   0  0  0  0  0  0  0  0  0  0  0  0
  191.3040  178.7580  143.2690 O   0  0  0  0  0  1  0  0  0  0  0  0
  189.4150  176.1160  142.7400 C   0  0  0  0  0  2  0  0  0  0  0  0
  188.2670  176.7660  143.4930 C   0  0  0  0  0  2  0  0  0  0  0  0
  188.6570  177.0470  144.9350 C   0  0  0  0  0  2  0  0  0  0  0  0
  187.4680  177.6000  145.7080 C   0  0  0  0  0  2  0  0  0  0  0  0
  187.9090  176.6130  147.8400 F   0  0  0  0  0  0  0  0  0  0  0  0
  188.9710  178.5340  147.3070 F   0  0  0  0  0  0  0  0  0  0  0  0
  186.7670  178.5480  147.7580 F   0  0  0  0  0  0  0  0  0  0  0  0
  187.7910  177.8230  147.1820 C   0  0  0  0  0  0  0  0  0  0  0  0
  188.0130  178.6410  140.2970 C   0  0  0  0  0  2  0  0  0  0  0  0
  186.5530  178.2350  139.2920 S   0  0  0  0  0  0  0  0  0  0  0  0
  185.4460  178.2790  140.7390 C   0  0  2  0  0  3  0  0  0  0  0  0
  184.0630  178.4660  140.3240 N   0  0  0  0  0  0  0  0  0  0  0  0
  182.1100  179.3120  139.3430 C   0  0  0  0  0  0  0  0  0  0  0  0
  184.2120  180.4770  139.0850 O   0  0  0  0  0  0  0  0  0  0  0  0
  182.9750  177.5570  140.6510 C   0  0  0  0  0  2  0  0  0  0  0  0
  180.4260  177.5650  140.0340 C   0  0  0  0  0  1  0  0  0  0  0  0
  183.5320  179.5180  139.5360 C   0  0  0  0  0  0  0  0  0  0  0  0
  181.7810  178.1830  139.9820 C   0  0  0  0  0  0  0  0  0  0  0  0
  180.2480  183.2840  137.9320 N   0  0  0  0  0  2  0  0  0  0  0  0
  180.3980  181.2050  139.1810 C   0  0  0  0  0  2  0  0  0  0  0  0
  180.4620  183.5330  136.5150 C   0  0  0  0  0  2  0  0  0  0  0  0
  180.1160  181.1790  136.7540 C   0  0  2  0  0  3  0  0  0  0  0  0
  179.7300  181.9250  138.0240 C   0  0  2  0  0  3  0  0  0  0  0  0
  181.2300  180.1730  138.5940 N   0  0  0  0  0  0  0  0  0  0  0  0
  181.1330  180.1230  137.1490 C   0  0  0  0  0  2  0  0  0  0  0  0
  180.2000  182.1630  134.5940 O   0  0  0  0  0  1  0  0  0  0  0  0
  180.7690  182.2070  135.8660 C   0  0  1  0  0  3  0  0  0  0  0  0
  185.8730  179.3550  141.7250 C   0  0  0  0  0  2  0  0  0  0  0  0
  185.1260  179.2010  142.9770 C   0  0  0  0  0  0  0  0  0  0  0  0
  183.7720  178.8710  145.2520 C   0  0  0  0  0  1  0  0  0  0  0  0
  184.5140  179.0560  144.0050 C   0  0  0  0  0  0  0  0  0  0  0  0
  1 18  1  1  0  0  0
  2  5  1  0  0  0  0
  3  2  1  6  0  0  0
  3  4  1  0  0  0  0
  4  1  1  0  0  0  0
  5  7  1  6  0  0  0
  5  6  1  0  0  0  0
  6 30  1  1  0  0  0
  6  1  1  0  0  0  0
  8  9  1  0  0  0  0
  8 10  1  0  0  0  0
  9 12  1  0  0  0  0
 10 13  1  0  0  0  0
 11 12  1  6  0  0  0
 11  3  1  0  0  0  0
 13 11  1  0  0  0  0
 14 10  1  0  0  0  0
 15 17  1  0  0  0  0
 16 15  1  0  0  0  0
 16 17  1  0  0  0  0
 17 14  1  1  0  0  0
 18 19  1  0  0  0  0
 18 22  1  1  0  0  0
 19 20  1  0  0  0  0
 21 20  1  0  0  0  0
 22 23  1  0  0  0  0
 23 24  1  0  0  0  0
 24 25  1  0  0  0  0
 25 29  1  0  0  0  0
 29 27  1  0  0  0  0
 29 28  1  0  0  0  0
 29 26  1  0  0  0  0
 31 30  1  0  0  0  0
 31 32  1  0  0  0  0
 32 49  1  1  0  0  0
 33 36  1  0  0  0  0
 33 32  1  0  0  0  0
 34 38  1  0  0  0  0
 34 39  2  0  0  0  0
 35 38  2  0  0  0  0
 38 33  1  0  0  0  0
 39 37  1  0  0  0  0
 39 36  1  0  0  0  0
 40 44  1  0  0  0  0
 42 40  1  0  0  0  0
 43 46  1  1  0  0  0
 43 44  1  0  0  0  0
 44 41  1  1  0  0  0
 45 41  1  0  0  0  0
 45 34  1  0  0  0  0
 46 45  1  0  0  0  0
 48 47  1  6  0  0  0
 48 42  1  0  0  0  0
 48 43  1  0  0  0  0
 49 50  1  0  0  0  0
 50 52  3  0  0  0  0
 52 51  1  0  0  0  0
M  END
>  <MODEL>
1

>  <REMARK>
 VINA RESULT:      -8.1      0.000      0.000
  Name = 
  18 active torsions:
  status: ('A' for Active; 'I' for Inactive)
    1  A    between atoms: C_5  and  C_16
    2  A    between atoms: C_8  and  C_27
    3  A    between atoms: N_9  and  C_41
    4  A    between atoms: C_11  and  C_32
    5  A    between atoms: C_11  and  C_42
    6  A    between atoms: C_12  and  S_15
    7  A    between atoms: C_12  and  C_40
    8  A    between atoms: O_13  and  O_18
    9  A    between atoms: C_14  and  C_16
   10  A    between atoms: C_14  and  C_43
   11  A    between atoms: S_15  and  C_49
   12  A    between atoms: C_16  and  O_18
   13  A    between atoms: N_19  and  C_49
   14  A    between atoms: N_21  and  C_30
   15  A    between atoms: N_24  and  C_26
   16  A    between atoms: C_27  and  C_49
   17  A    between atoms: C_41  and  C_52
   18  A    between atoms: C_42  and  C_43
                            x       y       z     vdW  Elec       q    Type
                         _______ _______ _______ _____ _____    ______ ____

>  <TORSDO>
F 18

$$$$
=
 OpenBabel10222418463D

 52 57  0  0  1  0  0  0  0  0999 V2000
  185.9000  178.9230  140.9100 C   0  0  2  0  0  3  0  0  0  0  0  0
  184.9320  178.0740  138.3670 C   0  0  0  0  0  2  0  0  0  0  0  0
  184.2320  178.9980  139.3760 C   0  0  2  0  0  3  0  0  0  0  0  0
  184.5490  178.5910  140.6830 O   0  0  0  0  0  0  0  0  0  0  0  0
  186.4380  178.1880  138.5550 C   0  0  1  0  0  3  0  0  0  0  0  0
  186.8360  178.0670  140.0340 C   0  0  1  0  0  3  0  0  0  0  0  0
  187.0690  177.1970  137.8010 O   0  0  0  0  0  1  0  0  0  0  0  0
  180.1510  178.1420  139.7990 C   0  0  0  0  0  2  0  0  0  0  0  0
  180.8000  177.7950  138.4610 C   0  0  0  0  0  2  0  0  0  0  0  0
  180.6700  179.4170  140.2910 N   0  0  0  0  0  0  0  0  0  0  0  0
  182.7740  179.0480  139.2060 N   0  0  1  0  0  0  0  0  0  0  0  0
  182.3150  177.7770  138.6400 C   0  0  0  0  0  2  0  0  0  0  0  0
  182.1080  179.2690  140.4970 C   0  0  0  0  0  2  0  0  0  0  0  0
  180.0830  179.6440  141.6020 C   0  0  0  0  0  2  0  0  0  0  0  0
  180.5570  178.5770  143.7320 C   0  0  0  0  0  2  0  0  0  0  0  0
  179.1060  178.4800  143.5080 N   0  0  0  0  0  2  0  0  0  0  0  0
  180.0480  178.3450  142.3860 C   0  0  1  0  0  3  0  0  0  0  0  0
  186.2350  178.7500  142.3940 C   0  0  2  0  0  3  0  0  0  0  0  0
  187.3190  177.8780  142.5640 O   0  0  0  0  0  0  0  0  0  0  0  0
  186.8550  176.8940  143.3050 O   0  0  0  0  0  0  0  0  0  0  0  0
  187.8810  176.0840  143.4630 O   0  0  0  0  0  1  0  0  0  0  0  0
  185.0230  178.2190  143.1390 C   0  0  0  0  0  2  0  0  0  0  0  0
  184.4960  179.2620  144.1100 C   0  0  0  0  0  2  0  0  0  0  0  0
  184.5060  178.7290  145.5330 C   0  0  0  0  0  2  0  0  0  0  0  0
  185.7340  179.2340  146.2790 C   0  0  0  0  0  2  0  0  0  0  0  0
  187.0990  178.0970  147.8780 F   0  0  0  0  0  0  0  0  0  0  0  0
  186.2130  176.9000  146.1800 F   0  0  0  0  0  0  0  0  0  0  0  0
  187.8760  178.3630  145.7840 F   0  0  0  0  0  0  0  0  0  0  0  0
  186.7460  178.1240  146.5420 C   0  0  0  0  0  0  0  0  0  0  0  0
  188.2770  178.5470  140.2080 C   0  0  0  0  0  2  0  0  0  0  0  0
  189.2140  178.3780  138.6590 S   0  0  0  0  0  0  0  0  0  0  0  0
  190.5830  177.5080  139.4900 C   0  0  2  0  0  3  0  0  0  0  0  0
  191.2350  176.5820  138.5760 N   0  0  0  0  0  0  0  0  0  0  0  0
  192.8460  175.3710  137.3790 C   0  0  0  0  0  0  0  0  0  0  0  0
  193.5180  177.0790  138.9520 O   0  0  0  0  0  0  0  0  0  0  0  0
  190.5320  175.6380  137.7190 C   0  0  0  0  0  2  0  0  0  0  0  0
  191.3820  173.8260  136.0240 C   0  0  0  0  0  1  0  0  0  0  0  0
  192.6260  176.4120  138.3640 C   0  0  0  0  0  0  0  0  0  0  0  0
  191.6430  174.9190  137.0030 C   0  0  0  0  0  0  0  0  0  0  0  0
  197.3610  175.5970  136.4870 N   0  0  0  0  0  2  0  0  0  0  0  0
  194.9810  175.6650  136.0020 C   0  0  0  0  0  2  0  0  0  0  0  0
  198.1310  174.6080  137.2260 C   0  0  0  0  0  2  0  0  0  0  0  0
  196.0620  173.5660  136.6310 C   0  0  2  0  0  3  0  0  0  0  0  0
  196.2640  174.8670  135.8660 C   0  0  2  0  0  3  0  0  0  0  0  0
  194.1300  174.9180  136.9070 N   0  0  0  0  0  0  0  0  0  0  0  0
  194.7260  173.6720  137.3440 C   0  0  0  0  0  2  0  0  0  0  0  0
  197.8200  172.2810  137.5810 O   0  0  0  0  0  1  0  0  0  0  0  0
  197.1770  173.5170  137.6440 C   0  0  1  0  0  3  0  0  0  0  0  0
  190.1010  176.7940  140.7420 C   0  0  0  0  0  2  0  0  0  0  0  0
  190.6720  177.4380  141.9290 C   0  0  0  0  0  0  0  0  0  0  0  0
  191.7060  178.6550  144.0660 C   0  0  0  0  0  1  0  0  0  0  0  0
  191.1400  177.9840  142.8960 C   0  0  0  0  0  0  0  0  0  0  0  0
  1 18  1  1  0  0  0
  2  5  1  0  0  0  0
  3  2  1  6  0  0  0
  3  4  1  0  0  0  0
  4  1  1  0  0  0  0
  5  7  1  6  0  0  0
  5  6  1  0  0  0  0
  6 30  1  6  0  0  0
  6  1  1  0  0  0  0
  8 10  1  0  0  0  0
  9 12  1  0  0  0  0
  9  8  1  0  0  0  0
 10 13  1  0  0  0  0
 10 14  1  0  0  0  0
 11 12  1  1  0  0  0
 11  3  1  0  0  0  0
 11 13  1  0  0  0  0
 16 15  1  0  0  0  0
 17 14  1  6  0  0  0
 17 16  1  0  0  0  0
 17 15  1  0  0  0  0
 18 19  1  0  0  0  0
 18 22  1  1  0  0  0
 19 20  1  0  0  0  0
 20 21  1  0  0  0  0
 22 23  1  0  0  0  0
 23 24  1  0  0  0  0
 24 25  1  0  0  0  0
 25 29  1  0  0  0  0
 27 29  1  0  0  0  0
 28 29  1  0  0  0  0
 29 26  1  0  0  0  0
 31 32  1  0  0  0  0
 31 30  1  0  0  0  0
 32 49  1  1  0  0  0
 33 32  1  0  0  0  0
 34 38  1  0  0  0  0
 36 33  1  0  0  0  0
 37 39  1  0  0  0  0
 38 33  1  0  0  0  0
 38 35  2  0  0  0  0
 39 34  2  0  0  0  0
 39 36  1  0  0  0  0
 40 42  1  0  0  0  0
 41 45  1  0  0  0  0
 42 48  1  0  0  0  0
 43 46  1  1  0  0  0
 43 48  1  0  0  0  0
 44 41  1  1  0  0  0
 44 40  1  0  0  0  0
 44 43  1  0  0  0  0
 45 46  1  0  0  0  0
 45 34  1  0  0  0  0
 48 47  1  6  0  0  0
 49 50  1  0  0  0  0
 50 52  3  0  0  0  0
 52 51  1  0  0  0  0
M  END
>  <MODEL>
2

>  <REMARK>
 VINA RESULT:      -7.5      2.599     10.865
  Name = 
  18 active torsions:
  status: ('A' for Active; 'I' for Inactive)
    1  A    between atoms: C_5  and  C_16
    2  A    between atoms: C_8  and  C_27
    3  A    between atoms: N_9  and  C_41
    4  A    between atoms: C_11  and  C_32
    5  A    between atoms: C_11  and  C_42
    6  A    between atoms: C_12  and  S_15
    7  A    between atoms: C_12  and  C_40
    8  A    between atoms: O_13  and  O_18
    9  A    between atoms: C_14  and  C_16
   10  A    between atoms: C_14  and  C_43
   11  A    between atoms: S_15  and  C_49
   12  A    between atoms: C_16  and  O_18
   13  A    between atoms: N_19  and  C_49
   14  A    between atoms: N_21  and  C_30
   15  A    between atoms: N_24  and  C_26
   16  A    between atoms: C_27  and  C_49
   17  A    between atoms: C_41  and  C_52
   18  A    between atoms: C_42  and  C_43
                            x       y       z     vdW  Elec       q    Type
                         _______ _______ _______ _____ _____    ______ ____

>  <TORSDO>
F 18

$$$$
=
 OpenBabel10222418463D

 52 57  0  0  1  0  0  0  0  0999 V2000
  185.8700  178.9610  140.9310 C   0  0  2  0  0  3  0  0  0  0  0  0
  184.8450  178.1040  138.4140 C   0  0  0  0  0  2  0  0  0  0  0  0
  184.1630  179.0210  139.4420 C   0  0  2  0  0  3  0  0  0  0  0  0
  184.5170  178.6160  140.7390 O   0  0  0  0  0  0  0  0  0  0  0  0
  186.3550  178.2310  138.5630 C   0  0  1  0  0  3  0  0  0  0  0  0
  186.7920  178.1140  140.0310 C   0  0  1  0  0  3  0  0  0  0  0  0
  186.9750  177.2470  137.7920 O   0  0  0  0  0  1  0  0  0  0  0  0
  180.1440  180.0440  140.0440 C   0  0  0  0  0  2  0  0  0  0  0  0
  180.5740  178.6400  140.4600 C   0  0  0  0  0  2  0  0  0  0  0  0
  180.7980  180.4180  138.7910 N   0  0  0  0  0  0  0  0  0  0  0  0
  182.7010  179.0570  139.3090 N   0  0  1  0  0  0  0  0  0  0  0  0
  182.0950  178.6030  140.5640 C   0  0  0  0  0  2  0  0  0  0  0  0
  182.2400  180.4220  139.0200 C   0  0  0  0  0  2  0  0  0  0  0  0
  180.4180  181.7910  138.4990 C   0  0  0  0  0  2  0  0  0  0  0  0
  180.6060  183.0150  136.4090 C   0  0  0  0  0  2  0  0  0  0  0  0
  181.2120  183.8480  137.4600 N   0  0  0  0  0  2  0  0  0  0  0  0
  181.3710  182.3860  137.4790 C   0  0  1  0  0  3  0  0  0  0  0  0
  186.2460  178.7900  142.4060 C   0  0  2  0  0  3  0  0  0  0  0  0
  187.2960  177.8740  142.5530 O   0  0  0  0  0  0  0  0  0  0  0  0
  186.8080  176.9090  143.3020 O   0  0  0  0  0  0  0  0  0  0  0  0
  187.8320  176.1100  143.5260 O   0  0  0  0  0  1  0  0  0  0  0  0
  185.0370  178.3200  143.1960 C   0  0  0  0  0  2  0  0  0  0  0  0
  184.6420  179.3590  144.2330 C   0  0  0  0  0  2  0  0  0  0  0  0
  184.5760  178.7390  145.6200 C   0  0  0  0  0  2  0  0  0  0  0  0
  185.7630  179.1900  146.4590 C   0  0  0  0  0  2  0  0  0  0  0  0
  187.2560  178.0420  147.9310 F   0  0  0  0  0  0  0  0  0  0  0  0
  186.2610  176.8650  146.2790 F   0  0  0  0  0  0  0  0  0  0  0  0
  187.8730  178.3570  145.7920 F   0  0  0  0  0  0  0  0  0  0  0  0
  186.8050  178.0890  146.6250 C   0  0  0  0  0  0  0  0  0  0  0  0
  188.2320  178.6070  140.1680 C   0  0  0  0  0  2  0  0  0  0  0  0
  189.1620  178.3460  138.6270 S   0  0  0  0  0  0  0  0  0  0  0  0
  190.5190  177.4970  139.4990 C   0  0  2  0  0  3  0  0  0  0  0  0
  191.1790  176.5430  138.6180 N   0  0  0  0  0  0  0  0  0  0  0  0
  192.8000  175.3230  137.4440 C   0  0  0  0  0  0  0  0  0  0  0  0
  193.4520  177.1380  138.9010 O   0  0  0  0  0  0  0  0  0  0  0  0
  190.4880  175.5300  137.8350 C   0  0  0  0  0  2  0  0  0  0  0  0
  191.3560  173.6560  136.2190 C   0  0  0  0  0  1  0  0  0  0  0  0
  192.5700  176.4090  138.3760 C   0  0  0  0  0  0  0  0  0  0  0  0
  191.6040  174.8090  137.1280 C   0  0  0  0  0  0  0  0  0  0  0  0
  197.3070  175.6050  136.5310 N   0  0  0  0  0  2  0  0  0  0  0  0
  194.9240  175.6520  136.0590 C   0  0  0  0  0  2  0  0  0  0  0  0
  198.0910  174.6180  137.2570 C   0  0  0  0  0  2  0  0  0  0  0  0
  196.0310  173.5590  136.6630 C   0  0  2  0  0  3  0  0  0  0  0  0
  196.2150  174.8690  135.9080 C   0  0  2  0  0  3  0  0  0  0  0  0
  194.0860  174.8880  136.9610 N   0  0  0  0  0  0  0  0  0  0  0  0
  194.6980  173.6440  137.3840 C   0  0  0  0  0  2  0  0  0  0  0  0
  197.8070  172.2850  137.5920 O   0  0  0  0  0  1  0  0  0  0  0  0
  197.1520  173.5130  137.6690 C   0  0  1  0  0  3  0  0  0  0  0  0
  190.0210  176.8190  140.7650 C   0  0  0  0  0  2  0  0  0  0  0  0
  190.6190  177.4650  141.9370 C   0  0  0  0  0  0  0  0  0  0  0  0
  191.7420  178.6580  144.0420 C   0  0  0  0  0  1  0  0  0  0  0  0
  191.1230  178.0020  142.8910 C   0  0  0  0  0  0  0  0  0  0  0  0
  1 18  1  1  0  0  0
  2  5  1  0  0  0  0
  3  2  1  6  0  0  0
  3  4  1  0  0  0  0
  4  1  1  0  0  0  0
  5  7  1  6  0  0  0
  5  6  1  0  0  0  0
  6 30  1  6  0  0  0
  6  1  1  0  0  0  0
  8  9  1  0  0  0  0
  9 12  1  0  0  0  0
 10 13  1  0  0  0  0
 10  8  1  0  0  0  0
 11 13  1  1  0  0  0
 11  3  1  0  0  0  0
 11 12  1  0  0  0  0
 14 10  1  0  0  0  0
 15 16  1  0  0  0  0
 15 17  1  0  0  0  0
 16 17  1  0  0  0  0
 17 14  1  1  0  0  0
 18 19  1  0  0  0  0
 18 22  1  1  0  0  0
 19 20  1  0  0  0  0
 20 21  1  0  0  0  0
 22 23  1  0  0  0  0
 23 24  1  0  0  0  0
 24 25  1  0  0  0  0
 25 29  1  0  0  0  0
 27 29  1  0  0  0  0
 28 29  1  0  0  0  0
 29 26  1  0  0  0  0
 31 32  1  0  0  0  0
 31 30  1  0  0  0  0
 32 49  1  1  0  0  0
 33 32  1  0  0  0  0
 34 38  1  0  0  0  0
 36 33  1  0  0  0  0
 37 39  1  0  0  0  0
 38 33  1  0  0  0  0
 38 35  2  0  0  0  0
 39 34  2  0  0  0  0
 39 36  1  0  0  0  0
 40 42  1  0  0  0  0
 41 45  1  0  0  0  0
 42 48  1  0  0  0  0
 43 46  1  1  0  0  0
 43 48  1  0  0  0  0
 44 41  1  1  0  0  0
 44 40  1  0  0  0  0
 44 43  1  0  0  0  0
 45 46  1  0  0  0  0
 45 34  1  0  0  0  0
 48 47  1  6  0  0  0
 49 50  1  0  0  0  0
 50 52  3  0  0  0  0
 52 51  1  0  0  0  0
M  END
>  <MODEL>
3

>  <REMARK>
 VINA RESULT:      -7.2      2.242     10.760
  Name = 
  18 active torsions:
  status: ('A' for Active; 'I' for Inactive)
    1  A    between atoms: C_5  and  C_16
    2  A    between atoms: C_8  and  C_27
    3  A    between atoms: N_9  and  C_41
    4  A    between atoms: C_11  and  C_32
    5  A    between atoms: C_11  and  C_42
    6  A    between atoms: C_12  and  S_15
    7  A    between atoms: C_12  and  C_40
    8  A    between atoms: O_13  and  O_18
    9  A    between atoms: C_14  and  C_16
   10  A    between atoms: C_14  and  C_43
   11  A    between atoms: S_15  and  C_49
   12  A    between atoms: C_16  and  O_18
   13  A    between atoms: N_19  and  C_49
   14  A    between atoms: N_21  and  C_30
   15  A    between atoms: N_24  and  C_26
   16  A    between atoms: C_27  and  C_49
   17  A    between atoms: C_41  and  C_52
   18  A    between atoms: C_42  and  C_43
                            x       y       z     vdW  Elec       q    Type
                         _______ _______ _______ _____ _____    ______ ____

>  <TORSDO>
F 18

$$$$
=
 OpenBabel10222418463D

 52 57  0  0  1  0  0  0  0  0999 V2000
  185.9420  177.8950  143.1330 C   0  0  2  0  0  3  0  0  0  0  0  0
  187.0050  178.9850  140.7230 C   0  0  0  0  0  2  0  0  0  0  0  0
  187.7250  178.0940  141.7480 C   0  0  2  0  0  3  0  0  0  0  0  0
  187.2580  178.3920  143.0390 O   0  0  0  0  0  0  0  0  0  0  0  0
  185.5120  178.6900  140.7750 C   0  0  1  0  0  3  0  0  0  0  0  0
  184.9840  178.6840  142.2180 C   0  0  1  0  0  3  0  0  0  0  0  0
  184.8310  179.6410  140.0140 O   0  0  0  0  0  1  0  0  0  0  0  0
  191.8010  177.1240  141.8330 C   0  0  0  0  0  2  0  0  0  0  0  0
  191.2620  177.9640  142.9870 C   0  0  0  0  0  2  0  0  0  0  0  0
  191.1940  177.5540  140.5750 N   0  0  0  0  0  0  0  0  0  0  0  0
  189.1880  178.2210  141.7020 N   0  0  1  0  0  0  0  0  0  0  0  0
  189.7410  177.8520  143.0080 C   0  0  0  0  0  2  0  0  0  0  0  0
  189.7530  177.3370  140.6730 C   0  0  0  0  0  2  0  0  0  0  0  0
  191.6790  176.6600  139.5350 C   0  0  0  0  0  2  0  0  0  0  0  0
  190.6700  176.8350  137.3320 C   0  0  0  0  0  2  0  0  0  0  0  0
  191.0510  175.4280  137.5280 N   0  0  0  0  0  2  0  0  0  0  0  0
  190.5280  176.2240  138.6480 C   0  0  1  0  0  3  0  0  0  0  0  0
  185.4690  177.9490  144.5890 C   0  0  2  0  0  3  0  0  0  0  0  0
  185.3110  179.2740  145.0160 O   0  0  0  0  0  0  0  0  0  0  0  0
  184.4530  179.2130  146.0120 O   0  0  0  0  0  0  0  0  0  0  0  0
  183.2700  179.2150  145.4340 O   0  0  0  0  0  1  0  0  0  0  0  0
  186.4680  177.2340  145.4830 C   0  0  0  0  0  2  0  0  0  0  0  0
  187.5040  178.2110  146.0120 C   0  0  0  0  0  2  0  0  0  0  0  0
  187.9650  177.8070  147.4030 C   0  0  0  0  0  2  0  0  0  0  0  0
  188.8820  176.5940  147.3250 C   0  0  0  0  0  2  0  0  0  0  0  0
  190.7720  177.5620  146.2270 F   0  0  0  0  0  0  0  0  0  0  0  0
  190.5570  177.8610  148.4560 F   0  0  0  0  0  0  0  0  0  0  0  0
  191.1020  175.8380  147.6330 F   0  0  0  0  0  0  0  0  0  0  0  0
  190.3560  176.9780  147.4090 C   0  0  0  0  0  0  0  0  0  0  0  0
  183.6020  178.0340  142.2450 C   0  0  0  0  0  2  0  0  0  0  0  0
  182.3150  179.2110  141.7310 S   0  0  0  0  0  0  0  0  0  0  0  0
  181.2140  177.8770  141.1570 C   0  0  2  0  0  3  0  0  0  0  0  0
  181.6000  177.4280  139.8260 N   0  0  0  0  0  0  0  0  0  0  0  0
  182.1050  176.0930  137.9670 C   0  0  0  0  0  0  0  0  0  0  0  0
  181.4930  175.0770  140.0740 O   0  0  0  0  0  0  0  0  0  0  0  0
  181.9270  178.3160  138.7200 C   0  0  0  0  0  2  0  0  0  0  0  0
  182.5980  177.8520  136.2280 C   0  0  0  0  0  1  0  0  0  0  0  0
  181.7090  176.0930  139.3620 C   0  0  0  0  0  0  0  0  0  0  0  0
  182.2310  177.3710  137.5890 C   0  0  0  0  0  0  0  0  0  0  0  0
  183.8470  171.9880  136.8060 N   0  0  0  0  0  2  0  0  0  0  0  0
  183.6170  174.4070  136.7790 C   0  0  0  0  0  2  0  0  0  0  0  0
  182.8280  170.9560  136.6910 C   0  0  0  0  0  2  0  0  0  0  0  0
  181.8550  172.9800  135.8670 C   0  0  2  0  0  3  0  0  0  0  0  0
  183.3640  173.1160  136.0220 C   0  0  2  0  0  3  0  0  0  0  0  0
  182.3150  174.9220  137.1540 N   0  0  0  0  0  0  0  0  0  0  0  0
  181.2220  174.1030  136.6680 C   0  0  0  0  0  2  0  0  0  0  0  0
  180.7140  170.9120  135.6100 O   0  0  0  0  0  1  0  0  0  0  0  0
  181.5050  171.6520  136.4880 C   0  0  1  0  0  3  0  0  0  0  0  0
  179.7590  178.3140  141.1870 C   0  0  0  0  0  2  0  0  0  0  0  0
  179.6270  179.6330  140.5600 C   0  0  0  0  0  0  0  0  0  0  0  0
  179.4280  182.0480  139.4440 C   0  0  0  0  0  1  0  0  0  0  0  0
  179.5340  180.7230  140.0540 C   0  0  0  0  0  0  0  0  0  0  0  0
  1 18  1  1  0  0  0
  2  5  1  0  0  0  0
  3  2  1  6  0  0  0
  3  4  1  0  0  0  0
  4  1  1  0  0  0  0
  5  7  1  6  0  0  0
  5  6  1  0  0  0  0
  6 30  1  6  0  0  0
  6  1  1  0  0  0  0
  8  9  1  0  0  0  0
  9 12  1  0  0  0  0
 10 13  1  0  0  0  0
 10  8  1  0  0  0  0
 11 13  1  6  0  0  0
 11  3  1  0  0  0  0
 11 12  1  0  0  0  0
 14 10  1  0  0  0  0
 15 16  1  0  0  0  0
 15 17  1  0  0  0  0
 16 17  1  0  0  0  0
 17 14  1  1  0  0  0
 18 19  1  0  0  0  0
 18 22  1  1  0  0  0
 19 20  1  0  0  0  0
 21 20  1  0  0  0  0
 22 23  1  0  0  0  0
 23 24  1  0  0  0  0
 25 24  1  0  0  0  0
 25 29  1  0  0  0  0
 26 29  1  0  0  0  0
 29 28  1  0  0  0  0
 29 27  1  0  0  0  0
 31 30  1  0  0  0  0
 32 49  1  6  0  0  0
 32 31  1  0  0  0  0
 33 32  1  0  0  0  0
 34 38  1  0  0  0  0
 36 33  1  0  0  0  0
 37 39  1  0  0  0  0
 38 33  1  0  0  0  0
 38 35  2  0  0  0  0
 39 34  2  0  0  0  0
 39 36  1  0  0  0  0
 41 45  1  0  0  0  0
 42 40  1  0  0  0  0
 43 44  1  0  0  0  0
 43 48  1  0  0  0  0
 43 46  1  1  0  0  0
 44 41  1  1  0  0  0
 44 40  1  0  0  0  0
 45 34  1  0  0  0  0
 46 45  1  0  0  0  0
 48 47  1  6  0  0  0
 48 42  1  0  0  0  0
 50 49  1  0  0  0  0
 51 52  1  0  0  0  0
 52 50  3  0  0  0  0
M  END
>  <MODEL>
4

>  <REMARK>
 VINA RESULT:      -6.6      3.913      6.229
  Name = 
  18 active torsions:
  status: ('A' for Active; 'I' for Inactive)
    1  A    between atoms: C_5  and  C_16
    2  A    between atoms: C_8  and  C_27
    3  A    between atoms: N_9  and  C_41
    4  A    between atoms: C_11  and  C_32
    5  A    between atoms: C_11  and  C_42
    6  A    between atoms: C_12  and  S_15
    7  A    between atoms: C_12  and  C_40
    8  A    between atoms: O_13  and  O_18
    9  A    between atoms: C_14  and  C_16
   10  A    between atoms: C_14  and  C_43
   11  A    between atoms: S_15  and  C_49
   12  A    between atoms: C_16  and  O_18
   13  A    between atoms: N_19  and  C_49
   14  A    between atoms: N_21  and  C_30
   15  A    between atoms: N_24  and  C_26
   16  A    between atoms: C_27  and  C_49
   17  A    between atoms: C_41  and  C_52
   18  A    between atoms: C_42  and  C_43
                            x       y       z     vdW  Elec       q    Type
                         _______ _______ _______ _____ _____    ______ ____

>  <TORSDO>
F 18

$$$$
=
 OpenBabel10222418463D

 52 57  0  0  1  0  0  0  0  0999 V2000
  185.7110  177.5650  137.8100 C   0  0  2  0  0  3  0  0  0  0  0  0
  184.6840  179.0260  140.0310 C   0  0  0  0  0  2  0  0  0  0  0  0
  183.8900  178.2290  138.9840 C   0  0  2  0  0  3  0  0  0  0  0  0
  184.5280  178.3270  137.7370 O   0  0  0  0  0  0  0  0  0  0  0  0
  186.0780  178.4260  140.1550 C   0  0  1  0  0  3  0  0  0  0  0  0
  186.7250  178.2050  138.7790 C   0  0  1  0  0  3  0  0  0  0  0  0
  186.8720  179.2700  140.9330 O   0  0  0  0  0  1  0  0  0  0  0  0
  179.7190  178.3330  139.3890 C   0  0  0  0  0  2  0  0  0  0  0  0
  180.2760  178.0560  137.9950 C   0  0  0  0  0  2  0  0  0  0  0  0
  180.5290  179.3500  140.0580 N   0  0  0  0  0  0  0  0  0  0  0  0
  182.4900  178.6580  138.8670 N   0  0  1  0  0  0  0  0  0  0  0  0
  181.7390  177.6420  138.1240 C   0  0  0  0  0  2  0  0  0  0  0  0
  181.8850  178.8260  140.1960 C   0  0  0  0  0  2  0  0  0  0  0  0
  180.0030  179.5020  141.4050 C   0  0  0  0  0  2  0  0  0  0  0  0
  180.6660  178.9080  143.6660 C   0  0  0  0  0  2  0  0  0  0  0  0
  179.5320  178.0430  143.3010 N   0  0  0  0  0  2  0  0  0  0  0  0
  180.5490  178.4060  142.3020 C   0  0  1  0  0  3  0  0  0  0  0  0
  186.3180  177.4120  136.4120 C   0  0  2  0  0  3  0  0  0  0  0  0
  187.0610  178.5460  136.0620 O   0  0  0  0  0  0  0  0  0  0  0  0
  187.8070  178.1670  135.0460 O   0  0  0  0  0  0  0  0  0  0  0  0
  188.6700  177.3180  135.5640 O   0  0  0  0  0  1  0  0  0  0  0  0
  185.2150  177.1820  135.3930 C   0  0  0  0  0  2  0  0  0  0  0  0
  185.4040  175.8450  134.6960 C   0  0  0  0  0  2  0  0  0  0  0  0
  186.0770  174.8440  135.6220 C   0  0  0  0  0  2  0  0  0  0  0  0
  185.0360  173.9680  136.3030 C   0  0  0  0  0  2  0  0  0  0  0  0
  185.4870  171.6210  136.3590 F   0  0  0  0  0  0  0  0  0  0  0  0
  187.0180  173.0300  137.2390 F   0  0  0  0  0  0  0  0  0  0  0  0
  185.0600  172.6890  138.2920 F   0  0  0  0  0  0  0  0  0  0  0  0
  185.6660  172.8010  137.0570 C   0  0  0  0  0  0  0  0  0  0  0  0
  187.9340  177.2830  138.9330 C   0  0  0  0  0  2  0  0  0  0  0  0
  189.4830  178.2340  138.9510 S   0  0  0  0  0  0  0  0  0  0  0  0
  190.3350  176.9770  139.9590 C   0  0  2  0  0  3  0  0  0  0  0  0
  190.3050  177.3400  141.3690 N   0  0  0  0  0  0  0  0  0  0  0  0
  189.6880  177.5450  143.6210 C   0  0  0  0  0  0  0  0  0  0  0  0
  188.2990  176.3050  142.0790 O   0  0  0  0  0  0  0  0  0  0  0  0
  191.3270  178.1320  142.0370 C   0  0  0  0  0  2  0  0  0  0  0  0
  191.6060  178.9110  144.5260 C   0  0  0  0  0  1  0  0  0  0  0  0
  189.3250  176.9910  142.3310 C   0  0  0  0  0  0  0  0  0  0  0  0
  190.8420  178.2040  143.4600 C   0  0  0  0  0  0  0  0  0  0  0  0
  188.6780  178.1180  148.0800 N   0  0  0  0  0  2  0  0  0  0  0  0
  189.4970  176.9650  146.1040 C   0  0  0  0  0  2  0  0  0  0  0  0
  187.4290  178.8350  148.2860 C   0  0  0  0  0  2  0  0  0  0  0  0
  187.1150  177.4450  146.3660 C   0  0  2  0  0  3  0  0  0  0  0  0
  188.3780  177.0600  147.1250 C   0  0  2  0  0  3  0  0  0  0  0  0
  188.9340  177.3990  144.8410 N   0  0  0  0  0  0  0  0  0  0  0  0
  187.5270  177.7300  144.9320 C   0  0  0  0  0  2  0  0  0  0  0  0
  185.2710  178.5950  147.3250 O   0  0  0  0  0  1  0  0  0  0  0  0
  186.6260  178.7140  147.0160 C   0  0  1  0  0  3  0  0  0  0  0  0
  191.7610  176.7610  139.4790 C   0  0  0  0  0  2  0  0  0  0  0  0
  191.7450  176.1950  138.1260 C   0  0  0  0  0  0  0  0  0  0  0  0
  191.6690  175.1760  135.6620 C   0  0  0  0  0  1  0  0  0  0  0  0
  191.7150  175.7340  137.0140 C   0  0  0  0  0  0  0  0  0  0  0  0
  1 18  1  6  0  0  0
  1  6  1  0  0  0  0
  2  5  1  0  0  0  0
  3  2  1  1  0  0  0
  4  1  1  0  0  0  0
  4  3  1  0  0  0  0
  5  7  1  1  0  0  0
  6 30  1  1  0  0  0
  6  5  1  0  0  0  0
  8 10  1  0  0  0  0
  9 12  1  0  0  0  0
  9  8  1  0  0  0  0
 10 13  1  0  0  0  0
 10 14  1  0  0  0  0
 11 12  1  6  0  0  0
 11  3  1  0  0  0  0
 11 13  1  0  0  0  0
 16 15  1  0  0  0  0
 17 14  1  6  0  0  0
 17 16  1  0  0  0  0
 17 15  1  0  0  0  0
 18 22  1  6  0  0  0
 19 18  1  0  0  0  0
 20 21  1  0  0  0  0
 20 19  1  0  0  0  0
 23 22  1  0  0  0  0
 23 24  1  0  0  0  0
 24 25  1  0  0  0  0
 25 29  1  0  0  0  0
 26 29  1  0  0  0  0
 29 27  1  0  0  0  0
 29 28  1  0  0  0  0
 30 31  1  0  0  0  0
 31 32  1  0  0  0  0
 32 49  1  6  0  0  0
 32 33  1  0  0  0  0
 33 36  1  0  0  0  0
 33 38  1  0  0  0  0
 34 45  1  0  0  0  0
 35 38  2  0  0  0  0
 36 39  1  0  0  0  0
 38 34  1  0  0  0  0
 39 34  2  0  0  0  0
 39 37  1  0  0  0  0
 40 42  1  0  0  0  0
 43 46  1  6  0  0  0
 43 48  1  0  0  0  0
 43 44  1  0  0  0  0
 44 41  1  6  0  0  0
 44 40  1  0  0  0  0
 45 46  1  0  0  0  0
 45 41  1  0  0  0  0
 48 47  1  1  0  0  0
 48 42  1  0  0  0  0
 50 49  1  0  0  0  0
 51 52  1  0  0  0  0
 52 50  3  0  0  0  0
M  END
>  <MODEL>
5

>  <REMARK>
 VINA RESULT:      -6.6      4.252     10.613
  Name = 
  18 active torsions:
  status: ('A' for Active; 'I' for Inactive)
    1  A    between atoms: C_5  and  C_16
    2  A    between atoms: C_8  and  C_27
    3  A    between atoms: N_9  and  C_41
    4  A    between atoms: C_11  and  C_32
    5  A    between atoms: C_11  and  C_42
    6  A    between atoms: C_12  and  S_15
    7  A    between atoms: C_12  and  C_40
    8  A    between atoms: O_13  and  O_18
    9  A    between atoms: C_14  and  C_16
   10  A    between atoms: C_14  and  C_43
   11  A    between atoms: S_15  and  C_49
   12  A    between atoms: C_16  and  O_18
   13  A    between atoms: N_19  and  C_49
   14  A    between atoms: N_21  and  C_30
   15  A    between atoms: N_24  and  C_26
   16  A    between atoms: C_27  and  C_49
   17  A    between atoms: C_41  and  C_52
   18  A    between atoms: C_42  and  C_43
                            x       y       z     vdW  Elec       q    Type
                         _______ _______ _______ _____ _____    ______ ____

>  <TORSDO>
F 18

$$$$
=
 OpenBabel10222418463D

 52 57  0  0  1  0  0  0  0  0999 V2000
  190.1250  176.6140  138.1940 C   0  0  2  0  0  3  0  0  0  0  0  0
  190.5160  175.7320  135.5130 C   0  0  0  0  0  2  0  0  0  0  0  0
  190.8840  174.9900  136.8080 C   0  0  2  0  0  3  0  0  0  0  0  0
  191.2800  175.9190  137.7850 O   0  0  0  0  0  0  0  0  0  0  0  0
  189.3460  176.6650  135.7930 C   0  0  1  0  0  3  0  0  0  0  0  0
  189.5790  177.5030  137.0590 C   0  0  1  0  0  3  0  0  0  0  0  0
  189.1500  177.4970  134.6900 O   0  0  0  0  0  1  0  0  0  0  0  0
  194.2680  173.0020  135.3390 C   0  0  0  0  0  2  0  0  0  0  0  0
  192.9100  172.3720  135.0450 C   0  0  0  0  0  2  0  0  0  0  0  0
  194.2870  173.5390  136.6990 N   0  0  0  0  0  0  0  0  0  0  0  0
  191.9330  173.9800  136.6220 N   0  0  1  0  0  0  0  0  0  0  0  0
  191.8230  173.4190  135.2720 C   0  0  0  0  0  2  0  0  0  0  0  0
  193.2650  174.5780  136.7860 C   0  0  0  0  0  2  0  0  0  0  0  0
  195.5700  174.2000  136.8830 C   0  0  0  0  0  2  0  0  0  0  0  0
  196.3570  174.2680  139.1800 C   0  0  0  0  0  2  0  0  0  0  0  0
  195.4790  173.0940  139.0530 N   0  0  0  0  0  2  0  0  0  0  0  0
  196.3730  173.4820  137.9520 C   0  0  1  0  0  3  0  0  0  0  0  0
  190.4360  177.4520  139.4380 C   0  0  2  0  0  3  0  0  0  0  0  0
  191.7660  177.8940  139.4240 O   0  0  0  0  0  0  0  0  0  0  0  0
  192.3910  177.1300  140.2950 O   0  0  0  0  0  0  0  0  0  0  0  0
  193.6700  177.3580  140.0800 O   0  0  0  0  0  1  0  0  0  0  0  0
  190.1770  176.6330  140.6910 C   0  0  0  0  0  2  0  0  0  0  0  0
  189.3270  177.4200  141.6750 C   0  0  0  0  0  2  0  0  0  0  0  0
  189.1410  176.6420  142.9680 C   0  0  0  0  0  2  0  0  0  0  0  0
  189.7110  177.4230  144.1430 C   0  0  0  0  0  2  0  0  0  0  0  0
  191.7020  176.1870  143.6670 F   0  0  0  0  0  0  0  0  0  0  0  0
  191.7510  178.4340  143.4320 F   0  0  0  0  0  0  0  0  0  0  0  0
  191.6580  177.5130  145.4840 F   0  0  0  0  0  0  0  0  0  0  0  0
  191.2360  177.3860  144.1750 C   0  0  0  0  0  0  0  0  0  0  0  0
  188.2570  178.1330  137.4960 C   0  0  0  0  0  2  0  0  0  0  0  0
  186.9570  176.8740  137.6650 S   0  0  0  0  0  0  0  0  0  0  0  0
  185.6330  178.1270  137.6640 C   0  0  2  0  0  3  0  0  0  0  0  0
  185.0300  178.2390  138.9850 N   0  0  0  0  0  0  0  0  0  0  0  0
  184.7040  178.5750  141.2810 C   0  0  0  0  0  0  0  0  0  0  0  0
  186.9140  178.7580  140.3200 O   0  0  0  0  0  0  0  0  0  0  0  0
  183.6120  178.0640  139.2600 C   0  0  0  0  0  2  0  0  0  0  0  0
  182.2100  178.2430  141.4690 C   0  0  0  0  0  1  0  0  0  0  0  0
  185.6770  178.5470  140.2080 C   0  0  0  0  0  0  0  0  0  0  0  0
  183.5100  178.2980  140.7430 C   0  0  0  0  0  0  0  0  0  0  0  0
  183.8420  179.0070  145.7870 N   0  0  0  0  0  2  0  0  0  0  0  0
  184.2040  179.7440  143.5000 C   0  0  0  0  0  2  0  0  0  0  0  0
  184.6190  178.0840  146.6000 C   0  0  0  0  0  2  0  0  0  0  0  0
  186.0320  178.7720  144.7970 C   0  0  2  0  0  3  0  0  0  0  0  0
  184.7950  179.6540  144.8950 C   0  0  2  0  0  3  0  0  0  0  0  0
  184.9880  178.8550  142.6660 N   0  0  0  0  0  0  0  0  0  0  0  0
  186.0750  178.2190  143.3840 C   0  0  0  0  0  2  0  0  0  0  0  0
  186.9210  177.5030  146.5980 O   0  0  0  0  0  1  0  0  0  0  0  0
  185.8050  177.6480  145.7760 C   0  0  1  0  0  3  0  0  0  0  0  0
  184.5850  177.8190  136.6070 C   0  0  0  0  0  2  0  0  0  0  0  0
  184.6870  176.4120  136.2070 C   0  0  0  0  0  0  0  0  0  0  0  0
  184.8860  173.8660  135.4350 C   0  0  0  0  0  1  0  0  0  0  0  0
  184.7750  175.2610  135.8620 C   0  0  0  0  0  0  0  0  0  0  0  0
  1 18  1  1  0  0  0
  2  5  1  0  0  0  0
  3  2  1  6  0  0  0
  3  4  1  0  0  0  0
  4  1  1  0  0  0  0
  5  7  1  6  0  0  0
  5  6  1  0  0  0  0
  6 30  1  1  0  0  0
  6  1  1  0  0  0  0
  8 10  1  0  0  0  0
  9 12  1  0  0  0  0
  9  8  1  0  0  0  0
 10 13  1  0  0  0  0
 10 14  1  0  0  0  0
 11 12  1  6  0  0  0
 11 13  1  0  0  0  0
 11  3  1  0  0  0  0
 16 15  1  0  0  0  0
 17 14  1  6  0  0  0
 17 16  1  0  0  0  0
 17 15  1  0  0  0  0
 18 22  1  1  0  0  0
 19 18  1  0  0  0  0
 19 20  1  0  0  0  0
 21 20  1  0  0  0  0
 22 23  1  0  0  0  0
 23 24  1  0  0  0  0
 24 25  1  0  0  0  0
 25 29  1  0  0  0  0
 26 29  1  0  0  0  0
 27 29  1  0  0  0  0
 29 28  1  0  0  0  0
 30 31  1  0  0  0  0
 32 49  1  6  0  0  0
 32 31  1  0  0  0  0
 32 33  1  0  0  0  0
 33 36  1  0  0  0  0
 33 38  1  0  0  0  0
 34 45  1  0  0  0  0
 36 39  1  0  0  0  0
 38 35  2  0  0  0  0
 38 34  1  0  0  0  0
 39 34  2  0  0  0  0
 39 37  1  0  0  0  0
 40 42  1  0  0  0  0
 43 46  1  6  0  0  0
 43 44  1  0  0  0  0
 43 48  1  0  0  0  0
 44 41  1  6  0  0  0
 44 40  1  0  0  0  0
 45 46  1  0  0  0  0
 45 41  1  0  0  0  0
 48 47  1  1  0  0  0
 48 42  1  0  0  0  0
 50 49  1  0  0  0  0
 51 52  1  0  0  0  0
 52 50  3  0  0  0  0
M  END
>  <MODEL>
6

>  <REMARK>
 VINA RESULT:      -6.5      3.215      5.485
  Name = 
  18 active torsions:
  status: ('A' for Active; 'I' for Inactive)
    1  A    between atoms: C_5  and  C_16
    2  A    between atoms: C_8  and  C_27
    3  A    between atoms: N_9  and  C_41
    4  A    between atoms: C_11  and  C_32
    5  A    between atoms: C_11  and  C_42
    6  A    between atoms: C_12  and  S_15
    7  A    between atoms: C_12  and  C_40
    8  A    between atoms: O_13  and  O_18
    9  A    between atoms: C_14  and  C_16
   10  A    between atoms: C_14  and  C_43
   11  A    between atoms: S_15  and  C_49
   12  A    between atoms: C_16  and  O_18
   13  A    between atoms: N_19  and  C_49
   14  A    between atoms: N_21  and  C_30
   15  A    between atoms: N_24  and  C_26
   16  A    between atoms: C_27  and  C_49
   17  A    between atoms: C_41  and  C_52
   18  A    between atoms: C_42  and  C_43
                            x       y       z     vdW  Elec       q    Type
                         _______ _______ _______ _____ _____    ______ ____

>  <TORSDO>
F 18

$$$$
=
 OpenBabel10222418463D

 52 57  0  0  1  0  0  0  0  0999 V2000
  185.6810  178.5590  141.2380 C   0  0  2  0  0  3  0  0  0  0  0  0
  184.8020  178.7020  138.5310 C   0  0  0  0  0  2  0  0  0  0  0  0
  184.1670  179.3700  139.7600 C   0  0  2  0  0  3  0  0  0  0  0  0
  184.3190  178.5350  140.8790 O   0  0  0  0  0  0  0  0  0  0  0  0
  186.2910  178.5070  138.7880 C   0  0  1  0  0  3  0  0  0  0  0  0
  186.5510  177.8750  140.1640 C   0  0  1  0  0  3  0  0  0  0  0  0
  186.8290  177.7090  137.7780 O   0  0  0  0  0  1  0  0  0  0  0  0
  180.4430  180.0140  137.9470 C   0  0  0  0  0  2  0  0  0  0  0  0
  181.1810  181.2410  138.4750 C   0  0  0  0  0  2  0  0  0  0  0  0
  180.6040  178.8950  138.8750 N   0  0  0  0  0  0  0  0  0  0  0  0
  182.7490  179.7040  139.5720 N   0  0  1  0  0  0  0  0  0  0  0  0
  182.6460  180.8760  138.6980 C   0  0  0  0  0  2  0  0  0  0  0  0
  182.0280  178.5810  138.9580 C   0  0  0  0  0  2  0  0  0  0  0  0
  179.9570  177.7400  138.2740 C   0  0  0  0  0  2  0  0  0  0  0  0
  179.7050  175.9070  139.8480 C   0  0  0  0  0  2  0  0  0  0  0  0
  179.6920  175.3270  138.4960 N   0  0  0  0  0  2  0  0  0  0  0  0
  180.5710  176.4620  138.8150 C   0  0  1  0  0  3  0  0  0  0  0  0
  185.8720  177.8850  142.6000 C   0  0  2  0  0  3  0  0  0  0  0  0
  184.7940  178.1610  143.4510 O   0  0  0  0  0  0  0  0  0  0  0  0
  184.9820  179.4000  143.8530 O   0  0  0  0  0  0  0  0  0  0  0  0
  184.7370  179.3720  145.1470 O   0  0  0  0  0  1  0  0  0  0  0  0
  187.1670  178.3630  143.2350 C   0  0  0  0  0  2  0  0  0  0  0  0
  187.7470  177.2850  144.1360 C   0  0  0  0  0  2  0  0  0  0  0  0
  187.9610  177.8160  145.5440 C   0  0  0  0  0  2  0  0  0  0  0  0
  189.2600  177.2730  146.1240 C   0  0  0  0  0  2  0  0  0  0  0  0
  190.5390  177.0010  148.1250 F   0  0  0  0  0  0  0  0  0  0  0  0
  188.9930  178.6460  148.0550 F   0  0  0  0  0  0  0  0  0  0  0  0
  188.3480  176.4930  148.1620 F   0  0  0  0  0  0  0  0  0  0  0  0
  189.2920  177.3590  147.6460 C   0  0  0  0  0  0  0  0  0  0  0  0
  188.0270  178.0390  140.5220 C   0  0  0  0  0  2  0  0  0  0  0  0
  189.0370  178.2880  139.0310 S   0  0  0  0  0  0  0  0  0  0  0  0
  190.4900  177.4890  139.7870 C   0  0  2  0  0  3  0  0  0  0  0  0
  191.1140  176.5630  138.8510 N   0  0  0  0  0  0  0  0  0  0  0  0
  192.6860  175.3650  137.5920 C   0  0  0  0  0  0  0  0  0  0  0  0
  193.4040  177.0960  139.1190 O   0  0  0  0  0  0  0  0  0  0  0  0
  190.3870  175.6020  138.0350 C   0  0  0  0  0  2  0  0  0  0  0  0
  191.1850  173.7870  136.3180 C   0  0  0  0  0  1  0  0  0  0  0  0
  192.4960  176.4110  138.5770 C   0  0  0  0  0  0  0  0  0  0  0  0
  191.4740  174.8920  137.2750 C   0  0  0  0  0  0  0  0  0  0  0  0
  197.1620  175.6310  136.5290 N   0  0  0  0  0  2  0  0  0  0  0  0
  194.7640  175.6880  136.1370 C   0  0  0  0  0  2  0  0  0  0  0  0
  197.9660  174.6400  137.2270 C   0  0  0  0  0  2  0  0  0  0  0  0
  195.8820  173.5900  136.7000 C   0  0  2  0  0  3  0  0  0  0  0  0
  196.0460  174.9000  135.9430 C   0  0  2  0  0  3  0  0  0  0  0  0
  193.9540  174.9250  137.0660 N   0  0  0  0  0  0  0  0  0  0  0  0
  194.5750  173.6780  137.4660 C   0  0  0  0  0  2  0  0  0  0  0  0
  197.6840  172.3070  137.5670 O   0  0  0  0  0  1  0  0  0  0  0  0
  197.0360  173.5370  137.6690 C   0  0  1  0  0  3  0  0  0  0  0  0
  190.1200  176.7890  141.0840 C   0  0  0  0  0  2  0  0  0  0  0  0
  190.7820  177.4550  142.2100 C   0  0  0  0  0  0  0  0  0  0  0  0
  191.9540  178.6460  144.2900 C   0  0  0  0  0  1  0  0  0  0  0  0
  191.3150  177.9950  143.1470 C   0  0  0  0  0  0  0  0  0  0  0  0
  1 18  1  1  0  0  0
  2  5  1  0  0  0  0
  3  2  1  6  0  0  0
  3  4  1  0  0  0  0
  4  1  1  0  0  0  0
  5  7  1  6  0  0  0
  5  6  1  0  0  0  0
  6 30  1  1  0  0  0
  6  1  1  0  0  0  0
  8  9  1  0  0  0  0
  8 10  1  0  0  0  0
  9 12  1  0  0  0  0
 10 13  1  0  0  0  0
 11 12  1  6  0  0  0
 11  3  1  0  0  0  0
 13 11  1  0  0  0  0
 14 10  1  0  0  0  0
 16 17  1  0  0  0  0
 16 15  1  0  0  0  0
 17 14  1  6  0  0  0
 17 15  1  0  0  0  0
 18 22  1  1  0  0  0
 18 19  1  0  0  0  0
 19 20  1  0  0  0  0
 20 21  1  0  0  0  0
 22 23  1  0  0  0  0
 23 24  1  0  0  0  0
 24 25  1  0  0  0  0
 25 29  1  0  0  0  0
 29 27  1  0  0  0  0
 29 26  1  0  0  0  0
 29 28  1  0  0  0  0
 31 32  1  0  0  0  0
 31 30  1  0  0  0  0
 32 49  1  1  0  0  0
 33 32  1  0  0  0  0
 34 38  1  0  0  0  0
 36 33  1  0  0  0  0
 37 39  1  0  0  0  0
 38 33  1  0  0  0  0
 38 35  2  0  0  0  0
 39 34  2  0  0  0  0
 39 36  1  0  0  0  0
 40 42  1  0  0  0  0
 41 45  1  0  0  0  0
 42 48  1  0  0  0  0
 43 46  1  1  0  0  0
 43 48  1  0  0  0  0
 44 41  1  1  0  0  0
 44 40  1  0  0  0  0
 44 43  1  0  0  0  0
 45 46  1  0  0  0  0
 45 34  1  0  0  0  0
 48 47  1  6  0  0  0
 49 50  1  0  0  0  0
 50 52  3  0  0  0  0
 52 51  1  0  0  0  0
M  END
>  <MODEL>
7

>  <REMARK>
 VINA RESULT:      -6.4      2.473     10.696
  Name = 
  18 active torsions:
  status: ('A' for Active; 'I' for Inactive)
    1  A    between atoms: C_5  and  C_16
    2  A    between atoms: C_8  and  C_27
    3  A    between atoms: N_9  and  C_41
    4  A    between atoms: C_11  and  C_32
    5  A    between atoms: C_11  and  C_42
    6  A    between atoms: C_12  and  S_15
    7  A    between atoms: C_12  and  C_40
    8  A    between atoms: O_13  and  O_18
    9  A    between atoms: C_14  and  C_16
   10  A    between atoms: C_14  and  C_43
   11  A    between atoms: S_15  and  C_49
   12  A    between atoms: C_16  and  O_18
   13  A    between atoms: N_19  and  C_49
   14  A    between atoms: N_21  and  C_30
   15  A    between atoms: N_24  and  C_26
   16  A    between atoms: C_27  and  C_49
   17  A    between atoms: C_41  and  C_52
   18  A    between atoms: C_42  and  C_43
                            x       y       z     vdW  Elec       q    Type
                         _______ _______ _______ _____ _____    ______ ____

>  <TORSDO>
F 18

$$$$
=
 OpenBabel10222418463D

 52 57  0  0  1  0  0  0  0  0999 V2000
  186.9810  178.1640  140.7090 C   0  0  2  0  0  3  0  0  0  0  0  0
  189.6860  177.8420  141.5460 C   0  0  0  0  0  2  0  0  0  0  0  0
  188.4180  177.7110  142.4030 C   0  0  2  0  0  3  0  0  0  0  0  0
  187.4520  178.6270  141.9540 O   0  0  0  0  0  0  0  0  0  0  0  0
  189.3430  177.5100  140.1000 C   0  0  1  0  0  3  0  0  0  0  0  0
  188.0810  178.2510  139.6320 C   0  0  1  0  0  3  0  0  0  0  0  0
  190.4280  177.8370  139.2850 O   0  0  0  0  0  1  0  0  0  0  0  0
  189.1060  176.9080  146.4580 C   0  0  0  0  0  2  0  0  0  0  0  0
  187.7640  177.5340  146.0920 C   0  0  0  0  0  2  0  0  0  0  0  0
  190.1730  177.5040  145.6550 N   0  0  0  0  0  0  0  0  0  0  0  0
  188.6630  177.9040  143.8380 N   0  0  1  0  0  0  0  0  0  0  0  0
  187.5320  177.3580  144.5940 C   0  0  0  0  0  2  0  0  0  0  0  0
  189.8940  177.2160  144.2510 C   0  0  0  0  0  2  0  0  0  0  0  0
  191.4040  176.8060  145.9870 C   0  0  0  0  0  2  0  0  0  0  0  0
  191.9230  175.1730  147.7100 C   0  0  0  0  0  2  0  0  0  0  0  0
  192.8570  176.2980  147.8780 N   0  0  0  0  0  2  0  0  0  0  0  0
  191.4610  176.5370  147.4800 C   0  0  1  0  0  3  0  0  0  0  0  0
  185.7460  178.9660  140.2890 C   0  0  2  0  0  3  0  0  0  0  0  0
  185.2970  179.7800  141.3370 O   0  0  0  0  0  0  0  0  0  0  0  0
  184.2580  179.1490  141.8420 O   0  0  0  0  0  0  0  0  0  0  0  0
  184.3270  179.3760  143.1370 O   0  0  0  0  0  1  0  0  0  0  0  0
  184.6380  178.0200  139.8590 C   0  0  0  0  0  2  0  0  0  0  0  0
  183.9640  178.5300  138.5960 C   0  0  0  0  0  2  0  0  0  0  0  0
  182.5400  178.0070  138.4970 C   0  0  0  0  0  2  0  0  0  0  0  0
  181.6430  179.0370  137.8240 C   0  0  0  0  0  2  0  0  0  0  0  0
  181.6540  181.0460  139.1190 F   0  0  0  0  0  0  0  0  0  0  0  0
  179.6770  180.2860  138.3340 F   0  0  0  0  0  0  0  0  0  0  0  0
  180.7270  179.1950  139.9980 F   0  0  0  0  0  0  0  0  0  0  0  0
  180.9120  179.9140  138.8340 C   0  0  0  0  0  0  0  0  0  0  0  0
  187.5770  177.6180  138.3360 C   0  0  0  0  0  2  0  0  0  0  0  0
  188.6100  178.1100  136.9230 S   0  0  0  0  0  0  0  0  0  0  0  0
  188.8450  176.3820  136.3930 C   0  0  2  0  0  3  0  0  0  0  0  0
  190.2630  176.0660  136.2800 N   0  0  0  0  0  0  0  0  0  0  0  0
  192.4130  175.2250  136.6830 C   0  0  0  0  0  0  0  0  0  0  0  0
  190.6250  174.8140  138.2560 O   0  0  0  0  0  0  0  0  0  0  0  0
  191.1110  176.4730  135.1700 C   0  0  0  0  0  2  0  0  0  0  0  0
  193.6420  176.0400  134.6350 C   0  0  0  0  0  1  0  0  0  0  0  0
  191.0560  175.3150  137.1840 C   0  0  0  0  0  0  0  0  0  0  0  0
  192.4530  175.8890  135.5210 C   0  0  0  0  0  0  0  0  0  0  0  0
  196.1970  172.6130  136.9890 N   0  0  0  0  0  2  0  0  0  0  0  0
  193.8280  173.1410  137.1240 C   0  0  0  0  0  2  0  0  0  0  0  0
  197.3420  173.3410  137.5120 C   0  0  0  0  0  2  0  0  0  0  0  0
  195.4190  174.1540  138.6780 C   0  0  2  0  0  3  0  0  0  0  0  0
  195.0990  172.8790  137.9100 C   0  0  2  0  0  3  0  0  0  0  0  0
  193.5040  174.5390  137.3280 N   0  0  0  0  0  0  0  0  0  0  0  0
  194.4290  175.2100  138.2200 C   0  0  0  0  0  2  0  0  0  0  0  0
  197.5990  174.7900  139.3760 O   0  0  0  0  0  1  0  0  0  0  0  0
  196.8110  174.5430  138.2520 C   0  0  1  0  0  3  0  0  0  0  0  0
  188.1170  176.1030  135.0890 C   0  0  0  0  0  2  0  0  0  0  0  0
  186.6750  176.2900  135.2800 C   0  0  0  0  0  0  0  0  0  0  0  0
  184.0470  176.6360  135.5780 C   0  0  0  0  0  1  0  0  0  0  0  0
  185.4880  176.4460  135.4190 C   0  0  0  0  0  0  0  0  0  0  0  0
  1 18  1  6  0  0  0
  1  4  1  0  0  0  0
  3  2  1  6  0  0  0
  3 11  1  0  0  0  0
  4  3  1  0  0  0  0
  5  7  1  6  0  0  0
  5  2  1  0  0  0  0
  6 30  1  6  0  0  0
  6  5  1  0  0  0  0
  6  1  1  0  0  0  0
  9  8  1  0  0  0  0
 10 14  1  0  0  0  0
 10  8  1  0  0  0  0
 11 13  1  1  0  0  0
 11 12  1  0  0  0  0
 12  9  1  0  0  0  0
 13 10  1  0  0  0  0
 15 16  1  0  0  0  0
 17 14  1  6  0  0  0
 17 15  1  0  0  0  0
 17 16  1  0  0  0  0
 18 22  1  1  0  0  0
 18 19  1  0  0  0  0
 19 20  1  0  0  0  0
 20 21  1  0  0  0  0
 23 22  1  0  0  0  0
 24 23  1  0  0  0  0
 25 24  1  0  0  0  0
 25 29  1  0  0  0  0
 27 29  1  0  0  0  0
 29 26  1  0  0  0  0
 29 28  1  0  0  0  0
 31 30  1  0  0  0  0
 32 49  1  6  0  0  0
 32 31  1  0  0  0  0
 33 32  1  0  0  0  0
 33 38  1  0  0  0  0
 34 38  1  0  0  0  0
 34 45  1  0  0  0  0
 36 39  1  0  0  0  0
 36 33  1  0  0  0  0
 37 39  1  0  0  0  0
 38 35  2  0  0  0  0
 39 34  2  0  0  0  0
 40 42  1  0  0  0  0
 40 44  1  0  0  0  0
 41 45  1  0  0  0  0
 42 48  1  0  0  0  0
 43 46  1  6  0  0  0
 44 41  1  6  0  0  0
 44 43  1  0  0  0  0
 45 46  1  0  0  0  0
 48 43  1  0  0  0  0
 48 47  1  1  0  0  0
 49 50  1  0  0  0  0
 50 52  3  0  0  0  0
 52 51  1  0  0  0  0
M  END
>  <MODEL>
8

>  <REMARK>
 VINA RESULT:      -6.4      4.174     10.790
  Name = 
  18 active torsions:
  status: ('A' for Active; 'I' for Inactive)
    1  A    between atoms: C_5  and  C_16
    2  A    between atoms: C_8  and  C_27
    3  A    between atoms: N_9  and  C_41
    4  A    between atoms: C_11  and  C_32
    5  A    between atoms: C_11  and  C_42
    6  A    between atoms: C_12  and  S_15
    7  A    between atoms: C_12  and  C_40
    8  A    between atoms: O_13  and  O_18
    9  A    between atoms: C_14  and  C_16
   10  A    between atoms: C_14  and  C_43
   11  A    between atoms: S_15  and  C_49
   12  A    between atoms: C_16  and  O_18
   13  A    between atoms: N_19  and  C_49
   14  A    between atoms: N_21  and  C_30
   15  A    between atoms: N_24  and  C_26
   16  A    between atoms: C_27  and  C_49
   17  A    between atoms: C_41  and  C_52
   18  A    between atoms: C_42  and  C_43
                            x       y       z     vdW  Elec       q    Type
                         _______ _______ _______ _____ _____    ______ ____

>  <TORSDO>
F 18

$$$$
=
 OpenBabel10222418463D

 52 57  0  0  1  0  0  0  0  0999 V2000
  186.0360  177.1130  137.3700 C   0  0  2  0  0  3  0  0  0  0  0  0
  184.7810  178.6480  139.4170 C   0  0  0  0  0  2  0  0  0  0  0  0
  184.1050  177.7390  138.3790 C   0  0  2  0  0  3  0  0  0  0  0  0
  184.8190  177.7950  137.1700 O   0  0  0  0  0  0  0  0  0  0  0  0
  186.1950  178.1440  139.6690 C   0  0  1  0  0  3  0  0  0  0  0  0
  186.9450  177.8750  138.3550 C   0  0  1  0  0  3  0  0  0  0  0  0
  186.8860  179.0840  140.4370 O   0  0  0  0  0  1  0  0  0  0  0  0
  180.1260  178.8700  139.0490 C   0  0  0  0  0  2  0  0  0  0  0  0
  180.3760  177.4260  138.6240 C   0  0  0  0  0  2  0  0  0  0  0  0
  181.0110  179.7700  138.3120 N   0  0  0  0  0  0  0  0  0  0  0  0
  182.6940  178.0730  138.1440 N   0  0  1  0  0  0  0  0  0  0  0  0
  181.8500  177.0980  138.8410 C   0  0  0  0  0  2  0  0  0  0  0  0
  182.3890  179.4190  138.6470 C   0  0  0  0  0  2  0  0  0  0  0  0
  180.7870  181.1120  138.8250 C   0  0  0  0  0  2  0  0  0  0  0  0
  179.8710  181.7210  136.6590 C   0  0  0  0  0  2  0  0  0  0  0  0
  179.5290  182.8010  137.5980 N   0  0  0  0  0  2  0  0  0  0  0  0
  180.8270  182.1150  137.6870 C   0  0  1  0  0  3  0  0  0  0  0  0
  186.7430  176.9070  136.0270 C   0  0  2  0  0  3  0  0  0  0  0  0
  186.2570  177.8000  135.0630 O   0  0  0  0  0  0  0  0  0  0  0  0
  187.2920  178.5400  134.7260 O   0  0  0  0  0  0  0  0  0  0  0  0
  188.3410  177.8160  135.0580 O   0  0  0  0  0  1  0  0  0  0  0  0
  186.5470  175.4780  135.5540 C   0  0  0  0  0  2  0  0  0  0  0  0
  187.3890  174.5220  136.3820 C   0  0  0  0  0  2  0  0  0  0  0  0
  186.7670  173.1350  136.4030 C   0  0  0  0  0  2  0  0  0  0  0  0
  185.2850  173.2130  136.0650 C   0  0  0  0  0  2  0  0  0  0  0  0
  185.1700  172.6330  138.3820 F   0  0  0  0  0  0  0  0  0  0  0  0
  183.6870  174.1350  137.5760 F   0  0  0  0  0  0  0  0  0  0  0  0
  183.5150  171.9630  137.0130 F   0  0  0  0  0  0  0  0  0  0  0  0
  184.4020  172.9860  137.2880 C   0  0  0  0  0  0  0  0  0  0  0  0
  188.1910  177.0410  138.6490 C   0  0  0  0  0  2  0  0  0  0  0  0
  189.6500  178.1020  138.8710 S   0  0  0  0  0  0  0  0  0  0  0  0
  190.4850  176.8680  139.9200 C   0  0  2  0  0  3  0  0  0  0  0  0
  190.4620  177.2790  141.3170 N   0  0  0  0  0  0  0  0  0  0  0  0
  189.8940  177.5060  143.5800 C   0  0  0  0  0  0  0  0  0  0  0  0
  188.5900  176.0790  142.1290 O   0  0  0  0  0  0  0  0  0  0  0  0
  191.4190  178.1930  141.9230 C   0  0  0  0  0  2  0  0  0  0  0  0
  191.6930  179.0880  144.3730 C   0  0  0  0  0  1  0  0  0  0  0  0
  189.5500  176.8720  142.3230 C   0  0  0  0  0  0  0  0  0  0  0  0
  190.9720  178.2690  143.3580 C   0  0  0  0  0  0  0  0  0  0  0  0
  189.1550  177.8600  148.1140 N   0  0  0  0  0  2  0  0  0  0  0  0
  189.7910  176.7830  146.0300 C   0  0  0  0  0  2  0  0  0  0  0  0
  187.9710  178.6430  148.4320 C   0  0  0  0  0  2  0  0  0  0  0  0
  187.4640  177.4020  146.4520 C   0  0  2  0  0  3  0  0  0  0  0  0
  188.7340  176.8870  147.1150 C   0  0  2  0  0  3  0  0  0  0  0  0
  189.1960  177.3330  144.8280 N   0  0  0  0  0  0  0  0  0  0  0  0
  187.8210  177.7490  145.0170 C   0  0  0  0  0  2  0  0  0  0  0  0
  185.7560  178.6080  147.5790 O   0  0  0  0  0  1  0  0  0  0  0  0
  187.0970  178.6560  147.2030 C   0  0  1  0  0  3  0  0  0  0  0  0
  191.9080  176.6160  139.4480 C   0  0  0  0  0  2  0  0  0  0  0  0
  191.8910  176.1640  138.0530 C   0  0  0  0  0  0  0  0  0  0  0  0
  191.8170  175.3620  135.5100 C   0  0  0  0  0  1  0  0  0  0  0  0
  191.8620  175.8000  136.9050 C   0  0  0  0  0  0  0  0  0  0  0  0
  1 18  1  6  0  0  0
  1  6  1  0  0  0  0
  2  5  1  0  0  0  0
  3  2  1  1  0  0  0
  4  1  1  0  0  0  0
  4  3  1  0  0  0  0
  5  7  1  6  0  0  0
  6 30  1  1  0  0  0
  6  5  1  0  0  0  0
  9 12  1  0  0  0  0
  9  8  1  0  0  0  0
 10 13  1  0  0  0  0
 10 14  1  0  0  0  0
 10  8  1  0  0  0  0
 11  3  1  0  0  0  0
 11 13  1  1  0  0  0
 11 12  1  0  0  0  0
 15 16  1  0  0  0  0
 15 17  1  0  0  0  0
 16 17  1  0  0  0  0
 17 14  1  1  0  0  0
 18 22  1  6  0  0  0
 19 18  1  0  0  0  0
 20 21  1  0  0  0  0
 20 19  1  0  0  0  0
 22 23  1  0  0  0  0
 23 24  1  0  0  0  0
 25 24  1  0  0  0  0
 25 29  1  0  0  0  0
 28 29  1  0  0  0  0
 29 27  1  0  0  0  0
 29 26  1  0  0  0  0
 30 31  1  0  0  0  0
 31 32  1  0  0  0  0
 32 49  1  6  0  0  0
 32 33  1  0  0  0  0
 33 36  1  0  0  0  0
 33 38  1  0  0  0  0
 34 45  1  0  0  0  0
 35 38  2  0  0  0  0
 36 39  1  0  0  0  0
 38 34  1  0  0  0  0
 39 34  2  0  0  0  0
 39 37  1  0  0  0  0
 40 42  1  0  0  0  0
 43 46  1  6  0  0  0
 43 44  1  0  0  0  0
 43 48  1  0  0  0  0
 44 41  1  6  0  0  0
 44 40  1  0  0  0  0
 45 46  1  0  0  0  0
 45 41  1  0  0  0  0
 48 47  1  1  0  0  0
 48 42  1  0  0  0  0
 50 49  1  0  0  0  0
 51 52  1  0  0  0  0
 52 50  3  0  0  0  0
M  END
>  <MODEL>
9

>  <REMARK>
 VINA RESULT:      -6.1      4.129     10.565
  Name = 
  18 active torsions:
  status: ('A' for Active; 'I' for Inactive)
    1  A    between atoms: C_5  and  C_16
    2  A    between atoms: C_8  and  C_27
    3  A    between atoms: N_9  and  C_41
    4  A    between atoms: C_11  and  C_32
    5  A    between atoms: C_11  and  C_42
    6  A    between atoms: C_12  and  S_15
    7  A    between atoms: C_12  and  C_40
    8  A    between atoms: O_13  and  O_18
    9  A    between atoms: C_14  and  C_16
   10  A    between atoms: C_14  and  C_43
   11  A    between atoms: S_15  and  C_49
   12  A    between atoms: C_16  and  O_18
   13  A    between atoms: N_19  and  C_49
   14  A    between atoms: N_21  and  C_30
   15  A    between atoms: N_24  and  C_26
   16  A    between atoms: C_27  and  C_49
   17  A    between atoms: C_41  and  C_52
   18  A    between atoms: C_42  and  C_43
                            x       y       z     vdW  Elec       q    Type
                         _______ _______ _______ _____ _____    ______ ____

>  <TORSDO>
F 18

$$$$
