=
 OpenBabel10222416553D

 28 32  0  0  1  0  0  0  0  0999 V2000
  188.4370  177.1550  142.5150 C   0  0  2  0  0  3  0  0  0  0  0  0
  187.9190  177.7210  143.7900 N   0  0  0  0  0  0  0  0  0  0  0  0
  190.2780  176.4500  143.8190 C   0  0  1  0  0  3  0  0  0  0  0  0
  192.4010  175.9150  147.2900 C   0  0  0  0  0  0  0  0  0  0  0  0
  191.2250  175.8850  144.8210 C   0  0  0  0  0  0  0  0  0  0  0  0
  189.4890  176.1180  142.8140 C   0  0  0  0  0  2  0  0  0  0  0  0
  191.6200  177.0450  146.9370 C   0  0  0  0  0  3  0  0  0  0  0  0
  186.5070  177.9370  143.9530 C   0  0  0  0  0  0  0  0  0  0  0  0
  191.0460  176.9710  145.6850 C   0  0  0  0  0  0  0  0  0  0  0  0
  188.8030  177.9310  144.9680 C   0  0  0  0  0  2  0  0  0  0  0  0
  186.0660  178.4700  145.0070 O   0  0  0  0  0  0  0  0  0  0  0  0
  191.9780  174.7880  145.1800 C   0  0  0  0  0  3  0  0  0  0  0  0
  193.0400  175.8830  148.5600 N   0  0  0  0  0  1  0  0  0  0  0  0
  192.5590  174.8470  146.4230 N   0  0  0  0  0  0  0  0  0  0  0  0
  190.2730  177.6270  144.6390 C   0  0  2  0  0  3  0  0  0  0  0  0
  189.9670  177.7310  140.7400 O   0  0  0  0  0  0  0  0  0  0  0  0
  189.0220  178.2650  141.6330 C   0  0  1  0  0  3  0  0  0  0  0  0
  189.1550  178.0640  139.6440 C   0  0  0  0  0  2  0  0  0  0  0  0
  188.0830  178.6440  140.5210 C   0  0  0  0  0  2  0  0  0  0  0  0
  185.5340  177.5230  142.8940 C   0  0  0  0  0  2  0  0  0  0  0  0
  184.2670  178.2160  143.0760 N   0  0  0  0  0  2  0  0  0  0  0  0
  183.7150  177.9230  140.7430 C   0  0  1  0  0  3  0  0  0  0  0  0
  183.9870  178.9300  141.8430 C   0  0  1  0  0  3  0  0  0  0  0  0
  182.5630  178.6440  141.4080 C   0  0  0  0  0  2  0  0  0  0  0  0
  184.0800  178.6780  139.1300 P   0  0  0  0  0  0  0  0  0  0  0  0
  182.6960  178.6070  138.1600 O   0  0  0  0  0  0  0  0  0  0  0  0
  184.4680  180.1240  139.3340 O   0  0  0  0  0  1  0  0  0  0  0  0
  185.3460  177.8650  138.3520 O   0  0  0  0  0  1  0  0  0  0  0  0
  1  6  1  1  0  0  0
  1  2  1  0  0  0  0
  2  8  1  0  0  0  0
  2 10  1  0  0  0  0
  3  6  1  1  0  0  0
  3 15  1  0  0  0  0
  3  5  1  0  0  0  0
  4 13  1  0  0  0  0
  5 12  2  0  0  0  0
  5  9  1  0  0  0  0
  7  4  1  0  0  0  0
  8 11  2  0  0  0  0
  9  7  2  0  0  0  0
 12 14  1  0  0  0  0
 14  4  2  0  0  0  0
 15 10  1  1  0  0  0
 15  9  1  0  0  0  0
 16 17  1  0  0  0  0
 17 19  1  6  0  0  0
 17  1  1  0  0  0  0
 18 19  1  0  0  0  0
 18 16  1  0  0  0  0
 20 21  1  0  0  0  0
 20  8  1  0  0  0  0
 22 25  1  6  0  0  0
 22 24  1  0  0  0  0
 22 23  1  0  0  0  0
 23 21  1  1  0  0  0
 24 23  1  0  0  0  0
 25 27  1  0  0  0  0
 26 25  2  0  0  0  0
 28 25  1  0  0  0  0
M  END
>  <MODEL>
1

>  <REMARK>
 VINA RESULT:      -7.1      0.000      0.000
  Name = 
  5 active torsions:
  status: ('A' for Active; 'I' for Inactive)
    1  A    between atoms: C_1  and  C_13
    2  A    between atoms: C_7  and  P_11
    3  A    between atoms: N_10  and  C_16
    4  A    between atoms: N_10  and  C_24
    5  A    between atoms: C_12  and  C_24
                            x       y       z     vdW  Elec       q    Type
                         _______ _______ _______ _____ _____    ______ ____

>  <TORSDO>
F 5

$$$$
=
 OpenBabel10222416553D

 28 32  0  0  1  0  0  0  0  0999 V2000
  188.7830  177.2020  141.3450 C   0  0  2  0  0  3  0  0  0  0  0  0
  190.0780  177.3630  142.0600 N   0  0  0  0  0  0  0  0  0  0  0  0
  190.1180  176.5830  139.4960 C   0  0  1  0  0  3  0  0  0  0  0  0
  193.6290  175.6980  137.5630 C   0  0  0  0  0  0  0  0  0  0  0  0
  191.0870  175.9970  138.5270 C   0  0  0  0  0  0  0  0  0  0  0  0
  188.9830  176.3410  140.1250 C   0  0  0  0  0  2  0  0  0  0  0  0
  193.4260  176.7120  138.5350 C   0  0  0  0  0  3  0  0  0  0  0  0
  190.1190  177.2690  143.4930 C   0  0  0  0  0  0  0  0  0  0  0  0
  192.1280  176.8100  138.9890 C   0  0  0  0  0  0  0  0  0  0  0  0
  191.3680  177.4690  141.3250 C   0  0  0  0  0  2  0  0  0  0  0  0
  191.2010  177.4630  144.1100 O   0  0  0  0  0  0  0  0  0  0  0  0
  191.3000  175.0090  137.5900 C   0  0  0  0  0  3  0  0  0  0  0  0
  194.9310  175.5050  137.0240 N   0  0  0  0  0  1  0  0  0  0  0  0
  192.5870  174.8990  137.1250 N   0  0  0  0  0  0  0  0  0  0  0  0
  191.1550  177.5250  139.8040 C   0  0  2  0  0  3  0  0  0  0  0  0
  187.4760  178.4590  139.7530 O   0  0  0  0  0  0  0  0  0  0  0  0
  188.2180  178.5700  140.9410 C   0  0  1  0  0  3  0  0  0  0  0  0
  186.2950  178.8010  140.4300 C   0  0  0  0  0  2  0  0  0  0  0  0
  187.0010  178.9290  141.7500 C   0  0  0  0  0  2  0  0  0  0  0  0
  188.8930  176.9260  144.2810 C   0  0  0  0  0  2  0  0  0  0  0  0
  189.1730  177.0010  145.7060 N   0  0  0  0  0  2  0  0  0  0  0  0
  186.9270  177.4180  146.4920 C   0  0  1  0  0  3  0  0  0  0  0  0
  188.2990  178.0190  146.2640 C   0  0  1  0  0  3  0  0  0  0  0  0
  187.8720  177.6070  147.6580 C   0  0  0  0  0  2  0  0  0  0  0  0
  185.6780  178.7390  146.4740 P   0  0  0  0  0  0  0  0  0  0  0  0
  185.5270  179.3360  144.8990 O   0  0  0  0  0  0  0  0  0  0  0  0
  184.3500  178.1720  146.9190 O   0  0  0  0  0  1  0  0  0  0  0  0
  186.1200  180.0040  147.5090 O   0  0  0  0  0  1  0  0  0  0  0  0
  1  6  1  6  0  0  0
  1  2  1  0  0  0  0
  2  8  1  0  0  0  0
  3 15  1  0  0  0  0
  3  6  1  1  0  0  0
  4  7  1  0  0  0  0
  5  9  1  0  0  0  0
  5  3  1  0  0  0  0
  7  9  2  0  0  0  0
  8 11  2  0  0  0  0
  8 20  1  0  0  0  0
  9 15  1  0  0  0  0
 10  2  1  0  0  0  0
 12  5  2  0  0  0  0
 13  4  1  0  0  0  0
 14  4  2  0  0  0  0
 14 12  1  0  0  0  0
 15 10  1  1  0  0  0
 16 18  1  0  0  0  0
 16 17  1  0  0  0  0
 17  1  1  0  0  0  0
 17 19  1  1  0  0  0
 18 19  1  0  0  0  0
 20 21  1  0  0  0  0
 22 25  1  1  0  0  0
 22 24  1  0  0  0  0
 23 21  1  6  0  0  0
 23 22  1  0  0  0  0
 23 24  1  0  0  0  0
 25 27  1  0  0  0  0
 25 28  1  0  0  0  0
 26 25  2  0  0  0  0
M  END
>  <MODEL>
2

>  <REMARK>
 VINA RESULT:      -6.8      3.813      6.374
  Name = 
  5 active torsions:
  status: ('A' for Active; 'I' for Inactive)
    1  A    between atoms: C_1  and  C_13
    2  A    between atoms: C_7  and  P_11
    3  A    between atoms: N_10  and  C_16
    4  A    between atoms: N_10  and  C_24
    5  A    between atoms: C_12  and  C_24
                            x       y       z     vdW  Elec       q    Type
                         _______ _______ _______ _____ _____    ______ ____

>  <TORSDO>
F 5

$$$$
=
 OpenBabel10222416553D

 28 32  0  0  1  0  0  0  0  0999 V2000
  181.9610  178.5440  140.9160 C   0  0  2  0  0  3  0  0  0  0  0  0
  181.2770  178.6180  142.2360 N   0  0  0  0  0  0  0  0  0  0  0  0
  183.9520  178.4590  142.1880 C   0  0  1  0  0  3  0  0  0  0  0  0
  186.1660  178.2760  145.6380 C   0  0  0  0  0  0  0  0  0  0  0  0
  185.0660  178.1780  143.1360 C   0  0  0  0  0  0  0  0  0  0  0  0
  183.3560  178.0050  141.1010 C   0  0  0  0  0  2  0  0  0  0  0  0
  184.9770  179.0220  145.4300 C   0  0  0  0  0  3  0  0  0  0  0  0
  179.9090  178.1960  142.3540 C   0  0  0  0  0  0  0  0  0  0  0  0
  184.4640  178.9280  144.1530 C   0  0  0  0  0  0  0  0  0  0  0  0
  182.0130  178.9750  143.4790 C   0  0  0  0  0  2  0  0  0  0  0  0
  179.3040  178.3110  143.4540 O   0  0  0  0  0  0  0  0  0  0  0  0
  186.2160  177.4520  143.3540 C   0  0  0  0  0  3  0  0  0  0  0  0
  186.7830  178.2990  146.9190 N   0  0  0  0  0  1  0  0  0  0  0  0
  186.7420  177.5360  144.6200 N   0  0  0  0  0  0  0  0  0  0  0  0
  183.4690  179.3700  143.1860 C   0  0  2  0  0  3  0  0  0  0  0  0
  182.9380  179.9340  139.2030 O   0  0  0  0  0  0  0  0  0  0  0  0
  182.0110  179.9290  140.2580 C   0  0  1  0  0  3  0  0  0  0  0  0
  181.9110  180.1490  138.2690 C   0  0  0  0  0  2  0  0  0  0  0  0
  180.8480  180.1450  139.3300 C   0  0  0  0  0  2  0  0  0  0  0  0
  179.1790  177.6010  141.1910 C   0  0  0  0  0  2  0  0  0  0  0  0
  179.1720  176.1500  141.2880 N   0  0  0  0  0  2  0  0  0  0  0  0
  180.7530  175.2480  139.6990 C   0  0  1  0  0  3  0  0  0  0  0  0
  179.3050  175.6280  139.9390 C   0  0  1  0  0  3  0  0  0  0  0  0
  179.7300  174.1740  140.0020 C   0  0  0  0  0  2  0  0  0  0  0  0
  181.1030  175.2970  137.9160 P   0  0  0  0  0  0  0  0  0  0  0  0
  181.9700  176.7060  137.5620 O   0  0  0  0  0  1  0  0  0  0  0  0
  181.9370  174.0940  137.5410 O   0  0  0  0  0  1  0  0  0  0  0  0
  179.6690  175.2860  137.0160 O   0  0  0  0  0  0  0  0  0  0  0  0
  1  6  1  1  0  0  0
  1  2  1  0  0  0  0
  2  8  1  0  0  0  0
  2 10  1  0  0  0  0
  3  6  1  1  0  0  0
  3  5  1  0  0  0  0
  3 15  1  0  0  0  0
  4 13  1  0  0  0  0
  5 12  2  0  0  0  0
  5  9  1  0  0  0  0
  7  4  1  0  0  0  0
  8 11  2  0  0  0  0
  9  7  2  0  0  0  0
 12 14  1  0  0  0  0
 14  4  2  0  0  0  0
 15 10  1  1  0  0  0
 15  9  1  0  0  0  0
 16 17  1  0  0  0  0
 17 19  1  6  0  0  0
 17  1  1  0  0  0  0
 18 16  1  0  0  0  0
 18 19  1  0  0  0  0
 20 21  1  0  0  0  0
 20  8  1  0  0  0  0
 22 25  1  6  0  0  0
 22 23  1  0  0  0  0
 22 24  1  0  0  0  0
 23 24  1  0  0  0  0
 23 21  1  1  0  0  0
 26 25  1  0  0  0  0
 27 25  1  0  0  0  0
 28 25  2  0  0  0  0
M  END
>  <MODEL>
3

>  <REMARK>
 VINA RESULT:      -6.5      4.366      6.565
  Name = 
  5 active torsions:
  status: ('A' for Active; 'I' for Inactive)
    1  A    between atoms: C_1  and  C_13
    2  A    between atoms: C_7  and  P_11
    3  A    between atoms: N_10  and  C_16
    4  A    between atoms: N_10  and  C_24
    5  A    between atoms: C_12  and  C_24
                            x       y       z     vdW  Elec       q    Type
                         _______ _______ _______ _____ _____    ______ ____

>  <TORSDO>
F 5

$$$$
=
 OpenBabel10222416553D

 28 32  0  0  1  0  0  0  0  0999 V2000
  189.7480  177.4720  141.3150 C   0  0  2  0  0  3  0  0  0  0  0  0
  188.8080  177.4940  140.1620 N   0  0  0  0  0  0  0  0  0  0  0  0
  191.3570  176.7940  139.7210 C   0  0  1  0  0  3  0  0  0  0  0  0
  192.7390  175.9290  135.9550 C   0  0  0  0  0  0  0  0  0  0  0  0
  192.2760  176.6120  138.5630 C   0  0  0  0  0  0  0  0  0  0  0  0
  191.1680  177.5170  140.8100 C   0  0  0  0  0  2  0  0  0  0  0  0
  191.4570  175.6260  136.4800 C   0  0  0  0  0  3  0  0  0  0  0  0
  187.6320  178.3170  140.2170 C   0  0  0  0  0  0  0  0  0  0  0  0
  191.2790  176.0000  137.7960 C   0  0  0  0  0  0  0  0  0  0  0  0
  189.1250  176.8030  138.8820 C   0  0  0  0  0  2  0  0  0  0  0  0
  186.8000  178.2960  139.2690 O   0  0  0  0  0  0  0  0  0  0  0  0
  193.5150  176.9090  138.0370 C   0  0  0  0  0  3  0  0  0  0  0  0
  193.0340  175.5870  134.6060 N   0  0  0  0  0  1  0  0  0  0  0  0
  193.7100  176.5410  136.7290 N   0  0  0  0  0  0  0  0  0  0  0  0
  190.4270  175.9940  138.9770 C   0  0  2  0  0  3  0  0  0  0  0  0
  190.5690  176.0670  143.0970 O   0  0  0  0  0  0  0  0  0  0  0  0
  189.5290  176.2130  142.1640 C   0  0  1  0  0  3  0  0  0  0  0  0
  189.6740  176.2580  144.1620 C   0  0  0  0  0  2  0  0  0  0  0  0
  188.5030  176.4420  143.2400 C   0  0  0  0  0  2  0  0  0  0  0  0
  187.3740  179.2230  141.3800 C   0  0  0  0  0  2  0  0  0  0  0  0
  185.9460  179.4460  141.5380 N   0  0  0  0  0  2  0  0  0  0  0  0
  184.9040  179.6190  143.7110 C   0  0  1  0  0  3  0  0  0  0  0  0
  185.5150  178.6770  142.6930 C   0  0  1  0  0  3  0  0  0  0  0  0
  184.0090  178.7750  142.8300 C   0  0  0  0  0  2  0  0  0  0  0  0
  185.0300  178.8830  145.3680 P   0  0  0  0  0  0  0  0  0  0  0  0
  185.8240  179.9670  146.3960 O   0  0  0  0  0  1  0  0  0  0  0  0
  183.6400  178.6210  145.9020 O   0  0  0  0  0  1  0  0  0  0  0  0
  185.8930  177.4270  145.3210 O   0  0  0  0  0  0  0  0  0  0  0  0
  1  6  1  6  0  0  0
  1 17  1  0  0  0  0
  2  8  1  0  0  0  0
  2  1  1  0  0  0  0
  3  6  1  6  0  0  0
  4  7  2  0  0  0  0
  4 14  1  0  0  0  0
  5  3  1  0  0  0  0
  7  9  1  0  0  0  0
  8 20  1  0  0  0  0
  9  5  2  0  0  0  0
  9 15  1  0  0  0  0
 10  2  1  0  0  0  0
 11  8  2  0  0  0  0
 12  5  1  0  0  0  0
 13  4  1  0  0  0  0
 14 12  2  0  0  0  0
 15 10  1  6  0  0  0
 15  3  1  0  0  0  0
 16 18  1  0  0  0  0
 17 16  1  0  0  0  0
 17 19  1  1  0  0  0
 19 18  1  0  0  0  0
 20 21  1  0  0  0  0
 22 25  1  1  0  0  0
 23 21  1  6  0  0  0
 23 24  1  0  0  0  0
 23 22  1  0  0  0  0
 24 22  1  0  0  0  0
 25 27  1  0  0  0  0
 25 26  1  0  0  0  0
 28 25  2  0  0  0  0
M  END
>  <MODEL>
4

>  <REMARK>
 VINA RESULT:      -6.5      3.863      6.439
  Name = 
  5 active torsions:
  status: ('A' for Active; 'I' for Inactive)
    1  A    between atoms: C_1  and  C_13
    2  A    between atoms: C_7  and  P_11
    3  A    between atoms: N_10  and  C_16
    4  A    between atoms: N_10  and  C_24
    5  A    between atoms: C_12  and  C_24
                            x       y       z     vdW  Elec       q    Type
                         _______ _______ _______ _____ _____    ______ ____

>  <TORSDO>
F 5

$$$$
=
 OpenBabel10222416553D

 28 32  0  0  1  0  0  0  0  0999 V2000
  188.2150  177.8140  139.7800 C   0  0  2  0  0  3  0  0  0  0  0  0
  187.5840  178.6270  140.8540 N   0  0  0  0  0  0  0  0  0  0  0  0
  189.7440  177.1620  141.4610 C   0  0  1  0  0  3  0  0  0  0  0  0
  191.2450  177.0060  145.2770 C   0  0  0  0  0  0  0  0  0  0  0  0
  190.4560  176.6820  142.6790 C   0  0  0  0  0  0  0  0  0  0  0  0
  189.0800  176.7450  140.3980 C   0  0  0  0  0  2  0  0  0  0  0  0
  190.6660  178.1320  144.6370 C   0  0  0  0  0  3  0  0  0  0  0  0
  186.2000  178.9980  140.7470 C   0  0  0  0  0  0  0  0  0  0  0  0
  190.2810  177.9070  143.3320 C   0  0  0  0  0  0  0  0  0  0  0  0
  188.3010  178.9440  142.1190 C   0  0  0  0  0  2  0  0  0  0  0  0
  185.6730  179.7370  141.6230 O   0  0  0  0  0  0  0  0  0  0  0  0
  191.0120  175.5930  143.3150 C   0  0  0  0  0  3  0  0  0  0  0  0
  191.6800  177.1230  146.6260 N   0  0  0  0  0  1  0  0  0  0  0  0
  191.4040  175.8010  144.6140 N   0  0  0  0  0  0  0  0  0  0  0  0
  189.7570  178.4520  142.0870 C   0  0  2  0  0  3  0  0  0  0  0  0
  190.0380  177.9400  138.2030 O   0  0  0  0  0  0  0  0  0  0  0  0
  189.0540  178.7040  138.8540 C   0  0  1  0  0  3  0  0  0  0  0  0
  189.4340  178.1810  136.9580 C   0  0  0  0  0  2  0  0  0  0  0  0
  188.3340  179.0010  137.5680 C   0  0  0  0  0  2  0  0  0  0  0  0
  185.3530  178.5100  139.6130 C   0  0  0  0  0  2  0  0  0  0  0  0
  184.5340  179.5940  139.0940 N   0  0  0  0  0  2  0  0  0  0  0  0
  182.3690  179.0400  140.0110 C   0  0  1  0  0  3  0  0  0  0  0  0
  183.2350  179.0330  138.7670 C   0  0  1  0  0  3  0  0  0  0  0  0
  182.1680  180.0950  138.9450 C   0  0  0  0  0  2  0  0  0  0  0  0
  181.0940  177.7520  139.8690 P   0  0  0  0  0  0  0  0  0  0  0  0
  181.8470  176.2470  139.6980 O   0  0  0  0  0  1  0  0  0  0  0  0
  180.2520  177.7460  141.1230 O   0  0  0  0  0  1  0  0  0  0  0  0
  180.0980  178.0310  138.5280 O   0  0  0  0  0  0  0  0  0  0  0  0
  1  6  1  1  0  0  0
  1  2  1  0  0  0  0
  2 10  1  0  0  0  0
  3  6  1  1  0  0  0
  3 15  1  0  0  0  0
  3  5  1  0  0  0  0
  4 13  1  0  0  0  0
  5 12  2  0  0  0  0
  5  9  1  0  0  0  0
  7  4  1  0  0  0  0
  8  2  1  0  0  0  0
  8 11  2  0  0  0  0
  9  7  2  0  0  0  0
 12 14  1  0  0  0  0
 14  4  2  0  0  0  0
 15 10  1  1  0  0  0
 15  9  1  0  0  0  0
 16 17  1  0  0  0  0
 17 19  1  6  0  0  0
 17  1  1  0  0  0  0
 18 19  1  0  0  0  0
 18 16  1  0  0  0  0
 20  8  1  0  0  0  0
 21 20  1  0  0  0  0
 22 25  1  6  0  0  0
 23 24  1  0  0  0  0
 23 21  1  1  0  0  0
 23 22  1  0  0  0  0
 24 22  1  0  0  0  0
 25 27  1  0  0  0  0
 26 25  1  0  0  0  0
 28 25  2  0  0  0  0
M  END
>  <MODEL>
5

>  <REMARK>
 VINA RESULT:      -6.2      2.329      3.115
  Name = 
  5 active torsions:
  status: ('A' for Active; 'I' for Inactive)
    1  A    between atoms: C_1  and  C_13
    2  A    between atoms: C_7  and  P_11
    3  A    between atoms: N_10  and  C_16
    4  A    between atoms: N_10  and  C_24
    5  A    between atoms: C_12  and  C_24
                            x       y       z     vdW  Elec       q    Type
                         _______ _______ _______ _____ _____    ______ ____

>  <TORSDO>
F 5

$$$$
=
 OpenBabel10222416553D

 28 32  0  0  1  0  0  0  0  0999 V2000
  189.9110  176.5100  138.2750 C   0  0  2  0  0  3  0  0  0  0  0  0
  190.9860  176.8130  139.2580 N   0  0  0  0  0  0  0  0  0  0  0  0
  191.5470  175.1730  137.2150 C   0  0  1  0  0  3  0  0  0  0  0  0
  195.2220  173.3890  136.8250 C   0  0  0  0  0  0  0  0  0  0  0  0
  192.6130  174.2080  136.8240 C   0  0  0  0  0  0  0  0  0  0  0  0
  190.2640  175.2590  137.5120 C   0  0  0  0  0  2  0  0  0  0  0  0
  194.9590  174.6940  137.3140 C   0  0  0  0  0  3  0  0  0  0  0  0
  190.6380  177.2310  140.5880 C   0  0  0  0  0  0  0  0  0  0  0  0
  193.6260  175.0490  137.2970 C   0  0  0  0  0  0  0  0  0  0  0  0
  192.4190  176.5510  138.9560 C   0  0  0  0  0  2  0  0  0  0  0  0
  191.5410  177.5470  141.4090 O   0  0  0  0  0  0  0  0  0  0  0  0
  192.8810  172.9380  136.3600 C   0  0  0  0  0  3  0  0  0  0  0  0
  196.5640  172.9170  136.7960 N   0  0  0  0  0  1  0  0  0  0  0  0
  194.2040  172.5700  136.3680 N   0  0  0  0  0  0  0  0  0  0  0  0
  192.6190  176.0800  137.5070 C   0  0  2  0  0  3  0  0  0  0  0  0
  188.9650  177.2820  136.1930 O   0  0  0  0  0  0  0  0  0  0  0  0
  189.7220  177.6850  137.3060 C   0  0  1  0  0  3  0  0  0  0  0  0
  187.9220  178.1470  136.5580 C   0  0  0  0  0  2  0  0  0  0  0  0
  188.6500  178.6280  137.7810 C   0  0  0  0  0  2  0  0  0  0  0  0
  189.2100  177.2870  141.0330 C   0  0  0  0  0  2  0  0  0  0  0  0
  189.1250  177.1370  142.4780 N   0  0  0  0  0  2  0  0  0  0  0  0
  186.7780  177.3450  143.0080 C   0  0  1  0  0  3  0  0  0  0  0  0
  188.1110  178.0640  142.9480 C   0  0  1  0  0  3  0  0  0  0  0  0
  187.5660  177.5820  144.2780 C   0  0  0  0  0  2  0  0  0  0  0  0
  185.4300  178.5580  142.8690 P   0  0  0  0  0  0  0  0  0  0  0  0
  185.8720  179.7500  141.7540 O   0  0  0  0  0  0  0  0  0  0  0  0
  184.1830  177.8590  142.3800 O   0  0  0  0  0  1  0  0  0  0  0  0
  185.1130  179.2850  144.3650 O   0  0  0  0  0  1  0  0  0  0  0  0
  1  6  1  6  0  0  0
  1  2  1  0  0  0  0
  2  8  1  0  0  0  0
  3 15  1  0  0  0  0
  3  6  1  1  0  0  0
  4  7  1  0  0  0  0
  5  3  1  0  0  0  0
  5  9  1  0  0  0  0
  8 20  1  0  0  0  0
  8 11  2  0  0  0  0
  9  7  2  0  0  0  0
  9 15  1  0  0  0  0
 10  2  1  0  0  0  0
 12 14  1  0  0  0  0
 12  5  2  0  0  0  0
 13  4  1  0  0  0  0
 14  4  2  0  0  0  0
 15 10  1  1  0  0  0
 16 18  1  0  0  0  0
 16 17  1  0  0  0  0
 17 19  1  1  0  0  0
 17  1  1  0  0  0  0
 18 19  1  0  0  0  0
 20 21  1  0  0  0  0
 22 25  1  1  0  0  0
 22 24  1  0  0  0  0
 23 21  1  6  0  0  0
 23 22  1  0  0  0  0
 23 24  1  0  0  0  0
 25 28  1  0  0  0  0
 26 25  2  0  0  0  0
 27 25  1  0  0  0  0
M  END
>  <MODEL>
6

>  <REMARK>
 VINA RESULT:      -6.1      4.830      6.832
  Name = 
  5 active torsions:
  status: ('A' for Active; 'I' for Inactive)
    1  A    between atoms: C_1  and  C_13
    2  A    between atoms: C_7  and  P_11
    3  A    between atoms: N_10  and  C_16
    4  A    between atoms: N_10  and  C_24
    5  A    between atoms: C_12  and  C_24
                            x       y       z     vdW  Elec       q    Type
                         _______ _______ _______ _____ _____    ______ ____

>  <TORSDO>
F 5

$$$$
=
 OpenBabel10222416553D

 28 32  0  0  1  0  0  0  0  0999 V2000
  182.7210  177.9730  140.9350 C   0  0  2  0  0  3  0  0  0  0  0  0
  184.0360  178.6670  140.8590 N   0  0  0  0  0  0  0  0  0  0  0  0
  183.3290  177.0420  138.8490 C   0  0  1  0  0  3  0  0  0  0  0  0
  185.8270  176.3260  135.6720 C   0  0  0  0  0  0  0  0  0  0  0  0
  183.9690  176.3770  137.6790 C   0  0  0  0  0  0  0  0  0  0  0  0
  182.7170  176.7970  139.9930 C   0  0  0  0  0  2  0  0  0  0  0  0
  185.6720  177.5500  136.3730 C   0  0  0  0  0  3  0  0  0  0  0  0
  184.6780  179.1100  142.0660 C   0  0  0  0  0  0  0  0  0  0  0  0
  184.7280  177.5140  137.3780 C   0  0  0  0  0  0  0  0  0  0  0  0
  184.7840  178.7850  139.5790 C   0  0  0  0  0  2  0  0  0  0  0  0
  185.7620  179.7510  142.0070 O   0  0  0  0  0  0  0  0  0  0  0  0
  184.1360  175.1920  136.9970 C   0  0  0  0  0  3  0  0  0  0  0  0
  186.7740  176.2480  134.6140 N   0  0  0  0  0  1  0  0  0  0  0  0
  185.0700  175.2110  135.9910 N   0  0  0  0  0  0  0  0  0  0  0  0
  183.9760  178.2390  138.3930 C   0  0  2  0  0  3  0  0  0  0  0  0
  180.4790  178.2280  140.0790 O   0  0  0  0  0  0  0  0  0  0  0  0
  181.5820  178.9390  140.5820 C   0  0  1  0  0  3  0  0  0  0  0  0
  179.7010  178.6060  141.1850 C   0  0  0  0  0  2  0  0  0  0  0  0
  180.8290  179.3800  141.8070 C   0  0  0  0  0  2  0  0  0  0  0  0
  184.0910  178.8120  143.4100 C   0  0  0  0  0  2  0  0  0  0  0  0
  185.1090  178.9320  144.4430 N   0  0  0  0  0  2  0  0  0  0  0  0
  187.3870  178.2260  144.8300 C   0  0  1  0  0  3  0  0  0  0  0  0
  186.0390  177.8310  144.2610 C   0  0  1  0  0  3  0  0  0  0  0  0
  186.4740  177.3100  145.6170 C   0  0  0  0  0  2  0  0  0  0  0  0
  188.6940  177.2600  144.0150 P   0  0  0  0  0  0  0  0  0  0  0  0
  189.4900  178.2450  142.8940 O   0  0  0  0  0  0  0  0  0  0  0  0
  189.6840  176.7900  145.0540 O   0  0  0  0  0  1  0  0  0  0  0  0
  188.0450  175.9170  143.2140 O   0  0  0  0  0  1  0  0  0  0  0  0
  1  6  1  6  0  0  0
  2  1  1  0  0  0  0
  2  8  1  0  0  0  0
  3  6  1  1  0  0  0
  4 14  2  0  0  0  0
  4  7  1  0  0  0  0
  5  3  1  0  0  0  0
  7  9  2  0  0  0  0
  8 20  1  0  0  0  0
  9  5  1  0  0  0  0
  9 15  1  0  0  0  0
 10  2  1  0  0  0  0
 11  8  2  0  0  0  0
 12  5  2  0  0  0  0
 13  4  1  0  0  0  0
 14 12  1  0  0  0  0
 15  3  1  0  0  0  0
 15 10  1  1  0  0  0
 16 17  1  0  0  0  0
 16 18  1  0  0  0  0
 17  1  1  0  0  0  0
 17 19  1  1  0  0  0
 18 19  1  0  0  0  0
 20 21  1  0  0  0  0
 22 25  1  6  0  0  0
 22 24  1  0  0  0  0
 23 21  1  1  0  0  0
 23 22  1  0  0  0  0
 23 24  1  0  0  0  0
 25 27  1  0  0  0  0
 26 25  2  0  0  0  0
 28 25  1  0  0  0  0
M  END
>  <MODEL>
7

>  <REMARK>
 VINA RESULT:      -6.1      4.218      8.447
  Name = 
  5 active torsions:
  status: ('A' for Active; 'I' for Inactive)
    1  A    between atoms: C_1  and  C_13
    2  A    between atoms: C_7  and  P_11
    3  A    between atoms: N_10  and  C_16
    4  A    between atoms: N_10  and  C_24
    5  A    between atoms: C_12  and  C_24
                            x       y       z     vdW  Elec       q    Type
                         _______ _______ _______ _____ _____    ______ ____

>  <TORSDO>
F 5

$$$$
=
 OpenBabel10222416553D

 28 32  0  0  1  0  0  0  0  0999 V2000
  184.5980  178.2030  142.1500 C   0  0  2  0  0  3  0  0  0  0  0  0
  185.3970  178.6860  140.9910 N   0  0  0  0  0  0  0  0  0  0  0  0
  182.7970  178.1520  140.6200 C   0  0  1  0  0  3  0  0  0  0  0  0
  181.0260  178.5000  136.9340 C   0  0  0  0  0  0  0  0  0  0  0  0
  181.8530  177.9560  139.4840 C   0  0  0  0  0  0  0  0  0  0  0  0
  183.3410  177.5370  141.6540 C   0  0  0  0  0  2  0  0  0  0  0  0
  182.0440  179.3300  137.4690 C   0  0  0  0  0  3  0  0  0  0  0  0
  186.8210  178.4980  140.9790 C   0  0  0  0  0  0  0  0  0  0  0  0
  182.4260  179.0040  138.7540 C   0  0  0  0  0  0  0  0  0  0  0  0
  184.7480  179.2260  139.7650 C   0  0  0  0  0  2  0  0  0  0  0  0
  187.5120  178.9570  140.0300 O   0  0  0  0  0  0  0  0  0  0  0  0
  180.8710  177.1520  138.9480 C   0  0  0  0  0  3  0  0  0  0  0  0
  180.5540  178.7440  135.6150 N   0  0  0  0  0  1  0  0  0  0  0  0
  180.4770  177.4640  137.6710 N   0  0  0  0  0  0  0  0  0  0  0  0
  183.2240  179.3340  139.9270 C   0  0  2  0  0  3  0  0  0  0  0  0
  183.0020  179.1450  143.6960 O   0  0  0  0  0  0  0  0  0  0  0  0
  184.2460  179.3690  143.0830 C   0  0  1  0  0  3  0  0  0  0  0  0
  183.6120  179.0570  144.9580 C   0  0  0  0  0  2  0  0  0  0  0  0
  184.9850  179.2750  144.3900 C   0  0  0  0  0  2  0  0  0  0  0  0
  187.5120  177.7480  142.0750 C   0  0  0  0  0  2  0  0  0  0  0  0
  188.6480  177.0110  141.5430 N   0  0  0  0  0  2  0  0  0  0  0  0
  189.4400  176.7350  143.8080 C   0  0  1  0  0  3  0  0  0  0  0  0
  189.7740  177.2600  142.4260 C   0  0  1  0  0  3  0  0  0  0  0  0
  190.3470  175.9380  142.8960 C   0  0  0  0  0  2  0  0  0  0  0  0
  190.4250  177.6280  145.0480 P   0  0  0  0  0  0  0  0  0  0  0  0
  191.0010  179.0650  144.3660 O   0  0  0  0  0  0  0  0  0  0  0  0
  189.5480  177.9590  146.2340 O   0  0  0  0  0  1  0  0  0  0  0  0
  191.7380  176.6940  145.5680 O   0  0  0  0  0  1  0  0  0  0  0  0
  1  6  1  6  0  0  0
  1 17  1  0  0  0  0
  2  1  1  0  0  0  0
  3  6  1  6  0  0  0
  4  7  2  0  0  0  0
  4 14  1  0  0  0  0
  5  3  1  0  0  0  0
  7  9  1  0  0  0  0
  8  2  1  0  0  0  0
  8 20  1  0  0  0  0
  9  5  2  0  0  0  0
  9 15  1  0  0  0  0
 10  2  1  0  0  0  0
 11  8  2  0  0  0  0
 12  5  1  0  0  0  0
 13  4  1  0  0  0  0
 14 12  2  0  0  0  0
 15 10  1  6  0  0  0
 15  3  1  0  0  0  0
 16 18  1  0  0  0  0
 17 16  1  0  0  0  0
 17 19  1  1  0  0  0
 19 18  1  0  0  0  0
 21 20  1  0  0  0  0
 22 25  1  1  0  0  0
 23 21  1  6  0  0  0
 23 24  1  0  0  0  0
 23 22  1  0  0  0  0
 24 22  1  0  0  0  0
 25 28  1  0  0  0  0
 25 27  1  0  0  0  0
 26 25  2  0  0  0  0
M  END
>  <MODEL>
8

>  <REMARK>
 VINA RESULT:      -6.0      3.641      9.274
  Name = 
  5 active torsions:
  status: ('A' for Active; 'I' for Inactive)
    1  A    between atoms: C_1  and  C_13
    2  A    between atoms: C_7  and  P_11
    3  A    between atoms: N_10  and  C_16
    4  A    between atoms: N_10  and  C_24
    5  A    between atoms: C_12  and  C_24
                            x       y       z     vdW  Elec       q    Type
                         _______ _______ _______ _____ _____    ______ ____

>  <TORSDO>
F 5

$$$$
=
 OpenBabel10222416553D

 28 32  0  0  1  0  0  0  0  0999 V2000
  190.3830  176.5730  140.1480 C   0  0  2  0  0  3  0  0  0  0  0  0
  189.3140  176.8680  139.1560 N   0  0  0  0  0  0  0  0  0  0  0  0
  188.8360  177.3790  141.7430 C   0  0  1  0  0  3  0  0  0  0  0  0
  185.2110  178.8110  143.0280 C   0  0  0  0  0  0  0  0  0  0  0  0
  187.6710  177.6880  142.6190 C   0  0  0  0  0  0  0  0  0  0  0  0
  189.7810  176.4830  141.5270 C   0  0  0  0  0  2  0  0  0  0  0  0
  185.8710  179.1350  141.8150 C   0  0  0  0  0  3  0  0  0  0  0  0
  189.2950  176.1730  137.8990 C   0  0  0  0  0  0  0  0  0  0  0  0
  187.1030  178.5330  141.6600 C   0  0  0  0  0  0  0  0  0  0  0  0
  188.1670  177.7570  139.4850 C   0  0  0  0  0  2  0  0  0  0  0  0
  188.4290  176.4600  137.0300 O   0  0  0  0  0  0  0  0  0  0  0  0
  187.0150  177.3740  143.7900 C   0  0  0  0  0  3  0  0  0  0  0  0
  183.9330  179.3740  143.2940 N   0  0  0  0  0  1  0  0  0  0  0  0
  185.7890  177.9660  143.9610 N   0  0  0  0  0  0  0  0  0  0  0  0
  188.3210  178.3970  140.8740 C   0  0  2  0  0  3  0  0  0  0  0  0
  192.3310  177.5220  141.2100 O   0  0  0  0  0  0  0  0  0  0  0  0
  191.4650  177.6600  140.1120 C   0  0  1  0  0  3  0  0  0  0  0  0
  193.4040  177.2180  140.3570 C   0  0  0  0  0  2  0  0  0  0  0  0
  192.5510  177.3290  139.1250 C   0  0  0  0  0  2  0  0  0  0  0  0
  190.2850  175.0910  137.5990 C   0  0  0  0  0  2  0  0  0  0  0  0
  190.5900  175.0670  136.1770 N   0  0  0  0  0  2  0  0  0  0  0  0
  192.9440  174.7010  135.7750 C   0  0  1  0  0  3  0  0  0  0  0  0
  191.8640  175.7410  135.9990 C   0  0  1  0  0  3  0  0  0  0  0  0
  192.3840  175.4740  134.6000 C   0  0  0  0  0  2  0  0  0  0  0  0
  194.5540  175.3860  136.2680 P   0  0  0  0  0  0  0  0  0  0  0  0
  194.8580  174.9770  137.8810 O   0  0  0  0  0  1  0  0  0  0  0  0
  195.6340  174.7920  135.3940 O   0  0  0  0  0  0  0  0  0  0  0  0
  194.5700  177.0710  136.1080 O   0  0  0  0  0  1  0  0  0  0  0  0
  1  6  1  1  0  0  0
  2 10  1  0  0  0  0
  2  1  1  0  0  0  0
  3  6  1  6  0  0  0
  3  5  1  0  0  0  0
  4 13  1  0  0  0  0
  4 14  1  0  0  0  0
  5 12  1  0  0  0  0
  7  4  2  0  0  0  0
  8  2  1  0  0  0  0
  9  7  1  0  0  0  0
  9  5  2  0  0  0  0
 11  8  2  0  0  0  0
 12 14  2  0  0  0  0
 15 10  1  6  0  0  0
 15  9  1  0  0  0  0
 15  3  1  0  0  0  0
 17 19  1  6  0  0  0
 17  1  1  0  0  0  0
 17 16  1  0  0  0  0
 18 16  1  0  0  0  0
 19 18  1  0  0  0  0
 20  8  1  0  0  0  0
 21 20  1  0  0  0  0
 22 23  1  0  0  0  0
 22 25  1  1  0  0  0
 23 21  1  6  0  0  0
 24 22  1  0  0  0  0
 24 23  1  0  0  0  0
 25 26  1  0  0  0  0
 27 25  2  0  0  0  0
 28 25  1  0  0  0  0
M  END
>  <MODEL>
9

>  <REMARK>
 VINA RESULT:      -6.0      4.608      7.945
  Name = 
  5 active torsions:
  status: ('A' for Active; 'I' for Inactive)
    1  A    between atoms: C_1  and  C_13
    2  A    between atoms: C_7  and  P_11
    3  A    between atoms: N_10  and  C_16
    4  A    between atoms: N_10  and  C_24
    5  A    between atoms: C_12  and  C_24
                            x       y       z     vdW  Elec       q    Type
                         _______ _______ _______ _____ _____    ______ ____

>  <TORSDO>
F 5

$$$$
