=
 OpenBabel10222418253D

 26 28  0  0  1  0  0  0  0  0999 V2000
  188.6460  177.9330  141.1760 N   0  0  0  0  0  2  0  0  0  0  0  0
  190.6790  177.5280  140.0970 O   0  0  0  0  0  0  0  0  0  0  0  0
  189.4850  177.9240  140.0180 C   0  0  0  0  0  0  0  0  0  0  0  0
  189.7550  177.4970  137.3100 S   0  0  0  0  0  0  0  0  0  0  0  0
  188.9590  178.4070  138.7070 C   0  0  1  0  0  3  0  0  0  0  0  0
  185.8580  177.2600  137.5600 N   0  0  0  0  0  0  0  0  0  0  0  0
  187.5290  178.0750  138.5790 C   0  0  0  0  0  0  0  0  0  0  0  0
  188.1760  176.7100  136.7350 C   0  0  2  0  0  3  0  0  0  0  0  0
  187.1720  177.2430  137.6300 N   0  0  0  0  0  0  0  0  0  0  0  0
  185.4230  178.0870  138.5090 N   0  0  0  0  0  0  0  0  0  0  0  0
  186.4530  178.6290  139.1600 N   0  0  0  0  0  0  0  0  0  0  0  0
  188.0390  174.6570  135.5530 C   0  0  0  0  0  1  0  0  0  0  0  0
  188.2540  175.2510  136.8650 N   0  0  0  0  0  0  0  0  0  0  0  0
  189.6190  174.8970  137.2240 C   0  0  0  0  0  1  0  0  0  0  0  0
  189.1430  177.6030  142.5060 C   0  0  1  0  0  3  0  0  0  0  0  0
  186.0950  178.0030  145.5170 C   0  0  0  0  0  3  0  0  0  0  0  0
  188.4200  177.7280  144.8970 C   0  0  0  0  0  3  0  0  0  0  0  0
  187.4370  177.8580  145.8830 C   0  0  0  0  0  0  0  0  0  0  0  0
  188.0690  177.7530  143.5420 C   0  0  0  0  0  0  0  0  0  0  0  0
  186.7210  177.8990  143.1800 C   0  0  0  0  0  3  0  0  0  0  0  0
  185.7360  178.0220  144.1660 C   0  0  0  0  0  3  0  0  0  0  0  0
  187.8160  177.8300  147.3200 C   0  0  0  0  0  1  0  0  0  0  0  0
  188.9040  175.2600  143.0050 O   0  0  0  0  0  1  0  0  0  0  0  0
  189.8060  176.2200  142.5430 C   0  0  2  0  0  3  0  0  0  0  0  0
  191.1070  176.1660  143.3490 C   0  0  0  0  0  2  0  0  0  0  0  0
  191.7510  177.4060  143.3450 O   0  0  0  0  0  1  0  0  0  0  0  0
  3  2  2  0  0  0  0
  3  1  1  0  0  0  0
  4  5  1  0  0  0  0
  5  3  1  1  0  0  0
  6  9  1  0  0  0  0
  6 10  2  0  0  0  0
  7  5  1  0  0  0  0
  7 11  2  0  0  0  0
  8 13  1  1  0  0  0
  8  4  1  0  0  0  0
  8  9  1  0  0  0  0
  9  7  1  0  0  0  0
 10 11  1  0  0  0  0
 12 13  1  0  0  0  0
 13 14  1  0  0  0  0
 15  1  1  6  0  0  0
 15 24  1  0  0  0  0
 15 19  1  0  0  0  0
 16 18  1  0  0  0  0
 17 18  2  0  0  0  0
 18 22  1  0  0  0  0
 19 17  1  0  0  0  0
 20 19  2  0  0  0  0
 20 21  1  0  0  0  0
 21 16  2  0  0  0  0
 24 23  1  1  0  0  0
 24 25  1  0  0  0  0
 26 25  1  0  0  0  0
M  END
>  <MODEL>
1

>  <REMARK>
 VINA RESULT:      -7.5      0.000      0.000
  Name = 
  6 active torsions:
  status: ('A' for Active; 'I' for Inactive)
    1  A    between atoms: C_5  and  C_26
    2  A    between atoms: C_6  and  C_16
    3  A    between atoms: C_6  and  C_18
    4  A    between atoms: N_8  and  C_10
    5  A    between atoms: N_12  and  C_16
    6  A    between atoms: C_15  and  C_16
                            x       y       z     vdW  Elec       q    Type
                         _______ _______ _______ _____ _____    ______ ____

>  <TORSDO>
F 6

$$$$
=
 OpenBabel10222418253D

 26 28  0  0  1  0  0  0  0  0999 V2000
  188.5450  177.9250  141.2100 N   0  0  0  0  0  2  0  0  0  0  0  0
  190.5980  177.5030  140.1760 O   0  0  0  0  0  0  0  0  0  0  0  0
  189.4110  177.9140  140.0720 C   0  0  0  0  0  0  0  0  0  0  0  0
  189.7520  177.5140  137.3680 S   0  0  0  0  0  0  0  0  0  0  0  0
  188.9210  178.4120  138.7520 C   0  0  1  0  0  3  0  0  0  0  0  0
  185.8490  177.2860  137.5120 N   0  0  0  0  0  0  0  0  0  0  0  0
  187.4950  178.0850  138.5840 C   0  0  0  0  0  0  0  0  0  0  0  0
  188.1860  176.7370  136.7430 C   0  0  2  0  0  3  0  0  0  0  0  0
  187.1600  177.2650  137.6170 N   0  0  0  0  0  0  0  0  0  0  0  0
  185.3910  178.1050  138.4570 N   0  0  0  0  0  0  0  0  0  0  0  0
  186.4050  178.6370  139.1420 N   0  0  0  0  0  0  0  0  0  0  0  0
  188.0010  174.6950  135.5500 C   0  0  0  0  0  1  0  0  0  0  0  0
  188.2560  175.2770  136.8600 N   0  0  0  0  0  0  0  0  0  0  0  0
  189.6290  174.9100  137.1780 C   0  0  0  0  0  1  0  0  0  0  0  0
  189.0070  177.5800  142.5490 C   0  0  1  0  0  3  0  0  0  0  0  0
  185.8740  178.1880  145.4340 C   0  0  0  0  0  3  0  0  0  0  0  0
  186.6160  178.0190  143.1350 C   0  0  0  0  0  3  0  0  0  0  0  0
  185.5910  178.2170  144.0650 C   0  0  0  0  0  0  0  0  0  0  0  0
  187.9250  177.7810  143.5680 C   0  0  0  0  0  0  0  0  0  0  0  0
  188.2050  177.7520  144.9430 C   0  0  0  0  0  3  0  0  0  0  0  0
  187.1810  177.9580  145.8740 C   0  0  0  0  0  3  0  0  0  0  0  0
  184.2020  178.4710  143.5990 C   0  0  0  0  0  1  0  0  0  0  0  0
  188.6660  175.2540  143.0670 O   0  0  0  0  0  1  0  0  0  0  0  0
  189.6110  176.1700  142.6010 C   0  0  2  0  0  3  0  0  0  0  0  0
  190.9040  176.0680  143.4160 C   0  0  0  0  0  2  0  0  0  0  0  0
  191.5590  177.3010  143.4740 O   0  0  0  0  0  1  0  0  0  0  0  0
  3  2  2  0  0  0  0
  3  1  1  0  0  0  0
  4  5  1  0  0  0  0
  5  3  1  1  0  0  0
  6  9  1  0  0  0  0
  6 10  2  0  0  0  0
  7  5  1  0  0  0  0
  7 11  2  0  0  0  0
  8 13  1  1  0  0  0
  8  4  1  0  0  0  0
  8  9  1  0  0  0  0
  9  7  1  0  0  0  0
 10 11  1  0  0  0  0
 12 13  1  0  0  0  0
 13 14  1  0  0  0  0
 15  1  1  6  0  0  0
 15 24  1  0  0  0  0
 15 19  1  0  0  0  0
 16 21  1  0  0  0  0
 17 19  2  0  0  0  0
 17 18  1  0  0  0  0
 18 16  2  0  0  0  0
 19 20  1  0  0  0  0
 20 21  2  0  0  0  0
 22 18  1  0  0  0  0
 24 23  1  1  0  0  0
 24 25  1  0  0  0  0
 25 26  1  0  0  0  0
M  END
>  <MODEL>
2

>  <REMARK>
 VINA RESULT:      -7.5      0.368      1.406
  Name = 
  6 active torsions:
  status: ('A' for Active; 'I' for Inactive)
    1  A    between atoms: C_5  and  C_26
    2  A    between atoms: C_6  and  C_16
    3  A    between atoms: C_6  and  C_18
    4  A    between atoms: N_8  and  C_10
    5  A    between atoms: N_12  and  C_16
    6  A    between atoms: C_15  and  C_16
                            x       y       z     vdW  Elec       q    Type
                         _______ _______ _______ _____ _____    ______ ____

>  <TORSDO>
F 6

$$$$
=
 OpenBabel10222418253D

 26 28  0  0  1  0  0  0  0  0999 V2000
  188.4600  177.5160  139.0230 N   0  0  0  0  0  2  0  0  0  0  0  0
  189.0430  179.5320  137.9930 O   0  0  0  0  0  0  0  0  0  0  0  0
  188.2810  178.5290  138.0290 C   0  0  0  0  0  0  0  0  0  0  0  0
  187.4440  176.9800  135.9100 S   0  0  0  0  0  0  0  0  0  0  0  0
  187.1690  178.4180  137.0380 C   0  0  1  0  0  3  0  0  0  0  0  0
  184.1350  176.9650  137.9980 N   0  0  0  0  0  0  0  0  0  0  0  0
  185.9060  178.0970  137.7240 C   0  0  0  0  0  0  0  0  0  0  0  0
  185.9380  176.0610  136.4860 C   0  0  2  0  0  3  0  0  0  0  0  0
  185.3330  176.9490  137.4550 N   0  0  0  0  0  0  0  0  0  0  0  0
  184.0060  178.1280  138.6330 N   0  0  0  0  0  0  0  0  0  0  0  0
  185.1000  178.8720  138.4680 N   0  0  0  0  0  0  0  0  0  0  0  0
  185.5770  173.7150  136.4900 C   0  0  0  0  0  1  0  0  0  0  0  0
  186.3220  174.7950  137.1210 N   0  0  0  0  0  0  0  0  0  0  0  0
  187.7180  174.5310  136.8040 C   0  0  0  0  0  1  0  0  0  0  0  0
  189.4390  177.6380  140.0960 C   0  0  1  0  0  3  0  0  0  0  0  0
  187.6210  176.9410  143.9340 C   0  0  0  0  0  3  0  0  0  0  0  0
  187.5840  177.9680  141.7410 C   0  0  0  0  0  3  0  0  0  0  0  0
  186.9850  177.7470  142.9850 C   0  0  0  0  0  0  0  0  0  0  0  0
  188.8150  177.3770  141.4350 C   0  0  0  0  0  0  0  0  0  0  0  0
  189.4500  176.5680  142.3910 C   0  0  0  0  0  3  0  0  0  0  0  0
  188.8540  176.3530  143.6380 C   0  0  0  0  0  3  0  0  0  0  0  0
  185.6770  178.3800  143.3050 C   0  0  0  0  0  1  0  0  0  0  0  0
  191.8360  177.4520  140.2160 O   0  0  0  0  0  1  0  0  0  0  0  0
  190.6770  176.7670  139.8450 C   0  0  2  0  0  3  0  0  0  0  0  0
  190.7990  176.2440  138.4100 C   0  0  0  0  0  2  0  0  0  0  0  0
  191.0000  174.8620  138.3960 O   0  0  0  0  0  1  0  0  0  0  0  0
  2  3  2  0  0  0  0
  3  1  1  0  0  0  0
  4  8  1  0  0  0  0
  4  5  1  0  0  0  0
  5  7  1  0  0  0  0
  5  3  1  1  0  0  0
  6 10  2  0  0  0  0
  7 11  2  0  0  0  0
  8 13  1  1  0  0  0
  8  9  1  0  0  0  0
  9  7  1  0  0  0  0
  9  6  1  0  0  0  0
 11 10  1  0  0  0  0
 12 13  1  0  0  0  0
 14 13  1  0  0  0  0
 15  1  1  6  0  0  0
 15 19  1  0  0  0  0
 17 18  1  0  0  0  0
 18 22  1  0  0  0  0
 18 16  2  0  0  0  0
 19 17  2  0  0  0  0
 19 20  1  0  0  0  0
 20 21  2  0  0  0  0
 21 16  1  0  0  0  0
 24 15  1  0  0  0  0
 24 23  1  6  0  0  0
 25 24  1  0  0  0  0
 26 25  1  0  0  0  0
M  END
>  <MODEL>
3

>  <REMARK>
 VINA RESULT:      -7.4      1.953      3.016
  Name = 
  6 active torsions:
  status: ('A' for Active; 'I' for Inactive)
    1  A    between atoms: C_5  and  C_26
    2  A    between atoms: C_6  and  C_16
    3  A    between atoms: C_6  and  C_18
    4  A    between atoms: N_8  and  C_10
    5  A    between atoms: N_12  and  C_16
    6  A    between atoms: C_15  and  C_16
                            x       y       z     vdW  Elec       q    Type
                         _______ _______ _______ _____ _____    ______ ____

>  <TORSDO>
F 6

$$$$
=
 OpenBabel10222418253D

 26 28  0  0  1  0  0  0  0  0999 V2000
  184.5530  178.4780  140.2290 N   0  0  0  0  0  2  0  0  0  0  0  0
  184.2850  180.4950  139.0810 O   0  0  0  0  0  0  0  0  0  0  0  0
  183.7800  179.4050  139.4610 C   0  0  0  0  0  0  0  0  0  0  0  0
  181.5400  178.1920  140.5090 S   0  0  0  0  0  0  0  0  0  0  0  0
  182.3590  179.0980  139.1220 C   0  0  1  0  0  3  0  0  0  0  0  0
  179.9270  181.5930  139.4430 N   0  0  0  0  0  0  0  0  0  0  0  0
  181.5840  180.3440  139.0040 C   0  0  0  0  0  0  0  0  0  0  0  0
  180.3180  179.5430  140.8580 C   0  0  2  0  0  3  0  0  0  0  0  0
  180.6100  180.5480  139.8590 N   0  0  0  0  0  0  0  0  0  0  0  0
  180.5250  182.0420  138.3420 N   0  0  0  0  0  0  0  0  0  0  0  0
  181.5650  181.2670  138.0290 N   0  0  0  0  0  0  0  0  0  0  0  0
  179.2470  180.0860  142.9050 C   0  0  0  0  0  1  0  0  0  0  0  0
  180.5240  180.0860  142.2060 N   0  0  0  0  0  0  0  0  0  0  0  0
  181.3640  179.1560  142.9470 C   0  0  0  0  0  1  0  0  0  0  0  0
  185.8960  178.7820  140.7030 C   0  0  1  0  0  3  0  0  0  0  0  0
  186.3320  177.7870  144.8670 C   0  0  0  0  0  3  0  0  0  0  0  0
  185.0680  178.7940  143.0630 C   0  0  0  0  0  3  0  0  0  0  0  0
  185.2000  178.4740  144.4180 C   0  0  0  0  0  0  0  0  0  0  0  0
  186.0600  178.4190  142.1490 C   0  0  0  0  0  0  0  0  0  0  0  0
  187.1940  177.7280  142.6040 C   0  0  0  0  0  3  0  0  0  0  0  0
  187.3300  177.4140  143.9610 C   0  0  0  0  0  3  0  0  0  0  0  0
  184.1450  178.8770  145.3840 C   0  0  0  0  0  1  0  0  0  0  0  0
  188.1350  178.9300  139.8290 O   0  0  0  0  0  1  0  0  0  0  0  0
  186.9760  178.1520  139.8130 C   0  0  2  0  0  3  0  0  0  0  0  0
  186.5280  177.8850  138.3720 C   0  0  0  0  0  2  0  0  0  0  0  0
  186.9240  178.9220  137.5240 O   0  0  0  0  0  1  0  0  0  0  0  0
  2  3  2  0  0  0  0
  3  1  1  0  0  0  0
  4  8  1  0  0  0  0
  5  3  1  1  0  0  0
  5  4  1  0  0  0  0
  6  9  1  0  0  0  0
  7  5  1  0  0  0  0
  7  9  1  0  0  0  0
  8 13  1  1  0  0  0
  9  8  1  0  0  0  0
 10  6  2  0  0  0  0
 11 10  1  0  0  0  0
 11  7  2  0  0  0  0
 13 12  1  0  0  0  0
 13 14  1  0  0  0  0
 15  1  1  6  0  0  0
 15 19  1  0  0  0  0
 17 18  2  0  0  0  0
 18 16  1  0  0  0  0
 18 22  1  0  0  0  0
 19 20  2  0  0  0  0
 19 17  1  0  0  0  0
 20 21  1  0  0  0  0
 21 16  2  0  0  0  0
 24 23  1  6  0  0  0
 24 15  1  0  0  0  0
 25 24  1  0  0  0  0
 26 25  1  0  0  0  0
M  END
>  <MODEL>
4

>  <REMARK>
 VINA RESULT:      -7.4      4.659      6.657
  Name = 
  6 active torsions:
  status: ('A' for Active; 'I' for Inactive)
    1  A    between atoms: C_5  and  C_26
    2  A    between atoms: C_6  and  C_16
    3  A    between atoms: C_6  and  C_18
    4  A    between atoms: N_8  and  C_10
    5  A    between atoms: N_12  and  C_16
    6  A    between atoms: C_15  and  C_16
                            x       y       z     vdW  Elec       q    Type
                         _______ _______ _______ _____ _____    ______ ____

>  <TORSDO>
F 6

$$$$
=
 OpenBabel10222418253D

 26 28  0  0  1  0  0  0  0  0999 V2000
  187.6920  177.9980  143.0490 N   0  0  0  0  0  2  0  0  0  0  0  0
  188.6540  176.1040  142.0760 O   0  0  0  0  0  0  0  0  0  0  0  0
  188.5060  177.3550  142.0640 C   0  0  0  0  0  0  0  0  0  0  0  0
  190.8540  177.4310  140.6260 S   0  0  0  0  0  0  0  0  0  0  0  0
  189.2070  178.1670  141.0260 C   0  0  1  0  0  3  0  0  0  0  0  0
  188.3310  177.7950  137.6580 N   0  0  0  0  0  0  0  0  0  0  0  0
  188.4720  178.1060  139.7510 C   0  0  0  0  0  0  0  0  0  0  0  0
  190.4130  177.0430  138.8660 C   0  0  2  0  0  3  0  0  0  0  0  0
  189.0650  177.5480  138.7230 N   0  0  0  0  0  0  0  0  0  0  0  0
  187.2640  178.4790  138.0650 N   0  0  0  0  0  0  0  0  0  0  0  0
  187.3290  178.7050  139.3780 N   0  0  0  0  0  0  0  0  0  0  0  0
  189.5420  175.2810  137.5370 C   0  0  0  0  0  1  0  0  0  0  0  0
  190.4430  175.5950  138.6370 N   0  0  0  0  0  0  0  0  0  0  0  0
  191.7700  175.2370  138.1560 C   0  0  0  0  0  1  0  0  0  0  0  0
  187.0950  177.2750  144.1650 C   0  0  1  0  0  3  0  0  0  0  0  0
  189.6900  177.3100  147.5970 C   0  0  0  0  0  3  0  0  0  0  0  0
  189.3590  177.0740  145.2100 C   0  0  0  0  0  3  0  0  0  0  0  0
  190.2100  177.0840  146.3190 C   0  0  0  0  0  0  0  0  0  0  0  0
  187.9870  177.3000  145.3710 C   0  0  0  0  0  0  0  0  0  0  0  0
  187.4700  177.5280  146.6560 C   0  0  0  0  0  3  0  0  0  0  0  0
  188.3200  177.5300  147.7670 C   0  0  0  0  0  3  0  0  0  0  0  0
  191.6660  176.8410  146.1430 C   0  0  0  0  0  1  0  0  0  0  0  0
  184.9240  177.8510  143.2990 O   0  0  0  0  0  1  0  0  0  0  0  0
  185.6750  177.7670  144.4730 C   0  0  2  0  0  3  0  0  0  0  0  0
  185.6200  179.0910  145.2420 C   0  0  0  0  0  2  0  0  0  0  0  0
  184.5260  179.1220  146.1090 O   0  0  0  0  0  1  0  0  0  0  0  0
  3  2  2  0  0  0  0
  3  1  1  0  0  0  0
  4  5  1  0  0  0  0
  5  3  1  1  0  0  0
  6 10  2  0  0  0  0
  6  9  1  0  0  0  0
  7  5  1  0  0  0  0
  8 13  1  1  0  0  0
  8  4  1  0  0  0  0
  9  8  1  0  0  0  0
  9  7  1  0  0  0  0
 10 11  1  0  0  0  0
 11  7  2  0  0  0  0
 12 13  1  0  0  0  0
 14 13  1  0  0  0  0
 15  1  1  6  0  0  0
 15 24  1  0  0  0  0
 15 19  1  0  0  0  0
 16 21  1  0  0  0  0
 17 19  2  0  0  0  0
 17 18  1  0  0  0  0
 18 16  2  0  0  0  0
 19 20  1  0  0  0  0
 20 21  2  0  0  0  0
 22 18  1  0  0  0  0
 24 23  1  6  0  0  0
 24 25  1  0  0  0  0
 25 26  1  0  0  0  0
M  END
>  <MODEL>
5

>  <REMARK>
 VINA RESULT:      -7.1      2.303      3.533
  Name = 
  6 active torsions:
  status: ('A' for Active; 'I' for Inactive)
    1  A    between atoms: C_5  and  C_26
    2  A    between atoms: C_6  and  C_16
    3  A    between atoms: C_6  and  C_18
    4  A    between atoms: N_8  and  C_10
    5  A    between atoms: N_12  and  C_16
    6  A    between atoms: C_15  and  C_16
                            x       y       z     vdW  Elec       q    Type
                         _______ _______ _______ _____ _____    ______ ____

>  <TORSDO>
F 6

$$$$
=
 OpenBabel10222418253D

 26 28  0  0  1  0  0  0  0  0999 V2000
  190.9040  177.3890  141.7130 N   0  0  0  0  0  2  0  0  0  0  0  0
  190.6440  175.4960  143.0580 O   0  0  0  0  0  0  0  0  0  0  0  0
  190.9500  176.7160  142.9740 C   0  0  0  0  0  0  0  0  0  0  0  0
  190.0020  178.6280  144.7150 S   0  0  0  0  0  0  0  0  0  0  0  0
  191.3410  177.4610  144.2070 C   0  0  1  0  0  3  0  0  0  0  0  0
  191.0430  175.9100  147.3300 N   0  0  0  0  0  0  0  0  0  0  0  0
  191.4560  176.5330  145.3460 C   0  0  0  0  0  0  0  0  0  0  0  0
  189.6620  177.7620  146.3210 C   0  0  2  0  0  3  0  0  0  0  0  0
  190.6280  176.6860  146.3510 N   0  0  0  0  0  0  0  0  0  0  0  0
  192.1140  175.2560  146.8870 N   0  0  0  0  0  0  0  0  0  0  0  0
  192.4100  175.6370  145.6430 N   0  0  0  0  0  0  0  0  0  0  0  0
  187.5550  177.8740  147.4070 C   0  0  0  0  0  1  0  0  0  0  0  0
  188.2970  177.2250  146.3350 N   0  0  0  0  0  0  0  0  0  0  0  0
  187.6320  177.6390  145.1080 C   0  0  0  0  0  1  0  0  0  0  0  0
  190.4010  176.7510  140.5030 C   0  0  1  0  0  3  0  0  0  0  0  0
  186.6110  178.4280  139.3460 C   0  0  0  0  0  3  0  0  0  0  0  0
  188.2410  177.8850  141.0530 C   0  0  0  0  0  3  0  0  0  0  0  0
  187.0080  178.4330  140.6870 C   0  0  0  0  0  0  0  0  0  0  0  0
  189.0880  177.3400  140.0810 C   0  0  0  0  0  0  0  0  0  0  0  0
  188.6850  177.3370  138.7360 C   0  0  0  0  0  3  0  0  0  0  0  0
  187.4480  177.8780  138.3710 C   0  0  0  0  0  3  0  0  0  0  0  0
  186.1120  179.0100  141.7240 C   0  0  0  0  0  1  0  0  0  0  0  0
  191.4870  175.5180  138.7420 O   0  0  0  0  0  1  0  0  0  0  0  0
  191.4410  176.7630  139.3740 C   0  0  2  0  0  3  0  0  0  0  0  0
  192.8430  177.1950  139.8130 C   0  0  0  0  0  2  0  0  0  0  0  0
  193.8240  176.5850  139.0280 O   0  0  0  0  0  1  0  0  0  0  0  0
  1  3  1  0  0  0  0
  3  2  2  0  0  0  0
  4  8  1  0  0  0  0
  5  3  1  6  0  0  0
  5  4  1  0  0  0  0
  5  7  1  0  0  0  0
  7 11  2  0  0  0  0
  7  9  1  0  0  0  0
  8 13  1  6  0  0  0
  8  9  1  0  0  0  0
  9  6  1  0  0  0  0
 10  6  2  0  0  0  0
 11 10  1  0  0  0  0
 13 12  1  0  0  0  0
 14 13  1  0  0  0  0
 15  1  1  1  0  0  0
 16 18  1  0  0  0  0
 18 17  2  0  0  0  0
 18 22  1  0  0  0  0
 19 15  1  0  0  0  0
 19 17  1  0  0  0  0
 20 19  2  0  0  0  0
 21 20  1  0  0  0  0
 21 16  2  0  0  0  0
 24 23  1  1  0  0  0
 24 25  1  0  0  0  0
 24 15  1  0  0  0  0
 26 25  1  0  0  0  0
M  END
>  <MODEL>
6

>  <REMARK>
 VINA RESULT:      -7.1      3.551      7.064
  Name = 
  6 active torsions:
  status: ('A' for Active; 'I' for Inactive)
    1  A    between atoms: C_5  and  C_26
    2  A    between atoms: C_6  and  C_16
    3  A    between atoms: C_6  and  C_18
    4  A    between atoms: N_8  and  C_10
    5  A    between atoms: N_12  and  C_16
    6  A    between atoms: C_15  and  C_16
                            x       y       z     vdW  Elec       q    Type
                         _______ _______ _______ _____ _____    ______ ____

>  <TORSDO>
F 6

$$$$
=
 OpenBabel10222418253D

 26 28  0  0  1  0  0  0  0  0999 V2000
  184.4840  178.6230  140.0380 N   0  0  0  0  0  2  0  0  0  0  0  0
  184.3000  180.6710  138.9270 O   0  0  0  0  0  0  0  0  0  0  0  0
  183.7650  179.5780  139.2520 C   0  0  0  0  0  0  0  0  0  0  0  0
  182.3330  178.1020  137.4190 S   0  0  0  0  0  0  0  0  0  0  0  0
  182.3610  179.2950  138.8290 C   0  0  1  0  0  3  0  0  0  0  0  0
  180.4270  177.0260  140.6620 N   0  0  0  0  0  0  0  0  0  0  0  0
  181.6380  178.5930  139.9040 C   0  0  0  0  0  0  0  0  0  0  0  0
  181.4550  176.7750  138.3730 C   0  0  2  0  0  3  0  0  0  0  0  0
  181.2200  177.3720  139.6700 N   0  0  0  0  0  0  0  0  0  0  0  0
  180.4030  178.0430  141.5200 N   0  0  0  0  0  0  0  0  0  0  0  0
  181.1450  179.0530  141.0640 N   0  0  0  0  0  0  0  0  0  0  0  0
  181.6290  174.4610  137.8790 C   0  0  0  0  0  1  0  0  0  0  0  0
  182.3070  175.5880  138.5030 N   0  0  0  0  0  0  0  0  0  0  0  0
  183.5070  175.7990  137.7060 C   0  0  0  0  0  1  0  0  0  0  0  0
  185.8030  178.9010  140.5920 C   0  0  1  0  0  3  0  0  0  0  0  0
  185.9580  177.9270  144.7810 C   0  0  0  0  0  3  0  0  0  0  0  0
  184.8160  178.9190  142.8900 C   0  0  0  0  0  3  0  0  0  0  0  0
  184.8570  178.6070  144.2520 C   0  0  0  0  0  0  0  0  0  0  0  0
  185.8690  178.5450  142.0480 C   0  0  0  0  0  0  0  0  0  0  0  0
  186.9730  177.8620  142.5830 C   0  0  0  0  0  3  0  0  0  0  0  0
  187.0180  177.5560  143.9470 C   0  0  0  0  0  3  0  0  0  0  0  0
  183.7360  179.0080  145.1420 C   0  0  0  0  0  1  0  0  0  0  0  0
  188.0880  179.0010  139.8400 O   0  0  0  0  0  1  0  0  0  0  0  0
  186.9200  178.2390  139.7740 C   0  0  2  0  0  3  0  0  0  0  0  0
  186.5480  177.9530  138.3150 C   0  0  0  0  0  2  0  0  0  0  0  0
  187.0210  178.9600  137.4710 O   0  0  0  0  0  1  0  0  0  0  0  0
  2  3  2  0  0  0  0
  3  1  1  0  0  0  0
  4  8  1  0  0  0  0
  4  5  1  0  0  0  0
  5  3  1  1  0  0  0
  5  7  1  0  0  0  0
  6 10  2  0  0  0  0
  7 11  2  0  0  0  0
  8 13  1  1  0  0  0
  8  9  1  0  0  0  0
  9  7  1  0  0  0  0
  9  6  1  0  0  0  0
 11 10  1  0  0  0  0
 12 13  1  0  0  0  0
 14 13  1  0  0  0  0
 15  1  1  6  0  0  0
 15 19  1  0  0  0  0
 17 18  2  0  0  0  0
 18 16  1  0  0  0  0
 18 22  1  0  0  0  0
 19 20  2  0  0  0  0
 19 17  1  0  0  0  0
 20 21  1  0  0  0  0
 21 16  2  0  0  0  0
 24 23  1  6  0  0  0
 24 15  1  0  0  0  0
 25 24  1  0  0  0  0
 26 25  1  0  0  0  0
M  END
>  <MODEL>
7

>  <REMARK>
 VINA RESULT:      -7.0      4.302      5.516
  Name = 
  6 active torsions:
  status: ('A' for Active; 'I' for Inactive)
    1  A    between atoms: C_5  and  C_26
    2  A    between atoms: C_6  and  C_16
    3  A    between atoms: C_6  and  C_18
    4  A    between atoms: N_8  and  C_10
    5  A    between atoms: N_12  and  C_16
    6  A    between atoms: C_15  and  C_16
                            x       y       z     vdW  Elec       q    Type
                         _______ _______ _______ _____ _____    ______ ____

>  <TORSDO>
F 6

$$$$
=
 OpenBabel10222418253D

 26 28  0  0  1  0  0  0  0  0999 V2000
  189.2220  176.9600  140.0440 N   0  0  0  0  0  2  0  0  0  0  0  0
  188.7110  178.7660  141.4360 O   0  0  0  0  0  0  0  0  0  0  0  0
  188.7500  177.5170  141.2740 C   0  0  0  0  0  0  0  0  0  0  0  0
  189.7910  175.9600  143.2940 S   0  0  0  0  0  0  0  0  0  0  0  0
  188.3220  176.6200  142.3880 C   0  0  1  0  0  3  0  0  0  0  0  0
  187.2090  178.0120  145.3990 N   0  0  0  0  0  0  0  0  0  0  0  0
  187.5900  177.3900  143.4090 C   0  0  0  0  0  0  0  0  0  0  0  0
  189.3630  176.8040  144.8910 C   0  0  2  0  0  3  0  0  0  0  0  0
  188.1150  177.4780  144.6070 N   0  0  0  0  0  0  0  0  0  0  0  0
  186.1410  178.2800  144.6520 N   0  0  0  0  0  0  0  0  0  0  0  0
  186.3430  177.8860  143.3940 N   0  0  0  0  0  0  0  0  0  0  0  0
  191.3480  177.1310  146.1480 C   0  0  0  0  0  1  0  0  0  0  0  0
  190.4000  177.7760  145.2500 N   0  0  0  0  0  0  0  0  0  0  0  0
  191.1650  178.0910  144.0530 C   0  0  0  0  0  1  0  0  0  0  0  0
  189.7780  177.7800  138.9760 C   0  0  1  0  0  3  0  0  0  0  0  0
  193.2110  175.8950  137.1930 C   0  0  0  0  0  3  0  0  0  0  0  0
  190.9070  176.6280  137.0640 C   0  0  0  0  0  3  0  0  0  0  0  0
  192.0170  176.0140  136.4760 C   0  0  0  0  0  0  0  0  0  0  0  0
  190.9870  177.1350  138.3660 C   0  0  0  0  0  0  0  0  0  0  0  0
  192.1890  177.0130  139.0820 C   0  0  0  0  0  3  0  0  0  0  0  0
  193.2970  176.3930  138.4970 C   0  0  0  0  0  3  0  0  0  0  0  0
  191.9250  175.4770  135.0930 C   0  0  0  0  0  1  0  0  0  0  0  0
  188.6790  179.5390  137.7530 O   0  0  0  0  0  1  0  0  0  0  0  0
  188.7200  178.1540  137.9290 C   0  0  2  0  0  3  0  0  0  0  0  0
  187.3200  177.6090  138.2260 C   0  0  0  0  0  2  0  0  0  0  0  0
  186.4650  178.6280  138.6530 O   0  0  0  0  0  1  0  0  0  0  0  0
  1  3  1  0  0  0  0
  3  2  2  0  0  0  0
  4  8  1  0  0  0  0
  5  3  1  6  0  0  0
  5  4  1  0  0  0  0
  5  7  1  0  0  0  0
  7  9  1  0  0  0  0
  8 13  1  6  0  0  0
  9  8  1  0  0  0  0
  9  6  1  0  0  0  0
 10  6  2  0  0  0  0
 11  7  2  0  0  0  0
 11 10  1  0  0  0  0
 13 12  1  0  0  0  0
 14 13  1  0  0  0  0
 15  1  1  1  0  0  0
 16 21  1  0  0  0  0
 17 19  2  0  0  0  0
 18 17  1  0  0  0  0
 18 16  2  0  0  0  0
 19 15  1  0  0  0  0
 19 20  1  0  0  0  0
 21 20  2  0  0  0  0
 22 18  1  0  0  0  0
 24 23  1  1  0  0  0
 24 25  1  0  0  0  0
 24 15  1  0  0  0  0
 25 26  1  0  0  0  0
M  END
>  <MODEL>
8

>  <REMARK>
 VINA RESULT:      -6.9      3.114      7.420
  Name = 
  6 active torsions:
  status: ('A' for Active; 'I' for Inactive)
    1  A    between atoms: C_5  and  C_26
    2  A    between atoms: C_6  and  C_16
    3  A    between atoms: C_6  and  C_18
    4  A    between atoms: N_8  and  C_10
    5  A    between atoms: N_12  and  C_16
    6  A    between atoms: C_15  and  C_16
                            x       y       z     vdW  Elec       q    Type
                         _______ _______ _______ _____ _____    ______ ____

>  <TORSDO>
F 6

$$$$
=
 OpenBabel10222418253D

 26 28  0  0  1  0  0  0  0  0999 V2000
  186.0060  178.0270  143.3550 N   0  0  0  0  0  2  0  0  0  0  0  0
  188.0460  178.5730  142.3530 O   0  0  0  0  0  0  0  0  0  0  0  0
  187.3930  177.7910  143.0950 C   0  0  0  0  0  0  0  0  0  0  0  0
  189.4940  176.0720  142.6250 S   0  0  0  0  0  0  0  0  0  0  0  0
  188.0740  176.6000  143.6840 C   0  0  1  0  0  3  0  0  0  0  0  0
  190.3280  177.0290  146.3260 N   0  0  0  0  0  0  0  0  0  0  0  0
  188.7010  176.9570  144.9680 C   0  0  0  0  0  0  0  0  0  0  0  0
  190.7760  176.4330  143.9180 C   0  0  2  0  0  3  0  0  0  0  0  0
  190.0070  176.8830  145.0580 N   0  0  0  0  0  0  0  0  0  0  0  0
  189.1970  177.2310  146.9980 N   0  0  0  0  0  0  0  0  0  0  0  0
  188.1500  177.1770  146.1730 N   0  0  0  0  0  0  0  0  0  0  0  0
  191.6810  177.5040  142.0040 C   0  0  0  0  0  1  0  0  0  0  0  0
  191.6800  177.4930  143.4600 N   0  0  0  0  0  0  0  0  0  0  0  0
  191.1130  178.7760  143.8490 C   0  0  0  0  0  1  0  0  0  0  0  0
  185.2580  179.0930  142.7010 C   0  0  1  0  0  3  0  0  0  0  0  0
  183.7720  177.7950  138.8760 C   0  0  0  0  0  3  0  0  0  0  0  0
  183.5870  177.8790  141.2900 C   0  0  0  0  0  3  0  0  0  0  0  0
  183.0960  177.4530  140.0510 C   0  0  0  0  0  0  0  0  0  0  0  0
  184.7480  178.6570  141.3590 C   0  0  0  0  0  0  0  0  0  0  0  0
  185.4230  178.9990  140.1760 C   0  0  0  0  0  3  0  0  0  0  0  0
  184.9360  178.5670  138.9380 C   0  0  0  0  0  3  0  0  0  0  0  0
  181.8630  176.6240  139.9840 C   0  0  0  0  0  1  0  0  0  0  0  0
  184.5910  180.7840  144.2800 O   0  0  0  0  0  1  0  0  0  0  0  0
  184.1450  179.6480  143.6000 C   0  0  2  0  0  3  0  0  0  0  0  0
  183.5630  178.6280  144.5840 C   0  0  0  0  0  2  0  0  0  0  0  0
  183.8190  179.0020  145.9050 O   0  0  0  0  0  1  0  0  0  0  0  0
  2  3  2  0  0  0  0
  3  1  1  0  0  0  0
  4  5  1  0  0  0  0
  4  8  1  0  0  0  0
  5  3  1  6  0  0  0
  5  7  1  0  0  0  0
  6 10  2  0  0  0  0
  7  9  1  0  0  0  0
  7 11  2  0  0  0  0
  8 13  1  6  0  0  0
  8  9  1  0  0  0  0
  9  6  1  0  0  0  0
 11 10  1  0  0  0  0
 12 13  1  0  0  0  0
 13 14  1  0  0  0  0
 15  1  1  1  0  0  0
 15 24  1  0  0  0  0
 16 21  2  0  0  0  0
 16 18  1  0  0  0  0
 17 19  1  0  0  0  0
 18 17  2  0  0  0  0
 19 15  1  0  0  0  0
 20 19  2  0  0  0  0
 21 20  1  0  0  0  0
 22 18  1  0  0  0  0
 24 23  1  1  0  0  0
 24 25  1  0  0  0  0
 25 26  1  0  0  0  0
M  END
>  <MODEL>
9

>  <REMARK>
 VINA RESULT:      -6.9      3.978      6.854
  Name = 
  6 active torsions:
  status: ('A' for Active; 'I' for Inactive)
    1  A    between atoms: C_5  and  C_26
    2  A    between atoms: C_6  and  C_16
    3  A    between atoms: C_6  and  C_18
    4  A    between atoms: N_8  and  C_10
    5  A    between atoms: N_12  and  C_16
    6  A    between atoms: C_15  and  C_16
                            x       y       z     vdW  Elec       q    Type
                         _______ _______ _______ _____ _____    ______ ____

>  <TORSDO>
F 6

$$$$
