=
 OpenBabel10222416223D

 38 43  0  0  1  0  0  0  0  0999 V2000
  184.5230  179.1370  141.2540 N   0  0  0  0  0  0  0  0  0  0  0  0
  185.5050  179.4520  142.2750 C   0  0  0  0  0  2  0  0  0  0  0  0
  180.3730  178.2060  140.0540 N   0  0  0  0  0  0  0  0  0  0  0  0
  184.9500  179.3180  137.6450 N   0  0  0  0  0  0  0  0  0  0  0  0
  180.9360  178.8950  137.6890 S   0  0  0  0  0  0  0  0  0  0  0  0
  183.4680  178.6280  143.3120 C   0  0  0  0  0  2  0  0  0  0  0  0
  187.9020  177.5590  136.5950 C   0  0  0  0  0  0  0  0  0  0  0  0
  184.9270  178.9700  143.5890 C   0  0  1  0  0  3  0  0  0  0  0  0
  183.1550  177.0940  141.4120 C   0  0  0  0  0  1  0  0  0  0  0  0
  184.2900  179.5960  138.7190 C   0  0  0  0  0  0  0  0  0  0  0  0
  186.0420  178.5470  138.1320 C   0  0  0  0  0  0  0  0  0  0  0  0
  182.0600  179.4000  141.4520 C   0  0  0  0  0  2  0  0  0  0  0  0
  186.0210  178.3810  139.5440 N   0  0  0  0  0  0  0  0  0  0  0  0
  186.9730  178.0540  137.3640 C   0  0  0  0  0  0  0  0  0  0  0  0
  184.9410  179.0030  139.8880 C   0  0  0  0  0  0  0  0  0  0  0  0
  189.0060  178.3350  136.2600 O   0  0  0  0  0  1  0  0  0  0  0  0
  183.0580  180.4290  138.7180 C   0  0  0  0  0  2  0  0  0  0  0  0
  181.4260  179.0620  140.1380 C   0  0  0  0  0  0  0  0  0  0  0  0
  183.2980  178.5620  141.8040 C   0  0  2  0  0  0  0  0  0  0  0  0
  179.9890  178.0200  138.7690 C   0  0  0  0  0  0  0  0  0  0  0  0
  181.8700  179.5600  138.9190 C   0  0  0  0  0  0  0  0  0  0  0  0
  178.9350  177.1920  138.3860 O   0  0  0  0  0  0  0  0  0  0  0  0
  179.1000  175.7890  138.2610 C   0  0  0  0  0  1  0  0  0  0  0  0
  187.7700  176.1610  136.0820 C   0  0  2  0  0  3  0  0  0  0  0  0
  185.6970  174.7880  136.2780 C   0  0  0  0  0  1  0  0  0  0  0  0
  186.3650  175.9380  135.5490 C   0  0  0  0  0  2  0  0  0  0  0  0
  189.4380  175.2270  137.5200 O   0  0  0  0  0  1  0  0  0  0  0  0
  188.0860  175.1570  137.1830 C   0  0  0  0  0  2  0  0  0  0  0  0
  185.6840  177.7260  144.0360 C   0  0  0  0  0  2  0  0  0  0  0  0
  187.6820  177.6590  145.5790 C   0  0  0  0  0  0  0  0  0  0  0  0
  188.2670  177.8720  146.7960 C   0  0  0  0  0  0  0  0  0  0  0  0
  186.1930  178.6650  147.6960 C   0  0  0  0  0  3  0  0  0  0  0  0
  188.7100  177.1270  144.6460 C   0  0  0  0  0  3  0  0  0  0  0  0
  189.9070  177.0750  145.4890 N   0  0  0  0  0  0  0  0  0  0  0  0
  189.6580  177.4930  146.6930 C   0  0  0  0  0  3  0  0  0  0  0  0
  187.5550  178.3740  147.8830 C   0  0  0  0  0  2  0  0  0  0  0  0
  186.3270  177.9370  145.3680 C   0  0  0  0  0  0  0  0  0  0  0  0
  185.5820  178.4490  146.4440 C   0  0  0  0  0  3  0  0  0  0  0  0
  1 19  1  0  0  0  0
  1  2  1  0  0  0  0
  2  8  1  0  0  0  0
  3 18  1  0  0  0  0
  4 11  1  0  0  0  0
  4 10  2  0  0  0  0
  5 20  1  0  0  0  0
  5 21  1  0  0  0  0
  6  8  1  0  0  0  0
  7 14  2  0  0  0  0
  8 29  1  6  0  0  0
 10 15  1  0  0  0  0
 11 13  1  0  0  0  0
 12 19  1  0  0  0  0
 13 15  2  0  0  0  0
 14 11  2  0  0  0  0
 15  1  1  0  0  0  0
 16  7  1  0  0  0  0
 17 10  1  0  0  0  0
 17 21  1  0  0  0  0
 18 12  1  0  0  0  0
 19  9  1  6  0  0  0
 19  6  1  0  0  0  0
 20  3  2  0  0  0  0
 21 18  2  0  0  0  0
 22 20  1  0  0  0  0
 23 22  1  0  0  0  0
 24 26  1  1  0  0  0
 24  7  1  0  0  0  0
 24 28  1  0  0  0  0
 26 25  1  0  0  0  0
 28 27  1  0  0  0  0
 29 37  1  0  0  0  0
 30 31  1  0  0  0  0
 31 36  1  0  0  0  0
 32 36  1  0  0  0  0
 33 34  2  0  0  0  0
 33 30  1  0  0  0  0
 34 35  1  0  0  0  0
 35 31  2  0  0  0  0
 37 30  2  0  0  0  0
 37 38  1  0  0  0  0
 38 32  2  0  0  0  0
M  END
>  <MODEL>
1

>  <REMARK>
 VINA RESULT:      -7.0      0.000      0.000
  Name = 
  6 active torsions:
  status: ('A' for Active; 'I' for Inactive)
    1  A    between atoms: C_2  and  C_11
    2  A    between atoms: C_2  and  C_27
    3  A    between atoms: C_2  and  C_31
    4  A    between atoms: O_8  and  C_35
    5  A    between atoms: C_13  and  C_21
    6  A    between atoms: C_21  and  C_36
                            x       y       z     vdW  Elec       q    Type
                         _______ _______ _______ _____ _____    ______ ____

>  <TORSDO>
F 6

$$$$
=
 OpenBabel10222416223D

 38 43  0  0  1  0  0  0  0  0999 V2000
  186.5970  177.1200  136.4440 N   0  0  0  0  0  0  0  0  0  0  0  0
  185.3080  177.4770  135.8810 C   0  0  0  0  0  2  0  0  0  0  0  0
  190.4240  174.9210  136.2220 N   0  0  0  0  0  0  0  0  0  0  0  0
  188.2630  178.6440  139.2970 N   0  0  0  0  0  0  0  0  0  0  0  0
  191.4050  176.5210  137.9130 S   0  0  0  0  0  0  0  0  0  0  0  0
  186.2200  175.5560  134.7060 C   0  0  0  0  0  2  0  0  0  0  0  0
  186.0770  178.8070  142.1440 C   0  0  0  0  0  0  0  0  0  0  0  0
  184.9570  176.3890  134.8880 C   0  0  1  0  0  3  0  0  0  0  0  0
  187.1930  174.7590  136.8220 C   0  0  0  0  0  1  0  0  0  0  0  0
  188.2690  178.2350  138.0730 C   0  0  0  0  0  0  0  0  0  0  0  0
  186.9510  178.3170  139.7370 C   0  0  0  0  0  0  0  0  0  0  0  0
  188.5410  176.1980  135.1990 C   0  0  0  0  0  2  0  0  0  0  0  0
  186.1610  177.7030  138.7250 N   0  0  0  0  0  0  0  0  0  0  0  0
  186.5130  178.5630  140.9400 C   0  0  0  0  0  0  0  0  0  0  0  0
  186.9770  177.6390  137.7260 C   0  0  0  0  0  0  0  0  0  0  0  0
  185.5280  180.0490  142.4400 O   0  0  0  0  0  1  0  0  0  0  0  0
  189.4410  178.3950  137.1720 C   0  0  0  0  0  2  0  0  0  0  0  0
  189.7030  176.0700  136.1350 C   0  0  0  0  0  0  0  0  0  0  0  0
  187.1700  175.9220  135.8330 C   0  0  2  0  0  0  0  0  0  0  0  0
  191.3990  175.0190  137.1550 C   0  0  0  0  0  0  0  0  0  0  0  0
  190.1130  177.0810  136.9940 C   0  0  0  0  0  0  0  0  0  0  0  0
  192.2910  173.9920  137.4590 O   0  0  0  0  0  0  0  0  0  0  0  0
  193.6950  174.1810  137.3880 C   0  0  0  0  0  1  0  0  0  0  0  0
  186.1730  177.7480  143.1950 C   0  0  2  0  0  3  0  0  0  0  0  0
  186.4000  177.9690  145.6690 C   0  0  0  0  0  1  0  0  0  0  0  0
  185.5040  178.2270  144.4720 C   0  0  0  0  0  2  0  0  0  0  0  0
  187.8730  176.0680  143.0910 O   0  0  0  0  0  1  0  0  0  0  0  0
  187.6300  177.3910  143.4600 C   0  0  0  0  0  2  0  0  0  0  0  0
  183.8400  175.5320  135.4670 C   0  0  0  0  0  2  0  0  0  0  0  0
  182.4750  176.3680  137.4200 C   0  0  0  0  0  0  0  0  0  0  0  0
  181.4940  177.1620  137.9490 C   0  0  0  0  0  0  0  0  0  0  0  0
  180.9980  178.0550  135.7820 C   0  0  0  0  0  3  0  0  0  0  0  0
  183.0950  175.5850  138.5210 C   0  0  0  0  0  3  0  0  0  0  0  0
  182.3440  176.0390  139.6950 N   0  0  0  0  0  0  0  0  0  0  0  0
  181.4480  176.9220  139.3740 C   0  0  0  0  0  3  0  0  0  0  0  0
  180.7310  178.0210  137.1610 C   0  0  0  0  0  2  0  0  0  0  0  0
  182.7580  176.3810  136.0510 C   0  0  0  0  0  0  0  0  0  0  0  0
  182.0070  177.2400  135.2290 C   0  0  0  0  0  3  0  0  0  0  0  0
  1 15  1  0  0  0  0
  2  1  1  0  0  0  0
  3 20  2  0  0  0  0
  4 11  1  0  0  0  0
  6  8  1  0  0  0  0
  6 19  1  0  0  0  0
  7 16  1  0  0  0  0
  7 24  1  0  0  0  0
  8 29  1  1  0  0  0
  8  2  1  0  0  0  0
 10  4  2  0  0  0  0
 11 14  2  0  0  0  0
 12 19  1  0  0  0  0
 12 18  1  0  0  0  0
 13 11  1  0  0  0  0
 14  7  2  0  0  0  0
 15 10  1  0  0  0  0
 15 13  2  0  0  0  0
 17 10  1  0  0  0  0
 18  3  1  0  0  0  0
 18 21  2  0  0  0  0
 19  1  1  0  0  0  0
 19  9  1  1  0  0  0
 20 22  1  0  0  0  0
 20  5  1  0  0  0  0
 21 17  1  0  0  0  0
 21  5  1  0  0  0  0
 23 22  1  0  0  0  0
 24 28  1  1  0  0  0
 24 26  1  0  0  0  0
 26 25  1  0  0  0  0
 27 28  1  0  0  0  0
 29 37  1  0  0  0  0
 30 31  1  0  0  0  0
 30 33  1  0  0  0  0
 31 35  2  0  0  0  0
 32 36  1  0  0  0  0
 33 34  2  0  0  0  0
 35 34  1  0  0  0  0
 36 31  1  0  0  0  0
 37 30  2  0  0  0  0
 38 32  2  0  0  0  0
 38 37  1  0  0  0  0
M  END
>  <MODEL>
2

>  <REMARK>
 VINA RESULT:      -6.7      3.380      8.999
  Name = 
  6 active torsions:
  status: ('A' for Active; 'I' for Inactive)
    1  A    between atoms: C_2  and  C_11
    2  A    between atoms: C_2  and  C_27
    3  A    between atoms: C_2  and  C_31
    4  A    between atoms: O_8  and  C_35
    5  A    between atoms: C_13  and  C_21
    6  A    between atoms: C_21  and  C_36
                            x       y       z     vdW  Elec       q    Type
                         _______ _______ _______ _____ _____    ______ ____

>  <TORSDO>
F 6

$$$$
=
 OpenBabel10222416223D

 38 43  0  0  1  0  0  0  0  0999 V2000
  184.8690  178.5260  138.3230 N   0  0  0  0  0  0  0  0  0  0  0  0
  184.0200  179.5550  138.8950 C   0  0  0  0  0  2  0  0  0  0  0  0
  185.5480  175.2580  135.4280 N   0  0  0  0  0  0  0  0  0  0  0  0
  188.4270  178.0250  138.8970 N   0  0  0  0  0  0  0  0  0  0  0  0
  188.0380  175.5420  135.7380 S   0  0  0  0  0  0  0  0  0  0  0  0
  182.6900  178.0490  137.5290 C   0  0  0  0  0  2  0  0  0  0  0  0
  189.1770  177.9300  142.4100 C   0  0  0  0  0  0  0  0  0  0  0  0
  182.5950  179.1740  138.5520 C   0  0  1  0  0  3  0  0  0  0  0  0
  184.1220  176.1790  138.2450 C   0  0  0  0  0  1  0  0  0  0  0  0
  187.4200  178.1570  138.1010 C   0  0  0  0  0  0  0  0  0  0  0  0
  187.8290  178.1050  140.1850 C   0  0  0  0  0  0  0  0  0  0  0  0
  184.5970  177.4670  136.0920 C   0  0  0  0  0  2  0  0  0  0  0  0
  186.4210  178.3020  140.1340 N   0  0  0  0  0  0  0  0  0  0  0  0
  188.5020  178.0190  141.2980 C   0  0  0  0  0  0  0  0  0  0  0  0
  186.1800  178.3100  138.8650 C   0  0  0  0  0  0  0  0  0  0  0  0
  189.7610  179.0670  142.9550 O   0  0  0  0  0  1  0  0  0  0  0  0
  187.5550  178.1700  136.6200 C   0  0  0  0  0  2  0  0  0  0  0  0
  185.7440  176.5350  135.8510 C   0  0  0  0  0  0  0  0  0  0  0  0
  184.1200  177.5380  137.5500 C   0  0  2  0  0  0  0  0  0  0  0  0
  186.7190  174.5900  135.3130 C   0  0  0  0  0  0  0  0  0  0  0  0
  187.0720  176.8790  136.0650 C   0  0  0  0  0  0  0  0  0  0  0  0
  186.8190  173.2620  134.8990 O   0  0  0  0  0  0  0  0  0  0  0  0
  185.7590  172.3400  135.0960 C   0  0  0  0  0  1  0  0  0  0  0  0
  189.3150  176.6040  143.0870 C   0  0  2  0  0  3  0  0  0  0  0  0
  187.6350  177.1490  144.8500 C   0  0  0  0  0  1  0  0  0  0  0  0
  189.0770  176.7610  144.5800 C   0  0  0  0  0  2  0  0  0  0  0  0
  191.5610  176.3510  143.8700 O   0  0  0  0  0  1  0  0  0  0  0  0
  190.6950  176.0140  142.8290 C   0  0  0  0  0  2  0  0  0  0  0  0
  181.8970  178.6830  139.8130 C   0  0  0  0  0  2  0  0  0  0  0  0
  180.3030  179.5870  141.5500 C   0  0  0  0  0  0  0  0  0  0  0  0
  179.3710  180.4950  141.9690 C   0  0  0  0  0  0  0  0  0  0  0  0
  179.4820  181.6340  139.8630 C   0  0  0  0  0  3  0  0  0  0  0  0
  180.5490  178.6200  142.6530 C   0  0  0  0  0  3  0  0  0  0  0  0
  179.6510  179.1030  143.7050 N   0  0  0  0  0  0  0  0  0  0  0  0
  178.9920  180.1540  143.3210 C   0  0  0  0  0  3  0  0  0  0  0  0
  178.9320  181.5360  141.1530 C   0  0  0  0  0  2  0  0  0  0  0  0
  180.8630  179.6600  140.2710 C   0  0  0  0  0  0  0  0  0  0  0  0
  180.4440  180.7010  139.4250 C   0  0  0  0  0  3  0  0  0  0  0  0
  1 15  1  0  0  0  0
  1  2  1  0  0  0  0
  3 18  1  0  0  0  0
  4 11  1  0  0  0  0
  5 21  1  0  0  0  0
  6 19  1  0  0  0  0
  6  8  1  0  0  0  0
  7 16  1  0  0  0  0
  7 24  1  0  0  0  0
  8  2  1  0  0  0  0
  8 29  1  1  0  0  0
 10 15  1  0  0  0  0
 10  4  2  0  0  0  0
 11 14  2  0  0  0  0
 12 19  1  0  0  0  0
 13 11  1  0  0  0  0
 14  7  2  0  0  0  0
 15 13  2  0  0  0  0
 17 10  1  0  0  0  0
 18 21  2  0  0  0  0
 18 12  1  0  0  0  0
 19  9  1  1  0  0  0
 19  1  1  0  0  0  0
 20  3  2  0  0  0  0
 20  5  1  0  0  0  0
 21 17  1  0  0  0  0
 22 23  1  0  0  0  0
 22 20  1  0  0  0  0
 24 28  1  1  0  0  0
 24 26  1  0  0  0  0
 26 25  1  0  0  0  0
 28 27  1  0  0  0  0
 29 37  1  0  0  0  0
 30 31  1  0  0  0  0
 30 33  1  0  0  0  0
 31 35  2  0  0  0  0
 32 36  1  0  0  0  0
 33 34  2  0  0  0  0
 35 34  1  0  0  0  0
 36 31  1  0  0  0  0
 37 30  2  0  0  0  0
 38 32  2  0  0  0  0
 38 37  1  0  0  0  0
M  END
>  <MODEL>
3

>  <REMARK>
 VINA RESULT:      -6.7      3.276      7.233
  Name = 
  6 active torsions:
  status: ('A' for Active; 'I' for Inactive)
    1  A    between atoms: C_2  and  C_11
    2  A    between atoms: C_2  and  C_27
    3  A    between atoms: C_2  and  C_31
    4  A    between atoms: O_8  and  C_35
    5  A    between atoms: C_13  and  C_21
    6  A    between atoms: C_21  and  C_36
                            x       y       z     vdW  Elec       q    Type
                         _______ _______ _______ _____ _____    ______ ____

>  <TORSDO>
F 6

$$$$
=
 OpenBabel10222416223D

 38 43  0  0  1  0  0  0  0  0999 V2000
  186.1450  177.9610  137.9720 N   0  0  0  0  0  0  0  0  0  0  0  0
  184.9380  178.6140  138.4410 C   0  0  0  0  0  2  0  0  0  0  0  0
  188.2640  175.4250  135.0380 N   0  0  0  0  0  0  0  0  0  0  0  0
  189.5410  178.4560  139.1800 N   0  0  0  0  0  0  0  0  0  0  0  0
  190.4580  176.3860  135.8390 S   0  0  0  0  0  0  0  0  0  0  0  0
  184.3810  176.9690  136.7430 C   0  0  0  0  0  2  0  0  0  0  0  0
  189.7070  178.1450  142.7570 C   0  0  0  0  0  0  0  0  0  0  0  0
  183.7770  177.8790  137.8050 C   0  0  1  0  0  3  0  0  0  0  0  0
  186.1880  175.5260  137.5870 C   0  0  0  0  0  1  0  0  0  0  0  0
  188.6850  178.3860  138.2170 C   0  0  0  0  0  0  0  0  0  0  0  0
  188.7480  178.1950  140.3330 C   0  0  0  0  0  0  0  0  0  0  0  0
  186.5790  177.1560  135.6610 C   0  0  0  0  0  2  0  0  0  0  0  0
  187.3770  177.9750  140.0270 N   0  0  0  0  0  0  0  0  0  0  0  0
  189.2270  178.1710  141.5450 C   0  0  0  0  0  0  0  0  0  0  0  0
  187.3530  178.0720  138.7380 C   0  0  0  0  0  0  0  0  0  0  0  0
  189.8130  179.3260  143.4820 O   0  0  0  0  0  1  0  0  0  0  0  0
  189.0460  178.6240  136.7950 C   0  0  0  0  0  2  0  0  0  0  0  0
  187.9820  176.6390  135.5800 C   0  0  0  0  0  0  0  0  0  0  0  0
  185.8760  176.9020  137.0020 C   0  0  2  0  0  0  0  0  0  0  0  0
  189.5870  175.1490  135.1030 C   0  0  0  0  0  0  0  0  0  0  0  0
  189.0850  177.3280  136.0680 C   0  0  0  0  0  0  0  0  0  0  0  0
  190.1610  173.9720  134.6240 O   0  0  0  0  0  0  0  0  0  0  0  0
  190.8830  173.0980  135.4760 C   0  0  0  0  0  1  0  0  0  0  0  0
  190.1390  176.8440  143.3530 C   0  0  2  0  0  3  0  0  0  0  0  0
  188.1620  176.9590  144.8700 C   0  0  0  0  0  1  0  0  0  0  0  0
  189.6630  176.7540  144.7940 C   0  0  0  0  0  2  0  0  0  0  0  0
  192.0550  175.5320  143.9290 O   0  0  0  0  0  1  0  0  0  0  0  0
  191.6540  176.7040  143.2850 C   0  0  0  0  0  2  0  0  0  0  0  0
  183.0720  177.0510  138.8710 C   0  0  0  0  0  2  0  0  0  0  0  0
  182.5050  178.2690  141.0090 C   0  0  0  0  0  0  0  0  0  0  0  0
  181.6800  179.0620  141.7570 C   0  0  0  0  0  0  0  0  0  0  0  0
  180.1080  179.1920  139.9540 C   0  0  0  0  0  3  0  0  0  0  0  0
  183.7050  177.9350  141.8210 C   0  0  0  0  0  3  0  0  0  0  0  0
  183.4370  178.6290  143.0840 N   0  0  0  0  0  0  0  0  0  0  0  0
  182.3030  179.2600  143.0470 C   0  0  0  0  0  3  0  0  0  0  0  0
  180.4700  179.5450  141.2650 C   0  0  0  0  0  2  0  0  0  0  0  0
  182.1680  177.9010  139.7030 C   0  0  0  0  0  0  0  0  0  0  0  0
  180.9540  178.3750  139.1750 C   0  0  0  0  0  3  0  0  0  0  0  0
  1  2  1  0  0  0  0
  1 15  1  0  0  0  0
  3 20  2  0  0  0  0
  3 18  1  0  0  0  0
  4 11  1  0  0  0  0
  5 21  1  0  0  0  0
  6 19  1  0  0  0  0
  6  8  1  0  0  0  0
  7 24  1  0  0  0  0
  7 16  1  0  0  0  0
  8  2  1  0  0  0  0
  8 29  1  1  0  0  0
 10 15  1  0  0  0  0
 10  4  2  0  0  0  0
 11 14  2  0  0  0  0
 12 19  1  0  0  0  0
 13 11  1  0  0  0  0
 14  7  2  0  0  0  0
 15 13  2  0  0  0  0
 17 10  1  0  0  0  0
 18 12  1  0  0  0  0
 18 21  2  0  0  0  0
 19  9  1  1  0  0  0
 19  1  1  0  0  0  0
 20  5  1  0  0  0  0
 21 17  1  0  0  0  0
 22 20  1  0  0  0  0
 22 23  1  0  0  0  0
 24 28  1  1  0  0  0
 24 26  1  0  0  0  0
 26 25  1  0  0  0  0
 28 27  1  0  0  0  0
 29 37  1  0  0  0  0
 30 31  1  0  0  0  0
 30 33  1  0  0  0  0
 31 35  2  0  0  0  0
 32 36  1  0  0  0  0
 33 34  2  0  0  0  0
 35 34  1  0  0  0  0
 36 31  1  0  0  0  0
 37 30  2  0  0  0  0
 38 37  1  0  0  0  0
 38 32  2  0  0  0  0
M  END
>  <MODEL>
4

>  <REMARK>
 VINA RESULT:      -6.7      3.496      7.560
  Name = 
  6 active torsions:
  status: ('A' for Active; 'I' for Inactive)
    1  A    between atoms: C_2  and  C_11
    2  A    between atoms: C_2  and  C_27
    3  A    between atoms: C_2  and  C_31
    4  A    between atoms: O_8  and  C_35
    5  A    between atoms: C_13  and  C_21
    6  A    between atoms: C_21  and  C_36
                            x       y       z     vdW  Elec       q    Type
                         _______ _______ _______ _____ _____    ______ ____

>  <TORSDO>
F 6

$$$$
=
 OpenBabel10222416223D

 38 43  0  0  1  0  0  0  0  0999 V2000
  187.2300  177.1130  137.2040 N   0  0  0  0  0  0  0  0  0  0  0  0
  186.0740  177.9840  137.3060 C   0  0  0  0  0  2  0  0  0  0  0  0
  189.4290  173.8450  135.2020 N   0  0  0  0  0  0  0  0  0  0  0  0
  190.3820  177.4020  138.9990 N   0  0  0  0  0  0  0  0  0  0  0  0
  191.5620  174.6610  136.2810 S   0  0  0  0  0  0  0  0  0  0  0  0
  185.5880  176.1360  135.8050 C   0  0  0  0  0  2  0  0  0  0  0  0
  189.8390  177.7320  142.5360 C   0  0  0  0  0  0  0  0  0  0  0  0
  184.9490  177.2920  136.5650 C   0  0  1  0  0  3  0  0  0  0  0  0
  186.9630  174.6630  137.2190 C   0  0  0  0  0  1  0  0  0  0  0  0
  189.7160  177.2620  137.9020 C   0  0  0  0  0  0  0  0  0  0  0  0
  189.3600  177.4550  139.9880 C   0  0  0  0  0  0  0  0  0  0  0  0
  187.9490  175.8540  135.1860 C   0  0  0  0  0  2  0  0  0  0  0  0
  188.0510  177.3520  139.4420 N   0  0  0  0  0  0  0  0  0  0  0  0
  189.5990  177.5950  141.2620 C   0  0  0  0  0  0  0  0  0  0  0  0
  188.2790  177.2140  138.1770 C   0  0  0  0  0  0  0  0  0  0  0  0
  189.9930  179.0030  143.0760 O   0  0  0  0  0  1  0  0  0  0  0  0
  190.3650  177.1910  136.5650 C   0  0  0  0  0  2  0  0  0  0  0  0
  189.2460  175.1630  135.4790 C   0  0  0  0  0  0  0  0  0  0  0  0
  186.9810  175.9360  136.3750 C   0  0  2  0  0  0  0  0  0  0  0  0
  190.6590  173.4260  135.5820 C   0  0  0  0  0  0  0  0  0  0  0  0
  190.3340  175.7890  136.0720 C   0  0  0  0  0  0  0  0  0  0  0  0
  191.1200  172.1210  135.4200 O   0  0  0  0  0  0  0  0  0  0  0  0
  192.4990  171.8360  135.2450 C   0  0  0  0  0  1  0  0  0  0  0  0
  189.9470  176.5190  143.4020 C   0  0  2  0  0  3  0  0  0  0  0  0
  187.7230  176.9050  144.4670 C   0  0  0  0  0  1  0  0  0  0  0  0
  189.2130  176.7540  144.7120 C   0  0  0  0  0  2  0  0  0  0  0  0
  191.6810  176.2730  145.0320 O   0  0  0  0  0  1  0  0  0  0  0  0
  191.4080  176.1800  143.6670 C   0  0  0  0  0  2  0  0  0  0  0  0
  183.9410  176.7650  137.5770 C   0  0  0  0  0  2  0  0  0  0  0  0
  182.4720  178.1800  139.0660 C   0  0  0  0  0  0  0  0  0  0  0  0
  181.4640  179.0860  139.2480 C   0  0  0  0  0  0  0  0  0  0  0  0
  181.0840  179.1950  136.8850 C   0  0  0  0  0  3  0  0  0  0  0  0
  183.0320  177.8210  140.3960 C   0  0  0  0  0  3  0  0  0  0  0  0
  182.2190  178.6270  141.3100 N   0  0  0  0  0  0  0  0  0  0  0  0
  181.3420  179.3360  140.6670 C   0  0  0  0  0  3  0  0  0  0  0  0
  180.7440  179.6180  138.1810 C   0  0  0  0  0  2  0  0  0  0  0  0
  182.8280  177.7400  137.7870 C   0  0  0  0  0  0  0  0  0  0  0  0
  182.1230  178.2610  136.6880 C   0  0  0  0  0  3  0  0  0  0  0  0
  1  2  1  0  0  0  0
  1 15  1  0  0  0  0
  3 18  1  0  0  0  0
  3 20  2  0  0  0  0
  4 11  1  0  0  0  0
  6 19  1  0  0  0  0
  6  8  1  0  0  0  0
  7 16  1  0  0  0  0
  7 24  1  0  0  0  0
  8  2  1  0  0  0  0
  8 29  1  1  0  0  0
 10 15  1  0  0  0  0
 10  4  2  0  0  0  0
 11 14  2  0  0  0  0
 12 18  1  0  0  0  0
 12 19  1  0  0  0  0
 13 11  1  0  0  0  0
 14  7  2  0  0  0  0
 15 13  2  0  0  0  0
 17 10  1  0  0  0  0
 18 21  2  0  0  0  0
 19  1  1  0  0  0  0
 19  9  1  1  0  0  0
 20  5  1  0  0  0  0
 21  5  1  0  0  0  0
 21 17  1  0  0  0  0
 22 20  1  0  0  0  0
 23 22  1  0  0  0  0
 24 28  1  1  0  0  0
 24 26  1  0  0  0  0
 25 26  1  0  0  0  0
 28 27  1  0  0  0  0
 29 37  1  0  0  0  0
 30 31  1  0  0  0  0
 30 33  1  0  0  0  0
 31 35  2  0  0  0  0
 32 36  1  0  0  0  0
 33 34  2  0  0  0  0
 35 34  1  0  0  0  0
 36 31  1  0  0  0  0
 37 30  2  0  0  0  0
 38 32  2  0  0  0  0
 38 37  1  0  0  0  0
M  END
>  <MODEL>
5

>  <REMARK>
 VINA RESULT:      -6.6      3.827      8.708
  Name = 
  6 active torsions:
  status: ('A' for Active; 'I' for Inactive)
    1  A    between atoms: C_2  and  C_11
    2  A    between atoms: C_2  and  C_27
    3  A    between atoms: C_2  and  C_31
    4  A    between atoms: O_8  and  C_35
    5  A    between atoms: C_13  and  C_21
    6  A    between atoms: C_21  and  C_36
                            x       y       z     vdW  Elec       q    Type
                         _______ _______ _______ _____ _____    ______ ____

>  <TORSDO>
F 6

$$$$
=
 OpenBabel10222416223D

 38 43  0  0  1  0  0  0  0  0999 V2000
  183.8870  178.1380  139.2080 N   0  0  0  0  0  0  0  0  0  0  0  0
  184.7470  178.9770  140.0230 C   0  0  0  0  0  2  0  0  0  0  0  0
  180.0680  176.0100  138.5640 N   0  0  0  0  0  0  0  0  0  0  0  0
  184.3830  177.1770  135.7340 N   0  0  0  0  0  0  0  0  0  0  0  0
  180.5490  175.9640  136.0850 S   0  0  0  0  0  0  0  0  0  0  0  0
  182.8980  178.1440  141.3600 C   0  0  0  0  0  2  0  0  0  0  0  0
  187.6720  175.8260  135.2160 C   0  0  0  0  0  0  0  0  0  0  0  0
  184.2410  178.8560  141.4450 C   0  0  1  0  0  3  0  0  0  0  0  0
  182.9760  176.0300  140.1010 C   0  0  0  0  0  1  0  0  0  0  0  0
  183.6450  177.6560  136.6790 C   0  0  0  0  0  0  0  0  0  0  0  0
  185.5970  176.8620  136.4060 C   0  0  0  0  0  0  0  0  0  0  0  0
  181.4190  177.9310  139.4080 C   0  0  0  0  0  2  0  0  0  0  0  0
  185.5650  177.1810  137.7920 N   0  0  0  0  0  0  0  0  0  0  0  0
  186.6350  176.3450  135.8110 C   0  0  0  0  0  0  0  0  0  0  0  0
  184.3680  177.6420  137.9510 C   0  0  0  0  0  0  0  0  0  0  0  0
  188.5970  176.6560  134.5940 O   0  0  0  0  0  1  0  0  0  0  0  0
  182.2660  178.1630  136.4490 C   0  0  0  0  0  2  0  0  0  0  0  0
  180.9140  177.0450  138.3120 C   0  0  0  0  0  0  0  0  0  0  0  0
  182.7930  177.5400  139.9700 C   0  0  2  0  0  0  0  0  0  0  0  0
  179.7730  175.3270  137.4340 C   0  0  0  0  0  0  0  0  0  0  0  0
  181.2810  177.1840  136.9800 C   0  0  0  0  0  0  0  0  0  0  0  0
  178.9310  174.2170  137.3950 O   0  0  0  0  0  0  0  0  0  0  0  0
  179.3470  172.9870  136.8220 C   0  0  0  0  0  1  0  0  0  0  0  0
  187.8550  174.3430  135.2080 C   0  0  2  0  0  3  0  0  0  0  0  0
  186.6090  172.5920  136.4770 C   0  0  0  0  0  1  0  0  0  0  0  0
  187.5490  173.7780  136.5860 C   0  0  0  0  0  2  0  0  0  0  0  0
  189.9460  173.3750  135.8520 O   0  0  0  0  0  1  0  0  0  0  0  0
  189.2750  173.9820  134.7900 C   0  0  0  0  0  2  0  0  0  0  0  0
  185.2290  178.0240  142.2520 C   0  0  0  0  0  2  0  0  0  0  0  0
  186.0610  177.9500  144.6350 C   0  0  0  0  0  0  0  0  0  0  0  0
  185.8920  178.1710  145.9740 C   0  0  0  0  0  0  0  0  0  0  0  0
  183.6780  179.0060  145.5950 C   0  0  0  0  0  3  0  0  0  0  0  0
  187.4210  177.3910  144.4150 C   0  0  0  0  0  3  0  0  0  0  0  0
  187.9640  177.3330  145.7760 N   0  0  0  0  0  0  0  0  0  0  0  0
  187.1070  177.7710  146.6480 C   0  0  0  0  0  3  0  0  0  0  0  0
  184.7130  178.6980  146.4950 C   0  0  0  0  0  2  0  0  0  0  0  0
  185.0460  178.2440  143.7190 C   0  0  0  0  0  0  0  0  0  0  0  0
  183.8450  178.7810  144.2130 C   0  0  0  0  0  3  0  0  0  0  0  0
  1 19  1  0  0  0  0
  1  2  1  0  0  0  0
  2  8  1  0  0  0  0
  4 11  1  0  0  0  0
  4 10  2  0  0  0  0
  5 21  1  0  0  0  0
  5 20  1  0  0  0  0
  6  8  1  0  0  0  0
  7 14  2  0  0  0  0
  8 29  1  1  0  0  0
 10 15  1  0  0  0  0
 11 13  1  0  0  0  0
 12 19  1  0  0  0  0
 13 15  2  0  0  0  0
 14 11  2  0  0  0  0
 15  1  1  0  0  0  0
 16  7  1  0  0  0  0
 17 10  1  0  0  0  0
 17 21  1  0  0  0  0
 18  3  1  0  0  0  0
 18 12  1  0  0  0  0
 19  9  1  1  0  0  0
 19  6  1  0  0  0  0
 20  3  2  0  0  0  0
 21 18  2  0  0  0  0
 22 20  1  0  0  0  0
 23 22  1  0  0  0  0
 24 28  1  1  0  0  0
 24  7  1  0  0  0  0
 24 26  1  0  0  0  0
 25 26  1  0  0  0  0
 28 27  1  0  0  0  0
 29 37  1  0  0  0  0
 30 31  1  0  0  0  0
 31 36  1  0  0  0  0
 31 35  2  0  0  0  0
 32 36  1  0  0  0  0
 33 30  1  0  0  0  0
 33 34  2  0  0  0  0
 34 35  1  0  0  0  0
 37 38  1  0  0  0  0
 37 30  2  0  0  0  0
 38 32  2  0  0  0  0
M  END
>  <MODEL>
6

>  <REMARK>
 VINA RESULT:      -6.5      1.970      2.574
  Name = 
  6 active torsions:
  status: ('A' for Active; 'I' for Inactive)
    1  A    between atoms: C_2  and  C_11
    2  A    between atoms: C_2  and  C_27
    3  A    between atoms: C_2  and  C_31
    4  A    between atoms: O_8  and  C_35
    5  A    between atoms: C_13  and  C_21
    6  A    between atoms: C_21  and  C_36
                            x       y       z     vdW  Elec       q    Type
                         _______ _______ _______ _____ _____    ______ ____

>  <TORSDO>
F 6

$$$$
=
 OpenBabel10222416223D

 38 43  0  0  1  0  0  0  0  0999 V2000
  189.9170  176.5420  137.4020 N   0  0  0  0  0  0  0  0  0  0  0  0
  188.7280  177.3500  137.2090 C   0  0  0  0  0  2  0  0  0  0  0  0
  192.5960  173.2630  136.1360 N   0  0  0  0  0  0  0  0  0  0  0  0
  192.6490  177.1460  139.7280 N   0  0  0  0  0  0  0  0  0  0  0  0
  194.4440  174.2790  137.5260 S   0  0  0  0  0  0  0  0  0  0  0  0
  188.6180  175.3700  135.8060 C   0  0  0  0  0  2  0  0  0  0  0  0
  191.4200  177.7100  143.0580 C   0  0  0  0  0  0  0  0  0  0  0  0
  187.7970  176.5410  136.3300 C   0  0  1  0  0  3  0  0  0  0  0  0
  189.7550  174.0890  137.5740 C   0  0  0  0  0  1  0  0  0  0  0  0
  192.2140  176.8860  138.5410 C   0  0  0  0  0  0  0  0  0  0  0  0
  191.4540  177.2150  140.4980 C   0  0  0  0  0  0  0  0  0  0  0  0
  191.0640  175.1770  135.6710 C   0  0  0  0  0  2  0  0  0  0  0  0
  190.2800  176.9960  139.7260 N   0  0  0  0  0  0  0  0  0  0  0  0
  191.4360  177.4640  141.7780 C   0  0  0  0  0  0  0  0  0  0  0  0
  190.7540  176.7760  138.5440 C   0  0  0  0  0  0  0  0  0  0  0  0
  191.4140  179.0250  143.5070 O   0  0  0  0  0  1  0  0  0  0  0  0
  193.1100  176.7510  137.3630 C   0  0  0  0  0  2  0  0  0  0  0  0
  192.3070  174.5860  136.2610 C   0  0  0  0  0  0  0  0  0  0  0  0
  189.8820  175.2930  136.6440 C   0  0  2  0  0  0  0  0  0  0  0  0
  193.7460  172.9460  136.7760 C   0  0  0  0  0  0  0  0  0  0  0  0
  193.2340  175.3170  136.9930 C   0  0  0  0  0  0  0  0  0  0  0  0
  194.2840  171.6610  136.8160 O   0  0  0  0  0  0  0  0  0  0  0  0
  193.9480  170.6840  135.8430 C   0  0  0  0  0  1  0  0  0  0  0  0
  191.4090  176.5740  144.0290 C   0  0  2  0  0  3  0  0  0  0  0  0
  188.9490  176.7720  144.3890 C   0  0  0  0  0  1  0  0  0  0  0  0
  190.0750  175.8500  143.9620 C   0  0  0  0  0  2  0  0  0  0  0  0
  192.0720  176.0230  146.2610 O   0  0  0  0  0  1  0  0  0  0  0  0
  191.6680  177.0790  145.4430 C   0  0  0  0  0  2  0  0  0  0  0  0
  186.6350  176.0350  137.1750 C   0  0  0  0  0  2  0  0  0  0  0  0
  184.3910  177.1890  137.0980 C   0  0  0  0  0  0  0  0  0  0  0  0
  183.2010  177.4640  136.4820 C   0  0  0  0  0  0  0  0  0  0  0  0
  183.7800  176.0350  134.6470 C   0  0  0  0  0  3  0  0  0  0  0  0
  184.4460  177.9430  138.3780 C   0  0  0  0  0  2  0  0  0  0  0  0
  183.1610  178.6490  138.3860 N   0  0  0  0  0  0  0  0  0  0  0  0
  182.4650  178.3800  137.3230 C   0  0  0  0  0  3  0  0  0  0  0  0
  182.8570  176.9050  135.2530 C   0  0  0  0  0  3  0  0  0  0  0  0
  185.3250  176.3250  136.5180 C   0  0  0  0  0  0  0  0  0  0  0  0
  185.0090  175.7470  135.2760 C   0  0  0  0  0  3  0  0  0  0  0  0
  1 15  1  0  0  0  0
  2  1  1  0  0  0  0
  3 18  1  0  0  0  0
  3 20  2  0  0  0  0
  4 11  1  0  0  0  0
  6  8  1  0  0  0  0
  6 19  1  0  0  0  0
  7 16  1  0  0  0  0
  7 24  1  0  0  0  0
  8 29  1  1  0  0  0
  8  2  1  0  0  0  0
 10 15  1  0  0  0  0
 10  4  2  0  0  0  0
 11 14  2  0  0  0  0
 12 18  1  0  0  0  0
 12 19  1  0  0  0  0
 13 11  1  0  0  0  0
 14  7  2  0  0  0  0
 15 13  2  0  0  0  0
 17 10  1  0  0  0  0
 18 21  2  0  0  0  0
 19  1  1  0  0  0  0
 19  9  1  1  0  0  0
 20 22  1  0  0  0  0
 20  5  1  0  0  0  0
 21 17  1  0  0  0  0
 21  5  1  0  0  0  0
 23 22  1  0  0  0  0
 24 26  1  1  0  0  0
 24 28  1  0  0  0  0
 26 25  1  0  0  0  0
 28 27  1  0  0  0  0
 30 33  1  0  0  0  0
 31 30  2  0  0  0  0
 31 35  1  0  0  0  0
 32 36  2  0  0  0  0
 32 38  1  0  0  0  0
 33 34  1  0  0  0  0
 35 34  2  0  0  0  0
 36 31  1  0  0  0  0
 37 30  1  0  0  0  0
 37 29  1  0  0  0  0
 38 37  2  0  0  0  0
M  END
>  <MODEL>
7

>  <REMARK>
 VINA RESULT:      -6.2      4.837     10.296
  Name = 
  6 active torsions:
  status: ('A' for Active; 'I' for Inactive)
    1  A    between atoms: C_2  and  C_11
    2  A    between atoms: C_2  and  C_27
    3  A    between atoms: C_2  and  C_31
    4  A    between atoms: O_8  and  C_35
    5  A    between atoms: C_13  and  C_21
    6  A    between atoms: C_21  and  C_36
                            x       y       z     vdW  Elec       q    Type
                         _______ _______ _______ _____ _____    ______ ____

>  <TORSDO>
F 6

$$$$
=
 OpenBabel10222416223D

 38 43  0  0  1  0  0  0  0  0999 V2000
  180.4010  177.3630  138.8090 N   0  0  0  0  0  0  0  0  0  0  0  0
  180.2390  175.9290  138.9670 C   0  0  0  0  0  2  0  0  0  0  0  0
  180.4390  180.9800  136.2710 N   0  0  0  0  0  0  0  0  0  0  0  0
  180.6270  179.8670  141.4390 N   0  0  0  0  0  0  0  0  0  0  0  0
  180.0990  182.3940  138.3370 S   0  0  0  0  0  0  0  0  0  0  0  0
  180.4770  176.4800  136.6130 C   0  0  0  0  0  2  0  0  0  0  0  0
  183.1070  178.9680  143.8800 C   0  0  0  0  0  0  0  0  0  0  0  0
  180.4620  175.3190  137.5990 C   0  0  1  0  0  3  0  0  0  0  0  0
  182.0500  178.2740  137.2200 C   0  0  0  0  0  1  0  0  0  0  0  0
  180.1150  179.4290  140.3390 C   0  0  0  0  0  0  0  0  0  0  0  0
  181.5870  178.8680  141.7640 C   0  0  0  0  0  0  0  0  0  0  0  0
  179.5570  178.7380  136.9190 C   0  0  0  0  0  2  0  0  0  0  0  0
  181.6260  177.8040  140.8200 N   0  0  0  0  0  0  0  0  0  0  0  0
  182.3470  178.9160  142.8230 C   0  0  0  0  0  0  0  0  0  0  0  0
  180.7430  178.1660  139.9480 C   0  0  0  0  0  0  0  0  0  0  0  0
  182.6390  178.4670  145.0900 O   0  0  0  0  0  1  0  0  0  0  0  0
  179.0210  180.1340  139.6190 C   0  0  0  0  0  2  0  0  0  0  0  0
  179.8470  180.1800  137.1980 C   0  0  0  0  0  0  0  0  0  0  0  0
  180.6270  177.7570  137.4200 C   0  0  2  0  0  0  0  0  0  0  0  0
  180.6370  182.2300  136.7520 C   0  0  0  0  0  0  0  0  0  0  0  0
  179.5700  180.8000  138.4100 C   0  0  0  0  0  0  0  0  0  0  0  0
  181.2260  183.2600  136.0190 O   0  0  0  0  0  0  0  0  0  0  0  0
  181.1780  184.6070  136.4610 C   0  0  0  0  0  1  0  0  0  0  0  0
  184.4730  179.5650  143.7810 C   0  0  2  0  0  3  0  0  0  0  0  0
  186.1350  178.2560  142.4590 C   0  0  0  0  0  1  0  0  0  0  0  0
  185.0470  179.3110  142.3970 C   0  0  0  0  0  2  0  0  0  0  0  0
  185.3140  179.7510  146.0130 O   0  0  0  0  0  1  0  0  0  0  0  0
  185.3890  178.9830  144.8500 C   0  0  0  0  0  2  0  0  0  0  0  0
  181.8060  174.6020  137.5910 C   0  0  0  0  0  2  0  0  0  0  0  0
  182.8330  172.5350  136.5680 C   0  0  0  0  0  0  0  0  0  0  0  0
  182.7260  171.3030  135.9840 C   0  0  0  0  0  0  0  0  0  0  0  0
  180.3350  171.4200  136.0890 C   0  0  0  0  0  3  0  0  0  0  0  0
  184.2750  172.8710  136.7030 C   0  0  0  0  0  2  0  0  0  0  0  0
  184.9310  171.6910  136.1300 N   0  0  0  0  0  0  0  0  0  0  0  0
  184.0620  170.8140  135.7280 C   0  0  0  0  0  3  0  0  0  0  0  0
  181.4920  170.7090  135.7270 C   0  0  0  0  0  3  0  0  0  0  0  0
  181.6980  173.2640  136.9350 C   0  0  0  0  0  0  0  0  0  0  0  0
  180.4370  172.6910  136.6920 C   0  0  0  0  0  3  0  0  0  0  0  0
  1  2  1  0  0  0  0
  1 15  1  0  0  0  0
  3 20  2  0  0  0  0
  3 18  1  0  0  0  0
  4 11  1  0  0  0  0
  5 21  1  0  0  0  0
  6 19  1  0  0  0  0
  6  8  1  0  0  0  0
  7 16  1  0  0  0  0
  8 29  1  1  0  0  0
  8  2  1  0  0  0  0
 10  4  2  0  0  0  0
 11 14  2  0  0  0  0
 12 18  1  0  0  0  0
 12 19  1  0  0  0  0
 13 11  1  0  0  0  0
 14  7  2  0  0  0  0
 15 10  1  0  0  0  0
 15 13  2  0  0  0  0
 17 10  1  0  0  0  0
 18 21  2  0  0  0  0
 19  9  1  6  0  0  0
 19  1  1  0  0  0  0
 20  5  1  0  0  0  0
 21 17  1  0  0  0  0
 22 23  1  0  0  0  0
 22 20  1  0  0  0  0
 24 26  1  6  0  0  0
 24  7  1  0  0  0  0
 24 28  1  0  0  0  0
 26 25  1  0  0  0  0
 28 27  1  0  0  0  0
 30 33  1  0  0  0  0
 30 37  1  0  0  0  0
 31 30  2  0  0  0  0
 32 38  1  0  0  0  0
 34 33  1  0  0  0  0
 35 31  1  0  0  0  0
 35 34  2  0  0  0  0
 36 31  1  0  0  0  0
 36 32  2  0  0  0  0
 37 29  1  0  0  0  0
 38 37  2  0  0  0  0
M  END
>  <MODEL>
8

>  <REMARK>
 VINA RESULT:      -5.9      4.214      8.621
  Name = 
  6 active torsions:
  status: ('A' for Active; 'I' for Inactive)
    1  A    between atoms: C_2  and  C_11
    2  A    between atoms: C_2  and  C_27
    3  A    between atoms: C_2  and  C_31
    4  A    between atoms: O_8  and  C_35
    5  A    between atoms: C_13  and  C_21
    6  A    between atoms: C_21  and  C_36
                            x       y       z     vdW  Elec       q    Type
                         _______ _______ _______ _____ _____    ______ ____

>  <TORSDO>
F 6

$$$$
=
 OpenBabel10222416223D

 38 43  0  0  1  0  0  0  0  0999 V2000
  187.7850  175.0660  136.3420 N   0  0  0  0  0  0  0  0  0  0  0  0
  186.3360  175.0060  136.2950 C   0  0  0  0  0  2  0  0  0  0  0  0
  191.7460  173.6660  134.9710 N   0  0  0  0  0  0  0  0  0  0  0  0
  189.8430  177.5830  137.9740 N   0  0  0  0  0  0  0  0  0  0  0  0
  192.7650  175.8140  135.8220 S   0  0  0  0  0  0  0  0  0  0  0  0
  187.2790  173.0550  135.1970 C   0  0  0  0  0  2  0  0  0  0  0  0
  188.8360  178.0700  141.3890 C   0  0  0  0  0  0  0  0  0  0  0  0
  185.9800  173.6470  135.7290 C   0  0  1  0  0  3  0  0  0  0  0  0
  189.1110  173.0500  136.8420 C   0  0  0  0  0  1  0  0  0  0  0  0
  189.5360  176.8730  136.9410 C   0  0  0  0  0  0  0  0  0  0  0  0
  188.9150  177.1370  138.9560 C   0  0  0  0  0  0  0  0  0  0  0  0
  189.3470  174.2390  134.5940 C   0  0  0  0  0  2  0  0  0  0  0  0
  188.0270  176.1370  138.4700 N   0  0  0  0  0  0  0  0  0  0  0  0
  188.8740  177.6040  140.1730 C   0  0  0  0  0  0  0  0  0  0  0  0
  188.4270  175.9690  137.2530 C   0  0  0  0  0  0  0  0  0  0  0  0
  188.1000  179.2170  141.6660 O   0  0  0  0  0  1  0  0  0  0  0  0
  190.2250  177.0110  135.6310 C   0  0  0  0  0  2  0  0  0  0  0  0
  190.7480  174.5900  134.9880 C   0  0  0  0  0  0  0  0  0  0  0  0
  188.4190  173.8830  135.7650 C   0  0  2  0  0  0  0  0  0  0  0  0
  192.9160  174.1940  135.3990 C   0  0  0  0  0  0  0  0  0  0  0  0
  191.1320  175.8520  135.4230 C   0  0  0  0  0  0  0  0  0  0  0  0
  194.1070  173.4750  135.4860 O   0  0  0  0  0  0  0  0  0  0  0  0
  194.8840  173.4650  136.6740 C   0  0  0  0  0  1  0  0  0  0  0  0
  189.5850  177.3670  142.4750 C   0  0  2  0  0  3  0  0  0  0  0  0
  188.4350  177.2040  144.6830 C   0  0  0  0  0  1  0  0  0  0  0  0
  188.6210  176.5550  143.3240 C   0  0  0  0  0  2  0  0  0  0  0  0
  191.7130  178.1590  143.2270 O   0  0  0  0  0  1  0  0  0  0  0  0
  190.3390  178.3690  143.3390 C   0  0  0  0  0  2  0  0  0  0  0  0
  185.4230  172.7760  136.8470 C   0  0  0  0  0  2  0  0  0  0  0  0
  182.9250  172.5820  136.5340 C   0  0  0  0  0  0  0  0  0  0  0  0
  181.8160  171.9070  136.1040 C   0  0  0  0  0  0  0  0  0  0  0  0
  183.1760  170.0800  135.3560 C   0  0  0  0  0  3  0  0  0  0  0  0
  182.4920  173.8820  137.1110 C   0  0  0  0  0  2  0  0  0  0  0  0
  181.0360  173.8330  136.9470 N   0  0  0  0  0  0  0  0  0  0  0  0
  180.6590  172.7260  136.3820 C   0  0  0  0  0  3  0  0  0  0  0  0
  181.9000  170.6500  135.5080 C   0  0  0  0  0  3  0  0  0  0  0  0
  184.2050  172.0360  136.3970 C   0  0  0  0  0  0  0  0  0  0  0  0
  184.3230  170.7710  135.7970 C   0  0  0  0  0  3  0  0  0  0  0  0
  1 15  1  0  0  0  0
  2  1  1  0  0  0  0
  3 18  1  0  0  0  0
  3 20  2  0  0  0  0
  4 11  1  0  0  0  0
  6  8  1  0  0  0  0
  6 19  1  0  0  0  0
  7 16  1  0  0  0  0
  7 24  1  0  0  0  0
  8  2  1  0  0  0  0
  8 29  1  1  0  0  0
 10 15  1  0  0  0  0
 10  4  2  0  0  0  0
 11 14  2  0  0  0  0
 12 18  1  0  0  0  0
 12 19  1  0  0  0  0
 13 11  1  0  0  0  0
 14  7  2  0  0  0  0
 15 13  2  0  0  0  0
 17 10  1  0  0  0  0
 18 21  2  0  0  0  0
 19  1  1  0  0  0  0
 19  9  1  1  0  0  0
 20 22  1  0  0  0  0
 20  5  1  0  0  0  0
 21 17  1  0  0  0  0
 21  5  1  0  0  0  0
 22 23  1  0  0  0  0
 24 26  1  1  0  0  0
 24 28  1  0  0  0  0
 26 25  1  0  0  0  0
 27 28  1  0  0  0  0
 30 33  1  0  0  0  0
 31 35  1  0  0  0  0
 31 30  2  0  0  0  0
 32 36  2  0  0  0  0
 32 38  1  0  0  0  0
 34 33  1  0  0  0  0
 35 34  2  0  0  0  0
 36 31  1  0  0  0  0
 37 30  1  0  0  0  0
 37 29  1  0  0  0  0
 38 37  2  0  0  0  0
M  END
>  <MODEL>
9

>  <REMARK>
 VINA RESULT:      -5.8      4.911     10.348
  Name = 
  6 active torsions:
  status: ('A' for Active; 'I' for Inactive)
    1  A    between atoms: C_2  and  C_11
    2  A    between atoms: C_2  and  C_27
    3  A    between atoms: C_2  and  C_31
    4  A    between atoms: O_8  and  C_35
    5  A    between atoms: C_13  and  C_21
    6  A    between atoms: C_21  and  C_36
                            x       y       z     vdW  Elec       q    Type
                         _______ _______ _______ _____ _____    ______ ____

>  <TORSDO>
F 6

$$$$
