=
 OpenBabel10222421063D

 55 60  0  0  1  0  0  0  0  0999 V2000
  189.0580  176.9710  136.5910 C   0  0  2  0  0  3  0  0  0  0  0  0
  190.1660  177.0280  137.6930 C   0  0  1  0  0  3  0  0  0  0  0  0
  188.9830  178.0730  141.1940 C   0  0  0  0  0  3  0  0  0  0  0  0
  187.1870  178.1420  139.5530 C   0  0  0  0  0  3  0  0  0  0  0  0
  189.4060  177.4510  138.9100 C   0  0  0  0  0  0  0  0  0  0  0  0
  189.8820  177.6360  140.2080 C   0  0  0  0  0  3  0  0  0  0  0  0
  188.0990  177.7060  138.5950 C   0  0  0  0  0  0  0  0  0  0  0  0
  187.8360  177.4600  137.2310 N   0  0  0  0  0  0  0  0  0  0  0  0
  187.6370  178.3310  140.8740 C   0  0  0  0  0  0  0  0  0  0  0  0
  192.7200  174.1770  137.6960 N   0  0  0  0  0  2  0  0  0  0  0  0
  192.7660  176.3030  136.7320 O   0  0  0  0  0  0  0  0  0  0  0  0
  192.1310  175.4450  137.4100 C   0  0  0  0  0  0  0  0  0  0  0  0
  190.8230  175.7400  137.9050 N   0  0  0  0  0  2  0  0  0  0  0  0
  194.0190  173.7860  137.1680 C   0  0  1  0  0  3  0  0  0  0  0  0
  195.6340  175.1620  139.4250 O   0  0  0  0  0  1  0  0  0  0  0  0
  195.5120  171.8890  137.7640 C   0  0  0  0  0  1  0  0  0  0  0  0
  194.9420  175.0000  137.1300 C   0  0  0  0  0  2  0  0  0  0  0  0
  195.7670  174.4050  138.2570 C   0  0  2  0  0  0  0  0  0  0  0  0
  194.8590  173.1690  138.2810 C   0  0  1  0  0  3  0  0  0  0  0  0
  197.2320  174.2110  137.8570 C   0  0  0  0  0  2  0  0  0  0  0  0
  198.0540  175.2220  138.4700 N   0  0  0  0  0  0  0  0  0  0  0  0
  199.0540  174.8780  139.1940 C   0  0  0  0  0  2  0  0  0  0  0  0
  186.7500  178.7670  141.9090 N   0  0  0  0  0  2  0  0  0  0  0  0
  184.5460  178.2000  142.5480 O   0  0  0  0  0  1  0  0  0  0  0  0
  185.8980  177.9120  142.7410 C   0  0  2  0  0  3  0  0  0  0  0  0
  189.2670  177.4030  146.3180 C   0  0  0  0  0  0  0  0  0  0  0  0
  189.5980  177.5210  147.6320 N   0  0  0  0  0  0  0  0  0  0  0  0
  187.9680  177.7260  145.9050 C   0  0  0  0  0  0  0  0  0  0  0  0
  190.4900  176.8580  145.1790 Cl  0  0  0  0  0  0  0  0  0  0  0  0
  187.0400  178.1450  146.8790 C   0  0  0  0  0  0  0  0  0  0  0  0
  185.3500  178.3840  145.1680 C   0  0  0  0  0  3  0  0  0  0  0  0
  188.6910  177.9380  148.5570 C   0  0  0  0  0  3  0  0  0  0  0  0
  187.4230  178.2450  148.1790 N   0  0  0  0  0  0  0  0  0  0  0  0
  185.7330  178.4680  146.5090 C   0  0  0  0  0  3  0  0  0  0  0  0
  187.5770  177.6500  144.5640 C   0  0  0  0  0  3  0  0  0  0  0  0
  186.2730  177.9860  144.1890 C   0  0  0  0  0  0  0  0  0  0  0  0
  186.5750  177.7380  136.5510 C   0  0  0  0  0  2  0  0  0  0  0  0
  185.4880  176.7750  137.0270 C   0  0  0  0  0  2  0  0  0  0  0  0
  184.0850  177.3190  136.7130 C   0  0  2  0  0  3  0  0  0  0  0  0
  182.4980  177.0340  140.1340 O   0  0  0  0  0  0  0  0  0  0  0  0
  181.6520  178.1590  140.0610 C   0  0  1  0  0  3  0  0  0  0  0  0
  181.0800  178.2990  138.6640 C   0  0  0  0  0  0  0  0  0  0  0  0
  180.0330  178.9650  138.4490 O   0  0  0  0  0  0  0  0  0  0  0  0
  181.8330  177.7800  137.5590 N   0  0  0  0  0  2  0  0  0  0  0  0
  183.5550  177.2380  139.2210 C   0  0  0  0  0  2  0  0  0  0  0  0
  183.0410  176.9980  137.7920 C   0  0  2  0  0  3  0  0  0  0  0  0
  180.5520  178.0130  141.1110 C   0  0  0  0  0  2  0  0  0  0  0  0
  180.8170  178.8860  142.2430 N   0  0  0  0  0  1  0  0  0  0  0  0
  183.6390  177.0220  135.4090 O   0  0  0  0  0  0  0  0  0  0  0  0
  183.4650  175.7140  135.3470 O   0  0  0  0  0  1  0  0  0  0  0  0
  188.8270  175.5980  135.9370 C   0  0  0  0  0  2  0  0  0  0  0  0
  187.3760  173.6830  136.4330 C   0  0  0  0  0  3  0  0  0  0  0  0
  188.2260  174.6080  136.8850 C   0  0  0  0  0  3  0  0  0  0  0  0
  186.7870  172.7020  137.3840 C   0  0  0  0  0  2  0  0  0  0  0  0
  185.3410  173.0660  137.6480 C   0  0  0  0  0  1  0  0  0  0  0  0
  1 51  1  1  0  0  0
  1  8  1  0  0  0  0
  1  2  1  0  0  0  0
  2 13  1  1  0  0  0
  2  5  1  0  0  0  0
  4  9  2  0  0  0  0
  5  6  1  0  0  0  0
  6  3  2  0  0  0  0
  7  5  2  0  0  0  0
  7  4  1  0  0  0  0
  8  7  1  0  0  0  0
  9  3  1  0  0  0  0
  9 23  1  0  0  0  0
 11 12  2  0  0  0  0
 12 10  1  0  0  0  0
 12 13  1  0  0  0  0
 14 10  1  1  0  0  0
 14 19  1  0  0  0  0
 17 14  1  0  0  0  0
 17 18  1  0  0  0  0
 18 19  1  0  0  0  0
 18 15  1  1  0  0  0
 19 16  1  6  0  0  0
 20 18  1  0  0  0  0
 20 21  1  0  0  0  0
 21 22  2  0  0  0  0
 23 25  1  0  0  0  0
 25 24  1  1  0  0  0
 25 36  1  0  0  0  0
 26 27  1  0  0  0  0
 27 32  2  0  0  0  0
 28 26  2  0  0  0  0
 28 30  1  0  0  0  0
 29 26  1  0  0  0  0
 30 33  2  0  0  0  0
 31 34  2  0  0  0  0
 33 32  1  0  0  0  0
 34 30  1  0  0  0  0
 35 28  1  0  0  0  0
 36 35  2  0  0  0  0
 36 31  1  0  0  0  0
 37 38  1  0  0  0  0
 37  8  1  0  0  0  0
 39 38  1  1  0  0  0
 41 40  1  0  0  0  0
 41 47  1  1  0  0  0
 42 41  1  0  0  0  0
 43 42  2  0  0  0  0
 44 46  1  0  0  0  0
 44 42  1  0  0  0  0
 45 40  1  0  0  0  0
 46 39  1  6  0  0  0
 46 45  1  0  0  0  0
 47 48  1  0  0  0  0
 49 39  1  0  0  0  0
 50 49  1  0  0  0  0
 51 53  1  0  0  0  0
 52 53  2  0  0  0  0
 52 54  1  0  0  0  0
 54 55  1  0  0  0  0
M  END
>  <MODEL>
1

>  <REMARK>
 VINA RESULT:      -8.9      0.000      0.000
  Name = 
  16 active torsions:
  status: ('A' for Active; 'I' for Inactive)
    1  A    between atoms: N_2  and  C_16
    2  A    between atoms: C_3  and  N_7
    3  A    between atoms: C_4  and  C_27
    4  A    between atoms: C_5  and  C_35
    5  A    between atoms: C_6  and  N_52
    6  A    between atoms: C_10  and  C_26
    7  A    between atoms: C_16  and  C_42
    8  A    between atoms: O_18  and  C_30
    9  A    between atoms: C_27  and  C_49
   10  A    between atoms: C_30  and  C_44
   11  A    between atoms: C_30  and  C_48
   12  A    between atoms: C_36  and  C_54
   13  A    between atoms: C_36  and  N_55
   14  A    between atoms: C_43  and  C_44
   15  A    between atoms: C_43  and  N_50
   16  A    between atoms: C_53  and  N_55
                            x       y       z     vdW  Elec       q    Type
                         _______ _______ _______ _____ _____    ______ ____

>  <TORSDO>
F 16

$$$$
=
 OpenBabel10222421063D

 55 60  0  0  1  0  0  0  0  0999 V2000
  187.7390  177.2240  136.7560 C   0  0  2  0  0  3  0  0  0  0  0  0
  188.9240  177.4960  137.7390 C   0  0  1  0  0  3  0  0  0  0  0  0
  187.9360  178.6520  141.2650 C   0  0  0  0  0  3  0  0  0  0  0  0
  186.0060  178.3810  139.8070 C   0  0  0  0  0  3  0  0  0  0  0  0
  188.2290  177.9150  138.9950 C   0  0  0  0  0  0  0  0  0  0  0  0
  188.7910  178.2540  140.2260 C   0  0  0  0  0  3  0  0  0  0  0  0
  186.8770  177.9870  138.7940 C   0  0  0  0  0  0  0  0  0  0  0  0
  186.5270  177.6090  137.4800 N   0  0  0  0  0  0  0  0  0  0  0  0
  186.5440  178.7210  141.0620 C   0  0  0  0  0  0  0  0  0  0  0  0
  191.6960  174.8670  137.4970 N   0  0  0  0  0  2  0  0  0  0  0  0
  191.2460  176.7720  136.2240 O   0  0  0  0  0  0  0  0  0  0  0  0
  190.9130  176.0180  137.1840 C   0  0  0  0  0  0  0  0  0  0  0  0
  189.7560  176.3170  137.9670 N   0  0  0  0  0  2  0  0  0  0  0  0
  192.8470  174.4680  136.7000 C   0  0  1  0  0  3  0  0  0  0  0  0
  194.9350  175.3250  138.8220 O   0  0  0  0  0  1  0  0  0  0  0  0
  194.2090  172.3880  136.7390 C   0  0  0  0  0  1  0  0  0  0  0  0
  193.8740  175.5970  136.6840 C   0  0  0  0  0  2  0  0  0  0  0  0
  194.8010  174.7610  137.5490 C   0  0  2  0  0  0  0  0  0  0  0  0
  193.7840  173.6130  137.5460 C   0  0  1  0  0  3  0  0  0  0  0  0
  196.1550  174.5230  136.8760 C   0  0  0  0  0  2  0  0  0  0  0  0
  197.2260  174.8470  137.7820 N   0  0  0  0  0  0  0  0  0  0  0  0
  198.3710  174.2870  137.6440 C   0  0  0  0  0  2  0  0  0  0  0  0
  185.7050  179.1250  142.1500 N   0  0  0  0  0  2  0  0  0  0  0  0
  183.6310  178.5510  143.1290 O   0  0  0  0  0  1  0  0  0  0  0  0
  184.9900  178.2370  143.0710 C   0  0  2  0  0  3  0  0  0  0  0  0
  188.8730  177.3760  146.0020 C   0  0  0  0  0  0  0  0  0  0  0  0
  189.4290  177.4210  147.2420 N   0  0  0  0  0  0  0  0  0  0  0  0
  187.5490  177.7960  145.8270 C   0  0  0  0  0  0  0  0  0  0  0  0
  189.8460  176.8030  144.6540 Cl  0  0  0  0  0  0  0  0  0  0  0  0
  186.8290  178.2320  146.9570 C   0  0  0  0  0  0  0  0  0  0  0  0
  184.8940  178.6440  145.5690 C   0  0  0  0  0  3  0  0  0  0  0  0
  188.7230  177.8560  148.3200 C   0  0  0  0  0  3  0  0  0  0  0  0
  187.4330  178.2550  148.1750 N   0  0  0  0  0  0  0  0  0  0  0  0
  185.5030  178.6490  146.8260 C   0  0  0  0  0  3  0  0  0  0  0  0
  186.9320  177.7980  144.5710 C   0  0  0  0  0  3  0  0  0  0  0  0
  185.6090  178.2290  144.4350 C   0  0  0  0  0  0  0  0  0  0  0  0
  185.1850  177.6810  136.9110 C   0  0  0  0  0  2  0  0  0  0  0  0
  184.2360  176.7460  137.6590 C   0  0  0  0  0  2  0  0  0  0  0  0
  182.8320  176.7590  137.0330 C   0  0  2  0  0  3  0  0  0  0  0  0
  180.9790  177.6190  140.2150 O   0  0  0  0  0  0  0  0  0  0  0  0
  181.3860  178.9640  140.3310 C   0  0  1  0  0  3  0  0  0  0  0  0
  181.4510  179.6150  138.9640 C   0  0  0  0  0  0  0  0  0  0  0  0
  181.4090  180.8670  138.8320 O   0  0  0  0  0  0  0  0  0  0  0  0
  181.7090  178.7880  137.8200 N   0  0  0  0  0  2  0  0  0  0  0  0
  181.9430  176.9500  139.4300 C   0  0  0  0  0  2  0  0  0  0  0  0
  181.7490  177.3360  137.9550 C   0  0  2  0  0  3  0  0  0  0  0  0
  180.4150  179.6910  141.2590 C   0  0  0  0  0  2  0  0  0  0  0  0
  180.3230  179.0000  142.5340 N   0  0  0  0  0  1  0  0  0  0  0  0
  182.4610  175.5310  136.4470 O   0  0  0  0  0  0  0  0  0  0  0  0
  183.2770  175.3240  135.4290 O   0  0  0  0  0  1  0  0  0  0  0  0
  187.6270  175.7870  136.2170 C   0  0  0  0  0  2  0  0  0  0  0  0
  186.2100  173.8630  136.7750 C   0  0  0  0  0  3  0  0  0  0  0  0
  186.9950  174.8550  137.2030 C   0  0  0  0  0  3  0  0  0  0  0  0
  185.5890  172.9410  137.7640 C   0  0  0  0  0  2  0  0  0  0  0  0
  184.3140  172.3680  137.1810 C   0  0  0  0  0  1  0  0  0  0  0  0
  1 51  1  1  0  0  0
  1  8  1  0  0  0  0
  1  2  1  0  0  0  0
  2 13  1  1  0  0  0
  2  5  1  0  0  0  0
  4  9  2  0  0  0  0
  5  6  1  0  0  0  0
  6  3  2  0  0  0  0
  7  5  2  0  0  0  0
  7  4  1  0  0  0  0
  8  7  1  0  0  0  0
  9  3  1  0  0  0  0
  9 23  1  0  0  0  0
 11 12  2  0  0  0  0
 12 10  1  0  0  0  0
 12 13  1  0  0  0  0
 14 10  1  1  0  0  0
 14 19  1  0  0  0  0
 17 14  1  0  0  0  0
 17 18  1  0  0  0  0
 18 15  1  1  0  0  0
 19 16  1  6  0  0  0
 19 18  1  0  0  0  0
 20 18  1  0  0  0  0
 20 21  1  0  0  0  0
 22 21  2  0  0  0  0
 23 25  1  0  0  0  0
 25 24  1  1  0  0  0
 25 36  1  0  0  0  0
 26 27  1  0  0  0  0
 27 32  2  0  0  0  0
 28 26  2  0  0  0  0
 28 30  1  0  0  0  0
 29 26  1  0  0  0  0
 30 33  2  0  0  0  0
 31 34  2  0  0  0  0
 33 32  1  0  0  0  0
 34 30  1  0  0  0  0
 35 28  1  0  0  0  0
 36 35  2  0  0  0  0
 36 31  1  0  0  0  0
 37  8  1  0  0  0  0
 37 38  1  0  0  0  0
 39 38  1  1  0  0  0
 40 41  1  0  0  0  0
 41 47  1  1  0  0  0
 42 41  1  0  0  0  0
 43 42  2  0  0  0  0
 44 46  1  0  0  0  0
 44 42  1  0  0  0  0
 45 40  1  0  0  0  0
 46 39  1  6  0  0  0
 46 45  1  0  0  0  0
 47 48  1  0  0  0  0
 49 39  1  0  0  0  0
 50 49  1  0  0  0  0
 51 53  1  0  0  0  0
 52 53  2  0  0  0  0
 52 54  1  0  0  0  0
 55 54  1  0  0  0  0
M  END
>  <MODEL>
2

>  <REMARK>
 VINA RESULT:      -8.8      1.130      1.248
  Name = 
  16 active torsions:
  status: ('A' for Active; 'I' for Inactive)
    1  A    between atoms: N_2  and  C_16
    2  A    between atoms: C_3  and  N_7
    3  A    between atoms: C_4  and  C_27
    4  A    between atoms: C_5  and  C_35
    5  A    between atoms: C_6  and  N_52
    6  A    between atoms: C_10  and  C_26
    7  A    between atoms: C_16  and  C_42
    8  A    between atoms: O_18  and  C_30
    9  A    between atoms: C_27  and  C_49
   10  A    between atoms: C_30  and  C_44
   11  A    between atoms: C_30  and  C_48
   12  A    between atoms: C_36  and  C_54
   13  A    between atoms: C_36  and  N_55
   14  A    between atoms: C_43  and  C_44
   15  A    between atoms: C_43  and  N_50
   16  A    between atoms: C_53  and  N_55
                            x       y       z     vdW  Elec       q    Type
                         _______ _______ _______ _____ _____    ______ ____

>  <TORSDO>
F 16

$$$$
=
 OpenBabel10222421063D

 55 60  0  0  1  0  0  0  0  0999 V2000
  189.0140  177.1170  136.6180 C   0  0  2  0  0  3  0  0  0  0  0  0
  190.2230  177.0010  137.6030 C   0  0  1  0  0  3  0  0  0  0  0  0
  189.4590  177.8030  141.2800 C   0  0  0  0  0  3  0  0  0  0  0  0
  187.5250  178.1390  139.8400 C   0  0  0  0  0  3  0  0  0  0  0  0
  189.6160  177.3620  138.9220 C   0  0  0  0  0  0  0  0  0  0  0  0
  190.2250  177.3990  140.1760 C   0  0  0  0  0  3  0  0  0  0  0  0
  188.3070  177.7310  138.7620 C   0  0  0  0  0  0  0  0  0  0  0  0
  187.8980  177.6270  137.4160 N   0  0  0  0  0  0  0  0  0  0  0  0
  188.1110  178.1780  141.1200 C   0  0  0  0  0  0  0  0  0  0  0  0
  192.6510  174.0510  137.3750 N   0  0  0  0  0  2  0  0  0  0  0  0
  192.9050  176.3150  136.8650 O   0  0  0  0  0  0  0  0  0  0  0  0
  192.1520  175.3840  137.2710 C   0  0  0  0  0  0  0  0  0  0  0  0
  190.7990  175.6590  137.6400 N   0  0  0  0  0  2  0  0  0  0  0  0
  193.9970  173.6890  136.9540 C   0  0  1  0  0  3  0  0  0  0  0  0
  195.4040  175.2850  139.2050 O   0  0  0  0  0  1  0  0  0  0  0  0
  195.5300  171.9080  137.7660 C   0  0  0  0  0  1  0  0  0  0  0  0
  194.8660  174.9410  136.8890 C   0  0  0  0  0  2  0  0  0  0  0  0
  195.6440  174.4600  138.1010 C   0  0  2  0  0  0  0  0  0  0  0  0
  194.7910  173.1860  138.1540 C   0  0  1  0  0  3  0  0  0  0  0  0
  197.1380  174.3110  137.8040 C   0  0  0  0  0  2  0  0  0  0  0  0
  197.8810  175.3680  138.4400 N   0  0  0  0  0  0  0  0  0  0  0  0
  198.6050  175.1100  139.4660 C   0  0  0  0  0  2  0  0  0  0  0  0
  187.3610  178.5770  142.2720 N   0  0  0  0  0  2  0  0  0  0  0  0
  185.4740  178.1000  143.6120 O   0  0  0  0  0  1  0  0  0  0  0  0
  186.7620  177.6860  143.2700 C   0  0  2  0  0  3  0  0  0  0  0  0
  191.1460  176.6290  145.2900 C   0  0  0  0  0  0  0  0  0  0  0  0
  191.9270  176.5460  146.3990 N   0  0  0  0  0  0  0  0  0  0  0  0
  189.8060  177.0160  145.4210 C   0  0  0  0  0  0  0  0  0  0  0  0
  191.8520  176.2590  143.7230 Cl  0  0  0  0  0  0  0  0  0  0  0  0
  189.3080  177.2860  146.7110 C   0  0  0  0  0  0  0  0  0  0  0  0
  187.1390  177.7880  145.7730 C   0  0  0  0  0  3  0  0  0  0  0  0
  191.4330  176.8210  147.6370 C   0  0  0  0  0  3  0  0  0  0  0  0
  190.1330  177.1860  147.7870 N   0  0  0  0  0  0  0  0  0  0  0  0
  187.9760  177.6650  146.8840 C   0  0  0  0  0  3  0  0  0  0  0  0
  188.9610  177.1450  144.3130 C   0  0  0  0  0  3  0  0  0  0  0  0
  187.6300  177.5390  144.4830 C   0  0  0  0  0  0  0  0  0  0  0  0
  186.6030  178.0470  136.8930 C   0  0  0  0  0  2  0  0  0  0  0  0
  185.4860  177.1820  137.4720 C   0  0  0  0  0  2  0  0  0  0  0  0
  184.4560  178.0360  138.2310 C   0  0  2  0  0  3  0  0  0  0  0  0
  181.5550  177.0390  136.0180 O   0  0  0  0  0  0  0  0  0  0  0  0
  181.2460  175.8070  136.6300 C   0  0  1  0  0  3  0  0  0  0  0  0
  181.4140  175.9070  138.1330 C   0  0  0  0  0  0  0  0  0  0  0  0
  180.8460  175.0950  138.9100 O   0  0  0  0  0  0  0  0  0  0  0  0
  182.3520  176.8580  138.6580 N   0  0  0  0  0  2  0  0  0  0  0  0
  182.9040  177.3340  136.3140 C   0  0  0  0  0  2  0  0  0  0  0  0
  183.0080  177.8120  137.7710 C   0  0  2  0  0  3  0  0  0  0  0  0
  179.8220  175.4120  136.2430 C   0  0  0  0  0  2  0  0  0  0  0  0
  179.7320  173.9750  136.0490 N   0  0  0  0  0  1  0  0  0  0  0  0
  184.8030  179.4000  138.3160 O   0  0  0  0  0  0  0  0  0  0  0  0
  184.6290  179.7670  139.5720 O   0  0  0  0  0  1  0  0  0  0  0  0
  188.6200  175.8270  135.8780 C   0  0  0  0  0  2  0  0  0  0  0  0
  187.6370  173.6210  136.3140 C   0  0  0  0  0  3  0  0  0  0  0  0
  187.9740  174.8250  136.7840 C   0  0  0  0  0  3  0  0  0  0  0  0
  186.9980  172.6330  137.2240 C   0  0  0  0  0  2  0  0  0  0  0  0
  185.6180  173.1240  137.6080 C   0  0  0  0  0  1  0  0  0  0  0  0
  1 51  1  1  0  0  0
  1  8  1  0  0  0  0
  1  2  1  0  0  0  0
  2 13  1  1  0  0  0
  2  5  1  0  0  0  0
  4  9  2  0  0  0  0
  5  6  1  0  0  0  0
  6  3  2  0  0  0  0
  7  5  2  0  0  0  0
  7  4  1  0  0  0  0
  8  7  1  0  0  0  0
  9  3  1  0  0  0  0
  9 23  1  0  0  0  0
 11 12  2  0  0  0  0
 12 10  1  0  0  0  0
 12 13  1  0  0  0  0
 14 10  1  1  0  0  0
 14 19  1  0  0  0  0
 17 14  1  0  0  0  0
 17 18  1  0  0  0  0
 18 19  1  0  0  0  0
 18 15  1  1  0  0  0
 19 16  1  6  0  0  0
 20 18  1  0  0  0  0
 20 21  1  0  0  0  0
 21 22  2  0  0  0  0
 23 25  1  0  0  0  0
 25 24  1  1  0  0  0
 25 36  1  0  0  0  0
 26 28  2  0  0  0  0
 26 27  1  0  0  0  0
 27 32  2  0  0  0  0
 28 30  1  0  0  0  0
 29 26  1  0  0  0  0
 30 34  1  0  0  0  0
 30 33  2  0  0  0  0
 31 34  2  0  0  0  0
 32 33  1  0  0  0  0
 35 36  2  0  0  0  0
 35 28  1  0  0  0  0
 36 31  1  0  0  0  0
 37  8  1  0  0  0  0
 37 38  1  0  0  0  0
 39 38  1  6  0  0  0
 39 49  1  0  0  0  0
 40 45  1  0  0  0  0
 40 41  1  0  0  0  0
 41 47  1  1  0  0  0
 41 42  1  0  0  0  0
 42 44  1  0  0  0  0
 42 43  2  0  0  0  0
 45 46  1  0  0  0  0
 46 39  1  1  0  0  0
 46 44  1  0  0  0  0
 48 47  1  0  0  0  0
 49 50  1  0  0  0  0
 51 53  1  0  0  0  0
 52 53  2  0  0  0  0
 52 54  1  0  0  0  0
 54 55  1  0  0  0  0
M  END
>  <MODEL>
3

>  <REMARK>
 VINA RESULT:      -8.6      1.528      2.274
  Name = 
  16 active torsions:
  status: ('A' for Active; 'I' for Inactive)
    1  A    between atoms: N_2  and  C_16
    2  A    between atoms: C_3  and  N_7
    3  A    between atoms: C_4  and  C_27
    4  A    between atoms: C_5  and  C_35
    5  A    between atoms: C_6  and  N_52
    6  A    between atoms: C_10  and  C_26
    7  A    between atoms: C_16  and  C_42
    8  A    between atoms: O_18  and  C_30
    9  A    between atoms: C_27  and  C_49
   10  A    between atoms: C_30  and  C_44
   11  A    between atoms: C_30  and  C_48
   12  A    between atoms: C_36  and  C_54
   13  A    between atoms: C_36  and  N_55
   14  A    between atoms: C_43  and  C_44
   15  A    between atoms: C_43  and  N_50
   16  A    between atoms: C_53  and  N_55
                            x       y       z     vdW  Elec       q    Type
                         _______ _______ _______ _____ _____    ______ ____

>  <TORSDO>
F 16

$$$$
=
 OpenBabel10222421063D

 55 60  0  0  1  0  0  0  0  0999 V2000
  188.9560  177.0280  136.2870 C   0  0  2  0  0  3  0  0  0  0  0  0
  190.1960  177.0800  137.2380 C   0  0  1  0  0  3  0  0  0  0  0  0
  189.4580  177.9910  140.8950 C   0  0  0  0  0  3  0  0  0  0  0  0
  187.4620  178.0620  139.5030 C   0  0  0  0  0  3  0  0  0  0  0  0
  189.5930  177.4470  138.5560 C   0  0  0  0  0  0  0  0  0  0  0  0
  190.2300  177.6070  139.7870 C   0  0  0  0  0  3  0  0  0  0  0  0
  188.2500  177.6780  138.4220 C   0  0  0  0  0  0  0  0  0  0  0  0
  187.8170  177.4660  137.0960 N   0  0  0  0  0  0  0  0  0  0  0  0
  188.0750  178.2230  140.7600 C   0  0  0  0  0  0  0  0  0  0  0  0
  192.9330  174.4260  137.5860 N   0  0  0  0  0  2  0  0  0  0  0  0
  193.0300  176.7580  137.5120 O   0  0  0  0  0  0  0  0  0  0  0  0
  192.3220  175.7110  137.4710 C   0  0  0  0  0  0  0  0  0  0  0  0
  190.9040  175.8050  137.3200 N   0  0  0  0  0  2  0  0  0  0  0  0
  194.3760  174.2560  137.6750 C   0  0  1  0  0  3  0  0  0  0  0  0
  194.4030  171.5400  136.1860 O   0  0  0  0  0  1  0  0  0  0  0  0
  196.1760  174.7530  136.0330 C   0  0  0  0  0  1  0  0  0  0  0  0
  194.6940  172.8510  138.1780 C   0  0  0  0  0  2  0  0  0  0  0  0
  195.2290  172.4840  136.8050 C   0  0  2  0  0  0  0  0  0  0  0  0
  194.9350  173.9040  136.3020 C   0  0  1  0  0  3  0  0  0  0  0  0
  196.6890  172.0300  136.8580 C   0  0  0  0  0  2  0  0  0  0  0  0
  196.7870  170.6290  136.5400 N   0  0  0  0  0  0  0  0  0  0  0  0
  197.0900  169.7860  137.4570 C   0  0  0  0  0  2  0  0  0  0  0  0
  187.3220  178.6050  141.9150 N   0  0  0  0  0  2  0  0  0  0  0  0
  185.3590  178.0960  143.1310 O   0  0  0  0  0  1  0  0  0  0  0  0
  186.6710  177.7000  142.8670 C   0  0  2  0  0  3  0  0  0  0  0  0
  190.9780  176.8800  145.1440 C   0  0  0  0  0  0  0  0  0  0  0  0
  191.6850  176.7950  146.3020 N   0  0  0  0  0  0  0  0  0  0  0  0
  189.6050  177.1500  145.1960 C   0  0  0  0  0  0  0  0  0  0  0  0
  191.8190  176.6600  143.6160 Cl  0  0  0  0  0  0  0  0  0  0  0  0
  188.9990  177.3030  146.4590 C   0  0  0  0  0  0  0  0  0  0  0  0
  186.8640  177.6840  145.3920 C   0  0  0  0  0  3  0  0  0  0  0  0
  191.0860  176.9560  147.5130 C   0  0  0  0  0  3  0  0  0  0  0  0
  189.7530  177.2070  147.5860 N   0  0  0  0  0  0  0  0  0  0  0  0
  187.6310  177.5640  146.5540 C   0  0  0  0  0  3  0  0  0  0  0  0
  188.8300  177.2760  144.0380 C   0  0  0  0  0  3  0  0  0  0  0  0
  187.4630  177.5510  144.1300 C   0  0  0  0  0  0  0  0  0  0  0  0
  186.4720  177.7300  136.5950 C   0  0  0  0  0  2  0  0  0  0  0  0
  185.4380  177.5000  137.6940 C   0  0  0  0  0  2  0  0  0  0  0  0
  184.1430  176.8960  137.1240 C   0  0  2  0  0  3  0  0  0  0  0  0
  181.8950  177.2250  140.1470 O   0  0  0  0  0  0  0  0  0  0  0  0
  182.0210  178.6150  140.3450 C   0  0  1  0  0  3  0  0  0  0  0  0
  182.0750  179.3360  139.0130 C   0  0  0  0  0  0  0  0  0  0  0  0
  181.8030  180.5610  138.9200 O   0  0  0  0  0  0  0  0  0  0  0  0
  182.5850  178.6310  137.8710 N   0  0  0  0  0  2  0  0  0  0  0  0
  183.0330  176.7920  139.4330 C   0  0  0  0  0  2  0  0  0  0  0  0
  182.8940  177.2090  137.9600 C   0  0  2  0  0  3  0  0  0  0  0  0
  180.8530  179.0950  141.2030 C   0  0  0  0  0  2  0  0  0  0  0  0
  179.7210  178.1940  141.0650 N   0  0  0  0  0  1  0  0  0  0  0  0
  184.2550  175.5310  136.7880 O   0  0  0  0  0  0  0  0  0  0  0  0
  183.9550  175.4220  135.5060 O   0  0  0  0  0  1  0  0  0  0  0  0
  188.6720  175.6680  135.6240 C   0  0  0  0  0  2  0  0  0  0  0  0
  187.7670  173.5430  136.4500 C   0  0  0  0  0  3  0  0  0  0  0  0
  187.6500  174.8710  136.3730 C   0  0  0  0  0  3  0  0  0  0  0  0
  186.7480  172.7600  137.1990 C   0  0  0  0  0  2  0  0  0  0  0  0
  185.6800  172.2800  136.2390 C   0  0  0  0  0  1  0  0  0  0  0  0
  1 51  1  1  0  0  0
  1  8  1  0  0  0  0
  1  2  1  0  0  0  0
  2 13  1  1  0  0  0
  2  5  1  0  0  0  0
  4  9  2  0  0  0  0
  5  6  1  0  0  0  0
  6  3  2  0  0  0  0
  7  5  2  0  0  0  0
  7  4  1  0  0  0  0
  8  7  1  0  0  0  0
  9  3  1  0  0  0  0
  9 23  1  0  0  0  0
 12 11  2  0  0  0  0
 12 10  1  0  0  0  0
 13 12  1  0  0  0  0
 14 10  1  6  0  0  0
 14 17  1  0  0  0  0
 18 15  1  6  0  0  0
 18 20  1  0  0  0  0
 18 17  1  0  0  0  0
 19 16  1  1  0  0  0
 19 18  1  0  0  0  0
 19 14  1  0  0  0  0
 21 20  1  0  0  0  0
 21 22  2  0  0  0  0
 23 25  1  0  0  0  0
 25 24  1  1  0  0  0
 25 36  1  0  0  0  0
 26 28  2  0  0  0  0
 26 27  1  0  0  0  0
 27 32  2  0  0  0  0
 28 30  1  0  0  0  0
 29 26  1  0  0  0  0
 30 34  1  0  0  0  0
 30 33  2  0  0  0  0
 31 34  2  0  0  0  0
 32 33  1  0  0  0  0
 35 36  2  0  0  0  0
 35 28  1  0  0  0  0
 36 31  1  0  0  0  0
 37  8  1  0  0  0  0
 37 38  1  0  0  0  0
 39 38  1  1  0  0  0
 40 41  1  0  0  0  0
 41 47  1  1  0  0  0
 42 41  1  0  0  0  0
 43 42  2  0  0  0  0
 44 46  1  0  0  0  0
 44 42  1  0  0  0  0
 45 40  1  0  0  0  0
 46 39  1  6  0  0  0
 46 45  1  0  0  0  0
 48 47  1  0  0  0  0
 49 39  1  0  0  0  0
 50 49  1  0  0  0  0
 51 53  1  0  0  0  0
 52 54  1  0  0  0  0
 53 52  2  0  0  0  0
 55 54  1  0  0  0  0
M  END
>  <MODEL>
4

>  <REMARK>
 VINA RESULT:      -8.2      1.487      1.899
  Name = 
  16 active torsions:
  status: ('A' for Active; 'I' for Inactive)
    1  A    between atoms: N_2  and  C_16
    2  A    between atoms: C_3  and  N_7
    3  A    between atoms: C_4  and  C_27
    4  A    between atoms: C_5  and  C_35
    5  A    between atoms: C_6  and  N_52
    6  A    between atoms: C_10  and  C_26
    7  A    between atoms: C_16  and  C_42
    8  A    between atoms: O_18  and  C_30
    9  A    between atoms: C_27  and  C_49
   10  A    between atoms: C_30  and  C_44
   11  A    between atoms: C_30  and  C_48
   12  A    between atoms: C_36  and  C_54
   13  A    between atoms: C_36  and  N_55
   14  A    between atoms: C_43  and  C_44
   15  A    between atoms: C_43  and  N_50
   16  A    between atoms: C_53  and  N_55
                            x       y       z     vdW  Elec       q    Type
                         _______ _______ _______ _____ _____    ______ ____

>  <TORSDO>
F 16

$$$$
=
 OpenBabel10222421063D

 55 60  0  0  1  0  0  0  0  0999 V2000
  187.3240  177.0940  136.5360 C   0  0  2  0  0  3  0  0  0  0  0  0
  188.5850  177.4000  137.4080 C   0  0  1  0  0  3  0  0  0  0  0  0
  187.8870  178.6240  140.9800 C   0  0  0  0  0  3  0  0  0  0  0  0
  185.8440  178.3010  139.6980 C   0  0  0  0  0  3  0  0  0  0  0  0
  187.9950  177.8400  138.7100 C   0  0  0  0  0  0  0  0  0  0  0  0
  188.6560  178.2120  139.8800 C   0  0  0  0  0  3  0  0  0  0  0  0
  186.6300  177.8930  138.6230 C   0  0  0  0  0  0  0  0  0  0  0  0
  186.1730  177.4830  137.3530 N   0  0  0  0  0  0  0  0  0  0  0  0
  186.4830  178.6750  140.8950 C   0  0  0  0  0  0  0  0  0  0  0  0
  191.3810  174.8160  137.0100 N   0  0  0  0  0  2  0  0  0  0  0  0
  190.8290  176.7110  135.7640 O   0  0  0  0  0  0  0  0  0  0  0  0
  190.5630  175.9530  136.7410 C   0  0  0  0  0  0  0  0  0  0  0  0
  189.4480  176.2350  137.5890 N   0  0  0  0  0  2  0  0  0  0  0  0
  192.4910  174.4340  136.1490 C   0  0  1  0  0  3  0  0  0  0  0  0
  194.6390  174.7150  138.3630 O   0  0  0  0  0  1  0  0  0  0  0  0
  193.6300  172.2450  135.8390 C   0  0  0  0  0  1  0  0  0  0  0  0
  193.6290  175.4380  136.3060 C   0  0  0  0  0  2  0  0  0  0  0  0
  194.4570  174.3820  137.0170 C   0  0  2  0  0  0  0  0  0  0  0  0
  193.3270  173.3610  136.8370 C   0  0  1  0  0  3  0  0  0  0  0  0
  195.7850  174.1160  136.3030 C   0  0  0  0  0  2  0  0  0  0  0  0
  196.8390  174.8890  136.9060 N   0  0  0  0  0  0  0  0  0  0  0  0
  197.8540  175.2410  136.2060 C   0  0  0  0  0  2  0  0  0  0  0  0
  185.7340  179.0940  142.0420 N   0  0  0  0  0  2  0  0  0  0  0  0
  183.6460  178.5600  143.0130 O   0  0  0  0  0  1  0  0  0  0  0  0
  185.0000  178.2230  142.9650 C   0  0  2  0  0  3  0  0  0  0  0  0
  188.8630  177.3510  145.9190 C   0  0  0  0  0  0  0  0  0  0  0  0
  189.4110  177.3950  147.1620 N   0  0  0  0  0  0  0  0  0  0  0  0
  187.5410  177.7750  145.7360 C   0  0  0  0  0  0  0  0  0  0  0  0
  189.8410  176.7730  144.5780 Cl  0  0  0  0  0  0  0  0  0  0  0  0
  186.8160  178.2160  146.8620 C   0  0  0  0  0  0  0  0  0  0  0  0
  184.8910  178.6340  145.4620 C   0  0  0  0  0  3  0  0  0  0  0  0
  188.7000  177.8340  148.2360 C   0  0  0  0  0  3  0  0  0  0  0  0
  187.4130  178.2380  148.0830 N   0  0  0  0  0  0  0  0  0  0  0  0
  185.4920  178.6380  146.7230 C   0  0  0  0  0  3  0  0  0  0  0  0
  186.9310  177.7790  144.4770 C   0  0  0  0  0  3  0  0  0  0  0  0
  185.6100  178.2150  144.3330 C   0  0  0  0  0  0  0  0  0  0  0  0
  184.7870  177.5290  136.8990 C   0  0  0  0  0  2  0  0  0  0  0  0
  183.8320  177.4070  138.0840 C   0  0  0  0  0  2  0  0  0  0  0  0
  182.3840  177.1890  137.6140 C   0  0  2  0  0  3  0  0  0  0  0  0
  181.2200  180.5380  138.9280 O   0  0  0  0  0  0  0  0  0  0  0  0
  181.2720  181.2610  137.7190 C   0  0  1  0  0  3  0  0  0  0  0  0
  180.8210  180.3900  136.5640 C   0  0  0  0  0  0  0  0  0  0  0  0
  180.4180  180.8940  135.4820 O   0  0  0  0  0  0  0  0  0  0  0  0
  180.9960  178.9690  136.6650 N   0  0  0  0  0  2  0  0  0  0  0  0
  182.1000  179.4420  138.8060 C   0  0  0  0  0  2  0  0  0  0  0  0
  181.4520  178.3700  137.9150 C   0  0  2  0  0  3  0  0  0  0  0  0
  180.4050  182.5110  137.8590 C   0  0  0  0  0  2  0  0  0  0  0  0
  181.0680  183.6550  137.2550 N   0  0  0  0  0  1  0  0  0  0  0  0
  181.8430  175.9460  138.0030 O   0  0  0  0  0  0  0  0  0  0  0  0
  182.7050  175.3910  138.8360 O   0  0  0  0  0  1  0  0  0  0  0  0
  187.1840  175.6450  136.0380 C   0  0  0  0  0  2  0  0  0  0  0  0
  186.3020  173.7100  137.2630 C   0  0  0  0  0  3  0  0  0  0  0  0
  186.0740  174.9110  136.7250 C   0  0  0  0  0  3  0  0  0  0  0  0
  185.1930  172.9910  137.9460 C   0  0  0  0  0  2  0  0  0  0  0  0
  184.0210  172.8590  136.9950 C   0  0  0  0  0  1  0  0  0  0  0  0
  1 51  1  1  0  0  0
  1  8  1  0  0  0  0
  1  2  1  0  0  0  0
  2 13  1  1  0  0  0
  2  5  1  0  0  0  0
  4  9  2  0  0  0  0
  5  6  1  0  0  0  0
  6  3  2  0  0  0  0
  7  5  2  0  0  0  0
  7  4  1  0  0  0  0
  8  7  1  0  0  0  0
  9  3  1  0  0  0  0
  9 23  1  0  0  0  0
 11 12  2  0  0  0  0
 12 10  1  0  0  0  0
 12 13  1  0  0  0  0
 14 17  1  0  0  0  0
 14 19  1  0  0  0  0
 14 10  1  1  0  0  0
 17 18  1  0  0  0  0
 18 15  1  1  0  0  0
 19 16  1  6  0  0  0
 19 18  1  0  0  0  0
 20 21  1  0  0  0  0
 20 18  1  0  0  0  0
 22 21  2  0  0  0  0
 23 25  1  0  0  0  0
 25 24  1  1  0  0  0
 25 36  1  0  0  0  0
 26 27  1  0  0  0  0
 27 32  2  0  0  0  0
 28 26  2  0  0  0  0
 28 30  1  0  0  0  0
 29 26  1  0  0  0  0
 30 33  2  0  0  0  0
 31 34  2  0  0  0  0
 33 32  1  0  0  0  0
 34 30  1  0  0  0  0
 35 28  1  0  0  0  0
 36 35  2  0  0  0  0
 36 31  1  0  0  0  0
 37  8  1  0  0  0  0
 37 38  1  0  0  0  0
 39 49  1  0  0  0  0
 39 38  1  1  0  0  0
 41 47  1  1  0  0  0
 41 40  1  0  0  0  0
 42 44  1  0  0  0  0
 42 41  1  0  0  0  0
 43 42  2  0  0  0  0
 44 46  1  0  0  0  0
 45 40  1  0  0  0  0
 46 39  1  6  0  0  0
 46 45  1  0  0  0  0
 48 47  1  0  0  0  0
 49 50  1  0  0  0  0
 51 53  1  0  0  0  0
 52 54  1  0  0  0  0
 53 52  2  0  0  0  0
 55 54  1  0  0  0  0
M  END
>  <MODEL>
5

>  <REMARK>
 VINA RESULT:      -8.1      1.760      2.244
  Name = 
  16 active torsions:
  status: ('A' for Active; 'I' for Inactive)
    1  A    between atoms: N_2  and  C_16
    2  A    between atoms: C_3  and  N_7
    3  A    between atoms: C_4  and  C_27
    4  A    between atoms: C_5  and  C_35
    5  A    between atoms: C_6  and  N_52
    6  A    between atoms: C_10  and  C_26
    7  A    between atoms: C_16  and  C_42
    8  A    between atoms: O_18  and  C_30
    9  A    between atoms: C_27  and  C_49
   10  A    between atoms: C_30  and  C_44
   11  A    between atoms: C_30  and  C_48
   12  A    between atoms: C_36  and  C_54
   13  A    between atoms: C_36  and  N_55
   14  A    between atoms: C_43  and  C_44
   15  A    between atoms: C_43  and  N_50
   16  A    between atoms: C_53  and  N_55
                            x       y       z     vdW  Elec       q    Type
                         _______ _______ _______ _____ _____    ______ ____

>  <TORSDO>
F 16

$$$$
=
 OpenBabel10222421063D

 55 60  0  0  1  0  0  0  0  0999 V2000
  186.3970  178.7100  140.4320 C   0  0  2  0  0  3  0  0  0  0  0  0
  185.6200  178.5740  139.0830 C   0  0  1  0  0  3  0  0  0  0  0  0
  187.6340  177.1630  136.1330 C   0  0  0  0  0  3  0  0  0  0  0  0
  188.9930  177.4340  138.1340 C   0  0  0  0  0  3  0  0  0  0  0  0
  186.6500  178.0080  138.1580 C   0  0  0  0  0  0  0  0  0  0  0  0
  186.5090  177.6490  136.8180 C   0  0  0  0  0  3  0  0  0  0  0  0
  187.8600  177.9100  138.7910 C   0  0  0  0  0  0  0  0  0  0  0  0
  187.7790  178.3310  140.1350 N   0  0  0  0  0  0  0  0  0  0  0  0
  188.8790  177.0570  136.7830 C   0  0  0  0  0  0  0  0  0  0  0  0
  182.0450  177.2490  139.4250 N   0  0  0  0  0  2  0  0  0  0  0  0
  182.9140  179.4140  139.5110 O   0  0  0  0  0  0  0  0  0  0  0  0
  183.1300  178.1740  139.3820 C   0  0  0  0  0  0  0  0  0  0  0  0
  184.4600  177.6910  139.1810 N   0  0  0  0  0  2  0  0  0  0  0  0
  180.6760  177.6660  139.6930 C   0  0  1  0  0  3  0  0  0  0  0  0
  181.3480  179.0210  142.3960 O   0  0  0  0  0  1  0  0  0  0  0  0
  179.5360  179.8420  139.3080 C   0  0  0  0  0  1  0  0  0  0  0  0
  180.2940  177.2810  141.1190 C   0  0  0  0  0  2  0  0  0  0  0  0
  180.2990  178.7470  141.5130 C   0  0  2  0  0  0  0  0  0  0  0  0
  180.6570  179.1420  140.0740 C   0  0  1  0  0  3  0  0  0  0  0  0
  178.9450  179.1990  142.0650 C   0  0  0  0  0  2  0  0  0  0  0  0
  179.1320  180.1390  143.1400 N   0  0  0  0  0  0  0  0  0  0  0  0
  178.9310  179.7710  144.3510 C   0  0  0  0  0  2  0  0  0  0  0  0
  190.0010  176.5500  136.0520 N   0  0  0  0  0  2  0  0  0  0  0  0
  189.6280  174.3040  136.6890 O   0  0  0  0  0  1  0  0  0  0  0  0
  190.5510  175.1940  136.1360 C   0  0  2  0  0  3  0  0  0  0  0  0
  194.6280  172.7680  137.5130 C   0  0  0  0  0  0  0  0  0  0  0  0
  195.8280  172.7760  138.1530 N   0  0  0  0  0  0  0  0  0  0  0  0
  193.8400  173.9250  137.5180 C   0  0  0  0  0  0  0  0  0  0  0  0
  194.1130  171.3020  136.6890 Cl  0  0  0  0  0  0  0  0  0  0  0  0
  194.3140  175.0580  138.2090 C   0  0  0  0  0  0  0  0  0  0  0  0
  192.3250  176.2780  137.5830 C   0  0  0  0  0  3  0  0  0  0  0  0
  196.2750  173.8810  138.8070 C   0  0  0  0  0  3  0  0  0  0  0  0
  195.5210  175.0100  138.8340 N   0  0  0  0  0  0  0  0  0  0  0  0
  193.5540  176.2280  138.2450 C   0  0  0  0  0  3  0  0  0  0  0  0
  192.6090  173.9860  136.8540 C   0  0  0  0  0  3  0  0  0  0  0  0
  191.8530  175.1610  136.8760 C   0  0  0  0  0  0  0  0  0  0  0  0
  188.9090  178.4550  141.0500 C   0  0  0  0  0  2  0  0  0  0  0  0
  189.2210  177.1080  141.7000 C   0  0  0  0  0  2  0  0  0  0  0  0
  190.3020  177.2500  142.7850 C   0  0  2  0  0  3  0  0  0  0  0  0
  188.0430  177.5360  145.8040 O   0  0  0  0  0  0  0  0  0  0  0  0
  188.8220  176.7910  146.7130 C   0  0  1  0  0  3  0  0  0  0  0  0
  190.2960  177.0670  146.4950 C   0  0  0  0  0  0  0  0  0  0  0  0
  191.1450  176.8380  147.3950 O   0  0  0  0  0  0  0  0  0  0  0  0
  190.7340  177.4610  145.1860 N   0  0  0  0  0  2  0  0  0  0  0  0
  188.4010  177.1260  144.5020 C   0  0  0  0  0  2  0  0  0  0  0  0
  189.7620  177.7400  144.1360 C   0  0  2  0  0  3  0  0  0  0  0  0
  188.3840  177.1410  148.1340 C   0  0  0  0  0  2  0  0  0  0  0  0
  188.1960  178.5760  148.2650 N   0  0  0  0  0  1  0  0  0  0  0  0
  191.4440  177.9580  142.3580 O   0  0  0  0  0  0  0  0  0  0  0  0
  192.0930  177.1750  141.5150 O   0  0  0  0  0  1  0  0  0  0  0  0
  185.8430  177.8950  141.6150 C   0  0  0  0  0  2  0  0  0  0  0  0
  184.7880  178.2160  143.8060 C   0  0  0  0  0  3  0  0  0  0  0  0
  185.3240  178.7680  142.7150 C   0  0  0  0  0  3  0  0  0  0  0  0
  184.2780  179.0920  144.8950 C   0  0  0  0  0  2  0  0  0  0  0  0
  184.8520  178.6300  146.2190 C   0  0  0  0  0  1  0  0  0  0  0  0
  1 51  1  1  0  0  0
  2 13  1  1  0  0  0
  2  1  1  0  0  0  0
  3  9  2  0  0  0  0
  3  6  1  0  0  0  0
  4  7  2  0  0  0  0
  5  7  1  0  0  0  0
  5  2  1  0  0  0  0
  6  5  2  0  0  0  0
  7  8  1  0  0  0  0
  8  1  1  0  0  0  0
  8 37  1  0  0  0  0
  9  4  1  0  0  0  0
 12 10  1  0  0  0  0
 12 11  2  0  0  0  0
 13 12  1  0  0  0  0
 14 10  1  1  0  0  0
 14 19  1  0  0  0  0
 14 17  1  0  0  0  0
 17 18  1  0  0  0  0
 18 20  1  0  0  0  0
 18 15  1  1  0  0  0
 19 16  1  6  0  0  0
 19 18  1  0  0  0  0
 20 21  1  0  0  0  0
 21 22  2  0  0  0  0
 23 25  1  0  0  0  0
 23  9  1  0  0  0  0
 25 24  1  1  0  0  0
 25 36  1  0  0  0  0
 26 28  2  0  0  0  0
 26 27  1  0  0  0  0
 27 32  2  0  0  0  0
 28 30  1  0  0  0  0
 29 26  1  0  0  0  0
 30 34  1  0  0  0  0
 30 33  2  0  0  0  0
 31 34  2  0  0  0  0
 32 33  1  0  0  0  0
 35 36  2  0  0  0  0
 35 28  1  0  0  0  0
 36 31  1  0  0  0  0
 37 38  1  0  0  0  0
 39 38  1  6  0  0  0
 40 41  1  0  0  0  0
 41 47  1  1  0  0  0
 42 41  1  0  0  0  0
 42 43  2  0  0  0  0
 44 42  1  0  0  0  0
 45 40  1  0  0  0  0
 46 39  1  6  0  0  0
 46 45  1  0  0  0  0
 46 44  1  0  0  0  0
 47 48  1  0  0  0  0
 49 39  1  0  0  0  0
 50 49  1  0  0  0  0
 51 53  1  0  0  0  0
 52 54  1  0  0  0  0
 53 52  2  0  0  0  0
 54 55  1  0  0  0  0
M  END
>  <MODEL>
6

>  <REMARK>
 VINA RESULT:      -8.0      2.777     10.974
  Name = 
  16 active torsions:
  status: ('A' for Active; 'I' for Inactive)
    1  A    between atoms: N_2  and  C_16
    2  A    between atoms: C_3  and  N_7
    3  A    between atoms: C_4  and  C_27
    4  A    between atoms: C_5  and  C_35
    5  A    between atoms: C_6  and  N_52
    6  A    between atoms: C_10  and  C_26
    7  A    between atoms: C_16  and  C_42
    8  A    between atoms: O_18  and  C_30
    9  A    between atoms: C_27  and  C_49
   10  A    between atoms: C_30  and  C_44
   11  A    between atoms: C_30  and  C_48
   12  A    between atoms: C_36  and  C_54
   13  A    between atoms: C_36  and  N_55
   14  A    between atoms: C_43  and  C_44
   15  A    between atoms: C_43  and  N_50
   16  A    between atoms: C_53  and  N_55
                            x       y       z     vdW  Elec       q    Type
                         _______ _______ _______ _____ _____    ______ ____

>  <TORSDO>
F 16

$$$$
=
 OpenBabel10222421063D

 55 60  0  0  1  0  0  0  0  0999 V2000
  187.9260  178.3780  140.2790 C   0  0  2  0  0  3  0  0  0  0  0  0
  187.6580  178.2270  138.7460 C   0  0  1  0  0  3  0  0  0  0  0  0
  190.2340  176.1490  136.7990 C   0  0  0  0  0  3  0  0  0  0  0  0
  190.8350  176.4040  139.1440 C   0  0  0  0  0  3  0  0  0  0  0  0
  188.8040  177.3830  138.2860 C   0  0  0  0  0  0  0  0  0  0  0  0
  189.0670  176.9030  137.0040 C   0  0  0  0  0  3  0  0  0  0  0  0
  189.6690  177.1460  139.3200 C   0  0  0  0  0  0  0  0  0  0  0  0
  189.2140  177.7270  140.5230 N   0  0  0  0  0  0  0  0  0  0  0  0
  191.1230  175.8990  137.8620 C   0  0  0  0  0  0  0  0  0  0  0  0
  183.9430  177.5960  138.0720 N   0  0  0  0  0  2  0  0  0  0  0  0
  185.1100  179.5350  138.6480 O   0  0  0  0  0  0  0  0  0  0  0  0
  185.1420  178.2930  138.4060 C   0  0  0  0  0  0  0  0  0  0  0  0
  186.3800  177.5810  138.4530 N   0  0  0  0  0  2  0  0  0  0  0  0
  182.6390  178.2460  138.0700 C   0  0  1  0  0  3  0  0  0  0  0  0
  182.2050  177.9510  141.1230 O   0  0  0  0  0  1  0  0  0  0  0  0
  181.9930  180.5920  138.5800 C   0  0  0  0  0  1  0  0  0  0  0  0
  181.6440  177.3970  138.8540 C   0  0  0  0  0  2  0  0  0  0  0  0
  181.6190  178.4440  139.9520 C   0  0  2  0  0  0  0  0  0  0  0  0
  182.5990  179.3150  139.1560 C   0  0  1  0  0  3  0  0  0  0  0  0
  180.2100  178.9890  140.1960 C   0  0  0  0  0  2  0  0  0  0  0  0
  179.9460  179.0760  141.6090 N   0  0  0  0  0  0  0  0  0  0  0  0
  178.9320  178.4700  142.1070 C   0  0  0  0  0  2  0  0  0  0  0  0
  192.2980  175.1200  137.6130 N   0  0  0  0  0  2  0  0  0  0  0  0
  193.8530  176.8990  137.6680 O   0  0  0  0  0  1  0  0  0  0  0  0
  193.6820  175.5290  137.8710 C   0  0  2  0  0  3  0  0  0  0  0  0
  195.9040  171.2290  136.8830 C   0  0  0  0  0  0  0  0  0  0  0  0
  196.7640  170.5130  136.1110 N   0  0  0  0  0  0  0  0  0  0  0  0
  195.7170  172.5910  136.6200 C   0  0  0  0  0  0  0  0  0  0  0  0
  195.0440  170.4110  138.1800 Cl  0  0  0  0  0  0  0  0  0  0  0  0
  196.4500  173.1790  135.5700 C   0  0  0  0  0  0  0  0  0  0  0  0
  195.4100  175.3110  136.0320 C   0  0  0  0  0  3  0  0  0  0  0  0
  197.4560  171.0940  135.0940 C   0  0  0  0  0  3  0  0  0  0  0  0
  197.2990  172.4170  134.8300 N   0  0  0  0  0  0  0  0  0  0  0  0
  196.2990  174.5370  135.2820 C   0  0  0  0  0  3  0  0  0  0  0  0
  194.8260  173.3740  137.3620 C   0  0  0  0  0  3  0  0  0  0  0  0
  194.6620  174.7300  137.0670 C   0  0  0  0  0  0  0  0  0  0  0  0
  189.9540  177.7540  141.7800 C   0  0  0  0  0  2  0  0  0  0  0  0
  189.8020  176.4250  142.5180 C   0  0  0  0  0  2  0  0  0  0  0  0
  190.1610  176.5690  144.0060 C   0  0  2  0  0  3  0  0  0  0  0  0
  187.0560  177.9830  145.6380 O   0  0  0  0  0  0  0  0  0  0  0  0
  187.3780  177.6870  146.9790 C   0  0  1  0  0  3  0  0  0  0  0  0
  188.8590  177.8920  147.2240 C   0  0  0  0  0  0  0  0  0  0  0  0
  189.3120  178.0660  148.3850 O   0  0  0  0  0  0  0  0  0  0  0  0
  189.7650  177.7380  146.1220 N   0  0  0  0  0  2  0  0  0  0  0  0
  187.7870  177.0940  144.8200 C   0  0  0  0  0  2  0  0  0  0  0  0
  189.2550  177.5460  144.7690 C   0  0  2  0  0  3  0  0  0  0  0  0
  186.5250  178.5660  147.8920 C   0  0  0  0  0  2  0  0  0  0  0  0
  185.8290  179.5760  147.1130 N   0  0  0  0  0  1  0  0  0  0  0  0
  191.5330  176.7940  144.2390 O   0  0  0  0  0  0  0  0  0  0  0  0
  192.0370  175.6660  144.7060 O   0  0  0  0  0  1  0  0  0  0  0  0
  186.8390  177.8170  141.2130 C   0  0  0  0  0  2  0  0  0  0  0  0
  185.1240  178.6120  142.7770 C   0  0  0  0  0  3  0  0  0  0  0  0
  186.2380  178.8720  142.0870 C   0  0  0  0  0  3  0  0  0  0  0  0
  184.5370  179.6670  143.6460 C   0  0  0  0  0  2  0  0  0  0  0  0
  183.4950  179.0460  144.5530 C   0  0  0  0  0  1  0  0  0  0  0  0
  1  8  1  0  0  0  0
  1 51  1  1  0  0  0
  2 13  1  1  0  0  0
  2  1  1  0  0  0  0
  3  6  2  0  0  0  0
  3  9  1  0  0  0  0
  4  7  1  0  0  0  0
  5  2  1  0  0  0  0
  5  7  2  0  0  0  0
  6  5  1  0  0  0  0
  7  8  1  0  0  0  0
  8 37  1  0  0  0  0
  9  4  2  0  0  0  0
 10 12  1  0  0  0  0
 12 13  1  0  0  0  0
 12 11  2  0  0  0  0
 14 10  1  1  0  0  0
 14 17  1  0  0  0  0
 14 19  1  0  0  0  0
 17 18  1  0  0  0  0
 18 20  1  0  0  0  0
 18 15  1  1  0  0  0
 19 16  1  6  0  0  0
 19 18  1  0  0  0  0
 20 21  1  0  0  0  0
 21 22  2  0  0  0  0
 23  9  1  0  0  0  0
 23 25  1  0  0  0  0
 25 24  1  6  0  0  0
 26 29  1  0  0  0  0
 27 26  2  0  0  0  0
 28 26  1  0  0  0  0
 28 35  1  0  0  0  0
 30 28  2  0  0  0  0
 31 36  1  0  0  0  0
 32 27  1  0  0  0  0
 33 32  2  0  0  0  0
 33 30  1  0  0  0  0
 34 30  1  0  0  0  0
 34 31  2  0  0  0  0
 36 35  2  0  0  0  0
 36 25  1  0  0  0  0
 37 38  1  0  0  0  0
 39 38  1  6  0  0  0
 39 49  1  0  0  0  0
 40 41  1  0  0  0  0
 41 42  1  0  0  0  0
 41 47  1  1  0  0  0
 42 43  2  0  0  0  0
 44 42  1  0  0  0  0
 45 40  1  0  0  0  0
 46 39  1  1  0  0  0
 46 45  1  0  0  0  0
 46 44  1  0  0  0  0
 48 47  1  0  0  0  0
 49 50  1  0  0  0  0
 51 53  1  0  0  0  0
 52 54  1  0  0  0  0
 53 52  2  0  0  0  0
 54 55  1  0  0  0  0
M  END
>  <MODEL>
7

>  <REMARK>
 VINA RESULT:      -8.0      2.892     11.151
  Name = 
  16 active torsions:
  status: ('A' for Active; 'I' for Inactive)
    1  A    between atoms: N_2  and  C_16
    2  A    between atoms: C_3  and  N_7
    3  A    between atoms: C_4  and  C_27
    4  A    between atoms: C_5  and  C_35
    5  A    between atoms: C_6  and  N_52
    6  A    between atoms: C_10  and  C_26
    7  A    between atoms: C_16  and  C_42
    8  A    between atoms: O_18  and  C_30
    9  A    between atoms: C_27  and  C_49
   10  A    between atoms: C_30  and  C_44
   11  A    between atoms: C_30  and  C_48
   12  A    between atoms: C_36  and  C_54
   13  A    between atoms: C_36  and  N_55
   14  A    between atoms: C_43  and  C_44
   15  A    between atoms: C_43  and  N_50
   16  A    between atoms: C_53  and  N_55
                            x       y       z     vdW  Elec       q    Type
                         _______ _______ _______ _____ _____    ______ ____

>  <TORSDO>
F 16

$$$$
=
 OpenBabel10222421063D

 55 60  0  0  1  0  0  0  0  0999 V2000
  189.6160  177.9120  137.3390 C   0  0  2  0  0  3  0  0  0  0  0  0
  190.8430  177.5270  138.2280 C   0  0  1  0  0  3  0  0  0  0  0  0
  190.0540  176.7100  141.8960 C   0  0  0  0  0  3  0  0  0  0  0  0
  188.0770  177.4060  140.6590 C   0  0  0  0  0  3  0  0  0  0  0  0
  190.2220  177.2690  139.5640 C   0  0  0  0  0  0  0  0  0  0  0  0
  190.8420  176.8580  140.7440 C   0  0  0  0  0  3  0  0  0  0  0  0
  188.8810  177.5430  139.5300 C   0  0  0  0  0  0  0  0  0  0  0  0
  188.4660  177.9480  138.2440 N   0  0  0  0  0  0  0  0  0  0  0  0
  188.6740  176.9850  141.8630 C   0  0  0  0  0  0  0  0  0  0  0  0
  193.5350  174.8930  137.5440 N   0  0  0  0  0  2  0  0  0  0  0  0
  193.6030  176.9210  138.7010 O   0  0  0  0  0  0  0  0  0  0  0  0
  192.9280  176.0930  138.0230 C   0  0  0  0  0  0  0  0  0  0  0  0
  191.5510  176.3460  137.7400 N   0  0  0  0  0  2  0  0  0  0  0  0
  194.9490  174.6050  137.7390 C   0  0  1  0  0  3  0  0  0  0  0  0
  194.8270  171.8190  136.3900 O   0  0  0  0  0  1  0  0  0  0  0  0
  196.8860  174.8550  136.2000 C   0  0  0  0  0  1  0  0  0  0  0  0
  195.1090  173.2080  138.3300 C   0  0  0  0  0  2  0  0  0  0  0  0
  195.6930  172.7220  137.0160 C   0  0  2  0  0  0  0  0  0  0  0  0
  195.5600  174.1310  136.4250 C   0  0  1  0  0  3  0  0  0  0  0  0
  197.1010  172.1470  137.1910 C   0  0  0  0  0  2  0  0  0  0  0  0
  197.0780  170.7150  137.0370 N   0  0  0  0  0  0  0  0  0  0  0  0
  198.1220  170.0260  137.3170 C   0  0  0  0  0  2  0  0  0  0  0  0
  187.9040  176.8150  143.0580 N   0  0  0  0  0  2  0  0  0  0  0  0
  188.1540  177.4790  145.3120 O   0  0  0  0  0  1  0  0  0  0  0  0
  187.6320  177.8400  144.0690 C   0  0  2  0  0  3  0  0  0  0  0  0
  183.2820  178.6440  141.8690 C   0  0  0  0  0  0  0  0  0  0  0  0
  181.9500  178.8930  141.9790 N   0  0  0  0  0  0  0  0  0  0  0  0
  184.0600  178.5430  143.0290 C   0  0  0  0  0  0  0  0  0  0  0  0
  183.9810  178.4450  140.2680 Cl  0  0  0  0  0  0  0  0  0  0  0  0
  183.4300  178.7260  144.2770 C   0  0  0  0  0  0  0  0  0  0  0  0
  185.5410  178.3650  145.3980 C   0  0  0  0  0  3  0  0  0  0  0  0
  181.3570  179.0560  143.1920 C   0  0  0  0  0  3  0  0  0  0  0  0
  182.0950  178.9740  144.3290 N   0  0  0  0  0  0  0  0  0  0  0  0
  184.1730  178.6420  145.4560 C   0  0  0  0  0  3  0  0  0  0  0  0
  185.4300  178.2620  142.9810 C   0  0  0  0  0  3  0  0  0  0  0  0
  186.1720  178.1640  144.1620 C   0  0  0  0  0  0  0  0  0  0  0  0
  187.1280  178.4160  137.8970 C   0  0  0  0  0  2  0  0  0  0  0  0
  186.1840  177.2330  137.6930 C   0  0  0  0  0  2  0  0  0  0  0  0
  185.1840  177.5060  136.5580 C   0  0  2  0  0  3  0  0  0  0  0  0
  182.7510  174.8690  137.7520 O   0  0  0  0  0  0  0  0  0  0  0  0
  181.9320  175.6940  138.5510 C   0  0  1  0  0  3  0  0  0  0  0  0
  181.7500  177.0490  137.8970 C   0  0  0  0  0  0  0  0  0  0  0  0
  180.7850  177.7980  138.2030 O   0  0  0  0  0  0  0  0  0  0  0  0
  182.7800  177.5340  137.0240 N   0  0  0  0  0  2  0  0  0  0  0  0
  184.0080  175.5000  137.6390 C   0  0  0  0  0  2  0  0  0  0  0  0
  183.8980  176.6740  136.6530 C   0  0  2  0  0  3  0  0  0  0  0  0
  180.5960  174.9880  138.7740 C   0  0  0  0  0  2  0  0  0  0  0  0
  180.5250  173.7760  137.9750 N   0  0  0  0  0  1  0  0  0  0  0  0
  185.7640  177.4810  135.2730 O   0  0  0  0  0  0  0  0  0  0  0  0
  185.3910  176.3500  134.7010 O   0  0  0  0  0  1  0  0  0  0  0  0
  189.3420  176.9940  136.1340 C   0  0  0  0  0  2  0  0  0  0  0  0
  188.2170  174.8480  135.7520 C   0  0  0  0  0  3  0  0  0  0  0  0
  188.9780  175.6030  136.5480 C   0  0  0  0  0  3  0  0  0  0  0  0
  187.8640  173.4650  136.1720 C   0  0  0  0  0  2  0  0  0  0  0  0
  188.8510  172.9920  137.2180 C   0  0  0  0  0  1  0  0  0  0  0  0
  1 51  1  6  0  0  0
  1  2  1  0  0  0  0
  1  8  1  0  0  0  0
  2 13  1  6  0  0  0
  2  5  1  0  0  0  0
  4  9  2  0  0  0  0
  5  6  1  0  0  0  0
  6  3  2  0  0  0  0
  7  5  2  0  0  0  0
  7  4  1  0  0  0  0
  8  7  1  0  0  0  0
  9  3  1  0  0  0  0
  9 23  1  0  0  0  0
 10 12  1  0  0  0  0
 12 11  2  0  0  0  0
 13 12  1  0  0  0  0
 14 10  1  6  0  0  0
 14 17  1  0  0  0  0
 18 15  1  6  0  0  0
 18 20  1  0  0  0  0
 18 17  1  0  0  0  0
 19 16  1  1  0  0  0
 19 18  1  0  0  0  0
 19 14  1  0  0  0  0
 21 20  1  0  0  0  0
 21 22  2  0  0  0  0
 23 25  1  0  0  0  0
 25 36  1  0  0  0  0
 25 24  1  1  0  0  0
 26 27  2  0  0  0  0
 26 28  1  0  0  0  0
 27 32  1  0  0  0  0
 28 30  1  0  0  0  0
 29 26  1  0  0  0  0
 30 33  1  0  0  0  0
 30 34  2  0  0  0  0
 31 34  1  0  0  0  0
 32 33  2  0  0  0  0
 35 28  2  0  0  0  0
 35 36  1  0  0  0  0
 36 31  2  0  0  0  0
 37  8  1  0  0  0  0
 38 37  1  0  0  0  0
 39 38  1  1  0  0  0
 40 41  1  0  0  0  0
 41 47  1  6  0  0  0
 42 43  2  0  0  0  0
 42 41  1  0  0  0  0
 44 42  1  0  0  0  0
 45 40  1  0  0  0  0
 46 39  1  1  0  0  0
 46 44  1  0  0  0  0
 46 45  1  0  0  0  0
 48 47  1  0  0  0  0
 49 39  1  0  0  0  0
 50 49  1  0  0  0  0
 51 53  1  0  0  0  0
 52 54  1  0  0  0  0
 52 53  2  0  0  0  0
 54 55  1  0  0  0  0
M  END
>  <MODEL>
8

>  <REMARK>
 VINA RESULT:      -7.9      2.395      3.555
  Name = 
  16 active torsions:
  status: ('A' for Active; 'I' for Inactive)
    1  A    between atoms: N_2  and  C_16
    2  A    between atoms: C_3  and  N_7
    3  A    between atoms: C_4  and  C_27
    4  A    between atoms: C_5  and  C_35
    5  A    between atoms: C_6  and  N_52
    6  A    between atoms: C_10  and  C_26
    7  A    between atoms: C_16  and  C_42
    8  A    between atoms: O_18  and  C_30
    9  A    between atoms: C_27  and  C_49
   10  A    between atoms: C_30  and  C_44
   11  A    between atoms: C_30  and  C_48
   12  A    between atoms: C_36  and  C_54
   13  A    between atoms: C_36  and  N_55
   14  A    between atoms: C_43  and  C_44
   15  A    between atoms: C_43  and  N_50
   16  A    between atoms: C_53  and  N_55
                            x       y       z     vdW  Elec       q    Type
                         _______ _______ _______ _____ _____    ______ ____

>  <TORSDO>
F 16

$$$$
=
 OpenBabel10222421063D

 55 60  0  0  1  0  0  0  0  0999 V2000
  184.4760  177.3000  136.6250 C   0  0  2  0  0  3  0  0  0  0  0  0
  185.9980  177.4590  136.9440 C   0  0  1  0  0  3  0  0  0  0  0  0
  186.8450  178.6550  140.4930 C   0  0  0  0  0  3  0  0  0  0  0  0
  184.4450  178.5680  140.0950 C   0  0  0  0  0  3  0  0  0  0  0  0
  185.9970  177.9210  138.3660 C   0  0  0  0  0  0  0  0  0  0  0  0
  187.0890  178.1970  139.1890 C   0  0  0  0  0  3  0  0  0  0  0  0
  184.7150  178.1110  138.8080 C   0  0  0  0  0  0  0  0  0  0  0  0
  183.7700  177.7800  137.8140 N   0  0  0  0  0  0  0  0  0  0  0  0
  185.5270  178.8460  140.9520 C   0  0  0  0  0  0  0  0  0  0  0  0
  188.7050  174.8840  136.1070 N   0  0  0  0  0  2  0  0  0  0  0  0
  188.5580  177.1770  135.6870 O   0  0  0  0  0  0  0  0  0  0  0  0
  188.0240  176.1370  136.1720 C   0  0  0  0  0  0  0  0  0  0  0  0
  186.7420  176.2100  136.7980 N   0  0  0  0  0  2  0  0  0  0  0  0
  189.9820  174.7270  135.4250 C   0  0  1  0  0  3  0  0  0  0  0  0
  191.6590  174.7110  138.0300 O   0  0  0  0  0  1  0  0  0  0  0  0
  191.3440  172.6960  134.9750 C   0  0  0  0  0  1  0  0  0  0  0  0
  190.9800  175.7440  135.9690 C   0  0  0  0  0  2  0  0  0  0  0  0
  191.7550  174.6210  136.6370 C   0  0  2  0  0  0  0  0  0  0  0  0
  190.7690  173.5920  136.0700 C   0  0  1  0  0  3  0  0  0  0  0  0
  193.2080  174.5620  136.1600 C   0  0  0  0  0  2  0  0  0  0  0  0
  194.1010  174.8880  137.2420 N   0  0  0  0  0  0  0  0  0  0  0  0
  195.3440  175.0940  137.0030 C   0  0  0  0  0  2  0  0  0  0  0  0
  185.3190  179.3080  142.2910 N   0  0  0  0  0  2  0  0  0  0  0  0
  183.3390  179.2970  143.5800 O   0  0  0  0  0  1  0  0  0  0  0  0
  184.5400  178.6310  143.3320 C   0  0  2  0  0  3  0  0  0  0  0  0
  188.7280  177.3020  145.5910 C   0  0  0  0  0  0  0  0  0  0  0  0
  189.4430  177.1810  146.7410 N   0  0  0  0  0  0  0  0  0  0  0  0
  187.4140  177.7830  145.6470 C   0  0  0  0  0  0  0  0  0  0  0  0
  189.4870  176.8620  144.0680 Cl  0  0  0  0  0  0  0  0  0  0  0  0
  186.8700  178.1050  146.9060 C   0  0  0  0  0  0  0  0  0  0  0  0
  184.7920  178.7420  145.8500 C   0  0  0  0  0  3  0  0  0  0  0  0
  188.9060  177.5070  147.9480 C   0  0  0  0  0  3  0  0  0  0  0  0
  187.6290  177.9630  148.0260 N   0  0  0  0  0  0  0  0  0  0  0  0
  185.5600  178.5780  147.0050 C   0  0  0  0  0  3  0  0  0  0  0  0
  186.6380  177.9540  144.4950 C   0  0  0  0  0  3  0  0  0  0  0  0
  185.3310  178.4420  144.5900 C   0  0  0  0  0  0  0  0  0  0  0  0
  182.3270  177.9730  137.9250 C   0  0  0  0  0  2  0  0  0  0  0  0
  181.9850  179.4620  137.9160 C   0  0  0  0  0  2  0  0  0  0  0  0
  180.6370  179.7280  138.6070 C   0  0  2  0  0  3  0  0  0  0  0  0
  179.2450  183.2390  138.4170 O   0  0  0  0  0  0  0  0  0  0  0  0
  180.2030  183.7910  137.5410 C   0  0  1  0  0  3  0  0  0  0  0  0
  180.6010  182.7770  136.4870 C   0  0  0  0  0  0  0  0  0  0  0  0
  181.1250  183.1350  135.4000 O   0  0  0  0  0  0  0  0  0  0  0  0
  180.5050  181.3810  136.8050 N   0  0  0  0  0  2  0  0  0  0  0  0
  179.8390  182.1250  139.0480 C   0  0  0  0  0  2  0  0  0  0  0  0
  179.8910  180.9510  138.0570 C   0  0  2  0  0  3  0  0  0  0  0  0
  179.6230  185.0590  136.9190 C   0  0  0  0  0  2  0  0  0  0  0  0
  179.2490  186.0050  137.9560 N   0  0  0  0  0  1  0  0  0  0  0  0
  180.7100  179.7140  140.0150 O   0  0  0  0  0  0  0  0  0  0  0  0
  180.1070  178.6120  140.4240 O   0  0  0  0  0  1  0  0  0  0  0  0
  184.0110  175.8850  136.2410 C   0  0  0  0  0  2  0  0  0  0  0  0
  181.7280  174.9910  136.3350 C   0  0  0  0  0  3  0  0  0  0  0  0
  182.5840  175.8570  135.7870 C   0  0  0  0  0  3  0  0  0  0  0  0
  180.3120  174.9730  135.8790 C   0  0  0  0  0  2  0  0  0  0  0  0
  179.5910  173.8110  136.5290 C   0  0  0  0  0  1  0  0  0  0  0  0
  1 51  1  1  0  0  0
  1  2  1  0  0  0  0
  1  8  1  0  0  0  0
  2 13  1  1  0  0  0
  2  5  1  0  0  0  0
  3  9  1  0  0  0  0
  4  9  2  0  0  0  0
  5  7  2  0  0  0  0
  5  6  1  0  0  0  0
  6  3  2  0  0  0  0
  7  4  1  0  0  0  0
  8 37  1  0  0  0  0
  8  7  1  0  0  0  0
  9 23  1  0  0  0  0
 10 12  1  0  0  0  0
 11 12  2  0  0  0  0
 12 13  1  0  0  0  0
 14 17  1  0  0  0  0
 14 19  1  0  0  0  0
 14 10  1  1  0  0  0
 17 18  1  0  0  0  0
 18 15  1  1  0  0  0
 19 16  1  6  0  0  0
 19 18  1  0  0  0  0
 20 18  1  0  0  0  0
 20 21  1  0  0  0  0
 22 21  2  0  0  0  0
 23 25  1  0  0  0  0
 25 24  1  1  0  0  0
 25 36  1  0  0  0  0
 26 28  2  0  0  0  0
 26 27  1  0  0  0  0
 27 32  2  0  0  0  0
 28 30  1  0  0  0  0
 29 26  1  0  0  0  0
 30 34  1  0  0  0  0
 30 33  2  0  0  0  0
 31 34  2  0  0  0  0
 32 33  1  0  0  0  0
 35 36  2  0  0  0  0
 35 28  1  0  0  0  0
 36 31  1  0  0  0  0
 38 37  1  0  0  0  0
 39 38  1  6  0  0  0
 39 49  1  0  0  0  0
 40 45  1  0  0  0  0
 41 47  1  6  0  0  0
 41 40  1  0  0  0  0
 42 44  1  0  0  0  0
 42 41  1  0  0  0  0
 43 42  2  0  0  0  0
 44 46  1  0  0  0  0
 46 39  1  1  0  0  0
 46 45  1  0  0  0  0
 47 48  1  0  0  0  0
 49 50  1  0  0  0  0
 53 51  1  0  0  0  0
 53 52  2  0  0  0  0
 54 52  1  0  0  0  0
 54 55  1  0  0  0  0
M  END
>  <MODEL>
9

>  <REMARK>
 VINA RESULT:      -7.7      2.825      4.392
  Name = 
  16 active torsions:
  status: ('A' for Active; 'I' for Inactive)
    1  A    between atoms: N_2  and  C_16
    2  A    between atoms: C_3  and  N_7
    3  A    between atoms: C_4  and  C_27
    4  A    between atoms: C_5  and  C_35
    5  A    between atoms: C_6  and  N_52
    6  A    between atoms: C_10  and  C_26
    7  A    between atoms: C_16  and  C_42
    8  A    between atoms: O_18  and  C_30
    9  A    between atoms: C_27  and  C_49
   10  A    between atoms: C_30  and  C_44
   11  A    between atoms: C_30  and  C_48
   12  A    between atoms: C_36  and  C_54
   13  A    between atoms: C_36  and  N_55
   14  A    between atoms: C_43  and  C_44
   15  A    between atoms: C_43  and  N_50
   16  A    between atoms: C_53  and  N_55
                            x       y       z     vdW  Elec       q    Type
                         _______ _______ _______ _____ _____    ______ ____

>  <TORSDO>
F 16

$$$$
