=
 OpenBabel10222418193D

 34 39  0  0  1  0  0  0  0  0999 V2000
  191.9390  175.5790  137.1460 C   0  0  0  0  0  0  0  0  0  0  0  0
  187.5750  178.7210  136.8170 C   0  0  0  0  0  2  0  0  0  0  0  0
  189.6990  174.7120  136.3160 N   0  0  0  0  0  2  0  0  0  0  0  0
  191.1130  174.8720  136.1430 C   0  0  0  0  0  0  0  0  0  0  0  0
  193.1690  174.4490  134.8110 C   0  0  0  0  0  2  0  0  0  0  0  0
  193.2030  175.8950  136.8700 C   0  0  0  0  0  3  0  0  0  0  0  0
  186.2310  175.8440  136.5930 C   0  0  0  0  0  0  0  0  0  0  0  0
  187.4590  175.2030  137.1570 C   0  0  2  0  0  3  0  0  0  0  0  0
  188.8480  175.6060  137.0010 N   0  0  2  0  0  0  0  0  0  0  0  0
  186.3060  178.2420  137.4040 C   0  0  0  0  0  2  0  0  0  0  0  0
  185.7800  177.0680  136.7070 N   0  0  0  0  0  0  0  0  0  0  0  0
  191.6850  174.3640  135.0470 C   0  0  0  0  0  3  0  0  0  0  0  0
  189.3170  176.9240  137.3250 C   0  0  2  0  0  3  0  0  0  0  0  0
  185.3060  174.8150  136.2770 N   0  0  0  0  0  0  0  0  0  0  0  0
  193.7820  175.5030  135.6210 N   0  0  0  0  0  0  0  0  0  0  0  0
  191.3570  175.9480  138.4640 C   0  0  0  0  0  2  0  0  0  0  0  0
  195.1260  175.9430  135.2980 C   0  0  0  0  0  1  0  0  0  0  0  0
  190.4180  177.1400  138.3350 C   0  0  2  0  0  3  0  0  0  0  0  0
  185.8290  173.6990  136.6580 C   0  0  0  0  0  3  0  0  0  0  0  0
  188.5460  177.9140  137.0340 C   0  0  0  0  0  2  0  0  0  0  0  0
  187.1740  173.9020  137.1880 C   0  0  0  0  0  2  0  0  0  0  0  0
  190.7980  177.6250  141.0740 S   0  0  0  0  0  0  0  0  0  0  0  0
  189.8650  177.4700  139.6860 C   0  0  0  0  0  0  0  0  0  0  0  0
  188.5480  177.6440  139.9430 N   0  0  0  0  0  0  0  0  0  0  0  0
  188.3140  177.9120  141.2550 C   0  0  0  0  0  3  0  0  0  0  0  0
  189.4610  177.9370  142.0430 C   0  0  0  0  0  0  0  0  0  0  0  0
  190.9750  177.1790  145.3310 N   0  0  0  0  0  0  0  0  0  0  0  0
  189.5220  178.2140  143.5090 C   0  0  1  0  0  3  0  0  0  0  0  0
  189.5350  176.6640  144.4540 S   0  0  0  0  0  0  0  0  0  0  0  0
  190.7070  178.9940  143.8350 N   0  0  0  0  0  2  0  0  0  0  0  0
  191.6680  178.0830  144.4330 C   0  0  0  0  0  2  0  0  0  0  0  0
  191.8260  176.0100  145.4860 C   0  0  0  0  0  2  0  0  0  0  0  0
  191.7310  176.9250  147.7390 N   0  0  0  0  0  1  0  0  0  0  0  0
  192.1350  175.7720  146.9550 C   0  0  0  0  0  2  0  0  0  0  0  0
  1 16  1  0  0  0  0
  2 20  1  0  0  0  0
  2 10  1  0  0  0  0
  4  3  1  0  0  0  0
  4  1  1  0  0  0  0
  5 12  1  0  0  0  0
  5 15  1  0  0  0  0
  6  1  2  0  0  0  0
  7 11  2  0  0  0  0
  7  8  1  0  0  0  0
  8 21  1  6  0  0  0
  9  3  1  6  0  0  0
  9  8  1  0  0  0  0
  9 13  1  0  0  0  0
 11 10  1  0  0  0  0
 12  4  2  0  0  0  0
 13 20  1  1  0  0  0
 13 18  1  0  0  0  0
 14  7  1  0  0  0  0
 14 19  2  0  0  0  0
 15  6  1  0  0  0  0
 17 15  1  0  0  0  0
 18 16  1  0  0  0  0
 18 23  1  1  0  0  0
 19 21  1  0  0  0  0
 22 26  1  0  0  0  0
 23 24  2  0  0  0  0
 23 22  1  0  0  0  0
 24 25  1  0  0  0  0
 25 26  2  0  0  0  0
 27 32  1  0  0  0  0
 28 26  1  6  0  0  0
 28 30  1  0  0  0  0
 28 29  1  0  0  0  0
 29 27  1  0  0  0  0
 30 31  1  0  0  0  0
 31 27  1  0  0  0  0
 32 34  1  0  0  0  0
 34 33  1  0  0  0  0
M  END
>  <MODEL>
1

>  <REMARK>
 VINA RESULT:      -7.6      0.000      0.000
  Name = 
  4 active torsions:
  status: ('A' for Active; 'I' for Inactive)
    1  A    between atoms: N_3  and  C_30
    2  A    between atoms: C_8  and  C_27
    3  A    between atoms: C_14  and  C_31
    4  A    between atoms: C_15  and  C_30
                            x       y       z     vdW  Elec       q    Type
                         _______ _______ _______ _____ _____    ______ ____

>  <TORSDO>
F 4

$$$$
=
 OpenBabel10222418193D

 34 39  0  0  1  0  0  0  0  0999 V2000
  180.7260  180.5520  137.4250 C   0  0  0  0  0  0  0  0  0  0  0  0
  184.7710  179.0990  140.6730 C   0  0  0  0  0  2  0  0  0  0  0  0
  180.4760  180.4680  139.9520 N   0  0  0  0  0  2  0  0  0  0  0  0
  180.3390  181.1710  138.7100 C   0  0  0  0  0  0  0  0  0  0  0  0
  179.6270  183.2040  137.4690 C   0  0  0  0  0  2  0  0  0  0  0  0
  180.7840  181.2880  136.3160 C   0  0  0  0  0  3  0  0  0  0  0  0
  182.3070  178.8460  142.6730 C   0  0  0  0  0  0  0  0  0  0  0  0
  181.3490  178.8150  141.5240 C   0  0  2  0  0  3  0  0  0  0  0  0
  181.4510  179.4880  140.2380 N   0  0  2  0  0  0  0  0  0  0  0  0
  184.5200  178.0770  141.7100 C   0  0  0  0  0  2  0  0  0  0  0  0
  183.5790  178.5400  142.7300 N   0  0  0  0  0  0  0  0  0  0  0  0
  179.8460  182.4130  138.7300 C   0  0  0  0  0  3  0  0  0  0  0  0
  182.5870  179.3440  139.3710 C   0  0  2  0  0  3  0  0  0  0  0  0
  181.5500  178.8010  143.8730 N   0  0  0  0  0  0  0  0  0  0  0  0
  180.4200  182.6730  136.3580 N   0  0  0  0  0  0  0  0  0  0  0  0
  181.0600  179.1040  137.3660 C   0  0  0  0  0  2  0  0  0  0  0  0
  180.5860  183.4810  135.1660 C   0  0  0  0  0  1  0  0  0  0  0  0
  182.4360  178.8340  137.9580 C   0  0  2  0  0  3  0  0  0  0  0  0
  180.3110  178.6750  143.5410 C   0  0  0  0  0  3  0  0  0  0  0  0
  183.7490  179.2920  139.9240 C   0  0  0  0  0  2  0  0  0  0  0  0
  180.1500  178.7030  142.0900 C   0  0  0  0  0  2  0  0  0  0  0  0
  183.6810  176.6630  136.6840 S   0  0  0  0  0  0  0  0  0  0  0  0
  182.7230  177.3680  137.8720 C   0  0  0  0  0  0  0  0  0  0  0  0
  182.2140  176.4450  138.7190 N   0  0  0  0  0  0  0  0  0  0  0  0
  182.6130  175.1840  138.4040 C   0  0  0  0  0  3  0  0  0  0  0  0
  183.4390  175.1130  137.2860 C   0  0  0  0  0  0  0  0  0  0  0  0
  186.4480  173.3640  136.0350 N   0  0  0  0  0  0  0  0  0  0  0  0
  184.0420  173.8750  136.7080 C   0  0  1  0  0  3  0  0  0  0  0  0
  185.1280  174.2840  135.3120 S   0  0  0  0  0  0  0  0  0  0  0  0
  184.7990  173.1520  137.7210 N   0  0  0  0  0  2  0  0  0  0  0  0
  186.2070  173.4060  137.4640 C   0  0  0  0  0  2  0  0  0  0  0  0
  187.6740  174.1090  135.7960 C   0  0  0  0  0  2  0  0  0  0  0  0
  188.0920  176.4930  136.0510 N   0  0  0  0  0  1  0  0  0  0  0  0
  187.7850  175.2700  136.7700 C   0  0  0  0  0  2  0  0  0  0  0  0
  1  4  1  0  0  0  0
  2 10  1  0  0  0  0
  4 12  2  0  0  0  0
  4  3  1  0  0  0  0
  5 12  1  0  0  0  0
  6 15  1  0  0  0  0
  6  1  2  0  0  0  0
  7 11  2  0  0  0  0
  7 14  1  0  0  0  0
  8 21  1  1  0  0  0
  8  7  1  0  0  0  0
  9  3  1  1  0  0  0
  9  8  1  0  0  0  0
 10 11  1  0  0  0  0
 13 20  1  1  0  0  0
 13  9  1  0  0  0  0
 15  5  1  0  0  0  0
 16  1  1  0  0  0  0
 16 18  1  0  0  0  0
 17 15  1  0  0  0  0
 18 23  1  1  0  0  0
 18 13  1  0  0  0  0
 19 14  2  0  0  0  0
 20  2  1  0  0  0  0
 21 19  1  0  0  0  0
 22 26  1  0  0  0  0
 22 23  1  0  0  0  0
 23 24  2  0  0  0  0
 25 24  1  0  0  0  0
 26 25  2  0  0  0  0
 27 31  1  0  0  0  0
 28 26  1  1  0  0  0
 28 30  1  0  0  0  0
 29 27  1  0  0  0  0
 29 28  1  0  0  0  0
 31 30  1  0  0  0  0
 32 27  1  0  0  0  0
 32 34  1  0  0  0  0
 33 34  1  0  0  0  0
M  END
>  <MODEL>
2

>  <REMARK>
 VINA RESULT:      -6.9      5.690     10.394
  Name = 
  4 active torsions:
  status: ('A' for Active; 'I' for Inactive)
    1  A    between atoms: N_3  and  C_30
    2  A    between atoms: C_8  and  C_27
    3  A    between atoms: C_14  and  C_31
    4  A    between atoms: C_15  and  C_30
                            x       y       z     vdW  Elec       q    Type
                         _______ _______ _______ _____ _____    ______ ____

>  <TORSDO>
F 4

$$$$
=
 OpenBabel10222418193D

 34 39  0  0  1  0  0  0  0  0999 V2000
  181.3500  174.8190  138.2450 C   0  0  0  0  0  0  0  0  0  0  0  0
  181.2980  180.0990  137.1760 C   0  0  0  0  0  2  0  0  0  0  0  0
  180.2880  176.5130  139.8120 N   0  0  0  0  0  2  0  0  0  0  0  0
  180.2110  175.2970  139.0570 C   0  0  0  0  0  0  0  0  0  0  0  0
  178.9320  173.2780  138.3740 C   0  0  0  0  0  2  0  0  0  0  0  0
  181.1900  173.8060  137.3950 C   0  0  0  0  0  3  0  0  0  0  0  0
  180.5660  180.1310  140.2740 C   0  0  0  0  0  0  0  0  0  0  0  0
  181.0840  178.7370  140.4330 C   0  0  2  0  0  3  0  0  0  0  0  0
  181.0600  177.6440  139.4730 N   0  0  2  0  0  0  0  0  0  0  0  0
  181.7410  181.0420  138.2230 C   0  0  0  0  0  2  0  0  0  0  0  0
  180.8460  181.0470  139.3810 N   0  0  0  0  0  0  0  0  0  0  0  0
  179.0790  174.5870  139.1010 C   0  0  0  0  0  3  0  0  0  0  0  0
  181.6070  177.7580  138.1500 C   0  0  2  0  0  3  0  0  0  0  0  0
  180.0500  180.5510  141.5270 N   0  0  0  0  0  0  0  0  0  0  0  0
  179.9240  173.1410  137.3070 N   0  0  0  0  0  0  0  0  0  0  0  0
  182.6790  175.4750  138.3660 C   0  0  0  0  0  2  0  0  0  0  0  0
  179.7400  172.1090  136.3050 C   0  0  0  0  0  1  0  0  0  0  0  0
  182.6910  176.8270  137.6650 C   0  0  2  0  0  3  0  0  0  0  0  0
  180.2790  179.6050  142.3730 C   0  0  0  0  0  3  0  0  0  0  0  0
  181.4350  178.8770  137.5340 C   0  0  0  0  0  2  0  0  0  0  0  0
  180.8990  178.4560  141.7210 C   0  0  0  0  0  2  0  0  0  0  0  0
  185.3020  177.2330  136.7160 S   0  0  0  0  0  0  0  0  0  0  0  0
  184.0470  177.4400  137.8150 C   0  0  0  0  0  0  0  0  0  0  0  0
  184.4230  178.1990  138.8690 N   0  0  0  0  0  0  0  0  0  0  0  0
  185.7150  178.6120  138.7700 C   0  0  0  0  0  3  0  0  0  0  0  0
  186.3670  178.1610  137.6260 C   0  0  0  0  0  0  0  0  0  0  0  0
  189.9550  177.3010  137.8900 N   0  0  0  0  0  0  0  0  0  0  0  0
  187.7780  178.4580  137.2370 C   0  0  1  0  0  3  0  0  0  0  0  0
  188.8630  178.4300  138.6920 S   0  0  0  0  0  0  0  0  0  0  0  0
  188.2540  177.4940  136.2550 N   0  0  0  0  0  2  0  0  0  0  0  0
  189.1260  176.5660  136.9540 C   0  0  0  0  0  2  0  0  0  0  0  0
  190.4000  176.3470  138.8930 C   0  0  0  0  0  2  0  0  0  0  0  0
  190.4400  176.3620  141.3270 N   0  0  0  0  0  1  0  0  0  0  0  0
  190.8760  177.0740  140.1400 C   0  0  0  0  0  2  0  0  0  0  0  0
  1 16  1  0  0  0  0
  1  4  1  0  0  0  0
  2 20  1  0  0  0  0
  2 10  1  0  0  0  0
  4 12  2  0  0  0  0
  4  3  1  0  0  0  0
  5 12  1  0  0  0  0
  6  1  2  0  0  0  0
  7  8  1  0  0  0  0
  7 14  1  0  0  0  0
  8 21  1  1  0  0  0
  9  3  1  6  0  0  0
  9  8  1  0  0  0  0
 10 11  1  0  0  0  0
 11  7  2  0  0  0  0
 13 20  1  1  0  0  0
 13  9  1  0  0  0  0
 14 19  2  0  0  0  0
 15  6  1  0  0  0  0
 15  5  1  0  0  0  0
 17 15  1  0  0  0  0
 18 23  1  1  0  0  0
 18 13  1  0  0  0  0
 18 16  1  0  0  0  0
 21 19  1  0  0  0  0
 22 26  1  0  0  0  0
 22 23  1  0  0  0  0
 23 24  2  0  0  0  0
 25 24  1  0  0  0  0
 26 25  2  0  0  0  0
 27 29  1  0  0  0  0
 27 32  1  0  0  0  0
 28 26  1  1  0  0  0
 28 29  1  0  0  0  0
 30 31  1  0  0  0  0
 30 28  1  0  0  0  0
 31 27  1  0  0  0  0
 32 34  1  0  0  0  0
 34 33  1  0  0  0  0
M  END
>  <MODEL>
3

>  <REMARK>
 VINA RESULT:      -6.8      5.059      8.951
  Name = 
  4 active torsions:
  status: ('A' for Active; 'I' for Inactive)
    1  A    between atoms: N_3  and  C_30
    2  A    between atoms: C_8  and  C_27
    3  A    between atoms: C_14  and  C_31
    4  A    between atoms: C_15  and  C_30
                            x       y       z     vdW  Elec       q    Type
                         _______ _______ _______ _____ _____    ______ ____

>  <TORSDO>
F 4

$$$$
=
 OpenBabel10222418193D

 34 39  0  0  1  0  0  0  0  0999 V2000
  189.3540  177.6280  141.5400 C   0  0  0  0  0  0  0  0  0  0  0  0
  189.1220  179.1520  136.3780 C   0  0  0  0  0  2  0  0  0  0  0  0
  190.4030  176.2630  139.6710 N   0  0  0  0  0  2  0  0  0  0  0  0
  190.5030  176.9120  140.9450 C   0  0  0  0  0  0  0  0  0  0  0  0
  191.8430  177.4750  142.9630 C   0  0  0  0  0  2  0  0  0  0  0  0
  189.5240  178.3930  142.6180 C   0  0  0  0  0  3  0  0  0  0  0  0
  189.9800  176.1060  136.0410 C   0  0  0  0  0  0  0  0  0  0  0  0
  189.5330  175.8030  137.4360 C   0  0  2  0  0  3  0  0  0  0  0  0
  189.5660  176.6640  138.6080 N   0  0  2  0  0  0  0  0  0  0  0  0
  188.6800  178.1720  135.3650 C   0  0  0  0  0  2  0  0  0  0  0  0
  189.6220  177.0610  135.2200 N   0  0  0  0  0  0  0  0  0  0  0  0
  191.6670  176.8590  141.6010 C   0  0  0  0  0  3  0  0  0  0  0  0
  188.9610  177.9660  138.6350 C   0  0  2  0  0  3  0  0  0  0  0  0
  190.5280  174.9180  135.4900 N   0  0  0  0  0  0  0  0  0  0  0  0
  190.8140  178.4800  143.2340 N   0  0  0  0  0  0  0  0  0  0  0  0
  188.0030  177.5030  140.9320 C   0  0  0  0  0  2  0  0  0  0  0  0
  191.0030  179.3960  144.3430 C   0  0  0  0  0  1  0  0  0  0  0  0
  187.9000  178.3180  139.6500 C   0  0  2  0  0  3  0  0  0  0  0  0
  190.3780  173.9840  136.3660 C   0  0  0  0  0  3  0  0  0  0  0  0
  189.0560  178.6840  137.5690 C   0  0  0  0  0  2  0  0  0  0  0  0
  189.7840  174.5050  137.5930 C   0  0  0  0  0  2  0  0  0  0  0  0
  186.1000  176.9930  137.9510 S   0  0  0  0  0  0  0  0  0  0  0  0
  186.5250  178.1600  139.0820 C   0  0  0  0  0  0  0  0  0  0  0  0
  185.4810  178.9630  139.3920 N   0  0  0  0  0  0  0  0  0  0  0  0
  184.3510  178.6170  138.7200 C   0  0  0  0  0  3  0  0  0  0  0  0
  184.5120  177.5330  137.8610 C   0  0  0  0  0  0  0  0  0  0  0  0
  183.1140  174.5010  136.2700 N   0  0  0  0  0  0  0  0  0  0  0  0
  183.4540  176.9190  137.0040 C   0  0  1  0  0  3  0  0  0  0  0  0
  184.1930  175.8060  135.7740 S   0  0  0  0  0  0  0  0  0  0  0  0
  182.4970  176.1830  137.8170 N   0  0  0  0  0  2  0  0  0  0  0  0
  182.7990  174.7710  137.6590 C   0  0  0  0  0  2  0  0  0  0  0  0
  183.8890  173.2700  136.2480 C   0  0  0  0  0  2  0  0  0  0  0  0
  185.9990  173.0040  137.4320 N   0  0  0  0  0  1  0  0  0  0  0  0
  184.5570  173.0420  137.5940 C   0  0  0  0  0  2  0  0  0  0  0  0
  1  6  2  0  0  0  0
  2 20  1  0  0  0  0
  3  4  1  0  0  0  0
  4  1  1  0  0  0  0
  4 12  2  0  0  0  0
  5 15  1  0  0  0  0
  6 15  1  0  0  0  0
  7  8  1  0  0  0  0
  8 21  1  1  0  0  0
  8  9  1  0  0  0  0
  9 13  1  0  0  0  0
  9  3  1  6  0  0  0
 10  2  1  0  0  0  0
 11 10  1  0  0  0  0
 11  7  2  0  0  0  0
 12  5  1  0  0  0  0
 13 20  1  6  0  0  0
 13 18  1  0  0  0  0
 14  7  1  0  0  0  0
 14 19  2  0  0  0  0
 15 17  1  0  0  0  0
 16  1  1  0  0  0  0
 18 23  1  6  0  0  0
 18 16  1  0  0  0  0
 19 21  1  0  0  0  0
 22 23  1  0  0  0  0
 23 24  2  0  0  0  0
 25 24  1  0  0  0  0
 26 22  1  0  0  0  0
 26 25  2  0  0  0  0
 27 31  1  0  0  0  0
 28 30  1  0  0  0  0
 28 26  1  1  0  0  0
 29 27  1  0  0  0  0
 29 28  1  0  0  0  0
 31 30  1  0  0  0  0
 32 27  1  0  0  0  0
 32 34  1  0  0  0  0
 33 34  1  0  0  0  0
M  END
>  <MODEL>
4

>  <REMARK>
 VINA RESULT:      -6.3      2.885      7.168
  Name = 
  4 active torsions:
  status: ('A' for Active; 'I' for Inactive)
    1  A    between atoms: N_3  and  C_30
    2  A    between atoms: C_8  and  C_27
    3  A    between atoms: C_14  and  C_31
    4  A    between atoms: C_15  and  C_30
                            x       y       z     vdW  Elec       q    Type
                         _______ _______ _______ _____ _____    ______ ____

>  <TORSDO>
F 4

$$$$
=
 OpenBabel10222418193D

 34 39  0  0  1  0  0  0  0  0999 V2000
  184.6430  178.7900  142.7110 C   0  0  0  0  0  0  0  0  0  0  0  0
  182.0570  175.5750  139.2480 C   0  0  0  0  0  2  0  0  0  0  0  0
  182.2210  179.1770  142.0450 N   0  0  0  0  0  2  0  0  0  0  0  0
  183.2250  179.0250  143.0580 C   0  0  0  0  0  0  0  0  0  0  0  0
  183.8520  178.9970  145.4630 C   0  0  0  0  0  2  0  0  0  0  0  0
  185.5170  178.4480  143.6570 C   0  0  0  0  0  3  0  0  0  0  0  0
  180.1040  178.0880  139.2680 C   0  0  0  0  0  0  0  0  0  0  0  0
  181.1810  178.9480  139.8470 C   0  0  2  0  0  3  0  0  0  0  0  0
  182.2440  178.5770  140.7680 N   0  0  2  0  0  0  0  0  0  0  0  0
  181.3210  176.1860  138.1220 C   0  0  0  0  0  2  0  0  0  0  0  0
  180.1790  176.9820  138.5720 N   0  0  0  0  0  0  0  0  0  0  0  0
  182.8560  179.1020  144.3410 C   0  0  0  0  0  3  0  0  0  0  0  0
  183.1620  177.5030  140.5070 C   0  0  2  0  0  3  0  0  0  0  0  0
  178.9310  178.8780  139.1490 N   0  0  0  0  0  0  0  0  0  0  0  0
  185.0940  178.3590  145.0220 N   0  0  0  0  0  0  0  0  0  0  0  0
  185.0980  178.9270  141.3020 C   0  0  0  0  0  2  0  0  0  0  0  0
  186.0340  177.8880  146.0210 C   0  0  0  0  0  1  0  0  0  0  0  0
  184.6520  177.7370  140.4630 C   0  0  2  0  0  3  0  0  0  0  0  0
  179.2360  180.0760  139.5160 C   0  0  0  0  0  3  0  0  0  0  0  0
  182.6880  176.4450  139.9450 C   0  0  0  0  0  2  0  0  0  0  0  0
  180.6190  180.1480  139.9760 C   0  0  0  0  0  2  0  0  0  0  0  0
  186.7580  177.9190  138.6150 S   0  0  0  0  0  0  0  0  0  0  0  0
  185.1370  177.9230  139.0600 C   0  0  0  0  0  0  0  0  0  0  0  0
  184.3250  178.1500  138.0020 N   0  0  0  0  0  0  0  0  0  0  0  0
  185.0230  178.3060  136.8460 C   0  0  0  0  0  3  0  0  0  0  0  0
  186.4040  178.2120  136.9980 C   0  0  0  0  0  0  0  0  0  0  0  0
  189.4870  176.9130  135.4230 N   0  0  0  0  0  0  0  0  0  0  0  0
  187.4240  178.3290  135.9140 C   0  0  1  0  0  3  0  0  0  0  0  0
  189.1000  178.1740  136.5930 S   0  0  0  0  0  0  0  0  0  0  0  0
  187.2120  177.3070  134.8990 N   0  0  0  0  0  2  0  0  0  0  0  0
  188.2210  176.2820  135.1070 C   0  0  0  0  0  2  0  0  0  0  0  0
  190.2910  175.9160  136.1140 C   0  0  0  0  0  2  0  0  0  0  0  0
  191.0100  175.2180  138.3310 N   0  0  0  0  0  1  0  0  0  0  0  0
  189.9690  175.9160  137.5990 C   0  0  0  0  0  2  0  0  0  0  0  0
  1  4  1  0  0  0  0
  1  6  2  0  0  0  0
  2 20  1  0  0  0  0
  3  4  1  0  0  0  0
  4 12  2  0  0  0  0
  6 15  1  0  0  0  0
  7  8  1  0  0  0  0
  8 21  1  1  0  0  0
  8  9  1  0  0  0  0
  9  3  1  1  0  0  0
 10 11  1  0  0  0  0
 10  2  1  0  0  0  0
 11  7  2  0  0  0  0
 12  5  1  0  0  0  0
 13 20  1  6  0  0  0
 13  9  1  0  0  0  0
 14  7  1  0  0  0  0
 14 19  2  0  0  0  0
 15  5  1  0  0  0  0
 15 17  1  0  0  0  0
 16  1  1  0  0  0  0
 18 23  1  6  0  0  0
 18 13  1  0  0  0  0
 18 16  1  0  0  0  0
 19 21  1  0  0  0  0
 22 23  1  0  0  0  0
 24 23  2  0  0  0  0
 25 26  2  0  0  0  0
 25 24  1  0  0  0  0
 26 22  1  0  0  0  0
 27 32  1  0  0  0  0
 27 29  1  0  0  0  0
 28 29  1  0  0  0  0
 28 26  1  1  0  0  0
 30 31  1  0  0  0  0
 30 28  1  0  0  0  0
 31 27  1  0  0  0  0
 32 34  1  0  0  0  0
 34 33  1  0  0  0  0
M  END
>  <MODEL>
5

>  <REMARK>
 VINA RESULT:      -6.2      4.646      9.037
  Name = 
  4 active torsions:
  status: ('A' for Active; 'I' for Inactive)
    1  A    between atoms: N_3  and  C_30
    2  A    between atoms: C_8  and  C_27
    3  A    between atoms: C_14  and  C_31
    4  A    between atoms: C_15  and  C_30
                            x       y       z     vdW  Elec       q    Type
                         _______ _______ _______ _____ _____    ______ ____

>  <TORSDO>
F 4

$$$$
=
 OpenBabel10222418193D

 34 39  0  0  1  0  0  0  0  0999 V2000
  181.3970  181.2500  137.9450 C   0  0  0  0  0  0  0  0  0  0  0  0
  181.7590  176.2340  139.8770 C   0  0  0  0  0  2  0  0  0  0  0  0
  181.0860  179.2010  136.4750 N   0  0  0  0  0  2  0  0  0  0  0  0
  180.6240  180.4710  136.9540 C   0  0  0  0  0  0  0  0  0  0  0  0
  178.9350  182.2950  136.9000 C   0  0  0  0  0  2  0  0  0  0  0  0
  180.8560  182.3190  138.5280 C   0  0  0  0  0  3  0  0  0  0  0  0
  181.9820  175.6650  136.7530 C   0  0  0  0  0  0  0  0  0  0  0  0
  182.3270  177.0980  136.4940 C   0  0  2  0  0  3  0  0  0  0  0  0
  181.8720  178.2840  137.2040 N   0  0  2  0  0  0  0  0  0  0  0  0
  182.6160  175.2590  139.1710 C   0  0  0  0  0  2  0  0  0  0  0  0
  182.1110  174.9400  137.8360 N   0  0  0  0  0  0  0  0  0  0  0  0
  179.4680  180.9510  136.4830 C   0  0  0  0  0  3  0  0  0  0  0  0
  182.0160  178.4450  138.6240 C   0  0  2  0  0  3  0  0  0  0  0  0
  181.9200  174.9990  135.5010 N   0  0  0  0  0  0  0  0  0  0  0  0
  179.5410  182.7480  138.1530 N   0  0  0  0  0  0  0  0  0  0  0  0
  182.7800  180.8370  138.3030 C   0  0  0  0  0  2  0  0  0  0  0  0
  178.9310  183.8510  138.8700 C   0  0  0  0  0  1  0  0  0  0  0  0
  182.7710  179.6140  139.2090 C   0  0  2  0  0  3  0  0  0  0  0  0
  182.2550  175.8520  134.5950 C   0  0  0  0  0  3  0  0  0  0  0  0
  181.8260  177.4040  139.3590 C   0  0  0  0  0  2  0  0  0  0  0  0
  182.4920  177.1700  135.1760 C   0  0  0  0  0  2  0  0  0  0  0  0
  185.2620  178.5730  138.4420 S   0  0  0  0  0  0  0  0  0  0  0  0
  184.1820  179.2440  139.5400 C   0  0  0  0  0  0  0  0  0  0  0  0
  184.7320  179.3760  140.7690 N   0  0  0  0  0  0  0  0  0  0  0  0
  186.0210  178.9440  140.8030 C   0  0  0  0  0  3  0  0  0  0  0  0
  186.4870  178.4550  139.5860 C   0  0  0  0  0  0  0  0  0  0  0  0
  189.0920  177.5910  137.1060 N   0  0  0  0  0  0  0  0  0  0  0  0
  187.8560  177.9250  139.3120 C   0  0  1  0  0  3  0  0  0  0  0  0
  187.8170  176.7180  137.9560 S   0  0  0  0  0  0  0  0  0  0  0  0
  188.7680  179.0090  138.9740 N   0  0  0  0  0  2  0  0  0  0  0  0
  188.9630  178.9700  137.5350 C   0  0  0  0  0  2  0  0  0  0  0  0
  188.7630  177.5610  135.6890 C   0  0  0  0  0  2  0  0  0  0  0  0
  186.4870  177.8250  134.8710 N   0  0  0  0  0  1  0  0  0  0  0  0
  187.4180  176.8880  135.4730 C   0  0  0  0  0  2  0  0  0  0  0  0
  1 16  1  0  0  0  0
  1  6  2  0  0  0  0
  3  4  1  0  0  0  0
  4  1  1  0  0  0  0
  5 15  1  0  0  0  0
  7 11  2  0  0  0  0
  8 21  1  6  0  0  0
  8  7  1  0  0  0  0
  8  9  1  0  0  0  0
  9  3  1  1  0  0  0
  9 13  1  0  0  0  0
 10  2  1  0  0  0  0
 11 10  1  0  0  0  0
 12  5  1  0  0  0  0
 12  4  2  0  0  0  0
 13 18  1  0  0  0  0
 13 20  1  6  0  0  0
 14  7  1  0  0  0  0
 15  6  1  0  0  0  0
 15 17  1  0  0  0  0
 16 18  1  0  0  0  0
 18 23  1  6  0  0  0
 19 21  1  0  0  0  0
 19 14  2  0  0  0  0
 20  2  1  0  0  0  0
 22 23  1  0  0  0  0
 22 26  1  0  0  0  0
 23 24  2  0  0  0  0
 24 25  1  0  0  0  0
 26 25  2  0  0  0  0
 27 31  1  0  0  0  0
 27 29  1  0  0  0  0
 28 26  1  6  0  0  0
 29 28  1  0  0  0  0
 30 28  1  0  0  0  0
 31 30  1  0  0  0  0
 32 27  1  0  0  0  0
 33 34  1  0  0  0  0
 34 32  1  0  0  0  0
M  END
>  <MODEL>
6

>  <REMARK>
 VINA RESULT:      -6.2      4.847      9.347
  Name = 
  4 active torsions:
  status: ('A' for Active; 'I' for Inactive)
    1  A    between atoms: N_3  and  C_30
    2  A    between atoms: C_8  and  C_27
    3  A    between atoms: C_14  and  C_31
    4  A    between atoms: C_15  and  C_30
                            x       y       z     vdW  Elec       q    Type
                         _______ _______ _______ _____ _____    ______ ____

>  <TORSDO>
F 4

$$$$
=
 OpenBabel10222418193D

 34 39  0  0  1  0  0  0  0  0999 V2000
  181.2130  179.1510  141.0220 C   0  0  0  0  0  0  0  0  0  0  0  0
  179.8160  176.8270  136.3680 C   0  0  0  0  0  2  0  0  0  0  0  0
  180.3330  180.4850  139.0470 N   0  0  0  0  0  2  0  0  0  0  0  0
  180.2850  180.1430  140.4380 C   0  0  0  0  0  0  0  0  0  0  0  0
  179.2880  180.4740  142.6920 C   0  0  0  0  0  2  0  0  0  0  0  0
  181.0190  178.6980  142.2600 C   0  0  0  0  0  3  0  0  0  0  0  0
  180.0130  179.8700  135.4550 C   0  0  0  0  0  0  0  0  0  0  0  0
  180.8190  180.2050  136.6700 C   0  0  2  0  0  3  0  0  0  0  0  0
  180.7370  179.6270  138.0020 N   0  0  2  0  0  0  0  0  0  0  0  0
  180.3460  177.3840  135.1060 C   0  0  0  0  0  2  0  0  0  0  0  0
  179.8380  178.7290  134.8370 N   0  0  0  0  0  0  0  0  0  0  0  0
  179.3760  180.7430  141.2140 C   0  0  0  0  0  3  0  0  0  0  0  0
  180.8460  178.2160  138.2470 C   0  0  2  0  0  3  0  0  0  0  0  0
  179.8060  181.0690  134.7240 N   0  0  0  0  0  0  0  0  0  0  0  0
  179.9390  179.2110  143.0470 N   0  0  0  0  0  0  0  0  0  0  0  0
  182.3650  178.6490  140.2260 C   0  0  0  0  0  2  0  0  0  0  0  0
  179.6820  178.6330  144.3530 C   0  0  0  0  0  1  0  0  0  0  0  0
  181.9080  177.6580  139.1650 C   0  0  2  0  0  3  0  0  0  0  0  0
  180.4500  182.0060  135.3330 C   0  0  0  0  0  3  0  0  0  0  0  0
  180.2880  177.4240  137.3980 C   0  0  0  0  0  2  0  0  0  0  0  0
  181.0710  181.5070  136.5560 C   0  0  0  0  0  2  0  0  0  0  0  0
  184.4250  178.1490  138.0220 S   0  0  0  0  0  0  0  0  0  0  0  0
  183.1010  177.1840  138.3970 C   0  0  0  0  0  0  0  0  0  0  0  0
  183.2290  175.9360  137.8910 N   0  0  0  0  0  0  0  0  0  0  0  0
  184.3990  175.7740  137.2170 C   0  0  0  0  0  3  0  0  0  0  0  0
  185.1970  176.9140  137.1840 C   0  0  0  0  0  0  0  0  0  0  0  0
  188.7890  177.7330  137.5000 N   0  0  0  0  0  0  0  0  0  0  0  0
  186.5350  177.0380  136.5330 C   0  0  1  0  0  3  0  0  0  0  0  0
  187.3350  178.5980  137.0050 S   0  0  0  0  0  0  0  0  0  0  0  0
  187.3910  175.9190  136.9000 N   0  0  0  0  0  2  0  0  0  0  0  0
  188.3360  176.4110  137.8880 C   0  0  0  0  0  2  0  0  0  0  0  0
  189.2840  178.3770  138.7080 C   0  0  0  0  0  2  0  0  0  0  0  0
  189.0010  177.8460  141.0660 N   0  0  0  0  0  1  0  0  0  0  0  0
  188.2940  178.1930  139.8470 C   0  0  0  0  0  2  0  0  0  0  0  0
  1  6  2  0  0  0  0
  2 20  1  0  0  0  0
  3  4  1  0  0  0  0
  4  1  1  0  0  0  0
  4 12  2  0  0  0  0
  5 15  1  0  0  0  0
  6 15  1  0  0  0  0
  7  8  1  0  0  0  0
  8 21  1  1  0  0  0
  8  9  1  0  0  0  0
  9 13  1  0  0  0  0
  9  3  1  6  0  0  0
 10  2  1  0  0  0  0
 11 10  1  0  0  0  0
 11  7  2  0  0  0  0
 12  5  1  0  0  0  0
 13 20  1  6  0  0  0
 13 18  1  0  0  0  0
 14 19  2  0  0  0  0
 14  7  1  0  0  0  0
 15 17  1  0  0  0  0
 16  1  1  0  0  0  0
 18 23  1  6  0  0  0
 18 16  1  0  0  0  0
 19 21  1  0  0  0  0
 22 23  1  0  0  0  0
 24 23  2  0  0  0  0
 25 24  1  0  0  0  0
 26 25  2  0  0  0  0
 26 22  1  0  0  0  0
 27 31  1  0  0  0  0
 27 32  1  0  0  0  0
 28 30  1  0  0  0  0
 28 29  1  0  0  0  0
 28 26  1  1  0  0  0
 29 27  1  0  0  0  0
 30 31  1  0  0  0  0
 32 34  1  0  0  0  0
 34 33  1  0  0  0  0
M  END
>  <MODEL>
7

>  <REMARK>
 VINA RESULT:      -6.2      5.746      9.954
  Name = 
  4 active torsions:
  status: ('A' for Active; 'I' for Inactive)
    1  A    between atoms: N_3  and  C_30
    2  A    between atoms: C_8  and  C_27
    3  A    between atoms: C_14  and  C_31
    4  A    between atoms: C_15  and  C_30
                            x       y       z     vdW  Elec       q    Type
                         _______ _______ _______ _____ _____    ______ ____

>  <TORSDO>
F 4

$$$$
=
 OpenBabel10222418193D

 34 39  0  0  1  0  0  0  0  0999 V2000
  189.3410  177.5960  141.4660 C   0  0  0  0  0  0  0  0  0  0  0  0
  189.1300  179.0030  136.2700 C   0  0  0  0  0  2  0  0  0  0  0  0
  190.4330  176.2100  139.6370 N   0  0  0  0  0  2  0  0  0  0  0  0
  190.5090  176.8890  140.8980 C   0  0  0  0  0  0  0  0  0  0  0  0
  191.8180  177.5210  142.9140 C   0  0  0  0  0  2  0  0  0  0  0  0
  189.4870  178.3880  142.5280 C   0  0  0  0  0  3  0  0  0  0  0  0
  190.0470  175.9660  136.0080 C   0  0  0  0  0  0  0  0  0  0  0  0
  189.5930  175.6850  137.4050 C   0  0  2  0  0  3  0  0  0  0  0  0
  189.5990  176.5720  138.5580 N   0  0  2  0  0  0  0  0  0  0  0  0
  188.7170  177.9920  135.2750 C   0  0  0  0  0  2  0  0  0  0  0  0
  189.6800  176.8960  135.1630 N   0  0  0  0  0  0  0  0  0  0  0  0
  191.6670  176.8720  141.5650 C   0  0  0  0  0  3  0  0  0  0  0  0
  188.9690  177.8630  138.5500 C   0  0  2  0  0  3  0  0  0  0  0  0
  190.6230  174.7770  135.4880 N   0  0  0  0  0  0  0  0  0  0  0  0
  190.7690  178.5120  143.1540 N   0  0  0  0  0  0  0  0  0  0  0  0
  187.9980  177.4330  140.8480 C   0  0  0  0  0  2  0  0  0  0  0  0
  190.9310  179.4550  144.2450 C   0  0  0  0  0  1  0  0  0  0  0  0
  187.8930  178.2180  139.5480 C   0  0  2  0  0  3  0  0  0  0  0  0
  190.4810  173.8590  136.3840 C   0  0  0  0  0  3  0  0  0  0  0  0
  189.0610  178.5590  137.4700 C   0  0  0  0  0  2  0  0  0  0  0  0
  189.8660  174.3960  137.5930 C   0  0  0  0  0  2  0  0  0  0  0  0
  185.1180  178.6280  139.6600 S   0  0  0  0  0  0  0  0  0  0  0  0
  186.5260  178.0220  138.9710 C   0  0  0  0  0  0  0  0  0  0  0  0
  186.2720  177.3070  137.8520 N   0  0  0  0  0  0  0  0  0  0  0  0
  184.9440  177.2670  137.5610 C   0  0  0  0  0  3  0  0  0  0  0  0
  184.1430  177.9520  138.4700 C   0  0  0  0  0  0  0  0  0  0  0  0
  180.9830  178.7770  140.2060 N   0  0  0  0  0  0  0  0  0  0  0  0
  182.6580  178.0950  138.4080 C   0  0  1  0  0  3  0  0  0  0  0  0
  181.8780  177.3010  139.8430 S   0  0  0  0  0  0  0  0  0  0  0  0
  182.2790  179.5000  138.3610 N   0  0  0  0  0  2  0  0  0  0  0  0
  181.7980  179.8570  139.6850 C   0  0  0  0  0  2  0  0  0  0  0  0
  180.9680  178.9260  141.6530 C   0  0  0  0  0  2  0  0  0  0  0  0
  182.3680  179.0030  143.6420 N   0  0  0  0  0  1  0  0  0  0  0  0
  182.3590  178.7010  142.2220 C   0  0  0  0  0  2  0  0  0  0  0  0
  1  6  2  0  0  0  0
  2 20  1  0  0  0  0
  3  4  1  0  0  0  0
  4  1  1  0  0  0  0
  4 12  2  0  0  0  0
  5 15  1  0  0  0  0
  6 15  1  0  0  0  0
  7  8  1  0  0  0  0
  8 21  1  1  0  0  0
  8  9  1  0  0  0  0
  9  3  1  6  0  0  0
 10  2  1  0  0  0  0
 11 10  1  0  0  0  0
 11  7  2  0  0  0  0
 12  5  1  0  0  0  0
 13 20  1  6  0  0  0
 13  9  1  0  0  0  0
 13 18  1  0  0  0  0
 14  7  1  0  0  0  0
 14 19  2  0  0  0  0
 15 17  1  0  0  0  0
 16  1  1  0  0  0  0
 18 23  1  6  0  0  0
 18 16  1  0  0  0  0
 19 21  1  0  0  0  0
 23 22  1  0  0  0  0
 24 23  2  0  0  0  0
 25 24  1  0  0  0  0
 25 26  2  0  0  0  0
 26 22  1  0  0  0  0
 27 32  1  0  0  0  0
 28 26  1  1  0  0  0
 28 29  1  0  0  0  0
 29 27  1  0  0  0  0
 30 28  1  0  0  0  0
 30 31  1  0  0  0  0
 31 27  1  0  0  0  0
 32 34  1  0  0  0  0
 34 33  1  0  0  0  0
M  END
>  <MODEL>
8

>  <REMARK>
 VINA RESULT:      -6.1      3.520      6.825
  Name = 
  4 active torsions:
  status: ('A' for Active; 'I' for Inactive)
    1  A    between atoms: N_3  and  C_30
    2  A    between atoms: C_8  and  C_27
    3  A    between atoms: C_14  and  C_31
    4  A    between atoms: C_15  and  C_30
                            x       y       z     vdW  Elec       q    Type
                         _______ _______ _______ _____ _____    ______ ____

>  <TORSDO>
F 4

$$$$
=
 OpenBabel10222418193D

 34 39  0  0  1  0  0  0  0  0999 V2000
  186.1480  177.8780  143.9270 C   0  0  0  0  0  0  0  0  0  0  0  0
  191.1400  179.9000  143.8250 C   0  0  0  0  0  2  0  0  0  0  0  0
  187.8830  177.3030  145.6910 N   0  0  0  0  0  2  0  0  0  0  0  0
  186.5690  177.7550  145.3390 C   0  0  0  0  0  0  0  0  0  0  0  0
  184.3040  178.5050  146.0360 C   0  0  0  0  0  2  0  0  0  0  0  0
  185.0050  178.4910  143.6180 C   0  0  0  0  0  3  0  0  0  0  0  0
  191.5310  177.5040  145.8840 C   0  0  0  0  0  0  0  0  0  0  0  0
  190.2680  176.8590  145.4080 C   0  0  2  0  0  3  0  0  0  0  0  0
  189.0520  177.4930  144.9230 N   0  0  2  0  0  0  0  0  0  0  0  0
  192.2860  178.9770  143.9670 C   0  0  0  0  0  2  0  0  0  0  0  0
  192.3330  178.3500  145.2890 N   0  0  0  0  0  0  0  0  0  0  0  0
  185.7150  178.0660  146.3190 C   0  0  0  0  0  3  0  0  0  0  0  0
  189.0440  178.4400  143.8440 C   0  0  2  0  0  3  0  0  0  0  0  0
  192.0540  176.7110  146.9390 N   0  0  0  0  0  0  0  0  0  0  0  0
  184.1560  178.9840  144.6610 N   0  0  0  0  0  0  0  0  0  0  0  0
  187.0030  177.3260  142.8430 C   0  0  0  0  0  2  0  0  0  0  0  0
  182.9680  179.7360  144.3040 C   0  0  0  0  0  1  0  0  0  0  0  0
  188.2200  178.2080  142.6000 C   0  0  2  0  0  3  0  0  0  0  0  0
  191.2910  175.6790  147.0590 C   0  0  0  0  0  3  0  0  0  0  0  0
  190.0200  179.2800  143.7880 C   0  0  0  0  0  2  0  0  0  0  0  0
  190.1600  175.7520  146.1390 C   0  0  0  0  0  2  0  0  0  0  0  0
  188.7290  177.8280  139.8650 S   0  0  0  0  0  0  0  0  0  0  0  0
  189.0420  177.6110  141.5020 C   0  0  0  0  0  0  0  0  0  0  0  0
  190.1060  176.8010  141.7070 N   0  0  0  0  0  0  0  0  0  0  0  0
  190.6600  176.3770  140.5400 C   0  0  0  0  0  3  0  0  0  0  0  0
  190.0150  176.8510  139.4010 C   0  0  0  0  0  0  0  0  0  0  0  0
  192.1150  174.9460  137.0260 N   0  0  0  0  0  0  0  0  0  0  0  0
  190.3980  176.5690  137.9860 C   0  0  1  0  0  3  0  0  0  0  0  0
  192.2040  176.5250  137.8060 S   0  0  0  0  0  0  0  0  0  0  0  0
  189.8320  175.3020  137.5440 N   0  0  0  0  0  2  0  0  0  0  0  0
  190.9110  174.3280  137.5470 C   0  0  0  0  0  2  0  0  0  0  0  0
  193.2350  174.1590  137.5170 C   0  0  0  0  0  2  0  0  0  0  0  0
  195.3810  174.8760  138.4130 N   0  0  0  0  0  1  0  0  0  0  0  0
  194.5470  174.8690  137.2260 C   0  0  0  0  0  2  0  0  0  0  0  0
  1  4  1  0  0  0  0
  2 10  1  0  0  0  0
  4  3  1  0  0  0  0
  4 12  2  0  0  0  0
  5 12  1  0  0  0  0
  6  1  2  0  0  0  0
  6 15  1  0  0  0  0
  7 14  1  0  0  0  0
  8  7  1  0  0  0  0
  8 21  1  1  0  0  0
  9  8  1  0  0  0  0
  9  3  1  1  0  0  0
 10 11  1  0  0  0  0
 11  7  2  0  0  0  0
 13 20  1  6  0  0  0
 13  9  1  0  0  0  0
 14 19  2  0  0  0  0
 15  5  1  0  0  0  0
 16  1  1  0  0  0  0
 17 15  1  0  0  0  0
 18 23  1  6  0  0  0
 18 16  1  0  0  0  0
 18 13  1  0  0  0  0
 20  2  1  0  0  0  0
 21 19  1  0  0  0  0
 22 23  1  0  0  0  0
 23 24  2  0  0  0  0
 25 24  1  0  0  0  0
 26 22  1  0  0  0  0
 26 25  2  0  0  0  0
 27 32  1  0  0  0  0
 27 31  1  0  0  0  0
 27 29  1  0  0  0  0
 28 26  1  1  0  0  0
 29 28  1  0  0  0  0
 30 31  1  0  0  0  0
 30 28  1  0  0  0  0
 34 32  1  0  0  0  0
 34 33  1  0  0  0  0
M  END
>  <MODEL>
9

>  <REMARK>
 VINA RESULT:      -5.9      2.861      9.245
  Name = 
  4 active torsions:
  status: ('A' for Active; 'I' for Inactive)
    1  A    between atoms: N_3  and  C_30
    2  A    between atoms: C_8  and  C_27
    3  A    between atoms: C_14  and  C_31
    4  A    between atoms: C_15  and  C_30
                            x       y       z     vdW  Elec       q    Type
                         _______ _______ _______ _____ _____    ______ ____

>  <TORSDO>
F 4

$$$$
