=
 OpenBabel10222421263D

 40 44  0  0  1  0  0  0  0  0999 V2000
  184.5970  180.2860  143.9810 F   0  0  0  0  0  0  0  0  0  0  0  0
  180.9730  176.4860  139.5410 C   0  0  0  0  0  3  0  0  0  0  0  0
  179.3110  178.6770  139.6950 N   0  0  0  0  0  0  0  0  0  0  0  0
  182.4210  177.3410  141.2840 N   0  0  0  0  0  2  0  0  0  0  0  0
  184.6980  178.1180  141.5750 C   0  0  1  0  0  3  0  0  0  0  0  0
  180.4490  179.6110  141.6200 C   0  0  0  0  0  0  0  0  0  0  0  0
  181.9790  179.6090  143.6440 C   0  0  0  0  0  2  0  0  0  0  0  0
  179.8900  176.6010  138.6740 C   0  0  0  0  0  3  0  0  0  0  0  0
  184.4140  178.9130  143.8790 C   0  0  1  0  0  0  0  0  0  0  0  0
  179.0690  177.7240  138.7580 C   0  0  0  0  0  3  0  0  0  0  0  0
  181.2350  177.4800  140.4860 C   0  0  0  0  0  0  0  0  0  0  0  0
  183.0450  178.5690  143.2960 C   0  0  2  0  0  3  0  0  0  0  0  0
  185.4290  178.3720  142.8900 C   0  0  0  0  0  2  0  0  0  0  0  0
  180.3480  178.5840  140.5710 C   0  0  0  0  0  0  0  0  0  0  0  0
  180.3360  180.8260  141.3080 O   0  0  0  0  0  0  0  0  0  0  0  0
  183.2330  178.4410  141.7940 C   0  0  2  0  0  3  0  0  0  0  0  0
  180.6730  179.2480  143.0250 C   0  0  0  0  0  0  0  0  0  0  0  0
  179.9110  178.3290  143.6080 C   0  0  0  0  0  2  0  0  0  0  0  0
  185.2580  179.0000  140.4670 C   0  0  0  0  0  2  0  0  0  0  0  0
  186.9060  177.5930  138.6220 O   0  0  0  0  0  0  0  0  0  0  0  0
  187.4770  178.2590  139.5270 C   0  0  0  0  0  0  0  0  0  0  0  0
  186.7110  178.9680  140.5000 N   0  0  0  0  0  2  0  0  0  0  0  0
  188.9620  178.2700  139.6080 C   0  0  0  0  0  2  0  0  0  0  0  0
  189.3590  178.5450  140.9240 O   0  0  0  0  0  0  0  0  0  0  0  0
  190.3520  175.2220  142.7640 O   0  0  0  0  0  0  0  0  0  0  0  0
  192.0960  177.6670  141.2760 N   0  0  0  0  0  1  0  0  0  0  0  0
  190.9430  178.7160  143.1350 C   0  0  0  0  0  1  0  0  0  0  0  0
  188.6370  176.8840  142.3150 C   0  0  0  0  0  2  0  0  0  0  0  0
  191.2560  176.2590  143.0690 C   0  0  0  0  0  2  0  0  0  0  0  0
  189.0780  175.6730  143.1530 C   0  0  0  0  0  2  0  0  0  0  0  0
  190.9880  177.5040  142.2060 C   0  0  2  0  0  0  0  0  0  0  0  0
  189.7270  177.3430  141.4420 N   0  0  0  0  0  0  0  0  0  0  0  0
  184.6420  178.2310  145.2290 C   0  0  0  0  0  2  0  0  0  0  0  0
  185.3980  179.0980  146.2350 C   0  0  0  0  0  2  0  0  0  0  0  0
  187.4790  177.9620  145.7750 N   0  0  0  0  0  0  0  0  0  0  0  0
  188.3250  177.9630  148.4460 C   0  0  0  0  0  3  0  0  0  0  0  0
  187.0350  178.4320  148.0530 N   0  0  0  0  0  2  0  0  0  0  0  0
  189.1510  177.4400  147.5400 C   0  0  0  0  0  3  0  0  0  0  0  0
  188.7330  177.2700  146.1000 C   0  0  0  0  0  2  0  0  0  0  0  0
  186.6720  178.4500  146.6690 C   0  0  0  0  0  0  0  0  0  0  0  0
  2 11  1  0  0  0  0
  3 14  1  0  0  0  0
  5 19  1  6  0  0  0
  5 16  1  0  0  0  0
  5 13  1  0  0  0  0
  6 17  1  0  0  0  0
  8 10  1  0  0  0  0
  8  2  2  0  0  0  0
  9  1  1  1  0  0  0
  9 33  1  0  0  0  0
 10  3  2  0  0  0  0
 11 14  2  0  0  0  0
 11  4  1  0  0  0  0
 12  7  1  6  0  0  0
 12  9  1  0  0  0  0
 13  9  1  0  0  0  0
 14  6  1  0  0  0  0
 15  6  2  0  0  0  0
 16  4  1  1  0  0  0
 16 12  1  0  0  0  0
 17 18  2  0  0  0  0
 17  7  1  0  0  0  0
 19 22  1  0  0  0  0
 20 21  2  0  0  0  0
 21 23  1  0  0  0  0
 21 22  1  0  0  0  0
 23 24  1  0  0  0  0
 24 32  1  0  0  0  0
 25 29  1  0  0  0  0
 25 30  1  0  0  0  0
 26 31  1  0  0  0  0
 28 30  1  0  0  0  0
 31 29  1  0  0  0  0
 31 27  1  1  0  0  0
 32 31  1  0  0  0  0
 32 28  1  0  0  0  0
 33 34  1  0  0  0  0
 34 40  1  0  0  0  0
 35 39  1  0  0  0  0
 35 40  2  0  0  0  0
 37 36  1  0  0  0  0
 38 36  2  0  0  0  0
 39 38  1  0  0  0  0
 40 37  1  0  0  0  0
M  END
>  <MODEL>
1

>  <REMARK>
 VINA RESULT:      -8.7      0.000      0.000
  Name = 
  8 active torsions:
  status: ('A' for Active; 'I' for Inactive)
    1  A    between atoms: C_3  and  C_14
    2  A    between atoms: C_3  and  N_38
    3  A    between atoms: O_4  and  C_16
    4  A    between atoms: O_4  and  N_37
    5  A    between atoms: C_12  and  C_33
    6  A    between atoms: C_12  and  C_40
    7  A    between atoms: C_16  and  C_21
    8  A    between atoms: C_22  and  C_33
                            x       y       z     vdW  Elec       q    Type
                         _______ _______ _______ _____ _____    ______ ____

>  <TORSDO>
F 8

$$$$
=
 OpenBabel10222421263D

 40 44  0  0  1  0  0  0  0  0999 V2000
  184.8710  180.4340  143.7930 F   0  0  0  0  0  0  0  0  0  0  0  0
  181.0360  176.4130  139.7410 C   0  0  0  0  0  3  0  0  0  0  0  0
  179.2100  178.4190  140.2160 N   0  0  0  0  0  0  0  0  0  0  0  0
  182.6280  177.3600  141.3020 N   0  0  0  0  0  2  0  0  0  0  0  0
  184.8380  178.3550  141.3070 C   0  0  1  0  0  3  0  0  0  0  0  0
  180.5140  179.4090  142.0020 C   0  0  0  0  0  0  0  0  0  0  0  0
  182.3090  179.5050  143.7930 C   0  0  0  0  0  2  0  0  0  0  0  0
  179.8350  176.4420  139.0380 C   0  0  0  0  0  3  0  0  0  0  0  0
  184.8080  179.0530  143.6600 C   0  0  1  0  0  0  0  0  0  0  0  0
  178.9310  177.4730  139.2820 C   0  0  0  0  0  3  0  0  0  0  0  0
  181.3330  177.4010  140.6810 C   0  0  0  0  0  0  0  0  0  0  0  0
  183.4100  178.5880  143.2580 C   0  0  2  0  0  3  0  0  0  0  0  0
  185.7200  178.6450  142.5180 C   0  0  0  0  0  2  0  0  0  0  0  0
  180.3650  178.4070  140.9350 C   0  0  0  0  0  0  0  0  0  0  0  0
  180.2420  180.6150  141.7600 O   0  0  0  0  0  0  0  0  0  0  0  0
  183.3940  178.5220  141.7400 C   0  0  2  0  0  3  0  0  0  0  0  0
  180.9690  179.0310  143.3460 C   0  0  0  0  0  0  0  0  0  0  0  0
  180.3890  178.0240  143.9900 C   0  0  0  0  0  2  0  0  0  0  0  0
  185.1480  179.3200  140.1710 C   0  0  0  0  0  2  0  0  0  0  0  0
  183.7190  178.0960  138.0350 O   0  0  0  0  0  0  0  0  0  0  0  0
  184.9780  178.0270  138.0130 C   0  0  0  0  0  0  0  0  0  0  0  0
  185.7550  178.5980  139.0640 N   0  0  0  0  0  2  0  0  0  0  0  0
  185.6570  177.3060  136.9030 C   0  0  0  0  0  2  0  0  0  0  0  0
  184.7980  176.3310  136.3800 O   0  0  0  0  0  0  0  0  0  0  0  0
  185.6670  172.9160  138.1110 O   0  0  0  0  0  0  0  0  0  0  0  0
  182.7990  174.4520  137.3060 N   0  0  0  0  0  1  0  0  0  0  0  0
  183.9330  174.0290  135.2040 C   0  0  0  0  0  1  0  0  0  0  0  0
  186.4410  174.7940  136.7770 C   0  0  0  0  0  2  0  0  0  0  0  0
  184.5600  172.7790  137.2490 C   0  0  0  0  0  2  0  0  0  0  0  0
  186.7320  173.3870  137.3230 C   0  0  0  0  0  2  0  0  0  0  0  0
  184.0950  174.1460  136.7190 C   0  0  2  0  0  0  0  0  0  0  0  0
  185.0640  175.2050  137.0930 N   0  0  0  0  0  0  0  0  0  0  0  0
  185.2890  178.3590  144.9350 C   0  0  0  0  0  2  0  0  0  0  0  0
  186.6560  177.6890  144.7910 C   0  0  0  0  0  2  0  0  0  0  0  0
  188.6100  177.2020  146.1250 N   0  0  0  0  0  0  0  0  0  0  0  0
  187.6110  178.4360  148.4340 C   0  0  0  0  0  3  0  0  0  0  0  0
  186.8300  178.2880  147.2480 N   0  0  0  0  0  0  0  0  0  0  0  0
  188.8380  177.9210  148.4950 C   0  0  0  0  0  3  0  0  0  0  0  0
  189.4130  177.1200  147.3520 C   0  0  0  0  0  3  0  0  0  0  0  0
  187.4060  177.6900  146.0830 C   0  0  0  0  0  0  0  0  0  0  0  0
  2 11  1  0  0  0  0
  3 14  1  0  0  0  0
  5 19  1  6  0  0  0
  5 16  1  0  0  0  0
  5 13  1  0  0  0  0
  6 17  1  0  0  0  0
  8 10  1  0  0  0  0
  8  2  2  0  0  0  0
  9  1  1  1  0  0  0
  9 33  1  0  0  0  0
 10  3  2  0  0  0  0
 11 14  2  0  0  0  0
 11  4  1  0  0  0  0
 12  9  1  0  0  0  0
 12  7  1  6  0  0  0
 13  9  1  0  0  0  0
 14  6  1  0  0  0  0
 15  6  2  0  0  0  0
 16  4  1  1  0  0  0
 16 12  1  0  0  0  0
 17  7  1  0  0  0  0
 17 18  2  0  0  0  0
 21 20  2  0  0  0  0
 21 22  1  0  0  0  0
 22 19  1  0  0  0  0
 23 21  1  0  0  0  0
 24 23  1  0  0  0  0
 24 32  1  0  0  0  0
 28 32  1  0  0  0  0
 28 30  1  0  0  0  0
 29 25  1  0  0  0  0
 30 25  1  0  0  0  0
 31 27  1  6  0  0  0
 31 32  1  0  0  0  0
 31 29  1  0  0  0  0
 31 26  1  0  0  0  0
 34 33  1  0  0  0  0
 34 40  1  0  0  0  0
 35 39  1  0  0  0  0
 36 38  1  0  0  0  0
 37 36  2  0  0  0  0
 39 38  2  0  0  0  0
 40 35  2  0  0  0  0
 40 37  1  0  0  0  0
M  END
>  <MODEL>
2

>  <REMARK>
 VINA RESULT:      -8.5      2.699      4.216
  Name = 
  8 active torsions:
  status: ('A' for Active; 'I' for Inactive)
    1  A    between atoms: C_3  and  C_14
    2  A    between atoms: C_3  and  N_38
    3  A    between atoms: O_4  and  C_16
    4  A    between atoms: O_4  and  N_37
    5  A    between atoms: C_12  and  C_33
    6  A    between atoms: C_12  and  C_40
    7  A    between atoms: C_16  and  C_21
    8  A    between atoms: C_22  and  C_33
                            x       y       z     vdW  Elec       q    Type
                         _______ _______ _______ _____ _____    ______ ____

>  <TORSDO>
F 8

$$$$
=
 OpenBabel10222421263D

 40 44  0  0  1  0  0  0  0  0999 V2000
  184.7280  180.2170  144.0850 F   0  0  0  0  0  0  0  0  0  0  0  0
  180.9540  176.6710  139.5600 C   0  0  0  0  0  3  0  0  0  0  0  0
  179.1990  178.7310  140.0690 N   0  0  0  0  0  0  0  0  0  0  0  0
  182.4940  177.4320  141.2670 N   0  0  0  0  0  2  0  0  0  0  0  0
  184.7440  178.3110  141.4630 C   0  0  1  0  0  3  0  0  0  0  0  0
  180.4410  179.5350  141.9890 C   0  0  0  0  0  0  0  0  0  0  0  0
  182.1300  179.4210  143.8790 C   0  0  0  0  0  2  0  0  0  0  0  0
  179.7990  176.8070  138.7950 C   0  0  0  0  0  3  0  0  0  0  0  0
  184.6080  178.8530  143.8530 C   0  0  1  0  0  0  0  0  0  0  0  0
  178.9310  177.8650  139.0590 C   0  0  0  0  0  3  0  0  0  0  0  0
  181.2410  177.5790  140.5810 C   0  0  0  0  0  0  0  0  0  0  0  0
  183.2170  178.4870  143.3430 C   0  0  2  0  0  3  0  0  0  0  0  0
  185.5660  178.4760  142.7380 C   0  0  0  0  0  2  0  0  0  0  0  0
  180.3080  178.6140  140.8490 C   0  0  0  0  0  0  0  0  0  0  0  0
  180.2400  180.7660  141.8150 O   0  0  0  0  0  0  0  0  0  0  0  0
  183.2870  178.5220  141.8270 C   0  0  2  0  0  3  0  0  0  0  0  0
  180.7980  179.0470  143.3270 C   0  0  0  0  0  0  0  0  0  0  0  0
  180.1350  178.0290  143.8670 C   0  0  0  0  0  2  0  0  0  0  0  0
  185.1640  179.3320  140.4150 C   0  0  0  0  0  2  0  0  0  0  0  0
  187.8860  178.5880  140.0430 O   0  0  0  0  0  0  0  0  0  0  0  0
  187.0660  178.2840  139.1350 C   0  0  0  0  0  0  0  0  0  0  0  0
  185.6910  178.6480  139.2450 N   0  0  0  0  0  2  0  0  0  0  0  0
  187.5450  177.5770  137.9160 C   0  0  0  0  0  2  0  0  0  0  0  0
  188.5300  176.6450  138.2690 O   0  0  0  0  0  0  0  0  0  0  0  0
  190.8040  176.4940  135.0720 O   0  0  0  0  0  0  0  0  0  0  0  0
  190.6940  174.7520  137.9330 N   0  0  0  0  0  1  0  0  0  0  0  0
  188.5770  174.3350  136.8250 C   0  0  0  0  0  1  0  0  0  0  0  0
  188.7490  177.2980  136.0910 C   0  0  0  0  0  2  0  0  0  0  0  0
  190.5180  175.2010  135.5520 C   0  0  0  0  0  2  0  0  0  0  0  0
  189.5650  177.1040  134.8040 C   0  0  0  0  0  2  0  0  0  0  0  0
  189.7940  175.2560  136.9070 C   0  0  2  0  0  0  0  0  0  0  0  0
  189.4120  176.6510  137.2340 N   0  0  0  0  0  0  0  0  0  0  0  0
  184.9820  178.0530  145.1020 C   0  0  0  0  0  2  0  0  0  0  0  0
  185.6450  178.8940  146.1940 C   0  0  0  0  0  2  0  0  0  0  0  0
  187.7580  177.8040  145.7690 N   0  0  0  0  0  0  0  0  0  0  0  0
  188.5810  177.8680  148.4460 C   0  0  0  0  0  3  0  0  0  0  0  0
  187.2820  178.2980  148.0360 N   0  0  0  0  0  2  0  0  0  0  0  0
  189.4270  177.3530  147.5560 C   0  0  0  0  0  3  0  0  0  0  0  0
  189.0260  177.1500  146.1150 C   0  0  0  0  0  2  0  0  0  0  0  0
  186.9310  178.2850  146.6480 C   0  0  0  0  0  0  0  0  0  0  0  0
  2 11  1  0  0  0  0
  3 14  1  0  0  0  0
  5 19  1  6  0  0  0
  5 16  1  0  0  0  0
  5 13  1  0  0  0  0
  6 17  1  0  0  0  0
  8 10  1  0  0  0  0
  8  2  2  0  0  0  0
  9  1  1  1  0  0  0
  9 33  1  0  0  0  0
 10  3  2  0  0  0  0
 11 14  2  0  0  0  0
 11  4  1  0  0  0  0
 12  9  1  0  0  0  0
 12  7  1  1  0  0  0
 13  9  1  0  0  0  0
 14  6  1  0  0  0  0
 15  6  2  0  0  0  0
 16  4  1  6  0  0  0
 16 12  1  0  0  0  0
 17 18  2  0  0  0  0
 17  7  1  0  0  0  0
 21 22  1  0  0  0  0
 21 20  2  0  0  0  0
 22 19  1  0  0  0  0
 23 24  1  0  0  0  0
 23 21  1  0  0  0  0
 25 29  1  0  0  0  0
 28 32  1  0  0  0  0
 29 31  1  0  0  0  0
 30 25  1  0  0  0  0
 30 28  1  0  0  0  0
 31 27  1  6  0  0  0
 31 32  1  0  0  0  0
 31 26  1  0  0  0  0
 32 24  1  0  0  0  0
 33 34  1  0  0  0  0
 34 40  1  0  0  0  0
 35 39  1  0  0  0  0
 35 40  2  0  0  0  0
 37 36  1  0  0  0  0
 38 36  2  0  0  0  0
 39 38  1  0  0  0  0
 40 37  1  0  0  0  0
M  END
>  <MODEL>
3

>  <REMARK>
 VINA RESULT:      -8.4      2.176      3.144
  Name = 
  8 active torsions:
  status: ('A' for Active; 'I' for Inactive)
    1  A    between atoms: C_3  and  C_14
    2  A    between atoms: C_3  and  N_38
    3  A    between atoms: O_4  and  C_16
    4  A    between atoms: O_4  and  N_37
    5  A    between atoms: C_12  and  C_33
    6  A    between atoms: C_12  and  C_40
    7  A    between atoms: C_16  and  C_21
    8  A    between atoms: C_22  and  C_33
                            x       y       z     vdW  Elec       q    Type
                         _______ _______ _______ _____ _____    ______ ____

>  <TORSDO>
F 8

$$$$
=
 OpenBabel10222421263D

 40 44  0  0  1  0  0  0  0  0999 V2000
  188.2970  176.6270  140.3740 F   0  0  0  0  0  0  0  0  0  0  0  0
  182.7220  180.2910  138.7020 C   0  0  0  0  0  3  0  0  0  0  0  0
  182.0410  177.8990  137.5200 N   0  0  0  0  0  0  0  0  0  0  0  0
  184.9320  179.4850  139.2830 N   0  0  0  0  0  2  0  0  0  0  0  0
  186.2560  178.9870  141.2500 C   0  0  1  0  0  3  0  0  0  0  0  0
  184.2620  176.9590  137.7580 C   0  0  0  0  0  0  0  0  0  0  0  0
  186.7700  176.9870  138.1470 C   0  0  0  0  0  2  0  0  0  0  0  0
  181.4450  180.1100  138.1800 C   0  0  0  0  0  3  0  0  0  0  0  0
  188.1390  177.9690  140.0510 C   0  0  1  0  0  0  0  0  0  0  0  0
  181.1140  178.8880  137.5990 C   0  0  0  0  0  3  0  0  0  0  0  0
  183.6650  179.2620  138.6430 C   0  0  0  0  0  0  0  0  0  0  0  0
  186.9820  178.1820  139.0770 C   0  0  2  0  0  3  0  0  0  0  0  0
  187.7560  178.7180  141.3130 C   0  0  0  0  0  2  0  0  0  0  0  0
  183.3050  178.0490  138.0000 C   0  0  0  0  0  0  0  0  0  0  0  0
  183.9170  175.7700  137.9920 O   0  0  0  0  0  0  0  0  0  0  0  0
  185.7500  178.4600  139.9210 C   0  0  2  0  0  3  0  0  0  0  0  0
  185.6100  177.2270  137.2420 C   0  0  0  0  0  0  0  0  0  0  0  0
  185.7750  177.9880  136.1640 C   0  0  0  0  0  2  0  0  0  0  0  0
  185.5330  178.2820  142.3900 C   0  0  0  0  0  2  0  0  0  0  0  0
  185.0910  178.3610  145.2010 O   0  0  0  0  0  0  0  0  0  0  0  0
  186.1970  177.9120  144.7940 C   0  0  0  0  0  0  0  0  0  0  0  0
  186.4940  177.8670  143.3990 N   0  0  0  0  0  2  0  0  0  0  0  0
  187.2180  177.4660  145.7800 C   0  0  0  0  0  2  0  0  0  0  0  0
  188.4290  178.1270  145.5330 O   0  0  0  0  0  0  0  0  0  0  0  0
  191.4570  175.7520  146.3120 O   0  0  0  0  0  0  0  0  0  0  0  0
  189.8510  176.6290  143.5040 N   0  0  0  0  0  1  0  0  0  0  0  0
  190.8320  178.6720  144.3690 C   0  0  0  0  0  1  0  0  0  0  0  0
  190.0000  177.5370  147.0830 C   0  0  0  0  0  2  0  0  0  0  0  0
  191.6650  176.4600  145.1120 C   0  0  0  0  0  2  0  0  0  0  0  0
  191.2770  176.7160  147.3200 C   0  0  0  0  0  2  0  0  0  0  0  0
  190.4060  177.2430  144.7010 C   0  0  2  0  0  0  0  0  0  0  0  0
  189.3940  177.2030  145.7850 N   0  0  0  0  0  0  0  0  0  0  0  0
  189.4450  178.5580  139.5150 C   0  0  0  0  0  2  0  0  0  0  0  0
  190.6080  177.5660  139.5080 C   0  0  0  0  0  2  0  0  0  0  0  0
  190.2320  177.1790  137.1530 N   0  0  0  0  0  0  0  0  0  0  0  0
  191.0720  174.5070  137.2340 C   0  0  0  0  0  3  0  0  0  0  0  0
  190.9550  175.3070  138.4110 N   0  0  0  0  0  2  0  0  0  0  0  0
  190.7130  175.0030  136.0500 C   0  0  0  0  0  3  0  0  0  0  0  0
  190.1200  176.3840  135.9230 C   0  0  0  0  0  2  0  0  0  0  0  0
  190.5640  176.6800  138.3070 C   0  0  0  0  0  0  0  0  0  0  0  0
  3 10  2  0  0  0  0
  3 14  1  0  0  0  0
  5 13  1  0  0  0  0
  5 19  1  1  0  0  0
  6 15  2  0  0  0  0
  6 14  1  0  0  0  0
  8  2  2  0  0  0  0
  9  1  1  1  0  0  0
  9 13  1  0  0  0  0
 10  8  1  0  0  0  0
 11  2  1  0  0  0  0
 11  4  1  0  0  0  0
 12  7  1  1  0  0  0
 12 16  1  0  0  0  0
 12  9  1  0  0  0  0
 14 11  2  0  0  0  0
 16  4  1  6  0  0  0
 16  5  1  0  0  0  0
 17  6  1  0  0  0  0
 17  7  1  0  0  0  0
 18 17  2  0  0  0  0
 19 22  1  0  0  0  0
 21 20  2  0  0  0  0
 21 23  1  0  0  0  0
 22 21  1  0  0  0  0
 24 23  1  0  0  0  0
 24 32  1  0  0  0  0
 25 30  1  0  0  0  0
 26 31  1  0  0  0  0
 28 30  1  0  0  0  0
 29 25  1  0  0  0  0
 31 27  1  6  0  0  0
 31 29  1  0  0  0  0
 31 32  1  0  0  0  0
 32 28  1  0  0  0  0
 33  9  1  0  0  0  0
 34 33  1  0  0  0  0
 35 40  2  0  0  0  0
 36 37  1  0  0  0  0
 38 36  2  0  0  0  0
 39 38  1  0  0  0  0
 39 35  1  0  0  0  0
 40 37  1  0  0  0  0
 40 34  1  0  0  0  0
M  END
>  <MODEL>
4

>  <REMARK>
 VINA RESULT:      -7.9      3.116      6.302
  Name = 
  8 active torsions:
  status: ('A' for Active; 'I' for Inactive)
    1  A    between atoms: C_3  and  C_14
    2  A    between atoms: C_3  and  N_38
    3  A    between atoms: O_4  and  C_16
    4  A    between atoms: O_4  and  N_37
    5  A    between atoms: C_12  and  C_33
    6  A    between atoms: C_12  and  C_40
    7  A    between atoms: C_16  and  C_21
    8  A    between atoms: C_22  and  C_33
                            x       y       z     vdW  Elec       q    Type
                         _______ _______ _______ _____ _____    ______ ____

>  <TORSDO>
F 8

$$$$
=
 OpenBabel10222421263D

 40 44  0  0  1  0  0  0  0  0999 V2000
  191.4520  178.0840  139.0940 F   0  0  0  0  0  0  0  0  0  0  0  0
  187.1470  176.6210  144.2530 C   0  0  0  0  0  3  0  0  0  0  0  0
  188.9000  178.2620  145.6020 N   0  0  0  0  0  0  0  0  0  0  0  0
  188.5110  176.6490  142.2510 N   0  0  0  0  0  2  0  0  0  0  0  0
  188.4000  177.4130  139.9540 C   0  0  1  0  0  3  0  0  0  0  0  0
  190.5490  178.2360  143.8270 C   0  0  0  0  0  0  0  0  0  0  0  0
  191.6840  177.3930  141.7190 C   0  0  0  0  0  2  0  0  0  0  0  0
  186.8560  177.0360  145.5500 C   0  0  0  0  0  3  0  0  0  0  0  0
  190.7430  176.9310  139.4030 C   0  0  1  0  0  0  0  0  0  0  0  0
  187.7490  177.8780  146.2100 C   0  0  0  0  0  3  0  0  0  0  0  0
  188.3190  177.0400  143.6200 C   0  0  0  0  0  0  0  0  0  0  0  0
  190.5420  176.7790  140.9090 C   0  0  2  0  0  3  0  0  0  0  0  0
  189.3500  177.0590  138.8140 C   0  0  0  0  0  2  0  0  0  0  0  0
  189.2250  177.8570  144.3440 C   0  0  0  0  0  0  0  0  0  0  0  0
  190.9420  179.4270  143.9450 O   0  0  0  0  0  0  0  0  0  0  0  0
  189.2090  177.4300  141.2370 C   0  0  2  0  0  3  0  0  0  0  0  0
  191.4260  177.2510  143.1800 C   0  0  0  0  0  0  0  0  0  0  0  0
  191.6810  176.0900  143.7740 C   0  0  0  0  0  2  0  0  0  0  0  0
  187.7700  178.7800  139.7270 C   0  0  0  0  0  2  0  0  0  0  0  0
  186.1940  179.3630  142.0250 O   0  0  0  0  0  0  0  0  0  0  0  0
  185.5920  179.0030  140.9770 C   0  0  0  0  0  0  0  0  0  0  0  0
  186.3220  178.6720  139.7970 N   0  0  0  0  0  2  0  0  0  0  0  0
  184.1100  178.8800  140.9850 C   0  0  0  0  0  2  0  0  0  0  0  0
  183.6760  178.3360  139.7690 O   0  0  0  0  0  0  0  0  0  0  0  0
  179.7590  178.4360  140.0170 O   0  0  0  0  0  0  0  0  0  0  0  0
  181.9160  177.5220  137.6190 N   0  0  0  0  0  1  0  0  0  0  0  0
  182.3030  176.0010  139.4690 C   0  0  0  0  0  1  0  0  0  0  0  0
  181.8900  178.4990  141.1830 C   0  0  0  0  0  2  0  0  0  0  0  0
  180.1930  177.2920  139.3170 C   0  0  0  0  0  2  0  0  0  0  0  0
  180.3620  178.3810  141.2860 C   0  0  0  0  0  2  0  0  0  0  0  0
  181.7070  177.3440  139.0480 C   0  0  2  0  0  0  0  0  0  0  0  0
  182.3240  178.4780  139.7780 N   0  0  0  0  0  0  0  0  0  0  0  0
  191.4140  175.6980  138.7940 C   0  0  0  0  0  2  0  0  0  0  0  0
  192.5490  176.0330  137.8260 C   0  0  0  0  0  2  0  0  0  0  0  0
  194.6620  175.3560  138.7810 N   0  0  0  0  0  0  0  0  0  0  0  0
  194.6750  172.8490  137.5290 C   0  0  0  0  0  3  0  0  0  0  0  0
  193.6710  173.8300  137.2650 N   0  0  0  0  0  0  0  0  0  0  0  0
  195.6890  173.1340  138.3450 C   0  0  0  0  0  3  0  0  0  0  0  0
  195.8440  174.5030  138.9590 C   0  0  0  0  0  3  0  0  0  0  0  0
  193.6880  175.0770  137.9670 C   0  0  0  0  0  0  0  0  0  0  0  0
  2  8  1  0  0  0  0
  3 10  1  0  0  0  0
  4 11  1  0  0  0  0
  5 19  1  6  0  0  0
  5 16  1  0  0  0  0
  6 15  2  0  0  0  0
  6 14  1  0  0  0  0
  7 17  1  0  0  0  0
  8 10  2  0  0  0  0
  9  1  1  6  0  0  0
  9 12  1  0  0  0  0
 11  2  2  0  0  0  0
 11 14  1  0  0  0  0
 12 16  1  0  0  0  0
 12  7  1  1  0  0  0
 13  9  1  0  0  0  0
 13  5  1  0  0  0  0
 14  3  2  0  0  0  0
 16  4  1  1  0  0  0
 17 18  2  0  0  0  0
 17  6  1  0  0  0  0
 19 22  1  0  0  0  0
 21 23  1  0  0  0  0
 21 20  2  0  0  0  0
 22 21  1  0  0  0  0
 24 32  1  0  0  0  0
 24 23  1  0  0  0  0
 25 30  1  0  0  0  0
 26 31  1  0  0  0  0
 28 30  1  0  0  0  0
 29 25  1  0  0  0  0
 31 29  1  0  0  0  0
 31 27  1  1  0  0  0
 31 32  1  0  0  0  0
 32 28  1  0  0  0  0
 33  9  1  0  0  0  0
 34 40  1  0  0  0  0
 34 33  1  0  0  0  0
 35 39  1  0  0  0  0
 36 38  1  0  0  0  0
 37 36  2  0  0  0  0
 37 40  1  0  0  0  0
 38 39  2  0  0  0  0
 40 35  2  0  0  0  0
M  END
>  <MODEL>
5

>  <REMARK>
 VINA RESULT:      -7.8      3.340      9.282
  Name = 
  8 active torsions:
  status: ('A' for Active; 'I' for Inactive)
    1  A    between atoms: C_3  and  C_14
    2  A    between atoms: C_3  and  N_38
    3  A    between atoms: O_4  and  C_16
    4  A    between atoms: O_4  and  N_37
    5  A    between atoms: C_12  and  C_33
    6  A    between atoms: C_12  and  C_40
    7  A    between atoms: C_16  and  C_21
    8  A    between atoms: C_22  and  C_33
                            x       y       z     vdW  Elec       q    Type
                         _______ _______ _______ _____ _____    ______ ____

>  <TORSDO>
F 8

$$$$
=
 OpenBabel10222421263D

 40 44  0  0  1  0  0  0  0  0999 V2000
  189.4290  178.9440  139.4140 F   0  0  0  0  0  0  0  0  0  0  0  0
  187.6050  176.8080  145.6910 C   0  0  0  0  0  3  0  0  0  0  0  0
  189.8240  178.2920  146.3650 N   0  0  0  0  0  0  0  0  0  0  0  0
  188.0120  177.0970  143.3210 N   0  0  0  0  0  2  0  0  0  0  0  0
  186.9870  178.1360  141.3850 C   0  0  1  0  0  3  0  0  0  0  0  0
  190.5830  178.5040  144.0740 C   0  0  0  0  0  0  0  0  0  0  0  0
  190.7040  177.9390  141.6020 C   0  0  0  0  0  2  0  0  0  0  0  0
  187.8960  177.0570  147.0290 C   0  0  0  0  0  3  0  0  0  0  0  0
  188.8670  177.7530  139.8540 C   0  0  1  0  0  0  0  0  0  0  0  0
  189.0150  177.8230  147.3490 C   0  0  0  0  0  3  0  0  0  0  0  0
  188.4230  177.3150  144.6800 C   0  0  0  0  0  0  0  0  0  0  0  0
  189.3040  177.4150  141.2780 C   0  0  2  0  0  3  0  0  0  0  0  0
  187.3620  177.9360  139.9200 C   0  0  0  0  0  2  0  0  0  0  0  0
  189.5800  178.0490  145.0490 C   0  0  0  0  0  0  0  0  0  0  0  0
  191.0370  179.6760  144.1540 O   0  0  0  0  0  0  0  0  0  0  0  0
  188.2570  178.0060  142.2050 C   0  0  2  0  0  3  0  0  0  0  0  0
  191.0710  177.6170  143.0100 C   0  0  0  0  0  0  0  0  0  0  0  0
  191.5030  176.3950  143.3040 C   0  0  0  0  0  2  0  0  0  0  0  0
  186.3750  179.5130  141.6030 C   0  0  0  0  0  2  0  0  0  0  0  0
  185.3410  179.0970  144.2220 O   0  0  0  0  0  0  0  0  0  0  0  0
  184.5150  179.1930  143.2740 C   0  0  0  0  0  0  0  0  0  0  0  0
  184.9660  179.3780  141.9330 N   0  0  0  0  0  2  0  0  0  0  0  0
  183.0580  179.0700  143.5500 C   0  0  0  0  0  2  0  0  0  0  0  0
  182.4030  178.5840  142.4110 O   0  0  0  0  0  0  0  0  0  0  0  0
  179.6310  181.1740  141.3980 O   0  0  0  0  0  0  0  0  0  0  0  0
  181.9980  179.5150  139.7000 N   0  0  0  0  0  1  0  0  0  0  0  0
  180.5180  177.8160  140.5990 C   0  0  0  0  0  1  0  0  0  0  0  0
  180.4760  179.6220  143.0660 C   0  0  0  0  0  2  0  0  0  0  0  0
  179.7710  180.1730  140.4160 C   0  0  0  0  0  2  0  0  0  0  0  0
  179.3160  180.5160  142.6000 C   0  0  0  0  0  2  0  0  0  0  0  0
  180.9810  179.2690  140.7110 C   0  0  2  0  0  0  0  0  0  0  0  0
  181.5400  179.5710  142.0510 N   0  0  0  0  0  0  0  0  0  0  0  0
  189.1740  176.6130  138.8830 C   0  0  0  0  0  2  0  0  0  0  0  0
  190.0540  177.0300  137.7040 C   0  0  0  0  0  2  0  0  0  0  0  0
  192.3880  176.4990  138.0310 N   0  0  0  0  0  0  0  0  0  0  0  0
  192.1740  173.9130  136.9740 C   0  0  0  0  0  3  0  0  0  0  0  0
  191.0840  174.8360  136.9620 N   0  0  0  0  0  0  0  0  0  0  0  0
  193.3650  174.2910  137.4380 C   0  0  0  0  0  3  0  0  0  0  0  0
  193.6160  175.7040  137.9010 C   0  0  0  0  0  3  0  0  0  0  0  0
  191.2360  176.1290  137.5570 C   0  0  0  0  0  0  0  0  0  0  0  0
  2  8  1  0  0  0  0
  3 10  1  0  0  0  0
  4 11  1  0  0  0  0
  5 19  1  6  0  0  0
  5 16  1  0  0  0  0
  6 15  2  0  0  0  0
  6 14  1  0  0  0  0
  7 17  1  0  0  0  0
  8 10  2  0  0  0  0
  9  1  1  6  0  0  0
  9 13  1  0  0  0  0
  9 12  1  0  0  0  0
 11 14  1  0  0  0  0
 11  2  2  0  0  0  0
 12  7  1  1  0  0  0
 12 16  1  0  0  0  0
 13  5  1  0  0  0  0
 14  3  2  0  0  0  0
 16  4  1  1  0  0  0
 17 18  2  0  0  0  0
 17  6  1  0  0  0  0
 19 22  1  0  0  0  0
 21 23  1  0  0  0  0
 21 20  2  0  0  0  0
 22 21  1  0  0  0  0
 24 23  1  0  0  0  0
 25 30  1  0  0  0  0
 26 31  1  0  0  0  0
 29 31  1  0  0  0  0
 29 25  1  0  0  0  0
 30 28  1  0  0  0  0
 31 27  1  6  0  0  0
 31 32  1  0  0  0  0
 32 24  1  0  0  0  0
 32 28  1  0  0  0  0
 33  9  1  0  0  0  0
 34 33  1  0  0  0  0
 36 38  1  0  0  0  0
 37 36  2  0  0  0  0
 37 40  1  0  0  0  0
 38 39  2  0  0  0  0
 39 35  1  0  0  0  0
 40 34  1  0  0  0  0
 40 35  2  0  0  0  0
M  END
>  <MODEL>
6

>  <REMARK>
 VINA RESULT:      -7.8      2.855      9.299
  Name = 
  8 active torsions:
  status: ('A' for Active; 'I' for Inactive)
    1  A    between atoms: C_3  and  C_14
    2  A    between atoms: C_3  and  N_38
    3  A    between atoms: O_4  and  C_16
    4  A    between atoms: O_4  and  N_37
    5  A    between atoms: C_12  and  C_33
    6  A    between atoms: C_12  and  C_40
    7  A    between atoms: C_16  and  C_21
    8  A    between atoms: C_22  and  C_33
                            x       y       z     vdW  Elec       q    Type
                         _______ _______ _______ _____ _____    ______ ____

>  <TORSDO>
F 8

$$$$
=
 OpenBabel10222421263D

 40 44  0  0  1  0  0  0  0  0999 V2000
  191.4320  178.0660  139.0820 F   0  0  0  0  0  0  0  0  0  0  0  0
  187.1690  176.6140  144.2780 C   0  0  0  0  0  3  0  0  0  0  0  0
  188.9380  178.2490  145.6130 N   0  0  0  0  0  0  0  0  0  0  0  0
  188.5140  176.6390  142.2650 N   0  0  0  0  0  2  0  0  0  0  0  0
  188.3860  177.4040  139.9690 C   0  0  1  0  0  3  0  0  0  0  0  0
  190.5720  178.2190  143.8230 C   0  0  0  0  0  0  0  0  0  0  0  0
  191.6850  177.3730  141.7050 C   0  0  0  0  0  2  0  0  0  0  0  0
  186.8900  177.0290  145.5780 C   0  0  0  0  0  3  0  0  0  0  0  0
  190.7220  176.9150  139.3970 C   0  0  1  0  0  0  0  0  0  0  0  0
  187.7910  177.8680  146.2310 C   0  0  0  0  0  3  0  0  0  0  0  0
  188.3360  177.0290  143.6350 C   0  0  0  0  0  0  0  0  0  0  0  0
  190.5340  176.7630  140.9040 C   0  0  2  0  0  3  0  0  0  0  0  0
  189.3250  177.0480  138.8200 C   0  0  0  0  0  2  0  0  0  0  0  0
  189.2510  177.8440  144.3520 C   0  0  0  0  0  0  0  0  0  0  0  0
  190.9690  179.4090  143.9380 O   0  0  0  0  0  0  0  0  0  0  0  0
  189.2070  177.4190  141.2440 C   0  0  2  0  0  3  0  0  0  0  0  0
  191.4390  177.2320  143.1680 C   0  0  0  0  0  0  0  0  0  0  0  0
  191.6960  176.0700  143.7590 C   0  0  0  0  0  2  0  0  0  0  0  0
  187.7580  178.7740  139.7480 C   0  0  0  0  0  2  0  0  0  0  0  0
  185.5220  179.3590  141.4080 O   0  0  0  0  0  0  0  0  0  0  0  0
  185.2920  178.9540  140.2370 C   0  0  0  0  0  0  0  0  0  0  0  0
  186.3660  178.6190  139.3590 N   0  0  0  0  0  2  0  0  0  0  0  0
  183.8860  178.7820  139.7800 C   0  0  0  0  0  2  0  0  0  0  0  0
  183.0100  179.0640  140.8360 O   0  0  0  0  0  0  0  0  0  0  0  0
  180.2110  176.3280  140.5360 O   0  0  0  0  0  0  0  0  0  0  0  0
  180.8860  178.7310  142.7740 N   0  0  0  0  0  1  0  0  0  0  0  0
  180.4150  179.8820  140.6920 C   0  0  0  0  0  1  0  0  0  0  0  0
  181.9840  177.5760  139.4400 C   0  0  0  0  0  2  0  0  0  0  0  0
  179.6850  177.5390  141.0310 C   0  0  0  0  0  2  0  0  0  0  0  0
  180.7890  176.6220  139.2890 C   0  0  0  0  0  2  0  0  0  0  0  0
  180.8030  178.5500  141.3320 C   0  0  2  0  0  0  0  0  0  0  0  0
  182.1050  178.0500  140.8270 N   0  0  0  0  0  0  0  0  0  0  0  0
  191.3840  175.6810  138.7820 C   0  0  0  0  0  2  0  0  0  0  0  0
  192.5090  176.0120  137.8010 C   0  0  0  0  0  2  0  0  0  0  0  0
  194.5750  175.3280  138.8490 N   0  0  0  0  0  0  0  0  0  0  0  0
  194.7410  172.9070  137.4470 C   0  0  0  0  0  3  0  0  0  0  0  0
  193.7280  173.8780  137.1790 N   0  0  0  0  0  0  0  0  0  0  0  0
  195.6920  173.1640  138.3440 C   0  0  0  0  0  3  0  0  0  0  0  0
  195.7680  174.4950  139.0510 C   0  0  0  0  0  3  0  0  0  0  0  0
  193.6640  175.0780  137.9560 C   0  0  0  0  0  0  0  0  0  0  0  0
  2  8  1  0  0  0  0
  3 10  1  0  0  0  0
  4 11  1  0  0  0  0
  5 19  1  6  0  0  0
  5 16  1  0  0  0  0
  6 15  2  0  0  0  0
  6 14  1  0  0  0  0
  7 17  1  0  0  0  0
  8 10  2  0  0  0  0
  9  1  1  6  0  0  0
  9 12  1  0  0  0  0
 11  2  2  0  0  0  0
 11 14  1  0  0  0  0
 12 16  1  0  0  0  0
 12  7  1  1  0  0  0
 13  9  1  0  0  0  0
 13  5  1  0  0  0  0
 14  3  2  0  0  0  0
 16  4  1  1  0  0  0
 17 18  2  0  0  0  0
 17  6  1  0  0  0  0
 21 20  2  0  0  0  0
 22 19  1  0  0  0  0
 22 21  1  0  0  0  0
 23 21  1  0  0  0  0
 23 24  1  0  0  0  0
 25 29  1  0  0  0  0
 28 32  1  0  0  0  0
 29 31  1  0  0  0  0
 30 28  1  0  0  0  0
 30 25  1  0  0  0  0
 31 27  1  6  0  0  0
 31 26  1  0  0  0  0
 32 24  1  0  0  0  0
 32 31  1  0  0  0  0
 33  9  1  0  0  0  0
 34 40  1  0  0  0  0
 34 33  1  0  0  0  0
 35 39  1  0  0  0  0
 36 38  1  0  0  0  0
 37 36  2  0  0  0  0
 37 40  1  0  0  0  0
 38 39  2  0  0  0  0
 40 35  2  0  0  0  0
M  END
>  <MODEL>
7

>  <REMARK>
 VINA RESULT:      -7.8      3.349      9.331
  Name = 
  8 active torsions:
  status: ('A' for Active; 'I' for Inactive)
    1  A    between atoms: C_3  and  C_14
    2  A    between atoms: C_3  and  N_38
    3  A    between atoms: O_4  and  C_16
    4  A    between atoms: O_4  and  N_37
    5  A    between atoms: C_12  and  C_33
    6  A    between atoms: C_12  and  C_40
    7  A    between atoms: C_16  and  C_21
    8  A    between atoms: C_22  and  C_33
                            x       y       z     vdW  Elec       q    Type
                         _______ _______ _______ _____ _____    ______ ____

>  <TORSDO>
F 8

$$$$
=
 OpenBabel10222421263D

 40 44  0  0  1  0  0  0  0  0999 V2000
  190.6110  175.4030  138.7610 F   0  0  0  0  0  0  0  0  0  0  0  0
  185.0900  176.7770  134.8990 C   0  0  0  0  0  3  0  0  0  0  0  0
  184.3020  174.3500  135.9350 N   0  0  0  0  0  0  0  0  0  0  0  0
  187.2940  176.5930  135.8880 N   0  0  0  0  0  2  0  0  0  0  0  0
  188.6680  177.6970  137.5510 C   0  0  1  0  0  3  0  0  0  0  0  0
  186.5020  173.8190  136.8010 C   0  0  0  0  0  0  0  0  0  0  0  0
  189.0220  174.0220  137.0330 C   0  0  0  0  0  2  0  0  0  0  0  0
  183.7910  176.3210  134.6950 C   0  0  0  0  0  3  0  0  0  0  0  0
  190.4810  176.0430  137.5350 C   0  0  1  0  0  0  0  0  0  0  0  0
  183.4070  175.0970  135.2390 C   0  0  0  0  0  3  0  0  0  0  0  0
  186.0010  176.0200  135.6380 C   0  0  0  0  0  0  0  0  0  0  0  0
  189.2990  175.4970  136.7380 C   0  0  2  0  0  3  0  0  0  0  0  0
  190.1620  177.5030  137.7950 C   0  0  0  0  0  2  0  0  0  0  0  0
  185.5850  174.7570  136.1350 C   0  0  0  0  0  0  0  0  0  0  0  0
  186.1320  173.2340  137.8530 O   0  0  0  0  0  0  0  0  0  0  0  0
  188.1040  176.3700  137.0800 C   0  0  2  0  0  3  0  0  0  0  0  0
  187.8400  173.5460  136.2600 C   0  0  0  0  0  0  0  0  0  0  0  0
  187.9910  173.2210  134.9800 C   0  0  0  0  0  2  0  0  0  0  0  0
  187.9640  178.1290  138.8300 C   0  0  0  0  0  2  0  0  0  0  0  0
  187.1980  178.5070  141.5450 O   0  0  0  0  0  0  0  0  0  0  0  0
  188.0590  177.6200  141.2970 C   0  0  0  0  0  0  0  0  0  0  0  0
  188.5060  177.3940  139.9620 N   0  0  0  0  0  2  0  0  0  0  0  0
  188.6460  176.8310  142.4140 C   0  0  0  0  0  2  0  0  0  0  0  0
  189.6580  177.5750  143.0350 O   0  0  0  0  0  0  0  0  0  0  0  0
  189.9490  176.5510  146.8140 O   0  0  0  0  0  0  0  0  0  0  0  0
  191.8050  175.9450  144.0890 N   0  0  0  0  0  1  0  0  0  0  0  0
  191.8770  178.3470  144.4150 C   0  0  0  0  0  1  0  0  0  0  0  0
  188.9300  178.0070  145.1560 C   0  0  0  0  0  2  0  0  0  0  0  0
  191.2150  176.8420  146.2690 C   0  0  0  0  0  2  0  0  0  0  0  0
  189.1650  177.7070  146.6450 C   0  0  0  0  0  2  0  0  0  0  0  0
  191.1330  177.0550  144.7480 C   0  0  2  0  0  0  0  0  0  0  0  0
  189.7170  177.1000  144.3070 N   0  0  0  0  0  0  0  0  0  0  0  0
  191.7840  175.9660  136.7390 C   0  0  0  0  0  2  0  0  0  0  0  0
  193.0140  176.4160  137.5290 C   0  0  0  0  0  2  0  0  0  0  0  0
  194.8180  175.3730  138.7510 N   0  0  0  0  0  0  0  0  0  0  0  0
  194.5830  172.9120  137.4310 C   0  0  0  0  0  3  0  0  0  0  0  0
  193.8110  174.0550  137.0600 N   0  0  0  0  0  0  0  0  0  0  0  0
  195.5010  173.0100  138.3910 C   0  0  0  0  0  3  0  0  0  0  0  0
  195.7970  174.3260  139.0670 C   0  0  0  0  0  3  0  0  0  0  0  0
  193.9390  175.2750  137.7980 C   0  0  0  0  0  0  0  0  0  0  0  0
  2 11  1  0  0  0  0
  3 14  1  0  0  0  0
  5 13  1  0  0  0  0
  5 19  1  1  0  0  0
  6 15  2  0  0  0  0
  8  2  2  0  0  0  0
  8 10  1  0  0  0  0
  9 13  1  0  0  0  0
  9  1  1  1  0  0  0
 10  3  2  0  0  0  0
 11  4  1  0  0  0  0
 11 14  2  0  0  0  0
 12  7  1  1  0  0  0
 12 16  1  0  0  0  0
 12  9  1  0  0  0  0
 14  6  1  0  0  0  0
 16  4  1  6  0  0  0
 16  5  1  0  0  0  0
 17  6  1  0  0  0  0
 17  7  1  0  0  0  0
 18 17  2  0  0  0  0
 19 22  1  0  0  0  0
 21 20  2  0  0  0  0
 21 23  1  0  0  0  0
 22 21  1  0  0  0  0
 23 24  1  0  0  0  0
 24 32  1  0  0  0  0
 26 31  1  0  0  0  0
 28 30  1  0  0  0  0
 29 25  1  0  0  0  0
 30 25  1  0  0  0  0
 31 27  1  6  0  0  0
 31 29  1  0  0  0  0
 32 31  1  0  0  0  0
 32 28  1  0  0  0  0
 33 34  1  0  0  0  0
 33  9  1  0  0  0  0
 34 40  1  0  0  0  0
 35 39  1  0  0  0  0
 36 38  1  0  0  0  0
 37 36  2  0  0  0  0
 37 40  1  0  0  0  0
 38 39  2  0  0  0  0
 40 35  2  0  0  0  0
M  END
>  <MODEL>
8

>  <REMARK>
 VINA RESULT:      -7.5      4.739      8.085
  Name = 
  8 active torsions:
  status: ('A' for Active; 'I' for Inactive)
    1  A    between atoms: C_3  and  C_14
    2  A    between atoms: C_3  and  N_38
    3  A    between atoms: O_4  and  C_16
    4  A    between atoms: O_4  and  N_37
    5  A    between atoms: C_12  and  C_33
    6  A    between atoms: C_12  and  C_40
    7  A    between atoms: C_16  and  C_21
    8  A    between atoms: C_22  and  C_33
                            x       y       z     vdW  Elec       q    Type
                         _______ _______ _______ _____ _____    ______ ____

>  <TORSDO>
F 8

$$$$
=
 OpenBabel10222421263D

 40 44  0  0  1  0  0  0  0  0999 V2000
  189.1800  178.8460  136.8050 F   0  0  0  0  0  0  0  0  0  0  0  0
  185.5000  173.0480  137.1620 C   0  0  0  0  0  3  0  0  0  0  0  0
  183.8800  174.4860  135.4630 N   0  0  0  0  0  0  0  0  0  0  0  0
  186.9580  174.9460  137.5350 N   0  0  0  0  0  2  0  0  0  0  0  0
  189.2490  175.6210  137.1220 C   0  0  1  0  0  3  0  0  0  0  0  0
  185.0280  176.5800  135.8730 C   0  0  0  0  0  0  0  0  0  0  0  0
  186.5510  178.1940  137.1040 C   0  0  0  0  0  2  0  0  0  0  0  0
  184.4220  172.4280  136.5360 C   0  0  0  0  0  3  0  0  0  0  0  0
  188.9710  177.9500  137.8450 C   0  0  1  0  0  0  0  0  0  0  0  0
  183.6230  173.1690  135.6680 C   0  0  0  0  0  3  0  0  0  0  0  0
  185.7780  174.3950  136.9280 C   0  0  0  0  0  0  0  0  0  0  0  0
  187.5980  177.2880  137.7520 C   0  0  2  0  0  3  0  0  0  0  0  0
  189.9800  176.8250  137.7110 C   0  0  0  0  0  2  0  0  0  0  0  0
  184.9120  175.1270  136.0750 C   0  0  0  0  0  0  0  0  0  0  0  0
  184.9390  177.0520  134.7090 O   0  0  0  0  0  0  0  0  0  0  0  0
  187.7890  176.0020  136.9670 C   0  0  2  0  0  3  0  0  0  0  0  0
  185.2410  177.4930  137.0040 C   0  0  0  0  0  0  0  0  0  0  0  0
  184.4590  177.4230  138.0760 C   0  0  0  0  0  2  0  0  0  0  0  0
  189.8290  175.2490  135.7650 C   0  0  0  0  0  2  0  0  0  0  0  0
  191.8160  173.4050  136.6320 O   0  0  0  0  0  0  0  0  0  0  0  0
  192.2050  174.5190  136.1860 C   0  0  0  0  0  0  0  0  0  0  0  0
  191.2610  175.4990  135.7560 N   0  0  0  0  0  2  0  0  0  0  0  0
  193.6590  174.8300  136.1470 C   0  0  0  0  0  2  0  0  0  0  0  0
  194.2700  174.3700  137.3210 O   0  0  0  0  0  0  0  0  0  0  0  0
  197.9790  175.6290  137.0570 O   0  0  0  0  0  0  0  0  0  0  0  0
  196.1970  174.1310  139.4680 N   0  0  0  0  0  1  0  0  0  0  0  0
  196.2760  172.5520  137.6290 C   0  0  0  0  0  1  0  0  0  0  0  0
  195.9230  175.0480  135.8990 C   0  0  0  0  0  2  0  0  0  0  0  0
  197.9070  174.4130  137.7650 C   0  0  0  0  0  2  0  0  0  0  0  0
  197.4180  175.3890  135.7900 C   0  0  0  0  0  2  0  0  0  0  0  0
  196.4470  174.0140  138.0390 C   0  0  2  0  0  0  0  0  0  0  0  0
  195.5180  174.9080  137.3060 N   0  0  0  0  0  0  0  0  0  0  0  0
  189.1810  178.6290  139.2000 C   0  0  0  0  0  2  0  0  0  0  0  0
  188.1820  178.1870  140.2700 C   0  0  0  0  0  2  0  0  0  0  0  0
  188.1750  177.2580  142.5000 N   0  0  0  0  0  0  0  0  0  0  0  0
  190.9270  176.7270  142.5250 C   0  0  0  0  0  3  0  0  0  0  0  0
  190.2910  177.4190  141.4480 N   0  0  0  0  0  0  0  0  0  0  0  0
  190.2220  176.3700  143.5970 C   0  0  0  0  0  3  0  0  0  0  0  0
  188.7640  176.7320  143.7380 C   0  0  0  0  0  3  0  0  0  0  0  0
  188.8750  177.6230  141.4670 C   0  0  0  0  0  0  0  0  0  0  0  0
  3 10  2  0  0  0  0
  3 14  1  0  0  0  0
  5 19  1  6  0  0  0
  5 13  1  0  0  0  0
  6 14  1  0  0  0  0
  6 17  1  0  0  0  0
  8  2  2  0  0  0  0
  9  1  1  6  0  0  0
  9 33  1  0  0  0  0
 10  8  1  0  0  0  0
 11  2  1  0  0  0  0
 11  4  1  0  0  0  0
 12  7  1  6  0  0  0
 12  9  1  0  0  0  0
 13  9  1  0  0  0  0
 14 11  2  0  0  0  0
 15  6  2  0  0  0  0
 16  5  1  0  0  0  0
 16  4  1  1  0  0  0
 16 12  1  0  0  0  0
 17  7  1  0  0  0  0
 17 18  2  0  0  0  0
 21 20  2  0  0  0  0
 22 19  1  0  0  0  0
 22 21  1  0  0  0  0
 23 21  1  0  0  0  0
 23 24  1  0  0  0  0
 25 29  1  0  0  0  0
 28 32  1  0  0  0  0
 29 31  1  0  0  0  0
 30 28  1  0  0  0  0
 30 25  1  0  0  0  0
 31 27  1  6  0  0  0
 31 26  1  0  0  0  0
 32 24  1  0  0  0  0
 32 31  1  0  0  0  0
 33 34  1  0  0  0  0
 34 40  1  0  0  0  0
 35 39  1  0  0  0  0
 36 38  1  0  0  0  0
 37 40  1  0  0  0  0
 37 36  2  0  0  0  0
 38 39  2  0  0  0  0
 40 35  2  0  0  0  0
M  END
>  <MODEL>
9

>  <REMARK>
 VINA RESULT:      -7.5      5.410      7.389
  Name = 
  8 active torsions:
  status: ('A' for Active; 'I' for Inactive)
    1  A    between atoms: C_3  and  C_14
    2  A    between atoms: C_3  and  N_38
    3  A    between atoms: O_4  and  C_16
    4  A    between atoms: O_4  and  N_37
    5  A    between atoms: C_12  and  C_33
    6  A    between atoms: C_12  and  C_40
    7  A    between atoms: C_16  and  C_21
    8  A    between atoms: C_22  and  C_33
                            x       y       z     vdW  Elec       q    Type
                         _______ _______ _______ _____ _____    ______ ____

>  <TORSDO>
F 8

$$$$
