=
 OpenBabel10222417323D

 59 67  0  0  1  0  0  0  0  0999 V2000
  189.5500  177.7140  139.9500 C   0  0  0  0  0  2  0  0  0  0  0  0
  183.5280  179.2980  141.7630 C   0  0  0  0  0  0  0  0  0  0  0  0
  180.2410  175.6740  135.6190 C   0  0  0  0  0  0  0  0  0  0  0  0
  185.0700  178.1880  143.8920 N   0  0  0  0  0  0  0  0  0  0  0  0
  180.9660  174.3750  135.6050 C   0  0  0  0  0  0  0  0  0  0  0  0
  183.8280  175.2180  137.9000 C   0  0  0  0  0  2  0  0  0  0  0  0
  182.9500  176.8900  139.5990 C   0  0  0  0  0  2  0  0  0  0  0  0
  182.3510  171.9590  135.5870 C   0  0  0  0  0  0  0  0  0  0  0  0
  182.8900  173.0750  136.2400 C   0  0  0  0  0  3  0  0  0  0  0  0
  182.2050  174.2990  136.2580 C   0  0  0  0  0  0  0  0  0  0  0  0
  183.0620  179.4720  143.1560 C   0  0  0  0  0  0  0  0  0  0  0  0
  187.3850  177.9110  141.1560 C   0  0  1  0  0  3  0  0  0  0  0  0
  183.4120  178.8300  145.4450 N   0  0  0  0  0  2  0  0  0  0  0  0
  186.7290  177.5770  142.3770 O   0  0  0  0  0  0  0  0  0  0  0  0
  182.7450  179.9540  140.6660 C   0  0  0  0  0  1  0  0  0  0  0  0
  187.8410  176.1670  136.8080 C   0  0  1  0  0  3  0  0  0  0  0  0
  186.9730  177.2020  136.3730 O   0  0  0  0  0  0  0  0  0  0  0  0
  182.0880  176.7810  136.9000 C   0  0  1  0  0  3  0  0  0  0  0  0
  184.1210  178.1960  137.8420 C   0  0  0  0  0  0  0  0  0  0  0  0
  184.0420  177.8130  139.1410 C   0  0  0  0  0  0  0  0  0  0  0  0
  184.6450  178.5650  141.5200 C   0  0  0  0  0  0  0  0  0  0  0  0
  188.0180  176.4350  138.3140 C   0  0  1  0  0  3  0  0  0  0  0  0
  183.0540  177.9700  136.7860 C   0  0  0  0  0  2  0  0  0  0  0  0
  183.3300  175.4310  139.3320 C   0  0  0  0  0  2  0  0  0  0  0  0
  187.1700  174.8230  136.6020 C   0  0  0  0  0  1  0  0  0  0  0  0
  183.8240  178.8080  144.2210 C   0  0  0  0  0  0  0  0  0  0  0  0
  185.4750  178.1010  142.6580 C   0  0  0  0  0  0  0  0  0  0  0  0
  188.6900  177.1130  141.0400 C   0  0  2  0  0  3  0  0  0  0  0  0
  186.4240  177.8150  139.9590 C   0  0  2  0  0  3  0  0  0  0  0  0
  189.4780  177.1600  142.3360 C   0  0  0  0  0  1  0  0  0  0  0  0
  189.4580  176.9050  138.6630 C   0  0  1  0  0  3  0  0  0  0  0  0
  186.4560  177.8870  137.4550 C   0  0  0  0  0  0  0  0  0  0  0  0
  181.1180  172.0980  134.9380 C   0  0  0  0  0  3  0  0  0  0  0  0
  178.9470  175.6740  136.3990 C   0  0  0  0  0  2  0  0  0  0  0  0
  186.9620  177.4660  138.6010 C   0  0  0  0  0  0  0  0  0  0  0  0
  181.0730  176.9270  135.7620 C   0  0  0  0  0  2  0  0  0  0  0  0
  180.4570  173.2860  134.9650 N   0  0  0  0  0  0  0  0  0  0  0  0
  185.3490  178.8710  137.3470 C   0  0  0  0  0  2  0  0  0  0  0  0
  185.1020  178.1400  140.1530 C   0  0  1  0  0  3  0  0  0  0  0  0
  178.9310  175.7940  134.8750 C   0  0  0  0  0  2  0  0  0  0  0  0
  182.7660  175.4590  136.9210 N   0  0  0  0  0  0  0  0  0  0  0  0
  182.0320  180.1500  143.4200 O   0  0  0  0  0  0  0  0  0  0  0  0
  183.2810  170.1270  136.8230 O   0  0  0  0  0  1  0  0  0  0  0  0
  183.0840  170.6460  135.5410 C   0  0  1  0  0  3  0  0  0  0  0  0
  182.3300  169.6290  134.6970 C   0  0  0  0  0  1  0  0  0  0  0  0
  190.1790  177.6770  137.5600 C   0  0  0  0  0  2  0  0  0  0  0  0
  191.5150  177.1180  137.3570 N   0  0  0  0  0  2  0  0  0  0  0  0
  190.5110  176.4840  135.3250 O   0  0  0  0  0  1  0  0  0  0  0  0
  191.5270  176.1740  136.2390 C   0  0  2  0  0  0  0  0  0  0  0  0
  191.2630  174.7920  136.8090 C   0  0  0  0  0  1  0  0  0  0  0  0
  192.9040  176.1970  135.5570 C   0  0  0  0  0  2  0  0  0  0  0  0
  194.0560  176.5820  136.4830 C   0  0  0  0  0  2  0  0  0  0  0  0
  195.2290  176.9670  135.7100 N   0  0  0  0  0  2  0  0  0  0  0  0
  195.8800  175.7490  135.2360 C   0  0  0  0  0  2  0  0  0  0  0  0
  197.3300  175.9120  135.2370 N   0  0  0  0  0  2  0  0  0  0  0  0
  197.8910  174.9220  136.1490 C   0  0  0  0  0  2  0  0  0  0  0  0
  196.7730  174.0970  136.7660 C   0  0  0  0  0  2  0  0  0  0  0  0
  197.3460  172.9960  137.6380 C   0  0  0  0  0  2  0  0  0  0  0  0
  196.7380  171.6660  137.2380 C   0  0  0  0  0  1  0  0  0  0  0  0
  1 28  1  0  0  0  0
  2 11  1  0  0  0  0
  3 36  1  0  0  0  0
  3 34  1  0  0  0  0
  4 26  1  0  0  0  0
  5  3  1  0  0  0  0
  5 10  1  0  0  0  0
  6 24  1  0  0  0  0
  8  9  1  0  0  0  0
  9 10  2  0  0  0  0
 10 41  1  0  0  0  0
 11 42  2  0  0  0  0
 11 26  1  0  0  0  0
 12 14  1  1  0  0  0
 14 27  1  0  0  0  0
 15  2  1  0  0  0  0
 16 25  1  1  0  0  0
 16 22  1  0  0  0  0
 17 16  1  0  0  0  0
 17 32  1  0  0  0  0
 18 36  1  6  0  0  0
 18 41  1  0  0  0  0
 19 20  2  0  0  0  0
 20  7  1  0  0  0  0
 21  2  2  0  0  0  0
 21 27  1  0  0  0  0
 22 35  1  6  0  0  0
 22 31  1  0  0  0  0
 23 18  1  0  0  0  0
 23 19  1  0  0  0  0
 24  7  1  0  0  0  0
 26 13  2  0  0  0  0
 27  4  2  0  0  0  0
 28 12  1  0  0  0  0
 28 30  1  1  0  0  0
 29 35  1  6  0  0  0
 29 39  1  0  0  0  0
 29 12  1  0  0  0  0
 31 46  1  6  0  0  0
 31  1  1  0  0  0  0
 32 35  2  0  0  0  0
 33 37  1  0  0  0  0
 33  8  2  0  0  0  0
 37  5  2  0  0  0  0
 38 32  1  0  0  0  0
 38 19  1  0  0  0  0
 39 20  1  1  0  0  0
 39 21  1  0  0  0  0
 40  3  1  0  0  0  0
 40 34  1  0  0  0  0
 41  6  1  0  0  0  0
 44 45  1  6  0  0  0
 44  8  1  0  0  0  0
 44 43  1  0  0  0  0
 47 46  1  0  0  0  0
 48 49  1  0  0  0  0
 49 50  1  1  0  0  0
 49 47  1  0  0  0  0
 51 49  1  0  0  0  0
 51 52  1  0  0  0  0
 53 52  1  0  0  0  0
 54 55  1  0  0  0  0
 54 53  1  0  0  0  0
 55 56  1  0  0  0  0
 56 57  1  0  0  0  0
 57 58  1  0  0  0  0
 59 58  1  0  0  0  0
M  END
>  <MODEL>
1

>  <REMARK>
 VINA RESULT:      -3.1      0.000      0.000
  Name = 
  12 active torsions:
  status: ('A' for Active; 'I' for Inactive)
    1  A    between atoms: C_1  and  N_27
    2  A    between atoms: C_1  and  C_43
    3  A    between atoms: C_5  and  C_29
    4  A    between atoms: C_12  and  C_37
    5  A    between atoms: C_24  and  C_40
    6  A    between atoms: C_24  and  N_46
    7  A    between atoms: N_27  and  C_28
    8  A    between atoms: C_28  and  C_40
    9  A    between atoms: C_29  and  C_59
   10  A    between atoms: N_33  and  C_56
   11  A    between atoms: N_33  and  C_59
   12  A    between atoms: N_46  and  C_56
                            x       y       z     vdW  Elec       q    Type
                         _______ _______ _______ _____ _____    ______ ____

>  <TORSDO>
F 12

$$$$
=
 OpenBabel10222417323D

 59 67  0  0  1  0  0  0  0  0999 V2000
  179.9750  177.4420  141.5090 C   0  0  0  0  0  2  0  0  0  0  0  0
  181.4710  174.1180  136.1450 C   0  0  0  0  0  0  0  0  0  0  0  0
  188.6770  177.2080  135.6980 C   0  0  0  0  0  0  0  0  0  0  0  0
  180.3420  172.4760  138.1870 N   0  0  0  0  0  0  0  0  0  0  0  0
  189.1490  177.0920  137.1040 C   0  0  0  0  0  0  0  0  0  0  0  0
  185.8740  176.3820  138.8180 C   0  0  0  0  0  2  0  0  0  0  0  0
  184.4440  175.0750  137.1750 C   0  0  0  0  0  2  0  0  0  0  0  0
  190.0030  176.8810  139.7470 C   0  0  0  0  0  0  0  0  0  0  0  0
  188.6360  176.8450  139.4420 C   0  0  0  0  0  3  0  0  0  0  0  0
  188.1890  176.9500  138.1170 C   0  0  0  0  0  0  0  0  0  0  0  0
  180.9620  172.7750  135.7900 C   0  0  0  0  0  0  0  0  0  0  0  0
  180.5030  175.6470  139.8730 C   0  0  1  0  0  3  0  0  0  0  0  0
  180.1180  170.6970  136.6510 N   0  0  0  0  0  2  0  0  0  0  0  0
  180.5260  174.2300  139.7060 O   0  0  0  0  0  0  0  0  0  0  0  0
  181.9890  174.9950  135.0450 C   0  0  0  0  0  1  0  0  0  0  0  0
  183.4690  179.1050  141.0540 C   0  0  1  0  0  3  0  0  0  0  0  0
  183.4680  179.4830  139.6860 O   0  0  0  0  0  0  0  0  0  0  0  0
  186.2780  177.0980  136.4100 C   0  0  1  0  0  3  0  0  0  0  0  0
  183.7250  177.4470  137.0280 C   0  0  0  0  0  0  0  0  0  0  0  0
  183.4160  176.1590  137.3240 C   0  0  0  0  0  0  0  0  0  0  0  0
  181.4460  174.5190  137.4430 C   0  0  0  0  0  0  0  0  0  0  0  0
  182.4780  177.9280  141.1180 C   0  0  1  0  0  3  0  0  0  0  0  0
  184.9800  177.9140  136.3140 C   0  0  0  0  0  2  0  0  0  0  0  0
  185.3390  175.0050  138.4150 C   0  0  0  0  0  2  0  0  0  0  0  0
  184.8550  178.6300  141.4480 C   0  0  0  0  0  1  0  0  0  0  0  0
  180.4760  171.9170  136.8770 C   0  0  0  0  0  0  0  0  0  0  0  0
  180.7520  173.6820  138.4510 C   0  0  0  0  0  0  0  0  0  0  0  0
  180.3550  175.9850  141.3620 C   0  0  2  0  0  3  0  0  0  0  0  0
  181.6770  176.3160  139.1390 C   0  0  2  0  0  3  0  0  0  0  0  0
  179.2650  175.1500  142.0080 C   0  0  0  0  0  1  0  0  0  0  0  0
  181.1790  178.2930  141.8890 C   0  0  1  0  0  3  0  0  0  0  0  0
  182.7900  178.5510  138.9270 C   0  0  0  0  0  0  0  0  0  0  0  0
  190.9150  177.0410  138.6960 C   0  0  0  0  0  3  0  0  0  0  0  0
  189.0450  176.0480  134.8030 C   0  0  0  0  0  2  0  0  0  0  0  0
  182.2470  177.6020  139.6680 C   0  0  0  0  0  0  0  0  0  0  0  0
  187.2920  177.7690  135.4790 C   0  0  0  0  0  2  0  0  0  0  0  0
  190.4750  177.1350  137.4120 N   0  0  0  0  0  0  0  0  0  0  0  0
  182.8050  178.5390  137.4420 C   0  0  0  0  0  2  0  0  0  0  0  0
  182.1170  175.7590  137.9620 C   0  0  1  0  0  3  0  0  0  0  0  0
  189.6910  177.4170  134.5960 C   0  0  0  0  0  2  0  0  0  0  0  0
  186.7760  176.9260  137.8000 N   0  0  0  0  0  0  0  0  0  0  0  0
  180.9640  172.3710  134.5950 O   0  0  0  0  0  0  0  0  0  0  0  0
  189.8930  175.7300  141.8460 O   0  0  0  0  0  1  0  0  0  0  0  0
  190.4940  176.7910  141.1660 C   0  0  1  0  0  3  0  0  0  0  0  0
  192.0060  176.6250  141.2090 C   0  0  0  0  0  1  0  0  0  0  0  0
  180.7680  179.7620  141.8180 C   0  0  0  0  0  2  0  0  0  0  0  0
  179.5970  179.9070  140.9550 N   0  0  0  0  0  2  0  0  0  0  0  0
  181.2080  181.2330  139.8660 O   0  0  0  0  0  1  0  0  0  0  0  0
  179.9030  180.7280  139.7820 C   0  0  2  0  0  0  0  0  0  0  0  0
  178.9310  181.8940  139.7780 C   0  0  0  0  0  1  0  0  0  0  0  0
  179.7170  179.8960  138.5040 C   0  0  0  0  0  2  0  0  0  0  0  0
  178.9310  180.6060  137.4040 C   0  0  0  0  0  2  0  0  0  0  0  0
  179.5270  180.3460  136.1000 N   0  0  0  0  0  2  0  0  0  0  0  0
  179.2330  181.4820  135.2310 C   0  0  0  0  0  2  0  0  0  0  0  0
  179.2630  182.7270  135.9900 N   0  0  0  0  0  2  0  0  0  0  0  0
  180.6570  183.1290  136.1370 C   0  0  0  0  0  2  0  0  0  0  0  0
  180.7770  184.6390  136.0020 C   0  0  0  0  0  2  0  0  0  0  0  0
  181.0910  185.2680  137.3450 C   0  0  0  0  0  2  0  0  0  0  0  0
  179.8050  185.7230  138.0040 C   0  0  0  0  0  1  0  0  0  0  0  0
  1 31  1  0  0  0  0
  2 21  2  0  0  0  0
  3  5  1  0  0  0  0
  4 27  2  0  0  0  0
  5 37  2  0  0  0  0
  5 10  1  0  0  0  0
  7 20  1  0  0  0  0
  7 24  1  0  0  0  0
  8 44  1  0  0  0  0
  9  8  1  0  0  0  0
 10  9  2  0  0  0  0
 11  2  1  0  0  0  0
 11 26  1  0  0  0  0
 12 14  1  1  0  0  0
 12 28  1  0  0  0  0
 13 26  2  0  0  0  0
 15  2  1  0  0  0  0
 16 22  1  0  0  0  0
 16 25  1  6  0  0  0
 17 16  1  0  0  0  0
 18 36  1  6  0  0  0
 18 41  1  0  0  0  0
 19 20  2  0  0  0  0
 19 38  1  0  0  0  0
 21 39  1  0  0  0  0
 21 27  1  0  0  0  0
 22 35  1  6  0  0  0
 22 31  1  0  0  0  0
 23 18  1  0  0  0  0
 23 19  1  0  0  0  0
 24  6  1  0  0  0  0
 26  4  1  0  0  0  0
 27 14  1  0  0  0  0
 28  1  1  0  0  0  0
 28 30  1  6  0  0  0
 29 35  1  6  0  0  0
 29 12  1  0  0  0  0
 31 46  1  6  0  0  0
 32 35  2  0  0  0  0
 32 17  1  0  0  0  0
 33  8  2  0  0  0  0
 34  3  1  0  0  0  0
 36  3  1  0  0  0  0
 37 33  1  0  0  0  0
 38 32  1  0  0  0  0
 39 20  1  1  0  0  0
 39 29  1  0  0  0  0
 40 34  1  0  0  0  0
 40  3  1  0  0  0  0
 41 10  1  0  0  0  0
 41  6  1  0  0  0  0
 42 11  2  0  0  0  0
 44 45  1  6  0  0  0
 44 43  1  0  0  0  0
 47 46  1  0  0  0  0
 49 50  1  6  0  0  0
 49 48  1  0  0  0  0
 49 47  1  0  0  0  0
 51 49  1  0  0  0  0
 52 51  1  0  0  0  0
 53 52  1  0  0  0  0
 54 55  1  0  0  0  0
 54 53  1  0  0  0  0
 55 56  1  0  0  0  0
 57 56  1  0  0  0  0
 57 58  1  0  0  0  0
 58 59  1  0  0  0  0
M  END
>  <MODEL>
2

>  <REMARK>
 VINA RESULT:      -2.0      3.509     10.646
  Name = 
  12 active torsions:
  status: ('A' for Active; 'I' for Inactive)
    1  A    between atoms: C_1  and  N_27
    2  A    between atoms: C_1  and  C_43
    3  A    between atoms: C_5  and  C_29
    4  A    between atoms: C_12  and  C_37
    5  A    between atoms: C_24  and  C_40
    6  A    between atoms: C_24  and  N_46
    7  A    between atoms: N_27  and  C_28
    8  A    between atoms: C_28  and  C_40
    9  A    between atoms: C_29  and  C_59
   10  A    between atoms: N_33  and  C_56
   11  A    between atoms: N_33  and  C_59
   12  A    between atoms: N_46  and  C_56
                            x       y       z     vdW  Elec       q    Type
                         _______ _______ _______ _____ _____    ______ ____

>  <TORSDO>
F 12

$$$$
=
 OpenBabel10222417323D

 59 67  0  0  1  0  0  0  0  0999 V2000
  190.2460  177.1010  140.3090 C   0  0  0  0  0  2  0  0  0  0  0  0
  184.9520  179.1520  143.4450 C   0  0  0  0  0  0  0  0  0  0  0  0
  180.2690  177.9440  137.2570 C   0  0  0  0  0  0  0  0  0  0  0  0
  186.4680  177.2600  144.9500 N   0  0  0  0  0  0  0  0  0  0  0  0
  180.6980  176.5910  136.8070 C   0  0  0  0  0  0  0  0  0  0  0  0
  183.9250  176.2770  138.7180 C   0  0  0  0  0  2  0  0  0  0  0  0
  183.6270  177.5540  140.8940 C   0  0  0  0  0  2  0  0  0  0  0  0
  181.5300  174.0680  135.9720 C   0  0  0  0  0  0  0  0  0  0  0  0
  182.3650  174.8560  136.7730 C   0  0  0  0  0  3  0  0  0  0  0  0
  181.9610  176.1300  137.2030 C   0  0  0  0  0  0  0  0  0  0  0  0
  184.7020  179.0210  144.8970 C   0  0  0  0  0  0  0  0  0  0  0  0
  188.3310  177.3360  141.8760 C   0  0  1  0  0  3  0  0  0  0  0  0
  185.1800  177.7340  146.8700 N   0  0  0  0  0  2  0  0  0  0  0  0
  187.7690  176.8030  143.0740 O   0  0  0  0  0  0  0  0  0  0  0  0
  184.2010  180.2040  142.6870 C   0  0  0  0  0  1  0  0  0  0  0  0
  187.8880  176.7780  137.2240 C   0  0  1  0  0  3  0  0  0  0  0  0
  187.2130  178.0260  137.2050 O   0  0  0  0  0  0  0  0  0  0  0  0
  182.4460  178.3280  138.4350 C   0  0  1  0  0  3  0  0  0  0  0  0
  184.8290  179.0630  139.3310 C   0  0  0  0  0  0  0  0  0  0  0  0
  184.8260  178.3640  140.4940 C   0  0  0  0  0  0  0  0  0  0  0  0
  185.8530  178.3290  142.8470 C   0  0  0  0  0  0  0  0  0  0  0  0
  188.2960  176.5950  138.6970 C   0  0  1  0  0  3  0  0  0  0  0  0
  183.6210  179.3180  138.4490 C   0  0  0  0  0  2  0  0  0  0  0  0
  183.6560  176.1780  140.2220 C   0  0  0  0  0  2  0  0  0  0  0  0
  186.9300  175.6760  136.8160 C   0  0  0  0  0  1  0  0  0  0  0  0
  185.4280  177.9730  145.6250 C   0  0  0  0  0  0  0  0  0  0  0  0
  186.6960  177.4400  143.6810 C   0  0  0  0  0  0  0  0  0  0  0  0
  189.4150  176.3860  141.3520 C   0  0  2  0  0  3  0  0  0  0  0  0
  187.2360  177.7340  140.8730 C   0  0  2  0  0  3  0  0  0  0  0  0
  190.3440  175.9450  142.4680 C   0  0  0  0  0  1  0  0  0  0  0  0
  189.8340  176.6980  138.9000 C   0  0  1  0  0  3  0  0  0  0  0  0
  186.9840  178.4720  138.4910 C   0  0  0  0  0  0  0  0  0  0  0  0
  180.2860  174.5880  135.5940 C   0  0  0  0  0  3  0  0  0  0  0  0
  179.1070  177.9570  138.2210 C   0  0  0  0  0  2  0  0  0  0  0  0
  187.5220  177.6770  139.3990 C   0  0  0  0  0  0  0  0  0  0  0  0
  181.3570  178.9480  137.5550 C   0  0  0  0  0  2  0  0  0  0  0  0
  179.8970  175.8200  136.0190 N   0  0  0  0  0  0  0  0  0  0  0  0
  186.1040  179.6240  138.8130 C   0  0  0  0  0  2  0  0  0  0  0  0
  186.0440  178.2180  141.3600 C   0  0  1  0  0  3  0  0  0  0  0  0
  178.9340  178.4840  136.7970 C   0  0  0  0  0  2  0  0  0  0  0  0
  182.8290  176.9530  138.0210 N   0  0  0  0  0  0  0  0  0  0  0  0
  183.8770  179.7690  145.4880 O   0  0  0  0  0  0  0  0  0  0  0  0
  182.9350  172.1580  136.3200 O   0  0  0  0  0  1  0  0  0  0  0  0
  181.9600  172.7110  135.4870 C   0  0  1  0  0  3  0  0  0  0  0  0
  180.7730  171.7610  135.4030 C   0  0  0  0  0  1  0  0  0  0  0  0
  190.5650  177.6020  137.9100 C   0  0  0  0  0  2  0  0  0  0  0  0
  190.7310  176.9070  136.6350 N   0  0  0  0  0  2  0  0  0  0  0  0
  192.4560  175.9020  135.3880 O   0  0  0  0  0  1  0  0  0  0  0  0
  191.8940  176.0190  136.6670 C   0  0  2  0  0  0  0  0  0  0  0  0
  191.4080  174.6500  137.1100 C   0  0  0  0  0  1  0  0  0  0  0  0
  192.9260  176.5510  137.6730 C   0  0  0  0  0  2  0  0  0  0  0  0
  193.6090  175.4660  138.5030 C   0  0  0  0  0  2  0  0  0  0  0  0
  195.0200  175.3650  138.1520 N   0  0  0  0  0  2  0  0  0  0  0  0
  195.1680  174.2970  137.1680 C   0  0  0  0  0  2  0  0  0  0  0  0
  194.4430  173.1050  137.5930 N   0  0  0  0  0  2  0  0  0  0  0  0
  195.4240  172.0960  137.9720 C   0  0  0  0  0  2  0  0  0  0  0  0
  196.1470  171.5870  136.7350 C   0  0  0  0  0  2  0  0  0  0  0  0
  197.6020  172.0150  136.7580 C   0  0  0  0  0  2  0  0  0  0  0  0
  198.4870  170.7930  136.9050 C   0  0  0  0  0  1  0  0  0  0  0  0
  1 28  1  0  0  0  0
  2 11  1  0  0  0  0
  3 36  1  0  0  0  0
  3 34  1  0  0  0  0
  4 26  1  0  0  0  0
  5 10  1  0  0  0  0
  5  3  1  0  0  0  0
  6 24  1  0  0  0  0
  8  9  1  0  0  0  0
  9 10  2  0  0  0  0
 10 41  1  0  0  0  0
 11 42  2  0  0  0  0
 11 26  1  0  0  0  0
 12 14  1  1  0  0  0
 14 27  1  0  0  0  0
 15  2  1  0  0  0  0
 16 25  1  1  0  0  0
 16 22  1  0  0  0  0
 17 16  1  0  0  0  0
 17 32  1  0  0  0  0
 18 36  1  6  0  0  0
 18 23  1  0  0  0  0
 19 20  2  0  0  0  0
 20  7  1  0  0  0  0
 21  2  2  0  0  0  0
 21 27  1  0  0  0  0
 22 31  1  0  0  0  0
 22 35  1  1  0  0  0
 23 19  1  0  0  0  0
 24  7  1  0  0  0  0
 26 13  2  0  0  0  0
 27  4  2  0  0  0  0
 28 12  1  0  0  0  0
 28 30  1  1  0  0  0
 29 35  1  6  0  0  0
 29 39  1  0  0  0  0
 29 12  1  0  0  0  0
 31 46  1  6  0  0  0
 31  1  1  0  0  0  0
 32 38  1  0  0  0  0
 32 35  2  0  0  0  0
 33  8  2  0  0  0  0
 33 37  1  0  0  0  0
 37  5  2  0  0  0  0
 38 19  1  0  0  0  0
 39 20  1  1  0  0  0
 39 21  1  0  0  0  0
 40  3  1  0  0  0  0
 40 34  1  0  0  0  0
 41 18  1  0  0  0  0
 41  6  1  0  0  0  0
 44 45  1  1  0  0  0
 44  8  1  0  0  0  0
 44 43  1  0  0  0  0
 47 49  1  0  0  0  0
 47 46  1  0  0  0  0
 48 49  1  0  0  0  0
 49 50  1  1  0  0  0
 49 51  1  0  0  0  0
 51 52  1  0  0  0  0
 53 52  1  0  0  0  0
 54 55  1  0  0  0  0
 54 53  1  0  0  0  0
 55 56  1  0  0  0  0
 57 58  1  0  0  0  0
 57 56  1  0  0  0  0
 58 59  1  0  0  0  0
M  END
>  <MODEL>
3

>  <REMARK>
 VINA RESULT:      -1.5      1.649      2.112
  Name = 
  12 active torsions:
  status: ('A' for Active; 'I' for Inactive)
    1  A    between atoms: C_1  and  N_27
    2  A    between atoms: C_1  and  C_43
    3  A    between atoms: C_5  and  C_29
    4  A    between atoms: C_12  and  C_37
    5  A    between atoms: C_24  and  C_40
    6  A    between atoms: C_24  and  N_46
    7  A    between atoms: N_27  and  C_28
    8  A    between atoms: C_28  and  C_40
    9  A    between atoms: C_29  and  C_59
   10  A    between atoms: N_33  and  C_56
   11  A    between atoms: N_33  and  C_59
   12  A    between atoms: N_46  and  C_56
                            x       y       z     vdW  Elec       q    Type
                         _______ _______ _______ _____ _____    ______ ____

>  <TORSDO>
F 12

$$$$
=
 OpenBabel10222417323D

 59 67  0  0  1  0  0  0  0  0999 V2000
  179.6570  177.5520  141.2540 C   0  0  0  0  0  2  0  0  0  0  0  0
  181.3980  174.0530  136.0790 C   0  0  0  0  0  0  0  0  0  0  0  0
  188.5160  177.3490  135.6830 C   0  0  0  0  0  0  0  0  0  0  0  0
  180.2650  172.4640  138.1600 N   0  0  0  0  0  0  0  0  0  0  0  0
  188.9530  177.3080  137.1040 C   0  0  0  0  0  0  0  0  0  0  0  0
  185.6560  176.5680  138.7630 C   0  0  0  0  0  2  0  0  0  0  0  0
  184.3110  175.1470  137.1420 C   0  0  0  0  0  2  0  0  0  0  0  0
  189.7410  177.2370  139.7750 C   0  0  0  0  0  0  0  0  0  0  0  0
  188.3850  177.1440  139.4370 C   0  0  0  0  0  3  0  0  0  0  0  0
  187.9710  177.1780  138.0970 C   0  0  0  0  0  0  0  0  0  0  0  0
  180.9400  172.6810  135.7690 C   0  0  0  0  0  0  0  0  0  0  0  0
  180.2840  175.7070  139.7110 C   0  0  1  0  0  3  0  0  0  0  0  0
  180.1380  170.6150  136.6980 N   0  0  0  0  0  2  0  0  0  0  0  0
  180.3540  174.2860  139.6060 O   0  0  0  0  0  0  0  0  0  0  0  0
  181.9180  174.8980  134.9560 C   0  0  0  0  0  1  0  0  0  0  0  0
  183.1100  179.3050  140.8160 C   0  0  1  0  0  3  0  0  0  0  0  0
  183.1330  179.6240  139.4350 O   0  0  0  0  0  0  0  0  0  0  0  0
  186.1030  177.1930  136.3370 C   0  0  1  0  0  3  0  0  0  0  0  0
  183.5250  177.4870  136.8740 C   0  0  0  0  0  0  0  0  0  0  0  0
  183.2480  176.2030  137.2180 C   0  0  0  0  0  0  0  0  0  0  0  0
  181.3260  174.5070  137.3570 C   0  0  0  0  0  0  0  0  0  0  0  0
  182.1540  178.1010  140.9060 C   0  0  1  0  0  3  0  0  0  0  0  0
  184.7840  177.9630  136.1740 C   0  0  0  0  0  2  0  0  0  0  0  0
  185.1750  175.1590  138.4070 C   0  0  0  0  0  2  0  0  0  0  0  0
  184.4980  178.8910  141.2660 C   0  0  0  0  0  1  0  0  0  0  0  0
  180.4520  171.8540  136.8800 C   0  0  0  0  0  0  0  0  0  0  0  0
  180.6310  173.6930  138.3830 C   0  0  0  0  0  0  0  0  0  0  0  0
  180.0860  176.1030  141.1790 C   0  0  2  0  0  3  0  0  0  0  0  0
  181.4560  176.3810  138.9800 C   0  0  2  0  0  3  0  0  0  0  0  0
  179.0050  175.2620  141.8330 C   0  0  0  0  0  1  0  0  0  0  0  0
  180.8230  178.4570  141.6270 C   0  0  1  0  0  3  0  0  0  0  0  0
  182.5050  178.6400  138.6990 C   0  0  0  0  0  0  0  0  0  0  0  0
  190.6760  177.3810  138.7420 C   0  0  0  0  0  3  0  0  0  0  0  0
  188.9430  176.1640  134.8490 C   0  0  0  0  0  2  0  0  0  0  0  0
  181.9720  177.7060  139.4670 C   0  0  0  0  0  0  0  0  0  0  0  0
  187.1200  177.8560  135.4040 C   0  0  0  0  0  2  0  0  0  0  0  0
  190.2680  177.4070  137.4440 N   0  0  0  0  0  0  0  0  0  0  0  0
  182.5610  178.5650  137.2170 C   0  0  0  0  0  2  0  0  0  0  0  0
  181.9450  175.7900  137.8390 C   0  0  1  0  0  3  0  0  0  0  0  0
  189.5520  177.5430  134.5990 C   0  0  0  0  0  2  0  0  0  0  0  0
  186.5680  177.0960  137.7460 N   0  0  0  0  0  0  0  0  0  0  0  0
  180.9880  172.2270  134.5940 O   0  0  0  0  0  0  0  0  0  0  0  0
  189.5680  176.2070  141.9320 O   0  0  0  0  0  1  0  0  0  0  0  0
  190.1970  177.2230  141.2080 C   0  0  1  0  0  3  0  0  0  0  0  0
  191.7050  177.0460  141.2990 C   0  0  0  0  0  1  0  0  0  0  0  0
  180.3700  179.9080  141.4820 C   0  0  0  0  0  2  0  0  0  0  0  0
  180.3480  180.5520  142.7940 N   0  0  0  0  0  2  0  0  0  0  0  0
  179.2210  178.5380  143.2570 O   0  0  0  0  0  1  0  0  0  0  0  0
  179.8980  179.6220  143.8310 C   0  0  2  0  0  0  0  0  0  0  0  0
  178.9330  180.3760  144.7290 C   0  0  0  0  0  1  0  0  0  0  0  0
  181.1020  179.1430  144.6560 C   0  0  0  0  0  2  0  0  0  0  0  0
  182.4490  179.6630  144.1580 C   0  0  0  0  0  2  0  0  0  0  0  0
  183.4360  179.6390  145.2290 N   0  0  0  0  0  2  0  0  0  0  0  0
  184.6930  179.1400  144.6790 C   0  0  0  0  0  2  0  0  0  0  0  0
  185.2200  178.0590  145.5050 N   0  0  0  0  0  2  0  0  0  0  0  0
  186.3720  177.4900  144.8160 C   0  0  0  0  0  2  0  0  0  0  0  0
  187.6240  177.6810  145.6570 C   0  0  0  0  0  2  0  0  0  0  0  0
  188.8010  176.9620  145.0260 C   0  0  0  0  0  2  0  0  0  0  0  0
  190.0910  177.6380  145.4480 C   0  0  0  0  0  1  0  0  0  0  0  0
  1 31  1  0  0  0  0
  2 21  2  0  0  0  0
  3  5  1  0  0  0  0
  4 27  2  0  0  0  0
  5 37  2  0  0  0  0
  5 10  1  0  0  0  0
  7 20  1  0  0  0  0
  7 24  1  0  0  0  0
  8 44  1  0  0  0  0
  9  8  1  0  0  0  0
 10  9  2  0  0  0  0
 11  2  1  0  0  0  0
 11 26  1  0  0  0  0
 12 14  1  1  0  0  0
 12 28  1  0  0  0  0
 13 26  2  0  0  0  0
 15  2  1  0  0  0  0
 16 22  1  0  0  0  0
 16 25  1  6  0  0  0
 17 16  1  0  0  0  0
 18 36  1  6  0  0  0
 18 41  1  0  0  0  0
 19 38  1  0  0  0  0
 19 20  2  0  0  0  0
 21 39  1  0  0  0  0
 21 27  1  0  0  0  0
 22 35  1  6  0  0  0
 22 31  1  0  0  0  0
 23 18  1  0  0  0  0
 23 19  1  0  0  0  0
 24  6  1  0  0  0  0
 26  4  1  0  0  0  0
 27 14  1  0  0  0  0
 28  1  1  0  0  0  0
 28 30  1  6  0  0  0
 29 35  1  6  0  0  0
 29 12  1  0  0  0  0
 31 46  1  6  0  0  0
 32 17  1  0  0  0  0
 32 35  2  0  0  0  0
 33  8  2  0  0  0  0
 34  3  1  0  0  0  0
 36  3  1  0  0  0  0
 37 33  1  0  0  0  0
 38 32  1  0  0  0  0
 39 20  1  1  0  0  0
 39 29  1  0  0  0  0
 40 34  1  0  0  0  0
 40  3  1  0  0  0  0
 41 10  1  0  0  0  0
 41  6  1  0  0  0  0
 42 11  2  0  0  0  0
 44 45  1  6  0  0  0
 44 43  1  0  0  0  0
 46 47  1  0  0  0  0
 47 49  1  0  0  0  0
 48 49  1  0  0  0  0
 49 51  1  0  0  0  0
 49 50  1  1  0  0  0
 52 51  1  0  0  0  0
 52 53  1  0  0  0  0
 54 53  1  0  0  0  0
 54 55  1  0  0  0  0
 56 55  1  0  0  0  0
 56 57  1  0  0  0  0
 58 59  1  0  0  0  0
 58 57  1  0  0  0  0
M  END
>  <MODEL>
4

>  <REMARK>
 VINA RESULT:      -1.0      3.395      9.823
  Name = 
  12 active torsions:
  status: ('A' for Active; 'I' for Inactive)
    1  A    between atoms: C_1  and  N_27
    2  A    between atoms: C_1  and  C_43
    3  A    between atoms: C_5  and  C_29
    4  A    between atoms: C_12  and  C_37
    5  A    between atoms: C_24  and  C_40
    6  A    between atoms: C_24  and  N_46
    7  A    between atoms: N_27  and  C_28
    8  A    between atoms: C_28  and  C_40
    9  A    between atoms: C_29  and  C_59
   10  A    between atoms: N_33  and  C_56
   11  A    between atoms: N_33  and  C_59
   12  A    between atoms: N_46  and  C_56
                            x       y       z     vdW  Elec       q    Type
                         _______ _______ _______ _____ _____    ______ ____

>  <TORSDO>
F 12

$$$$
