=
 OpenBabel10222418103D

 25 27  0  0  1  0  0  0  0  0999 V2000
  188.2440  177.0760  144.4300 C   0  0  0  0  0  0  0  0  0  0  0  0
  187.9640  176.8000  143.2030 N   0  0  0  0  0  2  0  0  0  0  0  0
  189.2120  176.4090  142.5470 C   0  0  2  0  0  3  0  0  0  0  0  0
  189.5900  176.9120  144.7140 C   0  0  0  0  0  0  0  0  0  0  0  0
  187.3260  177.4990  145.4220 C   0  0  0  0  0  0  0  0  0  0  0  0
  190.1230  177.1460  145.9900 C   0  0  0  0  0  3  0  0  0  0  0  0
  189.2070  177.5540  146.9640 C   0  0  0  0  0  0  0  0  0  0  0  0
  187.8690  177.7220  146.6940 C   0  0  0  0  0  0  0  0  0  0  0  0
  190.2430  176.5190  143.6370 C   0  0  0  0  0  2  0  0  0  0  0  0
  189.4060  177.8580  148.2910 C   0  0  0  0  0  3  0  0  0  0  0  0
  187.2450  178.1090  147.7730 O   0  0  0  0  0  0  0  0  0  0  0  0
  188.1310  178.2020  148.7500 C   0  0  0  0  0  3  0  0  0  0  0  0
  190.6990  177.3850  140.9660 O   0  0  0  0  0  0  0  0  0  0  0  0
  189.5260  177.3460  141.4240 C   0  0  0  0  0  0  0  0  0  0  0  0
  188.2880  178.3040  139.6200 C   0  0  0  0  0  2  0  0  0  0  0  0
  188.5040  178.1970  140.8900 N   0  0  0  0  0  0  0  0  0  0  0  0
  185.9540  177.6980  145.2070 O   0  0  0  0  0  0  0  0  0  0  0  0
  185.3140  178.9700  145.2160 C   0  0  0  0  0  2  0  0  0  0  0  0
  183.8190  178.8220  144.9620 C   0  0  0  0  0  2  0  0  0  0  0  0
  183.4550  179.2470  143.5480 C   0  0  0  0  0  2  0  0  0  0  0  0
  184.1090  178.3300  142.5280 C   0  0  0  0  0  2  0  0  0  0  0  0
  184.9610  179.1350  141.5590 C   0  0  0  0  0  2  0  0  0  0  0  0
  184.6870  178.7300  140.1190 C   0  0  1  0  0  3  0  0  0  0  0  0
  183.4590  177.8420  140.0370 C   0  0  0  0  0  1  0  0  0  0  0  0
  184.4670  179.9210  139.3200 N   0  0  0  0  0  1  0  0  0  0  0  0
  1  4  2  0  0  0  0
  1  5  1  0  0  0  0
  2  1  1  0  0  0  0
  3 14  1  6  0  0  0
  3  2  1  0  0  0  0
  3  9  1  0  0  0  0
  4  6  1  0  0  0  0
  5  8  2  0  0  0  0
  6  7  2  0  0  0  0
  7 10  1  0  0  0  0
  8  7  1  0  0  0  0
  8 11  1  0  0  0  0
  9  4  1  0  0  0  0
 10 12  2  0  0  0  0
 11 12  1  0  0  0  0
 13 14  2  0  0  0  0
 15 16  2  0  0  0  0
 16 14  1  0  0  0  0
 17 18  1  0  0  0  0
 17  5  1  0  0  0  0
 19 18  1  0  0  0  0
 20 19  1  0  0  0  0
 21 20  1  0  0  0  0
 22 21  1  0  0  0  0
 23 24  1  1  0  0  0
 23 22  1  0  0  0  0
 25 23  1  0  0  0  0
M  END
>  <MODEL>
1

>  <REMARK>
 VINA RESULT:      -7.9      0.000      0.000
  Name = 
  9 active torsions:
  status: ('A' for Active; 'I' for Inactive)
    1  A    between atoms: C_2  and  C_5
    2  A    between atoms: C_4  and  C_13
    3  A    between atoms: C_4  and  C_23
    4  A    between atoms: C_5  and  C_10
    5  A    between atoms: C_7  and  C_8
    6  A    between atoms: C_8  and  N_12
    7  A    between atoms: C_10  and  C_23
    8  A    between atoms: C_13  and  O_16
    9  A    between atoms: C_14  and  O_16
                            x       y       z     vdW  Elec       q    Type
                         _______ _______ _______ _____ _____    ______ ____

>  <TORSDO>
F 9

$$$$
=
 OpenBabel10222418103D

 25 27  0  0  1  0  0  0  0  0999 V2000
  188.7310  176.8520  144.2000 C   0  0  0  0  0  0  0  0  0  0  0  0
  188.6520  176.4880  142.9660 N   0  0  0  0  0  2  0  0  0  0  0  0
  190.0130  176.2170  142.5020 C   0  0  2  0  0  3  0  0  0  0  0  0
  190.0350  176.8620  144.6640 C   0  0  0  0  0  0  0  0  0  0  0  0
  187.6460  177.2100  145.0370 C   0  0  0  0  0  0  0  0  0  0  0  0
  190.3620  177.2180  145.9810 C   0  0  0  0  0  3  0  0  0  0  0  0
  189.2830  177.5610  146.8010 C   0  0  0  0  0  0  0  0  0  0  0  0
  187.9840  177.5560  146.3520 C   0  0  0  0  0  0  0  0  0  0  0  0
  190.8680  176.5000  143.7060 C   0  0  0  0  0  2  0  0  0  0  0  0
  189.2660  177.9480  148.1220 C   0  0  0  0  0  3  0  0  0  0  0  0
  187.1800  177.9170  147.3150 O   0  0  0  0  0  0  0  0  0  0  0  0
  187.9100  178.1590  148.3900 C   0  0  0  0  0  3  0  0  0  0  0  0
  191.5750  177.4520  141.2000 O   0  0  0  0  0  0  0  0  0  0  0  0
  190.3690  177.1300  141.3720 C   0  0  0  0  0  0  0  0  0  0  0  0
  189.3480  177.4310  139.2340 C   0  0  0  0  0  2  0  0  0  0  0  0
  189.3450  177.6410  140.5100 N   0  0  0  0  0  0  0  0  0  0  0  0
  186.3020  177.2340  144.6350 O   0  0  0  0  0  0  0  0  0  0  0  0
  185.7010  178.2950  143.8990 C   0  0  0  0  0  2  0  0  0  0  0  0
  185.0430  179.2970  144.8400 C   0  0  0  0  0  2  0  0  0  0  0  0
  183.5680  178.9850  145.0350 C   0  0  0  0  0  2  0  0  0  0  0  0
  182.8890  178.7530  143.6950 C   0  0  0  0  0  2  0  0  0  0  0  0
  181.3770  178.8210  143.8470 C   0  0  0  0  0  2  0  0  0  0  0  0
  180.6880  178.8510  142.4910 C   0  0  1  0  0  3  0  0  0  0  0  0
  181.6870  178.5930  141.3780 C   0  0  0  0  0  1  0  0  0  0  0  0
  179.6600  177.8280  142.4530 N   0  0  0  0  0  1  0  0  0  0  0  0
  1  4  2  0  0  0  0
  1  5  1  0  0  0  0
  2  1  1  0  0  0  0
  3 14  1  6  0  0  0
  3  2  1  0  0  0  0
  3  9  1  0  0  0  0
  4  6  1  0  0  0  0
  5  8  2  0  0  0  0
  6  7  2  0  0  0  0
  7 10  1  0  0  0  0
  8  7  1  0  0  0  0
  8 11  1  0  0  0  0
  9  4  1  0  0  0  0
 10 12  2  0  0  0  0
 11 12  1  0  0  0  0
 13 14  2  0  0  0  0
 15 16  2  0  0  0  0
 16 14  1  0  0  0  0
 17  5  1  0  0  0  0
 18 17  1  0  0  0  0
 18 19  1  0  0  0  0
 19 20  1  0  0  0  0
 21 22  1  0  0  0  0
 21 20  1  0  0  0  0
 23 24  1  6  0  0  0
 23 22  1  0  0  0  0
 25 23  1  0  0  0  0
M  END
>  <MODEL>
2

>  <REMARK>
 VINA RESULT:      -7.7      1.654      2.008
  Name = 
  9 active torsions:
  status: ('A' for Active; 'I' for Inactive)
    1  A    between atoms: C_2  and  C_5
    2  A    between atoms: C_4  and  C_13
    3  A    between atoms: C_4  and  C_23
    4  A    between atoms: C_5  and  C_10
    5  A    between atoms: C_7  and  C_8
    6  A    between atoms: C_8  and  N_12
    7  A    between atoms: C_10  and  C_23
    8  A    between atoms: C_13  and  O_16
    9  A    between atoms: C_14  and  O_16
                            x       y       z     vdW  Elec       q    Type
                         _______ _______ _______ _____ _____    ______ ____

>  <TORSDO>
F 9

$$$$
=
 OpenBabel10222418103D

 25 27  0  0  1  0  0  0  0  0999 V2000
  189.6230  177.8480  142.9870 C   0  0  0  0  0  0  0  0  0  0  0  0
  189.3720  178.1550  144.2130 N   0  0  0  0  0  2  0  0  0  0  0  0
  190.6500  178.1970  144.9240 C   0  0  2  0  0  3  0  0  0  0  0  0
  190.9770  177.6690  142.7550 C   0  0  0  0  0  0  0  0  0  0  0  0
  188.6700  177.6990  141.9510 C   0  0  0  0  0  0  0  0  0  0  0  0
  191.4850  177.3390  141.4900 C   0  0  0  0  0  3  0  0  0  0  0  0
  190.5370  177.2030  140.4720 C   0  0  0  0  0  0  0  0  0  0  0  0
  189.1900  177.3760  140.6910 C   0  0  0  0  0  0  0  0  0  0  0  0
  191.6640  177.8540  143.8670 C   0  0  0  0  0  2  0  0  0  0  0  0
  190.7070  176.8910  139.1420 C   0  0  0  0  0  3  0  0  0  0  0  0
  188.5330  177.1890  139.5790 O   0  0  0  0  0  0  0  0  0  0  0  0
  189.4060  176.8970  138.6290 C   0  0  0  0  0  3  0  0  0  0  0  0
  189.5790  176.8330  146.5530 O   0  0  0  0  0  0  0  0  0  0  0  0
  190.6680  177.1830  146.0240 C   0  0  0  0  0  0  0  0  0  0  0  0
  191.9770  175.7730  147.4390 C   0  0  0  0  0  2  0  0  0  0  0  0
  191.9110  176.6330  146.4750 N   0  0  0  0  0  0  0  0  0  0  0  0
  187.2850  177.8530  142.1120 O   0  0  0  0  0  0  0  0  0  0  0  0
  186.5030  178.8410  141.4480 C   0  0  0  0  0  2  0  0  0  0  0  0
  185.0490  178.7690  141.9000 C   0  0  0  0  0  2  0  0  0  0  0  0
  184.8590  179.4250  143.2580 C   0  0  0  0  0  2  0  0  0  0  0  0
  183.8420  178.6580  144.0860 C   0  0  0  0  0  2  0  0  0  0  0  0
  184.2320  178.6740  145.5550 C   0  0  0  0  0  2  0  0  0  0  0  0
  185.7440  178.6910  145.7220 C   0  0  1  0  0  3  0  0  0  0  0  0
  186.1210  179.0930  147.1360 C   0  0  0  0  0  1  0  0  0  0  0  0
  186.2720  177.3680  145.4480 N   0  0  0  0  0  1  0  0  0  0  0  0
  1  2  1  0  0  0  0
  2  3  1  0  0  0  0
  3 14  1  1  0  0  0
  4  1  1  0  0  0  0
  4  9  1  0  0  0  0
  5 17  1  0  0  0  0
  5  1  2  0  0  0  0
  6  4  2  0  0  0  0
  7  8  2  0  0  0  0
  7  6  1  0  0  0  0
  8  5  1  0  0  0  0
  9  3  1  0  0  0  0
 10  7  1  0  0  0  0
 11  8  1  0  0  0  0
 12 10  2  0  0  0  0
 12 11  1  0  0  0  0
 14 16  1  0  0  0  0
 14 13  2  0  0  0  0
 16 15  2  0  0  0  0
 18 19  1  0  0  0  0
 18 17  1  0  0  0  0
 19 20  1  0  0  0  0
 20 21  1  0  0  0  0
 21 22  1  0  0  0  0
 22 23  1  0  0  0  0
 23 24  1  1  0  0  0
 25 23  1  0  0  0  0
M  END
>  <MODEL>
3

>  <REMARK>
 VINA RESULT:      -7.3      2.427      5.622
  Name = 
  9 active torsions:
  status: ('A' for Active; 'I' for Inactive)
    1  A    between atoms: C_2  and  C_5
    2  A    between atoms: C_4  and  C_13
    3  A    between atoms: C_4  and  C_23
    4  A    between atoms: C_5  and  C_10
    5  A    between atoms: C_7  and  C_8
    6  A    between atoms: C_8  and  N_12
    7  A    between atoms: C_10  and  C_23
    8  A    between atoms: C_13  and  O_16
    9  A    between atoms: C_14  and  O_16
                            x       y       z     vdW  Elec       q    Type
                         _______ _______ _______ _____ _____    ______ ____

>  <TORSDO>
F 9

$$$$
=
 OpenBabel10222418103D

 25 27  0  0  1  0  0  0  0  0999 V2000
  184.8720  178.4130  142.8840 C   0  0  0  0  0  0  0  0  0  0  0  0
  184.6530  178.4140  141.6140 N   0  0  0  0  0  2  0  0  0  0  0  0
  183.2790  178.8730  141.4080 C   0  0  2  0  0  3  0  0  0  0  0  0
  183.7710  178.8370  143.6090 C   0  0  0  0  0  0  0  0  0  0  0  0
  186.0780  178.0360  143.5240 C   0  0  0  0  0  0  0  0  0  0  0  0
  183.7820  178.9260  145.0100 C   0  0  0  0  0  3  0  0  0  0  0  0
  184.9800  178.5600  145.6310 C   0  0  0  0  0  0  0  0  0  0  0  0
  186.0790  178.1360  144.9220 C   0  0  0  0  0  0  0  0  0  0  0  0
  182.7690  179.1270  142.8010 C   0  0  0  0  0  2  0  0  0  0  0  0
  185.3100  178.5370  146.9670 C   0  0  0  0  0  3  0  0  0  0  0  0
  187.0540  177.8570  145.7420 O   0  0  0  0  0  0  0  0  0  0  0  0
  186.6330  178.0840  146.9750 C   0  0  0  0  0  3  0  0  0  0  0  0
  181.2400  177.7200  140.9890 O   0  0  0  0  0  0  0  0  0  0  0  0
  182.4710  177.8100  140.7340 C   0  0  0  0  0  0  0  0  0  0  0  0
  182.5000  175.8410  139.3830 C   0  0  0  0  0  2  0  0  0  0  0  0
  183.0980  176.9000  139.8220 N   0  0  0  0  0  0  0  0  0  0  0  0
  187.2280  177.5870  142.8590 O   0  0  0  0  0  0  0  0  0  0  0  0
  187.9480  176.4080  143.2040 C   0  0  0  0  0  2  0  0  0  0  0  0
  189.4400  176.5980  142.9570 C   0  0  0  0  0  2  0  0  0  0  0  0
  189.8960  177.9890  143.3700 C   0  0  0  0  0  2  0  0  0  0  0  0
  190.2610  178.0170  144.8450 C   0  0  0  0  0  2  0  0  0  0  0  0
  191.4410  177.0970  145.1170 C   0  0  0  0  0  2  0  0  0  0  0  0
  191.5730  176.7970  146.6020 C   0  0  1  0  0  3  0  0  0  0  0  0
  190.2080  176.7560  147.2630 C   0  0  0  0  0  1  0  0  0  0  0  0
  192.2240  175.5110  146.7750 N   0  0  0  0  0  1  0  0  0  0  0  0
  1  5  2  0  0  0  0
  1  4  1  0  0  0  0
  2  1  1  0  0  0  0
  3 14  1  1  0  0  0
  3  2  1  0  0  0  0
  3  9  1  0  0  0  0
  4  6  2  0  0  0  0
  5  8  1  0  0  0  0
  6  7  1  0  0  0  0
  7 10  1  0  0  0  0
  8  7  2  0  0  0  0
  8 11  1  0  0  0  0
  9  4  1  0  0  0  0
 10 12  2  0  0  0  0
 11 12  1  0  0  0  0
 14 13  2  0  0  0  0
 15 16  2  0  0  0  0
 16 14  1  0  0  0  0
 17 18  1  0  0  0  0
 17  5  1  0  0  0  0
 19 18  1  0  0  0  0
 19 20  1  0  0  0  0
 20 21  1  0  0  0  0
 21 22  1  0  0  0  0
 22 23  1  0  0  0  0
 23 25  1  0  0  0  0
 23 24  1  6  0  0  0
M  END
>  <MODEL>
4

>  <REMARK>
 VINA RESULT:      -7.2      2.328      6.423
  Name = 
  9 active torsions:
  status: ('A' for Active; 'I' for Inactive)
    1  A    between atoms: C_2  and  C_5
    2  A    between atoms: C_4  and  C_13
    3  A    between atoms: C_4  and  C_23
    4  A    between atoms: C_5  and  C_10
    5  A    between atoms: C_7  and  C_8
    6  A    between atoms: C_8  and  N_12
    7  A    between atoms: C_10  and  C_23
    8  A    between atoms: C_13  and  O_16
    9  A    between atoms: C_14  and  O_16
                            x       y       z     vdW  Elec       q    Type
                         _______ _______ _______ _____ _____    ______ ____

>  <TORSDO>
F 9

$$$$
=
 OpenBabel10222418103D

 25 27  0  0  1  0  0  0  0  0999 V2000
  188.9720  177.2660  143.4140 C   0  0  0  0  0  0  0  0  0  0  0  0
  188.1320  177.5050  142.4660 N   0  0  0  0  0  2  0  0  0  0  0  0
  188.7630  177.1040  141.2090 C   0  0  2  0  0  3  0  0  0  0  0  0
  190.1560  176.7220  142.9430 C   0  0  0  0  0  0  0  0  0  0  0  0
  188.7680  177.5080  144.7940 C   0  0  0  0  0  0  0  0  0  0  0  0
  191.2140  176.3730  143.7950 C   0  0  0  0  0  3  0  0  0  0  0  0
  190.9970  176.6060  145.1570 C   0  0  0  0  0  0  0  0  0  0  0  0
  189.8280  177.1480  145.6360 C   0  0  0  0  0  0  0  0  0  0  0  0
  190.1160  176.5970  141.6300 C   0  0  0  0  0  2  0  0  0  0  0  0
  191.8230  176.3760  146.2340 C   0  0  0  0  0  3  0  0  0  0  0  0
  189.8910  177.2610  146.9340 O   0  0  0  0  0  0  0  0  0  0  0  0
  191.0700  176.8090  147.3300 C   0  0  0  0  0  3  0  0  0  0  0  0
  188.3460  179.3680  140.6100 O   0  0  0  0  0  0  0  0  0  0  0  0
  188.8990  178.2800  140.2960 C   0  0  0  0  0  0  0  0  0  0  0  0
  189.0810  178.3100  137.9140 C   0  0  0  0  0  2  0  0  0  0  0  0
  189.6350  178.1600  139.0730 N   0  0  0  0  0  0  0  0  0  0  0  0
  187.6030  178.0660  145.3420 O   0  0  0  0  0  0  0  0  0  0  0  0
  186.8120  177.4440  146.3500 C   0  0  0  0  0  2  0  0  0  0  0  0
  185.4750  178.1610  146.5030 C   0  0  0  0  0  2  0  0  0  0  0  0
  185.3040  179.2400  145.4450 C   0  0  0  0  0  2  0  0  0  0  0  0
  184.5390  178.6990  144.2480 C   0  0  0  0  0  2  0  0  0  0  0  0
  184.8820  179.4930  142.9970 C   0  0  0  0  0  2  0  0  0  0  0  0
  184.5720  178.6970  141.7380 C   0  0  1  0  0  3  0  0  0  0  0  0
  183.0730  178.5590  141.5480 C   0  0  0  0  0  1  0  0  0  0  0  0
  185.1360  179.3790  140.5880 N   0  0  0  0  0  1  0  0  0  0  0  0
  1  5  1  0  0  0  0
  2  1  1  0  0  0  0
  3 14  1  6  0  0  0
  3  9  1  0  0  0  0
  3  2  1  0  0  0  0
  4  1  2  0  0  0  0
  4  6  1  0  0  0  0
  5 17  1  0  0  0  0
  5  8  2  0  0  0  0
  6  7  2  0  0  0  0
  7  8  1  0  0  0  0
  7 10  1  0  0  0  0
  8 11  1  0  0  0  0
  9  4  1  0  0  0  0
 10 12  2  0  0  0  0
 11 12  1  0  0  0  0
 14 13  2  0  0  0  0
 15 16  2  0  0  0  0
 16 14  1  0  0  0  0
 17 18  1  0  0  0  0
 18 19  1  0  0  0  0
 20 19  1  0  0  0  0
 21 20  1  0  0  0  0
 22 21  1  0  0  0  0
 23 24  1  6  0  0  0
 23 22  1  0  0  0  0
 25 23  1  0  0  0  0
M  END
>  <MODEL>
5

>  <REMARK>
 VINA RESULT:      -7.1      1.519      2.215
  Name = 
  9 active torsions:
  status: ('A' for Active; 'I' for Inactive)
    1  A    between atoms: C_2  and  C_5
    2  A    between atoms: C_4  and  C_13
    3  A    between atoms: C_4  and  C_23
    4  A    between atoms: C_5  and  C_10
    5  A    between atoms: C_7  and  C_8
    6  A    between atoms: C_8  and  N_12
    7  A    between atoms: C_10  and  C_23
    8  A    between atoms: C_13  and  O_16
    9  A    between atoms: C_14  and  O_16
                            x       y       z     vdW  Elec       q    Type
                         _______ _______ _______ _____ _____    ______ ____

>  <TORSDO>
F 9

$$$$
=
 OpenBabel10222418103D

 25 27  0  0  1  0  0  0  0  0999 V2000
  187.7000  177.4700  144.1570 C   0  0  0  0  0  0  0  0  0  0  0  0
  188.8690  176.9830  143.9160 N   0  0  0  0  0  2  0  0  0  0  0  0
  189.5160  176.7380  145.2050 C   0  0  2  0  0  3  0  0  0  0  0  0
  187.4500  177.5920  145.5140 C   0  0  0  0  0  0  0  0  0  0  0  0
  186.7380  177.8520  143.1910 C   0  0  0  0  0  0  0  0  0  0  0  0
  186.2380  178.0910  146.0120 C   0  0  0  0  0  3  0  0  0  0  0  0
  185.2910  178.4560  145.0500 C   0  0  0  0  0  0  0  0  0  0  0  0
  185.5290  178.3410  143.7010 C   0  0  0  0  0  0  0  0  0  0  0  0
  188.4910  177.1810  146.2130 C   0  0  0  0  0  2  0  0  0  0  0  0
  184.0240  178.9700  145.2090 C   0  0  0  0  0  3  0  0  0  0  0  0
  184.4870  178.7520  143.0310 O   0  0  0  0  0  0  0  0  0  0  0  0
  183.5650  179.1360  143.8980 C   0  0  0  0  0  3  0  0  0  0  0  0
  190.9130  178.5600  144.5810 O   0  0  0  0  0  0  0  0  0  0  0  0
  190.7640  177.5540  145.3250 C   0  0  0  0  0  0  0  0  0  0  0  0
  192.0070  175.9490  146.5830 C   0  0  0  0  0  2  0  0  0  0  0  0
  191.7800  177.1810  146.2640 N   0  0  0  0  0  0  0  0  0  0  0  0
  186.9240  177.7670  141.8030 O   0  0  0  0  0  0  0  0  0  0  0  0
  187.8290  178.5790  141.0620 C   0  0  0  0  0  2  0  0  0  0  0  0
  188.6740  177.7240  140.1240 C   0  0  0  0  0  2  0  0  0  0  0  0
  189.0670  178.4990  138.8750 C   0  0  0  0  0  2  0  0  0  0  0  0
  189.8260  177.6050  137.9090 C   0  0  0  0  0  2  0  0  0  0  0  0
  190.9300  176.8540  138.6360 C   0  0  0  0  0  2  0  0  0  0  0  0
  191.6740  175.9210  137.6930 C   0  0  1  0  0  3  0  0  0  0  0  0
  193.1670  175.9700  137.9590 C   0  0  0  0  0  1  0  0  0  0  0  0
  191.2000  174.5630  137.8900 N   0  0  0  0  0  1  0  0  0  0  0  0
  1  4  1  0  0  0  0
  2  1  1  0  0  0  0
  2  3  1  0  0  0  0
  3 14  1  6  0  0  0
  3  9  1  0  0  0  0
  4  6  2  0  0  0  0
  4  9  1  0  0  0  0
  5  8  1  0  0  0  0
  5  1  2  0  0  0  0
  7 10  1  0  0  0  0
  7  6  1  0  0  0  0
  8  7  2  0  0  0  0
 11  8  1  0  0  0  0
 11 12  1  0  0  0  0
 12 10  2  0  0  0  0
 13 14  2  0  0  0  0
 14 16  1  0  0  0  0
 16 15  2  0  0  0  0
 17  5  1  0  0  0  0
 18 17  1  0  0  0  0
 19 18  1  0  0  0  0
 20 19  1  0  0  0  0
 21 22  1  0  0  0  0
 21 20  1  0  0  0  0
 23 25  1  0  0  0  0
 23 24  1  1  0  0  0
 23 22  1  0  0  0  0
M  END
>  <MODEL>
6

>  <REMARK>
 VINA RESULT:      -7.1      2.649      5.725
  Name = 
  9 active torsions:
  status: ('A' for Active; 'I' for Inactive)
    1  A    between atoms: C_2  and  C_5
    2  A    between atoms: C_4  and  C_13
    3  A    between atoms: C_4  and  C_23
    4  A    between atoms: C_5  and  C_10
    5  A    between atoms: C_7  and  C_8
    6  A    between atoms: C_8  and  N_12
    7  A    between atoms: C_10  and  C_23
    8  A    between atoms: C_13  and  O_16
    9  A    between atoms: C_14  and  O_16
                            x       y       z     vdW  Elec       q    Type
                         _______ _______ _______ _____ _____    ______ ____

>  <TORSDO>
F 9

$$$$
=
 OpenBabel10222418103D

 25 27  0  0  1  0  0  0  0  0999 V2000
  187.4590  177.4690  144.3750 C   0  0  0  0  0  0  0  0  0  0  0  0
  188.6150  176.9830  144.0780 N   0  0  0  0  0  2  0  0  0  0  0  0
  189.3550  176.8180  145.3300 C   0  0  2  0  0  3  0  0  0  0  0  0
  187.3030  177.6630  145.7380 C   0  0  0  0  0  0  0  0  0  0  0  0
  186.4250  177.7850  143.4610 C   0  0  0  0  0  0  0  0  0  0  0  0
  186.1210  178.1740  146.2940 C   0  0  0  0  0  3  0  0  0  0  0  0
  185.1030  178.4740  145.3830 C   0  0  0  0  0  0  0  0  0  0  0  0
  185.2470  178.2880  144.0290 C   0  0  0  0  0  0  0  0  0  0  0  0
  188.3970  177.3030  146.3830 C   0  0  0  0  0  2  0  0  0  0  0  0
  183.8430  178.9810  145.6030 C   0  0  0  0  0  3  0  0  0  0  0  0
  184.1540  178.6490  143.4130 O   0  0  0  0  0  0  0  0  0  0  0  0
  183.2900  179.0690  144.3220 C   0  0  0  0  0  3  0  0  0  0  0  0
  190.5620  178.7910  144.7750 O   0  0  0  0  0  0  0  0  0  0  0  0
  190.5950  177.6540  145.3160 C   0  0  0  0  0  0  0  0  0  0  0  0
  191.8060  176.2630  146.8340 C   0  0  0  0  0  2  0  0  0  0  0  0
  191.8050  177.1550  145.8970 N   0  0  0  0  0  0  0  0  0  0  0  0
  186.5140  177.6270  142.0700 O   0  0  0  0  0  0  0  0  0  0  0  0
  186.8510  178.6700  141.1610 C   0  0  0  0  0  2  0  0  0  0  0  0
  188.3590  178.7360  140.9530 C   0  0  0  0  0  2  0  0  0  0  0  0
  188.9060  177.4060  140.4590 C   0  0  0  0  0  2  0  0  0  0  0  0
  189.8370  177.6160  139.2760 C   0  0  0  0  0  2  0  0  0  0  0  0
  189.1940  178.5410  138.2530 C   0  0  0  0  0  2  0  0  0  0  0  0
  188.3470  177.7590  137.2600 C   0  0  1  0  0  3  0  0  0  0  0  0
  186.9100  178.2440  137.2860 C   0  0  0  0  0  1  0  0  0  0  0  0
  188.8860  177.9390  135.9250 N   0  0  0  0  0  1  0  0  0  0  0  0
  1  4  1  0  0  0  0
  2  1  1  0  0  0  0
  2  3  1  0  0  0  0
  3 14  1  6  0  0  0
  3  9  1  0  0  0  0
  4  6  2  0  0  0  0
  4  9  1  0  0  0  0
  5  8  1  0  0  0  0
  5  1  2  0  0  0  0
  7 10  1  0  0  0  0
  7  6  1  0  0  0  0
  8  7  2  0  0  0  0
 11  8  1  0  0  0  0
 11 12  1  0  0  0  0
 12 10  2  0  0  0  0
 13 14  2  0  0  0  0
 14 16  1  0  0  0  0
 16 15  2  0  0  0  0
 17  5  1  0  0  0  0
 18 17  1  0  0  0  0
 19 18  1  0  0  0  0
 20 19  1  0  0  0  0
 21 20  1  0  0  0  0
 22 21  1  0  0  0  0
 23 24  1  6  0  0  0
 23 22  1  0  0  0  0
 25 23  1  0  0  0  0
M  END
>  <MODEL>
7

>  <REMARK>
 VINA RESULT:      -7.1      2.433      4.874
  Name = 
  9 active torsions:
  status: ('A' for Active; 'I' for Inactive)
    1  A    between atoms: C_2  and  C_5
    2  A    between atoms: C_4  and  C_13
    3  A    between atoms: C_4  and  C_23
    4  A    between atoms: C_5  and  C_10
    5  A    between atoms: C_7  and  C_8
    6  A    between atoms: C_8  and  N_12
    7  A    between atoms: C_10  and  C_23
    8  A    between atoms: C_13  and  O_16
    9  A    between atoms: C_14  and  O_16
                            x       y       z     vdW  Elec       q    Type
                         _______ _______ _______ _____ _____    ______ ____

>  <TORSDO>
F 9

$$$$
=
 OpenBabel10222418103D

 25 27  0  0  1  0  0  0  0  0999 V2000
  187.9060  177.4090  143.6010 C   0  0  0  0  0  0  0  0  0  0  0  0
  188.7620  177.0590  142.7020 N   0  0  0  0  0  2  0  0  0  0  0  0
  190.0050  176.7140  143.3930 C   0  0  2  0  0  3  0  0  0  0  0  0
  188.4290  177.3400  144.8810 C   0  0  0  0  0  0  0  0  0  0  0  0
  186.5720  177.8220  143.3680 C   0  0  0  0  0  0  0  0  0  0  0  0
  187.6750  177.6660  146.0190 C   0  0  0  0  0  3  0  0  0  0  0  0
  186.3570  178.0640  145.7790 C   0  0  0  0  0  0  0  0  0  0  0  0
  185.8270  178.1380  144.5130 C   0  0  0  0  0  0  0  0  0  0  0  0
  189.6850  176.9380  144.8460 C   0  0  0  0  0  2  0  0  0  0  0  0
  185.3730  178.4420  146.6650 C   0  0  0  0  0  3  0  0  0  0  0  0
  184.5860  178.5360  144.5730 O   0  0  0  0  0  0  0  0  0  0  0  0
  184.2780  178.7280  145.8450 C   0  0  0  0  0  3  0  0  0  0  0  0
  191.2200  178.7580  143.4680 O   0  0  0  0  0  0  0  0  0  0  0  0
  191.1140  177.6140  142.9500 C   0  0  0  0  0  0  0  0  0  0  0  0
  191.8920  177.5080  140.6940 C   0  0  0  0  0  2  0  0  0  0  0  0
  192.0310  177.1810  141.9380 N   0  0  0  0  0  0  0  0  0  0  0  0
  185.9780  177.9270  142.1020 O   0  0  0  0  0  0  0  0  0  0  0  0
  185.5670  179.1530  141.5050 C   0  0  0  0  0  2  0  0  0  0  0  0
  184.5560  178.8980  140.3930 C   0  0  0  0  0  2  0  0  0  0  0  0
  183.4990  177.8950  140.8280 C   0  0  0  0  0  2  0  0  0  0  0  0
  182.1420  178.5690  140.9550 C   0  0  0  0  0  2  0  0  0  0  0  0
  181.8900  178.9880  142.3950 C   0  0  0  0  0  2  0  0  0  0  0  0
  180.4020  179.1260  142.6750 C   0  0  1  0  0  3  0  0  0  0  0  0
  180.0460  178.4860  144.0040 C   0  0  0  0  0  1  0  0  0  0  0  0
  180.0500  180.5330  142.7160 N   0  0  0  0  0  1  0  0  0  0  0  0
  1  4  1  0  0  0  0
  2  3  1  0  0  0  0
  2  1  1  0  0  0  0
  3 14  1  6  0  0  0
  3  9  1  0  0  0  0
  4  6  2  0  0  0  0
  5  1  2  0  0  0  0
  5  8  1  0  0  0  0
  7  6  1  0  0  0  0
  7 10  1  0  0  0  0
  8 11  1  0  0  0  0
  8  7  2  0  0  0  0
  9  4  1  0  0  0  0
 11 12  1  0  0  0  0
 12 10  2  0  0  0  0
 14 13  2  0  0  0  0
 15 16  2  0  0  0  0
 16 14  1  0  0  0  0
 17  5  1  0  0  0  0
 18 17  1  0  0  0  0
 19 20  1  0  0  0  0
 19 18  1  0  0  0  0
 20 21  1  0  0  0  0
 21 22  1  0  0  0  0
 22 23  1  0  0  0  0
 23 25  1  0  0  0  0
 23 24  1  1  0  0  0
M  END
>  <MODEL>
8

>  <REMARK>
 VINA RESULT:      -7.0      2.189      3.434
  Name = 
  9 active torsions:
  status: ('A' for Active; 'I' for Inactive)
    1  A    between atoms: C_2  and  C_5
    2  A    between atoms: C_4  and  C_13
    3  A    between atoms: C_4  and  C_23
    4  A    between atoms: C_5  and  C_10
    5  A    between atoms: C_7  and  C_8
    6  A    between atoms: C_8  and  N_12
    7  A    between atoms: C_10  and  C_23
    8  A    between atoms: C_13  and  O_16
    9  A    between atoms: C_14  and  O_16
                            x       y       z     vdW  Elec       q    Type
                         _______ _______ _______ _____ _____    ______ ____

>  <TORSDO>
F 9

$$$$
=
 OpenBabel10222418103D

 25 27  0  0  1  0  0  0  0  0999 V2000
  188.7340  177.8200  140.4730 C   0  0  0  0  0  0  0  0  0  0  0  0
  187.8660  177.9010  139.5230 N   0  0  0  0  0  2  0  0  0  0  0  0
  188.5150  177.4370  138.2960 C   0  0  2  0  0  3  0  0  0  0  0  0
  189.9530  177.3330  140.0310 C   0  0  0  0  0  0  0  0  0  0  0  0
  188.5250  178.1710  141.8280 C   0  0  0  0  0  0  0  0  0  0  0  0
  191.0460  177.1520  140.8920 C   0  0  0  0  0  3  0  0  0  0  0  0
  190.8270  177.4920  142.2300 C   0  0  0  0  0  0  0  0  0  0  0  0
  189.6220  177.9780  142.6800 C   0  0  0  0  0  0  0  0  0  0  0  0
  189.9090  177.0840  138.7360 C   0  0  0  0  0  2  0  0  0  0  0  0
  191.6800  177.4310  143.3090 C   0  0  0  0  0  3  0  0  0  0  0  0
  189.6900  178.2160  143.9610 O   0  0  0  0  0  0  0  0  0  0  0  0
  190.9060  177.9010  144.3740 C   0  0  0  0  0  3  0  0  0  0  0  0
  189.0320  179.6490  137.5890 O   0  0  0  0  0  0  0  0  0  0  0  0
  188.5420  178.5310  137.2770 C   0  0  0  0  0  0  0  0  0  0  0  0
  188.5380  177.4830  135.1310 C   0  0  0  0  0  2  0  0  0  0  0  0
  188.0020  178.3090  135.9690 N   0  0  0  0  0  0  0  0  0  0  0  0
  187.3250  178.6800  142.3450 O   0  0  0  0  0  0  0  0  0  0  0  0
  186.2270  177.8770  142.7670 C   0  0  0  0  0  2  0  0  0  0  0  0
  186.3460  177.5380  144.2490 C   0  0  0  0  0  2  0  0  0  0  0  0
  185.7460  178.6340  145.1150 C   0  0  0  0  0  2  0  0  0  0  0  0
  186.3760  178.6270  146.4980 C   0  0  0  0  0  2  0  0  0  0  0  0
  187.3300  177.4520  146.6410 C   0  0  0  0  0  2  0  0  0  0  0  0
  188.6000  177.8600  147.3730 C   0  0  1  0  0  3  0  0  0  0  0  0
  188.2950  178.2150  148.8160 C   0  0  0  0  0  1  0  0  0  0  0  0
  189.5450  176.7590  147.3440 N   0  0  0  0  0  1  0  0  0  0  0  0
  1  5  1  0  0  0  0
  2  1  1  0  0  0  0
  3 14  1  6  0  0  0
  3  9  1  0  0  0  0
  3  2  1  0  0  0  0
  4  1  2  0  0  0  0
  4  6  1  0  0  0  0
  5 17  1  0  0  0  0
  5  8  2  0  0  0  0
  6  7  2  0  0  0  0
  7  8  1  0  0  0  0
  7 10  1  0  0  0  0
  8 11  1  0  0  0  0
  9  4  1  0  0  0  0
 10 12  2  0  0  0  0
 11 12  1  0  0  0  0
 14 13  2  0  0  0  0
 15 16  2  0  0  0  0
 16 14  1  0  0  0  0
 17 18  1  0  0  0  0
 18 19  1  0  0  0  0
 19 20  1  0  0  0  0
 20 21  1  0  0  0  0
 21 22  1  0  0  0  0
 22 23  1  0  0  0  0
 23 24  1  1  0  0  0
 25 23  1  0  0  0  0
M  END
>  <MODEL>
9

>  <REMARK>
 VINA RESULT:      -6.9      2.455      5.313
  Name = 
  9 active torsions:
  status: ('A' for Active; 'I' for Inactive)
    1  A    between atoms: C_2  and  C_5
    2  A    between atoms: C_4  and  C_13
    3  A    between atoms: C_4  and  C_23
    4  A    between atoms: C_5  and  C_10
    5  A    between atoms: C_7  and  C_8
    6  A    between atoms: C_8  and  N_12
    7  A    between atoms: C_10  and  C_23
    8  A    between atoms: C_13  and  O_16
    9  A    between atoms: C_14  and  O_16
                            x       y       z     vdW  Elec       q    Type
                         _______ _______ _______ _____ _____    ______ ____

>  <TORSDO>
F 9

$$$$
