=
 OpenBabel10222416163D

 46 51  0  0  1  0  0  0  0  0999 V2000
  186.1830  178.6140  139.5450 N   0  0  0  0  0  0  0  0  0  0  0  0
  184.5860  178.3400  137.7950 C   0  0  0  0  0  3  0  0  0  0  0  0
  185.9070  178.2820  138.2540 C   0  0  0  0  0  0  0  0  0  0  0  0
  183.5600  178.7080  138.6700 C   0  0  0  0  0  0  0  0  0  0  0  0
  185.2070  178.9920  140.4130 C   0  0  0  0  0  3  0  0  0  0  0  0
  183.8800  179.0520  139.9890 C   0  0  0  0  0  3  0  0  0  0  0  0
  182.1450  178.7380  138.1590 C   0  0  2  0  0  3  0  0  0  0  0  0
  180.2330  178.7340  139.8070 N   0  0  0  0  0  0  0  0  0  0  0  0
  180.8430  177.4730  140.2270 C   0  0  0  0  0  2  0  0  0  0  0  0
  181.2080  179.5630  139.0690 C   0  0  2  0  0  3  0  0  0  0  0  0
  181.0750  176.5760  139.0130 C   0  0  0  0  0  2  0  0  0  0  0  0
  181.5680  177.3610  137.7950 C   0  0  0  0  0  2  0  0  0  0  0  0
  179.0220  182.5900  138.1460 C   0  0  0  0  0  2  0  0  0  0  0  0
  179.8270  183.3470  137.1080 C   0  0  0  0  0  2  0  0  0  0  0  0
  181.2390  181.8540  137.9950 C   0  0  1  0  0  0  0  0  0  0  0  0
  180.0530  181.8240  138.9180 C   0  0  2  0  0  3  0  0  0  0  0  0
  182.4540  182.0410  138.6590 O   0  0  0  0  0  1  0  0  0  0  0  0
  180.4680  180.5540  138.1640 C   0  0  2  0  0  3  0  0  0  0  0  0
  181.0040  182.6270  136.8450 O   0  0  0  0  0  0  0  0  0  0  0  0
  179.8760  179.4510  141.0260 C   0  0  0  0  0  2  0  0  0  0  0  0
  180.9200  179.2310  142.1180 C   0  0  0  0  0  2  0  0  0  0  0  0
  180.2750  178.8750  143.4540 C   0  0  0  0  0  2  0  0  0  0  0  0
  182.4470  179.0030  143.9140 C   0  0  0  0  0  1  0  0  0  0  0  0
  181.2420  178.4700  144.3860 O   0  0  0  0  0  0  0  0  0  0  0  0
  187.0510  177.9580  137.3380 C   0  0  2  0  0  3  0  0  0  0  0  0
  186.5940  177.3760  136.1520 O   0  0  0  0  0  1  0  0  0  0  0  0
  188.1840  177.1410  137.9540 C   0  0  0  0  0  2  0  0  0  0  0  0
  189.3220  178.0170  138.4600 C   0  0  0  0  0  2  0  0  0  0  0  0
  191.3800  177.5320  140.3000 S   0  0  0  0  0  0  0  0  0  0  0  0
  188.9560  177.1400  140.8460 C   0  0  0  0  0  3  0  0  0  0  0  0
  190.9660  177.0060  141.8440 C   0  0  0  0  0  0  0  0  0  0  0  0
  191.9080  176.8010  142.8980 N   0  0  0  0  0  2  0  0  0  0  0  0
  189.6330  176.8380  141.9890 N   0  0  0  0  0  0  0  0  0  0  0  0
  189.7760  177.5370  139.7930 C   0  0  0  0  0  0  0  0  0  0  0  0
  191.4860  176.3440  144.2170 C   0  0  0  0  0  2  0  0  0  0  0  0
  191.3940  177.5220  145.1640 C   0  0  0  0  0  2  0  0  0  0  0  0
  190.0220  178.1910  145.0650 C   0  0  0  0  0  2  0  0  0  0  0  0
  188.8830  177.2770  145.5420 C   0  0  2  0  0  0  0  0  0  0  0  0
  187.5920  178.1050  145.7250 C   0  0  2  0  0  3  0  0  0  0  0  0
  189.2480  176.6590  146.7700 O   0  0  0  0  0  0  0  0  0  0  0  0
  188.5050  177.2650  147.8120 C   0  0  0  0  0  2  0  0  0  0  0  0
  188.7110  176.2780  144.5760 O   0  0  0  0  0  1  0  0  0  0  0  0
  186.6910  178.8010  147.8080 O   0  0  0  0  0  0  0  0  0  0  0  0
  187.4890  178.1190  147.1820 C   0  0  0  0  0  0  0  0  0  0  0  0
  185.8230  178.2490  144.1090 O   0  0  0  0  0  1  0  0  0  0  0  0
  186.3320  177.4640  145.1440 C   0  0  0  0  0  2  0  0  0  0  0  0
  1  5  1  0  0  0  0
  2  3  1  0  0  0  0
  2  4  2  0  0  0  0
  3  1  2  0  0  0  0
  4  6  1  0  0  0  0
  6  5  2  0  0  0  0
  7  4  1  1  0  0  0
  7 10  1  0  0  0  0
  8  9  1  0  0  0  0
  8 20  1  0  0  0  0
 10  8  1  6  0  0  0
 11  9  1  0  0  0  0
 12  7  1  0  0  0  0
 12 11  1  0  0  0  0
 14 13  1  0  0  0  0
 15 18  1  0  0  0  0
 15 17  1  1  0  0  0
 15 16  1  0  0  0  0
 16 13  1  6  0  0  0
 18 16  1  0  0  0  0
 18 10  1  1  0  0  0
 19 14  1  0  0  0  0
 19 15  1  0  0  0  0
 20 21  1  0  0  0  0
 21 22  1  0  0  0  0
 22 24  1  0  0  0  0
 23 24  1  0  0  0  0
 25 26  1  6  0  0  0
 25 27  1  0  0  0  0
 25  3  1  0  0  0  0
 27 28  1  0  0  0  0
 28 34  1  0  0  0  0
 29 31  1  0  0  0  0
 30 33  1  0  0  0  0
 31 33  2  0  0  0  0
 31 32  1  0  0  0  0
 32 35  1  0  0  0  0
 34 29  1  0  0  0  0
 34 30  2  0  0  0  0
 35 36  1  0  0  0  0
 37 36  1  0  0  0  0
 37 38  1  0  0  0  0
 38 42  1  6  0  0  0
 38 39  1  0  0  0  0
 38 40  1  0  0  0  0
 39 46  1  6  0  0  0
 39 44  1  0  0  0  0
 40 41  1  0  0  0  0
 44 43  2  0  0  0  0
 44 41  1  0  0  0  0
 45 46  1  0  0  0  0
M  END
>  <MODEL>
1

>  <REMARK>
 VINA RESULT:      -7.5      0.000      0.000
  Name = 
  15 active torsions:
  status: ('A' for Active; 'I' for Inactive)
    1  A    between atoms: C_1  and  C_39
    2  A    between atoms: N_2  and  C_25
    3  A    between atoms: C_9  and  C_23
    4  A    between atoms: C_11  and  C_34
    5  A    between atoms: C_12  and  C_21
    6  A    between atoms: C_12  and  C_40
    7  A    between atoms: C_16  and  C_29
    8  A    between atoms: O_17  and  C_41
    9  A    between atoms: N_18  and  C_33
   10  A    between atoms: C_23  and  C_32
   11  A    between atoms: C_25  and  C_42
   12  A    between atoms: C_32  and  C_33
   13  A    between atoms: C_35  and  C_40
   14  A    between atoms: C_35  and  C_45
   15  A    between atoms: C_41  and  C_42
                            x       y       z     vdW  Elec       q    Type
                         _______ _______ _______ _____ _____    ______ ____

>  <TORSDO>
F 15

$$$$
=
 OpenBabel10222416163D

 46 51  0  0  1  0  0  0  0  0999 V2000
  185.9630  178.6110  139.4750 N   0  0  0  0  0  0  0  0  0  0  0  0
  183.8830  178.1990  138.3830 C   0  0  0  0  0  3  0  0  0  0  0  0
  185.2830  178.2020  138.3690 C   0  0  0  0  0  0  0  0  0  0  0  0
  183.1970  178.5840  139.5390 C   0  0  0  0  0  0  0  0  0  0  0  0
  185.3210  179.0080  140.6060 C   0  0  0  0  0  3  0  0  0  0  0  0
  183.9280  179.0080  140.6550 C   0  0  0  0  0  3  0  0  0  0  0  0
  181.6930  178.5480  139.5360 C   0  0  2  0  0  3  0  0  0  0  0  0
  180.4540  178.7260  137.3450 N   0  0  0  0  0  0  0  0  0  0  0  0
  181.1660  180.0020  137.2600 C   0  0  0  0  0  2  0  0  0  0  0  0
  181.1230  177.8190  138.2990 C   0  0  2  0  0  3  0  0  0  0  0  0
  180.9680  180.7950  138.5490 C   0  0  0  0  0  2  0  0  0  0  0  0
  181.0210  179.9060  139.7940 C   0  0  0  0  0  2  0  0  0  0  0  0
  178.9310  174.6590  138.2500 C   0  0  0  0  0  2  0  0  0  0  0  0
  179.2510  173.9450  139.5480 C   0  0  0  0  0  2  0  0  0  0  0  0
  180.8190  175.5270  139.3270 C   0  0  1  0  0  0  0  0  0  0  0  0
  180.1490  175.4910  137.9820 C   0  0  2  0  0  3  0  0  0  0  0  0
  182.2110  175.4190  139.2550 O   0  0  0  0  0  1  0  0  0  0  0  0
  180.1230  176.7790  138.8160 C   0  0  2  0  0  3  0  0  0  0  0  0
  180.1570  174.7330  140.2780 O   0  0  0  0  0  0  0  0  0  0  0  0
  180.5350  178.1150  136.0230 C   0  0  0  0  0  2  0  0  0  0  0  0
  181.9870  177.9110  135.5990 C   0  0  0  0  0  2  0  0  0  0  0  0
  182.2590  176.4690  135.1810 C   0  0  0  0  0  2  0  0  0  0  0  0
  183.4140  174.5970  135.5010 C   0  0  0  0  0  1  0  0  0  0  0  0
  183.1400  175.8440  136.0740 O   0  0  0  0  0  0  0  0  0  0  0  0
  186.0650  177.8610  137.1340 C   0  0  2  0  0  3  0  0  0  0  0  0
  186.1420  176.4770  136.9560 O   0  0  0  0  0  1  0  0  0  0  0  0
  187.4410  178.5110  137.0190 C   0  0  0  0  0  2  0  0  0  0  0  0
  188.5540  177.4850  136.8530 C   0  0  0  0  0  2  0  0  0  0  0  0
  189.1890  178.4130  139.4210 S   0  0  0  0  0  0  0  0  0  0  0  0
  190.0970  176.2570  138.4980 C   0  0  0  0  0  3  0  0  0  0  0  0
  190.1770  177.4610  140.3950 C   0  0  0  0  0  0  0  0  0  0  0  0
  190.5100  177.7770  141.7470 N   0  0  0  0  0  2  0  0  0  0  0  0
  190.5890  176.3380  139.7650 N   0  0  0  0  0  0  0  0  0  0  0  0
  189.3020  177.3390  138.1310 C   0  0  0  0  0  0  0  0  0  0  0  0
  191.3720  176.9080  142.5410 C   0  0  0  0  0  2  0  0  0  0  0  0
  191.5390  177.4820  143.9330 C   0  0  0  0  0  2  0  0  0  0  0  0
  190.2550  178.1750  144.3900 C   0  0  0  0  0  2  0  0  0  0  0  0
  189.3510  177.2540  145.2240 C   0  0  2  0  0  0  0  0  0  0  0  0
  188.4850  178.1020  146.1810 C   0  0  2  0  0  3  0  0  0  0  0  0
  190.1520  176.3420  145.9660 O   0  0  0  0  0  0  0  0  0  0  0  0
  190.1330  176.7350  147.3250 C   0  0  0  0  0  2  0  0  0  0  0  0
  188.5550  176.5250  144.3320 O   0  0  0  0  0  1  0  0  0  0  0  0
  188.8550  178.3490  148.5130 O   0  0  0  0  0  0  0  0  0  0  0  0
  189.1100  177.7810  147.4620 C   0  0  0  0  0  0  0  0  0  0  0  0
  186.2420  178.5880  145.4760 O   0  0  0  0  0  1  0  0  0  0  0  0
  187.0110  177.7030  146.2340 C   0  0  0  0  0  2  0  0  0  0  0  0
  1  5  1  0  0  0  0
  2  4  2  0  0  0  0
  3  2  1  0  0  0  0
  3  1  2  0  0  0  0
  4  6  1  0  0  0  0
  5  6  2  0  0  0  0
  7  4  1  6  0  0  0
  7 12  1  0  0  0  0
  9  8  1  0  0  0  0
  9 11  1  0  0  0  0
 10  8  1  6  0  0  0
 10  7  1  0  0  0  0
 11 12  1  0  0  0  0
 13 14  1  0  0  0  0
 14 19  1  0  0  0  0
 15 17  1  1  0  0  0
 15 19  1  0  0  0  0
 16 13  1  1  0  0  0
 16 18  1  0  0  0  0
 16 15  1  0  0  0  0
 18 10  1  6  0  0  0
 18 15  1  0  0  0  0
 20  8  1  0  0  0  0
 21 20  1  0  0  0  0
 22 21  1  0  0  0  0
 22 24  1  0  0  0  0
 23 24  1  0  0  0  0
 25 26  1  1  0  0  0
 25  3  1  0  0  0  0
 27 25  1  0  0  0  0
 28 27  1  0  0  0  0
 28 34  1  0  0  0  0
 29 31  1  0  0  0  0
 30 33  1  0  0  0  0
 31 32  1  0  0  0  0
 32 35  1  0  0  0  0
 33 31  2  0  0  0  0
 34 30  2  0  0  0  0
 34 29  1  0  0  0  0
 35 36  1  0  0  0  0
 36 37  1  0  0  0  0
 37 38  1  0  0  0  0
 38 42  1  6  0  0  0
 38 40  1  0  0  0  0
 38 39  1  0  0  0  0
 39 46  1  1  0  0  0
 39 44  1  0  0  0  0
 40 41  1  0  0  0  0
 41 44  1  0  0  0  0
 44 43  2  0  0  0  0
 45 46  1  0  0  0  0
M  END
>  <MODEL>
2

>  <REMARK>
 VINA RESULT:      -7.4      2.242      4.217
  Name = 
  15 active torsions:
  status: ('A' for Active; 'I' for Inactive)
    1  A    between atoms: C_1  and  C_39
    2  A    between atoms: N_2  and  C_25
    3  A    between atoms: C_9  and  C_23
    4  A    between atoms: C_11  and  C_34
    5  A    between atoms: C_12  and  C_21
    6  A    between atoms: C_12  and  C_40
    7  A    between atoms: C_16  and  C_29
    8  A    between atoms: O_17  and  C_41
    9  A    between atoms: N_18  and  C_33
   10  A    between atoms: C_23  and  C_32
   11  A    between atoms: C_25  and  C_42
   12  A    between atoms: C_32  and  C_33
   13  A    between atoms: C_35  and  C_40
   14  A    between atoms: C_35  and  C_45
   15  A    between atoms: C_41  and  C_42
                            x       y       z     vdW  Elec       q    Type
                         _______ _______ _______ _____ _____    ______ ____

>  <TORSDO>
F 15

$$$$
=
 OpenBabel10222416163D

 46 51  0  0  1  0  0  0  0  0999 V2000
  186.4150  178.6690  140.0920 N   0  0  0  0  0  0  0  0  0  0  0  0
  185.1170  178.2950  138.1260 C   0  0  0  0  0  3  0  0  0  0  0  0
  186.3540  178.3090  138.7810 C   0  0  0  0  0  0  0  0  0  0  0  0
  183.9530  178.6180  138.8300 C   0  0  0  0  0  0  0  0  0  0  0  0
  185.3000  179.0060  140.7950 C   0  0  0  0  0  3  0  0  0  0  0  0
  184.0520  178.9930  140.1750 C   0  0  0  0  0  3  0  0  0  0  0  0
  182.6330  178.5710  138.1100 C   0  0  2  0  0  3  0  0  0  0  0  0
  180.5310  178.0680  139.4120 N   0  0  0  0  0  0  0  0  0  0  0  0
  181.2470  176.8320  139.7310 C   0  0  0  0  0  2  0  0  0  0  0  0
  181.4720  179.1160  138.9710 C   0  0  2  0  0  3  0  0  0  0  0  0
  181.7680  176.1860  138.4500 C   0  0  0  0  0  2  0  0  0  0  0  0
  182.3100  177.2170  137.4570 C   0  0  0  0  0  2  0  0  0  0  0  0
  179.2280  182.1430  138.2010 C   0  0  0  0  0  2  0  0  0  0  0  0
  180.0440  183.0000  137.2540 C   0  0  0  0  0  2  0  0  0  0  0  0
  181.4700  181.4830  138.0760 C   0  0  1  0  0  0  0  0  0  0  0  0
  180.2550  181.3490  138.9500 C   0  0  2  0  0  3  0  0  0  0  0  0
  182.6560  181.6520  138.7960 O   0  0  0  0  0  1  0  0  0  0  0  0
  180.7340  180.1530  138.1180 C   0  0  2  0  0  3  0  0  0  0  0  0
  181.2520  182.3360  136.9800 O   0  0  0  0  0  0  0  0  0  0  0  0
  179.9110  178.5230  140.6520 C   0  0  0  0  0  2  0  0  0  0  0  0
  180.9530  178.7080  141.7510 C   0  0  0  0  0  2  0  0  0  0  0  0
  180.3110  178.8090  143.1310 C   0  0  0  0  0  2  0  0  0  0  0  0
  182.5050  178.6920  143.4670 C   0  0  0  0  0  1  0  0  0  0  0  0
  181.2850  178.8270  144.1390 O   0  0  0  0  0  0  0  0  0  0  0  0
  187.6390  178.0340  138.0550 C   0  0  2  0  0  3  0  0  0  0  0  0
  187.8000  176.6650  137.8210 O   0  0  0  0  0  1  0  0  0  0  0  0
  188.8960  178.6400  138.6760 C   0  0  0  0  0  2  0  0  0  0  0  0
  190.0720  177.6740  138.6630 C   0  0  0  0  0  2  0  0  0  0  0  0
  189.5180  176.7950  141.2660 S   0  0  0  0  0  0  0  0  0  0  0  0
  191.8230  177.4850  140.5320 C   0  0  0  0  0  3  0  0  0  0  0  0
  190.7910  176.6800  142.3600 C   0  0  0  0  0  0  0  0  0  0  0  0
  190.6600  176.1720  143.6890 N   0  0  0  0  0  2  0  0  0  0  0  0
  191.9650  177.0860  141.8260 N   0  0  0  0  0  0  0  0  0  0  0  0
  190.5170  177.4000  140.0560 C   0  0  0  0  0  0  0  0  0  0  0  0
  191.8050  176.0960  144.5900 C   0  0  0  0  0  2  0  0  0  0  0  0
  191.4600  176.7450  145.9150 C   0  0  0  0  0  2  0  0  0  0  0  0
  190.0180  176.4250  146.3150 C   0  0  0  0  0  2  0  0  0  0  0  0
  189.1370  177.6800  146.4050 C   0  0  2  0  0  0  0  0  0  0  0  0
  187.6520  177.2680  146.5040 C   0  0  2  0  0  3  0  0  0  0  0  0
  189.3450  178.4940  145.2560 O   0  0  0  0  0  0  0  0  0  0  0  0
  188.2070  178.3830  144.4200 C   0  0  0  0  0  2  0  0  0  0  0  0
  189.5400  178.3980  147.5370 O   0  0  0  0  0  1  0  0  0  0  0  0
  186.0720  177.3880  144.7360 O   0  0  0  0  0  0  0  0  0  0  0  0
  187.1760  177.6650  145.1810 C   0  0  0  0  0  0  0  0  0  0  0  0
  186.0830  179.0230  146.9750 O   0  0  0  0  0  1  0  0  0  0  0  0
  186.8480  178.0170  147.5660 C   0  0  0  0  0  2  0  0  0  0  0  0
  1  5  1  0  0  0  0
  2  3  1  0  0  0  0
  2  4  2  0  0  0  0
  3  1  2  0  0  0  0
  4  6  1  0  0  0  0
  6  5  2  0  0  0  0
  7  4  1  1  0  0  0
  7 10  1  0  0  0  0
  8  9  1  0  0  0  0
  8 20  1  0  0  0  0
 10  8  1  6  0  0  0
 11  9  1  0  0  0  0
 12  7  1  0  0  0  0
 12 11  1  0  0  0  0
 14 13  1  0  0  0  0
 15 18  1  0  0  0  0
 15 17  1  1  0  0  0
 15 16  1  0  0  0  0
 16 13  1  6  0  0  0
 18 16  1  0  0  0  0
 18 10  1  1  0  0  0
 19 14  1  0  0  0  0
 19 15  1  0  0  0  0
 20 21  1  0  0  0  0
 21 22  1  0  0  0  0
 22 24  1  0  0  0  0
 23 24  1  0  0  0  0
 25 26  1  1  0  0  0
 25 27  1  0  0  0  0
 25  3  1  0  0  0  0
 28 27  1  0  0  0  0
 28 34  1  0  0  0  0
 29 31  1  0  0  0  0
 30 33  1  0  0  0  0
 31 32  1  0  0  0  0
 32 35  1  0  0  0  0
 33 31  2  0  0  0  0
 34 30  2  0  0  0  0
 34 29  1  0  0  0  0
 35 36  1  0  0  0  0
 36 37  1  0  0  0  0
 37 38  1  0  0  0  0
 38 39  1  0  0  0  0
 38 42  1  1  0  0  0
 39 46  1  1  0  0  0
 40 38  1  0  0  0  0
 41 44  1  0  0  0  0
 41 40  1  0  0  0  0
 43 44  2  0  0  0  0
 44 39  1  0  0  0  0
 45 46  1  0  0  0  0
M  END
>  <MODEL>
3

>  <REMARK>
 VINA RESULT:      -7.3      1.064      1.570
  Name = 
  15 active torsions:
  status: ('A' for Active; 'I' for Inactive)
    1  A    between atoms: C_1  and  C_39
    2  A    between atoms: N_2  and  C_25
    3  A    between atoms: C_9  and  C_23
    4  A    between atoms: C_11  and  C_34
    5  A    between atoms: C_12  and  C_21
    6  A    between atoms: C_12  and  C_40
    7  A    between atoms: C_16  and  C_29
    8  A    between atoms: O_17  and  C_41
    9  A    between atoms: N_18  and  C_33
   10  A    between atoms: C_23  and  C_32
   11  A    between atoms: C_25  and  C_42
   12  A    between atoms: C_32  and  C_33
   13  A    between atoms: C_35  and  C_40
   14  A    between atoms: C_35  and  C_45
   15  A    between atoms: C_41  and  C_42
                            x       y       z     vdW  Elec       q    Type
                         _______ _______ _______ _____ _____    ______ ____

>  <TORSDO>
F 15

$$$$
=
 OpenBabel10222416163D

 46 51  0  0  1  0  0  0  0  0999 V2000
  191.8140  178.6060  145.1980 N   0  0  0  0  0  0  0  0  0  0  0  0
  190.4930  176.8110  144.3470 C   0  0  0  0  0  3  0  0  0  0  0  0
  191.0670  177.4920  145.4280 C   0  0  0  0  0  0  0  0  0  0  0  0
  190.6640  177.2970  143.0480 C   0  0  0  0  0  0  0  0  0  0  0  0
  192.0110  179.0910  143.9420 C   0  0  0  0  0  3  0  0  0  0  0  0
  191.4460  178.4410  142.8460 C   0  0  0  0  0  3  0  0  0  0  0  0
  190.0160  176.5620  141.9060 C   0  0  2  0  0  3  0  0  0  0  0  0
  188.8740  177.8740  140.0780 N   0  0  0  0  0  0  0  0  0  0  0  0
  188.0680  178.3710  141.1940 C   0  0  0  0  0  2  0  0  0  0  0  0
  190.1520  177.3180  140.5660 C   0  0  2  0  0  3  0  0  0  0  0  0
  187.5400  177.1990  142.0170 C   0  0  0  0  0  2  0  0  0  0  0  0
  188.5810  176.0890  142.1850 C   0  0  0  0  0  2  0  0  0  0  0  0
  191.3610  176.0170  137.1540 C   0  0  0  0  0  2  0  0  0  0  0  0
  192.7080  175.3830  137.4370 C   0  0  0  0  0  2  0  0  0  0  0  0
  192.1880  176.5400  139.2810 C   0  0  1  0  0  0  0  0  0  0  0  0
  191.1870  177.0110  138.2630 C   0  0  2  0  0  3  0  0  0  0  0  0
  192.8660  177.5850  139.9150 O   0  0  0  0  0  1  0  0  0  0  0  0
  190.7070  176.3180  139.5460 C   0  0  2  0  0  3  0  0  0  0  0  0
  192.9550  175.4580  138.8180 O   0  0  0  0  0  0  0  0  0  0  0  0
  189.1850  179.0290  139.2430 C   0  0  0  0  0  2  0  0  0  0  0  0
  188.4740  178.9390  137.8950 C   0  0  0  0  0  2  0  0  0  0  0  0
  187.5610  177.7190  137.8150 C   0  0  0  0  0  2  0  0  0  0  0  0
  187.5800  175.5900  137.1740 C   0  0  0  0  0  1  0  0  0  0  0  0
  187.9380  176.8780  136.7590 O   0  0  0  0  0  0  0  0  0  0  0  0
  190.9690  176.9740  146.8340 C   0  0  2  0  0  3  0  0  0  0  0  0
  191.8250  175.8860  147.0280 O   0  0  0  0  0  1  0  0  0  0  0  0
  189.5590  176.6650  147.3310 C   0  0  0  0  0  2  0  0  0  0  0  0
  188.8840  177.8800  147.9510 C   0  0  0  0  0  2  0  0  0  0  0  0
  187.3680  177.7500  145.5960 S   0  0  0  0  0  0  0  0  0  0  0  0
  186.5260  178.8650  147.6880 C   0  0  0  0  0  3  0  0  0  0  0  0
  185.8170  178.4010  145.6060 C   0  0  0  0  0  0  0  0  0  0  0  0
  184.9130  178.3300  144.5020 N   0  0  0  0  0  2  0  0  0  0  0  0
  185.5050  178.9670  146.7930 N   0  0  0  0  0  0  0  0  0  0  0  0
  187.6540  178.2220  147.1860 C   0  0  0  0  0  0  0  0  0  0  0  0
  183.5790  178.9140  144.5730 C   0  0  0  0  0  2  0  0  0  0  0  0
  182.9560  178.9450  143.1920 C   0  0  0  0  0  2  0  0  0  0  0  0
  183.9460  178.4390  142.1410 C   0  0  0  0  0  2  0  0  0  0  0  0
  183.4020  178.5610  140.7100 C   0  0  2  0  0  0  0  0  0  0  0  0
  181.8600  178.6490  140.7450 C   0  0  2  0  0  3  0  0  0  0  0  0
  183.8100  177.4330  139.9450 O   0  0  0  0  0  0  0  0  0  0  0  0
  182.6860  176.5950  139.7510 C   0  0  0  0  0  2  0  0  0  0  0  0
  183.9620  179.7110  140.1420 O   0  0  0  0  0  1  0  0  0  0  0  0
  180.3700  176.8850  140.1960 O   0  0  0  0  0  0  0  0  0  0  0  0
  181.5050  177.3370  140.2110 C   0  0  0  0  0  0  0  0  0  0  0  0
  180.3550  180.5120  140.5680 O   0  0  0  0  0  1  0  0  0  0  0  0
  181.2600  179.7310  139.8470 C   0  0  0  0  0  2  0  0  0  0  0  0
  1  3  1  0  0  0  0
  2  3  2  0  0  0  0
  3 25  1  0  0  0  0
  4  2  1  0  0  0  0
  5  1  2  0  0  0  0
  6  4  2  0  0  0  0
  6  5  1  0  0  0  0
  7 12  1  0  0  0  0
  7  4  1  1  0  0  0
  8  9  1  0  0  0  0
  9 11  1  0  0  0  0
 10  8  1  6  0  0  0
 10  7  1  0  0  0  0
 11 12  1  0  0  0  0
 13 14  1  0  0  0  0
 14 19  1  0  0  0  0
 15 18  1  0  0  0  0
 15 17  1  1  0  0  0
 16 13  1  6  0  0  0
 16 15  1  0  0  0  0
 16 18  1  0  0  0  0
 18 10  1  1  0  0  0
 19 15  1  0  0  0  0
 20  8  1  0  0  0  0
 21 20  1  0  0  0  0
 22 21  1  0  0  0  0
 24 23  1  0  0  0  0
 24 22  1  0  0  0  0
 25 26  1  6  0  0  0
 25 27  1  0  0  0  0
 27 28  1  0  0  0  0
 29 31  1  0  0  0  0
 29 34  1  0  0  0  0
 31 33  2  0  0  0  0
 32 35  1  0  0  0  0
 32 31  1  0  0  0  0
 33 30  1  0  0  0  0
 34 30  2  0  0  0  0
 34 28  1  0  0  0  0
 36 35  1  0  0  0  0
 37 36  1  0  0  0  0
 38 42  1  6  0  0  0
 38 39  1  0  0  0  0
 38 37  1  0  0  0  0
 39 46  1  6  0  0  0
 40 38  1  0  0  0  0
 41 40  1  0  0  0  0
 41 44  1  0  0  0  0
 43 44  2  0  0  0  0
 44 39  1  0  0  0  0
 46 45  1  0  0  0  0
M  END
>  <MODEL>
4

>  <REMARK>
 VINA RESULT:      -7.1      2.909      9.345
  Name = 
  15 active torsions:
  status: ('A' for Active; 'I' for Inactive)
    1  A    between atoms: C_1  and  C_39
    2  A    between atoms: N_2  and  C_25
    3  A    between atoms: C_9  and  C_23
    4  A    between atoms: C_11  and  C_34
    5  A    between atoms: C_12  and  C_21
    6  A    between atoms: C_12  and  C_40
    7  A    between atoms: C_16  and  C_29
    8  A    between atoms: O_17  and  C_41
    9  A    between atoms: N_18  and  C_33
   10  A    between atoms: C_23  and  C_32
   11  A    between atoms: C_25  and  C_42
   12  A    between atoms: C_32  and  C_33
   13  A    between atoms: C_35  and  C_40
   14  A    between atoms: C_35  and  C_45
   15  A    between atoms: C_41  and  C_42
                            x       y       z     vdW  Elec       q    Type
                         _______ _______ _______ _____ _____    ______ ____

>  <TORSDO>
F 15

$$$$
=
 OpenBabel10222416163D

 46 51  0  0  1  0  0  0  0  0999 V2000
  191.7730  177.4010  141.0110 N   0  0  0  0  0  0  0  0  0  0  0  0
  189.4290  177.2610  140.5930 C   0  0  0  0  0  3  0  0  0  0  0  0
  190.4940  177.5320  141.4590 C   0  0  0  0  0  0  0  0  0  0  0  0
  189.6840  176.8900  139.2700 C   0  0  0  0  0  0  0  0  0  0  0  0
  192.0500  177.0250  139.7340 C   0  0  0  0  0  3  0  0  0  0  0  0
  191.0110  176.7560  138.8440 C   0  0  0  0  0  3  0  0  0  0  0  0
  188.5210  176.6290  138.3520 C   0  0  2  0  0  3  0  0  0  0  0  0
  188.8030  176.9750  135.8680 N   0  0  0  0  0  0  0  0  0  0  0  0
  189.1280  178.3400  136.2840 C   0  0  0  0  0  2  0  0  0  0  0  0
  188.9630  176.0350  136.9950 C   0  0  2  0  0  3  0  0  0  0  0  0
  188.0430  178.8720  137.2170 C   0  0  0  0  0  2  0  0  0  0  0  0
  187.5490  177.8090  138.2010 C   0  0  0  0  0  2  0  0  0  0  0  0
  187.6420  172.9260  135.1560 C   0  0  0  0  0  2  0  0  0  0  0  0
  187.7010  171.8140  136.1850 C   0  0  0  0  0  2  0  0  0  0  0  0
  188.8730  173.5070  137.0610 C   0  0  1  0  0  0  0  0  0  0  0  0
  188.6690  173.9110  135.6280 C   0  0  2  0  0  3  0  0  0  0  0  0
  190.2080  173.5690  137.4690 O   0  0  0  0  0  1  0  0  0  0  0  0
  188.1080  174.7860  136.7560 C   0  0  2  0  0  3  0  0  0  0  0  0
  188.1440  172.3560  137.4030 O   0  0  0  0  0  0  0  0  0  0  0  0
  189.7760  176.6080  134.8450 C   0  0  0  0  0  2  0  0  0  0  0  0
  191.1590  176.3940  135.4530 C   0  0  0  0  0  2  0  0  0  0  0  0
  191.9870  175.4000  134.6440 C   0  0  0  0  0  2  0  0  0  0  0  0
  193.7230  175.9610  135.9140 C   0  0  0  0  0  1  0  0  0  0  0  0
  193.0190  174.8570  135.4200 O   0  0  0  0  0  0  0  0  0  0  0  0
  190.2750  177.8690  142.9060 C   0  0  2  0  0  3  0  0  0  0  0  0
  191.3500  178.6020  143.4180 O   0  0  0  0  0  1  0  0  0  0  0  0
  189.9220  176.6950  143.8150 C   0  0  0  0  0  2  0  0  0  0  0  0
  189.3660  177.1500  145.1580 C   0  0  0  0  0  2  0  0  0  0  0  0
  186.9820  178.1390  146.2510 S   0  0  0  0  0  0  0  0  0  0  0  0
  187.1630  177.3820  143.8590 C   0  0  0  0  0  3  0  0  0  0  0  0
  185.6370  178.2750  145.2490 C   0  0  0  0  0  0  0  0  0  0  0  0
  184.3900  178.8370  145.6570 N   0  0  0  0  0  2  0  0  0  0  0  0
  185.8840  177.8290  143.9960 N   0  0  0  0  0  0  0  0  0  0  0  0
  187.9190  177.4700  145.0240 C   0  0  0  0  0  0  0  0  0  0  0  0
  183.2600  178.9280  144.7390 C   0  0  0  0  0  2  0  0  0  0  0  0
  183.7630  179.0280  143.3130 C   0  0  0  0  0  2  0  0  0  0  0  0
  182.6130  178.8490  142.3200 C   0  0  0  0  0  2  0  0  0  0  0  0
  183.1020  178.6930  140.8720 C   0  0  2  0  0  0  0  0  0  0  0  0
  182.0180  179.2070  139.8980 C   0  0  2  0  0  3  0  0  0  0  0  0
  183.3880  177.3240  140.6080 O   0  0  0  0  0  0  0  0  0  0  0  0
  182.3660  176.8080  139.7750 C   0  0  0  0  0  2  0  0  0  0  0  0
  184.2870  179.4280  140.7450 O   0  0  0  0  0  1  0  0  0  0  0  0
  180.5740  177.8390  138.6030 O   0  0  0  0  0  0  0  0  0  0  0  0
  181.5540  177.9460  139.3260 C   0  0  0  0  0  0  0  0  0  0  0  0
  181.6180  181.1090  138.4890 O   0  0  0  0  0  1  0  0  0  0  0  0
  182.5400  180.1010  138.7740 C   0  0  0  0  0  2  0  0  0  0  0  0
  1  3  1  0  0  0  0
  2  3  2  0  0  0  0
  3 25  1  0  0  0  0
  4  2  1  0  0  0  0
  5  1  2  0  0  0  0
  6  4  2  0  0  0  0
  6  5  1  0  0  0  0
  7  4  1  6  0  0  0
  8  9  1  0  0  0  0
  9 11  1  0  0  0  0
 10  8  1  6  0  0  0
 10  7  1  0  0  0  0
 11 12  1  0  0  0  0
 12  7  1  0  0  0  0
 13 14  1  0  0  0  0
 14 19  1  0  0  0  0
 15 19  1  0  0  0  0
 15 17  1  1  0  0  0
 16 13  1  6  0  0  0
 16 18  1  0  0  0  0
 16 15  1  0  0  0  0
 18 10  1  1  0  0  0
 18 15  1  0  0  0  0
 20 21  1  0  0  0  0
 20  8  1  0  0  0  0
 22 24  1  0  0  0  0
 22 21  1  0  0  0  0
 24 23  1  0  0  0  0
 25 26  1  1  0  0  0
 25 27  1  0  0  0  0
 27 28  1  0  0  0  0
 30 33  1  0  0  0  0
 30 34  2  0  0  0  0
 31 32  1  0  0  0  0
 31 29  1  0  0  0  0
 33 31  2  0  0  0  0
 34 28  1  0  0  0  0
 34 29  1  0  0  0  0
 35 32  1  0  0  0  0
 36 35  1  0  0  0  0
 37 36  1  0  0  0  0
 38 42  1  6  0  0  0
 38 37  1  0  0  0  0
 39 46  1  6  0  0  0
 39 38  1  0  0  0  0
 40 38  1  0  0  0  0
 41 40  1  0  0  0  0
 43 44  2  0  0  0  0
 44 41  1  0  0  0  0
 44 39  1  0  0  0  0
 45 46  1  0  0  0  0
M  END
>  <MODEL>
5

>  <REMARK>
 VINA RESULT:      -7.0      3.444      9.263
  Name = 
  15 active torsions:
  status: ('A' for Active; 'I' for Inactive)
    1  A    between atoms: C_1  and  C_39
    2  A    between atoms: N_2  and  C_25
    3  A    between atoms: C_9  and  C_23
    4  A    between atoms: C_11  and  C_34
    5  A    between atoms: C_12  and  C_21
    6  A    between atoms: C_12  and  C_40
    7  A    between atoms: C_16  and  C_29
    8  A    between atoms: O_17  and  C_41
    9  A    between atoms: N_18  and  C_33
   10  A    between atoms: C_23  and  C_32
   11  A    between atoms: C_25  and  C_42
   12  A    between atoms: C_32  and  C_33
   13  A    between atoms: C_35  and  C_40
   14  A    between atoms: C_35  and  C_45
   15  A    between atoms: C_41  and  C_42
                            x       y       z     vdW  Elec       q    Type
                         _______ _______ _______ _____ _____    ______ ____

>  <TORSDO>
F 15

$$$$
=
 OpenBabel10222416163D

 46 51  0  0  1  0  0  0  0  0999 V2000
  184.8390  173.7390  137.5930 N   0  0  0  0  0  0  0  0  0  0  0  0
  185.5770  175.8270  136.7060 C   0  0  0  0  0  3  0  0  0  0  0  0
  184.5500  175.0060  137.1870 C   0  0  0  0  0  0  0  0  0  0  0  0
  186.8920  175.3530  136.6770 C   0  0  0  0  0  0  0  0  0  0  0  0
  186.1060  173.2460  137.5570 C   0  0  0  0  0  3  0  0  0  0  0  0
  187.1520  174.0410  137.0930 C   0  0  0  0  0  3  0  0  0  0  0  0
  187.9820  176.2630  136.1790 C   0  0  2  0  0  3  0  0  0  0  0  0
  189.2240  177.7190  137.8240 N   0  0  0  0  0  0  0  0  0  0  0  0
  187.8840  178.2420  138.0900 C   0  0  0  0  0  2  0  0  0  0  0  0
  189.1480  176.3900  137.1850 C   0  0  2  0  0  3  0  0  0  0  0  0
  187.2060  178.6280  136.7780 C   0  0  0  0  0  2  0  0  0  0  0  0
  187.4890  177.6220  135.6580 C   0  0  0  0  0  2  0  0  0  0  0  0
  192.9280  176.0160  136.5810 C   0  0  0  0  0  2  0  0  0  0  0  0
  193.0810  174.6640  135.9140 C   0  0  0  0  0  2  0  0  0  0  0  0
  190.9810  174.7200  136.6860 C   0  0  1  0  0  0  0  0  0  0  0  0
  191.6390  175.9030  137.3390 C   0  0  2  0  0  3  0  0  0  0  0  0
  190.3270  173.8800  137.5920 O   0  0  0  0  0  1  0  0  0  0  0  0
  190.4380  176.1120  136.4070 C   0  0  2  0  0  3  0  0  0  0  0  0
  191.8030  174.1140  135.7200 O   0  0  0  0  0  0  0  0  0  0  0  0
  189.8700  177.5490  139.1210 C   0  0  0  0  0  2  0  0  0  0  0  0
  188.8600  177.1330  140.1880 C   0  0  0  0  0  2  0  0  0  0  0  0
  189.3970  177.3610  141.5970 C   0  0  0  0  0  2  0  0  0  0  0  0
  191.4230  177.5050  142.5000 C   0  0  0  0  0  1  0  0  0  0  0  0
  190.5750  176.6320  141.8100 O   0  0  0  0  0  0  0  0  0  0  0  0
  183.1140  175.4440  137.1780 C   0  0  2  0  0  3  0  0  0  0  0  0
  182.3880  174.7600  136.2000 O   0  0  0  0  0  1  0  0  0  0  0  0
  182.8800  176.9500  137.0890 C   0  0  0  0  0  2  0  0  0  0  0  0
  181.6480  177.3920  137.8660 C   0  0  0  0  0  2  0  0  0  0  0  0
  183.2030  177.1640  140.1870 S   0  0  0  0  0  0  0  0  0  0  0  0
  181.6350  179.0910  139.7920 C   0  0  0  0  0  3  0  0  0  0  0  0
  183.1160  178.3930  141.3330 C   0  0  0  0  0  0  0  0  0  0  0  0
  183.9130  178.4400  142.5170 N   0  0  0  0  0  2  0  0  0  0  0  0
  182.2320  179.3560  140.9870 N   0  0  0  0  0  0  0  0  0  0  0  0
  182.0500  177.8980  139.2060 C   0  0  0  0  0  0  0  0  0  0  0  0
  183.7910  179.5350  143.4730 C   0  0  0  0  0  2  0  0  0  0  0  0
  183.9280  179.0040  144.8850 C   0  0  0  0  0  2  0  0  0  0  0  0
  185.2950  179.3660  145.4690 C   0  0  0  0  0  2  0  0  0  0  0  0
  186.0220  178.1530  146.0690 C   0  0  2  0  0  0  0  0  0  0  0  0
  187.4300  178.5730  146.5460 C   0  0  2  0  0  3  0  0  0  0  0  0
  186.1230  177.1240  145.0920 O   0  0  0  0  0  0  0  0  0  0  0  0
  187.4660  177.0600  144.6480 C   0  0  0  0  0  2  0  0  0  0  0  0
  185.2450  177.6810  147.1340 O   0  0  0  0  0  1  0  0  0  0  0  0
  189.4620  178.0930  145.4190 O   0  0  0  0  0  0  0  0  0  0  0  0
  188.2600  177.9150  145.5410 C   0  0  0  0  0  0  0  0  0  0  0  0
  188.3070  176.7490  147.8370 O   0  0  0  0  0  1  0  0  0  0  0  0
  187.8180  178.0530  147.9300 C   0  0  0  0  0  2  0  0  0  0  0  0
  2  3  1  0  0  0  0
  3  1  2  0  0  0  0
  4  2  2  0  0  0  0
  4  6  1  0  0  0  0
  5  1  1  0  0  0  0
  6  5  2  0  0  0  0
  7  4  1  1  0  0  0
  7 10  1  0  0  0  0
  8  9  1  0  0  0  0
  8 20  1  0  0  0  0
 10  8  1  6  0  0  0
 11  9  1  0  0  0  0
 12  7  1  0  0  0  0
 12 11  1  0  0  0  0
 14 13  1  0  0  0  0
 15 16  1  0  0  0  0
 15 17  1  1  0  0  0
 16 13  1  6  0  0  0
 18 15  1  0  0  0  0
 18 10  1  1  0  0  0
 18 16  1  0  0  0  0
 19 14  1  0  0  0  0
 19 15  1  0  0  0  0
 20 21  1  0  0  0  0
 21 22  1  0  0  0  0
 22 24  1  0  0  0  0
 24 23  1  0  0  0  0
 25 26  1  6  0  0  0
 25  3  1  0  0  0  0
 27 25  1  0  0  0  0
 27 28  1  0  0  0  0
 28 34  1  0  0  0  0
 29 31  1  0  0  0  0
 30 33  1  0  0  0  0
 31 32  1  0  0  0  0
 32 35  1  0  0  0  0
 33 31  2  0  0  0  0
 34 30  2  0  0  0  0
 34 29  1  0  0  0  0
 35 36  1  0  0  0  0
 36 37  1  0  0  0  0
 37 38  1  0  0  0  0
 38 39  1  0  0  0  0
 38 42  1  1  0  0  0
 39 46  1  1  0  0  0
 40 38  1  0  0  0  0
 41 40  1  0  0  0  0
 41 44  1  0  0  0  0
 43 44  2  0  0  0  0
 44 39  1  0  0  0  0
 45 46  1  0  0  0  0
M  END
>  <MODEL>
6

>  <REMARK>
 VINA RESULT:      -6.8      3.228      8.054
  Name = 
  15 active torsions:
  status: ('A' for Active; 'I' for Inactive)
    1  A    between atoms: C_1  and  C_39
    2  A    between atoms: N_2  and  C_25
    3  A    between atoms: C_9  and  C_23
    4  A    between atoms: C_11  and  C_34
    5  A    between atoms: C_12  and  C_21
    6  A    between atoms: C_12  and  C_40
    7  A    between atoms: C_16  and  C_29
    8  A    between atoms: O_17  and  C_41
    9  A    between atoms: N_18  and  C_33
   10  A    between atoms: C_23  and  C_32
   11  A    between atoms: C_25  and  C_42
   12  A    between atoms: C_32  and  C_33
   13  A    between atoms: C_35  and  C_40
   14  A    between atoms: C_35  and  C_45
   15  A    between atoms: C_41  and  C_42
                            x       y       z     vdW  Elec       q    Type
                         _______ _______ _______ _____ _____    ______ ____

>  <TORSDO>
F 15

$$$$
=
 OpenBabel10222416163D

 46 51  0  0  1  0  0  0  0  0999 V2000
  186.5530  178.7330  140.6610 N   0  0  0  0  0  0  0  0  0  0  0  0
  185.9250  178.1250  138.4410 C   0  0  0  0  0  3  0  0  0  0  0  0
  186.9090  178.2930  139.4230 C   0  0  0  0  0  0  0  0  0  0  0  0
  184.5850  178.3800  138.7480 C   0  0  0  0  0  0  0  0  0  0  0  0
  185.2600  179.0050  140.9810 C   0  0  0  0  0  3  0  0  0  0  0  0
  184.2550  178.8400  140.0290 C   0  0  0  0  0  3  0  0  0  0  0  0
  183.5430  178.1670  137.6830 C   0  0  2  0  0  3  0  0  0  0  0  0
  181.3670  177.0420  138.2880 N   0  0  0  0  0  0  0  0  0  0  0  0
  182.2570  175.9500  138.6840 C   0  0  0  0  0  2  0  0  0  0  0  0
  182.1050  178.3190  138.2280 C   0  0  2  0  0  3  0  0  0  0  0  0
  183.2270  175.6310  137.5500 C   0  0  0  0  0  2  0  0  0  0  0  0
  183.7370  176.8930  136.8470 C   0  0  0  0  0  2  0  0  0  0  0  0
  179.2380  180.5270  136.9260 C   0  0  0  0  0  2  0  0  0  0  0  0
  179.8740  181.8800  136.6750 C   0  0  0  0  0  2  0  0  0  0  0  0
  181.3810  180.7140  137.8490 C   0  0  1  0  0  0  0  0  0  0  0  0
  180.1260  179.8930  137.9530 C   0  0  2  0  0  3  0  0  0  0  0  0
  181.9710  180.9850  139.0860 O   0  0  0  0  0  1  0  0  0  0  0  0
  181.3780  179.2960  137.2980 C   0  0  2  0  0  3  0  0  0  0  0  0
  181.2490  181.7830  136.9470 O   0  0  0  0  0  0  0  0  0  0  0  0
  180.3620  177.1610  139.3380 C   0  0  0  0  0  2  0  0  0  0  0  0
  180.3700  175.9370  140.2500 C   0  0  0  0  0  2  0  0  0  0  0  0
  179.1350  175.8870  141.1440 C   0  0  0  0  0  2  0  0  0  0  0  0
  179.6900  173.7590  140.8180 C   0  0  0  0  0  1  0  0  0  0  0  0
  178.9310  174.5940  141.6460 O   0  0  0  0  0  0  0  0  0  0  0  0
  188.3670  178.0970  139.1260 C   0  0  2  0  0  3  0  0  0  0  0  0
  188.5980  176.8430  138.5530 O   0  0  0  0  0  1  0  0  0  0  0  0
  189.3230  178.3600  140.2870 C   0  0  0  0  0  2  0  0  0  0  0  0
  190.4020  177.2920  140.4010 C   0  0  0  0  0  2  0  0  0  0  0  0
  190.1340  175.8910  142.8140 S   0  0  0  0  0  0  0  0  0  0  0  0
  191.7640  177.7840  142.5220 C   0  0  0  0  0  3  0  0  0  0  0  0
  191.1400  176.3060  144.0970 C   0  0  0  0  0  0  0  0  0  0  0  0
  191.1620  175.6210  145.3500 N   0  0  0  0  0  2  0  0  0  0  0  0
  191.9590  177.3390  143.7940 N   0  0  0  0  0  0  0  0  0  0  0  0
  190.7720  177.0960  141.8290 C   0  0  0  0  0  0  0  0  0  0  0  0
  192.0610  176.0290  146.4240 C   0  0  0  0  0  2  0  0  0  0  0  0
  191.2800  176.7540  147.5000 C   0  0  0  0  0  2  0  0  0  0  0  0
  189.7800  176.4900  147.3520 C   0  0  0  0  0  2  0  0  0  0  0  0
  188.9790  177.7710  147.0770 C   0  0  2  0  0  0  0  0  0  0  0  0
  187.5450  177.4040  146.6350 C   0  0  2  0  0  3  0  0  0  0  0  0
  189.6250  178.5310  146.0620 O   0  0  0  0  0  0  0  0  0  0  0  0
  188.8690  178.4180  144.8700 C   0  0  0  0  0  2  0  0  0  0  0  0
  188.9680  178.5230  148.2580 O   0  0  0  0  0  1  0  0  0  0  0  0
  186.7290  177.4950  144.4080 O   0  0  0  0  0  0  0  0  0  0  0  0
  187.6030  177.7600  145.2190 C   0  0  0  0  0  0  0  0  0  0  0  0
  185.6660  178.8700  146.3460 O   0  0  0  0  0  1  0  0  0  0  0  0
  186.4400  178.2180  147.3070 C   0  0  0  0  0  2  0  0  0  0  0  0
  1  5  1  0  0  0  0
  2  4  2  0  0  0  0
  2  3  1  0  0  0  0
  3  1  2  0  0  0  0
  4  6  1  0  0  0  0
  6  5  2  0  0  0  0
  7 10  1  0  0  0  0
  7  4  1  1  0  0  0
  8  9  1  0  0  0  0
  8 20  1  0  0  0  0
 10  8  1  6  0  0  0
 11  9  1  0  0  0  0
 12 11  1  0  0  0  0
 12  7  1  0  0  0  0
 14 13  1  0  0  0  0
 14 19  1  0  0  0  0
 15 16  1  0  0  0  0
 15 17  1  1  0  0  0
 16 13  1  6  0  0  0
 18 15  1  0  0  0  0
 18 16  1  0  0  0  0
 18 10  1  1  0  0  0
 19 15  1  0  0  0  0
 20 21  1  0  0  0  0
 21 22  1  0  0  0  0
 22 24  1  0  0  0  0
 23 24  1  0  0  0  0
 25 26  1  1  0  0  0
 25  3  1  0  0  0  0
 25 27  1  0  0  0  0
 27 28  1  0  0  0  0
 28 34  1  0  0  0  0
 29 31  1  0  0  0  0
 30 33  1  0  0  0  0
 31 32  1  0  0  0  0
 32 35  1  0  0  0  0
 33 31  2  0  0  0  0
 34 30  2  0  0  0  0
 34 29  1  0  0  0  0
 35 36  1  0  0  0  0
 37 36  1  0  0  0  0
 38 37  1  0  0  0  0
 38 42  1  1  0  0  0
 39 38  1  0  0  0  0
 39 46  1  1  0  0  0
 40 38  1  0  0  0  0
 41 44  1  0  0  0  0
 41 40  1  0  0  0  0
 43 44  2  0  0  0  0
 44 39  1  0  0  0  0
 45 46  1  0  0  0  0
M  END
>  <MODEL>
7

>  <REMARK>
 VINA RESULT:      -6.6      1.928      2.691
  Name = 
  15 active torsions:
  status: ('A' for Active; 'I' for Inactive)
    1  A    between atoms: C_1  and  C_39
    2  A    between atoms: N_2  and  C_25
    3  A    between atoms: C_9  and  C_23
    4  A    between atoms: C_11  and  C_34
    5  A    between atoms: C_12  and  C_21
    6  A    between atoms: C_12  and  C_40
    7  A    between atoms: C_16  and  C_29
    8  A    between atoms: O_17  and  C_41
    9  A    between atoms: N_18  and  C_33
   10  A    between atoms: C_23  and  C_32
   11  A    between atoms: C_25  and  C_42
   12  A    between atoms: C_32  and  C_33
   13  A    between atoms: C_35  and  C_40
   14  A    between atoms: C_35  and  C_45
   15  A    between atoms: C_41  and  C_42
                            x       y       z     vdW  Elec       q    Type
                         _______ _______ _______ _____ _____    ______ ____

>  <TORSDO>
F 15

$$$$
=
 OpenBabel10222416163D

 46 51  0  0  1  0  0  0  0  0999 V2000
  185.7320  173.8410  137.1780 N   0  0  0  0  0  0  0  0  0  0  0  0
  186.5650  176.0530  136.8550 C   0  0  0  0  0  3  0  0  0  0  0  0
  185.4900  175.1690  137.0030 C   0  0  0  0  0  0  0  0  0  0  0  0
  187.8760  175.5720  136.9180 C   0  0  0  0  0  0  0  0  0  0  0  0
  186.9970  173.3440  137.2250 C   0  0  0  0  0  3  0  0  0  0  0  0
  188.0900  174.1980  137.0890 C   0  0  0  0  0  3  0  0  0  0  0  0
  189.0150  176.5450  136.7800 C   0  0  2  0  0  3  0  0  0  0  0  0
  190.2160  177.3450  138.8510 N   0  0  0  0  0  0  0  0  0  0  0  0
  188.8790  177.8130  139.2190 C   0  0  0  0  0  2  0  0  0  0  0  0
  190.1330  176.2940  137.8170 C   0  0  2  0  0  3  0  0  0  0  0  0
  188.2790  178.6260  138.0760 C   0  0  0  0  0  2  0  0  0  0  0  0
  188.5880  178.0200  136.7040 C   0  0  0  0  0  2  0  0  0  0  0  0
  193.9300  176.0130  137.2700 C   0  0  0  0  0  2  0  0  0  0  0  0
  194.0920  174.9150  136.2380 C   0  0  0  0  0  2  0  0  0  0  0  0
  191.9620  174.7970  136.9140 C   0  0  1  0  0  0  0  0  0  0  0  0
  192.6080  175.7160  137.9120 C   0  0  2  0  0  3  0  0  0  0  0  0
  191.2570  173.7450  137.5060 O   0  0  0  0  0  1  0  0  0  0  0  0
  191.4520  176.2240  137.0400 C   0  0  2  0  0  3  0  0  0  0  0  0
  192.8150  174.4820  135.8430 O   0  0  0  0  0  0  0  0  0  0  0  0
  190.7910  176.7420  140.0480 C   0  0  0  0  0  2  0  0  0  0  0  0
  190.3500  177.4880  141.3050 C   0  0  0  0  0  2  0  0  0  0  0  0
  191.2410  177.1620  142.5000 C   0  0  0  0  0  2  0  0  0  0  0  0
  190.9550  178.3950  144.3280 C   0  0  0  0  0  1  0  0  0  0  0  0
  191.6800  178.3340  143.1330 O   0  0  0  0  0  0  0  0  0  0  0  0
  184.0650  175.6260  136.8780 C   0  0  2  0  0  3  0  0  0  0  0  0
  183.4030  174.9270  135.8630 O   0  0  0  0  0  1  0  0  0  0  0  0
  183.8600  177.1320  136.7370 C   0  0  0  0  0  2  0  0  0  0  0  0
  182.3940  177.5290  136.8470 C   0  0  0  0  0  2  0  0  0  0  0  0
  181.7160  177.0970  139.5330 S   0  0  0  0  0  0  0  0  0  0  0  0
  182.2510  179.3800  138.6220 C   0  0  0  0  0  3  0  0  0  0  0  0
  181.7180  178.4130  140.5810 C   0  0  0  0  0  0  0  0  0  0  0  0
  181.4710  178.3180  141.9840 N   0  0  0  0  0  2  0  0  0  0  0  0
  182.0200  179.5710  139.9510 N   0  0  0  0  0  0  0  0  0  0  0  0
  182.1140  178.0570  138.2100 C   0  0  0  0  0  0  0  0  0  0  0  0
  181.4870  179.4980  142.8410 C   0  0  0  0  0  2  0  0  0  0  0  0
  182.3560  179.2410  144.0550 C   0  0  0  0  0  2  0  0  0  0  0  0
  183.4640  178.2380  143.7250 C   0  0  0  0  0  2  0  0  0  0  0  0
  184.8670  178.8530  143.8310 C   0  0  2  0  0  0  0  0  0  0  0  0
  185.9170  177.7310  143.9920 C   0  0  2  0  0  3  0  0  0  0  0  0
  184.9200  179.7370  144.9450 O   0  0  0  0  0  0  0  0  0  0  0  0
  185.6740  179.1180  145.9700 C   0  0  0  0  0  2  0  0  0  0  0  0
  185.0930  179.5940  142.6640 O   0  0  0  0  0  1  0  0  0  0  0  0
  187.0030  177.1480  146.0200 O   0  0  0  0  0  0  0  0  0  0  0  0
  186.2970  177.9210  145.3900 C   0  0  0  0  0  0  0  0  0  0  0  0
  187.7460  176.6390  142.8850 O   0  0  0  0  0  1  0  0  0  0  0  0
  187.1580  177.8840  143.1150 C   0  0  0  0  0  2  0  0  0  0  0  0
  1  5  1  0  0  0  0
  2  4  2  0  0  0  0
  2  3  1  0  0  0  0
  3  1  2  0  0  0  0
  4  6  1  0  0  0  0
  6  5  2  0  0  0  0
  7  4  1  1  0  0  0
  7 10  1  0  0  0  0
  8  9  1  0  0  0  0
  8 20  1  0  0  0  0
 10  8  1  1  0  0  0
 11  9  1  0  0  0  0
 12  7  1  0  0  0  0
 12 11  1  0  0  0  0
 14 13  1  0  0  0  0
 15 18  1  0  0  0  0
 15 17  1  1  0  0  0
 15 16  1  0  0  0  0
 16 13  1  6  0  0  0
 18 10  1  1  0  0  0
 18 16  1  0  0  0  0
 19 14  1  0  0  0  0
 19 15  1  0  0  0  0
 20 21  1  0  0  0  0
 21 22  1  0  0  0  0
 22 24  1  0  0  0  0
 24 23  1  0  0  0  0
 25 26  1  6  0  0  0
 25  3  1  0  0  0  0
 27 28  1  0  0  0  0
 27 25  1  0  0  0  0
 28 34  1  0  0  0  0
 29 31  1  0  0  0  0
 30 33  1  0  0  0  0
 31 32  1  0  0  0  0
 32 35  1  0  0  0  0
 33 31  2  0  0  0  0
 34 30  2  0  0  0  0
 34 29  1  0  0  0  0
 35 36  1  0  0  0  0
 37 38  1  0  0  0  0
 37 36  1  0  0  0  0
 38 42  1  6  0  0  0
 38 39  1  0  0  0  0
 38 40  1  0  0  0  0
 39 46  1  6  0  0  0
 39 44  1  0  0  0  0
 40 41  1  0  0  0  0
 44 41  1  0  0  0  0
 44 43  2  0  0  0  0
 45 46  1  0  0  0  0
M  END
>  <MODEL>
8

>  <REMARK>
 VINA RESULT:      -6.6      3.228      8.692
  Name = 
  15 active torsions:
  status: ('A' for Active; 'I' for Inactive)
    1  A    between atoms: C_1  and  C_39
    2  A    between atoms: N_2  and  C_25
    3  A    between atoms: C_9  and  C_23
    4  A    between atoms: C_11  and  C_34
    5  A    between atoms: C_12  and  C_21
    6  A    between atoms: C_12  and  C_40
    7  A    between atoms: C_16  and  C_29
    8  A    between atoms: O_17  and  C_41
    9  A    between atoms: N_18  and  C_33
   10  A    between atoms: C_23  and  C_32
   11  A    between atoms: C_25  and  C_42
   12  A    between atoms: C_32  and  C_33
   13  A    between atoms: C_35  and  C_40
   14  A    between atoms: C_35  and  C_45
   15  A    between atoms: C_41  and  C_42
                            x       y       z     vdW  Elec       q    Type
                         _______ _______ _______ _____ _____    ______ ____

>  <TORSDO>
F 15

$$$$
=
 OpenBabel10222416163D

 46 51  0  0  1  0  0  0  0  0999 V2000
  189.2900  173.9910  135.7650 N   0  0  0  0  0  0  0  0  0  0  0  0
  188.2500  175.5210  137.2710 C   0  0  0  0  0  3  0  0  0  0  0  0
  188.2640  174.2870  136.6090 C   0  0  0  0  0  0  0  0  0  0  0  0
  189.3030  176.4220  137.0860 C   0  0  0  0  0  0  0  0  0  0  0  0
  190.3170  174.8570  135.5530 C   0  0  0  0  0  3  0  0  0  0  0  0
  190.3380  176.0890  136.2050 C   0  0  0  0  0  3  0  0  0  0  0  0
  189.2770  177.7300  137.8290 C   0  0  2  0  0  3  0  0  0  0  0  0
  187.1290  178.4990  138.9070 N   0  0  0  0  0  0  0  0  0  0  0  0
  186.6280  178.4150  137.5350 C   0  0  0  0  0  2  0  0  0  0  0  0
  188.3520  177.6870  139.0660 C   0  0  2  0  0  3  0  0  0  0  0  0
  187.5620  179.1720  136.5930 C   0  0  0  0  0  2  0  0  0  0  0  0
  189.0370  178.9630  136.9430 C   0  0  0  0  0  2  0  0  0  0  0  0
  189.4880  178.0360  142.7240 C   0  0  0  0  0  2  0  0  0  0  0  0
  190.9940  177.8690  142.6790 C   0  0  0  0  0  2  0  0  0  0  0  0
  190.2560  177.2260  140.6660 C   0  0  1  0  0  0  0  0  0  0  0  0
  189.0070  177.3220  141.4960 C   0  0  2  0  0  3  0  0  0  0  0  0
  190.3870  176.0030  140.0030 O   0  0  0  0  0  1  0  0  0  0  0  0
  189.1700  178.2060  140.2530 C   0  0  2  0  0  3  0  0  0  0  0  0
  191.3870  177.7210  141.3380 O   0  0  0  0  0  0  0  0  0  0  0  0
  186.0990  177.9200  139.7620 C   0  0  0  0  0  2  0  0  0  0  0  0
  185.3600  179.0030  140.5440 C   0  0  0  0  0  2  0  0  0  0  0  0
  184.4910  178.4110  141.6500 C   0  0  0  0  0  2  0  0  0  0  0  0
  185.6790  178.2530  143.5220 C   0  0  0  0  0  1  0  0  0  0  0  0
  184.7300  179.0510  142.8740 O   0  0  0  0  0  0  0  0  0  0  0  0
  187.1270  173.3140  136.7210 C   0  0  2  0  0  3  0  0  0  0  0  0
  187.5640  172.0910  137.2400 O   0  0  0  0  0  1  0  0  0  0  0  0
  186.2970  173.1120  135.4560 C   0  0  0  0  0  2  0  0  0  0  0  0
  185.4120  171.8760  135.5340 C   0  0  0  0  0  2  0  0  0  0  0  0
  183.3380  173.7160  135.9460 S   0  0  0  0  0  0  0  0  0  0  0  0
  183.2650  171.3690  136.8490 C   0  0  0  0  0  3  0  0  0  0  0  0
  181.9720  173.2080  136.7870 C   0  0  0  0  0  0  0  0  0  0  0  0
  180.8140  174.0170  136.9950 N   0  0  0  0  0  2  0  0  0  0  0  0
  182.0770  171.9280  137.2120 N   0  0  0  0  0  0  0  0  0  0  0  0
  184.1010  172.2290  136.1420 C   0  0  0  0  0  0  0  0  0  0  0  0
  179.6600  173.5180  137.7340 C   0  0  0  0  0  2  0  0  0  0  0  0
  179.5260  174.2640  139.0450 C   0  0  0  0  0  2  0  0  0  0  0  0
  179.5860  175.7750  138.8160 C   0  0  0  0  0  2  0  0  0  0  0  0
  180.6300  176.4670  139.7050 C   0  0  2  0  0  0  0  0  0  0  0  0
  181.0360  177.8190  139.0770 C   0  0  2  0  0  3  0  0  0  0  0  0
  181.7720  175.6290  139.8430 O   0  0  0  0  0  0  0  0  0  0  0  0
  182.8230  176.1750  139.0690 C   0  0  0  0  0  2  0  0  0  0  0  0
  180.0560  176.6480  140.9690 O   0  0  0  0  0  1  0  0  0  0  0  0
  183.0640  178.2420  137.9190 O   0  0  0  0  0  0  0  0  0  0  0  0
  182.3900  177.5070  138.6260 C   0  0  0  0  0  0  0  0  0  0  0  0
  180.4260  180.0950  139.5340 O   0  0  0  0  0  1  0  0  0  0  0  0
  181.0960  178.9890  140.0580 C   0  0  0  0  0  2  0  0  0  0  0  0
  1  3  1  0  0  0  0
  3 25  1  0  0  0  0
  3  2  2  0  0  0  0
  4  2  1  0  0  0  0
  5  1  2  0  0  0  0
  5  6  1  0  0  0  0
  6  4  2  0  0  0  0
  7  4  1  6  0  0  0
  7 10  1  0  0  0  0
  8 20  1  0  0  0  0
  9  8  1  0  0  0  0
 10  8  1  6  0  0  0
 11 12  1  0  0  0  0
 11  9  1  0  0  0  0
 12  7  1  0  0  0  0
 14 13  1  0  0  0  0
 15 17  1  6  0  0  0
 15 19  1  0  0  0  0
 15 16  1  0  0  0  0
 16 13  1  1  0  0  0
 18 10  1  6  0  0  0
 18 15  1  0  0  0  0
 18 16  1  0  0  0  0
 19 14  1  0  0  0  0
 20 21  1  0  0  0  0
 21 22  1  0  0  0  0
 22 24  1  0  0  0  0
 24 23  1  0  0  0  0
 25 26  1  6  0  0  0
 27 28  1  0  0  0  0
 27 25  1  0  0  0  0
 28 34  1  0  0  0  0
 29 34  1  0  0  0  0
 29 31  1  0  0  0  0
 30 33  1  0  0  0  0
 31 32  1  0  0  0  0
 31 33  2  0  0  0  0
 32 35  1  0  0  0  0
 34 30  2  0  0  0  0
 35 36  1  0  0  0  0
 37 36  1  0  0  0  0
 37 38  1  0  0  0  0
 38 40  1  0  0  0  0
 38 42  1  1  0  0  0
 39 38  1  0  0  0  0
 39 46  1  1  0  0  0
 41 40  1  0  0  0  0
 43 44  2  0  0  0  0
 44 41  1  0  0  0  0
 44 39  1  0  0  0  0
 45 46  1  0  0  0  0
M  END
>  <MODEL>
9

>  <REMARK>
 VINA RESULT:      -6.5      3.753      8.978
  Name = 
  15 active torsions:
  status: ('A' for Active; 'I' for Inactive)
    1  A    between atoms: C_1  and  C_39
    2  A    between atoms: N_2  and  C_25
    3  A    between atoms: C_9  and  C_23
    4  A    between atoms: C_11  and  C_34
    5  A    between atoms: C_12  and  C_21
    6  A    between atoms: C_12  and  C_40
    7  A    between atoms: C_16  and  C_29
    8  A    between atoms: O_17  and  C_41
    9  A    between atoms: N_18  and  C_33
   10  A    between atoms: C_23  and  C_32
   11  A    between atoms: C_25  and  C_42
   12  A    between atoms: C_32  and  C_33
   13  A    between atoms: C_35  and  C_40
   14  A    between atoms: C_35  and  C_45
   15  A    between atoms: C_41  and  C_42
                            x       y       z     vdW  Elec       q    Type
                         _______ _______ _______ _____ _____    ______ ____

>  <TORSDO>
F 15

$$$$
