=
 OpenBabel10222416373D

 32 37  0  0  1  0  0  0  0  0999 V2000
  188.0640  177.9060  137.0650 C   0  0  1  0  0  3  0  0  0  0  0  0
  187.6890  178.0040  142.1250 C   0  0  0  0  0  0  0  0  0  0  0  0
  183.0340  179.0190  142.8880 C   0  0  0  0  0  3  0  0  0  0  0  0
  183.1950  178.9080  144.2670 C   0  0  0  0  0  3  0  0  0  0  0  0
  189.2150  177.5510  144.0520 C   0  0  0  0  0  0  0  0  0  0  0  0
  189.3460  177.4460  145.4390 C   0  0  0  0  0  0  0  0  0  0  0  0
  188.4920  177.9460  139.9290 C   0  0  0  0  0  0  0  0  0  0  0  0
  186.2000  178.4430  140.3070 N   0  0  0  0  0  0  0  0  0  0  0  0
  188.7620  177.4630  147.5540 C   0  0  0  0  0  0  0  0  0  0  0  0
  186.9630  178.4720  137.9620 C   0  0  0  0  0  2  0  0  0  0  0  0
  184.0950  178.8240  142.0600 N   0  0  0  0  0  0  0  0  0  0  0  0
  186.3970  178.3220  141.6470 C   0  0  0  0  0  0  0  0  0  0  0  0
  185.3350  178.5150  142.5350 C   0  0  0  0  0  0  0  0  0  0  0  0
  186.8250  178.0740  144.4240 C   0  0  0  0  0  0  0  0  0  0  0  0
  190.1120  177.1620  147.4340 C   0  0  0  0  0  3  0  0  0  0  0  0
  189.4440  178.2680  137.6200 C   0  0  0  0  0  2  0  0  0  0  0  0
  187.2150  178.2510  139.4280 C   0  0  0  0  0  0  0  0  0  0  0  0
  190.4690  177.1520  146.1260 N   0  0  0  0  0  0  0  0  0  0  0  0
  189.6550  177.6830  139.0160 C   0  0  0  0  0  2  0  0  0  0  0  0
  184.4510  178.5940  144.7830 C   0  0  0  0  0  3  0  0  0  0  0  0
  185.5450  178.3930  143.9250 C   0  0  0  0  0  0  0  0  0  0  0  0
  187.0230  177.9530  145.8160 C   0  0  0  0  0  3  0  0  0  0  0  0
  188.6700  177.8310  141.2410 O   0  0  0  0  0  0  0  0  0  0  0  0
  190.4280  177.3200  143.2080 C   0  0  0  0  0  1  0  0  0  0  0  0
  187.9910  177.5690  148.8210 C   0  0  0  0  0  1  0  0  0  0  0  0
  187.9250  177.8740  143.5180 C   0  0  0  0  0  0  0  0  0  0  0  0
  188.2910  177.6400  146.2780 C   0  0  0  0  0  0  0  0  0  0  0  0
  187.8940  176.4030  136.8820 C   0  0  0  0  0  2  0  0  0  0  0  0
  189.8270  174.9350  136.2390 C   0  0  0  0  0  0  0  0  0  0  0  0
  188.8440  175.9100  135.9000 N   0  0  0  0  0  2  0  0  0  0  0  0
  190.6330  174.5300  135.3610 O   0  0  0  0  0  0  0  0  0  0  0  0
  189.9040  174.4270  137.5310 O   0  0  0  0  0  1  0  0  0  0  0  0
  1 28  1  1  0  0  0
  1 16  1  0  0  0  0
  1 10  1  0  0  0  0
  2 26  2  0  0  0  0
  3  4  1  0  0  0  0
  4 20  2  0  0  0  0
  5  6  2  0  0  0  0
  6 18  1  0  0  0  0
  6 27  1  0  0  0  0
  7 23  1  0  0  0  0
  8 12  2  0  0  0  0
  9 25  1  0  0  0  0
 10 17  1  0  0  0  0
 11 13  1  0  0  0  0
 11  3  2  0  0  0  0
 12  2  1  0  0  0  0
 12 13  1  0  0  0  0
 13 21  2  0  0  0  0
 14 22  2  0  0  0  0
 15  9  1  0  0  0  0
 16 19  1  0  0  0  0
 17  7  2  0  0  0  0
 17  8  1  0  0  0  0
 18 15  2  0  0  0  0
 19  7  1  0  0  0  0
 21 14  1  0  0  0  0
 21 20  1  0  0  0  0
 22 27  1  0  0  0  0
 23  2  1  0  0  0  0
 24  5  1  0  0  0  0
 26  5  1  0  0  0  0
 26 14  1  0  0  0  0
 27  9  2  0  0  0  0
 29 32  1  0  0  0  0
 30 29  1  0  0  0  0
 30 28  1  0  0  0  0
 31 29  2  0  0  0  0
M  END
>  <MODEL>
1

>  <REMARK>
 VINA RESULT:     -11.2      0.000      0.000
  Name = 
  2 active torsions:
  status: ('A' for Active; 'I' for Inactive)
    1  A    between atoms: C_2  and  C_24
    2  A    between atoms: N_10  and  C_24
                            x       y       z     vdW  Elec       q    Type
                         _______ _______ _______ _____ _____    ______ ____

>  <TORSDO>
F 2

$$$$
=
 OpenBabel10222416373D

 32 37  0  0  1  0  0  0  0  0999 V2000
  188.0120  177.9250  137.0190 C   0  0  1  0  0  3  0  0  0  0  0  0
  187.6740  177.9960  142.0830 C   0  0  0  0  0  0  0  0  0  0  0  0
  183.0380  179.0620  142.8850 C   0  0  0  0  0  3  0  0  0  0  0  0
  183.2070  178.9390  144.2630 C   0  0  0  0  0  3  0  0  0  0  0  0
  189.2080  177.5120  143.9960 C   0  0  0  0  0  0  0  0  0  0  0  0
  189.3480  177.3960  145.3810 C   0  0  0  0  0  0  0  0  0  0  0  0
  188.4610  177.9420  139.8810 C   0  0  0  0  0  0  0  0  0  0  0  0
  186.1790  178.4640  140.2790 N   0  0  0  0  0  0  0  0  0  0  0  0
  188.7790  177.4060  147.5000 C   0  0  0  0  0  0  0  0  0  0  0  0
  186.9250  178.4990  137.9280 C   0  0  0  0  0  2  0  0  0  0  0  0
  184.0900  178.8590  142.0490 N   0  0  0  0  0  0  0  0  0  0  0  0
  186.3830  178.3320  141.6160 C   0  0  0  0  0  0  0  0  0  0  0  0
  185.3300  178.5320  142.5120 C   0  0  0  0  0  0  0  0  0  0  0  0
  186.8270  178.0610  144.3880 C   0  0  0  0  0  0  0  0  0  0  0  0
  190.1240  177.0900  147.3690 C   0  0  0  0  0  3  0  0  0  0  0  0
  189.4010  178.2680  137.5670 C   0  0  0  0  0  2  0  0  0  0  0  0
  187.1840  178.2660  139.3910 C   0  0  0  0  0  0  0  0  0  0  0  0
  190.4720  177.0850  146.0580 N   0  0  0  0  0  0  0  0  0  0  0  0
  189.6150  177.6710  138.9580 C   0  0  0  0  0  2  0  0  0  0  0  0
  184.4630  178.6070  144.7670 C   0  0  0  0  0  3  0  0  0  0  0  0
  185.5480  178.3980  143.9010 C   0  0  0  0  0  0  0  0  0  0  0  0
  187.0340  177.9280  145.7780 C   0  0  0  0  0  3  0  0  0  0  0  0
  188.6470  177.8160  141.1910 O   0  0  0  0  0  0  0  0  0  0  0  0
  190.4130  177.2720  143.1420 C   0  0  0  0  0  1  0  0  0  0  0  0
  188.0180  177.5130  148.7740 C   0  0  0  0  0  1  0  0  0  0  0  0
  187.9180  177.8540  143.4740 C   0  0  0  0  0  0  0  0  0  0  0  0
  188.3010  177.5970  146.2290 C   0  0  0  0  0  0  0  0  0  0  0  0
  187.8230  176.4260  136.8290 C   0  0  0  0  0  2  0  0  0  0  0  0
  185.8770  174.8380  136.8130 C   0  0  0  0  0  0  0  0  0  0  0  0
  186.4250  176.1300  136.5640 N   0  0  0  0  0  2  0  0  0  0  0  0
  184.6610  174.6190  136.5740 O   0  0  0  0  0  0  0  0  0  0  0  0
  186.6740  173.8170  137.3180 O   0  0  0  0  0  1  0  0  0  0  0  0
  1 28  1  1  0  0  0
  1 16  1  0  0  0  0
  1 10  1  0  0  0  0
  2 26  2  0  0  0  0
  3  4  1  0  0  0  0
  4 20  2  0  0  0  0
  5  6  2  0  0  0  0
  6 18  1  0  0  0  0
  6 27  1  0  0  0  0
  7 23  1  0  0  0  0
  8 12  2  0  0  0  0
  9 25  1  0  0  0  0
 10 17  1  0  0  0  0
 11 13  1  0  0  0  0
 11  3  2  0  0  0  0
 12  2  1  0  0  0  0
 12 13  1  0  0  0  0
 13 21  2  0  0  0  0
 14 22  2  0  0  0  0
 15  9  1  0  0  0  0
 16 19  1  0  0  0  0
 17  7  2  0  0  0  0
 17  8  1  0  0  0  0
 18 15  2  0  0  0  0
 19  7  1  0  0  0  0
 21 14  1  0  0  0  0
 21 20  1  0  0  0  0
 22 27  1  0  0  0  0
 23  2  1  0  0  0  0
 24  5  1  0  0  0  0
 26  5  1  0  0  0  0
 26 14  1  0  0  0  0
 27  9  2  0  0  0  0
 29 32  1  0  0  0  0
 30 29  1  0  0  0  0
 30 28  1  0  0  0  0
 31 29  2  0  0  0  0
M  END
>  <MODEL>
2

>  <REMARK>
 VINA RESULT:     -11.1      1.278      1.483
  Name = 
  2 active torsions:
  status: ('A' for Active; 'I' for Inactive)
    1  A    between atoms: C_2  and  C_24
    2  A    between atoms: N_10  and  C_24
                            x       y       z     vdW  Elec       q    Type
                         _______ _______ _______ _____ _____    ______ ____

>  <TORSDO>
F 2

$$$$
=
 OpenBabel10222416373D

 32 37  0  0  1  0  0  0  0  0999 V2000
  189.5020  176.9070  137.1290 C   0  0  1  0  0  3  0  0  0  0  0  0
  188.6680  177.5180  142.0980 C   0  0  0  0  0  0  0  0  0  0  0  0
  184.0770  178.9860  142.2960 C   0  0  0  0  0  3  0  0  0  0  0  0
  184.0970  178.9940  143.6890 C   0  0  0  0  0  3  0  0  0  0  0  0
  189.9600  177.1250  144.2020 C   0  0  0  0  0  0  0  0  0  0  0  0
  189.9520  177.1420  145.5990 C   0  0  0  0  0  0  0  0  0  0  0  0
  189.6640  177.1840  140.0080 C   0  0  0  0  0  0  0  0  0  0  0  0
  187.4030  177.9040  140.1080 N   0  0  0  0  0  0  0  0  0  0  0  0
  189.1770  177.4090  147.6340 C   0  0  0  0  0  0  0  0  0  0  0  0
  188.3800  177.6460  137.8590 C   0  0  0  0  0  2  0  0  0  0  0  0
  185.1870  178.6250  141.5990 N   0  0  0  0  0  0  0  0  0  0  0  0
  187.4610  177.8960  141.4660 C   0  0  0  0  0  0  0  0  0  0  0  0
  186.3440  178.2610  142.2220 C   0  0  0  0  0  0  0  0  0  0  0  0
  187.6040  177.8790  144.2830 C   0  0  0  0  0  0  0  0  0  0  0  0
  190.4980  176.9870  147.6780 C   0  0  0  0  0  3  0  0  0  0  0  0
  190.8530  177.2050  137.7880 C   0  0  0  0  0  2  0  0  0  0  0  0
  188.4720  177.5460  139.3560 C   0  0  0  0  0  0  0  0  0  0  0  0
  190.9740  176.8230  146.4190 N   0  0  0  0  0  0  0  0  0  0  0  0
  190.8780  176.7400  139.2440 C   0  0  0  0  0  2  0  0  0  0  0  0
  185.2660  178.6270  144.3540 C   0  0  0  0  0  3  0  0  0  0  0  0
  186.4110  178.2540  143.6320 C   0  0  0  0  0  0  0  0  0  0  0  0
  187.6600  177.8750  145.6940 C   0  0  0  0  0  3  0  0  0  0  0  0
  189.7070  177.1800  141.3360 O   0  0  0  0  0  0  0  0  0  0  0  0
  191.2200  176.7150  143.5080 C   0  0  0  0  0  1  0  0  0  0  0  0
  188.3040  177.7000  148.8030 C   0  0  0  0  0  1  0  0  0  0  0  0
  188.7610  177.5030  143.5140 C   0  0  0  0  0  0  0  0  0  0  0  0
  188.8450  177.5020  146.3070 C   0  0  0  0  0  0  0  0  0  0  0  0
  189.2120  175.4130  137.0620 C   0  0  0  0  0  2  0  0  0  0  0  0
  191.1260  173.9870  136.2790 C   0  0  0  0  0  0  0  0  0  0  0  0
  189.9910  174.8020  135.9980 N   0  0  0  0  0  2  0  0  0  0  0  0
  191.7750  173.4730  135.3320 O   0  0  0  0  0  0  0  0  0  0  0  0
  191.5220  173.7540  137.5910 O   0  0  0  0  0  1  0  0  0  0  0  0
  1 28  1  1  0  0  0
  1 16  1  0  0  0  0
  1 10  1  0  0  0  0
  2 26  2  0  0  0  0
  3  4  1  0  0  0  0
  4 20  2  0  0  0  0
  5  6  2  0  0  0  0
  6 27  1  0  0  0  0
  6 18  1  0  0  0  0
  7 23  1  0  0  0  0
  8 12  2  0  0  0  0
  9 15  1  0  0  0  0
  9 25  1  0  0  0  0
 10 17  1  0  0  0  0
 11 13  1  0  0  0  0
 11  3  2  0  0  0  0
 12  2  1  0  0  0  0
 12 13  1  0  0  0  0
 13 21  2  0  0  0  0
 14 22  2  0  0  0  0
 16 19  1  0  0  0  0
 17  7  2  0  0  0  0
 17  8  1  0  0  0  0
 18 15  2  0  0  0  0
 19  7  1  0  0  0  0
 21 14  1  0  0  0  0
 21 20  1  0  0  0  0
 22 27  1  0  0  0  0
 23  2  1  0  0  0  0
 24  5  1  0  0  0  0
 26  5  1  0  0  0  0
 26 14  1  0  0  0  0
 27  9  2  0  0  0  0
 29 32  1  0  0  0  0
 30 29  1  0  0  0  0
 30 28  1  0  0  0  0
 31 29  2  0  0  0  0
M  END
>  <MODEL>
3

>  <REMARK>
 VINA RESULT:     -10.6      1.087      1.213
  Name = 
  2 active torsions:
  status: ('A' for Active; 'I' for Inactive)
    1  A    between atoms: C_2  and  C_24
    2  A    between atoms: N_10  and  C_24
                            x       y       z     vdW  Elec       q    Type
                         _______ _______ _______ _____ _____    ______ ____

>  <TORSDO>
F 2

$$$$
=
 OpenBabel10222416373D

 32 37  0  0  1  0  0  0  0  0999 V2000
  181.5090  180.0440  138.3280 C   0  0  1  0  0  3  0  0  0  0  0  0
  185.1510  178.6310  141.5680 C   0  0  0  0  0  0  0  0  0  0  0  0
  189.0180  178.0730  138.7380 C   0  0  0  0  0  3  0  0  0  0  0  0
  189.8280  177.7840  139.8340 C   0  0  0  0  0  3  0  0  0  0  0  0
  185.3450  178.3400  144.0430 C   0  0  0  0  0  0  0  0  0  0  0  0
  186.1810  178.0480  145.1230 C   0  0  0  0  0  0  0  0  0  0  0  0
  183.0970  179.1740  140.5880 C   0  0  0  0  0  0  0  0  0  0  0  0
  185.0040  178.9010  139.1980 N   0  0  0  0  0  0  0  0  0  0  0  0
  188.0220  177.5370  146.2020 C   0  0  0  0  0  0  0  0  0  0  0  0
  182.8730  179.4070  138.0630 C   0  0  0  0  0  2  0  0  0  0  0  0
  187.6980  178.3420  138.9180 N   0  0  0  0  0  0  0  0  0  0  0  0
  185.7610  178.6280  140.2930 C   0  0  0  0  0  0  0  0  0  0  0  0
  187.1220  178.3440  140.1540 C   0  0  0  0  0  0  0  0  0  0  0  0
  187.3170  178.0570  142.5750 C   0  0  0  0  0  0  0  0  0  0  0  0
  186.9690  177.6780  147.0960 C   0  0  0  0  0  3  0  0  0  0  0  0
  180.8250  179.3650  139.5190 C   0  0  0  0  0  2  0  0  0  0  0  0
  183.6830  179.1870  139.3110 C   0  0  0  0  0  0  0  0  0  0  0  0
  185.8330  177.9930  146.4250 N   0  0  0  0  0  0  0  0  0  0  0  0
  181.6500  179.5170  140.7970 C   0  0  0  0  0  2  0  0  0  0  0  0
  189.2690  177.7780  141.1110 C   0  0  0  0  0  3  0  0  0  0  0  0
  187.9050  178.0570  141.2940 C   0  0  0  0  0  0  0  0  0  0  0  0
  188.1080  177.7700  143.7080 C   0  0  0  0  0  3  0  0  0  0  0  0
  183.8500  178.9060  141.6500 O   0  0  0  0  0  0  0  0  0  0  0  0
  183.9030  178.6280  144.3220 C   0  0  0  0  0  1  0  0  0  0  0  0
  189.4290  177.1950  146.5440 C   0  0  0  0  0  1  0  0  0  0  0  0
  185.9160  178.3470  142.7290 C   0  0  0  0  0  0  0  0  0  0  0  0
  187.5040  177.7760  144.9550 C   0  0  0  0  0  0  0  0  0  0  0  0
  181.6430  181.5490  138.5230 C   0  0  0  0  0  2  0  0  0  0  0  0
  181.1800  183.5610  137.0930 C   0  0  0  0  0  0  0  0  0  0  0  0
  180.8360  182.2520  137.5390 N   0  0  0  0  0  2  0  0  0  0  0  0
  180.4590  184.1390  136.2390 O   0  0  0  0  0  0  0  0  0  0  0  0
  182.3060  184.2060  137.5930 O   0  0  0  0  0  1  0  0  0  0  0  0
  1 28  1  1  0  0  0
  1 16  1  0  0  0  0
  2 23  1  0  0  0  0
  2 26  2  0  0  0  0
  3 11  2  0  0  0  0
  3  4  1  0  0  0  0
  4 20  2  0  0  0  0
  5 24  1  0  0  0  0
  5  6  2  0  0  0  0
  6 18  1  0  0  0  0
  7 19  1  0  0  0  0
  7 23  1  0  0  0  0
  8 17  1  0  0  0  0
  8 12  2  0  0  0  0
  9 25  1  0  0  0  0
  9 15  1  0  0  0  0
 10  1  1  0  0  0  0
 10 17  1  0  0  0  0
 11 13  1  0  0  0  0
 12  2  1  0  0  0  0
 13 12  1  0  0  0  0
 13 21  2  0  0  0  0
 14 26  1  0  0  0  0
 14 22  2  0  0  0  0
 16 19  1  0  0  0  0
 17  7  2  0  0  0  0
 18 15  2  0  0  0  0
 20 21  1  0  0  0  0
 21 14  1  0  0  0  0
 22 27  1  0  0  0  0
 26  5  1  0  0  0  0
 27  6  1  0  0  0  0
 27  9  2  0  0  0  0
 29 30  1  0  0  0  0
 29 32  1  0  0  0  0
 30 28  1  0  0  0  0
 31 29  2  0  0  0  0
M  END
>  <MODEL>
4

>  <REMARK>
 VINA RESULT:     -10.3      3.975      6.384
  Name = 
  2 active torsions:
  status: ('A' for Active; 'I' for Inactive)
    1  A    between atoms: C_2  and  C_24
    2  A    between atoms: N_10  and  C_24
                            x       y       z     vdW  Elec       q    Type
                         _______ _______ _______ _____ _____    ______ ____

>  <TORSDO>
F 2

$$$$
=
 OpenBabel10222416373D

 32 37  0  0  1  0  0  0  0  0999 V2000
  180.5750  180.3470  137.7420 C   0  0  1  0  0  3  0  0  0  0  0  0
  183.9340  179.0050  141.3020 C   0  0  0  0  0  0  0  0  0  0  0  0
  187.9880  178.2540  138.7970 C   0  0  0  0  0  3  0  0  0  0  0  0
  188.7080  177.9970  139.9620 C   0  0  0  0  0  3  0  0  0  0  0  0
  183.9370  178.8160  143.7950 C   0  0  0  0  0  0  0  0  0  0  0  0
  184.6830  178.5540  144.9460 C   0  0  0  0  0  0  0  0  0  0  0  0
  181.9710  179.5450  140.1490 C   0  0  0  0  0  0  0  0  0  0  0  0
  183.9690  179.1770  138.9190 N   0  0  0  0  0  0  0  0  0  0  0  0
  186.4270  178.0550  146.1800 C   0  0  0  0  0  0  0  0  0  0  0  0
  181.9410  179.6740  137.6070 C   0  0  0  0  0  2  0  0  0  0  0  0
  186.6640  178.5560  138.8660 N   0  0  0  0  0  0  0  0  0  0  0  0
  184.6380  178.9360  140.0780 C   0  0  0  0  0  0  0  0  0  0  0  0
  185.9990  178.6210  140.0540 C   0  0  0  0  0  0  0  0  0  0  0  0
  186.0060  178.4340  142.4920 C   0  0  0  0  0  0  0  0  0  0  0  0
  185.3130  178.2540  146.9850 C   0  0  0  0  0  3  0  0  0  0  0  0
  179.7900  179.7330  138.9050 C   0  0  0  0  0  2  0  0  0  0  0  0
  182.6510  179.4920  138.9200 C   0  0  0  0  0  0  0  0  0  0  0  0
  184.2380  178.5620  146.2190 N   0  0  0  0  0  0  0  0  0  0  0  0
  180.5210  179.9240  140.2340 C   0  0  0  0  0  2  0  0  0  0  0  0
  188.0550  178.0560  141.1920 C   0  0  0  0  0  3  0  0  0  0  0  0
  186.6870  178.3680  141.2600 C   0  0  0  0  0  0  0  0  0  0  0  0
  186.7040  178.1800  143.6930 C   0  0  0  0  0  3  0  0  0  0  0  0
  182.6370  179.3070  141.2750 O   0  0  0  0  0  0  0  0  0  0  0  0
  182.4850  179.1420  143.9530 C   0  0  0  0  0  1  0  0  0  0  0  0
  187.7970  177.7020  146.6410 C   0  0  0  0  0  1  0  0  0  0  0  0
  184.6040  178.7560  142.5280 C   0  0  0  0  0  0  0  0  0  0  0  0
  186.0090  178.2500  144.8890 C   0  0  0  0  0  0  0  0  0  0  0  0
  180.7270  181.8560  137.8840 C   0  0  0  0  0  2  0  0  0  0  0  0
  181.0460  183.7710  136.2910 C   0  0  0  0  0  0  0  0  0  0  0  0
  180.4740  182.5050  136.6090 N   0  0  0  0  0  2  0  0  0  0  0  0
  180.8050  184.3020  135.1750 O   0  0  0  0  0  0  0  0  0  0  0  0
  181.8670  184.4250  137.2010 O   0  0  0  0  0  1  0  0  0  0  0  0
  1 28  1  1  0  0  0
  1 16  1  0  0  0  0
  2 26  2  0  0  0  0
  3 11  2  0  0  0  0
  3  4  1  0  0  0  0
  4 20  2  0  0  0  0
  5 24  1  0  0  0  0
  5  6  2  0  0  0  0
  6 18  1  0  0  0  0
  7 19  1  0  0  0  0
  7 23  1  0  0  0  0
  8 17  1  0  0  0  0
  8 12  2  0  0  0  0
  9 25  1  0  0  0  0
  9 15  1  0  0  0  0
 10  1  1  0  0  0  0
 10 17  1  0  0  0  0
 11 13  1  0  0  0  0
 12  2  1  0  0  0  0
 13 12  1  0  0  0  0
 13 21  2  0  0  0  0
 14 26  1  0  0  0  0
 14 22  2  0  0  0  0
 16 19  1  0  0  0  0
 17  7  2  0  0  0  0
 18 15  2  0  0  0  0
 20 21  1  0  0  0  0
 21 14  1  0  0  0  0
 22 27  1  0  0  0  0
 23  2  1  0  0  0  0
 26  5  1  0  0  0  0
 27  6  1  0  0  0  0
 27  9  2  0  0  0  0
 29 30  1  0  0  0  0
 29 32  1  0  0  0  0
 30 28  1  0  0  0  0
 31 29  2  0  0  0  0
M  END
>  <MODEL>
5

>  <REMARK>
 VINA RESULT:     -10.2      4.412      6.839
  Name = 
  2 active torsions:
  status: ('A' for Active; 'I' for Inactive)
    1  A    between atoms: C_2  and  C_24
    2  A    between atoms: N_10  and  C_24
                            x       y       z     vdW  Elec       q    Type
                         _______ _______ _______ _____ _____    ______ ____

>  <TORSDO>
F 2

$$$$
=
 OpenBabel10222416373D

 32 37  0  0  1  0  0  0  0  0999 V2000
  191.8420  176.6100  137.6640 C   0  0  1  0  0  3  0  0  0  0  0  0
  188.6850  177.6150  141.5090 C   0  0  0  0  0  0  0  0  0  0  0  0
  184.6170  178.9730  139.2990 C   0  0  0  0  0  3  0  0  0  0  0  0
  183.9510  179.0980  140.5160 C   0  0  0  0  0  3  0  0  0  0  0  0
  188.7680  177.4340  144.0010 C   0  0  0  0  0  0  0  0  0  0  0  0
  188.0750  177.5680  145.2060 C   0  0  0  0  0  0  0  0  0  0  0  0
  190.5730  177.1320  140.2150 C   0  0  0  0  0  0  0  0  0  0  0  0
  188.5680  177.7990  139.1290 N   0  0  0  0  0  0  0  0  0  0  0  0
  186.4060  177.9850  146.5670 C   0  0  0  0  0  0  0  0  0  0  0  0
  190.5200  177.3780  137.6810 C   0  0  0  0  0  2  0  0  0  0  0  0
  185.9200  178.5840  139.2720 N   0  0  0  0  0  0  0  0  0  0  0  0
  187.9520  177.9060  140.3360 C   0  0  0  0  0  0  0  0  0  0  0  0
  186.6150  178.3040  140.4110 C   0  0  0  0  0  0  0  0  0  0  0  0
  186.6920  178.1290  142.8490 C   0  0  0  0  0  0  0  0  0  0  0  0
  187.5270  177.6020  147.2910 C   0  0  0  0  0  3  0  0  0  0  0  0
  192.7000  176.9970  138.8720 C   0  0  0  0  0  2  0  0  0  0  0  0
  189.8630  177.4070  139.0340 C   0  0  0  0  0  0  0  0  0  0  0  0
  188.5570  177.3460  146.4460 N   0  0  0  0  0  0  0  0  0  0  0  0
  191.9980  176.6570  140.1870 C   0  0  0  0  0  2  0  0  0  0  0  0
  184.6350  178.8190  141.6980 C   0  0  0  0  0  3  0  0  0  0  0  0
  185.9800  178.4170  141.6670 C   0  0  0  0  0  0  0  0  0  0  0  0
  186.0470  178.2460  144.1000 C   0  0  0  0  0  3  0  0  0  0  0  0
  189.9580  177.2410  141.3880 O   0  0  0  0  0  0  0  0  0  0  0  0
  190.2000  177.0000  144.0530 C   0  0  0  0  0  1  0  0  0  0  0  0
  185.0760  178.3490  147.1270 C   0  0  0  0  0  1  0  0  0  0  0  0
  188.0690  177.7210  142.7830 C   0  0  0  0  0  0  0  0  0  0  0  0
  186.7710  177.9570  145.2450 C   0  0  0  0  0  0  0  0  0  0  0  0
  191.5950  175.1090  137.5910 C   0  0  0  0  0  2  0  0  0  0  0  0
  193.7090  174.0020  136.8070 C   0  0  0  0  0  0  0  0  0  0  0  0
  192.4080  174.5200  136.5400 N   0  0  0  0  0  2  0  0  0  0  0  0
  194.3840  173.4980  135.8720 O   0  0  0  0  0  0  0  0  0  0  0  0
  194.2390  174.0480  138.0910 O   0  0  0  0  0  1  0  0  0  0  0  0
  1 28  1  1  0  0  0
  1 10  1  0  0  0  0
  1 16  1  0  0  0  0
  2 26  2  0  0  0  0
  3  4  1  0  0  0  0
  4 20  2  0  0  0  0
  5 24  1  0  0  0  0
  5  6  2  0  0  0  0
  6 27  1  0  0  0  0
  6 18  1  0  0  0  0
  7 23  1  0  0  0  0
  8 12  2  0  0  0  0
  9 25  1  0  0  0  0
  9 15  1  0  0  0  0
 10 17  1  0  0  0  0
 11  3  2  0  0  0  0
 11 13  1  0  0  0  0
 12 13  1  0  0  0  0
 12  2  1  0  0  0  0
 13 21  2  0  0  0  0
 14 22  2  0  0  0  0
 16 19  1  0  0  0  0
 17  8  1  0  0  0  0
 17  7  2  0  0  0  0
 18 15  2  0  0  0  0
 19  7  1  0  0  0  0
 21 20  1  0  0  0  0
 21 14  1  0  0  0  0
 22 27  1  0  0  0  0
 23  2  1  0  0  0  0
 26 14  1  0  0  0  0
 26  5  1  0  0  0  0
 27  9  2  0  0  0  0
 29 32  1  0  0  0  0
 30 29  1  0  0  0  0
 30 28  1  0  0  0  0
 31 29  2  0  0  0  0
M  END
>  <MODEL>
6

>  <REMARK>
 VINA RESULT:      -9.6      2.144      2.889
  Name = 
  2 active torsions:
  status: ('A' for Active; 'I' for Inactive)
    1  A    between atoms: C_2  and  C_24
    2  A    between atoms: N_10  and  C_24
                            x       y       z     vdW  Elec       q    Type
                         _______ _______ _______ _____ _____    ______ ____

>  <TORSDO>
F 2

$$$$
=
 OpenBabel10222416373D

 32 37  0  0  1  0  0  0  0  0999 V2000
  191.3090  177.6090  144.4290 C   0  0  1  0  0  3  0  0  0  0  0  0
  186.6860  178.3510  142.4710 C   0  0  0  0  0  0  0  0  0  0  0  0
  187.4370  178.1530  137.7090 C   0  0  0  0  0  3  0  0  0  0  0  0
  186.0760  178.2970  137.4480 C   0  0  0  0  0  3  0  0  0  0  0  0
  184.3710  178.6250  143.3730 C   0  0  0  0  0  0  0  0  0  0  0  0
  183.0120  178.7670  143.0820 C   0  0  0  0  0  0  0  0  0  0  0  0
  188.5180  178.1900  143.9160 C   0  0  0  0  0  0  0  0  0  0  0  0
  188.8850  178.0900  141.5720 N   0  0  0  0  0  0  0  0  0  0  0  0
  181.1890  178.9370  141.8740 C   0  0  0  0  0  0  0  0  0  0  0  0
  190.8870  177.9790  143.0070 C   0  0  0  0  0  2  0  0  0  0  0  0
  187.8870  178.1350  138.9920 N   0  0  0  0  0  0  0  0  0  0  0  0
  187.5490  178.2290  141.3580 C   0  0  0  0  0  0  0  0  0  0  0  0
  187.0430  178.2530  140.0560 C   0  0  0  0  0  0  0  0  0  0  0  0
  184.7760  178.5220  140.9350 C   0  0  0  0  0  0  0  0  0  0  0  0
  180.8740  179.0030  143.2240 C   0  0  0  0  0  3  0  0  0  0  0  0
  190.5020  178.4150  145.4520 C   0  0  0  0  0  2  0  0  0  0  0  0
  189.3960  178.0560  142.8270 C   0  0  0  0  0  0  0  0  0  0  0  0
  182.0040  178.8980  143.9680 N   0  0  0  0  0  0  0  0  0  0  0  0
  189.0060  178.1240  145.3350 C   0  0  0  0  0  2  0  0  0  0  0  0
  185.1880  178.4190  138.5150 C   0  0  0  0  0  3  0  0  0  0  0  0
  185.6560  178.4000  139.8390 C   0  0  0  0  0  0  0  0  0  0  0  0
  183.3910  178.6680  140.7070 C   0  0  0  0  0  3  0  0  0  0  0  0
  187.2150  178.3240  143.6930 O   0  0  0  0  0  0  0  0  0  0  0  0
  184.7880  178.6130  144.8100 C   0  0  0  0  0  1  0  0  0  0  0  0
  180.2300  179.0140  140.7390 C   0  0  0  0  0  1  0  0  0  0  0  0
  185.2880  178.4990  142.2790 C   0  0  0  0  0  0  0  0  0  0  0  0
  182.5500  178.7860  141.8010 C   0  0  0  0  0  0  0  0  0  0  0  0
  191.1900  176.1080  144.6560 C   0  0  0  0  0  2  0  0  0  0  0  0
  192.0560  175.6530  146.9700 C   0  0  0  0  0  0  0  0  0  0  0  0
  192.2370  175.6550  145.5560 N   0  0  0  0  0  2  0  0  0  0  0  0
  192.9850  175.2530  147.7180 O   0  0  0  0  0  1  0  0  0  0  0  0
  190.8610  176.0900  147.5300 O   0  0  0  0  0  0  0  0  0  0  0  0
  1 28  1  1  0  0  0
  1 16  1  0  0  0  0
  2 23  1  0  0  0  0
  3 11  1  0  0  0  0
  4  3  2  0  0  0  0
  4 20  1  0  0  0  0
  5 24  1  0  0  0  0
  6  5  2  0  0  0  0
  6 18  1  0  0  0  0
  7 19  1  0  0  0  0
  8 17  1  0  0  0  0
  9 15  1  0  0  0  0
 10  1  1  0  0  0  0
 11 13  2  0  0  0  0
 12  8  2  0  0  0  0
 12  2  1  0  0  0  0
 13 12  1  0  0  0  0
 14 26  1  0  0  0  0
 15 18  2  0  0  0  0
 17 10  1  0  0  0  0
 17  7  2  0  0  0  0
 19 16  1  0  0  0  0
 20 21  2  0  0  0  0
 21 13  1  0  0  0  0
 21 14  1  0  0  0  0
 22 14  2  0  0  0  0
 22 27  1  0  0  0  0
 23  7  1  0  0  0  0
 25  9  1  0  0  0  0
 26  2  2  0  0  0  0
 26  5  1  0  0  0  0
 27  9  2  0  0  0  0
 27  6  1  0  0  0  0
 28 30  1  0  0  0  0
 29 32  2  0  0  0  0
 29 31  1  0  0  0  0
 30 29  1  0  0  0  0
M  END
>  <MODEL>
7

>  <REMARK>
 VINA RESULT:      -9.1      2.936      7.172
  Name = 
  2 active torsions:
  status: ('A' for Active; 'I' for Inactive)
    1  A    between atoms: C_2  and  C_24
    2  A    between atoms: N_10  and  C_24
                            x       y       z     vdW  Elec       q    Type
                         _______ _______ _______ _____ _____    ______ ____

>  <TORSDO>
F 2

$$$$
=
 OpenBabel10222416373D

 32 37  0  0  1  0  0  0  0  0999 V2000
  182.4140  178.9410  138.7080 C   0  0  1  0  0  3  0  0  0  0  0  0
  186.2130  178.2330  141.9980 C   0  0  0  0  0  0  0  0  0  0  0  0
  184.0630  178.6270  146.2990 C   0  0  0  0  0  3  0  0  0  0  0  0
  185.2490  178.3260  146.9640 C   0  0  0  0  0  3  0  0  0  0  0  0
  188.6410  177.6560  141.8490 C   0  0  0  0  0  0  0  0  0  0  0  0
  189.8160  177.3570  142.5420 C   0  0  0  0  0  0  0  0  0  0  0  0
  184.9510  178.5920  140.0620 C   0  0  0  0  0  0  0  0  0  0  0  0
  183.8940  178.7830  142.1800 N   0  0  0  0  0  0  0  0  0  0  0  0
  191.1430  176.9930  144.2500 C   0  0  0  0  0  0  0  0  0  0  0  0
  182.4940  179.2460  140.2040 C   0  0  0  0  0  2  0  0  0  0  0  0
  184.0350  178.6710  144.9410 N   0  0  0  0  0  0  0  0  0  0  0  0
  185.0700  178.4830  142.7930 C   0  0  0  0  0  0  0  0  0  0  0  0
  185.1450  178.4270  144.1870 C   0  0  0  0  0  0  0  0  0  0  0  0
  187.5210  177.8630  144.0450 C   0  0  0  0  0  0  0  0  0  0  0  0
  191.8470  176.8560  143.0620 C   0  0  0  0  0  3  0  0  0  0  0  0
  183.7110  179.3580  138.0070 C   0  0  0  0  0  2  0  0  0  0  0  0
  183.7990  178.8340  140.8290 C   0  0  0  0  0  0  0  0  0  0  0  0
  191.0230  177.0820  142.0080 N   0  0  0  0  0  0  0  0  0  0  0  0
  184.9140  178.5940  138.5600 C   0  0  0  0  0  2  0  0  0  0  0  0
  186.4000  178.0720  146.2210 C   0  0  0  0  0  3  0  0  0  0  0  0
  186.3690  178.1180  144.8180 C   0  0  0  0  0  0  0  0  0  0  0  0
  188.7390  177.5550  144.6860 C   0  0  0  0  0  3  0  0  0  0  0  0
  186.0940  178.2990  140.6730 O   0  0  0  0  0  0  0  0  0  0  0  0
  188.6900  177.6850  140.3530 C   0  0  0  0  0  1  0  0  0  0  0  0
  191.6890  176.8240  145.6240 C   0  0  0  0  0  1  0  0  0  0  0  0
  187.4550  177.9190  142.6090 C   0  0  0  0  0  0  0  0  0  0  0  0
  189.8550  177.3100  143.9020 C   0  0  0  0  0  0  0  0  0  0  0  0
  182.0800  177.4730  138.4720 C   0  0  0  0  0  2  0  0  0  0  0  0
  180.0100  176.7680  139.7070 C   0  0  0  0  0  0  0  0  0  0  0  0
  181.4260  176.9170  139.6450 N   0  0  0  0  0  2  0  0  0  0  0  0
  179.4790  176.2800  140.7390 O   0  0  0  0  0  1  0  0  0  0  0  0
  179.2100  177.1560  138.6390 O   0  0  0  0  0  0  0  0  0  0  0  0
  1 28  1  1  0  0  0
  1 10  1  0  0  0  0
  2 26  2  0  0  0  0
  2 12  1  0  0  0  0
  3  4  1  0  0  0  0
  5  6  2  0  0  0  0
  5 26  1  0  0  0  0
  6 27  1  0  0  0  0
  7 23  1  0  0  0  0
  7 17  2  0  0  0  0
  8 12  2  0  0  0  0
  9 25  1  0  0  0  0
 10 17  1  0  0  0  0
 11  3  2  0  0  0  0
 12 13  1  0  0  0  0
 13 21  2  0  0  0  0
 13 11  1  0  0  0  0
 14 22  2  0  0  0  0
 14 21  1  0  0  0  0
 15  9  1  0  0  0  0
 16 19  1  0  0  0  0
 16  1  1  0  0  0  0
 17  8  1  0  0  0  0
 18  6  1  0  0  0  0
 18 15  2  0  0  0  0
 19  7  1  0  0  0  0
 20  4  2  0  0  0  0
 21 20  1  0  0  0  0
 23  2  1  0  0  0  0
 24  5  1  0  0  0  0
 26 14  1  0  0  0  0
 27  9  2  0  0  0  0
 27 22  1  0  0  0  0
 28 30  1  0  0  0  0
 29 31  1  0  0  0  0
 30 29  1  0  0  0  0
 32 29  2  0  0  0  0
M  END
>  <MODEL>
8

>  <REMARK>
 VINA RESULT:      -9.1      3.325      5.092
  Name = 
  2 active torsions:
  status: ('A' for Active; 'I' for Inactive)
    1  A    between atoms: C_2  and  C_24
    2  A    between atoms: N_10  and  C_24
                            x       y       z     vdW  Elec       q    Type
                         _______ _______ _______ _____ _____    ______ ____

>  <TORSDO>
F 2

$$$$
=
 OpenBabel10222416373D

 32 37  0  0  1  0  0  0  0  0999 V2000
  191.5530  176.9290  137.8220 C   0  0  1  0  0  3  0  0  0  0  0  0
  189.4700  177.6220  142.3980 C   0  0  0  0  0  0  0  0  0  0  0  0
  184.8970  178.7850  141.3880 C   0  0  0  0  0  3  0  0  0  0  0  0
  184.5690  178.8330  142.7410 C   0  0  0  0  0  3  0  0  0  0  0  0
  190.2150  177.3750  144.7720 C   0  0  0  0  0  0  0  0  0  0  0  0
  189.8570  177.4300  146.1210 C   0  0  0  0  0  0  0  0  0  0  0  0
  190.9740  177.2960  140.6360 C   0  0  0  0  0  0  0  0  0  0  0  0
  188.7210  177.8660  140.1420 N   0  0  0  0  0  0  0  0  0  0  0  0
  188.5840  177.7020  147.8870 C   0  0  0  0  0  0  0  0  0  0  0  0
  190.2430  177.6110  138.2180 C   0  0  0  0  0  2  0  0  0  0  0  0
  186.1660  178.4790  141.0050 N   0  0  0  0  0  0  0  0  0  0  0  0
  188.4390  177.9000  141.4710 C   0  0  0  0  0  0  0  0  0  0  0  0
  187.1500  178.2100  141.9100 C   0  0  0  0  0  0  0  0  0  0  0  0
  187.8750  177.9710  144.2340 C   0  0  0  0  0  0  0  0  0  0  0  0
  189.8750  177.3700  148.2750 C   0  0  0  0  0  3  0  0  0  0  0  0
  192.6760  177.3340  138.7810 C   0  0  0  0  0  2  0  0  0  0  0  0
  189.9640  177.5600  139.6950 C   0  0  0  0  0  0  0  0  0  0  0  0
  190.6580  177.2030  147.1810 N   0  0  0  0  0  0  0  0  0  0  0  0
  192.3640  176.9130  140.2170 C   0  0  0  0  0  2  0  0  0  0  0  0
  185.5530  178.5630  143.6900 C   0  0  0  0  0  3  0  0  0  0  0  0
  186.8620  178.2480  143.2910 C   0  0  0  0  0  0  0  0  0  0  0  0
  187.5760  178.0100  145.6130 C   0  0  0  0  0  3  0  0  0  0  0  0
  190.6840  177.3330  141.9330 O   0  0  0  0  0  0  0  0  0  0  0  0
  191.6300  177.0300  144.4300 C   0  0  0  0  0  1  0  0  0  0  0  0
  187.4310  177.9660  148.7890 C   0  0  0  0  0  1  0  0  0  0  0  0
  189.2060  177.6520  143.7920 C   0  0  0  0  0  0  0  0  0  0  0  0
  188.5900  177.7350  146.5160 C   0  0  0  0  0  0  0  0  0  0  0  0
  191.3750  175.4170  137.7500 C   0  0  0  0  0  2  0  0  0  0  0  0
  191.7730  174.5000  135.4460 C   0  0  0  0  0  0  0  0  0  0  0  0
  192.2570  174.8600  136.7380 N   0  0  0  0  0  2  0  0  0  0  0  0
  192.5660  174.0210  134.5940 O   0  0  0  0  0  0  0  0  0  0  0  0
  190.4330  174.6720  135.1190 O   0  0  0  0  0  1  0  0  0  0  0  0
  1 28  1  1  0  0  0
  1 10  1  0  0  0  0
  1 16  1  0  0  0  0
  2 26  2  0  0  0  0
  3  4  1  0  0  0  0
  4 20  2  0  0  0  0
  5  6  2  0  0  0  0
  6 27  1  0  0  0  0
  6 18  1  0  0  0  0
  7 23  1  0  0  0  0
  8 12  2  0  0  0  0
  9 15  1  0  0  0  0
  9 25  1  0  0  0  0
 10 17  1  0  0  0  0
 11  3  2  0  0  0  0
 11 13  1  0  0  0  0
 12 13  1  0  0  0  0
 12  2  1  0  0  0  0
 13 21  2  0  0  0  0
 14 22  2  0  0  0  0
 16 19  1  0  0  0  0
 17  8  1  0  0  0  0
 17  7  2  0  0  0  0
 18 15  2  0  0  0  0
 19  7  1  0  0  0  0
 21 20  1  0  0  0  0
 21 14  1  0  0  0  0
 22 27  1  0  0  0  0
 23  2  1  0  0  0  0
 24  5  1  0  0  0  0
 26 14  1  0  0  0  0
 26  5  1  0  0  0  0
 27  9  2  0  0  0  0
 29 30  1  0  0  0  0
 30 28  1  0  0  0  0
 31 29  2  0  0  0  0
 32 29  1  0  0  0  0
M  END
>  <MODEL>
9

>  <REMARK>
 VINA RESULT:      -9.0      1.676      2.233
  Name = 
  2 active torsions:
  status: ('A' for Active; 'I' for Inactive)
    1  A    between atoms: C_2  and  C_24
    2  A    between atoms: N_10  and  C_24
                            x       y       z     vdW  Elec       q    Type
                         _______ _______ _______ _____ _____    ______ ____

>  <TORSDO>
F 2

$$$$
