=
 OpenBabel10222418103D

 25 27  0  0  1  0  0  0  0  0999 V2000
  183.3370  178.7450  140.4180 C   0  0  1  0  0  3  0  0  0  0  0  0
  184.1500  179.5450  139.2600 S   0  0  0  0  0  0  0  0  0  0  0  0
  181.4530  177.1330  139.8460 C   0  0  0  0  0  0  0  0  0  0  0  0
  182.3700  176.0470  139.7080 N   0  0  0  0  0  1  0  0  0  0  0  0
  181.8990  178.4230  140.2200 C   0  0  0  0  0  0  0  0  0  0  0  0
  180.9440  179.4340  140.3980 C   0  0  0  0  0  3  0  0  0  0  0  0
  179.1910  177.9220  139.8350 N   0  0  0  0  0  0  0  0  0  0  0  0
  180.0780  176.9090  139.6560 C   0  0  0  0  0  0  0  0  0  0  0  0
  179.5900  179.1660  140.2010 C   0  0  0  0  0  3  0  0  0  0  0  0
  179.5670  175.5640  139.2660 C   0  0  0  0  0  1  0  0  0  0  0  0
  183.1380  178.2180  142.8770 C   0  0  0  0  0  2  0  0  0  0  0  0
  186.3590  178.2540  142.7640 C   0  0  0  0  0  2  0  0  0  0  0  0
  183.2120  179.4250  143.5850 O   0  0  0  0  0  0  0  0  0  0  0  0
  185.3660  179.0040  141.8750 C   0  0  0  0  0  2  0  0  0  0  0  0
  185.2500  179.1800  144.8580 C   0  0  0  0  0  2  0  0  0  0  0  0
  184.0540  178.2480  141.6460 C   0  0  2  0  0  3  0  0  0  0  0  0
  185.8470  177.9560  144.1740 C   0  0  0  0  0  2  0  0  0  0  0  0
  183.7270  179.0890  144.8440 C   0  0  0  0  0  2  0  0  0  0  0  0
  187.3020  178.6110  139.0420 O   0  0  0  0  0  0  0  0  0  0  0  0
  185.0110  178.2910  138.3450 C   0  0  0  0  0  0  0  0  0  0  0  0
  186.4240  178.0120  138.3680 C   0  0  0  0  0  0  0  0  0  0  0  0
  186.6830  176.9420  137.4790 N   0  0  0  0  0  0  0  0  0  0  0  0
  184.4420  177.4830  137.5160 N   0  0  0  0  0  0  0  0  0  0  0  0
  185.2810  175.5840  136.0130 C   0  0  0  0  0  1  0  0  0  0  0  0
  185.5060  176.6660  137.0070 C   0  0  0  0  0  0  0  0  0  0  0  0
  1  2  1  6  0  0  0
  3  5  1  0  0  0  0
  4  3  1  0  0  0  0
  5  6  2  0  0  0  0
  5  1  1  0  0  0  0
  7  9  2  0  0  0  0
  8  7  1  0  0  0  0
  8  3  2  0  0  0  0
  9  6  1  0  0  0  0
 10  8  1  0  0  0  0
 11 13  1  0  0  0  0
 12 17  1  0  0  0  0
 13 18  1  0  0  0  0
 14 12  1  0  0  0  0
 16  1  1  6  0  0  0
 16 14  1  0  0  0  0
 16 11  1  0  0  0  0
 17 15  1  0  0  0  0
 18 15  1  0  0  0  0
 20 21  1  0  0  0  0
 20  2  1  0  0  0  0
 21 19  2  0  0  0  0
 22 21  1  0  0  0  0
 23 20  2  0  0  0  0
 24 25  1  0  0  0  0
 25 22  2  0  0  0  0
 25 23  1  0  0  0  0
M  END
>  <MODEL>
1

>  <REMARK>
 VINA RESULT:      -6.2      0.000      0.000
  Name = 
  3 active torsions:
  status: ('A' for Active; 'I' for Inactive)
    1  A    between atoms: C_6  and  S_20
    2  A    between atoms: C_7  and  C_19
    3  A    between atoms: C_16  and  C_19
                            x       y       z     vdW  Elec       q    Type
                         _______ _______ _______ _____ _____    ______ ____

>  <TORSDO>
F 3

$$$$
=
 OpenBabel10222418103D

 25 27  0  0  1  0  0  0  0  0999 V2000
  183.8640  178.3420  140.3500 C   0  0  1  0  0  3  0  0  0  0  0  0
  184.6850  179.3430  139.3670 S   0  0  0  0  0  0  0  0  0  0  0  0
  181.3870  178.3470  139.7680 C   0  0  0  0  0  0  0  0  0  0  0  0
  181.2750  179.7350  140.0830 N   0  0  0  0  0  1  0  0  0  0  0  0
  182.6290  177.6750  139.8590 C   0  0  0  0  0  0  0  0  0  0  0  0
  182.6880  176.3260  139.4800 C   0  0  0  0  0  3  0  0  0  0  0  0
  180.3620  176.3360  138.9640 N   0  0  0  0  0  0  0  0  0  0  0  0
  180.2560  177.6450  139.3150 C   0  0  0  0  0  0  0  0  0  0  0  0
  181.5420  175.6700  139.0340 C   0  0  0  0  0  3  0  0  0  0  0  0
  178.9310  178.3170  139.2010 C   0  0  0  0  0  1  0  0  0  0  0  0
  183.3050  178.0820  142.7960 C   0  0  0  0  0  2  0  0  0  0  0  0
  186.5020  178.2440  143.1620 C   0  0  0  0  0  2  0  0  0  0  0  0
  183.2380  179.3620  143.3630 O   0  0  0  0  0  0  0  0  0  0  0  0
  185.6380  178.8470  142.0540 C   0  0  0  0  0  2  0  0  0  0  0  0
  185.0630  179.3470  144.9450 C   0  0  0  0  0  2  0  0  0  0  0  0
  184.3970  178.0150  141.7210 C   0  0  2  0  0  3  0  0  0  0  0  0
  185.7890  178.0820  144.5040 C   0  0  0  0  0  2  0  0  0  0  0  0
  183.5620  179.1900  144.7140 C   0  0  0  0  0  2  0  0  0  0  0  0
  184.9340  177.1950  136.8820 O   0  0  0  0  0  0  0  0  0  0  0  0
  186.0070  178.3620  138.7050 C   0  0  0  0  0  0  0  0  0  0  0  0
  185.9440  177.4540  137.5880 C   0  0  0  0  0  0  0  0  0  0  0  0
  187.2210  176.8710  137.4120 N   0  0  0  0  0  0  0  0  0  0  0  0
  187.2030  178.3420  139.1880 N   0  0  0  0  0  0  0  0  0  0  0  0
  189.3570  177.0970  138.5710 C   0  0  0  0  0  1  0  0  0  0  0  0
  187.9210  177.4150  138.3600 C   0  0  0  0  0  0  0  0  0  0  0  0
  1  2  1  6  0  0  0
  3  5  1  0  0  0  0
  3  4  1  0  0  0  0
  5  1  1  0  0  0  0
  6  5  2  0  0  0  0
  7  9  2  0  0  0  0
  7  8  1  0  0  0  0
  8  3  2  0  0  0  0
  9  6  1  0  0  0  0
 10  8  1  0  0  0  0
 11 13  1  0  0  0  0
 12 17  1  0  0  0  0
 13 18  1  0  0  0  0
 14 12  1  0  0  0  0
 16  1  1  6  0  0  0
 16 14  1  0  0  0  0
 16 11  1  0  0  0  0
 17 15  1  0  0  0  0
 18 15  1  0  0  0  0
 19 21  2  0  0  0  0
 20 23  2  0  0  0  0
 20  2  1  0  0  0  0
 21 20  1  0  0  0  0
 22 21  1  0  0  0  0
 22 25  2  0  0  0  0
 25 24  1  0  0  0  0
 25 23  1  0  0  0  0
M  END
>  <MODEL>
2

>  <REMARK>
 VINA RESULT:      -5.8      1.483      2.220
  Name = 
  3 active torsions:
  status: ('A' for Active; 'I' for Inactive)
    1  A    between atoms: C_6  and  S_20
    2  A    between atoms: C_7  and  C_19
    3  A    between atoms: C_16  and  C_19
                            x       y       z     vdW  Elec       q    Type
                         _______ _______ _______ _____ _____    ______ ____

>  <TORSDO>
F 3

$$$$
=
 OpenBabel10222418103D

 25 27  0  0  1  0  0  0  0  0999 V2000
  189.7390  177.3760  138.7420 C   0  0  1  0  0  3  0  0  0  0  0  0
  189.2250  178.6290  137.8440 S   0  0  0  0  0  0  0  0  0  0  0  0
  190.7800  177.4660  141.0620 C   0  0  0  0  0  0  0  0  0  0  0  0
  192.0980  177.5000  140.5130 N   0  0  0  0  0  1  0  0  0  0  0  0
  189.6400  177.4420  140.2250 C   0  0  0  0  0  0  0  0  0  0  0  0
  188.3720  177.4680  140.8220 C   0  0  0  0  0  3  0  0  0  0  0  0
  189.3590  177.5260  142.9890 N   0  0  0  0  0  0  0  0  0  0  0  0
  190.6090  177.5060  142.4570 C   0  0  0  0  0  0  0  0  0  0  0  0
  188.2490  177.5100  142.2100 C   0  0  0  0  0  3  0  0  0  0  0  0
  191.7840  177.5380  143.3740 C   0  0  0  0  0  1  0  0  0  0  0  0
  191.3960  176.3800  137.1220 C   0  0  0  0  0  2  0  0  0  0  0  0
  189.3940  173.8560  137.2030 C   0  0  0  0  0  2  0  0  0  0  0  0
  190.9320  176.6270  135.8220 O   0  0  0  0  0  0  0  0  0  0  0  0
  189.0760  175.3330  137.4420 C   0  0  0  0  0  2  0  0  0  0  0  0
  190.4930  174.4070  134.9770 C   0  0  0  0  0  2  0  0  0  0  0  0
  190.2280  176.1140  138.0800 C   0  0  2  0  0  3  0  0  0  0  0  0
  190.5790  173.6060  136.2700 C   0  0  0  0  0  2  0  0  0  0  0  0
  191.4540  175.5920  135.0360 C   0  0  0  0  0  2  0  0  0  0  0  0
  187.9180  177.6800  134.9730 O   0  0  0  0  0  0  0  0  0  0  0  0
  187.5920  178.1820  137.3140 C   0  0  0  0  0  0  0  0  0  0  0  0
  187.1850  177.7830  135.9920 C   0  0  0  0  0  0  0  0  0  0  0  0
  185.7920  177.5320  136.0090 N   0  0  0  0  0  0  0  0  0  0  0  0
  186.5560  178.1920  138.0820 N   0  0  0  0  0  0  0  0  0  0  0  0
  184.0740  177.6500  137.7390 C   0  0  0  0  0  1  0  0  0  0  0  0
  185.4680  177.7810  137.2410 C   0  0  0  0  0  0  0  0  0  0  0  0
  1  2  1  6  0  0  0
  1  5  1  0  0  0  0
  3  8  1  0  0  0  0
  4  3  1  0  0  0  0
  5  6  1  0  0  0  0
  5  3  2  0  0  0  0
  6  9  2  0  0  0  0
  8  7  2  0  0  0  0
  8 10  1  0  0  0  0
  9  7  1  0  0  0  0
 11 16  1  0  0  0  0
 12 14  1  0  0  0  0
 13 11  1  0  0  0  0
 14 16  1  0  0  0  0
 15 18  1  0  0  0  0
 15 17  1  0  0  0  0
 16  1  1  6  0  0  0
 17 12  1  0  0  0  0
 18 13  1  0  0  0  0
 19 21  2  0  0  0  0
 20  2  1  0  0  0  0
 20 23  2  0  0  0  0
 21 22  1  0  0  0  0
 21 20  1  0  0  0  0
 22 25  2  0  0  0  0
 25 24  1  0  0  0  0
 25 23  1  0  0  0  0
M  END
>  <MODEL>
3

>  <REMARK>
 VINA RESULT:      -5.3      4.425      8.316
  Name = 
  3 active torsions:
  status: ('A' for Active; 'I' for Inactive)
    1  A    between atoms: C_6  and  S_20
    2  A    between atoms: C_7  and  C_19
    3  A    between atoms: C_16  and  C_19
                            x       y       z     vdW  Elec       q    Type
                         _______ _______ _______ _____ _____    ______ ____

>  <TORSDO>
F 3

$$$$
=
 OpenBabel10222418103D

 25 27  0  0  1  0  0  0  0  0999 V2000
  188.5720  177.4630  137.6260 C   0  0  1  0  0  3  0  0  0  0  0  0
  189.0590  178.6380  138.6380 S   0  0  0  0  0  0  0  0  0  0  0  0
  190.2930  175.6620  137.1070 C   0  0  0  0  0  0  0  0  0  0  0  0
  190.0660  175.0260  138.3660 N   0  0  0  0  0  1  0  0  0  0  0  0
  189.5600  176.8100  136.7250 C   0  0  0  0  0  0  0  0  0  0  0  0
  189.7850  177.3540  135.4530 C   0  0  0  0  0  3  0  0  0  0  0  0
  191.4130  175.6780  134.9900 N   0  0  0  0  0  0  0  0  0  0  0  0
  191.2260  175.1120  136.2110 C   0  0  0  0  0  0  0  0  0  0  0  0
  190.7180  176.7750  134.5950 C   0  0  0  0  0  3  0  0  0  0  0  0
  192.0160  173.9000  136.5720 C   0  0  0  0  0  1  0  0  0  0  0  0
  186.8760  175.9180  136.5780 C   0  0  0  0  0  2  0  0  0  0  0  0
  184.7670  177.7530  138.1810 C   0  0  0  0  0  2  0  0  0  0  0  0
  186.4110  176.5200  135.4020 O   0  0  0  0  0  0  0  0  0  0  0  0
  186.1520  178.1310  137.6550 C   0  0  0  0  0  2  0  0  0  0  0  0
  184.0760  176.9110  135.8820 C   0  0  0  0  0  2  0  0  0  0  0  0
  187.1500  176.9690  137.6610 C   0  0  2  0  0  3  0  0  0  0  0  0
  184.0650  176.6530  137.3840 C   0  0  0  0  0  2  0  0  0  0  0  0
  185.1170  176.0190  135.2110 C   0  0  0  0  0  2  0  0  0  0  0  0
  191.6850  177.4890  140.2630 O   0  0  0  0  0  0  0  0  0  0  0  0
  189.2950  177.8360  140.2030 C   0  0  0  0  0  0  0  0  0  0  0  0
  190.5390  177.3890  140.7740 C   0  0  0  0  0  0  0  0  0  0  0  0
  190.2670  176.7910  142.0280 N   0  0  0  0  0  0  0  0  0  0  0  0
  188.3360  177.5360  141.0120 N   0  0  0  0  0  0  0  0  0  0  0  0
  188.2250  176.3950  143.3050 C   0  0  0  0  0  1  0  0  0  0  0  0
  188.9770  176.8990  142.1260 C   0  0  0  0  0  0  0  0  0  0  0  0
  1  2  1  1  0  0  0
  2 20  1  0  0  0  0
  3  4  1  0  0  0  0
  5  3  1  0  0  0  0
  5  1  1  0  0  0  0
  6  5  2  0  0  0  0
  7  8  1  0  0  0  0
  8 10  1  0  0  0  0
  8  3  2  0  0  0  0
  9  7  2  0  0  0  0
  9  6  1  0  0  0  0
 11 16  1  0  0  0  0
 13 11  1  0  0  0  0
 14 16  1  0  0  0  0
 14 12  1  0  0  0  0
 15 17  1  0  0  0  0
 16  1  1  6  0  0  0
 17 12  1  0  0  0  0
 18 13  1  0  0  0  0
 18 15  1  0  0  0  0
 19 21  2  0  0  0  0
 20 21  1  0  0  0  0
 20 23  2  0  0  0  0
 21 22  1  0  0  0  0
 22 25  2  0  0  0  0
 23 25  1  0  0  0  0
 25 24  1  0  0  0  0
M  END
>  <MODEL>
4

>  <REMARK>
 VINA RESULT:      -5.3      4.710      8.298
  Name = 
  3 active torsions:
  status: ('A' for Active; 'I' for Inactive)
    1  A    between atoms: C_6  and  S_20
    2  A    between atoms: C_7  and  C_19
    3  A    between atoms: C_16  and  C_19
                            x       y       z     vdW  Elec       q    Type
                         _______ _______ _______ _____ _____    ______ ____

>  <TORSDO>
F 3

$$$$
=
 OpenBabel10222418103D

 25 27  0  0  1  0  0  0  0  0999 V2000
  188.2400  177.2290  143.9950 C   0  0  1  0  0  3  0  0  0  0  0  0
  186.8500  176.4280  144.2580 S   0  0  0  0  0  0  0  0  0  0  0  0
  189.6080  176.7840  141.8960 C   0  0  0  0  0  0  0  0  0  0  0  0
  190.1770  175.6060  142.4680 N   0  0  0  0  0  1  0  0  0  0  0  0
  188.6530  177.5520  142.6030 C   0  0  0  0  0  0  0  0  0  0  0  0
  188.0860  178.6650  141.9650 C   0  0  0  0  0  3  0  0  0  0  0  0
  189.3920  178.2530  140.0160 N   0  0  0  0  0  0  0  0  0  0  0  0
  189.9650  177.1630  140.5900 C   0  0  0  0  0  0  0  0  0  0  0  0
  188.4680  179.0030  140.6680 C   0  0  0  0  0  3  0  0  0  0  0  0
  190.9640  176.3790  139.8100 C   0  0  0  0  0  1  0  0  0  0  0  0
  190.5690  177.6350  144.8750 C   0  0  0  0  0  2  0  0  0  0  0  0
  189.0570  177.8470  147.7130 C   0  0  0  0  0  2  0  0  0  0  0  0
  191.0860  176.4080  145.3130 O   0  0  0  0  0  0  0  0  0  0  0  0
  188.6410  177.0630  146.4680 C   0  0  0  0  0  2  0  0  0  0  0  0
  191.3530  176.7530  147.6890 C   0  0  0  0  0  2  0  0  0  0  0  0
  189.0630  177.7270  145.1540 C   0  0  2  0  0  3  0  0  0  0  0  0
  190.5660  178.0460  147.8620 C   0  0  0  0  0  2  0  0  0  0  0  0
  192.0130  176.7280  146.3120 C   0  0  0  0  0  2  0  0  0  0  0  0
  185.9030  177.8750  147.0620 O   0  0  0  0  0  0  0  0  0  0  0  0
  185.6610  177.6810  144.6650 C   0  0  0  0  0  0  0  0  0  0  0  0
  185.3670  178.2090  145.9720 C   0  0  0  0  0  0  0  0  0  0  0  0
  184.3440  179.1790  145.8430 N   0  0  0  0  0  0  0  0  0  0  0  0
  184.8910  178.2530  143.8040 N   0  0  0  0  0  0  0  0  0  0  0  0
  183.0710  180.0510  143.9520 C   0  0  0  0  0  1  0  0  0  0  0  0
  184.0980  179.1720  144.5690 C   0  0  0  0  0  0  0  0  0  0  0  0
  1  2  1  1  0  0  0
  2 20  1  0  0  0  0
  3  4  1  0  0  0  0
  3  5  1  0  0  0  0
  5  1  1  0  0  0  0
  6  5  2  0  0  0  0
  7  8  1  0  0  0  0
  7  9  2  0  0  0  0
  8  3  2  0  0  0  0
  9  6  1  0  0  0  0
 10  8  1  0  0  0  0
 11 16  1  0  0  0  0
 11 13  1  0  0  0  0
 12 17  1  0  0  0  0
 13 18  1  0  0  0  0
 14 12  1  0  0  0  0
 15 17  1  0  0  0  0
 16  1  1  6  0  0  0
 16 14  1  0  0  0  0
 18 15  1  0  0  0  0
 20 21  1  0  0  0  0
 21 19  2  0  0  0  0
 22 21  1  0  0  0  0
 23 25  1  0  0  0  0
 23 20  2  0  0  0  0
 24 25  1  0  0  0  0
 25 22  2  0  0  0  0
M  END
>  <MODEL>
5

>  <REMARK>
 VINA RESULT:      -5.2      4.768      7.956
  Name = 
  3 active torsions:
  status: ('A' for Active; 'I' for Inactive)
    1  A    between atoms: C_6  and  S_20
    2  A    between atoms: C_7  and  C_19
    3  A    between atoms: C_16  and  C_19
                            x       y       z     vdW  Elec       q    Type
                         _______ _______ _______ _____ _____    ______ ____

>  <TORSDO>
F 3

$$$$
=
 OpenBabel10222418103D

 25 27  0  0  1  0  0  0  0  0999 V2000
  189.6670  176.0170  137.0060 C   0  0  1  0  0  3  0  0  0  0  0  0
  188.8340  177.4030  136.8360 S   0  0  0  0  0  0  0  0  0  0  0  0
  191.9540  175.9600  135.8930 C   0  0  0  0  0  0  0  0  0  0  0  0
  191.3650  175.8990  134.5940 N   0  0  0  0  0  1  0  0  0  0  0  0
  191.1530  176.0510  137.0550 C   0  0  0  0  0  0  0  0  0  0  0  0
  191.7900  176.1670  138.2990 C   0  0  0  0  0  3  0  0  0  0  0  0
  193.9260  176.0860  137.2470 N   0  0  0  0  0  0  0  0  0  0  0  0
  193.3540  175.9770  136.0190 C   0  0  0  0  0  0  0  0  0  0  0  0
  193.1820  176.1830  138.3770 C   0  0  0  0  0  3  0  0  0  0  0  0
  194.2340  175.8870  134.8190 C   0  0  0  0  0  1  0  0  0  0  0  0
  189.7610  173.5130  136.7130 C   0  0  0  0  0  2  0  0  0  0  0  0
  186.5840  173.7090  137.2170 C   0  0  0  0  0  2  0  0  0  0  0  0
  189.4670  173.2240  135.3740 O   0  0  0  0  0  0  0  0  0  0  0  0
  187.5230  174.7650  136.6320 C   0  0  0  0  0  2  0  0  0  0  0  0
  187.3980  171.9880  135.5310 C   0  0  0  0  0  2  0  0  0  0  0  0
  188.9410  174.7120  137.2070 C   0  0  2  0  0  3  0  0  0  0  0  0
  187.0300  172.2650  136.9840 C   0  0  0  0  0  2  0  0  0  0  0  0
  188.9160  171.9360  135.3820 C   0  0  0  0  0  2  0  0  0  0  0  0
  186.0910  178.6870  138.1320 O   0  0  0  0  0  0  0  0  0  0  0  0
  188.3300  177.8460  138.4790 C   0  0  0  0  0  0  0  0  0  0  0  0
  187.0660  178.4090  138.8790 C   0  0  0  0  0  0  0  0  0  0  0  0
  187.0930  178.6220  140.2780 N   0  0  0  0  0  0  0  0  0  0  0  0
  189.0800  177.7280  139.5210 N   0  0  0  0  0  0  0  0  0  0  0  0
  188.7700  178.2460  142.0120 C   0  0  0  0  0  1  0  0  0  0  0  0
  188.2800  178.2120  140.6100 C   0  0  0  0  0  0  0  0  0  0  0  0
  1  2  1  1  0  0  0
  1  5  1  0  0  0  0
  2 20  1  0  0  0  0
  3  8  2  0  0  0  0
  3  5  1  0  0  0  0
  4  3  1  0  0  0  0
  5  6  2  0  0  0  0
  6  9  1  0  0  0  0
  7  9  2  0  0  0  0
  8  7  1  0  0  0  0
 10  8  1  0  0  0  0
 11 16  1  0  0  0  0
 13 18  1  0  0  0  0
 13 11  1  0  0  0  0
 14 16  1  0  0  0  0
 14 12  1  0  0  0  0
 15 17  1  0  0  0  0
 16  1  1  6  0  0  0
 17 12  1  0  0  0  0
 18 15  1  0  0  0  0
 19 21  2  0  0  0  0
 20 21  1  0  0  0  0
 20 23  2  0  0  0  0
 21 22  1  0  0  0  0
 22 25  2  0  0  0  0
 23 25  1  0  0  0  0
 25 24  1  0  0  0  0
M  END
>  <MODEL>
6

>  <REMARK>
 VINA RESULT:      -5.2      5.028      9.678
  Name = 
  3 active torsions:
  status: ('A' for Active; 'I' for Inactive)
    1  A    between atoms: C_6  and  S_20
    2  A    between atoms: C_7  and  C_19
    3  A    between atoms: C_16  and  C_19
                            x       y       z     vdW  Elec       q    Type
                         _______ _______ _______ _____ _____    ______ ____

>  <TORSDO>
F 3

$$$$
=
 OpenBabel10222418103D

 25 27  0  0  1  0  0  0  0  0999 V2000
  188.7150  177.2930  137.1920 C   0  0  1  0  0  3  0  0  0  0  0  0
  188.9470  178.6790  138.0100 S   0  0  0  0  0  0  0  0  0  0  0  0
  190.6670  175.6620  137.2220 C   0  0  0  0  0  0  0  0  0  0  0  0
  190.3520  175.2470  138.5510 N   0  0  0  0  0  1  0  0  0  0  0  0
  189.8710  176.6160  136.5460 C   0  0  0  0  0  0  0  0  0  0  0  0
  190.1950  176.9400  135.2210 C   0  0  0  0  0  3  0  0  0  0  0  0
  192.0370  175.4290  135.2700 N   0  0  0  0  0  0  0  0  0  0  0  0
  191.7580  175.0790  136.5530 C   0  0  0  0  0  0  0  0  0  0  0  0
  191.2850  176.3350  134.5960 C   0  0  0  0  0  3  0  0  0  0  0  0
  192.6200  174.0670  137.2280 C   0  0  0  0  0  1  0  0  0  0  0  0
  187.2540  175.5630  136.0810 C   0  0  0  0  0  2  0  0  0  0  0  0
  184.8780  177.1610  137.5600 C   0  0  0  0  0  2  0  0  0  0  0  0
  186.7830  176.1040  134.8770 O   0  0  0  0  0  0  0  0  0  0  0  0
  186.2370  177.6880  137.0970 C   0  0  0  0  0  2  0  0  0  0  0  0
  184.3990  176.2350  135.2400 C   0  0  0  0  0  2  0  0  0  0  0  0
  187.3560  176.6450  137.1640 C   0  0  2  0  0  3  0  0  0  0  0  0
  184.3420  175.9850  136.7420 C   0  0  0  0  0  2  0  0  0  0  0  0
  185.5640  175.4610  134.6290 C   0  0  0  0  0  2  0  0  0  0  0  0
  186.8160  178.6210  140.5210 O   0  0  0  0  0  0  0  0  0  0  0  0
  189.0550  178.2000  139.7150 C   0  0  0  0  0  0  0  0  0  0  0  0
  188.0030  178.2390  140.6980 C   0  0  0  0  0  0  0  0  0  0  0  0
  188.5260  177.7840  141.9320 N   0  0  0  0  0  0  0  0  0  0  0  0
  190.1340  177.7750  140.2790 N   0  0  0  0  0  0  0  0  0  0  0  0
  190.7260  177.0090  142.6520 C   0  0  0  0  0  1  0  0  0  0  0  0
  189.7650  177.5240  141.6420 C   0  0  0  0  0  0  0  0  0  0  0  0
  1  2  1  1  0  0  0
  2 20  1  0  0  0  0
  3  4  1  0  0  0  0
  5  1  1  0  0  0  0
  5  3  2  0  0  0  0
  6  5  1  0  0  0  0
  7  8  2  0  0  0  0
  8  3  1  0  0  0  0
  8 10  1  0  0  0  0
  9  6  2  0  0  0  0
  9  7  1  0  0  0  0
 11 16  1  0  0  0  0
 13 11  1  0  0  0  0
 14 16  1  0  0  0  0
 14 12  1  0  0  0  0
 15 17  1  0  0  0  0
 16  1  1  6  0  0  0
 17 12  1  0  0  0  0
 18 13  1  0  0  0  0
 18 15  1  0  0  0  0
 19 21  2  0  0  0  0
 20 23  2  0  0  0  0
 20 21  1  0  0  0  0
 21 22  1  0  0  0  0
 23 25  1  0  0  0  0
 25 22  2  0  0  0  0
 25 24  1  0  0  0  0
M  END
>  <MODEL>
7

>  <REMARK>
 VINA RESULT:      -5.1      4.732      8.653
  Name = 
  3 active torsions:
  status: ('A' for Active; 'I' for Inactive)
    1  A    between atoms: C_6  and  S_20
    2  A    between atoms: C_7  and  C_19
    3  A    between atoms: C_16  and  C_19
                            x       y       z     vdW  Elec       q    Type
                         _______ _______ _______ _____ _____    ______ ____

>  <TORSDO>
F 3

$$$$
=
 OpenBabel10222418103D

 25 27  0  0  1  0  0  0  0  0999 V2000
  182.1620  177.9690  138.8620 C   0  0  1  0  0  3  0  0  0  0  0  0
  183.7760  178.0030  139.0490 S   0  0  0  0  0  0  0  0  0  0  0  0
  181.4100  175.7480  137.8750 C   0  0  0  0  0  0  0  0  0  0  0  0
  182.1440  175.9870  136.6740 N   0  0  0  0  0  1  0  0  0  0  0  0
  181.4370  176.6730  138.9450 C   0  0  0  0  0  0  0  0  0  0  0  0
  180.7440  176.3550  140.1210 C   0  0  0  0  0  3  0  0  0  0  0  0
  180.0240  174.2900  139.1760 N   0  0  0  0  0  0  0  0  0  0  0  0
  180.6850  174.5520  138.0180 C   0  0  0  0  0  0  0  0  0  0  0  0
  180.0400  175.1560  140.2200 C   0  0  0  0  0  3  0  0  0  0  0  0
  180.6340  173.5490  136.9160 C   0  0  0  0  0  1  0  0  0  0  0  0
  180.2010  179.0900  137.7390 C   0  0  0  0  0  2  0  0  0  0  0  0
  181.7020  181.7920  138.6500 C   0  0  0  0  0  2  0  0  0  0  0  0
  180.5750  179.4000  136.4240 O   0  0  0  0  0  0  0  0  0  0  0  0
  182.3090  180.4220  138.3460 C   0  0  0  0  0  2  0  0  0  0  0  0
  180.5140  181.8150  136.4010 C   0  0  0  0  0  2  0  0  0  0  0  0
  181.3870  179.2500  138.6980 C   0  0  2  0  0  3  0  0  0  0  0  0
  180.4070  182.0940  137.8960 C   0  0  0  0  0  2  0  0  0  0  0  0
  179.7980  180.5090  136.0660 C   0  0  0  0  0  2  0  0  0  0  0  0
  186.3910  179.0190  140.7760 O   0  0  0  0  0  0  0  0  0  0  0  0
  184.0390  178.4690  140.7410 C   0  0  0  0  0  0  0  0  0  0  0  0
  185.2740  178.8980  141.3440 C   0  0  0  0  0  0  0  0  0  0  0  0
  185.0370  179.1550  142.7150 N   0  0  0  0  0  0  0  0  0  0  0  0
  183.1210  178.4470  141.6460 N   0  0  0  0  0  0  0  0  0  0  0  0
  183.0650  179.0090  144.1470 C   0  0  0  0  0  1  0  0  0  0  0  0
  183.7750  178.8820  142.8470 C   0  0  0  0  0  0  0  0  0  0  0  0
  1  5  1  0  0  0  0
  1  2  1  1  0  0  0
  2 20  1  0  0  0  0
  3  8  2  0  0  0  0
  3  5  1  0  0  0  0
  4  3  1  0  0  0  0
  5  6  2  0  0  0  0
  6  9  1  0  0  0  0
  7  9  2  0  0  0  0
  8  7  1  0  0  0  0
 10  8  1  0  0  0  0
 11 16  1  0  0  0  0
 13 11  1  0  0  0  0
 14 12  1  0  0  0  0
 14 16  1  0  0  0  0
 15 17  1  0  0  0  0
 16  1  1  6  0  0  0
 17 12  1  0  0  0  0
 18 15  1  0  0  0  0
 18 13  1  0  0  0  0
 19 21  2  0  0  0  0
 20 21  1  0  0  0  0
 20 23  2  0  0  0  0
 21 22  1  0  0  0  0
 22 25  2  0  0  0  0
 23 25  1  0  0  0  0
 25 24  1  0  0  0  0
M  END
>  <MODEL>
8

>  <REMARK>
 VINA RESULT:      -5.0      2.970      5.495
  Name = 
  3 active torsions:
  status: ('A' for Active; 'I' for Inactive)
    1  A    between atoms: C_6  and  S_20
    2  A    between atoms: C_7  and  C_19
    3  A    between atoms: C_16  and  C_19
                            x       y       z     vdW  Elec       q    Type
                         _______ _______ _______ _____ _____    ______ ____

>  <TORSDO>
F 3

$$$$
=
 OpenBabel10222418103D

 25 27  0  0  1  0  0  0  0  0999 V2000
  191.6330  176.4810  138.1610 C   0  0  1  0  0  3  0  0  0  0  0  0
  193.1770  176.7390  137.7200 S   0  0  0  0  0  0  0  0  0  0  0  0
  190.1590  174.8930  136.8270 C   0  0  0  0  0  0  0  0  0  0  0  0
  190.6250  173.7690  137.5740 N   0  0  0  0  0  1  0  0  0  0  0  0
  190.6070  176.2020  137.1210 C   0  0  0  0  0  0  0  0  0  0  0  0
  190.0680  177.2720  136.3920 C   0  0  0  0  0  3  0  0  0  0  0  0
  188.7120  175.7720  135.1320 N   0  0  0  0  0  0  0  0  0  0  0  0
  189.2020  174.7040  135.8150 C   0  0  0  0  0  0  0  0  0  0  0  0
  189.1190  177.0390  135.3980 C   0  0  0  0  0  3  0  0  0  0  0  0
  188.7000  173.3420  135.4780 C   0  0  0  0  0  1  0  0  0  0  0  0
  189.7350  176.4490  139.8220 C   0  0  0  0  0  2  0  0  0  0  0  0
  192.0580  177.1990  141.9260 C   0  0  0  0  0  2  0  0  0  0  0  0
  189.2660  177.7620  139.9670 O   0  0  0  0  0  0  0  0  0  0  0  0
  191.9970  177.4980  140.4270 C   0  0  0  0  0  2  0  0  0  0  0  0
  189.7740  178.2630  142.2750 C   0  0  0  0  0  2  0  0  0  0  0  0
  191.2560  176.4300  139.6180 C   0  0  2  0  0  3  0  0  0  0  0  0
  190.6930  177.0940  142.6070 C   0  0  0  0  0  2  0  0  0  0  0  0
  188.7250  177.8250  141.2570 C   0  0  0  0  0  2  0  0  0  0  0  0
  195.4320  175.6280  139.8490 O   0  0  0  0  0  0  0  0  0  0  0  0
  193.9950  175.1830  137.9580 C   0  0  0  0  0  0  0  0  0  0  0  0
  194.9770  174.8600  138.9610 C   0  0  0  0  0  0  0  0  0  0  0  0
  195.3770  173.5140  138.7790 N   0  0  0  0  0  0  0  0  0  0  0  0
  193.8050  174.1470  137.2140 N   0  0  0  0  0  0  0  0  0  0  0  0
  194.7590  171.7670  137.1910 C   0  0  0  0  0  1  0  0  0  0  0  0
  194.6710  173.1390  137.7570 C   0  0  0  0  0  0  0  0  0  0  0  0
  1  2  1  1  0  0  0
  2 20  1  0  0  0  0
  3  5  1  0  0  0  0
  3  4  1  0  0  0  0
  5  1  1  0  0  0  0
  6  5  2  0  0  0  0
  7  9  2  0  0  0  0
  7  8  1  0  0  0  0
  8  3  2  0  0  0  0
  9  6  1  0  0  0  0
 10  8  1  0  0  0  0
 11 13  1  0  0  0  0
 12 17  1  0  0  0  0
 13 18  1  0  0  0  0
 14 12  1  0  0  0  0
 15 17  1  0  0  0  0
 16  1  1  6  0  0  0
 16 11  1  0  0  0  0
 16 14  1  0  0  0  0
 18 15  1  0  0  0  0
 20 21  1  0  0  0  0
 21 19  2  0  0  0  0
 22 21  1  0  0  0  0
 23 25  1  0  0  0  0
 23 20  2  0  0  0  0
 24 25  1  0  0  0  0
 25 22  2  0  0  0  0
M  END
>  <MODEL>
9

>  <REMARK>
 VINA RESULT:      -4.9      6.480      8.852
  Name = 
  3 active torsions:
  status: ('A' for Active; 'I' for Inactive)
    1  A    between atoms: C_6  and  S_20
    2  A    between atoms: C_7  and  C_19
    3  A    between atoms: C_16  and  C_19
                            x       y       z     vdW  Elec       q    Type
                         _______ _______ _______ _____ _____    ______ ____

>  <TORSDO>
F 3

$$$$
