=
 OpenBabel10222417063D

 55 57  0  0  1  0  0  0  0  0999 V2000
  185.5050  178.4000  139.4450 N   0  0  0  0  0  0  0  0  0  0  0  0
  184.4380  178.3780  140.1870 C   0  0  0  0  0  0  0  0  0  0  0  0
  185.5550  179.6370  141.9320 C   0  0  0  0  0  2  0  0  0  0  0  0
  184.5130  178.8930  141.5600 C   0  0  0  0  0  0  0  0  0  0  0  0
  183.6030  178.3380  142.6010 C   0  0  0  0  0  2  0  0  0  0  0  0
  182.6040  179.2670  142.9160 O   0  0  0  0  0  0  0  0  0  0  0  0
  182.5320  179.2320  144.3120 C   0  0  0  0  0  2  0  0  0  0  0  0
  183.6860  178.4190  144.8660 C   0  0  0  0  0  2  0  0  0  0  0  0
  184.0590  178.9220  146.1800 N   0  0  0  0  0  2  0  0  0  0  0  0
  185.2170  178.1590  146.6010 C   0  0  0  0  0  2  0  0  0  0  0  0
  186.4220  178.5880  145.7840 C   0  0  0  0  0  2  0  0  0  0  0  0
  189.5810  177.4620  145.6710 C   0  0  1  0  0  3  0  0  0  0  0  0
  189.9710  177.1420  144.2150 C   0  0  1  0  0  3  0  0  0  0  0  0
  188.7790  176.9900  143.2600 C   0  0  2  0  0  3  0  0  0  0  0  0
  188.2270  176.8540  146.0360 C   0  0  0  0  0  2  0  0  0  0  0  0
  187.5620  177.7860  143.7340 C   0  0  0  0  0  2  0  0  0  0  0  0
  188.4520  175.6360  143.1160 O   0  0  0  0  0  1  0  0  0  0  0  0
  187.0940  177.3890  145.1420 C   0  0  2  0  0  3  0  0  0  0  0  0
  192.5620  175.5720  146.9920 O   0  0  0  0  0  1  0  0  0  0  0  0
  190.6440  176.9920  146.6090 C   0  0  0  0  0  0  0  0  0  0  0  0
  191.6090  176.0450  146.1550 N   0  0  0  0  0  2  0  0  0  0  0  0
  190.6690  177.4050  147.8020 O   0  0  0  0  0  0  0  0  0  0  0  0
  190.7860  179.3750  143.9410 O   0  0  0  0  0  0  0  0  0  0  0  0
  190.9410  178.1480  143.6880 C   0  0  0  0  0  0  0  0  0  0  0  0
  192.0220  177.7120  142.9210 O   0  0  0  0  0  0  0  0  0  0  0  0
  191.8830  177.4010  141.5430 C   0  0  0  0  0  1  0  0  0  0  0  0
  183.1430  177.8080  139.6840 C   0  0  0  0  0  2  0  0  0  0  0  0
  181.4630  180.0910  137.1710 C   0  0  0  0  0  3  0  0  0  0  0  0
  182.2600  178.8610  139.1020 C   0  0  0  0  0  0  0  0  0  0  0  0
  182.2790  179.0980  137.7240 C   0  0  0  0  0  3  0  0  0  0  0  0
  181.4310  179.6290  139.9290 C   0  0  0  0  0  3  0  0  0  0  0  0
  180.6160  180.6220  139.3760 C   0  0  0  0  0  3  0  0  0  0  0  0
  180.6310  180.8570  137.9930 C   0  0  0  0  0  0  0  0  0  0  0  0
  180.2530  182.7120  136.5000 N   0  0  0  0  0  0  0  0  0  0  0  0
  179.7860  181.8900  137.3860 C   0  0  0  0  0  3  0  0  0  0  0  0
  179.4440  183.7280  135.9030 C   0  0  0  0  0  0  0  0  0  0  0  0
  178.9390  184.8470  136.7400 C   0  0  0  0  0  1  0  0  0  0  0  0
  179.1500  183.6870  134.6770 O   0  0  0  0  0  0  0  0  0  0  0  0
  185.5900  177.8880  138.0790 C   0  0  0  0  0  2  0  0  0  0  0  0
  186.6110  178.6770  137.2830 C   0  0  0  0  0  2  0  0  0  0  0  0
  186.8780  177.9720  135.9660 C   0  0  0  0  0  2  0  0  0  0  0  0
  189.2290  177.4490  136.7380 C   0  0  0  0  0  0  0  0  0  0  0  0
  189.3510  178.6100  137.2170 O   0  0  0  0  0  0  0  0  0  0  0  0
  188.0030  177.0590  136.1140 N   0  0  0  0  0  2  0  0  0  0  0  0
  192.5500  176.0500  137.9090 C   0  0  0  0  0  0  0  0  0  0  0  0
  190.3380  176.4850  136.8520 C   0  0  0  0  0  0  0  0  0  0  0  0
  192.6240  174.6500  137.8860 O   0  0  0  0  0  0  0  0  0  0  0  0
  190.0400  172.9290  136.0010 O   0  0  0  0  0  1  0  0  0  0  0  0
  190.3200  175.2870  135.9580 C   0  0  0  0  0  2  0  0  0  0  0  0
  191.3540  176.7930  137.6070 N   0  0  0  0  0  0  0  0  0  0  0  0
  190.5810  174.0000  136.7150 C   0  0  2  0  0  3  0  0  0  0  0  0
  192.0760  173.7890  136.8950 C   0  0  1  0  0  3  0  0  0  0  0  0
  193.5350  176.6810  138.3730 O   0  0  0  0  0  0  0  0  0  0  0  0
  193.4640  172.6370  135.3110 O   0  0  0  0  0  1  0  0  0  0  0  0
  192.8670  173.8690  135.5880 C   0  0  0  0  0  2  0  0  0  0  0  0
  1  2  2  0  0  0  0
  2  4  1  0  0  0  0
  4  3  2  0  0  0  0
  4  5  1  0  0  0  0
  5  6  1  0  0  0  0
  6  7  1  0  0  0  0
  7  8  1  0  0  0  0
  8  9  1  0  0  0  0
  9 10  1  0  0  0  0
 11 10  1  0  0  0  0
 12 15  1  0  0  0  0
 12 20  1  1  0  0  0
 13 24  1  6  0  0  0
 13 12  1  0  0  0  0
 14 17  1  1  0  0  0
 14 16  1  0  0  0  0
 14 13  1  0  0  0  0
 16 18  1  0  0  0  0
 18 11  1  1  0  0  0
 18 15  1  0  0  0  0
 20 22  2  0  0  0  0
 21 20  1  0  0  0  0
 21 19  1  0  0  0  0
 24 23  2  0  0  0  0
 25 24  1  0  0  0  0
 26 25  1  0  0  0  0
 27  2  1  0  0  0  0
 28 30  2  0  0  0  0
 28 33  1  0  0  0  0
 29 27  1  0  0  0  0
 29 31  2  0  0  0  0
 30 29  1  0  0  0  0
 32 31  1  0  0  0  0
 33 32  2  0  0  0  0
 34 35  2  0  0  0  0
 35 33  1  0  0  0  0
 36 34  1  0  0  0  0
 36 37  1  0  0  0  0
 38 36  2  0  0  0  0
 39  1  1  0  0  0  0
 40 39  1  0  0  0  0
 41 44  1  0  0  0  0
 41 40  1  0  0  0  0
 42 46  1  0  0  0  0
 42 43  2  0  0  0  0
 44 42  1  0  0  0  0
 45 53  2  0  0  0  0
 46 50  2  0  0  0  0
 47 45  1  0  0  0  0
 49 51  1  0  0  0  0
 49 46  1  0  0  0  0
 50 45  1  0  0  0  0
 51 48  1  6  0  0  0
 51 52  1  0  0  0  0
 52 55  1  6  0  0  0
 52 47  1  0  0  0  0
 54 55  1  0  0  0  0
M  END
>  <MODEL>
1

>  <REMARK>
 VINA RESULT:      -7.2      0.000      0.000
  Name = 
  22 active torsions:
  status: ('A' for Active; 'I' for Inactive)
    1  A    between atoms: C_1  and  N_6
    2  A    between atoms: C_2  and  C_18
    3  A    between atoms: C_2  and  C_20
    4  A    between atoms: C_4  and  C_19
    5  A    between atoms: O_8  and  C_15
    6  A    between atoms: O_8  and  C_45
    7  A    between atoms: N_9  and  C_20
    8  A    between atoms: C_10  and  C_15
    9  A    between atoms: C_10  and  N_55
   10  A    between atoms: C_11  and  C_30
   11  A    between atoms: C_12  and  C_37
   12  A    between atoms: C_16  and  C_54
   13  A    between atoms: C_18  and  N_33
   14  A    between atoms: O_22  and  C_37
   15  A    between atoms: C_28  and  C_53
   16  A    between atoms: C_36  and  C_41
   17  A    between atoms: C_36  and  N_55
   18  A    between atoms: C_41  and  C_49
   19  A    between atoms: C_45  and  C_52
   20  A    between atoms: C_46  and  C_52
   21  A    between atoms: C_46  and  C_54
   22  A    between atoms: C_48  and  C_50
                            x       y       z     vdW  Elec       q    Type
                         _______ _______ _______ _____ _____    ______ ____

>  <TORSDO>
F 22

$$$$
=
 OpenBabel10222417063D

 55 57  0  0  1  0  0  0  0  0999 V2000
  185.1040  179.5080  141.9100 N   0  0  0  0  0  0  0  0  0  0  0  0
  185.0280  178.8550  143.0320 C   0  0  0  0  0  0  0  0  0  0  0  0
  185.2160  179.6880  145.3010 C   0  0  0  0  0  2  0  0  0  0  0  0
  184.4670  179.5270  144.2100 C   0  0  0  0  0  0  0  0  0  0  0  0
  182.9950  179.7470  144.2960 C   0  0  0  0  0  2  0  0  0  0  0  0
  182.3100  178.5610  144.0050 O   0  0  0  0  0  0  0  0  0  0  0  0
  181.3140  178.9530  143.1050 C   0  0  0  0  0  2  0  0  0  0  0  0
  179.9610  178.4780  143.5980 C   0  0  0  0  0  2  0  0  0  0  0  0
  179.2870  177.7300  142.5470 N   0  0  0  0  0  2  0  0  0  0  0  0
  180.0630  177.9240  141.3380 C   0  0  0  0  0  2  0  0  0  0  0  0
  180.1110  176.6210  140.5610 C   0  0  0  0  0  2  0  0  0  0  0  0
  180.7930  174.7390  137.8680 C   0  0  1  0  0  3  0  0  0  0  0  0
  181.7910  175.4750  136.9540 C   0  0  1  0  0  3  0  0  0  0  0  0
  181.9040  176.9810  137.2240 C   0  0  2  0  0  3  0  0  0  0  0  0
  179.6400  175.6510  138.2880 C   0  0  0  0  0  2  0  0  0  0  0  0
  181.5480  177.3310  138.6690 C   0  0  0  0  0  2  0  0  0  0  0  0
  181.0850  177.6890  136.3340 O   0  0  0  0  0  1  0  0  0  0  0  0
  180.1340  176.8830  139.0670 C   0  0  2  0  0  3  0  0  0  0  0  0
  179.8640  172.3230  135.1270 O   0  0  0  0  0  1  0  0  0  0  0  0
  180.2780  173.5110  137.1920 C   0  0  0  0  0  0  0  0  0  0  0  0
  180.3560  173.4090  135.7720 N   0  0  0  0  0  2  0  0  0  0  0  0
  179.7500  172.5850  137.8690 O   0  0  0  0  0  0  0  0  0  0  0  0
  183.7620  174.7480  138.0990 O   0  0  0  0  0  0  0  0  0  0  0  0
  183.1380  174.8310  137.0050 C   0  0  0  0  0  0  0  0  0  0  0  0
  183.6900  174.3160  135.8310 O   0  0  0  0  0  0  0  0  0  0  0  0
  185.0480  174.5390  135.4840 C   0  0  0  0  0  1  0  0  0  0  0  0
  185.5340  177.4470  143.1580 C   0  0  0  0  0  2  0  0  0  0  0  0
  188.0980  177.0490  145.9180 C   0  0  0  0  0  3  0  0  0  0  0  0
  186.8430  177.3890  143.8720 C   0  0  0  0  0  0  0  0  0  0  0  0
  186.8760  177.0950  145.2380 C   0  0  0  0  0  3  0  0  0  0  0  0
  188.0370  177.6500  143.1870 C   0  0  0  0  0  3  0  0  0  0  0  0
  189.2580  177.6040  143.8670 C   0  0  0  0  0  3  0  0  0  0  0  0
  189.2920  177.3050  145.2370 C   0  0  0  0  0  0  0  0  0  0  0  0
  190.6320  176.7180  147.1540 N   0  0  0  0  0  0  0  0  0  0  0  0
  190.5580  177.2490  145.9740 C   0  0  0  0  0  3  0  0  0  0  0  0
  191.8580  176.6610  147.8870 C   0  0  0  0  0  0  0  0  0  0  0  0
  192.7520  175.4850  147.7250 C   0  0  0  0  0  1  0  0  0  0  0  0
  192.1890  177.5910  148.6710 O   0  0  0  0  0  0  0  0  0  0  0  0
  185.6730  178.9850  140.6700 C   0  0  0  0  0  2  0  0  0  0  0  0
  184.6440  179.0300  139.5570 C   0  0  0  0  0  2  0  0  0  0  0  0
  185.3120  178.6890  138.2380 C   0  0  0  0  0  2  0  0  0  0  0  0
  187.7820  178.3550  137.8030 C   0  0  0  0  0  0  0  0  0  0  0  0
  187.7840  179.3080  136.9760 O   0  0  0  0  0  0  0  0  0  0  0  0
  186.5750  178.0070  138.4870 N   0  0  0  0  0  2  0  0  0  0  0  0
  190.6790  177.0370  139.8580 C   0  0  0  0  0  0  0  0  0  0  0  0
  189.0290  177.6240  138.0890 C   0  0  0  0  0  0  0  0  0  0  0  0
  191.2460  175.8550  139.3610 O   0  0  0  0  0  0  0  0  0  0  0  0
  190.3510  174.9440  135.9610 O   0  0  0  0  0  1  0  0  0  0  0  0
  189.7740  177.0310  136.9360 C   0  0  0  0  0  2  0  0  0  0  0  0
  189.5060  177.6590  139.3010 N   0  0  0  0  0  0  0  0  0  0  0  0
  190.1670  175.5890  137.1860 C   0  0  2  0  0  3  0  0  0  0  0  0
  191.4540  175.5260  137.9930 C   0  0  1  0  0  3  0  0  0  0  0  0
  191.1250  177.4880  140.9450 O   0  0  0  0  0  0  0  0  0  0  0  0
  193.5440  176.6440  138.3720 O   0  0  0  0  0  1  0  0  0  0  0  0
  192.5950  176.3470  137.3900 C   0  0  0  0  0  2  0  0  0  0  0  0
  1  2  2  0  0  0  0
  2 27  1  0  0  0  0
  2  4  1  0  0  0  0
  4  5  1  0  0  0  0
  4  3  2  0  0  0  0
  6  5  1  0  0  0  0
  7  8  1  0  0  0  0
  7  6  1  0  0  0  0
  9  8  1  0  0  0  0
 10  9  1  0  0  0  0
 11 10  1  0  0  0  0
 12 20  1  6  0  0  0
 12 15  1  0  0  0  0
 13 24  1  1  0  0  0
 13 14  1  0  0  0  0
 13 12  1  0  0  0  0
 14 17  1  6  0  0  0
 14 16  1  0  0  0  0
 15 18  1  0  0  0  0
 16 18  1  0  0  0  0
 18 11  1  1  0  0  0
 19 21  1  0  0  0  0
 20 22  2  0  0  0  0
 21 20  1  0  0  0  0
 24 23  2  0  0  0  0
 25 24  1  0  0  0  0
 26 25  1  0  0  0  0
 27 29  1  0  0  0  0
 29 30  2  0  0  0  0
 30 28  1  0  0  0  0
 31 32  2  0  0  0  0
 31 29  1  0  0  0  0
 32 33  1  0  0  0  0
 33 28  2  0  0  0  0
 33 35  1  0  0  0  0
 34 36  1  0  0  0  0
 35 34  2  0  0  0  0
 36 38  2  0  0  0  0
 37 36  1  0  0  0  0
 39  1  1  0  0  0  0
 40 39  1  0  0  0  0
 41 44  1  0  0  0  0
 41 40  1  0  0  0  0
 42 46  1  0  0  0  0
 42 44  1  0  0  0  0
 43 42  2  0  0  0  0
 45 53  2  0  0  0  0
 46 50  2  0  0  0  0
 47 45  1  0  0  0  0
 49 51  1  0  0  0  0
 49 46  1  0  0  0  0
 50 45  1  0  0  0  0
 51 48  1  6  0  0  0
 51 52  1  0  0  0  0
 52 55  1  6  0  0  0
 52 47  1  0  0  0  0
 55 54  1  0  0  0  0
M  END
>  <MODEL>
2

>  <REMARK>
 VINA RESULT:      -7.2      3.457      9.279
  Name = 
  22 active torsions:
  status: ('A' for Active; 'I' for Inactive)
    1  A    between atoms: C_1  and  N_6
    2  A    between atoms: C_2  and  C_18
    3  A    between atoms: C_2  and  C_20
    4  A    between atoms: C_4  and  C_19
    5  A    between atoms: O_8  and  C_15
    6  A    between atoms: O_8  and  C_45
    7  A    between atoms: N_9  and  C_20
    8  A    between atoms: C_10  and  C_15
    9  A    between atoms: C_10  and  N_55
   10  A    between atoms: C_11  and  C_30
   11  A    between atoms: C_12  and  C_37
   12  A    between atoms: C_16  and  C_54
   13  A    between atoms: C_18  and  N_33
   14  A    between atoms: O_22  and  C_37
   15  A    between atoms: C_28  and  C_53
   16  A    between atoms: C_36  and  C_41
   17  A    between atoms: C_36  and  N_55
   18  A    between atoms: C_41  and  C_49
   19  A    between atoms: C_45  and  C_52
   20  A    between atoms: C_46  and  C_52
   21  A    between atoms: C_46  and  C_54
   22  A    between atoms: C_48  and  C_50
                            x       y       z     vdW  Elec       q    Type
                         _______ _______ _______ _____ _____    ______ ____

>  <TORSDO>
F 22

$$$$
=
 OpenBabel10222417063D

 55 57  0  0  1  0  0  0  0  0999 V2000
  188.6480  177.4550  140.4350 N   0  0  0  0  0  0  0  0  0  0  0  0
  188.8050  177.7430  141.6930 C   0  0  0  0  0  0  0  0  0  0  0  0
  187.7930  176.2210  143.2870 C   0  0  0  0  0  2  0  0  0  0  0  0
  187.7440  177.3880  142.6440 C   0  0  0  0  0  0  0  0  0  0  0  0
  186.4790  178.1780  142.6570 C   0  0  0  0  0  2  0  0  0  0  0  0
  185.7610  177.9210  143.8310 O   0  0  0  0  0  0  0  0  0  0  0  0
  184.9170  179.0280  143.9660 C   0  0  0  0  0  2  0  0  0  0  0  0
  183.9930  178.8280  145.1500 C   0  0  0  0  0  2  0  0  0  0  0  0
  182.6130  178.7480  144.6930 N   0  0  0  0  0  2  0  0  0  0  0  0
  182.5490  179.4780  143.4420 C   0  0  0  0  0  2  0  0  0  0  0  0
  181.1540  179.3510  142.8600 C   0  0  0  0  0  2  0  0  0  0  0  0
  182.3430  179.1490  139.7290 C   0  0  1  0  0  3  0  0  0  0  0  0
  181.2300  178.6740  138.7760 C   0  0  1  0  0  3  0  0  0  0  0  0
  180.0350  178.0130  139.4780 C   0  0  2  0  0  3  0  0  0  0  0  0
  182.4260  178.2710  140.9770 C   0  0  0  0  0  2  0  0  0  0  0  0
  179.8670  178.5150  140.9130 C   0  0  0  0  0  2  0  0  0  0  0  0
  180.1820  176.6200  139.4610 O   0  0  0  0  0  1  0  0  0  0  0  0
  181.1140  178.2860  141.7810 C   0  0  2  0  0  3  0  0  0  0  0  0
  185.3060  178.0170  137.6930 O   0  0  0  0  0  1  0  0  0  0  0  0
  183.6550  179.1860  139.0170 C   0  0  0  0  0  0  0  0  0  0  0  0
  184.1040  178.0280  138.3160 N   0  0  0  0  0  2  0  0  0  0  0  0
  184.3760  180.2210  139.0620 O   0  0  0  0  0  0  0  0  0  0  0  0
  179.9200  180.6220  138.3130 O   0  0  0  0  0  0  0  0  0  0  0  0
  180.7690  179.7870  137.8930 C   0  0  0  0  0  0  0  0  0  0  0  0
  181.2960  179.8960  136.6060 O   0  0  0  0  0  0  0  0  0  0  0  0
  180.5180  180.3720  135.5180 C   0  0  0  0  0  1  0  0  0  0  0  0
  190.0280  178.4590  142.1890 C   0  0  0  0  0  2  0  0  0  0  0  0
  191.8860  176.0930  144.4910 C   0  0  0  0  0  3  0  0  0  0  0  0
  190.5750  177.8330  143.4280 C   0  0  0  0  0  0  0  0  0  0  0  0
  191.3790  176.6930  143.3330 C   0  0  0  0  0  3  0  0  0  0  0  0
  190.2690  178.3670  144.6860 C   0  0  0  0  0  3  0  0  0  0  0  0
  190.7770  177.7660  145.8440 C   0  0  0  0  0  3  0  0  0  0  0  0
  191.5860  176.6250  145.7490 C   0  0  0  0  0  0  0  0  0  0  0  0
  192.5000  176.6630  147.9800 N   0  0  0  0  0  0  0  0  0  0  0  0
  192.1330  175.9760  146.9450 C   0  0  0  0  0  3  0  0  0  0  0  0
  193.0390  176.0450  149.1510 C   0  0  0  0  0  0  0  0  0  0  0  0
  193.7480  176.8790  150.1570 C   0  0  0  0  0  1  0  0  0  0  0  0
  192.9240  174.8050  149.3420 O   0  0  0  0  0  0  0  0  0  0  0  0
  189.5970  177.7820  139.3740 C   0  0  0  0  0  2  0  0  0  0  0  0
  190.2700  176.5220  138.8620 C   0  0  0  0  0  2  0  0  0  0  0  0
  190.7550  176.7500  137.4430 C   0  0  0  0  0  2  0  0  0  0  0  0
  193.2190  176.1810  137.5030 C   0  0  0  0  0  0  0  0  0  0  0  0
  193.4720  177.2550  138.1150 O   0  0  0  0  0  0  0  0  0  0  0  0
  191.8700  175.8590  137.1540 N   0  0  0  0  0  2  0  0  0  0  0  0
  196.4850  174.9930  135.9940 C   0  0  0  0  0  0  0  0  0  0  0  0
  194.3100  175.2450  137.1770 C   0  0  0  0  0  0  0  0  0  0  0  0
  197.0740  173.9180  136.6730 O   0  0  0  0  0  0  0  0  0  0  0  0
  194.9610  172.1530  139.0410 O   0  0  0  0  0  1  0  0  0  0  0  0
  194.1340  173.8080  137.5520 C   0  0  0  0  0  2  0  0  0  0  0  0
  195.2990  175.6730  136.4470 N   0  0  0  0  0  0  0  0  0  0  0  0
  195.3480  173.2480  138.2660 C   0  0  2  0  0  3  0  0  0  0  0  0
  196.3980  172.8110  137.2560 C   0  0  1  0  0  3  0  0  0  0  0  0
  197.1160  175.4910  135.0250 O   0  0  0  0  0  0  0  0  0  0  0  0
  196.4550  172.1390  134.9530 O   0  0  0  0  0  1  0  0  0  0  0  0
  195.8590  171.8610  136.1850 C   0  0  0  0  0  2  0  0  0  0  0  0
  1  2  2  0  0  0  0
  2 27  1  0  0  0  0
  2  4  1  0  0  0  0
  4  5  1  0  0  0  0
  4  3  2  0  0  0  0
  5  6  1  0  0  0  0
  6  7  1  0  0  0  0
  7  8  1  0  0  0  0
  9  8  1  0  0  0  0
 10  9  1  0  0  0  0
 11 10  1  0  0  0  0
 12 20  1  6  0  0  0
 12 15  1  0  0  0  0
 13 24  1  1  0  0  0
 13 14  1  0  0  0  0
 13 12  1  0  0  0  0
 14 17  1  1  0  0  0
 14 16  1  0  0  0  0
 15 18  1  0  0  0  0
 16 18  1  0  0  0  0
 18 11  1  1  0  0  0
 19 21  1  0  0  0  0
 20 22  2  0  0  0  0
 21 20  1  0  0  0  0
 24 23  2  0  0  0  0
 25 24  1  0  0  0  0
 26 25  1  0  0  0  0
 27 29  1  0  0  0  0
 28 33  1  0  0  0  0
 29 31  2  0  0  0  0
 30 29  1  0  0  0  0
 30 28  2  0  0  0  0
 31 32  1  0  0  0  0
 33 32  2  0  0  0  0
 33 35  1  0  0  0  0
 34 36  1  0  0  0  0
 35 34  2  0  0  0  0
 36 38  2  0  0  0  0
 36 37  1  0  0  0  0
 39  1  1  0  0  0  0
 40 39  1  0  0  0  0
 41 40  1  0  0  0  0
 42 43  2  0  0  0  0
 44 41  1  0  0  0  0
 44 42  1  0  0  0  0
 45 50  1  0  0  0  0
 45 47  1  0  0  0  0
 46 42  1  0  0  0  0
 46 49  1  0  0  0  0
 47 52  1  0  0  0  0
 49 51  1  0  0  0  0
 50 46  2  0  0  0  0
 51 48  1  6  0  0  0
 52 55  1  6  0  0  0
 52 51  1  0  0  0  0
 53 45  2  0  0  0  0
 54 55  1  0  0  0  0
M  END
>  <MODEL>
3

>  <REMARK>
 VINA RESULT:      -6.8      2.791      9.558
  Name = 
  22 active torsions:
  status: ('A' for Active; 'I' for Inactive)
    1  A    between atoms: C_1  and  N_6
    2  A    between atoms: C_2  and  C_18
    3  A    between atoms: C_2  and  C_20
    4  A    between atoms: C_4  and  C_19
    5  A    between atoms: O_8  and  C_15
    6  A    between atoms: O_8  and  C_45
    7  A    between atoms: N_9  and  C_20
    8  A    between atoms: C_10  and  C_15
    9  A    between atoms: C_10  and  N_55
   10  A    between atoms: C_11  and  C_30
   11  A    between atoms: C_12  and  C_37
   12  A    between atoms: C_16  and  C_54
   13  A    between atoms: C_18  and  N_33
   14  A    between atoms: O_22  and  C_37
   15  A    between atoms: C_28  and  C_53
   16  A    between atoms: C_36  and  C_41
   17  A    between atoms: C_36  and  N_55
   18  A    between atoms: C_41  and  C_49
   19  A    between atoms: C_45  and  C_52
   20  A    between atoms: C_46  and  C_52
   21  A    between atoms: C_46  and  C_54
   22  A    between atoms: C_48  and  C_50
                            x       y       z     vdW  Elec       q    Type
                         _______ _______ _______ _____ _____    ______ ____

>  <TORSDO>
F 22

$$$$
=
 OpenBabel10222417063D

 55 57  0  0  1  0  0  0  0  0999 V2000
  188.2940  177.6520  140.8680 N   0  0  0  0  0  0  0  0  0  0  0  0
  188.3040  178.0090  142.1180 C   0  0  0  0  0  0  0  0  0  0  0  0
  187.0700  176.5170  143.5770 C   0  0  0  0  0  2  0  0  0  0  0  0
  187.1420  177.6960  142.9580 C   0  0  0  0  0  0  0  0  0  0  0  0
  185.9250  178.5530  142.8730 C   0  0  0  0  0  2  0  0  0  0  0  0
  184.8920  178.0040  143.6440 O   0  0  0  0  0  0  0  0  0  0  0  0
  184.2950  179.1110  144.2530 C   0  0  0  0  0  2  0  0  0  0  0  0
  182.8010  178.8830  144.3820 C   0  0  0  0  0  2  0  0  0  0  0  0
  182.1020  179.5630  143.3020 N   0  0  0  0  0  2  0  0  0  0  0  0
  180.9660  178.7320  142.9560 C   0  0  0  0  0  2  0  0  0  0  0  0
  181.1410  178.2090  141.5420 C   0  0  0  0  0  2  0  0  0  0  0  0
  181.8090  178.7710  138.3020 C   0  0  1  0  0  3  0  0  0  0  0  0
  183.2960  178.4910  138.0180 C   0  0  1  0  0  3  0  0  0  0  0  0
  184.1830  178.4530  139.2700 C   0  0  2  0  0  3  0  0  0  0  0  0
  181.6300  179.6510  139.5390 C   0  0  0  0  0  2  0  0  0  0  0  0
  183.3930  178.0570  140.5180 C   0  0  0  0  0  2  0  0  0  0  0  0
  184.8000  179.6970  139.4570 O   0  0  0  0  0  1  0  0  0  0  0  0
  182.2090  178.9930  140.8040 C   0  0  2  0  0  3  0  0  0  0  0  0
  180.4970  181.4110  135.9530 O   0  0  0  0  0  1  0  0  0  0  0  0
  181.1610  179.3950  137.1100 C   0  0  0  0  0  0  0  0  0  0  0  0
  181.1100  180.8160  137.0040 N   0  0  0  0  0  2  0  0  0  0  0  0
  180.6340  178.6710  136.2190 O   0  0  0  0  0  0  0  0  0  0  0  0
  183.9530  177.2860  136.0580 O   0  0  0  0  0  0  0  0  0  0  0  0
  183.4620  177.2390  137.2200 C   0  0  0  0  0  0  0  0  0  0  0  0
  183.0760  176.0200  137.7800 O   0  0  0  0  0  0  0  0  0  0  0  0
  183.7690  174.8150  137.4950 C   0  0  0  0  0  1  0  0  0  0  0  0
  189.4590  178.7650  142.7100 C   0  0  0  0  0  2  0  0  0  0  0  0
  189.8220  177.6330  146.3070 C   0  0  0  0  0  3  0  0  0  0  0  0
  189.9920  178.0970  143.9330 C   0  0  0  0  0  0  0  0  0  0  0  0
  189.3230  178.2470  145.1520 C   0  0  0  0  0  3  0  0  0  0  0  0
  191.1690  177.3410  143.8730 C   0  0  0  0  0  3  0  0  0  0  0  0
  191.6670  176.7280  145.0280 C   0  0  0  0  0  3  0  0  0  0  0  0
  190.9950  176.8750  146.2500 C   0  0  0  0  0  0  0  0  0  0  0  0
  192.6290  176.5840  148.0000 N   0  0  0  0  0  0  0  0  0  0  0  0
  191.4940  176.2430  147.4760 C   0  0  0  0  0  3  0  0  0  0  0  0
  193.1310  175.9730  149.1910 C   0  0  0  0  0  0  0  0  0  0  0  0
  193.9170  176.7870  150.1540 C   0  0  0  0  0  1  0  0  0  0  0  0
  192.9190  174.7550  149.4350 O   0  0  0  0  0  0  0  0  0  0  0  0
  189.3570  177.9290  139.9060 C   0  0  0  0  0  2  0  0  0  0  0  0
  189.8690  176.6370  139.2980 C   0  0  0  0  0  2  0  0  0  0  0  0
  190.7720  176.9560  138.1210 C   0  0  0  0  0  2  0  0  0  0  0  0
  192.7910  175.6460  137.3430 C   0  0  0  0  0  0  0  0  0  0  0  0
  192.2760  175.4920  136.2020 O   0  0  0  0  0  0  0  0  0  0  0  0
  192.0950  176.3900  138.3460 N   0  0  0  0  0  2  0  0  0  0  0  0
  195.8710  174.8000  139.3810 C   0  0  0  0  0  0  0  0  0  0  0  0
  194.1250  175.0870  137.6310 C   0  0  0  0  0  0  0  0  0  0  0  0
  196.5680  173.6710  138.9280 O   0  0  0  0  0  0  0  0  0  0  0  0
  195.7190  172.4780  135.6040 O   0  0  0  0  0  1  0  0  0  0  0  0
  194.9120  174.5290  136.4890 C   0  0  0  0  0  2  0  0  0  0  0  0
  194.6190  175.2440  138.8250 N   0  0  0  0  0  0  0  0  0  0  0  0
  195.4840  173.1600  136.8000 C   0  0  2  0  0  3  0  0  0  0  0  0
  196.7860  173.2970  137.5730 C   0  0  1  0  0  3  0  0  0  0  0  0
  196.2820  175.3590  140.4310 O   0  0  0  0  0  0  0  0  0  0  0  0
  198.0990  175.3000  137.7310 O   0  0  0  0  0  1  0  0  0  0  0  0
  197.8050  174.2170  136.8980 C   0  0  0  0  0  2  0  0  0  0  0  0
  1  2  2  0  0  0  0
  2 27  1  0  0  0  0
  2  4  1  0  0  0  0
  4  3  2  0  0  0  0
  5  4  1  0  0  0  0
  5  6  1  0  0  0  0
  6  7  1  0  0  0  0
  7  8  1  0  0  0  0
  9  8  1  0  0  0  0
 10  9  1  0  0  0  0
 11 10  1  0  0  0  0
 12 20  1  6  0  0  0
 12 15  1  0  0  0  0
 13 24  1  1  0  0  0
 13 12  1  0  0  0  0
 13 14  1  0  0  0  0
 14 17  1  1  0  0  0
 14 16  1  0  0  0  0
 15 18  1  0  0  0  0
 16 18  1  0  0  0  0
 18 11  1  6  0  0  0
 19 21  1  0  0  0  0
 21 20  1  0  0  0  0
 22 20  2  0  0  0  0
 23 24  2  0  0  0  0
 24 25  1  0  0  0  0
 26 25  1  0  0  0  0
 27 29  1  0  0  0  0
 29 30  1  0  0  0  0
 30 28  2  0  0  0  0
 31 29  2  0  0  0  0
 31 32  1  0  0  0  0
 32 33  2  0  0  0  0
 33 28  1  0  0  0  0
 33 35  1  0  0  0  0
 34 36  1  0  0  0  0
 35 34  2  0  0  0  0
 36 38  2  0  0  0  0
 36 37  1  0  0  0  0
 39  1  1  0  0  0  0
 40 39  1  0  0  0  0
 41 44  1  0  0  0  0
 41 40  1  0  0  0  0
 42 46  1  0  0  0  0
 42 44  1  0  0  0  0
 43 42  2  0  0  0  0
 45 53  2  0  0  0  0
 46 50  2  0  0  0  0
 47 45  1  0  0  0  0
 49 51  1  0  0  0  0
 49 46  1  0  0  0  0
 50 45  1  0  0  0  0
 51 48  1  6  0  0  0
 51 52  1  0  0  0  0
 52 55  1  6  0  0  0
 52 47  1  0  0  0  0
 55 54  1  0  0  0  0
M  END
>  <MODEL>
4

>  <REMARK>
 VINA RESULT:      -6.6      2.825      9.692
  Name = 
  22 active torsions:
  status: ('A' for Active; 'I' for Inactive)
    1  A    between atoms: C_1  and  N_6
    2  A    between atoms: C_2  and  C_18
    3  A    between atoms: C_2  and  C_20
    4  A    between atoms: C_4  and  C_19
    5  A    between atoms: O_8  and  C_15
    6  A    between atoms: O_8  and  C_45
    7  A    between atoms: N_9  and  C_20
    8  A    between atoms: C_10  and  C_15
    9  A    between atoms: C_10  and  N_55
   10  A    between atoms: C_11  and  C_30
   11  A    between atoms: C_12  and  C_37
   12  A    between atoms: C_16  and  C_54
   13  A    between atoms: C_18  and  N_33
   14  A    between atoms: O_22  and  C_37
   15  A    between atoms: C_28  and  C_53
   16  A    between atoms: C_36  and  C_41
   17  A    between atoms: C_36  and  N_55
   18  A    between atoms: C_41  and  C_49
   19  A    between atoms: C_45  and  C_52
   20  A    between atoms: C_46  and  C_52
   21  A    between atoms: C_46  and  C_54
   22  A    between atoms: C_48  and  C_50
                            x       y       z     vdW  Elec       q    Type
                         _______ _______ _______ _____ _____    ______ ____

>  <TORSDO>
F 22

$$$$
=
 OpenBabel10222417063D

 55 57  0  0  1  0  0  0  0  0999 V2000
  188.0510  177.6500  137.7470 N   0  0  0  0  0  0  0  0  0  0  0  0
  188.3320  176.9480  136.6890 C   0  0  0  0  0  0  0  0  0  0  0  0
  186.7600  175.8960  135.1740 C   0  0  0  0  0  2  0  0  0  0  0  0
  187.4470  175.8390  136.3140 C   0  0  0  0  0  0  0  0  0  0  0  0
  187.0870  174.8120  137.3340 C   0  0  0  0  0  2  0  0  0  0  0  0
  186.9080  173.5660  136.7230 O   0  0  0  0  0  0  0  0  0  0  0  0
  185.8140  173.0100  137.3930 C   0  0  0  0  0  2  0  0  0  0  0  0
  184.6750  172.7830  136.4190 C   0  0  0  0  0  2  0  0  0  0  0  0
  183.9050  174.0080  136.2650 N   0  0  0  0  0  2  0  0  0  0  0  0
  183.1810  174.2020  137.5060 C   0  0  0  0  0  2  0  0  0  0  0  0
  182.6500  175.6220  137.5590 C   0  0  0  0  0  2  0  0  0  0  0  0
  182.0720  178.2300  139.5890 C   0  0  1  0  0  3  0  0  0  0  0  0
  183.0530  179.3730  139.2650 C   0  0  1  0  0  3  0  0  0  0  0  0
  184.2820  178.9410  138.4530 C   0  0  2  0  0  3  0  0  0  0  0  0
  182.7960  176.8910  139.7260 C   0  0  0  0  0  2  0  0  0  0  0  0
  183.9980  177.7020  137.6020 C   0  0  0  0  0  2  0  0  0  0  0  0
  185.3640  178.7060  139.3110 O   0  0  0  0  0  1  0  0  0  0  0  0
  183.5290  176.4960  138.4310 C   0  0  2  0  0  3  0  0  0  0  0  0
  179.1490  178.9220  141.8660 O   0  0  0  0  0  1  0  0  0  0  0  0
  181.3000  178.5450  140.8270 C   0  0  0  0  0  0  0  0  0  0  0  0
  179.8760  178.6020  140.7680 N   0  0  0  0  0  2  0  0  0  0  0  0
  181.9020  178.7890  141.9100 O   0  0  0  0  0  0  0  0  0  0  0  0
  182.7660  181.6900  138.7380 O   0  0  0  0  0  0  0  0  0  0  0  0
  182.3510  180.5060  138.5910 C   0  0  0  0  0  0  0  0  0  0  0  0
  181.2400  180.2370  137.7910 O   0  0  0  0  0  0  0  0  0  0  0  0
  180.4830  181.2770  137.1900 C   0  0  0  0  0  1  0  0  0  0  0  0
  189.5580  177.2240  135.8660 C   0  0  0  0  0  2  0  0  0  0  0  0
  192.3780  175.9660  138.0600 C   0  0  0  0  0  3  0  0  0  0  0  0
  190.7350  176.4400  136.3420 C   0  0  0  0  0  0  0  0  0  0  0  0
  191.2680  176.6890  137.6100 C   0  0  0  0  0  3  0  0  0  0  0  0
  191.3230  175.4730  135.5170 C   0  0  0  0  0  3  0  0  0  0  0  0
  192.4340  174.7510  135.9660 C   0  0  0  0  0  3  0  0  0  0  0  0
  192.9670  174.9980  137.2400 C   0  0  0  0  0  0  0  0  0  0  0  0
  195.1730  174.8650  138.2030 N   0  0  0  0  0  0  0  0  0  0  0  0
  194.1290  174.2550  137.7380 C   0  0  0  0  0  3  0  0  0  0  0  0
  196.3160  174.1550  138.6870 C   0  0  0  0  0  0  0  0  0  0  0  0
  196.9980  173.1760  137.8000 C   0  0  0  0  0  1  0  0  0  0  0  0
  196.7520  174.3450  139.8540 O   0  0  0  0  0  0  0  0  0  0  0  0
  188.8580  178.7530  138.2620 C   0  0  0  0  0  2  0  0  0  0  0  0
  188.9340  178.6900  139.7760 C   0  0  0  0  0  2  0  0  0  0  0  0
  188.8890  177.2410  140.2230 C   0  0  0  0  0  2  0  0  0  0  0  0
  187.9340  177.7620  142.5070 C   0  0  0  0  0  0  0  0  0  0  0  0
  186.9430  178.3390  141.9820 O   0  0  0  0  0  0  0  0  0  0  0  0
  188.9380  177.1710  141.6770 N   0  0  0  0  0  2  0  0  0  0  0  0
  186.7510  177.5300  146.0980 C   0  0  0  0  0  0  0  0  0  0  0  0
  188.0410  177.6690  143.9740 C   0  0  0  0  0  0  0  0  0  0  0  0
  187.6670  176.9200  146.9670 O   0  0  0  0  0  0  0  0  0  0  0  0
  191.0600  176.5450  145.7280 O   0  0  0  0  0  1  0  0  0  0  0  0
  189.3970  177.8000  144.5880 C   0  0  0  0  0  2  0  0  0  0  0  0
  186.9440  177.6320  144.6750 N   0  0  0  0  0  0  0  0  0  0  0  0
  189.6800  176.7070  145.5990 C   0  0  2  0  0  3  0  0  0  0  0  0
  189.0810  177.0710  146.9490 C   0  0  1  0  0  3  0  0  0  0  0  0
  185.6310  177.8610  146.5670 O   0  0  0  0  0  0  0  0  0  0  0  0
  189.2630  178.5600  148.8230 O   0  0  0  0  0  1  0  0  0  0  0  0
  189.5000  178.4550  147.4510 C   0  0  0  0  0  2  0  0  0  0  0  0
  1 39  1  0  0  0  0
  2  1  2  0  0  0  0
  3  4  2  0  0  0  0
  4  2  1  0  0  0  0
  4  5  1  0  0  0  0
  6  5  1  0  0  0  0
  6  7  1  0  0  0  0
  8  7  1  0  0  0  0
  9  8  1  0  0  0  0
  9 10  1  0  0  0  0
 10 11  1  0  0  0  0
 12 15  1  0  0  0  0
 12 20  1  1  0  0  0
 13 24  1  6  0  0  0
 13 12  1  0  0  0  0
 14 13  1  0  0  0  0
 14 17  1  1  0  0  0
 16 18  1  0  0  0  0
 16 14  1  0  0  0  0
 18 11  1  6  0  0  0
 18 15  1  0  0  0  0
 20 22  2  0  0  0  0
 21 20  1  0  0  0  0
 21 19  1  0  0  0  0
 24 23  2  0  0  0  0
 25 24  1  0  0  0  0
 26 25  1  0  0  0  0
 27 29  1  0  0  0  0
 27  2  1  0  0  0  0
 29 30  2  0  0  0  0
 30 28  1  0  0  0  0
 31 32  2  0  0  0  0
 31 29  1  0  0  0  0
 32 33  1  0  0  0  0
 33 35  1  0  0  0  0
 33 28  2  0  0  0  0
 34 36  1  0  0  0  0
 35 34  2  0  0  0  0
 36 38  2  0  0  0  0
 37 36  1  0  0  0  0
 39 40  1  0  0  0  0
 40 41  1  0  0  0  0
 41 44  1  0  0  0  0
 42 46  1  0  0  0  0
 43 42  2  0  0  0  0
 44 42  1  0  0  0  0
 45 53  2  0  0  0  0
 45 47  1  0  0  0  0
 46 49  1  0  0  0  0
 46 50  2  0  0  0  0
 49 51  1  0  0  0  0
 50 45  1  0  0  0  0
 51 48  1  1  0  0  0
 51 52  1  0  0  0  0
 52 47  1  0  0  0  0
 52 55  1  6  0  0  0
 55 54  1  0  0  0  0
M  END
>  <MODEL>
5

>  <REMARK>
 VINA RESULT:      -6.6      2.980     10.866
  Name = 
  22 active torsions:
  status: ('A' for Active; 'I' for Inactive)
    1  A    between atoms: C_1  and  N_6
    2  A    between atoms: C_2  and  C_18
    3  A    between atoms: C_2  and  C_20
    4  A    between atoms: C_4  and  C_19
    5  A    between atoms: O_8  and  C_15
    6  A    between atoms: O_8  and  C_45
    7  A    between atoms: N_9  and  C_20
    8  A    between atoms: C_10  and  C_15
    9  A    between atoms: C_10  and  N_55
   10  A    between atoms: C_11  and  C_30
   11  A    between atoms: C_12  and  C_37
   12  A    between atoms: C_16  and  C_54
   13  A    between atoms: C_18  and  N_33
   14  A    between atoms: O_22  and  C_37
   15  A    between atoms: C_28  and  C_53
   16  A    between atoms: C_36  and  C_41
   17  A    between atoms: C_36  and  N_55
   18  A    between atoms: C_41  and  C_49
   19  A    between atoms: C_45  and  C_52
   20  A    between atoms: C_46  and  C_52
   21  A    between atoms: C_46  and  C_54
   22  A    between atoms: C_48  and  C_50
                            x       y       z     vdW  Elec       q    Type
                         _______ _______ _______ _____ _____    ______ ____

>  <TORSDO>
F 22

$$$$
=
 OpenBabel10222417063D

 55 57  0  0  1  0  0  0  0  0999 V2000
  187.6290  177.5520  136.3790 N   0  0  0  0  0  0  0  0  0  0  0  0
  187.5750  176.5100  135.6040 C   0  0  0  0  0  0  0  0  0  0  0  0
  185.4980  175.6400  134.7050 C   0  0  0  0  0  2  0  0  0  0  0  0
  186.4060  175.6250  135.6810 C   0  0  0  0  0  0  0  0  0  0  0  0
  186.0820  174.9510  136.9710 C   0  0  0  0  0  2  0  0  0  0  0  0
  184.9720  174.1110  136.8120 O   0  0  0  0  0  0  0  0  0  0  0  0
  184.0990  174.5020  137.8320 C   0  0  0  0  0  2  0  0  0  0  0  0
  182.6650  174.3780  137.3550 C   0  0  0  0  0  2  0  0  0  0  0  0
  182.3130  175.5340  136.5430 N   0  0  0  0  0  2  0  0  0  0  0  0
  181.6990  176.4960  137.4370 C   0  0  0  0  0  2  0  0  0  0  0  0
  180.8590  177.4650  136.6270 C   0  0  0  0  0  2  0  0  0  0  0  0
  181.9460  178.9360  139.4400 C   0  0  1  0  0  3  0  0  0  0  0  0
  181.0360  180.1280  139.7930 C   0  0  1  0  0  3  0  0  0  0  0  0
  180.1640  180.6240  138.6320 C   0  0  2  0  0  3  0  0  0  0  0  0
  182.3650  178.9670  137.9710 C   0  0  0  0  0  2  0  0  0  0  0  0
  179.8780  179.5160  137.6180 C   0  0  0  0  0  2  0  0  0  0  0  0
  180.7810  181.7140  138.0040 O   0  0  0  0  0  1  0  0  0  0  0  0
  181.1540  178.8990  137.0240 C   0  0  2  0  0  3  0  0  0  0  0  0
  185.4750  179.4630  140.6550 O   0  0  0  0  0  1  0  0  0  0  0  0
  183.1430  178.9140  140.3330 C   0  0  0  0  0  0  0  0  0  0  0  0
  184.3620  179.5000  139.8830 N   0  0  0  0  0  2  0  0  0  0  0  0
  183.0850  178.3540  141.4640 O   0  0  0  0  0  0  0  0  0  0  0  0
  180.3980  180.4190  142.0810 O   0  0  0  0  0  0  0  0  0  0  0  0
  180.1930  179.8210  140.9880 C   0  0  0  0  0  0  0  0  0  0  0  0
  179.1730  178.8750  140.8760 O   0  0  0  0  0  0  0  0  0  0  0  0
  179.3430  177.5370  141.3190 C   0  0  0  0  0  1  0  0  0  0  0  0
  188.6930  176.1720  134.6600 C   0  0  0  0  0  2  0  0  0  0  0  0
  192.2830  175.6700  135.7630 C   0  0  0  0  0  3  0  0  0  0  0  0
  189.8880  175.6450  135.3810 C   0  0  0  0  0  0  0  0  0  0  0  0
  191.1550  176.1670  135.1000 C   0  0  0  0  0  3  0  0  0  0  0  0
  189.7530  174.6140  136.3200 C   0  0  0  0  0  3  0  0  0  0  0  0
  190.8810  174.1180  136.9820 C   0  0  0  0  0  3  0  0  0  0  0  0
  192.1510  174.6440  136.7030 C   0  0  0  0  0  0  0  0  0  0  0  0
  194.1770  174.9470  137.9750 N   0  0  0  0  0  0  0  0  0  0  0  0
  193.3500  174.1440  137.3830 C   0  0  0  0  0  3  0  0  0  0  0  0
  195.3530  174.4750  138.6370 C   0  0  0  0  0  0  0  0  0  0  0  0
  195.8640  173.1120  138.3370 C   0  0  0  0  0  1  0  0  0  0  0  0
  195.9600  175.1970  139.4730 O   0  0  0  0  0  0  0  0  0  0  0  0
  188.7430  178.4960  136.4400 C   0  0  0  0  0  2  0  0  0  0  0  0
  189.1790  178.7050  137.8780 C   0  0  0  0  0  2  0  0  0  0  0  0
  188.8270  177.4750  138.6950 C   0  0  0  0  0  2  0  0  0  0  0  0
  189.7940  177.0750  140.9980 C   0  0  0  0  0  0  0  0  0  0  0  0
  190.5460  176.1680  140.5460 O   0  0  0  0  0  0  0  0  0  0  0  0
  188.9210  177.7840  140.1150 N   0  0  0  0  0  2  0  0  0  0  0  0
  190.9660  178.8440  144.1370 C   0  0  0  0  0  0  0  0  0  0  0  0
  189.8410  177.4250  142.4290 C   0  0  0  0  0  0  0  0  0  0  0  0
  189.9980  178.9230  145.1480 O   0  0  0  0  0  0  0  0  0  0  0  0
  187.0990  176.7670  144.7750 O   0  0  0  0  0  1  0  0  0  0  0  0
  189.0110  176.6180  143.3750 C   0  0  0  0  0  2  0  0  0  0  0  0
  190.7110  178.3100  142.8240 N   0  0  0  0  0  0  0  0  0  0  0  0
  188.2040  177.4880  144.3180 C   0  0  2  0  0  3  0  0  0  0  0  0
  189.0580  177.9160  145.5010 C   0  0  1  0  0  3  0  0  0  0  0  0
  192.0690  179.4160  144.3370 O   0  0  0  0  0  0  0  0  0  0  0  0
  190.2900  177.1830  147.4270 O   0  0  0  0  0  1  0  0  0  0  0  0
  189.7370  176.7480  146.2190 C   0  0  0  0  0  2  0  0  0  0  0  0
  1 39  1  0  0  0  0
  2  4  1  0  0  0  0
  2  1  2  0  0  0  0
  3  4  2  0  0  0  0
  4  5  1  0  0  0  0
  6  5  1  0  0  0  0
  6  7  1  0  0  0  0
  8  7  1  0  0  0  0
  9  8  1  0  0  0  0
  9 10  1  0  0  0  0
 11 10  1  0  0  0  0
 12 13  1  0  0  0  0
 12 20  1  1  0  0  0
 13 24  1  1  0  0  0
 14 17  1  6  0  0  0
 14 13  1  0  0  0  0
 15 12  1  0  0  0  0
 16 14  1  0  0  0  0
 18 11  1  1  0  0  0
 18 16  1  0  0  0  0
 18 15  1  0  0  0  0
 20 22  2  0  0  0  0
 21 20  1  0  0  0  0
 21 19  1  0  0  0  0
 24 23  2  0  0  0  0
 25 24  1  0  0  0  0
 25 26  1  0  0  0  0
 27 29  1  0  0  0  0
 27  2  1  0  0  0  0
 28 33  1  0  0  0  0
 29 31  2  0  0  0  0
 30 29  1  0  0  0  0
 30 28  2  0  0  0  0
 31 32  1  0  0  0  0
 33 32  2  0  0  0  0
 33 35  1  0  0  0  0
 34 36  1  0  0  0  0
 35 34  2  0  0  0  0
 36 38  2  0  0  0  0
 37 36  1  0  0  0  0
 39 40  1  0  0  0  0
 40 41  1  0  0  0  0
 41 44  1  0  0  0  0
 42 46  1  0  0  0  0
 43 42  2  0  0  0  0
 44 42  1  0  0  0  0
 45 53  2  0  0  0  0
 45 47  1  0  0  0  0
 46 50  2  0  0  0  0
 46 49  1  0  0  0  0
 47 52  1  0  0  0  0
 49 51  1  0  0  0  0
 50 45  1  0  0  0  0
 51 48  1  1  0  0  0
 51 52  1  0  0  0  0
 52 55  1  6  0  0  0
 55 54  1  0  0  0  0
M  END
>  <MODEL>
6

>  <REMARK>
 VINA RESULT:      -6.5      2.773     10.347
  Name = 
  22 active torsions:
  status: ('A' for Active; 'I' for Inactive)
    1  A    between atoms: C_1  and  N_6
    2  A    between atoms: C_2  and  C_18
    3  A    between atoms: C_2  and  C_20
    4  A    between atoms: C_4  and  C_19
    5  A    between atoms: O_8  and  C_15
    6  A    between atoms: O_8  and  C_45
    7  A    between atoms: N_9  and  C_20
    8  A    between atoms: C_10  and  C_15
    9  A    between atoms: C_10  and  N_55
   10  A    between atoms: C_11  and  C_30
   11  A    between atoms: C_12  and  C_37
   12  A    between atoms: C_16  and  C_54
   13  A    between atoms: C_18  and  N_33
   14  A    between atoms: O_22  and  C_37
   15  A    between atoms: C_28  and  C_53
   16  A    between atoms: C_36  and  C_41
   17  A    between atoms: C_36  and  N_55
   18  A    between atoms: C_41  and  C_49
   19  A    between atoms: C_45  and  C_52
   20  A    between atoms: C_46  and  C_52
   21  A    between atoms: C_46  and  C_54
   22  A    between atoms: C_48  and  C_50
                            x       y       z     vdW  Elec       q    Type
                         _______ _______ _______ _____ _____    ______ ____

>  <TORSDO>
F 22

$$$$
=
 OpenBabel10222417063D

 55 57  0  0  1  0  0  0  0  0999 V2000
  186.6260  178.3170  136.5760 N   0  0  0  0  0  0  0  0  0  0  0  0
  185.9270  177.5120  137.3190 C   0  0  0  0  0  0  0  0  0  0  0  0
  183.8530  178.7010  137.7240 C   0  0  0  0  0  2  0  0  0  0  0  0
  184.9180  178.0750  138.2250 C   0  0  0  0  0  0  0  0  0  0  0  0
  185.2340  178.2160  139.6750 C   0  0  0  0  0  2  0  0  0  0  0  0
  184.9370  179.5130  140.1110 O   0  0  0  0  0  0  0  0  0  0  0  0
  183.8160  179.3510  140.9300 C   0  0  0  0  0  2  0  0  0  0  0  0
  184.0860  178.2740  141.9630 C   0  0  0  0  0  2  0  0  0  0  0  0
  183.9410  178.8260  143.3020 N   0  0  0  0  0  2  0  0  0  0  0  0
  185.2210  179.4100  143.6500 C   0  0  0  0  0  2  0  0  0  0  0  0
  185.7300  178.7720  144.9300 C   0  0  0  0  0  2  0  0  0  0  0  0
  188.8600  177.7830  145.6240 C   0  0  1  0  0  3  0  0  0  0  0  0
  189.5430  177.2680  144.3430 C   0  0  1  0  0  3  0  0  0  0  0  0
  188.5730  176.9230  143.2040 C   0  0  2  0  0  3  0  0  0  0  0  0
  187.4690  177.1760  145.8010 C   0  0  0  0  0  2  0  0  0  0  0  0
  187.2750  177.7260  143.2970 C   0  0  0  0  0  2  0  0  0  0  0  0
  188.3000  175.5500  143.2080 O   0  0  0  0  0  1  0  0  0  0  0  0
  186.5350  177.5220  144.6280 C   0  0  2  0  0  3  0  0  0  0  0  0
  191.6670  176.4100  147.7330 O   0  0  0  0  0  1  0  0  0  0  0  0
  189.7160  177.5050  146.8160 C   0  0  0  0  0  0  0  0  0  0  0  0
  190.8910  176.7110  146.6640 N   0  0  0  0  0  2  0  0  0  0  0  0
  189.3860  177.9420  147.9540 O   0  0  0  0  0  0  0  0  0  0  0  0
  190.4160  179.4700  144.0060 O   0  0  0  0  0  0  0  0  0  0  0  0
  190.5870  178.2260  143.8700 C   0  0  0  0  0  0  0  0  0  0  0  0
  191.7530  177.7280  143.2880 O   0  0  0  0  0  0  0  0  0  0  0  0
  191.8520  177.5000  141.8910 C   0  0  0  0  0  1  0  0  0  0  0  0
  186.1520  176.0280  137.2970 C   0  0  0  0  0  2  0  0  0  0  0  0
  183.7160  174.1140  135.1170 C   0  0  0  0  0  3  0  0  0  0  0  0
  184.9340  175.2880  136.8530 C   0  0  0  0  0  0  0  0  0  0  0  0
  184.8580  174.7990  135.5450 C   0  0  0  0  0  3  0  0  0  0  0  0
  183.8590  175.1000  137.7300 C   0  0  0  0  0  3  0  0  0  0  0  0
  182.7170  174.4150  137.3010 C   0  0  0  0  0  3  0  0  0  0  0  0
  182.6410  173.9210  135.9910 C   0  0  0  0  0  0  0  0  0  0  0  0
  181.2220  171.9760  135.8730 N   0  0  0  0  0  0  0  0  0  0  0  0
  181.4580  173.1980  135.5150 C   0  0  0  0  0  3  0  0  0  0  0  0
  180.0750  171.2560  135.4130 C   0  0  0  0  0  0  0  0  0  0  0  0
  178.9310  172.0020  134.8260 C   0  0  0  0  0  1  0  0  0  0  0  0
  180.0200  170.0000  135.5010 O   0  0  0  0  0  0  0  0  0  0  0  0
  187.6880  177.9070  135.6590 C   0  0  0  0  0  2  0  0  0  0  0  0
  189.0380  177.9910  136.3450 C   0  0  0  0  0  2  0  0  0  0  0  0
  189.3060  176.6980  137.0930 C   0  0  0  0  0  2  0  0  0  0  0  0
  191.5390  175.6070  137.5600 C   0  0  0  0  0  0  0  0  0  0  0  0
  191.3030  175.6080  138.8000 O   0  0  0  0  0  0  0  0  0  0  0  0
  190.5670  176.1220  136.6470 N   0  0  0  0  0  2  0  0  0  0  0  0
  193.9180  172.9750  136.2290 C   0  0  0  0  0  0  0  0  0  0  0  0
  192.8030  175.0430  137.0520 C   0  0  0  0  0  0  0  0  0  0  0  0
  194.9640  173.4870  135.4490 O   0  0  0  0  0  0  0  0  0  0  0  0
  195.5170  177.0720  135.6460 O   0  0  0  0  0  1  0  0  0  0  0  0
  194.0190  175.9120  137.0790 C   0  0  0  0  0  2  0  0  0  0  0  0
  192.8410  173.7760  136.7510 N   0  0  0  0  0  0  0  0  0  0  0  0
  194.7620  175.9020  135.7580 C   0  0  2  0  0  3  0  0  0  0  0  0
  195.6810  174.6940  135.6800 C   0  0  1  0  0  3  0  0  0  0  0  0
  193.8320  171.7250  136.3450 O   0  0  0  0  0  0  0  0  0  0  0  0
  197.4760  175.6630  136.9460 O   0  0  0  0  0  1  0  0  0  0  0  0
  196.6200  174.5610  136.8810 C   0  0  0  0  0  2  0  0  0  0  0  0
  1  2  2  0  0  0  0
  2  4  1  0  0  0  0
  3  4  2  0  0  0  0
  4  5  1  0  0  0  0
  5  6  1  0  0  0  0
  6  7  1  0  0  0  0
  7  8  1  0  0  0  0
  8  9  1  0  0  0  0
  9 10  1  0  0  0  0
 10 11  1  0  0  0  0
 12 15  1  0  0  0  0
 12 20  1  1  0  0  0
 13 24  1  6  0  0  0
 13 12  1  0  0  0  0
 14 17  1  1  0  0  0
 14 16  1  0  0  0  0
 14 13  1  0  0  0  0
 16 18  1  0  0  0  0
 18 11  1  1  0  0  0
 18 15  1  0  0  0  0
 20 22  2  0  0  0  0
 21 20  1  0  0  0  0
 21 19  1  0  0  0  0
 24 23  2  0  0  0  0
 25 24  1  0  0  0  0
 26 25  1  0  0  0  0
 27  2  1  0  0  0  0
 28 30  2  0  0  0  0
 28 33  1  0  0  0  0
 29 27  1  0  0  0  0
 29 31  2  0  0  0  0
 30 29  1  0  0  0  0
 32 31  1  0  0  0  0
 33 32  2  0  0  0  0
 35 34  2  0  0  0  0
 35 33  1  0  0  0  0
 36 38  2  0  0  0  0
 36 34  1  0  0  0  0
 37 36  1  0  0  0  0
 39 40  1  0  0  0  0
 39  1  1  0  0  0  0
 40 41  1  0  0  0  0
 42 43  2  0  0  0  0
 44 41  1  0  0  0  0
 44 42  1  0  0  0  0
 45 53  2  0  0  0  0
 45 50  1  0  0  0  0
 46 49  1  0  0  0  0
 46 42  1  0  0  0  0
 47 52  1  0  0  0  0
 47 45  1  0  0  0  0
 50 46  2  0  0  0  0
 51 48  1  1  0  0  0
 51 49  1  0  0  0  0
 52 51  1  0  0  0  0
 52 55  1  1  0  0  0
 55 54  1  0  0  0  0
M  END
>  <MODEL>
7

>  <REMARK>
 VINA RESULT:      -6.3      3.340      4.997
  Name = 
  22 active torsions:
  status: ('A' for Active; 'I' for Inactive)
    1  A    between atoms: C_1  and  N_6
    2  A    between atoms: C_2  and  C_18
    3  A    between atoms: C_2  and  C_20
    4  A    between atoms: C_4  and  C_19
    5  A    between atoms: O_8  and  C_15
    6  A    between atoms: O_8  and  C_45
    7  A    between atoms: N_9  and  C_20
    8  A    between atoms: C_10  and  C_15
    9  A    between atoms: C_10  and  N_55
   10  A    between atoms: C_11  and  C_30
   11  A    between atoms: C_12  and  C_37
   12  A    between atoms: C_16  and  C_54
   13  A    between atoms: C_18  and  N_33
   14  A    between atoms: O_22  and  C_37
   15  A    between atoms: C_28  and  C_53
   16  A    between atoms: C_36  and  C_41
   17  A    between atoms: C_36  and  N_55
   18  A    between atoms: C_41  and  C_49
   19  A    between atoms: C_45  and  C_52
   20  A    between atoms: C_46  and  C_52
   21  A    between atoms: C_46  and  C_54
   22  A    between atoms: C_48  and  C_50
                            x       y       z     vdW  Elec       q    Type
                         _______ _______ _______ _____ _____    ______ ____

>  <TORSDO>
F 22

$$$$
=
 OpenBabel10222417063D

 55 57  0  0  1  0  0  0  0  0999 V2000
  188.3240  174.3190  135.9930 N   0  0  0  0  0  0  0  0  0  0  0  0
  189.4740  174.8970  135.8080 C   0  0  0  0  0  0  0  0  0  0  0  0
  190.3070  175.4720  138.0110 C   0  0  0  0  0  2  0  0  0  0  0  0
  189.9450  175.8780  136.7930 C   0  0  0  0  0  0  0  0  0  0  0  0
  189.7280  177.3310  136.5420 C   0  0  0  0  0  2  0  0  0  0  0  0
  188.5420  177.5260  135.8230 O   0  0  0  0  0  0  0  0  0  0  0  0
  187.7140  178.2200  136.7110 C   0  0  0  0  0  2  0  0  0  0  0  0
  188.5160  178.6690  137.9170 C   0  0  0  0  0  2  0  0  0  0  0  0
  187.6800  178.6320  139.1080 N   0  0  0  0  0  2  0  0  0  0  0  0
  188.5760  178.6950  140.2450 C   0  0  0  0  0  2  0  0  0  0  0  0
  187.7870  178.4510  141.5180 C   0  0  0  0  0  2  0  0  0  0  0  0
  188.6610  177.5760  144.6370 C   0  0  1  0  0  3  0  0  0  0  0  0
  189.9720  176.7690  144.6060 C   0  0  1  0  0  3  0  0  0  0  0  0
  190.3310  176.1960  143.2280 C   0  0  2  0  0  3  0  0  0  0  0  0
  187.6580  177.0560  143.6080 C   0  0  0  0  0  2  0  0  0  0  0  0
  189.7340  177.0280  142.0910 C   0  0  0  0  0  2  0  0  0  0  0  0
  189.9020  174.8660  143.1370 O   0  0  0  0  0  1  0  0  0  0  0  0
  188.2040  177.1480  142.1720 C   0  0  2  0  0  3  0  0  0  0  0  0
  186.4780  178.4850  147.5730 O   0  0  0  0  0  1  0  0  0  0  0  0
  188.0710  177.5570  146.0090 C   0  0  0  0  0  0  0  0  0  0  0  0
  187.0080  178.4530  146.3260 N   0  0  0  0  0  2  0  0  0  0  0  0
  188.5310  176.7770  146.8890 O   0  0  0  0  0  0  0  0  0  0  0  0
  191.4800  178.6260  144.5660 O   0  0  0  0  0  0  0  0  0  0  0  0
  191.1080  177.5710  145.1520 C   0  0  0  0  0  0  0  0  0  0  0  0
  191.7420  177.1450  146.3190 O   0  0  0  0  0  0  0  0  0  0  0  0
  192.0980  175.7850  146.5220 C   0  0  0  0  0  1  0  0  0  0  0  0
  190.3120  174.6110  134.5950 C   0  0  0  0  0  2  0  0  0  0  0  0
  193.7710  176.1350  134.8470 C   0  0  0  0  0  3  0  0  0  0  0  0
  191.7690  174.7680  134.8760 C   0  0  0  0  0  0  0  0  0  0  0  0
  192.4020  175.9830  134.5970 C   0  0  0  0  0  3  0  0  0  0  0  0
  192.5100  173.6990  135.3950 C   0  0  0  0  0  3  0  0  0  0  0  0
  193.8780  173.8520  135.6440 C   0  0  0  0  0  3  0  0  0  0  0  0
  194.5140  175.0710  135.3680 C   0  0  0  0  0  0  0  0  0  0  0  0
  196.5660  174.5860  136.5370 N   0  0  0  0  0  0  0  0  0  0  0  0
  195.9460  175.2590  135.6210 C   0  0  0  0  0  3  0  0  0  0  0  0
  197.9600  174.7620  136.7990 C   0  0  0  0  0  0  0  0  0  0  0  0
  198.4650  174.6290  138.1900 C   0  0  0  0  0  1  0  0  0  0  0  0
  198.7660  175.0300  135.8680 O   0  0  0  0  0  0  0  0  0  0  0  0
  187.7110  173.3570  135.0800 C   0  0  0  0  0  2  0  0  0  0  0  0
  187.4500  172.0450  135.7950 C   0  0  0  0  0  2  0  0  0  0  0  0
  186.0070  171.6300  135.5770 C   0  0  0  0  0  2  0  0  0  0  0  0
  184.7730  173.2180  137.1120 C   0  0  0  0  0  0  0  0  0  0  0  0
  185.2550  172.6430  138.1260 O   0  0  0  0  0  0  0  0  0  0  0  0
  185.1270  172.7690  135.8010 N   0  0  0  0  0  2  0  0  0  0  0  0
  183.7630  176.8480  137.5080 C   0  0  0  0  0  0  0  0  0  0  0  0
  183.8710  174.3720  137.2780 C   0  0  0  0  0  0  0  0  0  0  0  0
  182.4640  177.1350  137.0660 O   0  0  0  0  0  0  0  0  0  0  0  0
  180.2880  174.2840  136.4960 O   0  0  0  0  0  1  0  0  0  0  0  0
  182.4210  174.0990  137.5220 C   0  0  0  0  0  2  0  0  0  0  0  0
  184.3930  175.5620  137.3590 N   0  0  0  0  0  0  0  0  0  0  0  0
  181.5210  174.9250  136.6260 C   0  0  2  0  0  3  0  0  0  0  0  0
  181.3150  176.3100  137.2180 C   0  0  1  0  0  3  0  0  0  0  0  0
  184.4690  177.8090  137.9100 O   0  0  0  0  0  0  0  0  0  0  0  0
  180.7960  177.5880  139.1830 O   0  0  0  0  0  1  0  0  0  0  0  0
  180.8340  176.2890  138.6700 C   0  0  0  0  0  2  0  0  0  0  0  0
  2  1  2  0  0  0  0
  2  4  1  0  0  0  0
  4  3  2  0  0  0  0
  5  4  1  0  0  0  0
  6  5  1  0  0  0  0
  6  7  1  0  0  0  0
  7  8  1  0  0  0  0
  8  9  1  0  0  0  0
  9 10  1  0  0  0  0
 10 11  1  0  0  0  0
 12 20  1  1  0  0  0
 13 12  1  0  0  0  0
 13 24  1  6  0  0  0
 14 17  1  1  0  0  0
 14 13  1  0  0  0  0
 15 12  1  0  0  0  0
 16 18  1  0  0  0  0
 16 14  1  0  0  0  0
 18 11  1  1  0  0  0
 18 15  1  0  0  0  0
 20 21  1  0  0  0  0
 20 22  2  0  0  0  0
 21 19  1  0  0  0  0
 23 24  2  0  0  0  0
 24 25  1  0  0  0  0
 25 26  1  0  0  0  0
 27 29  1  0  0  0  0
 27  2  1  0  0  0  0
 28 33  1  0  0  0  0
 29 31  2  0  0  0  0
 30 28  2  0  0  0  0
 30 29  1  0  0  0  0
 31 32  1  0  0  0  0
 33 35  1  0  0  0  0
 33 32  2  0  0  0  0
 34 36  1  0  0  0  0
 35 34  2  0  0  0  0
 36 37  1  0  0  0  0
 38 36  2  0  0  0  0
 39 40  1  0  0  0  0
 39  1  1  0  0  0  0
 41 40  1  0  0  0  0
 41 44  1  0  0  0  0
 42 46  1  0  0  0  0
 42 43  2  0  0  0  0
 44 42  1  0  0  0  0
 45 53  2  0  0  0  0
 46 50  2  0  0  0  0
 46 49  1  0  0  0  0
 47 52  1  0  0  0  0
 47 45  1  0  0  0  0
 50 45  1  0  0  0  0
 51 48  1  1  0  0  0
 51 52  1  0  0  0  0
 51 49  1  0  0  0  0
 52 55  1  1  0  0  0
 55 54  1  0  0  0  0
M  END
>  <MODEL>
8

>  <REMARK>
 VINA RESULT:      -6.3      3.722      9.846
  Name = 
  22 active torsions:
  status: ('A' for Active; 'I' for Inactive)
    1  A    between atoms: C_1  and  N_6
    2  A    between atoms: C_2  and  C_18
    3  A    between atoms: C_2  and  C_20
    4  A    between atoms: C_4  and  C_19
    5  A    between atoms: O_8  and  C_15
    6  A    between atoms: O_8  and  C_45
    7  A    between atoms: N_9  and  C_20
    8  A    between atoms: C_10  and  C_15
    9  A    between atoms: C_10  and  N_55
   10  A    between atoms: C_11  and  C_30
   11  A    between atoms: C_12  and  C_37
   12  A    between atoms: C_16  and  C_54
   13  A    between atoms: C_18  and  N_33
   14  A    between atoms: O_22  and  C_37
   15  A    between atoms: C_28  and  C_53
   16  A    between atoms: C_36  and  C_41
   17  A    between atoms: C_36  and  N_55
   18  A    between atoms: C_41  and  C_49
   19  A    between atoms: C_45  and  C_52
   20  A    between atoms: C_46  and  C_52
   21  A    between atoms: C_46  and  C_54
   22  A    between atoms: C_48  and  C_50
                            x       y       z     vdW  Elec       q    Type
                         _______ _______ _______ _____ _____    ______ ____

>  <TORSDO>
F 22

$$$$
=
 OpenBabel10222417063D

 55 57  0  0  1  0  0  0  0  0999 V2000
  185.9870  179.0410  142.0180 N   0  0  0  0  0  0  0  0  0  0  0  0
  185.6320  178.5640  143.1740 C   0  0  0  0  0  0  0  0  0  0  0  0
  185.3700  179.6480  145.3270 C   0  0  0  0  0  2  0  0  0  0  0  0
  184.8900  179.4260  144.1030 C   0  0  0  0  0  0  0  0  0  0  0  0
  183.4790  179.7930  143.7930 C   0  0  0  0  0  2  0  0  0  0  0  0
  182.6480  178.6740  143.9260 O   0  0  0  0  0  0  0  0  0  0  0  0
  181.6300  178.8910  142.9920 C   0  0  0  0  0  2  0  0  0  0  0  0
  182.2320  179.1170  141.6190 C   0  0  0  0  0  2  0  0  0  0  0  0
  182.6080  177.8420  141.0280 N   0  0  0  0  0  2  0  0  0  0  0  0
  181.9620  177.7790  139.7330 C   0  0  0  0  0  2  0  0  0  0  0  0
  181.7710  176.3260  139.3390 C   0  0  0  0  0  2  0  0  0  0  0  0
  184.1140  174.8020  137.4830 C   0  0  1  0  0  3  0  0  0  0  0  0
  184.6000  175.7510  136.3710 C   0  0  1  0  0  3  0  0  0  0  0  0
  183.6620  176.9330  136.0930 C   0  0  2  0  0  3  0  0  0  0  0  0
  182.5880  174.7550  137.5520 C   0  0  0  0  0  2  0  0  0  0  0  0
  182.8310  177.3040  137.3220 C   0  0  0  0  0  2  0  0  0  0  0  0
  182.8260  176.6350  135.0100 O   0  0  0  0  0  1  0  0  0  0  0  0
  181.9810  176.1370  137.8490 C   0  0  2  0  0  3  0  0  0  0  0  0
  184.6650  171.3720  136.0200 O   0  0  0  0  0  1  0  0  0  0  0  0
  184.6790  173.4340  137.2810 C   0  0  0  0  0  0  0  0  0  0  0  0
  184.1990  172.6310  136.2050 N   0  0  0  0  0  2  0  0  0  0  0  0
  185.5500  172.9810  138.0750 O   0  0  0  0  0  0  0  0  0  0  0  0
  186.9830  175.5880  136.2230 O   0  0  0  0  0  0  0  0  0  0  0  0
  185.9860  176.2360  136.6490 C   0  0  0  0  0  0  0  0  0  0  0  0
  186.1610  177.4140  137.3750 O   0  0  0  0  0  0  0  0  0  0  0  0
  187.1450  178.3730  137.0170 C   0  0  0  0  0  1  0  0  0  0  0  0
  185.9930  177.1680  143.5930 C   0  0  0  0  0  2  0  0  0  0  0  0
  187.7160  177.3590  146.9610 C   0  0  0  0  0  3  0  0  0  0  0  0
  187.0600  177.1600  144.6360 C   0  0  0  0  0  0  0  0  0  0  0  0
  186.7210  177.3550  145.9780 C   0  0  0  0  0  3  0  0  0  0  0  0
  188.4020  176.9810  144.2760 C   0  0  0  0  0  3  0  0  0  0  0  0
  189.3970  176.9860  145.2590 C   0  0  0  0  0  3  0  0  0  0  0  0
  189.0570  177.1780  146.6060 C   0  0  0  0  0  0  0  0  0  0  0  0
  191.2970  176.8150  147.4210 N   0  0  0  0  0  0  0  0  0  0  0  0
  190.0790  177.1860  147.6580 C   0  0  0  0  0  3  0  0  0  0  0  0
  192.3030  176.8120  148.4360 C   0  0  0  0  0  0  0  0  0  0  0  0
  193.1920  175.6300  148.5820 C   0  0  0  0  0  1  0  0  0  0  0  0
  192.4450  177.7970  149.2110 O   0  0  0  0  0  0  0  0  0  0  0  0
  186.7600  178.3170  141.0120 C   0  0  0  0  0  2  0  0  0  0  0  0
  188.2430  178.4080  141.3190 C   0  0  0  0  0  2  0  0  0  0  0  0
  188.9550  179.0940  140.1680 C   0  0  0  0  0  2  0  0  0  0  0  0
  190.6890  177.3420  139.6000 C   0  0  0  0  0  0  0  0  0  0  0  0
  191.2500  177.5070  140.7180 O   0  0  0  0  0  0  0  0  0  0  0  0
  189.5180  178.0950  139.2710 N   0  0  0  0  0  2  0  0  0  0  0  0
  190.6490  174.3730  137.2470 C   0  0  0  0  0  0  0  0  0  0  0  0
  191.2200  176.3490  138.6490 C   0  0  0  0  0  0  0  0  0  0  0  0
  191.6360  174.4140  136.2530 O   0  0  0  0  0  0  0  0  0  0  0  0
  194.3200  176.8110  136.7430 O   0  0  0  0  0  1  0  0  0  0  0  0
  192.6940  176.3290  138.4060 C   0  0  0  0  0  2  0  0  0  0  0  0
  190.4110  175.4400  138.1840 N   0  0  0  0  0  0  0  0  0  0  0  0
  193.0350  176.2990  136.9300 C   0  0  2  0  0  3  0  0  0  0  0  0
  192.9740  174.8730  136.4050 C   0  0  1  0  0  3  0  0  0  0  0  0
  189.8260  173.4210  137.2160 O   0  0  0  0  0  0  0  0  0  0  0  0
  195.1550  173.9700  136.8430 O   0  0  0  0  0  1  0  0  0  0  0  0
  193.8120  173.8850  137.2190 C   0  0  0  0  0  2  0  0  0  0  0  0
  1  2  2  0  0  0  0
  2 27  1  0  0  0  0
  2  4  1  0  0  0  0
  4  3  2  0  0  0  0
  5  6  1  0  0  0  0
  5  4  1  0  0  0  0
  7  6  1  0  0  0  0
  8  7  1  0  0  0  0
  9  8  1  0  0  0  0
 10  9  1  0  0  0  0
 11 10  1  0  0  0  0
 12 20  1  6  0  0  0
 12 15  1  0  0  0  0
 13 24  1  1  0  0  0
 13 12  1  0  0  0  0
 14 17  1  6  0  0  0
 14 13  1  0  0  0  0
 14 16  1  0  0  0  0
 15 18  1  0  0  0  0
 16 18  1  0  0  0  0
 18 11  1  1  0  0  0
 19 21  1  0  0  0  0
 20 22  2  0  0  0  0
 21 20  1  0  0  0  0
 23 24  2  0  0  0  0
 24 25  1  0  0  0  0
 26 25  1  0  0  0  0
 27 29  1  0  0  0  0
 29 30  1  0  0  0  0
 30 28  2  0  0  0  0
 31 29  2  0  0  0  0
 31 32  1  0  0  0  0
 32 33  2  0  0  0  0
 33 28  1  0  0  0  0
 33 35  1  0  0  0  0
 34 35  2  0  0  0  0
 34 36  1  0  0  0  0
 36 37  1  0  0  0  0
 36 38  2  0  0  0  0
 39 40  1  0  0  0  0
 39  1  1  0  0  0  0
 41 40  1  0  0  0  0
 42 43  2  0  0  0  0
 44 42  1  0  0  0  0
 44 41  1  0  0  0  0
 45 50  1  0  0  0  0
 46 42  1  0  0  0  0
 47 52  1  0  0  0  0
 47 45  1  0  0  0  0
 49 46  1  0  0  0  0
 50 46  2  0  0  0  0
 51 48  1  1  0  0  0
 51 49  1  0  0  0  0
 52 51  1  0  0  0  0
 52 55  1  1  0  0  0
 53 45  2  0  0  0  0
 54 55  1  0  0  0  0
M  END
>  <MODEL>
9

>  <REMARK>
 VINA RESULT:      -6.2      3.016      8.908
  Name = 
  22 active torsions:
  status: ('A' for Active; 'I' for Inactive)
    1  A    between atoms: C_1  and  N_6
    2  A    between atoms: C_2  and  C_18
    3  A    between atoms: C_2  and  C_20
    4  A    between atoms: C_4  and  C_19
    5  A    between atoms: O_8  and  C_15
    6  A    between atoms: O_8  and  C_45
    7  A    between atoms: N_9  and  C_20
    8  A    between atoms: C_10  and  C_15
    9  A    between atoms: C_10  and  N_55
   10  A    between atoms: C_11  and  C_30
   11  A    between atoms: C_12  and  C_37
   12  A    between atoms: C_16  and  C_54
   13  A    between atoms: C_18  and  N_33
   14  A    between atoms: O_22  and  C_37
   15  A    between atoms: C_28  and  C_53
   16  A    between atoms: C_36  and  C_41
   17  A    between atoms: C_36  and  N_55
   18  A    between atoms: C_41  and  C_49
   19  A    between atoms: C_45  and  C_52
   20  A    between atoms: C_46  and  C_52
   21  A    between atoms: C_46  and  C_54
   22  A    between atoms: C_48  and  C_50
                            x       y       z     vdW  Elec       q    Type
                         _______ _______ _______ _____ _____    ______ ____

>  <TORSDO>
F 22

$$$$
