=
 OpenBabel10222418143D

 45 51  0  0  1  0  0  0  0  0999 V2000
  187.1530  177.5910  142.5980 C   0  0  1  0  0  3  0  0  0  0  0  0
  185.4170  177.9240  144.4130 C   0  0  0  0  0  1  0  0  0  0  0  0
  185.9880  178.4650  143.1110 C   0  0  2  0  0  3  0  0  0  0  0  0
  178.9310  179.5950  143.7100 N   0  0  0  0  0  0  0  0  0  0  0  0
  181.2750  178.7380  137.0930 C   0  0  0  0  0  0  0  0  0  0  0  0
  179.7070  179.1840  140.3860 N   0  0  0  0  0  0  0  0  0  0  0  0
  179.7870  178.6120  137.8480 S   0  0  0  0  0  0  0  0  0  0  0  0
  179.9280  178.7450  144.2830 C   0  0  0  0  0  3  0  0  0  0  0  0
  181.8520  179.0760  139.2550 C   0  0  0  0  0  0  0  0  0  0  0  0
  182.4900  178.8620  141.6650 C   0  0  0  0  0  0  0  0  0  0  0  0
  182.2770  178.9850  137.9570 N   0  0  0  0  0  2  0  0  0  0  0  0
  183.5750  178.5820  142.5210 C   0  0  0  0  0  3  0  0  0  0  0  0
  180.1930  179.7870  141.6060 C   0  0  2  0  0  3  0  0  0  0  0  0
  180.4510  178.9360  139.3590 C   0  0  0  0  0  0  0  0  0  0  0  0
  185.1730  178.9750  140.7740 C   0  0  0  0  0  3  0  0  0  0  0  0
  181.0360  178.4410  143.6150 C   0  0  0  0  0  3  0  0  0  0  0  0
  182.7690  179.1030  140.2720 C   0  0  0  0  0  0  0  0  0  0  0  0
  184.1250  179.1800  139.8810 C   0  0  0  0  0  3  0  0  0  0  0  0
  181.2690  178.9540  142.2420 C   0  0  0  0  0  0  0  0  0  0  0  0
  179.0280  180.0860  142.5130 C   0  0  0  0  0  3  0  0  0  0  0  0
  184.8970  178.6380  142.0950 C   0  0  0  0  0  0  0  0  0  0  0  0
  181.4560  178.6080  135.8550 O   0  0  0  0  0  0  0  0  0  0  0  0
  188.0620  178.3280  141.7150 N   0  0  0  0  0  2  0  0  0  0  0  0
  189.6600  176.9400  138.7270 O   0  0  0  0  0  0  0  0  0  0  0  0
  190.7080  176.4220  139.5280 C   0  0  2  0  0  3  0  0  0  0  0  0
  188.6880  177.6340  139.4270 C   0  0  0  0  0  0  0  0  0  0  0  0
  188.9610  177.8140  140.7150 C   0  0  0  0  0  0  0  0  0  0  0  0
  190.5660  177.1860  141.1870 S   0  0  0  0  0  0  0  0  0  0  0  0
  192.1150  176.7110  137.6860 O   0  0  0  0  0  0  0  0  0  0  0  0
  191.9950  176.7320  138.9280 N   0  0  0  0  0  0  0  0  0  0  0  0
  193.0320  177.1960  139.7040 O   0  0  0  0  0  0  0  0  0  0  0  0
  187.4930  178.0870  138.7930 N   0  0  0  0  0  2  0  0  0  0  0  0
  185.6510  177.4190  137.3770 C   0  0  0  0  0  1  0  0  0  0  0  0
  187.1360  177.7070  137.4350 C   0  0  0  0  0  3  0  0  0  0  0  0
  187.4630  178.8400  136.4760 C   0  0  0  0  0  1  0  0  0  0  0  0
  187.9050  176.9930  143.6970 N   0  0  0  0  0  2  0  0  0  0  0  0
  189.6530  177.4090  145.1850 C   0  0  0  0  0  0  0  0  0  0  0  0
  188.1180  178.2930  146.9700 C   0  0  0  0  0  3  0  0  0  0  0  0
  188.4810  178.1220  145.6750 C   0  0  0  0  0  0  0  0  0  0  0  0
  188.7470  178.0190  144.2970 C   0  0  2  0  0  3  0  0  0  0  0  0
  189.0770  177.6500  147.8360 C   0  0  0  0  0  0  0  0  0  0  0  0
  190.2560  176.9290  147.3490 C   0  0  0  0  0  3  0  0  0  0  0  0
  188.8830  177.7290  149.1740 F   0  0  0  0  0  0  0  0  0  0  0  0
  190.5780  176.7890  145.9570 C   0  0  0  0  0  0  0  0  0  0  0  0
  191.6510  176.1150  145.4790 F   0  0  0  0  0  0  0  0  0  0  0  0
  1 23  1  1  0  0  0
  1  3  1  0  0  0  0
  1 36  1  0  0  0  0
  3  2  1  1  0  0  0
  4  8  1  0  0  0  0
  5  7  1  0  0  0  0
  5 11  1  0  0  0  0
  6 13  1  0  0  0  0
  7 14  1  0  0  0  0
  9 14  1  0  0  0  0
  9 17  2  0  0  0  0
 10 19  2  0  0  0  0
 10 12  1  0  0  0  0
 11  9  1  0  0  0  0
 13 19  1  0  0  0  0
 13 20  1  1  0  0  0
 14  6  2  0  0  0  0
 15 21  1  0  0  0  0
 16  8  2  0  0  0  0
 17 10  1  0  0  0  0
 18 17  1  0  0  0  0
 18 15  2  0  0  0  0
 19 16  1  0  0  0  0
 20  4  2  0  0  0  0
 21 12  2  0  0  0  0
 21  3  1  0  0  0  0
 22  5  2  0  0  0  0
 24 26  1  0  0  0  0
 24 25  1  0  0  0  0
 25 30  1  6  0  0  0
 25 28  1  0  0  0  0
 26 27  2  0  0  0  0
 27 28  1  0  0  0  0
 27 23  1  0  0  0  0
 29 30  2  0  0  0  0
 30 31  2  0  0  0  0
 32 26  1  0  0  0  0
 33 34  1  0  0  0  0
 34 32  1  0  0  0  0
 35 34  1  0  0  0  0
 37 39  2  0  0  0  0
 37 44  1  0  0  0  0
 38 41  2  0  0  0  0
 39 38  1  0  0  0  0
 40 36  1  6  0  0  0
 40 37  1  0  0  0  0
 40 39  1  0  0  0  0
 41 43  1  0  0  0  0
 42 41  1  0  0  0  0
 44 42  2  0  0  0  0
 45 44  1  0  0  0  0
M  END
>  <MODEL>
1

>  <REMARK>
 VINA RESULT:      -9.9      0.000      0.000
  Name = 
  9 active torsions:
  status: ('A' for Active; 'I' for Inactive)
    1  A    between atoms: C_10  and  N_41
    2  A    between atoms: C_12  and  C_18
    3  A    between atoms: C_12  and  C_40
    4  A    between atoms: C_13  and  N_44
    5  A    between atoms: C_14  and  N_33
    6  A    between atoms: C_18  and  N_25
    7  A    between atoms: C_18  and  N_41
    8  A    between atoms: C_19  and  N_44
    9  A    between atoms: N_25  and  C_26
                            x       y       z     vdW  Elec       q    Type
                         _______ _______ _______ _____ _____    ______ ____

>  <TORSDO>
F 9

$$$$
=
 OpenBabel10222418143D

 45 51  0  0  1  0  0  0  0  0999 V2000
  187.2550  178.4260  142.0810 C   0  0  1  0  0  3  0  0  0  0  0  0
  185.4550  179.8390  143.1670 C   0  0  0  0  0  1  0  0  0  0  0  0
  186.0510  179.3640  141.8500 C   0  0  2  0  0  3  0  0  0  0  0  0
  178.9310  178.8540  142.5460 N   0  0  0  0  0  0  0  0  0  0  0  0
  181.6370  175.5170  136.9290 C   0  0  0  0  0  0  0  0  0  0  0  0
  179.8980  177.0950  139.7550 N   0  0  0  0  0  0  0  0  0  0  0  0
  180.2120  175.4070  137.7980 S   0  0  0  0  0  0  0  0  0  0  0  0
  180.0980  178.6640  143.3500 C   0  0  0  0  0  3  0  0  0  0  0  0
  182.0310  176.9890  138.6020 C   0  0  0  0  0  0  0  0  0  0  0  0
  182.6230  178.1320  140.7480 C   0  0  0  0  0  0  0  0  0  0  0  0
  182.5090  176.3910  137.4670 N   0  0  0  0  0  2  0  0  0  0  0  0
  183.7150  178.5790  141.5200 C   0  0  0  0  0  3  0  0  0  0  0  0
  180.1660  178.3110  140.4880 C   0  0  2  0  0  3  0  0  0  0  0  0
  180.7160  176.5740  138.9000 C   0  0  0  0  0  0  0  0  0  0  0  0
  185.2080  178.4610  139.6450 C   0  0  0  0  0  3  0  0  0  0  0  0
  181.2690  178.3610  142.7980 C   0  0  0  0  0  3  0  0  0  0  0  0
  182.8740  177.7300  139.3870 C   0  0  0  0  0  0  0  0  0  0  0  0
  184.1740  177.9420  138.8730 C   0  0  0  0  0  3  0  0  0  0  0  0
  181.4030  178.1860  141.3310 C   0  0  0  0  0  0  0  0  0  0  0  0
  178.9340  178.7120  141.2560 C   0  0  0  0  0  3  0  0  0  0  0  0
  184.9880  178.7480  140.9890 C   0  0  0  0  0  0  0  0  0  0  0  0
  181.8870  174.8540  135.8890 O   0  0  0  0  0  0  0  0  0  0  0  0
  188.3050  178.6000  141.0710 N   0  0  0  0  0  2  0  0  0  0  0  0
  190.5430  175.9860  139.8220 O   0  0  0  0  0  0  0  0  0  0  0  0
  190.3020  176.4150  138.4920 C   0  0  2  0  0  3  0  0  0  0  0  0
  189.8660  176.7050  140.7920 C   0  0  0  0  0  0  0  0  0  0  0  0
  189.0020  177.5940  140.3130 C   0  0  0  0  0  0  0  0  0  0  0  0
  188.8760  177.5620  138.5310 S   0  0  0  0  0  0  0  0  0  0  0  0
  189.0450  175.3100  136.8630 O   0  0  0  0  0  0  0  0  0  0  0  0
  190.0190  175.2710  137.6420 N   0  0  0  0  0  0  0  0  0  0  0  0
  190.9010  174.2170  137.5750 O   0  0  0  0  0  0  0  0  0  0  0  0
  190.1140  176.4980  142.1810 N   0  0  0  0  0  2  0  0  0  0  0  0
  191.2890  178.2960  143.2910 C   0  0  0  0  0  1  0  0  0  0  0  0
  191.3720  176.8620  142.8140 C   0  0  0  0  0  3  0  0  0  0  0  0
  191.6370  175.9540  144.0040 C   0  0  0  0  0  1  0  0  0  0  0  0
  187.8210  178.5890  143.4170 N   0  0  0  0  0  2  0  0  0  0  0  0
  186.8550  177.7640  145.3720 C   0  0  0  0  0  0  0  0  0  0  0  0
  189.0780  177.3690  146.4790 C   0  0  0  0  0  3  0  0  0  0  0  0
  188.2650  177.4010  145.3940 C   0  0  0  0  0  0  0  0  0  0  0  0
  187.5290  177.3930  144.1940 C   0  0  2  0  0  3  0  0  0  0  0  0
  188.3390  177.7560  147.6560 C   0  0  0  0  0  0  0  0  0  0  0  0
  186.9210  178.1250  147.6400 C   0  0  0  0  0  3  0  0  0  0  0  0
  188.9900  177.7690  148.8430 F   0  0  0  0  0  0  0  0  0  0  0  0
  186.1200  178.1380  146.4490 C   0  0  0  0  0  0  0  0  0  0  0  0
  184.8120  178.4890  146.4030 F   0  0  0  0  0  0  0  0  0  0  0  0
  1 23  1  6  0  0  0
  1 36  1  0  0  0  0
  3  1  1  0  0  0  0
  3  2  1  1  0  0  0
  4  8  1  0  0  0  0
  5 11  1  0  0  0  0
  5  7  1  0  0  0  0
  6 13  1  0  0  0  0
  7 14  1  0  0  0  0
  9 14  1  0  0  0  0
  9 17  2  0  0  0  0
 10 19  2  0  0  0  0
 10 12  1  0  0  0  0
 11  9  1  0  0  0  0
 13 20  1  1  0  0  0
 13 19  1  0  0  0  0
 14  6  2  0  0  0  0
 15 21  1  0  0  0  0
 16  8  2  0  0  0  0
 17 10  1  0  0  0  0
 18 17  1  0  0  0  0
 18 15  2  0  0  0  0
 19 16  1  0  0  0  0
 20  4  2  0  0  0  0
 21 12  2  0  0  0  0
 21  3  1  0  0  0  0
 22  5  2  0  0  0  0
 24 26  1  0  0  0  0
 25 30  1  6  0  0  0
 25 28  1  0  0  0  0
 25 24  1  0  0  0  0
 26 32  1  0  0  0  0
 27 26  2  0  0  0  0
 27 23  1  0  0  0  0
 28 27  1  0  0  0  0
 29 30  2  0  0  0  0
 31 30  2  0  0  0  0
 32 34  1  0  0  0  0
 34 33  1  0  0  0  0
 34 35  1  0  0  0  0
 37 39  2  0  0  0  0
 37 44  1  0  0  0  0
 38 41  2  0  0  0  0
 39 38  1  0  0  0  0
 40 36  1  6  0  0  0
 40 37  1  0  0  0  0
 40 39  1  0  0  0  0
 41 43  1  0  0  0  0
 42 41  1  0  0  0  0
 44 42  2  0  0  0  0
 45 44  1  0  0  0  0
M  END
>  <MODEL>
2

>  <REMARK>
 VINA RESULT:      -9.8      2.058      3.223
  Name = 
  9 active torsions:
  status: ('A' for Active; 'I' for Inactive)
    1  A    between atoms: C_10  and  N_41
    2  A    between atoms: C_12  and  C_18
    3  A    between atoms: C_12  and  C_40
    4  A    between atoms: C_13  and  N_44
    5  A    between atoms: C_14  and  N_33
    6  A    between atoms: C_18  and  N_25
    7  A    between atoms: C_18  and  N_41
    8  A    between atoms: C_19  and  N_44
    9  A    between atoms: N_25  and  C_26
                            x       y       z     vdW  Elec       q    Type
                         _______ _______ _______ _____ _____    ______ ____

>  <TORSDO>
F 9

$$$$
=
 OpenBabel10222418143D

 45 51  0  0  1  0  0  0  0  0999 V2000
  188.0070  176.7860  137.8430 C   0  0  1  0  0  3  0  0  0  0  0  0
  189.1730  179.0250  138.0470 C   0  0  0  0  0  1  0  0  0  0  0  0
  188.1200  178.1030  138.6410 C   0  0  2  0  0  3  0  0  0  0  0  0
  183.9990  178.7460  144.4760 N   0  0  0  0  0  0  0  0  0  0  0  0
  190.7600  177.1060  145.7500 C   0  0  0  0  0  0  0  0  0  0  0  0
  187.2050  177.9910  145.4630 N   0  0  0  0  0  0  0  0  0  0  0  0
  189.5120  177.7650  146.6480 S   0  0  0  0  0  0  0  0  0  0  0  0
  184.2960  179.4910  143.2920 C   0  0  0  0  0  3  0  0  0  0  0  0
  189.1440  177.2990  144.1770 C   0  0  0  0  0  0  0  0  0  0  0  0
  187.5530  178.0650  142.4030 C   0  0  0  0  0  0  0  0  0  0  0  0
  190.4260  176.9120  144.4600 N   0  0  0  0  0  2  0  0  0  0  0  0
  187.4550  178.3420  141.0250 C   0  0  0  0  0  3  0  0  0  0  0  0
  186.2170  177.6810  144.4540 C   0  0  0  0  0  0  0  0  0  0  0  0
  188.4700  177.7620  145.3280 C   0  0  0  0  0  0  0  0  0  0  0  0
  189.4630  177.1200  140.5420 C   0  0  0  0  0  3  0  0  0  0  0  0
  185.4550  179.3400  142.6590 C   0  0  0  0  0  3  0  0  0  0  0  0
  188.7270  177.3730  142.8750 C   0  0  0  0  0  0  0  0  0  0  0  0
  189.6360  176.8950  141.9040 C   0  0  0  0  0  2  0  0  0  0  0  0
  186.4930  178.4110  143.1710 C   0  0  0  0  0  0  0  0  0  0  0  0
  184.8400  177.9180  145.0150 C   0  0  0  0  0  3  0  0  0  0  0  0
  188.3850  177.8800  140.1010 C   0  0  0  0  0  0  0  0  0  0  0  0
  191.8960  176.8260  146.2120 O   0  0  0  0  0  0  0  0  0  0  0  0
  186.7670  176.7060  137.0630 N   0  0  0  0  0  2  0  0  0  0  0  0
  183.6910  174.8800  137.8410 O   0  0  0  0  0  0  0  0  0  0  0  0
  184.3670  173.6520  137.6360 C   0  0  2  0  0  3  0  0  0  0  0  0
  184.4710  176.0070  137.6500 C   0  0  0  0  0  0  0  0  0  0  0  0
  185.6890  175.7590  137.1800 C   0  0  0  0  0  0  0  0  0  0  0  0
  185.9680  174.0300  136.8300 S   0  0  0  0  0  0  0  0  0  0  0  0
  183.3630  171.5970  137.1620 O   0  0  0  0  0  0  0  0  0  0  0  0
  183.5660  172.7730  136.8000 N   0  0  0  0  0  0  0  0  0  0  0  0
  182.9060  173.2700  135.7000 O   0  0  0  0  0  0  0  0  0  0  0  0
  183.9840  177.3120  137.9620 N   0  0  0  0  0  2  0  0  0  0  0  0
  184.2450  179.4620  139.0350 C   0  0  0  0  0  1  0  0  0  0  0  0
  184.2490  177.9620  139.2360 C   0  0  0  0  0  3  0  0  0  0  0  0
  183.1740  177.5890  140.2430 C   0  0  0  0  0  1  0  0  0  0  0  0
  189.1570  176.5830  136.9670 N   0  0  0  0  0  2  0  0  0  0  0  0
  191.2240  175.8610  137.7700 C   0  0  0  0  0  0  0  0  0  0  0  0
  191.8420  174.7450  135.6030 C   0  0  0  0  0  3  0  0  0  0  0  0
  190.9450  175.1180  136.5490 C   0  0  0  0  0  0  0  0  0  0  0  0
  189.9180  175.4420  137.4550 C   0  0  2  0  0  3  0  0  0  0  0  0
  193.1600  175.1980  135.9730 C   0  0  0  0  0  0  0  0  0  0  0  0
  193.4470  175.9480  137.1980 C   0  0  0  0  0  3  0  0  0  0  0  0
  194.1920  174.9030  135.1480 F   0  0  0  0  0  0  0  0  0  0  0  0
  192.4430  176.3100  138.1580 C   0  0  0  0  0  0  0  0  0  0  0  0
  192.6770  177.0160  139.2910 F   0  0  0  0  0  0  0  0  0  0  0  0
  1 36  1  6  0  0  0
  1  3  1  0  0  0  0
  3  2  1  6  0  0  0
  3 21  1  0  0  0  0
  4 20  1  0  0  0  0
  5 22  2  0  0  0  0
  5  7  1  0  0  0  0
  8  4  2  0  0  0  0
  9 11  1  0  0  0  0
  9 14  1  0  0  0  0
 10 17  1  0  0  0  0
 10 19  1  0  0  0  0
 11  5  1  0  0  0  0
 12 10  2  0  0  0  0
 13 20  2  0  0  0  0
 13  6  1  0  0  0  0
 14  6  2  0  0  0  0
 14  7  1  0  0  0  0
 15 18  1  0  0  0  0
 16 19  2  0  0  0  0
 16  8  1  0  0  0  0
 17  9  2  0  0  0  0
 18 17  1  0  0  0  0
 19 13  1  0  0  0  0
 21 15  2  0  0  0  0
 21 12  1  0  0  0  0
 23 27  1  0  0  0  0
 23  1  1  0  0  0  0
 25 30  1  6  0  0  0
 25 24  1  0  0  0  0
 26 24  1  0  0  0  0
 26 32  1  0  0  0  0
 27 26  2  0  0  0  0
 28 27  1  0  0  0  0
 28 25  1  0  0  0  0
 30 29  2  0  0  0  0
 31 30  2  0  0  0  0
 32 34  1  0  0  0  0
 33 34  1  0  0  0  0
 34 35  1  0  0  0  0
 37 44  1  0  0  0  0
 38 41  2  0  0  0  0
 38 39  1  0  0  0  0
 39 40  1  0  0  0  0
 39 37  2  0  0  0  0
 40 36  1  6  0  0  0
 40 37  1  0  0  0  0
 41 42  1  0  0  0  0
 42 44  2  0  0  0  0
 43 41  1  0  0  0  0
 44 45  1  0  0  0  0
M  END
>  <MODEL>
3

>  <REMARK>
 VINA RESULT:      -9.5      3.889      8.230
  Name = 
  9 active torsions:
  status: ('A' for Active; 'I' for Inactive)
    1  A    between atoms: C_10  and  N_41
    2  A    between atoms: C_12  and  C_18
    3  A    between atoms: C_12  and  C_40
    4  A    between atoms: C_13  and  N_44
    5  A    between atoms: C_14  and  N_33
    6  A    between atoms: C_18  and  N_25
    7  A    between atoms: C_18  and  N_41
    8  A    between atoms: C_19  and  N_44
    9  A    between atoms: N_25  and  C_26
                            x       y       z     vdW  Elec       q    Type
                         _______ _______ _______ _____ _____    ______ ____

>  <TORSDO>
F 9

$$$$
=
 OpenBabel10222418143D

 45 51  0  0  1  0  0  0  0  0999 V2000
  187.7420  176.6560  137.8230 C   0  0  1  0  0  3  0  0  0  0  0  0
  188.9050  178.9010  137.9770 C   0  0  0  0  0  1  0  0  0  0  0  0
  187.6450  178.1180  138.3120 C   0  0  2  0  0  3  0  0  0  0  0  0
  191.5040  176.7150  144.1930 N   0  0  0  0  0  0  0  0  0  0  0  0
  184.8010  178.6250  145.3940 C   0  0  0  0  0  0  0  0  0  0  0  0
  188.3100  177.5640  145.1420 N   0  0  0  0  0  0  0  0  0  0  0  0
  185.9770  177.8160  146.2670 S   0  0  0  0  0  0  0  0  0  0  0  0
  191.2110  176.0980  142.9360 C   0  0  0  0  0  3  0  0  0  0  0  0
  186.4620  178.4800  143.8630 C   0  0  0  0  0  0  0  0  0  0  0  0
  188.0720  177.7850  142.0780 C   0  0  0  0  0  0  0  0  0  0  0  0
  185.1930  178.9140  144.1390 N   0  0  0  0  0  2  0  0  0  0  0  0
  188.2070  177.6280  140.6840 C   0  0  0  0  0  3  0  0  0  0  0  0
  189.3500  177.9050  144.1980 C   0  0  0  0  0  0  0  0  0  0  0  0
  187.0660  177.8780  144.9870 C   0  0  0  0  0  0  0  0  0  0  0  0
  186.2880  179.0020  140.2510 C   0  0  0  0  0  3  0  0  0  0  0  0
  190.0860  176.3720  142.2830 C   0  0  0  0  0  3  0  0  0  0  0  0
  186.9220  178.4990  142.5740 C   0  0  0  0  0  0  0  0  0  0  0  0
  186.0770  179.1140  141.6220 C   0  0  0  0  0  2  0  0  0  0  0  0
  189.0830  177.3110  142.8450 C   0  0  0  0  0  0  0  0  0  0  0  0
  190.6900  177.5390  144.7790 C   0  0  0  0  0  3  0  0  0  0  0  0
  187.3390  178.2240  139.7770 C   0  0  0  0  0  0  0  0  0  0  0  0
  183.6650  178.9280  145.8430 O   0  0  0  0  0  0  0  0  0  0  0  0
  186.6340  176.2860  136.9360 N   0  0  0  0  0  2  0  0  0  0  0  0
  183.8380  174.0110  137.5760 O   0  0  0  0  0  0  0  0  0  0  0  0
  184.7350  172.9130  137.5940 C   0  0  2  0  0  3  0  0  0  0  0  0
  184.4340  175.2390  137.3420 C   0  0  0  0  0  0  0  0  0  0  0  0
  185.7260  175.1740  137.0420 C   0  0  0  0  0  0  0  0  0  0  0  0
  186.3390  173.5000  136.9320 S   0  0  0  0  0  0  0  0  0  0  0  0
  184.8780  171.4020  135.8190 O   0  0  0  0  0  0  0  0  0  0  0  0
  184.2110  171.8270  136.7830 N   0  0  0  0  0  0  0  0  0  0  0  0
  183.0660  171.1650  137.1620 O   0  0  0  0  0  0  0  0  0  0  0  0
  183.6950  176.4560  137.4420 N   0  0  0  0  0  2  0  0  0  0  0  0
  183.1330  178.6220  138.3560 C   0  0  0  0  0  1  0  0  0  0  0  0
  183.6150  177.2230  138.6750 C   0  0  0  0  0  3  0  0  0  0  0  0
  182.6360  176.5640  139.6340 C   0  0  0  0  0  1  0  0  0  0  0  0
  189.0160  176.3890  137.1630 N   0  0  0  0  0  2  0  0  0  0  0  0
  190.9220  176.0860  138.4720 C   0  0  0  0  0  0  0  0  0  0  0  0
  192.1200  174.7820  136.6870 C   0  0  0  0  0  3  0  0  0  0  0  0
  191.0020  175.1500  137.3590 C   0  0  0  0  0  0  0  0  0  0  0  0
  189.7720  175.4460  137.9760 C   0  0  2  0  0  3  0  0  0  0  0  0
  193.2670  175.4640  137.2340 C   0  0  0  0  0  0  0  0  0  0  0  0
  193.1940  176.4100  138.3510 C   0  0  0  0  0  3  0  0  0  0  0  0
  194.4810  175.2080  136.6920 F   0  0  0  0  0  0  0  0  0  0  0  0
  191.9690  176.7530  139.0170 C   0  0  0  0  0  0  0  0  0  0  0  0
  191.8700  177.6340  140.0410 F   0  0  0  0  0  0  0  0  0  0  0  0
  1 23  1  6  0  0  0
  1  3  1  0  0  0  0
  3  2  1  1  0  0  0
  3 21  1  0  0  0  0
  4 20  1  0  0  0  0
  5 22  2  0  0  0  0
  5  7  1  0  0  0  0
  8  4  2  0  0  0  0
  9 11  1  0  0  0  0
  9 14  1  0  0  0  0
 10 17  1  0  0  0  0
 10 19  1  0  0  0  0
 11  5  1  0  0  0  0
 12 10  2  0  0  0  0
 13 20  2  0  0  0  0
 13  6  1  0  0  0  0
 14  6  2  0  0  0  0
 14  7  1  0  0  0  0
 15 18  1  0  0  0  0
 16 19  2  0  0  0  0
 16  8  1  0  0  0  0
 17  9  2  0  0  0  0
 18 17  1  0  0  0  0
 19 13  1  0  0  0  0
 21 15  2  0  0  0  0
 21 12  1  0  0  0  0
 23 27  1  0  0  0  0
 24 25  1  0  0  0  0
 25 30  1  6  0  0  0
 26 32  1  0  0  0  0
 26 24  1  0  0  0  0
 27 26  2  0  0  0  0
 28 27  1  0  0  0  0
 28 25  1  0  0  0  0
 29 30  2  0  0  0  0
 30 31  2  0  0  0  0
 32 34  1  0  0  0  0
 33 34  1  0  0  0  0
 34 35  1  0  0  0  0
 36  1  1  0  0  0  0
 37 44  1  0  0  0  0
 38 41  2  0  0  0  0
 38 39  1  0  0  0  0
 39 40  1  0  0  0  0
 39 37  2  0  0  0  0
 40 36  1  6  0  0  0
 40 37  1  0  0  0  0
 41 42  1  0  0  0  0
 42 44  2  0  0  0  0
 43 41  1  0  0  0  0
 44 45  1  0  0  0  0
M  END
>  <MODEL>
4

>  <REMARK>
 VINA RESULT:      -9.4      4.236      8.098
  Name = 
  9 active torsions:
  status: ('A' for Active; 'I' for Inactive)
    1  A    between atoms: C_10  and  N_41
    2  A    between atoms: C_12  and  C_18
    3  A    between atoms: C_12  and  C_40
    4  A    between atoms: C_13  and  N_44
    5  A    between atoms: C_14  and  N_33
    6  A    between atoms: C_18  and  N_25
    7  A    between atoms: C_18  and  N_41
    8  A    between atoms: C_19  and  N_44
    9  A    between atoms: N_25  and  C_26
                            x       y       z     vdW  Elec       q    Type
                         _______ _______ _______ _____ _____    ______ ____

>  <TORSDO>
F 9

$$$$
=
 OpenBabel10222418143D

 45 51  0  0  1  0  0  0  0  0999 V2000
  185.6320  178.5030  142.0150 C   0  0  1  0  0  3  0  0  0  0  0  0
  183.4620  178.8920  143.2600 C   0  0  0  0  0  1  0  0  0  0  0  0
  184.1990  179.0720  141.9420 C   0  0  2  0  0  3  0  0  0  0  0  0
  180.6160  182.0630  136.4960 N   0  0  0  0  0  0  0  0  0  0  0  0
  180.0270  175.0310  136.9650 C   0  0  0  0  0  0  0  0  0  0  0  0
  180.0760  178.6680  136.4440 N   0  0  0  0  0  0  0  0  0  0  0  0
  179.1440  176.2460  136.2300 S   0  0  0  0  0  0  0  0  0  0  0  0
  180.7630  182.2470  137.9070 C   0  0  0  0  0  3  0  0  0  0  0  0
  181.1260  176.8710  137.6920 C   0  0  0  0  0  0  0  0  0  0  0  0
  181.9160  178.9140  138.9020 C   0  0  0  0  0  0  0  0  0  0  0  0
  181.0450  175.5040  137.7080 N   0  0  0  0  0  2  0  0  0  0  0  0
  182.6000  179.3430  140.0570 C   0  0  0  0  0  3  0  0  0  0  0  0
  181.1010  179.6570  136.6830 C   0  0  0  0  0  0  0  0  0  0  0  0
  180.1450  177.4440  136.8560 C   0  0  1  0  0  3  0  0  0  0  0  0
  183.5290  177.1610  140.4300 C   0  0  0  0  0  3  0  0  0  0  0  0
  181.1050  181.2360  138.6990 C   0  0  0  0  0  3  0  0  0  0  0  0
  181.9620  177.5130  138.5660 C   0  0  0  0  0  0  0  0  0  0  0  0
  182.8050  176.6840  139.3410 C   0  0  0  0  0  3  0  0  0  0  0  0
  181.3250  179.8750  138.1520 C   0  0  0  0  0  0  0  0  0  0  0  0
  180.7720  180.9120  135.9180 C   0  0  0  0  0  3  0  0  0  0  0  0
  183.3980  178.4920  140.8130 C   0  0  0  0  0  0  0  0  0  0  0  0
  179.7730  173.8030  136.8560 O   0  0  0  0  0  0  0  0  0  0  0  0
  186.4840  178.9840  140.9220 N   0  0  0  0  0  2  0  0  0  0  0  0
  189.2950  177.2980  139.2910 O   0  0  0  0  0  0  0  0  0  0  0  0
  188.6330  177.4030  138.0420 C   0  0  2  0  0  3  0  0  0  0  0  0
  188.5950  177.8290  140.3610 C   0  0  0  0  0  0  0  0  0  0  0  0
  187.3640  178.2310  140.0660 C   0  0  0  0  0  0  0  0  0  0  0  0
  186.9010  177.8960  138.3740 S   0  0  0  0  0  0  0  0  0  0  0  0
  187.8720  175.9030  136.4210 O   0  0  0  0  0  0  0  0  0  0  0  0
  188.6810  176.1290  137.3440 N   0  0  0  0  0  0  0  0  0  0  0  0
  189.7020  175.2400  137.5850 O   0  0  0  0  0  0  0  0  0  0  0  0
  189.1840  177.9380  141.6560 N   0  0  0  0  0  2  0  0  0  0  0  0
  191.1920  178.1200  142.9900 C   0  0  0  0  0  1  0  0  0  0  0  0
  190.4190  177.2590  142.0140 C   0  0  0  0  0  3  0  0  0  0  0  0
  190.1060  175.9220  142.6660 C   0  0  0  0  0  1  0  0  0  0  0  0
  186.2650  178.7910  143.2990 N   0  0  0  0  0  2  0  0  0  0  0  0
  186.1890  177.7940  145.4060 C   0  0  0  0  0  0  0  0  0  0  0  0
  188.6920  177.6290  145.5800 C   0  0  0  0  0  3  0  0  0  0  0  0
  187.5320  177.6000  144.8780 C   0  0  0  0  0  0  0  0  0  0  0  0
  186.4040  177.5440  144.0380 C   0  0  2  0  0  3  0  0  0  0  0  0
  188.4150  177.8870  146.9720 C   0  0  0  0  0  0  0  0  0  0  0  0
  187.0660  178.0860  147.5090 C   0  0  0  0  0  3  0  0  0  0  0  0
  189.4600  177.9380  147.8320 F   0  0  0  0  0  0  0  0  0  0  0  0
  185.8800  178.0430  146.7030 C   0  0  0  0  0  0  0  0  0  0  0  0
  184.6230  178.2380  147.1690 F   0  0  0  0  0  0  0  0  0  0  0  0
  1 23  1  6  0  0  0
  1 36  1  0  0  0  0
  3  1  1  0  0  0  0
  3  2  1  1  0  0  0
  4  8  1  0  0  0  0
  5 11  1  0  0  0  0
  6 13  2  0  0  0  0
  6 14  1  0  0  0  0
  7  5  1  0  0  0  0
  8 16  2  0  0  0  0
  9 11  1  0  0  0  0
  9 17  2  0  0  0  0
 10 12  1  0  0  0  0
 12 21  2  0  0  0  0
 13 19  1  0  0  0  0
 14  7  1  6  0  0  0
 14  9  1  0  0  0  0
 15 21  1  0  0  0  0
 17 10  1  0  0  0  0
 17 18  1  0  0  0  0
 18 15  2  0  0  0  0
 19 16  1  0  0  0  0
 19 10  2  0  0  0  0
 20  4  2  0  0  0  0
 20 13  1  0  0  0  0
 21  3  1  0  0  0  0
 22  5  2  0  0  0  0
 24 26  1  0  0  0  0
 25 30  1  1  0  0  0
 25 28  1  0  0  0  0
 25 24  1  0  0  0  0
 26 32  1  0  0  0  0
 27 26  2  0  0  0  0
 27 23  1  0  0  0  0
 28 27  1  0  0  0  0
 29 30  2  0  0  0  0
 30 31  2  0  0  0  0
 32 34  1  0  0  0  0
 34 35  1  0  0  0  0
 34 33  1  0  0  0  0
 37 44  1  0  0  0  0
 38 41  2  0  0  0  0
 39 37  2  0  0  0  0
 39 38  1  0  0  0  0
 40 36  1  6  0  0  0
 40 39  1  0  0  0  0
 40 37  1  0  0  0  0
 41 42  1  0  0  0  0
 41 43  1  0  0  0  0
 44 45  1  0  0  0  0
 44 42  2  0  0  0  0
M  END
>  <MODEL>
5

>  <REMARK>
 VINA RESULT:      -9.3      2.625      4.117
  Name = 
  9 active torsions:
  status: ('A' for Active; 'I' for Inactive)
    1  A    between atoms: C_10  and  N_41
    2  A    between atoms: C_12  and  C_18
    3  A    between atoms: C_12  and  C_40
    4  A    between atoms: C_13  and  N_44
    5  A    between atoms: C_14  and  N_33
    6  A    between atoms: C_18  and  N_25
    7  A    between atoms: C_18  and  N_41
    8  A    between atoms: C_19  and  N_44
    9  A    between atoms: N_25  and  C_26
                            x       y       z     vdW  Elec       q    Type
                         _______ _______ _______ _____ _____    ______ ____

>  <TORSDO>
F 9

$$$$
=
 OpenBabel10222418143D

 45 51  0  0  1  0  0  0  0  0999 V2000
  188.0720  178.3450  142.6150 C   0  0  1  0  0  3  0  0  0  0  0  0
  187.0520  176.3800  143.8460 C   0  0  0  0  0  1  0  0  0  0  0  0
  186.9360  177.8660  143.5440 C   0  0  2  0  0  3  0  0  0  0  0  0
  184.0660  177.4110  136.9870 N   0  0  0  0  0  0  0  0  0  0  0  0
  179.8560  180.2530  141.9070 C   0  0  0  0  0  0  0  0  0  0  0  0
  181.7760  178.8670  139.0980 N   0  0  0  0  0  0  0  0  0  0  0  0
  179.9070  180.2770  140.2350 S   0  0  0  0  0  0  0  0  0  0  0  0
  185.2700  177.8880  137.5950 C   0  0  0  0  0  3  0  0  0  0  0  0
  181.7730  179.1180  141.5120 C   0  0  0  0  0  0  0  0  0  0  0  0
  184.1240  178.4020  141.0370 C   0  0  2  0  0  3  0  0  0  0  0  0
  180.9050  179.6070  142.4500 N   0  0  0  0  0  2  0  0  0  0  0  0
  185.3920  178.2390  141.6310 C   0  0  0  0  0  3  0  0  0  0  0  0
  182.7750  177.8240  139.0410 C   0  0  0  0  0  0  0  0  0  0  0  0
  181.3240  179.3720  140.1990 C   0  0  0  0  0  0  0  0  0  0  0  0
  184.4650  178.3020  143.8440 C   0  0  0  0  0  3  0  0  0  0  0  0
  185.2890  178.2780  138.8650 C   0  0  0  0  0  3  0  0  0  0  0  0
  182.9930  178.6330  141.9010 C   0  0  0  0  0  0  0  0  0  0  0  0
  183.2090  178.5430  143.2960 C   0  0  0  0  0  3  0  0  0  0  0  0
  184.0580  178.2540  139.6930 C   0  0  0  0  0  0  0  0  0  0  0  0
  182.9330  177.3620  137.6160 C   0  0  0  0  0  3  0  0  0  0  0  0
  185.5710  178.1850  143.0090 C   0  0  0  0  0  0  0  0  0  0  0  0
  178.9490  180.7870  142.5980 O   0  0  0  0  0  0  0  0  0  0  0  0
  189.3020  178.6610  143.3480 N   0  0  0  0  0  2  0  0  0  0  0  0
  190.6570  177.1880  146.4150 O   0  0  0  0  0  0  0  0  0  0  0  0
  191.7870  176.7280  145.6950 C   0  0  2  0  0  3  0  0  0  0  0  0
  189.7280  177.8760  145.6520 C   0  0  0  0  0  0  0  0  0  0  0  0
  189.9820  177.8790  144.3480 C   0  0  0  0  0  0  0  0  0  0  0  0
  191.4190  176.9120  143.9100 S   0  0  0  0  0  0  0  0  0  0  0  0
  192.4310  174.5560  145.1260 O   0  0  0  0  0  0  0  0  0  0  0  0
  192.0570  175.3390  146.0230 N   0  0  0  0  0  0  0  0  0  0  0  0
  192.0550  174.9200  147.3330 O   0  0  0  0  0  0  0  0  0  0  0  0
  188.6110  178.5320  146.2520 N   0  0  0  0  0  2  0  0  0  0  0  0
  188.2490  178.2060  148.6190 C   0  0  0  0  0  1  0  0  0  0  0  0
  187.7520  177.8800  147.2270 C   0  0  0  0  0  3  0  0  0  0  0  0
  186.3240  178.3790  147.0770 C   0  0  0  0  0  1  0  0  0  0  0  0
  188.3580  177.3730  141.5640 N   0  0  0  0  0  2  0  0  0  0  0  0
  188.9490  177.1960  139.3150 C   0  0  0  0  0  0  0  0  0  0  0  0
  191.4120  177.1310  139.8150 C   0  0  0  0  0  3  0  0  0  0  0  0
  190.1490  177.5600  140.0550 C   0  0  0  0  0  0  0  0  0  0  0  0
  188.8890  178.0800  140.4080 C   0  0  2  0  0  3  0  0  0  0  0  0
  191.4170  176.2300  138.6880 C   0  0  0  0  0  0  0  0  0  0  0  0
  190.2130  175.8580  137.9410 C   0  0  0  0  0  3  0  0  0  0  0  0
  192.6020  175.7080  138.2920 F   0  0  0  0  0  0  0  0  0  0  0  0
  188.9030  176.3530  138.2540 C   0  0  0  0  0  0  0  0  0  0  0  0
  187.7710  176.0150  137.5910 F   0  0  0  0  0  0  0  0  0  0  0  0
  1 36  1  6  0  0  0
  1 23  1  0  0  0  0
  1  3  1  0  0  0  0
  3  2  1  6  0  0  0
  4  8  2  0  0  0  0
  4 20  1  0  0  0  0
  5 11  1  0  0  0  0
  5 22  2  0  0  0  0
  6 14  2  0  0  0  0
  7  5  1  0  0  0  0
  8 16  1  0  0  0  0
  9 17  2  0  0  0  0
  9 11  1  0  0  0  0
 10 12  1  1  0  0  0
 10 17  1  0  0  0  0
 12 21  2  0  0  0  0
 13  6  1  0  0  0  0
 13 19  1  0  0  0  0
 14  7  1  0  0  0  0
 14  9  1  0  0  0  0
 16 19  2  0  0  0  0
 17 18  1  0  0  0  0
 18 15  2  0  0  0  0
 19 10  1  0  0  0  0
 20 13  2  0  0  0  0
 21  3  1  0  0  0  0
 21 15  1  0  0  0  0
 23 27  1  0  0  0  0
 25 30  1  6  0  0  0
 25 24  1  0  0  0  0
 26 32  1  0  0  0  0
 26 24  1  0  0  0  0
 27 26  2  0  0  0  0
 28 27  1  0  0  0  0
 28 25  1  0  0  0  0
 29 30  2  0  0  0  0
 30 31  2  0  0  0  0
 32 34  1  0  0  0  0
 34 33  1  0  0  0  0
 35 34  1  0  0  0  0
 37 39  1  0  0  0  0
 37 40  1  0  0  0  0
 38 39  2  0  0  0  0
 39 40  1  0  0  0  0
 40 36  1  1  0  0  0
 41 38  1  0  0  0  0
 42 44  1  0  0  0  0
 42 41  2  0  0  0  0
 43 41  1  0  0  0  0
 44 37  2  0  0  0  0
 45 44  1  0  0  0  0
M  END
>  <MODEL>
6

>  <REMARK>
 VINA RESULT:      -9.3      3.389      6.315
  Name = 
  9 active torsions:
  status: ('A' for Active; 'I' for Inactive)
    1  A    between atoms: C_10  and  N_41
    2  A    between atoms: C_12  and  C_18
    3  A    between atoms: C_12  and  C_40
    4  A    between atoms: C_13  and  N_44
    5  A    between atoms: C_14  and  N_33
    6  A    between atoms: C_18  and  N_25
    7  A    between atoms: C_18  and  N_41
    8  A    between atoms: C_19  and  N_44
    9  A    between atoms: N_25  and  C_26
                            x       y       z     vdW  Elec       q    Type
                         _______ _______ _______ _____ _____    ______ ____

>  <TORSDO>
F 9

$$$$
=
 OpenBabel10222418143D

 45 51  0  0  1  0  0  0  0  0999 V2000
  185.7640  178.4420  140.3270 C   0  0  1  0  0  3  0  0  0  0  0  0
  183.7830  179.7410  139.4310 C   0  0  0  0  0  1  0  0  0  0  0  0
  184.8370  178.6900  139.1180 C   0  0  2  0  0  3  0  0  0  0  0  0
  187.1580  173.3950  134.8730 N   0  0  0  0  0  0  0  0  0  0  0  0
  180.3780  172.9130  136.8270 C   0  0  0  0  0  0  0  0  0  0  0  0
  183.8370  172.8650  135.5870 N   0  0  0  0  0  0  0  0  0  0  0  0
  181.3030  172.2680  135.5910 S   0  0  0  0  0  0  0  0  0  0  0  0
  187.1710  174.8240  134.9000 C   0  0  0  0  0  3  0  0  0  0  0  0
  182.3570  173.9560  137.1710 C   0  0  0  0  0  0  0  0  0  0  0  0
  184.3440  175.4770  137.1390 C   0  0  2  0  0  3  0  0  0  0  0  0
  181.0620  173.7910  137.5850 N   0  0  0  0  0  2  0  0  0  0  0  0
  184.8090  176.7300  137.5870 C   0  0  0  0  0  3  0  0  0  0  0  0
  185.0760  173.3120  136.1820 C   0  0  0  0  0  0  0  0  0  0  0  0
  182.6680  173.1220  136.0760 C   0  0  0  0  0  0  0  0  0  0  0  0
  183.0600  176.8960  139.2240 C   0  0  0  0  0  3  0  0  0  0  0  0
  186.2380  175.5060  135.5570 C   0  0  0  0  0  3  0  0  0  0  0  0
  183.1140  174.9710  137.6940 C   0  0  0  0  0  0  0  0  0  0  0  0
  182.5270  175.7000  138.7540 C   0  0  0  0  0  3  0  0  0  0  0  0
  185.1370  174.8110  136.2670 C   0  0  0  0  0  0  0  0  0  0  0  0
  186.2340  172.6890  135.4490 C   0  0  0  0  0  3  0  0  0  0  0  0
  184.1890  177.4350  138.6130 C   0  0  0  0  0  0  0  0  0  0  0  0
  179.1700  172.6280  137.0330 O   0  0  0  0  0  0  0  0  0  0  0  0
  187.1220  178.9520  140.1090 N   0  0  0  0  0  2  0  0  0  0  0  0
  190.4000  177.3920  139.6350 O   0  0  0  0  0  0  0  0  0  0  0  0
  190.2500  177.5020  138.2300 C   0  0  2  0  0  3  0  0  0  0  0  0
  189.3320  177.8770  140.3690 C   0  0  0  0  0  0  0  0  0  0  0  0
  188.2850  178.2460  139.6380 C   0  0  0  0  0  0  0  0  0  0  0  0
  188.5020  177.9320  137.8930 S   0  0  0  0  0  0  0  0  0  0  0  0
  190.8560  176.2280  136.3680 O   0  0  0  0  0  0  0  0  0  0  0  0
  190.6030  176.2460  137.5900 N   0  0  0  0  0  0  0  0  0  0  0  0
  190.8090  175.1140  138.3440 O   0  0  0  0  0  0  0  0  0  0  0  0
  189.3900  177.9780  141.7910 N   0  0  0  0  0  2  0  0  0  0  0  0
  190.6380  178.2200  143.8470 C   0  0  0  0  0  1  0  0  0  0  0  0
  190.4830  177.4200  142.5710 C   0  0  0  0  0  3  0  0  0  0  0  0
  190.1840  175.9720  142.9220 C   0  0  0  0  0  1  0  0  0  0  0  0
  185.2150  179.0070  141.5560 N   0  0  0  0  0  2  0  0  0  0  0  0
  184.6230  178.4550  143.7430 C   0  0  0  0  0  0  0  0  0  0  0  0
  186.9440  177.6890  144.3340 C   0  0  0  0  0  3  0  0  0  0  0  0
  185.9110  177.8330  143.4680 C   0  0  0  0  0  0  0  0  0  0  0  0
  184.9160  177.9190  142.4760 C   0  0  2  0  0  3  0  0  0  0  0  0
  186.5930  178.2530  145.6140 C   0  0  0  0  0  0  0  0  0  0  0  0
  185.3000  178.8830  145.8960 C   0  0  0  0  0  3  0  0  0  0  0  0
  187.5040  178.1880  146.6130 F   0  0  0  0  0  0  0  0  0  0  0  0
  184.2490  179.0020  144.9260 C   0  0  0  0  0  0  0  0  0  0  0  0
  183.0510  179.5920  145.1550 F   0  0  0  0  0  0  0  0  0  0  0  0
  1 23  1  6  0  0  0
  1 36  1  0  0  0  0
  3  2  1  1  0  0  0
  3  1  1  0  0  0  0
  4  8  2  0  0  0  0
  4 20  1  0  0  0  0
  5 22  2  0  0  0  0
  5 11  1  0  0  0  0
  6 14  2  0  0  0  0
  6 13  1  0  0  0  0
  7 14  1  0  0  0  0
  7  5  1  0  0  0  0
  8 16  1  0  0  0  0
  9 11  1  0  0  0  0
  9 17  2  0  0  0  0
 10 12  1  1  0  0  0
 10 17  1  0  0  0  0
 12 21  2  0  0  0  0
 13 19  1  0  0  0  0
 14  9  1  0  0  0  0
 16 19  2  0  0  0  0
 17 18  1  0  0  0  0
 18 15  2  0  0  0  0
 19 10  1  0  0  0  0
 20 13  2  0  0  0  0
 21  3  1  0  0  0  0
 21 15  1  0  0  0  0
 24 26  1  0  0  0  0
 25 30  1  6  0  0  0
 25 24  1  0  0  0  0
 26 32  1  0  0  0  0
 27 23  1  0  0  0  0
 27 26  2  0  0  0  0
 28 25  1  0  0  0  0
 28 27  1  0  0  0  0
 29 30  2  0  0  0  0
 30 31  2  0  0  0  0
 32 34  1  0  0  0  0
 34 35  1  0  0  0  0
 34 33  1  0  0  0  0
 37 44  1  0  0  0  0
 38 41  2  0  0  0  0
 39 37  2  0  0  0  0
 39 38  1  0  0  0  0
 40 36  1  6  0  0  0
 40 39  1  0  0  0  0
 40 37  1  0  0  0  0
 41 42  1  0  0  0  0
 41 43  1  0  0  0  0
 44 45  1  0  0  0  0
 44 42  2  0  0  0  0
M  END
>  <MODEL>
7

>  <REMARK>
 VINA RESULT:      -9.2      3.486      6.229
  Name = 
  9 active torsions:
  status: ('A' for Active; 'I' for Inactive)
    1  A    between atoms: C_10  and  N_41
    2  A    between atoms: C_12  and  C_18
    3  A    between atoms: C_12  and  C_40
    4  A    between atoms: C_13  and  N_44
    5  A    between atoms: C_14  and  N_33
    6  A    between atoms: C_18  and  N_25
    7  A    between atoms: C_18  and  N_41
    8  A    between atoms: C_19  and  N_44
    9  A    between atoms: N_25  and  C_26
                            x       y       z     vdW  Elec       q    Type
                         _______ _______ _______ _____ _____    ______ ____

>  <TORSDO>
F 9

$$$$
=
 OpenBabel10222418143D

 45 51  0  0  1  0  0  0  0  0999 V2000
  185.8190  178.4040  140.1670 C   0  0  1  0  0  3  0  0  0  0  0  0
  183.8820  179.7510  139.2450 C   0  0  0  0  0  1  0  0  0  0  0  0
  184.8830  178.6420  138.9620 C   0  0  2  0  0  3  0  0  0  0  0  0
  186.8450  173.1530  134.7830 N   0  0  0  0  0  0  0  0  0  0  0  0
  180.1390  172.9650  137.0220 C   0  0  0  0  0  0  0  0  0  0  0  0
  183.5400  172.7610  135.6450 N   0  0  0  0  0  0  0  0  0  0  0  0
  180.9890  172.2540  135.7690 S   0  0  0  0  0  0  0  0  0  0  0  0
  186.9070  174.5820  134.7680 C   0  0  0  0  0  3  0  0  0  0  0  0
  182.1650  173.9470  137.2560 C   0  0  0  0  0  0  0  0  0  0  0  0
  184.1990  175.3950  137.0990 C   0  0  2  0  0  3  0  0  0  0  0  0
  180.8830  173.8390  137.7250 N   0  0  0  0  0  2  0  0  0  0  0  0
  184.7240  176.6430  137.4920 C   0  0  0  0  0  3  0  0  0  0  0  0
  184.8160  173.1810  136.1760 C   0  0  0  0  0  0  0  0  0  0  0  0
  182.4020  173.0730  136.1730 C   0  0  0  0  0  0  0  0  0  0  0  0
  183.0520  176.9160  139.1920 C   0  0  0  0  0  3  0  0  0  0  0  0
  186.0260  175.3140  135.4420 C   0  0  0  0  0  3  0  0  0  0  0  0
  182.9770  174.9480  137.7180 C   0  0  0  0  0  0  0  0  0  0  0  0
  182.4590  175.7260  138.7780 C   0  0  0  0  0  3  0  0  0  0  0  0
  184.9320  174.6770  136.2160 C   0  0  0  0  0  0  0  0  0  0  0  0
  185.9220  172.4960  135.4160 C   0  0  0  0  0  3  0  0  0  0  0  0
  184.1720  177.3970  138.5200 C   0  0  0  0  0  0  0  0  0  0  0  0
  178.9310  172.7280  137.2850 O   0  0  0  0  0  0  0  0  0  0  0  0
  187.1710  178.9220  139.9400 N   0  0  0  0  0  2  0  0  0  0  0  0
  190.4000  177.1990  139.8200 O   0  0  0  0  0  0  0  0  0  0  0  0
  190.2130  176.7550  141.1530 C   0  0  2  0  0  3  0  0  0  0  0  0
  189.3690  177.9770  139.3210 C   0  0  0  0  0  0  0  0  0  0  0  0
  188.4360  178.2900  140.2130 C   0  0  0  0  0  0  0  0  0  0  0  0
  188.8070  177.6940  141.8560 S   0  0  0  0  0  0  0  0  0  0  0  0
  192.3970  177.5470  141.3950 O   0  0  0  0  0  0  0  0  0  0  0  0
  191.4210  176.9800  141.9280 N   0  0  0  0  0  0  0  0  0  0  0  0
  191.4420  176.7160  143.2780 O   0  0  0  0  0  0  0  0  0  0  0  0
  189.3330  178.3760  137.9510 N   0  0  0  0  0  2  0  0  0  0  0  0
  187.5430  178.6280  136.3470 C   0  0  0  0  0  1  0  0  0  0  0  0
  188.5470  177.6700  136.9520 C   0  0  0  0  0  3  0  0  0  0  0  0
  189.4560  177.1410  135.8550 C   0  0  0  0  0  1  0  0  0  0  0  0
  185.2720  178.9700  141.3970 N   0  0  0  0  0  2  0  0  0  0  0  0
  184.0480  178.3830  143.2930 C   0  0  0  0  0  0  0  0  0  0  0  0
  186.0990  178.1810  144.7350 C   0  0  0  0  0  3  0  0  0  0  0  0
  185.4430  178.0560  143.5550 C   0  0  0  0  0  0  0  0  0  0  0  0
  184.8800  177.8780  142.2770 C   0  0  2  0  0  3  0  0  0  0  0  0
  185.2030  178.7010  145.7400 C   0  0  0  0  0  0  0  0  0  0  0  0
  183.7990  179.0330  145.4820 C   0  0  0  0  0  3  0  0  0  0  0  0
  185.6840  178.8800  146.9930 F   0  0  0  0  0  0  0  0  0  0  0  0
  183.1710  178.8750  144.2020 C   0  0  0  0  0  0  0  0  0  0  0  0
  181.8800  179.1890  143.9320 F   0  0  0  0  0  0  0  0  0  0  0  0
  1 23  1  6  0  0  0
  1 36  1  0  0  0  0
  3  2  1  1  0  0  0
  3  1  1  0  0  0  0
  4 20  1  0  0  0  0
  5 22  2  0  0  0  0
  5 11  1  0  0  0  0
  6 14  2  0  0  0  0
  6 13  1  0  0  0  0
  7 14  1  0  0  0  0
  7  5  1  0  0  0  0
  8  4  2  0  0  0  0
  8 16  1  0  0  0  0
  9 17  2  0  0  0  0
  9 11  1  0  0  0  0
 10 12  1  1  0  0  0
 10 17  1  0  0  0  0
 12 21  2  0  0  0  0
 13 19  1  0  0  0  0
 14  9  1  0  0  0  0
 16 19  2  0  0  0  0
 17 18  1  0  0  0  0
 18 15  2  0  0  0  0
 19 10  1  0  0  0  0
 20 13  2  0  0  0  0
 21  3  1  0  0  0  0
 21 15  1  0  0  0  0
 23 27  1  0  0  0  0
 24 25  1  0  0  0  0
 25 28  1  0  0  0  0
 25 30  1  1  0  0  0
 26 24  1  0  0  0  0
 26 27  2  0  0  0  0
 27 28  1  0  0  0  0
 29 30  2  0  0  0  0
 30 31  2  0  0  0  0
 32 26  1  0  0  0  0
 33 34  1  0  0  0  0
 34 32  1  0  0  0  0
 35 34  1  0  0  0  0
 37 39  2  0  0  0  0
 37 44  1  0  0  0  0
 38 41  2  0  0  0  0
 39 38  1  0  0  0  0
 40 36  1  6  0  0  0
 40 37  1  0  0  0  0
 40 39  1  0  0  0  0
 41 43  1  0  0  0  0
 42 41  1  0  0  0  0
 44 42  2  0  0  0  0
 45 44  1  0  0  0  0
M  END
>  <MODEL>
8

>  <REMARK>
 VINA RESULT:      -9.2      3.628      6.117
  Name = 
  9 active torsions:
  status: ('A' for Active; 'I' for Inactive)
    1  A    between atoms: C_10  and  N_41
    2  A    between atoms: C_12  and  C_18
    3  A    between atoms: C_12  and  C_40
    4  A    between atoms: C_13  and  N_44
    5  A    between atoms: C_14  and  N_33
    6  A    between atoms: C_18  and  N_25
    7  A    between atoms: C_18  and  N_41
    8  A    between atoms: C_19  and  N_44
    9  A    between atoms: N_25  and  C_26
                            x       y       z     vdW  Elec       q    Type
                         _______ _______ _______ _____ _____    ______ ____

>  <TORSDO>
F 9

$$$$
=
 OpenBabel10222418143D

 45 51  0  0  1  0  0  0  0  0999 V2000
  187.8650  176.8500  137.8590 C   0  0  1  0  0  3  0  0  0  0  0  0
  189.2490  178.9650  138.0210 C   0  0  0  0  0  1  0  0  0  0  0  0
  188.1170  178.1580  138.6390 C   0  0  2  0  0  3  0  0  0  0  0  0
  183.9690  178.7400  144.4610 N   0  0  0  0  0  0  0  0  0  0  0  0
  190.7330  177.1300  145.7530 C   0  0  0  0  0  0  0  0  0  0  0  0
  187.1750  177.9960  145.4570 N   0  0  0  0  0  0  0  0  0  0  0  0
  189.4780  177.7770  146.6500 S   0  0  0  0  0  0  0  0  0  0  0  0
  184.2670  179.4930  143.2830 C   0  0  0  0  0  3  0  0  0  0  0  0
  189.1230  177.3240  144.1740 C   0  0  0  0  0  0  0  0  0  0  0  0
  187.5350  178.0920  142.3990 C   0  0  0  0  0  0  0  0  0  0  0  0
  190.4060  176.9430  144.4600 N   0  0  0  0  0  2  0  0  0  0  0  0
  187.4410  178.3780  141.0220 C   0  0  0  0  0  3  0  0  0  0  0  0
  186.1930  177.6870  144.4420 C   0  0  0  0  0  0  0  0  0  0  0  0
  188.4410  177.7760  145.3250 C   0  0  0  0  0  0  0  0  0  0  0  0
  189.4590  177.1710  140.5400 C   0  0  0  0  0  3  0  0  0  0  0  0
  185.4290  179.3530  142.6540 C   0  0  0  0  0  3  0  0  0  0  0  0
  188.7110  177.4040  142.8710 C   0  0  0  0  0  0  0  0  0  0  0  0
  189.6270  176.9380  141.9010 C   0  0  0  0  0  2  0  0  0  0  0  0
  186.4700  178.4270  143.1640 C   0  0  0  0  0  0  0  0  0  0  0  0
  184.8120  177.9130  144.9990 C   0  0  0  0  0  3  0  0  0  0  0  0
  188.3780  177.9270  140.0990 C   0  0  0  0  0  0  0  0  0  0  0  0
  191.8700  176.8550  146.2180 O   0  0  0  0  0  0  0  0  0  0  0  0
  186.6340  176.8970  137.0650 N   0  0  0  0  0  2  0  0  0  0  0  0
  183.1560  175.9030  137.6300 O   0  0  0  0  0  0  0  0  0  0  0  0
  182.8480  177.2200  138.0560 C   0  0  2  0  0  3  0  0  0  0  0  0
  184.4780  175.7070  137.2690 C   0  0  0  0  0  0  0  0  0  0  0  0
  185.2710  176.7470  137.5040 C   0  0  0  0  0  0  0  0  0  0  0  0
  184.4330  178.1020  138.3130 S   0  0  0  0  0  0  0  0  0  0  0  0
  182.0930  176.1490  139.9890 O   0  0  0  0  0  0  0  0  0  0  0  0
  182.0770  177.1800  139.2870 N   0  0  0  0  0  0  0  0  0  0  0  0
  181.4600  178.3150  139.7590 O   0  0  0  0  0  0  0  0  0  0  0  0
  184.9150  174.4850  136.6780 N   0  0  0  0  0  2  0  0  0  0  0  0
  184.3050  172.1610  136.9410 C   0  0  0  0  0  1  0  0  0  0  0  0
  185.1740  173.2860  137.4600 C   0  0  0  0  0  3  0  0  0  0  0  0
  186.6360  172.8880  137.3330 C   0  0  0  0  0  1  0  0  0  0  0  0
  188.9950  176.5040  137.0020 N   0  0  0  0  0  2  0  0  0  0  0  0
  191.0240  175.7130  137.8380 C   0  0  0  0  0  0  0  0  0  0  0  0
  191.5180  174.3650  135.7730 C   0  0  0  0  0  3  0  0  0  0  0  0
  190.6690  174.8840  136.6940 C   0  0  0  0  0  0  0  0  0  0  0  0
  189.6860  175.3600  137.5820 C   0  0  2  0  0  3  0  0  0  0  0  0
  192.8720  174.7550  136.0810 C   0  0  0  0  0  0  0  0  0  0  0  0
  193.2350  175.5910  137.2290 C   0  0  0  0  0  3  0  0  0  0  0  0
  193.8640  174.3150  135.2710 F   0  0  0  0  0  0  0  0  0  0  0  0
  192.2790  176.1070  138.1660 C   0  0  0  0  0  0  0  0  0  0  0  0
  192.5840  176.8940  139.2260 F   0  0  0  0  0  0  0  0  0  0  0  0
  1 36  1  6  0  0  0
  1  3  1  0  0  0  0
  3  2  1  6  0  0  0
  3 21  1  0  0  0  0
  4 20  1  0  0  0  0
  5 22  2  0  0  0  0
  5  7  1  0  0  0  0
  8  4  2  0  0  0  0
  9 11  1  0  0  0  0
  9 14  1  0  0  0  0
 10 17  1  0  0  0  0
 10 19  1  0  0  0  0
 11  5  1  0  0  0  0
 12 10  2  0  0  0  0
 13 20  2  0  0  0  0
 13  6  1  0  0  0  0
 14  6  2  0  0  0  0
 14  7  1  0  0  0  0
 15 18  1  0  0  0  0
 16 19  2  0  0  0  0
 16  8  1  0  0  0  0
 17  9  2  0  0  0  0
 18 17  1  0  0  0  0
 19 13  1  0  0  0  0
 21 15  2  0  0  0  0
 21 12  1  0  0  0  0
 23 27  1  0  0  0  0
 23  1  1  0  0  0  0
 24 25  1  0  0  0  0
 25 28  1  0  0  0  0
 25 30  1  1  0  0  0
 26 27  2  0  0  0  0
 26 24  1  0  0  0  0
 27 28  1  0  0  0  0
 30 31  2  0  0  0  0
 30 29  2  0  0  0  0
 32 26  1  0  0  0  0
 32 34  1  0  0  0  0
 33 34  1  0  0  0  0
 35 34  1  0  0  0  0
 37 44  1  0  0  0  0
 38 41  2  0  0  0  0
 38 39  1  0  0  0  0
 39 40  1  0  0  0  0
 39 37  2  0  0  0  0
 40 36  1  6  0  0  0
 40 37  1  0  0  0  0
 41 42  1  0  0  0  0
 42 44  2  0  0  0  0
 43 41  1  0  0  0  0
 44 45  1  0  0  0  0
M  END
>  <MODEL>
9

>  <REMARK>
 VINA RESULT:      -9.1      3.750      8.295
  Name = 
  9 active torsions:
  status: ('A' for Active; 'I' for Inactive)
    1  A    between atoms: C_10  and  N_41
    2  A    between atoms: C_12  and  C_18
    3  A    between atoms: C_12  and  C_40
    4  A    between atoms: C_13  and  N_44
    5  A    between atoms: C_14  and  N_33
    6  A    between atoms: C_18  and  N_25
    7  A    between atoms: C_18  and  N_41
    8  A    between atoms: C_19  and  N_44
    9  A    between atoms: N_25  and  C_26
                            x       y       z     vdW  Elec       q    Type
                         _______ _______ _______ _____ _____    ______ ____

>  <TORSDO>
F 9

$$$$
