=
 OpenBabel10222416133D

 44 49  0  0  1  0  0  0  0  0999 V2000
  189.9640  177.1860  140.4570 C   0  0  2  0  0  3  0  0  0  0  0  0
  191.3250  177.4740  141.0630 C   0  0  0  0  0  1  0  0  0  0  0  0
  188.9890  176.7770  141.5510 C   0  0  0  0  0  2  0  0  0  0  0  0
  188.1220  177.9650  141.9260 C   0  0  1  0  0  3  0  0  0  0  0  0
  188.3480  179.0780  140.9260 C   0  0  0  0  0  2  0  0  0  0  0  0
  187.1020  178.2170  140.8340 C   0  0  2  0  0  3  0  0  0  0  0  0
  185.9130  178.9540  141.4370 C   0  0  1  0  0  3  0  0  0  0  0  0
  185.2100  179.6540  140.4530 O   0  0  0  0  0  1  0  0  0  0  0  0
  184.9850  178.0080  142.2030 C   0  0  0  0  0  2  0  0  0  0  0  0
  184.4770  178.5900  143.5230 C   0  0  0  0  0  2  0  0  0  0  0  0
  184.1680  178.6440  146.3760 O   0  0  0  0  0  0  0  0  0  0  0  0
  185.3380  178.6310  145.9050 C   0  0  0  0  0  0  0  0  0  0  0  0
  185.5590  178.6900  144.4950 N   0  0  0  0  0  2  0  0  0  0  0  0
  186.7390  178.5090  147.0090 S   0  0  0  0  0  0  0  0  0  0  0  0
  187.7200  177.6310  145.7540 C   0  0  0  0  0  2  0  0  0  0  0  0
  191.3990  176.0620  144.3350 N   0  0  0  0  0  1  0  0  0  0  0  0
  189.7170  176.7120  146.9590 C   0  0  0  0  0  0  0  0  0  0  0  0
  191.9440  177.0820  147.7720 N   0  0  0  0  0  1  0  0  0  0  0  0
  191.1570  176.4410  146.7300 C   0  0  2  0  0  3  0  0  0  0  0  0
  189.0560  176.1190  147.8560 O   0  0  0  0  0  0  0  0  0  0  0  0
  189.1290  177.6750  146.1050 N   0  0  0  0  0  0  0  0  0  0  0  0
  190.3050  178.4230  145.0280 S   0  0  0  0  0  0  0  0  0  0  0  0
  191.4940  177.0710  145.3760 C   0  0  2  0  0  3  0  0  0  0  0  0
  190.0830  176.1630  139.5080 O   0  0  0  0  0  0  0  0  0  0  0  0
  188.6330  176.1650  137.6180 C   0  0  1  0  0  3  0  0  0  0  0  0
  189.1380  175.5810  136.2980 C   0  0  1  0  0  3  0  0  0  0  0  0
  190.5830  175.4540  136.3820 N   0  0  0  0  0  2  0  0  0  0  0  0
  189.8530  176.7840  138.2680 C   0  0  2  0  0  3  0  0  0  0  0  0
  190.9940  176.5270  137.2810 C   0  0  1  0  0  3  0  0  0  0  0  0
  192.3790  176.3320  137.9320 C   0  0  0  0  0  3  0  0  0  0  0  0
  192.9600  174.9530  137.6500 C   0  0  0  0  0  2  0  0  0  0  0  0
  193.4830  176.1630  136.8950 C   0  0  0  0  0  2  0  0  0  0  0  0
  188.5370  174.2830  135.9570 N   0  0  0  0  0  2  0  0  0  0  0  0
  187.3790  174.4540  135.2610 O   0  0  0  0  0  0  0  0  0  0  0  0
  185.6130  173.0390  137.5970 C   0  0  0  0  0  2  0  0  0  0  0  0
  183.4730  173.7290  136.8340 O   0  0  0  0  0  0  0  0  0  0  0  0
  185.1730  173.5020  135.2010 C   0  0  0  0  0  2  0  0  0  0  0  0
  186.8580  172.7010  136.7940 C   0  0  0  0  0  2  0  0  0  0  0  0
  186.6660  173.2510  135.3830 C   0  0  2  0  0  3  0  0  0  0  0  0
  184.6320  173.4490  136.5720 C   0  0  0  0  0  0  0  0  0  0  0  0
  187.5870  177.2410  137.3660 C   0  0  0  0  0  2  0  0  0  0  0  0
  186.1880  176.6540  137.4700 C   0  0  0  0  0  3  0  0  0  0  0  0
  185.3740  177.0900  136.2660 C   0  0  0  0  0  2  0  0  0  0  0  0
  185.1940  177.7860  137.6000 C   0  0  0  0  0  2  0  0  0  0  0  0
  1  2  1  1  0  0  0
  1  3  1  0  0  0  0
  4  3  1  6  0  0  0
  5  4  1  0  0  0  0
  6  5  1  0  0  0  0
  6  7  1  1  0  0  0
  6  4  1  0  0  0  0
  7  8  1  6  0  0  0
  7  9  1  0  0  0  0
  9 10  1  0  0  0  0
 10 13  1  0  0  0  0
 12 11  2  0  0  0  0
 12 14  1  0  0  0  0
 13 12  1  0  0  0  0
 15 21  1  0  0  0  0
 15 14  1  0  0  0  0
 17 20  2  0  0  0  0
 19 17  1  0  0  0  0
 19 18  1  1  0  0  0
 21 17  1  0  0  0  0
 22 23  1  0  0  0  0
 22 21  1  0  0  0  0
 23 16  1  6  0  0  0
 23 19  1  0  0  0  0
 24  1  1  0  0  0  0
 25 41  1  6  0  0  0
 25 28  1  0  0  0  0
 26 33  1  1  0  0  0
 26 27  1  0  0  0  0
 26 25  1  0  0  0  0
 27 29  1  0  0  0  0
 28 24  1  1  0  0  0
 29 30  1  1  0  0  0
 29 28  1  0  0  0  0
 31 30  1  0  0  0  0
 32 31  1  0  0  0  0
 32 30  1  0  0  0  0
 34 33  1  0  0  0  0
 37 39  1  0  0  0  0
 37 40  1  0  0  0  0
 38 35  1  0  0  0  0
 39 34  1  1  0  0  0
 39 38  1  0  0  0  0
 40 36  2  0  0  0  0
 40 35  1  0  0  0  0
 41 42  1  0  0  0  0
 42 44  1  0  0  0  0
 43 42  1  0  0  0  0
 43 44  1  0  0  0  0
M  END
>  <MODEL>
1

>  <REMARK>
 VINA RESULT:      -6.9      0.000      0.000
  Name = 
  17 active torsions:
  status: ('A' for Active; 'I' for Inactive)
    1  A    between atoms: C_1  and  C_16
    2  A    between atoms: C_2  and  C_36
    3  A    between atoms: C_5  and  C_16
    4  A    between atoms: C_7  and  C_37
    5  A    between atoms: C_8  and  N_31
    6  A    between atoms: C_11  and  N_25
    7  A    between atoms: C_11  and  C_40
    8  A    between atoms: C_14  and  O_18
    9  A    between atoms: C_14  and  C_37
   10  A    between atoms: O_18  and  C_19
   11  A    between atoms: C_21  and  C_27
   12  A    between atoms: C_21  and  C_40
   13  A    between atoms: C_23  and  S_26
   14  A    between atoms: S_26  and  C_30
   15  A    between atoms: O_29  and  N_31
   16  A    between atoms: O_29  and  C_41
   17  A    between atoms: C_30  and  N_33
                            x       y       z     vdW  Elec       q    Type
                         _______ _______ _______ _____ _____    ______ ____

>  <TORSDO>
F 17

$$$$
=
 OpenBabel10222416133D

 44 49  0  0  1  0  0  0  0  0999 V2000
  191.0280  175.8670  139.0970 C   0  0  2  0  0  3  0  0  0  0  0  0
  191.7790  177.1440  138.7680 C   0  0  0  0  0  1  0  0  0  0  0  0
  191.2160  174.8560  137.9770 C   0  0  0  0  0  2  0  0  0  0  0  0
  190.0750  174.9830  136.9830 C   0  0  1  0  0  3  0  0  0  0  0  0
  190.5830  174.6410  135.5990 C   0  0  0  0  0  2  0  0  0  0  0  0
  189.7700  173.6260  136.3810 C   0  0  2  0  0  3  0  0  0  0  0  0
  188.3280  173.6220  135.8900 C   0  0  1  0  0  3  0  0  0  0  0  0
  187.9120  172.3270  135.5740 O   0  0  0  0  0  1  0  0  0  0  0  0
  187.3800  174.2690  136.9020 C   0  0  0  0  0  2  0  0  0  0  0  0
  185.9040  174.1450  136.5200 C   0  0  0  0  0  2  0  0  0  0  0  0
  183.1950  174.6760  135.7330 O   0  0  0  0  0  0  0  0  0  0  0  0
  183.8790  175.6310  136.1920 C   0  0  0  0  0  0  0  0  0  0  0  0
  185.2580  175.4520  136.5220 N   0  0  0  0  0  2  0  0  0  0  0  0
  183.1110  177.2230  136.4630 S   0  0  0  0  0  0  0  0  0  0  0  0
  184.3640  177.6760  137.7020 C   0  0  0  0  0  2  0  0  0  0  0  0
  180.5350  178.1280  139.4740 N   0  0  0  0  0  1  0  0  0  0  0  0
  183.6150  178.8740  139.7720 C   0  0  0  0  0  0  0  0  0  0  0  0
  182.9810  178.7300  142.0820 N   0  0  0  0  0  1  0  0  0  0  0  0
  182.4790  178.8940  140.7260 C   0  0  2  0  0  3  0  0  0  0  0  0
  184.3900  179.8600  139.6300 O   0  0  0  0  0  0  0  0  0  0  0  0
  183.7720  177.6810  139.0290 N   0  0  0  0  0  0  0  0  0  0  0  0
  182.6260  176.4330  139.5110 S   0  0  0  0  0  0  0  0  0  0  0  0
  181.6010  177.6940  140.3600 C   0  0  2  0  0  3  0  0  0  0  0  0
  189.6670  176.1560  139.2640 O   0  0  0  0  0  0  0  0  0  0  0  0
  189.1910  177.4550  141.2040 C   0  0  1  0  0  3  0  0  0  0  0  0
  187.9060  178.2820  141.2420 C   0  0  1  0  0  3  0  0  0  0  0  0
  187.3890  178.3800  139.8880 N   0  0  0  0  0  2  0  0  0  0  0  0
  189.6290  177.4730  139.7540 C   0  0  2  0  0  3  0  0  0  0  0  0
  188.5730  178.3180  139.0390 C   0  0  1  0  0  3  0  0  0  0  0  0
  188.3000  177.9070  137.5760 C   0  0  0  0  0  3  0  0  0  0  0  0
  187.6890  179.0400  136.7630 C   0  0  0  0  0  2  0  0  0  0  0  0
  189.1570  178.6900  136.5890 C   0  0  0  0  0  2  0  0  0  0  0  0
  186.8750  177.7340  142.1370 N   0  0  0  0  0  2  0  0  0  0  0  0
  186.6380  178.5800  143.1780 O   0  0  0  0  0  0  0  0  0  0  0  0
  187.0080  177.8400  146.3220 C   0  0  0  0  0  2  0  0  0  0  0  0
  185.6190  179.5490  147.2120 O   0  0  0  0  0  0  0  0  0  0  0  0
  185.1170  178.7860  145.0260 C   0  0  0  0  0  2  0  0  0  0  0  0
  186.8770  177.0770  145.0150 C   0  0  0  0  0  2  0  0  0  0  0  0
  185.9050  177.8450  144.1220 C   0  0  2  0  0  3  0  0  0  0  0  0
  185.8860  178.8000  146.2850 C   0  0  0  0  0  0  0  0  0  0  0  0
  190.2670  178.0900  142.0720 C   0  0  0  0  0  2  0  0  0  0  0  0
  190.2960  177.4360  143.4440 C   0  0  0  0  0  3  0  0  0  0  0  0
  190.2580  178.5140  144.5110 C   0  0  0  0  0  2  0  0  0  0  0  0
  191.5690  177.8450  144.1510 C   0  0  0  0  0  2  0  0  0  0  0  0
  1  2  1  6  0  0  0
  1 24  1  0  0  0  0
  3  1  1  0  0  0  0
  4  3  1  1  0  0  0
  5  6  1  0  0  0  0
  5  4  1  0  0  0  0
  6  7  1  6  0  0  0
  6  4  1  0  0  0  0
  7  8  1  1  0  0  0
  7  9  1  0  0  0  0
 10 13  1  0  0  0  0
 10  9  1  0  0  0  0
 11 12  2  0  0  0  0
 12 14  1  0  0  0  0
 12 13  1  0  0  0  0
 14 15  1  0  0  0  0
 15 21  1  0  0  0  0
 17 19  1  0  0  0  0
 19 18  1  1  0  0  0
 20 17  2  0  0  0  0
 21 22  1  0  0  0  0
 21 17  1  0  0  0  0
 22 23  1  0  0  0  0
 23 16  1  6  0  0  0
 23 19  1  0  0  0  0
 25 26  1  0  0  0  0
 25 41  1  1  0  0  0
 26 33  1  1  0  0  0
 27 26  1  0  0  0  0
 28 24  1  6  0  0  0
 28 25  1  0  0  0  0
 29 30  1  6  0  0  0
 29 28  1  0  0  0  0
 29 27  1  0  0  0  0
 31 30  1  0  0  0  0
 32 31  1  0  0  0  0
 32 30  1  0  0  0  0
 33 34  1  0  0  0  0
 37 40  1  0  0  0  0
 38 35  1  0  0  0  0
 39 34  1  6  0  0  0
 39 38  1  0  0  0  0
 39 37  1  0  0  0  0
 40 35  1  0  0  0  0
 40 36  2  0  0  0  0
 41 42  1  0  0  0  0
 42 44  1  0  0  0  0
 42 43  1  0  0  0  0
 44 43  1  0  0  0  0
M  END
>  <MODEL>
2

>  <REMARK>
 VINA RESULT:      -6.5      3.263      8.367
  Name = 
  17 active torsions:
  status: ('A' for Active; 'I' for Inactive)
    1  A    between atoms: C_1  and  C_16
    2  A    between atoms: C_2  and  C_36
    3  A    between atoms: C_5  and  C_16
    4  A    between atoms: C_7  and  C_37
    5  A    between atoms: C_8  and  N_31
    6  A    between atoms: C_11  and  N_25
    7  A    between atoms: C_11  and  C_40
    8  A    between atoms: C_14  and  O_18
    9  A    between atoms: C_14  and  C_37
   10  A    between atoms: O_18  and  C_19
   11  A    between atoms: C_21  and  C_27
   12  A    between atoms: C_21  and  C_40
   13  A    between atoms: C_23  and  S_26
   14  A    between atoms: S_26  and  C_30
   15  A    between atoms: O_29  and  N_31
   16  A    between atoms: O_29  and  C_41
   17  A    between atoms: C_30  and  N_33
                            x       y       z     vdW  Elec       q    Type
                         _______ _______ _______ _____ _____    ______ ____

>  <TORSDO>
F 17

$$$$
=
 OpenBabel10222416133D

 44 49  0  0  1  0  0  0  0  0999 V2000
  188.7720  178.1200  138.1010 C   0  0  2  0  0  3  0  0  0  0  0  0
  188.8000  179.2390  137.0770 C   0  0  0  0  0  1  0  0  0  0  0  0
  187.3620  177.5630  138.2170 C   0  0  0  0  0  2  0  0  0  0  0  0
  187.1240  176.5520  137.1100 C   0  0  1  0  0  3  0  0  0  0  0  0
  188.4170  176.3300  136.3560 C   0  0  0  0  0  2  0  0  0  0  0  0
  187.9470  175.3060  137.3710 C   0  0  2  0  0  3  0  0  0  0  0  0
  187.2910  174.1290  136.6600 C   0  0  1  0  0  3  0  0  0  0  0  0
  188.2320  173.1430  136.3570 O   0  0  0  0  0  1  0  0  0  0  0  0
  186.1320  173.5470  137.4730 C   0  0  0  0  0  2  0  0  0  0  0  0
  184.7820  173.6390  136.7600 C   0  0  0  0  0  2  0  0  0  0  0  0
  182.0560  174.1850  136.0450 O   0  0  0  0  0  0  0  0  0  0  0  0
  182.4240  174.4430  137.2240 C   0  0  0  0  0  0  0  0  0  0  0  0
  183.7870  174.2740  137.6170 N   0  0  0  0  0  2  0  0  0  0  0  0
  181.2250  175.0000  138.4280 S   0  0  0  0  0  0  0  0  0  0  0  0
  182.4910  175.9430  139.3310 C   0  0  0  0  0  2  0  0  0  0  0  0
  184.7070  179.5110  139.9410 N   0  0  0  0  0  1  0  0  0  0  0  0
  181.7690  178.2920  139.8270 C   0  0  0  0  0  0  0  0  0  0  0  0
  181.3500  180.5040  138.9980 N   0  0  0  0  0  1  0  0  0  0  0  0
  182.2850  179.6800  139.7490 C   0  0  2  0  0  3  0  0  0  0  0  0
  180.8250  177.9680  140.6010 O   0  0  0  0  0  0  0  0  0  0  0  0
  182.4050  177.3510  138.9830 N   0  0  0  0  0  0  0  0  0  0  0  0
  183.6050  178.0980  137.9320 S   0  0  0  0  0  0  0  0  0  0  0  0
  183.6120  179.5940  138.9910 C   0  0  2  0  0  3  0  0  0  0  0  0
  189.2030  178.6100  139.3400 O   0  0  0  0  0  0  0  0  0  0  0  0
  189.2020  177.9030  141.6150 C   0  0  1  0  0  3  0  0  0  0  0  0
  190.5230  177.4750  142.2560 C   0  0  1  0  0  3  0  0  0  0  0  0
  191.4900  177.2480  141.1960 N   0  0  0  0  0  2  0  0  0  0  0  0
  189.3110  177.4770  140.1660 C   0  0  2  0  0  3  0  0  0  0  0  0
  190.6880  176.8190  140.0550 C   0  0  1  0  0  3  0  0  0  0  0  0
  191.3740  176.9850  138.6820 C   0  0  0  0  0  3  0  0  0  0  0  0
  192.8060  176.4680  138.6870 C   0  0  0  0  0  2  0  0  0  0  0  0
  191.7060  175.6450  138.0390 C   0  0  0  0  0  2  0  0  0  0  0  0
  191.0540  178.4460  143.2240 N   0  0  0  0  0  2  0  0  0  0  0  0
  191.7990  177.8220  144.1780 O   0  0  0  0  0  0  0  0  0  0  0  0
  191.6030  176.2640  147.0250 C   0  0  0  0  0  2  0  0  0  0  0  0
  189.8480  177.5550  147.9690 O   0  0  0  0  0  0  0  0  0  0  0  0
  189.9140  177.3960  145.6070 C   0  0  0  0  0  2  0  0  0  0  0  0
  191.8480  175.8870  145.5740 C   0  0  0  0  0  2  0  0  0  0  0  0
  190.9900  176.8030  144.7040 C   0  0  2  0  0  3  0  0  0  0  0  0
  190.3970  177.1140  146.9720 C   0  0  0  0  0  0  0  0  0  0  0  0
  188.0280  177.1920  142.2710 C   0  0  0  0  0  2  0  0  0  0  0  0
  187.2360  178.1610  143.1340 C   0  0  0  0  0  3  0  0  0  0  0  0
  186.5220  177.3860  144.2250 C   0  0  0  0  0  2  0  0  0  0  0  0
  185.7640  177.8430  142.9960 C   0  0  0  0  0  2  0  0  0  0  0  0
  1  2  1  6  0  0  0
  1  3  1  0  0  0  0
  1 24  1  0  0  0  0
  4  6  1  0  0  0  0
  4  3  1  1  0  0  0
  5  4  1  0  0  0  0
  5  6  1  0  0  0  0
  6  7  1  6  0  0  0
  7  8  1  1  0  0  0
  7  9  1  0  0  0  0
 10  9  1  0  0  0  0
 10 13  1  0  0  0  0
 11 12  2  0  0  0  0
 12 13  1  0  0  0  0
 12 14  1  0  0  0  0
 14 15  1  0  0  0  0
 17 20  2  0  0  0  0
 19 18  1  6  0  0  0
 19 17  1  0  0  0  0
 21 15  1  0  0  0  0
 21 17  1  0  0  0  0
 22 21  1  0  0  0  0
 22 23  1  0  0  0  0
 23 19  1  0  0  0  0
 23 16  1  1  0  0  0
 25 26  1  0  0  0  0
 25 41  1  1  0  0  0
 26 33  1  1  0  0  0
 27 26  1  0  0  0  0
 28 24  1  6  0  0  0
 28 25  1  0  0  0  0
 29 30  1  6  0  0  0
 29 28  1  0  0  0  0
 29 27  1  0  0  0  0
 30 31  1  0  0  0  0
 32 30  1  0  0  0  0
 32 31  1  0  0  0  0
 33 34  1  0  0  0  0
 37 40  1  0  0  0  0
 38 35  1  0  0  0  0
 39 34  1  1  0  0  0
 39 38  1  0  0  0  0
 39 37  1  0  0  0  0
 40 35  1  0  0  0  0
 40 36  2  0  0  0  0
 41 42  1  0  0  0  0
 42 43  1  0  0  0  0
 44 42  1  0  0  0  0
 44 43  1  0  0  0  0
M  END
>  <MODEL>
3

>  <REMARK>
 VINA RESULT:      -6.4      3.461      8.397
  Name = 
  17 active torsions:
  status: ('A' for Active; 'I' for Inactive)
    1  A    between atoms: C_1  and  C_16
    2  A    between atoms: C_2  and  C_36
    3  A    between atoms: C_5  and  C_16
    4  A    between atoms: C_7  and  C_37
    5  A    between atoms: C_8  and  N_31
    6  A    between atoms: C_11  and  N_25
    7  A    between atoms: C_11  and  C_40
    8  A    between atoms: C_14  and  O_18
    9  A    between atoms: C_14  and  C_37
   10  A    between atoms: O_18  and  C_19
   11  A    between atoms: C_21  and  C_27
   12  A    between atoms: C_21  and  C_40
   13  A    between atoms: C_23  and  S_26
   14  A    between atoms: S_26  and  C_30
   15  A    between atoms: O_29  and  N_31
   16  A    between atoms: O_29  and  C_41
   17  A    between atoms: C_30  and  N_33
                            x       y       z     vdW  Elec       q    Type
                         _______ _______ _______ _____ _____    ______ ____

>  <TORSDO>
F 17

$$$$
=
 OpenBabel10222416133D

 44 49  0  0  1  0  0  0  0  0999 V2000
  190.7840  177.0620  139.8280 C   0  0  2  0  0  3  0  0  0  0  0  0
  192.0500  177.4240  140.5820 C   0  0  0  0  0  1  0  0  0  0  0  0
  189.6680  176.7570  140.8150 C   0  0  0  0  0  2  0  0  0  0  0  0
  190.0160  177.3450  142.1700 C   0  0  1  0  0  3  0  0  0  0  0  0
  188.9310  178.3170  142.5820 C   0  0  0  0  0  2  0  0  0  0  0  0
  188.9740  176.9270  143.1900 C   0  0  2  0  0  3  0  0  0  0  0  0
  189.6000  176.9850  144.5780 C   0  0  1  0  0  3  0  0  0  0  0  0
  190.9570  177.3060  144.5000 O   0  0  0  0  0  1  0  0  0  0  0  0
  188.8600  177.9590  145.4970 C   0  0  0  0  0  2  0  0  0  0  0  0
  187.6180  177.3540  146.1520 C   0  0  0  0  0  2  0  0  0  0  0  0
  185.3890  178.9230  147.0540 O   0  0  0  0  0  0  0  0  0  0  0  0
  185.3850  178.5170  145.8600 C   0  0  0  0  0  0  0  0  0  0  0  0
  186.4230  177.6620  145.3750 N   0  0  0  0  0  2  0  0  0  0  0  0
  184.0850  179.0370  144.7480 S   0  0  0  0  0  0  0  0  0  0  0  0
  184.9760  178.3720  143.3090 C   0  0  0  0  0  2  0  0  0  0  0  0
  182.9080  176.8280  139.9400 N   0  0  0  0  0  1  0  0  0  0  0  0
  185.1030  178.9380  140.8700 C   0  0  0  0  0  0  0  0  0  0  0  0
  184.1450  180.1060  139.0060 N   0  0  0  0  0  1  0  0  0  0  0  0
  184.3040  178.8010  139.6290 C   0  0  2  0  0  3  0  0  0  0  0  0
  186.3540  179.1060  140.8490 O   0  0  0  0  0  0  0  0  0  0  0  0
  184.3750  178.8650  142.0810 N   0  0  0  0  0  0  0  0  0  0  0  0
  182.6380  178.7420  141.8130 S   0  0  0  0  0  0  0  0  0  0  0  0
  182.9340  178.2750  140.0650 C   0  0  2  0  0  3  0  0  0  0  0  0
  191.0290  175.9480  139.0140 O   0  0  0  0  0  0  0  0  0  0  0  0
  189.9660  176.1670  136.8940 C   0  0  1  0  0  3  0  0  0  0  0  0
  190.4670  175.3190  135.7250 C   0  0  1  0  0  3  0  0  0  0  0  0
  191.7720  174.7850  136.0780 N   0  0  0  0  0  2  0  0  0  0  0  0
  191.1980  176.4690  137.7200 C   0  0  2  0  0  3  0  0  0  0  0  0
  192.3450  175.7830  136.9740 C   0  0  1  0  0  3  0  0  0  0  0  0
  193.4830  175.2640  137.8780 C   0  0  0  0  0  3  0  0  0  0  0  0
  193.9270  173.8590  137.4960 C   0  0  0  0  0  2  0  0  0  0  0  0
  194.7800  175.0540  137.1060 C   0  0  0  0  0  2  0  0  0  0  0  0
  189.5580  174.2240  135.3540 N   0  0  0  0  0  2  0  0  0  0  0  0
  188.7730  173.8680  136.4080 O   0  0  0  0  0  0  0  0  0  0  0  0
  185.8760  173.0180  137.6160 C   0  0  0  0  0  2  0  0  0  0  0  0
  184.7890  175.1080  137.3230 O   0  0  0  0  0  0  0  0  0  0  0  0
  186.5580  174.6000  135.8330 C   0  0  0  0  0  2  0  0  0  0  0  0
  186.9540  172.3660  136.7660 C   0  0  0  0  0  2  0  0  0  0  0  0
  187.5510  173.4440  135.8640 C   0  0  2  0  0  3  0  0  0  0  0  0
  185.6490  174.3210  136.9600 C   0  0  0  0  0  0  0  0  0  0  0  0
  189.3530  177.4670  136.3940 C   0  0  0  0  0  2  0  0  0  0  0  0
  188.6690  178.2040  137.5340 C   0  0  0  0  0  3  0  0  0  0  0  0
  187.3150  177.5700  137.7960 C   0  0  0  0  0  2  0  0  0  0  0  0
  187.4120  178.8580  137.0050 C   0  0  0  0  0  2  0  0  0  0  0  0
  1  2  1  1  0  0  0
  1  3  1  0  0  0  0
  4  3  1  6  0  0  0
  4  5  1  0  0  0  0
  4  6  1  0  0  0  0
  5  6  1  0  0  0  0
  6  7  1  1  0  0  0
  7  8  1  6  0  0  0
  7  9  1  0  0  0  0
  9 10  1  0  0  0  0
 12 11  2  0  0  0  0
 13 12  1  0  0  0  0
 13 10  1  0  0  0  0
 14 12  1  0  0  0  0
 15 14  1  0  0  0  0
 17 21  1  0  0  0  0
 19 18  1  1  0  0  0
 19 23  1  0  0  0  0
 19 17  1  0  0  0  0
 20 17  2  0  0  0  0
 21 15  1  0  0  0  0
 22 21  1  0  0  0  0
 23 16  1  1  0  0  0
 23 22  1  0  0  0  0
 24  1  1  0  0  0  0
 25 41  1  6  0  0  0
 25 28  1  0  0  0  0
 26 33  1  1  0  0  0
 26 27  1  0  0  0  0
 26 25  1  0  0  0  0
 27 29  1  0  0  0  0
 28 24  1  1  0  0  0
 29 28  1  0  0  0  0
 29 30  1  1  0  0  0
 31 30  1  0  0  0  0
 32 31  1  0  0  0  0
 32 30  1  0  0  0  0
 33 34  1  0  0  0  0
 37 39  1  0  0  0  0
 37 40  1  0  0  0  0
 38 35  1  0  0  0  0
 39 34  1  1  0  0  0
 39 38  1  0  0  0  0
 40 36  2  0  0  0  0
 40 35  1  0  0  0  0
 41 42  1  0  0  0  0
 42 43  1  0  0  0  0
 44 42  1  0  0  0  0
 44 43  1  0  0  0  0
M  END
>  <MODEL>
4

>  <REMARK>
 VINA RESULT:      -6.3      2.231      4.579
  Name = 
  17 active torsions:
  status: ('A' for Active; 'I' for Inactive)
    1  A    between atoms: C_1  and  C_16
    2  A    between atoms: C_2  and  C_36
    3  A    between atoms: C_5  and  C_16
    4  A    between atoms: C_7  and  C_37
    5  A    between atoms: C_8  and  N_31
    6  A    between atoms: C_11  and  N_25
    7  A    between atoms: C_11  and  C_40
    8  A    between atoms: C_14  and  O_18
    9  A    between atoms: C_14  and  C_37
   10  A    between atoms: O_18  and  C_19
   11  A    between atoms: C_21  and  C_27
   12  A    between atoms: C_21  and  C_40
   13  A    between atoms: C_23  and  S_26
   14  A    between atoms: S_26  and  C_30
   15  A    between atoms: O_29  and  N_31
   16  A    between atoms: O_29  and  C_41
   17  A    between atoms: C_30  and  N_33
                            x       y       z     vdW  Elec       q    Type
                         _______ _______ _______ _____ _____    ______ ____

>  <TORSDO>
F 17

$$$$
=
 OpenBabel10222416133D

 44 49  0  0  1  0  0  0  0  0999 V2000
  187.6950  177.2130  142.5630 C   0  0  2  0  0  3  0  0  0  0  0  0
  187.3990  178.5320  141.8740 C   0  0  0  0  0  1  0  0  0  0  0  0
  187.8100  177.4310  144.0640 C   0  0  0  0  0  2  0  0  0  0  0  0
  186.4540  177.2130  144.7120 C   0  0  1  0  0  3  0  0  0  0  0  0
  186.4880  177.7540  146.1250 C   0  0  0  0  0  2  0  0  0  0  0  0
  185.8160  178.5530  145.0230 C   0  0  2  0  0  3  0  0  0  0  0  0
  184.3050  178.3690  145.0920 C   0  0  1  0  0  3  0  0  0  0  0  0
  183.7730  179.0350  146.1990 O   0  0  0  0  0  1  0  0  0  0  0  0
  183.6170  178.8180  143.8020 C   0  0  0  0  0  2  0  0  0  0  0  0
  182.1120  179.0380  143.9590 C   0  0  0  0  0  2  0  0  0  0  0  0
  180.0580  180.6770  142.8020 O   0  0  0  0  0  0  0  0  0  0  0  0
  180.4580  179.6750  142.1480 C   0  0  0  0  0  0  0  0  0  0  0  0
  181.4160  178.7730  142.7050 N   0  0  0  0  0  2  0  0  0  0  0  0
  179.8440  179.3910  140.4930 S   0  0  0  0  0  0  0  0  0  0  0  0
  181.5270  179.4280  139.8040 C   0  0  0  0  0  2  0  0  0  0  0  0
  180.0640  175.4450  139.7410 N   0  0  0  0  0  1  0  0  0  0  0  0
  182.7060  177.2190  139.6860 C   0  0  0  0  0  0  0  0  0  0  0  0
  183.4050  175.3630  138.3370 N   0  0  0  0  0  1  0  0  0  0  0  0
  182.4380  175.8050  139.3290 C   0  0  2  0  0  3  0  0  0  0  0  0
  183.6640  177.5520  140.4380 O   0  0  0  0  0  0  0  0  0  0  0  0
  181.8180  178.1720  139.1340 N   0  0  0  0  0  0  0  0  0  0  0  0
  180.6510  177.4430  138.0350 S   0  0  0  0  0  0  0  0  0  0  0  0
  181.0350  175.7850  138.7160 C   0  0  2  0  0  3  0  0  0  0  0  0
  188.8880  176.6810  142.0590 O   0  0  0  0  0  0  0  0  0  0  0  0
  189.6540  177.2970  139.8890 C   0  0  1  0  0  3  0  0  0  0  0  0
  191.1590  177.3720  139.6300 C   0  0  1  0  0  3  0  0  0  0  0  0
  191.8400  177.3910  140.9130 N   0  0  0  0  0  2  0  0  0  0  0  0
  189.4790  177.7270  141.3300 C   0  0  2  0  0  3  0  0  0  0  0  0
  190.8950  178.0350  141.8200 C   0  0  1  0  0  3  0  0  0  0  0  0
  191.1370  177.7500  143.3170 C   0  0  0  0  0  3  0  0  0  0  0  0
  192.0890  178.7550  143.9500 C   0  0  0  0  0  2  0  0  0  0  0  0
  190.5960  178.8600  144.2090 C   0  0  0  0  0  2  0  0  0  0  0  0
  191.6740  176.2720  138.8010 N   0  0  0  0  0  2  0  0  0  0  0  0
  192.7240  176.6890  138.0410 O   0  0  0  0  0  0  0  0  0  0  0  0
  195.1330  174.9060  136.7800 C   0  0  0  0  0  2  0  0  0  0  0  0
  194.6580  172.8810  137.9270 O   0  0  0  0  0  0  0  0  0  0  0  0
  192.8380  174.3440  137.5310 C   0  0  0  0  0  2  0  0  0  0  0  0
  194.1780  175.9800  136.2870 C   0  0  0  0  0  2  0  0  0  0  0  0
  192.8380  175.7680  136.9880 C   0  0  2  0  0  3  0  0  0  0  0  0
  194.2530  173.9330  137.4580 C   0  0  0  0  0  0  0  0  0  0  0  0
  188.9010  178.2510  138.9740 C   0  0  0  0  0  2  0  0  0  0  0  0
  187.9490  177.4810  138.0730 C   0  0  0  0  0  3  0  0  0  0  0  0
  187.4590  178.3980  136.9680 C   0  0  0  0  0  2  0  0  0  0  0  0
  186.5760  178.1100  138.1650 C   0  0  0  0  0  2  0  0  0  0  0  0
  1  2  1  6  0  0  0
  1  3  1  0  0  0  0
  4  3  1  6  0  0  0
  4  6  1  0  0  0  0
  4  5  1  0  0  0  0
  6  7  1  1  0  0  0
  6  5  1  0  0  0  0
  7  8  1  1  0  0  0
  9 10  1  0  0  0  0
  9  7  1  0  0  0  0
 12 13  1  0  0  0  0
 12 11  2  0  0  0  0
 13 10  1  0  0  0  0
 14 12  1  0  0  0  0
 15 14  1  0  0  0  0
 17 20  2  0  0  0  0
 19 18  1  6  0  0  0
 19 17  1  0  0  0  0
 21 17  1  0  0  0  0
 21 15  1  0  0  0  0
 22 23  1  0  0  0  0
 22 21  1  0  0  0  0
 23 19  1  0  0  0  0
 23 16  1  1  0  0  0
 24  1  1  0  0  0  0
 25 41  1  6  0  0  0
 25 28  1  0  0  0  0
 26 33  1  6  0  0  0
 26 25  1  0  0  0  0
 26 27  1  0  0  0  0
 27 29  1  0  0  0  0
 28 29  1  0  0  0  0
 28 24  1  1  0  0  0
 29 30  1  1  0  0  0
 30 31  1  0  0  0  0
 30 32  1  0  0  0  0
 31 32  1  0  0  0  0
 34 33  1  0  0  0  0
 35 40  1  0  0  0  0
 38 35  1  0  0  0  0
 38 39  1  0  0  0  0
 39 37  1  0  0  0  0
 39 34  1  1  0  0  0
 40 37  1  0  0  0  0
 40 36  2  0  0  0  0
 42 44  1  0  0  0  0
 42 41  1  0  0  0  0
 43 42  1  0  0  0  0
 43 44  1  0  0  0  0
M  END
>  <MODEL>
5

>  <REMARK>
 VINA RESULT:      -6.3      3.948      7.198
  Name = 
  17 active torsions:
  status: ('A' for Active; 'I' for Inactive)
    1  A    between atoms: C_1  and  C_16
    2  A    between atoms: C_2  and  C_36
    3  A    between atoms: C_5  and  C_16
    4  A    between atoms: C_7  and  C_37
    5  A    between atoms: C_8  and  N_31
    6  A    between atoms: C_11  and  N_25
    7  A    between atoms: C_11  and  C_40
    8  A    between atoms: C_14  and  O_18
    9  A    between atoms: C_14  and  C_37
   10  A    between atoms: O_18  and  C_19
   11  A    between atoms: C_21  and  C_27
   12  A    between atoms: C_21  and  C_40
   13  A    between atoms: C_23  and  S_26
   14  A    between atoms: S_26  and  C_30
   15  A    between atoms: O_29  and  N_31
   16  A    between atoms: O_29  and  C_41
   17  A    between atoms: C_30  and  N_33
                            x       y       z     vdW  Elec       q    Type
                         _______ _______ _______ _____ _____    ______ ____

>  <TORSDO>
F 17

$$$$
=
 OpenBabel10222416133D

 44 49  0  0  1  0  0  0  0  0999 V2000
  190.5240  177.5540  144.8310 C   0  0  2  0  0  3  0  0  0  0  0  0
  191.4270  177.1050  145.9640 C   0  0  0  0  0  1  0  0  0  0  0  0
  191.2980  178.4590  143.8840 C   0  0  0  0  0  2  0  0  0  0  0  0
  191.6980  177.6720  142.6480 C   0  0  1  0  0  3  0  0  0  0  0  0
  191.0480  176.3070  142.6980 C   0  0  0  0  0  2  0  0  0  0  0  0
  190.4710  177.3880  141.8040 C   0  0  2  0  0  3  0  0  0  0  0  0
  190.9110  177.1640  140.3630 C   0  0  1  0  0  3  0  0  0  0  0  0
  190.1110  177.8920  139.4790 O   0  0  0  0  0  1  0  0  0  0  0  0
  192.3910  177.4960  140.1600 C   0  0  0  0  0  2  0  0  0  0  0  0
  193.1220  176.4970  139.2620 C   0  0  0  0  0  2  0  0  0  0  0  0
  191.3560  174.6410  137.9680 O   0  0  0  0  0  0  0  0  0  0  0  0
  191.7020  175.6740  137.3320 C   0  0  0  0  0  0  0  0  0  0  0  0
  192.6450  176.5930  137.8880 N   0  0  0  0  0  2  0  0  0  0  0  0
  190.9870  176.0120  135.7280 S   0  0  0  0  0  0  0  0  0  0  0  0
  189.4530  175.1390  136.1680 C   0  0  0  0  0  2  0  0  0  0  0  0
  188.0480  179.0350  137.0970 N   0  0  0  0  0  1  0  0  0  0  0  0
  187.1640  176.0000  136.7190 C   0  0  0  0  0  0  0  0  0  0  0  0
  185.1830  177.1230  135.9640 N   0  0  0  0  0  1  0  0  0  0  0  0
  186.4040  177.2720  136.7410 C   0  0  2  0  0  3  0  0  0  0  0  0
  186.8210  174.9990  137.4080 O   0  0  0  0  0  0  0  0  0  0  0  0
  188.3030  175.9790  135.8800 N   0  0  0  0  0  0  0  0  0  0  0  0
  188.4800  177.4660  134.9520 S   0  0  0  0  0  0  0  0  0  0  0  0
  187.3060  178.3150  136.0760 C   0  0  2  0  0  3  0  0  0  0  0  0
  189.4190  178.2360  145.3570 O   0  0  0  0  0  0  0  0  0  0  0  0
  187.3610  178.2910  144.1600 C   0  0  1  0  0  3  0  0  0  0  0  0
  186.0500  178.3270  144.9450 C   0  0  1  0  0  3  0  0  0  0  0  0
  186.3340  177.9530  146.3200 N   0  0  0  0  0  2  0  0  0  0  0  0
  188.3040  177.4580  145.0030 C   0  0  2  0  0  3  0  0  0  0  0  0
  187.4790  177.0530  146.2260 C   0  0  1  0  0  3  0  0  0  0  0  0
  188.2900  176.8980  147.5300 C   0  0  0  0  0  3  0  0  0  0  0  0
  188.7410  178.2400  148.0910 C   0  0  0  0  0  2  0  0  0  0  0  0
  187.5730  177.5070  148.7290 C   0  0  0  0  0  2  0  0  0  0  0  0
  185.3710  179.6310  144.9070 N   0  0  0  0  0  2  0  0  0  0  0  0
  184.6130  179.7500  143.7820 O   0  0  0  0  0  0  0  0  0  0  0  0
  181.4130  179.2260  143.5430 C   0  0  0  0  0  2  0  0  0  0  0  0
  181.3330  178.8380  141.2020 O   0  0  0  0  0  0  0  0  0  0  0  0
  183.3640  178.3230  142.3070 C   0  0  0  0  0  2  0  0  0  0  0  0
  182.5160  178.8980  144.5350 C   0  0  0  0  0  2  0  0  0  0  0  0
  183.7890  178.6150  143.7410 C   0  0  2  0  0  3  0  0  0  0  0  0
  181.9680  178.7970  142.2430 C   0  0  0  0  0  0  0  0  0  0  0  0
  187.1610  177.6260  142.8060 C   0  0  0  0  0  2  0  0  0  0  0  0
  187.2550  178.6550  141.6910 C   0  0  0  0  0  3  0  0  0  0  0  0
  185.9800  178.6170  140.8700 C   0  0  0  0  0  2  0  0  0  0  0  0
  187.2330  177.9340  140.3620 C   0  0  0  0  0  2  0  0  0  0  0  0
  1 24  1  0  0  0  0
  1  2  1  1  0  0  0
  3  1  1  0  0  0  0
  4  5  1  0  0  0  0
  4  3  1  1  0  0  0
  6  7  1  6  0  0  0
  6  4  1  0  0  0  0
  6  5  1  0  0  0  0
  7  8  1  6  0  0  0
  9  7  1  0  0  0  0
 10  9  1  0  0  0  0
 12 13  1  0  0  0  0
 12 11  2  0  0  0  0
 13 10  1  0  0  0  0
 14 15  1  0  0  0  0
 14 12  1  0  0  0  0
 17 19  1  0  0  0  0
 17 20  2  0  0  0  0
 19 18  1  6  0  0  0
 21 15  1  0  0  0  0
 21 17  1  0  0  0  0
 22 21  1  0  0  0  0
 22 23  1  0  0  0  0
 23 19  1  0  0  0  0
 23 16  1  1  0  0  0
 25 41  1  6  0  0  0
 25 26  1  0  0  0  0
 25 28  1  0  0  0  0
 26 33  1  1  0  0  0
 26 27  1  0  0  0  0
 28 24  1  1  0  0  0
 28 29  1  0  0  0  0
 29 27  1  0  0  0  0
 29 30  1  1  0  0  0
 30 31  1  0  0  0  0
 30 32  1  0  0  0  0
 31 32  1  0  0  0  0
 34 33  1  0  0  0  0
 35 38  1  0  0  0  0
 36 40  2  0  0  0  0
 37 39  1  0  0  0  0
 39 34  1  6  0  0  0
 39 38  1  0  0  0  0
 40 37  1  0  0  0  0
 40 35  1  0  0  0  0
 42 41  1  0  0  0  0
 43 42  1  0  0  0  0
 44 43  1  0  0  0  0
 44 42  1  0  0  0  0
M  END
>  <MODEL>
6

>  <REMARK>
 VINA RESULT:      -6.0      3.297      8.980
  Name = 
  17 active torsions:
  status: ('A' for Active; 'I' for Inactive)
    1  A    between atoms: C_1  and  C_16
    2  A    between atoms: C_2  and  C_36
    3  A    between atoms: C_5  and  C_16
    4  A    between atoms: C_7  and  C_37
    5  A    between atoms: C_8  and  N_31
    6  A    between atoms: C_11  and  N_25
    7  A    between atoms: C_11  and  C_40
    8  A    between atoms: C_14  and  O_18
    9  A    between atoms: C_14  and  C_37
   10  A    between atoms: O_18  and  C_19
   11  A    between atoms: C_21  and  C_27
   12  A    between atoms: C_21  and  C_40
   13  A    between atoms: C_23  and  S_26
   14  A    between atoms: S_26  and  C_30
   15  A    between atoms: O_29  and  N_31
   16  A    between atoms: O_29  and  C_41
   17  A    between atoms: C_30  and  N_33
                            x       y       z     vdW  Elec       q    Type
                         _______ _______ _______ _____ _____    ______ ____

>  <TORSDO>
F 17

$$$$
=
 OpenBabel10222416133D

 44 49  0  0  1  0  0  0  0  0999 V2000
  186.2600  177.4810  136.2630 C   0  0  2  0  0  3  0  0  0  0  0  0
  186.9410  178.8340  136.3430 C   0  0  0  0  0  1  0  0  0  0  0  0
  185.8650  177.0200  137.6580 C   0  0  0  0  0  2  0  0  0  0  0  0
  185.2120  178.1700  138.4040 C   0  0  1  0  0  3  0  0  0  0  0  0
  183.7680  178.2870  137.9660 C   0  0  0  0  0  2  0  0  0  0  0  0
  184.1060  177.6370  139.2950 C   0  0  2  0  0  3  0  0  0  0  0  0
  183.8770  178.6240  140.4320 C   0  0  1  0  0  3  0  0  0  0  0  0
  182.5120  178.8020  140.6700 O   0  0  0  0  0  1  0  0  0  0  0  0
  184.6040  178.2000  141.7100 C   0  0  0  0  0  2  0  0  0  0  0  0
  184.2110  179.0250  142.9370 C   0  0  0  0  0  2  0  0  0  0  0  0
  183.8680  178.9550  145.7860 O   0  0  0  0  0  0  0  0  0  0  0  0
  185.0420  178.9100  145.3270 C   0  0  0  0  0  0  0  0  0  0  0  0
  185.2840  179.0270  143.9240 N   0  0  0  0  0  2  0  0  0  0  0  0
  186.4220  178.6700  146.4390 S   0  0  0  0  0  0  0  0  0  0  0  0
  187.0620  177.2960  145.4350 C   0  0  0  0  0  2  0  0  0  0  0  0
  190.1320  175.4600  143.1510 N   0  0  0  0  0  1  0  0  0  0  0  0
  189.5300  177.0870  145.8200 C   0  0  0  0  0  0  0  0  0  0  0  0
  191.7360  177.8840  145.3180 N   0  0  0  0  0  1  0  0  0  0  0  0
  190.7790  176.8180  145.0670 C   0  0  2  0  0  3  0  0  0  0  0  0
  189.4430  176.9030  147.0660 O   0  0  0  0  0  0  0  0  0  0  0  0
  188.4380  177.5580  145.0520 N   0  0  0  0  0  0  0  0  0  0  0  0
  188.8720  177.8300  143.3670 S   0  0  0  0  0  0  0  0  0  0  0  0
  190.3880  176.8220  143.5870 C   0  0  2  0  0  3  0  0  0  0  0  0
  187.1310  176.5540  135.6760 O   0  0  0  0  0  0  0  0  0  0  0  0
  189.3820  176.5730  136.4540 C   0  0  1  0  0  3  0  0  0  0  0  0
  190.2040  175.2870  136.3700 C   0  0  1  0  0  3  0  0  0  0  0  0
  189.2920  174.1790  136.1440 N   0  0  0  0  0  2  0  0  0  0  0  0
  187.9630  176.1190  136.7220 C   0  0  2  0  0  3  0  0  0  0  0  0
  188.0480  174.5920  136.7860 C   0  0  1  0  0  3  0  0  0  0  0  0
  186.7870  173.8540  136.2890 C   0  0  0  0  0  3  0  0  0  0  0  0
  186.9400  172.3410  136.3580 C   0  0  0  0  0  2  0  0  0  0  0  0
  186.1070  173.0660  137.4010 C   0  0  0  0  0  2  0  0  0  0  0  0
  191.2380  175.3110  135.3250 N   0  0  0  0  0  2  0  0  0  0  0  0
  192.4630  175.5700  135.8610 O   0  0  0  0  0  0  0  0  0  0  0  0
  194.8420  173.5100  136.6800 C   0  0  0  0  0  2  0  0  0  0  0  0
  195.8710  174.8630  138.3380 O   0  0  0  0  0  0  0  0  0  0  0  0
  193.5550  175.1930  137.9680 C   0  0  0  0  0  2  0  0  0  0  0  0
  193.3760  173.4090  136.2950 C   0  0  0  0  0  2  0  0  0  0  0  0
  192.6560  174.6220  136.8780 C   0  0  2  0  0  3  0  0  0  0  0  0
  194.8610  174.5510  137.7270 C   0  0  0  0  0  0  0  0  0  0  0  0
  189.8650  177.4480  137.6020 C   0  0  0  0  0  2  0  0  0  0  0  0
  190.2500  176.5900  138.7960 C   0  0  0  0  0  3  0  0  0  0  0  0
  189.3110  176.8920  139.9490 C   0  0  0  0  0  2  0  0  0  0  0  0
  190.7000  177.4960  139.9210 C   0  0  0  0  0  2  0  0  0  0  0  0
  1  2  1  1  0  0  0
  1  3  1  0  0  0  0
  4  3  1  6  0  0  0
  4  6  1  0  0  0  0
  5  4  1  0  0  0  0
  5  6  1  0  0  0  0
  6  7  1  1  0  0  0
  7  8  1  1  0  0  0
  7  9  1  0  0  0  0
  9 10  1  0  0  0  0
 10 13  1  0  0  0  0
 12 11  2  0  0  0  0
 12 14  1  0  0  0  0
 13 12  1  0  0  0  0
 15 14  1  0  0  0  0
 17 20  2  0  0  0  0
 19 18  1  6  0  0  0
 19 17  1  0  0  0  0
 21 15  1  0  0  0  0
 21 17  1  0  0  0  0
 22 23  1  0  0  0  0
 22 21  1  0  0  0  0
 23 16  1  1  0  0  0
 23 19  1  0  0  0  0
 24  1  1  0  0  0  0
 25 28  1  0  0  0  0
 25 41  1  1  0  0  0
 26 33  1  6  0  0  0
 26 25  1  0  0  0  0
 27 26  1  0  0  0  0
 27 29  1  0  0  0  0
 28 24  1  6  0  0  0
 28 29  1  0  0  0  0
 29 30  1  6  0  0  0
 30 31  1  0  0  0  0
 30 32  1  0  0  0  0
 31 32  1  0  0  0  0
 33 34  1  0  0  0  0
 35 40  1  0  0  0  0
 38 35  1  0  0  0  0
 38 39  1  0  0  0  0
 39 34  1  6  0  0  0
 39 37  1  0  0  0  0
 40 37  1  0  0  0  0
 40 36  2  0  0  0  0
 41 42  1  0  0  0  0
 42 44  1  0  0  0  0
 42 43  1  0  0  0  0
 44 43  1  0  0  0  0
M  END
>  <MODEL>
7

>  <REMARK>
 VINA RESULT:      -5.8      1.791      4.873
  Name = 
  17 active torsions:
  status: ('A' for Active; 'I' for Inactive)
    1  A    between atoms: C_1  and  C_16
    2  A    between atoms: C_2  and  C_36
    3  A    between atoms: C_5  and  C_16
    4  A    between atoms: C_7  and  C_37
    5  A    between atoms: C_8  and  N_31
    6  A    between atoms: C_11  and  N_25
    7  A    between atoms: C_11  and  C_40
    8  A    between atoms: C_14  and  O_18
    9  A    between atoms: C_14  and  C_37
   10  A    between atoms: O_18  and  C_19
   11  A    between atoms: C_21  and  C_27
   12  A    between atoms: C_21  and  C_40
   13  A    between atoms: C_23  and  S_26
   14  A    between atoms: S_26  and  C_30
   15  A    between atoms: O_29  and  N_31
   16  A    between atoms: O_29  and  C_41
   17  A    between atoms: C_30  and  N_33
                            x       y       z     vdW  Elec       q    Type
                         _______ _______ _______ _____ _____    ______ ____

>  <TORSDO>
F 17

$$$$
=
 OpenBabel10222416133D

 44 49  0  0  1  0  0  0  0  0999 V2000
  181.8220  175.8710  139.5130 C   0  0  2  0  0  3  0  0  0  0  0  0
  180.9770  174.8540  138.7690 C   0  0  0  0  0  1  0  0  0  0  0  0
  180.9530  177.0420  139.9470 C   0  0  0  0  0  2  0  0  0  0  0  0
  181.8360  178.1540  140.4850 C   0  0  1  0  0  3  0  0  0  0  0  0
  180.9670  179.3270  140.8840 C   0  0  0  0  0  2  0  0  0  0  0  0
  181.5170  178.3960  141.9470 C   0  0  2  0  0  3  0  0  0  0  0  0
  182.7330  179.0260  142.6150 C   0  0  1  0  0  3  0  0  0  0  0  0
  182.6140  178.9860  144.0060 O   0  0  0  0  0  1  0  0  0  0  0  0
  184.0370  178.3690  142.1590 C   0  0  0  0  0  2  0  0  0  0  0  0
  185.2800  179.2070  142.4630 C   0  0  0  0  0  2  0  0  0  0  0  0
  185.7790  179.0140  145.2830 O   0  0  0  0  0  0  0  0  0  0  0  0
  186.4540  178.2820  144.5090 C   0  0  0  0  0  0  0  0  0  0  0  0
  186.3130  178.3920  143.0910 N   0  0  0  0  0  2  0  0  0  0  0  0
  187.5800  177.0710  145.1880 S   0  0  0  0  0  0  0  0  0  0  0  0
  187.9470  176.4060  143.5360 C   0  0  0  0  0  2  0  0  0  0  0  0
  190.9300  179.3920  143.9830 N   0  0  0  0  0  1  0  0  0  0  0  0
  189.7790  177.1760  142.0080 C   0  0  0  0  0  0  0  0  0  0  0  0
  192.1080  177.0990  141.4330 N   0  0  0  0  0  1  0  0  0  0  0  0
  191.0700  177.9040  142.0580 C   0  0  2  0  0  3  0  0  0  0  0  0
  189.1010  177.0830  140.9470 O   0  0  0  0  0  0  0  0  0  0  0  0
  189.3540  176.5940  143.2260 N   0  0  0  0  0  0  0  0  0  0  0  0
  190.5460  176.7800  144.5100 S   0  0  0  0  0  0  0  0  0  0  0  0
  191.3930  178.0870  143.5430 C   0  0  2  0  0  3  0  0  0  0  0  0
  182.8560  176.3170  138.6800 O   0  0  0  0  0  0  0  0  0  0  0  0
  184.2010  174.7420  137.5050 C   0  0  1  0  0  3  0  0  0  0  0  0
  184.7620  175.1250  136.1350 C   0  0  1  0  0  3  0  0  0  0  0  0
  184.0400  176.2930  135.6600 N   0  0  0  0  0  2  0  0  0  0  0  0
  182.8560  175.4330  137.5880 C   0  0  2  0  0  3  0  0  0  0  0  0
  182.7140  176.1710  136.2560 C   0  0  1  0  0  3  0  0  0  0  0  0
  181.9140  177.4890  136.3300 C   0  0  0  0  0  3  0  0  0  0  0  0
  181.4000  177.9300  134.9660 C   0  0  0  0  0  2  0  0  0  0  0  0
  180.4480  177.2930  135.9650 C   0  0  0  0  0  2  0  0  0  0  0  0
  186.2080  175.3930  136.1410 N   0  0  0  0  0  2  0  0  0  0  0  0
  186.4560  176.7040  136.4160 O   0  0  0  0  0  0  0  0  0  0  0  0
  189.5150  177.5520  137.1180 C   0  0  0  0  0  2  0  0  0  0  0  0
  189.0590  179.7420  137.9160 O   0  0  0  0  0  0  0  0  0  0  0  0
  187.3310  178.1360  138.1350 C   0  0  0  0  0  2  0  0  0  0  0  0
  188.6660  176.2960  137.2150 C   0  0  0  0  0  2  0  0  0  0  0  0
  187.2450  176.7210  137.5760 C   0  0  2  0  0  3  0  0  0  0  0  0
  188.6770  178.5950  137.7440 C   0  0  0  0  0  0  0  0  0  0  0  0
  184.0100  173.2360  137.6070 C   0  0  0  0  0  2  0  0  0  0  0  0
  183.8580  172.6260  136.2230 C   0  0  0  0  0  3  0  0  0  0  0  0
  182.5070  171.9430  136.1250 C   0  0  0  0  0  2  0  0  0  0  0  0
  183.7590  171.1230  136.3620 C   0  0  0  0  0  2  0  0  0  0  0  0
  1  2  1  6  0  0  0
  1  3  1  0  0  0  0
  4  3  1  6  0  0  0
  4  5  1  0  0  0  0
  4  6  1  0  0  0  0
  5  6  1  0  0  0  0
  6  7  1  1  0  0  0
  7  8  1  1  0  0  0
  9 10  1  0  0  0  0
  9  7  1  0  0  0  0
 10 13  1  0  0  0  0
 12 14  1  0  0  0  0
 12 11  2  0  0  0  0
 13 12  1  0  0  0  0
 15 14  1  0  0  0  0
 17 19  1  0  0  0  0
 17 21  1  0  0  0  0
 19 18  1  1  0  0  0
 19 23  1  0  0  0  0
 20 17  2  0  0  0  0
 21 15  1  0  0  0  0
 21 22  1  0  0  0  0
 23 16  1  1  0  0  0
 23 22  1  0  0  0  0
 24  1  1  0  0  0  0
 25 28  1  0  0  0  0
 25 41  1  6  0  0  0
 26 33  1  1  0  0  0
 26 25  1  0  0  0  0
 27 26  1  0  0  0  0
 27 29  1  0  0  0  0
 28 24  1  1  0  0  0
 29 30  1  1  0  0  0
 29 28  1  0  0  0  0
 31 32  1  0  0  0  0
 31 30  1  0  0  0  0
 32 30  1  0  0  0  0
 33 34  1  0  0  0  0
 35 38  1  0  0  0  0
 35 40  1  0  0  0  0
 38 39  1  0  0  0  0
 39 34  1  6  0  0  0
 39 37  1  0  0  0  0
 40 36  2  0  0  0  0
 40 37  1  0  0  0  0
 42 44  1  0  0  0  0
 42 41  1  0  0  0  0
 43 42  1  0  0  0  0
 43 44  1  0  0  0  0
M  END
>  <MODEL>
8

>  <REMARK>
 VINA RESULT:      -5.6      2.803      6.155
  Name = 
  17 active torsions:
  status: ('A' for Active; 'I' for Inactive)
    1  A    between atoms: C_1  and  C_16
    2  A    between atoms: C_2  and  C_36
    3  A    between atoms: C_5  and  C_16
    4  A    between atoms: C_7  and  C_37
    5  A    between atoms: C_8  and  N_31
    6  A    between atoms: C_11  and  N_25
    7  A    between atoms: C_11  and  C_40
    8  A    between atoms: C_14  and  O_18
    9  A    between atoms: C_14  and  C_37
   10  A    between atoms: O_18  and  C_19
   11  A    between atoms: C_21  and  C_27
   12  A    between atoms: C_21  and  C_40
   13  A    between atoms: C_23  and  S_26
   14  A    between atoms: S_26  and  C_30
   15  A    between atoms: O_29  and  N_31
   16  A    between atoms: O_29  and  C_41
   17  A    between atoms: C_30  and  N_33
                            x       y       z     vdW  Elec       q    Type
                         _______ _______ _______ _____ _____    ______ ____

>  <TORSDO>
F 17

$$$$
=
 OpenBabel10222416133D

 44 49  0  0  1  0  0  0  0  0999 V2000
  190.0560  174.2830  136.3100 C   0  0  2  0  0  3  0  0  0  0  0  0
  190.0630  175.1640  135.0740 C   0  0  0  0  0  1  0  0  0  0  0  0
  189.3460  172.9730  136.0040 C   0  0  0  0  0  2  0  0  0  0  0  0
  187.8990  173.2560  135.6410 C   0  0  1  0  0  3  0  0  0  0  0  0
  187.4480  172.2590  134.5950 C   0  0  0  0  0  2  0  0  0  0  0  0
  187.0330  172.0780  136.0430 C   0  0  2  0  0  3  0  0  0  0  0  0
  185.6050  172.5680  136.2420 C   0  0  1  0  0  3  0  0  0  0  0  0
  184.7100  171.4960  136.2780 O   0  0  0  0  0  1  0  0  0  0  0  0
  185.4680  173.4350  137.4960 C   0  0  0  0  0  2  0  0  0  0  0  0
  184.0690  174.0250  137.6800 C   0  0  0  0  0  2  0  0  0  0  0  0
  181.7100  175.6530  137.5330 O   0  0  0  0  0  0  0  0  0  0  0  0
  182.8020  176.1520  137.1460 C   0  0  0  0  0  0  0  0  0  0  0  0
  183.9950  175.3660  137.1140 N   0  0  0  0  0  2  0  0  0  0  0  0
  182.8700  177.8710  136.6570 S   0  0  0  0  0  0  0  0  0  0  0  0
  182.1790  178.4080  138.2510 C   0  0  0  0  0  2  0  0  0  0  0  0
  182.4600  178.8590  142.4620 N   0  0  0  0  0  1  0  0  0  0  0  0
  183.9620  179.4000  139.7070 C   0  0  0  0  0  0  0  0  0  0  0  0
  185.8380  179.0270  141.1560 N   0  0  0  0  0  1  0  0  0  0  0  0
  184.4250  179.3710  141.1160 C   0  0  2  0  0  3  0  0  0  0  0  0
  184.2400  180.3530  138.9280 O   0  0  0  0  0  0  0  0  0  0  0  0
  183.1840  178.2920  139.2930 N   0  0  0  0  0  0  0  0  0  0  0  0
  183.0500  177.0610  140.5460 S   0  0  0  0  0  0  0  0  0  0  0  0
  183.6140  178.2700  141.8040 C   0  0  2  0  0  3  0  0  0  0  0  0
  189.4090  174.9520  137.3560 O   0  0  0  0  0  0  0  0  0  0  0  0
  191.0060  176.2280  138.5780 C   0  0  1  0  0  3  0  0  0  0  0  0
  190.5120  177.3390  139.5060 C   0  0  1  0  0  3  0  0  0  0  0  0
  189.1280  177.6270  139.1710 N   0  0  0  0  0  2  0  0  0  0  0  0
  190.0260  176.2130  137.4240 C   0  0  2  0  0  3  0  0  0  0  0  0
  189.0240  177.3230  137.7480 C   0  0  1  0  0  3  0  0  0  0  0  0
  187.5890  177.0640  137.2440 C   0  0  0  0  0  3  0  0  0  0  0  0
  186.6190  178.1540  137.6800 C   0  0  0  0  0  2  0  0  0  0  0  0
  187.1290  178.1220  136.2490 C   0  0  0  0  0  2  0  0  0  0  0  0
  190.6280  177.0120  140.9350 N   0  0  0  0  0  2  0  0  0  0  0  0
  189.4050  177.0230  141.5350 O   0  0  0  0  0  0  0  0  0  0  0  0
  190.2430  177.5650  144.6290 C   0  0  0  0  0  2  0  0  0  0  0  0
  188.0500  177.7650  145.5180 O   0  0  0  0  0  0  0  0  0  0  0  0
  188.3080  176.4200  143.5860 C   0  0  0  0  0  2  0  0  0  0  0  0
  190.7420  176.7010  143.4840 C   0  0  0  0  0  2  0  0  0  0  0  0
  189.5260  176.2330  142.6890 C   0  0  2  0  0  3  0  0  0  0  0  0
  188.7920  177.2970  144.6690 C   0  0  0  0  0  0  0  0  0  0  0  0
  192.4030  176.5410  138.0600 C   0  0  0  0  0  2  0  0  0  0  0  0
  193.3430  175.3790  138.3390 C   0  0  0  0  0  3  0  0  0  0  0  0
  194.4320  175.3560  137.2830 C   0  0  0  0  0  2  0  0  0  0  0  0
  193.2600  174.4000  137.1890 C   0  0  0  0  0  2  0  0  0  0  0  0
  1  2  1  6  0  0  0
  1 24  1  0  0  0  0
  3  1  1  0  0  0  0
  4  3  1  1  0  0  0
  4  6  1  0  0  0  0
  5  4  1  0  0  0  0
  5  6  1  0  0  0  0
  6  7  1  6  0  0  0
  7  8  1  1  0  0  0
  7  9  1  0  0  0  0
  9 10  1  0  0  0  0
 12 11  2  0  0  0  0
 13 12  1  0  0  0  0
 13 10  1  0  0  0  0
 14 12  1  0  0  0  0
 14 15  1  0  0  0  0
 15 21  1  0  0  0  0
 17 19  1  0  0  0  0
 19 18  1  6  0  0  0
 19 23  1  0  0  0  0
 20 17  2  0  0  0  0
 21 17  1  0  0  0  0
 21 22  1  0  0  0  0
 22 23  1  0  0  0  0
 23 16  1  6  0  0  0
 25 41  1  6  0  0  0
 25 26  1  0  0  0  0
 26 33  1  1  0  0  0
 27 26  1  0  0  0  0
 28 24  1  1  0  0  0
 28 29  1  0  0  0  0
 28 25  1  0  0  0  0
 29 30  1  1  0  0  0
 29 27  1  0  0  0  0
 30 31  1  0  0  0  0
 32 30  1  0  0  0  0
 32 31  1  0  0  0  0
 33 34  1  0  0  0  0
 35 40  1  0  0  0  0
 37 40  1  0  0  0  0
 38 35  1  0  0  0  0
 39 34  1  6  0  0  0
 39 38  1  0  0  0  0
 39 37  1  0  0  0  0
 40 36  2  0  0  0  0
 41 42  1  0  0  0  0
 43 42  1  0  0  0  0
 44 43  1  0  0  0  0
 44 42  1  0  0  0  0
M  END
>  <MODEL>
9

>  <REMARK>
 VINA RESULT:      -5.6      3.074      7.941
  Name = 
  17 active torsions:
  status: ('A' for Active; 'I' for Inactive)
    1  A    between atoms: C_1  and  C_16
    2  A    between atoms: C_2  and  C_36
    3  A    between atoms: C_5  and  C_16
    4  A    between atoms: C_7  and  C_37
    5  A    between atoms: C_8  and  N_31
    6  A    between atoms: C_11  and  N_25
    7  A    between atoms: C_11  and  C_40
    8  A    between atoms: C_14  and  O_18
    9  A    between atoms: C_14  and  C_37
   10  A    between atoms: O_18  and  C_19
   11  A    between atoms: C_21  and  C_27
   12  A    between atoms: C_21  and  C_40
   13  A    between atoms: C_23  and  S_26
   14  A    between atoms: S_26  and  C_30
   15  A    between atoms: O_29  and  N_31
   16  A    between atoms: O_29  and  C_41
   17  A    between atoms: C_30  and  N_33
                            x       y       z     vdW  Elec       q    Type
                         _______ _______ _______ _____ _____    ______ ____

>  <TORSDO>
F 17

$$$$
