=
 OpenBabel10222418553D

 43 48  0  0  1  0  0  0  0  0999 V2000
  186.6020  178.1980  140.7050 C   0  0  0  0  0  0  0  0  0  0  0  0
  185.4630  177.6080  144.8210 C   0  0  2  0  0  3  0  0  0  0  0  0
  185.8350  177.8910  146.1260 C   0  0  0  0  0  2  0  0  0  0  0  0
  185.3660  178.5890  141.3510 C   0  0  0  0  0  0  0  0  0  0  0  0
  188.2600  177.3530  144.7460 C   0  0  0  0  0  0  0  0  0  0  0  0
  188.8700  177.4150  139.5020 C   0  0  2  0  0  3  0  0  0  0  0  0
  186.9130  177.5230  145.1630 N   0  0  0  0  0  0  0  0  0  0  0  0
  189.2730  177.4690  145.6110 C   0  0  0  0  0  2  0  0  0  0  0  0
  185.3360  178.7020  142.6550 C   0  0  0  0  0  0  0  0  0  0  0  0
  188.5240  177.2100  143.3560 N   0  0  0  0  0  0  0  0  0  0  0  0
  185.2570  178.8230  143.9550 C   0  0  0  0  0  0  0  0  0  0  0  0
  190.6730  177.4280  145.1150 C   0  0  0  0  0  0  0  0  0  0  0  0
  190.0580  177.4710  141.6240 C   0  0  0  0  0  0  0  0  0  0  0  0
  187.6210  177.8610  140.1490 C   0  0  0  0  0  0  0  0  0  0  0  0
  190.9320  177.3550  143.8390 N   0  0  0  0  0  0  0  0  0  0  0  0
  190.0740  177.7330  140.3490 C   0  0  0  0  0  3  0  0  0  0  0  0
  184.8290  180.1360  144.5270 C   0  0  0  0  0  1  0  0  0  0  0  0
  189.8660  177.2530  142.8870 C   0  0  0  0  0  0  0  0  0  0  0  0
  191.7440  177.5220  146.0450 N   0  0  0  0  0  1  0  0  0  0  0  0
  184.5950  179.4080  139.1040 C   0  0  0  0  0  2  0  0  0  0  0  0
  184.2160  179.1330  140.5350 C   0  0  1  0  0  3  0  0  0  0  0  0
  183.9050  178.3060  138.3460 C   0  0  0  0  0  2  0  0  0  0  0  0
  182.7430  177.9750  139.0560 O   0  0  0  0  0  0  0  0  0  0  0  0
  183.0880  178.1160  140.4120 C   0  0  2  0  0  3  0  0  0  0  0  0
  181.6530  178.7070  141.3670 S   0  0  0  0  0  0  0  0  0  0  0  0
  180.8490  179.4300  139.9350 C   0  0  0  0  0  3  0  0  0  0  0  0
  180.9160  180.7450  139.7380 C   0  0  0  0  0  3  0  0  0  0  0  0
  180.2570  181.3710  138.5490 C   0  0  2  0  0  3  0  0  0  0  0  0
  181.0300  181.0870  137.3980 O   0  0  0  0  0  0  0  0  0  0  0  0
  181.1090  182.3950  137.8930 C   0  0  2  0  0  0  0  0  0  0  0  0
  182.3680  182.6690  138.4360 O   0  0  0  0  0  1  0  0  0  0  0  0
  180.4860  183.4070  136.9390 C   0  0  1  0  0  3  0  0  0  0  0  0
  181.0360  184.7910  137.2330 C   0  0  0  0  0  1  0  0  0  0  0  0
  180.8290  184.2440  134.9550 N   0  0  0  0  0  1  0  0  0  0  0  0
  180.7940  183.0640  135.6200 O   0  0  0  0  0  0  0  0  0  0  0  0
  188.9900  178.0640  138.1310 C   0  0  0  0  0  2  0  0  0  0  0  0
  187.4890  175.8310  137.1210 S   0  0  0  0  0  0  0  0  0  0  0  0
  187.9540  177.5550  137.1850 C   0  0  0  0  0  0  0  0  0  0  0  0
  186.2960  177.7020  135.6710 N   0  0  0  0  0  2  0  0  0  0  0  0
  187.2740  178.3440  136.4290 N   0  0  0  0  0  0  0  0  0  0  0  0
  186.1950  176.2720  135.9000 C   0  0  1  0  0  3  0  0  0  0  0  0
  187.6430  174.7410  134.6830 N   0  0  0  0  0  1  0  0  0  0  0  0
  186.4280  175.5320  134.5950 C   0  0  0  0  0  2  0  0  0  0  0  0
  1  4  1  0  0  0  0
  2  7  1  0  0  0  0
  2  3  1  1  0  0  0
  4  9  2  0  0  0  0
  5  7  1  0  0  0  0
  5  8  1  0  0  0  0
  6 36  1  6  0  0  0
  6 14  1  0  0  0  0
  6 16  1  0  0  0  0
  7  3  1  0  0  0  0
  9 11  2  0  0  0  0
 10  5  2  0  0  0  0
 11 17  1  0  0  0  0
 11  2  1  0  0  0  0
 12  8  1  0  0  0  0
 12 19  1  0  0  0  0
 13 18  2  0  0  0  0
 14  1  3  0  0  0  0
 15 12  2  0  0  0  0
 16 13  2  0  0  0  0
 18 10  1  0  0  0  0
 18 15  1  0  0  0  0
 20 21  1  0  0  0  0
 21  4  1  1  0  0  0
 22 23  1  0  0  0  0
 22 20  1  0  0  0  0
 23 24  1  0  0  0  0
 24 21  1  0  0  0  0
 24 25  1  1  0  0  0
 26 25  1  0  0  0  0
 27 26  2  0  0  0  0
 28 27  1  1  0  0  0
 29 30  1  0  0  0  0
 29 28  1  0  0  0  0
 30 31  1  1  0  0  0
 30 28  1  0  0  0  0
 32 33  1  1  0  0  0
 32 30  1  0  0  0  0
 34 35  1  0  0  0  0
 35 32  1  0  0  0  0
 37 38  1  0  0  0  0
 38 36  1  0  0  0  0
 39 41  1  0  0  0  0
 39 40  1  0  0  0  0
 40 38  2  0  0  0  0
 41 43  1  6  0  0  0
 41 37  1  0  0  0  0
 43 42  1  0  0  0  0
M  END
>  <MODEL>
1

>  <REMARK>
 VINA RESULT:      -7.9      0.000      0.000
  Name = 
  9 active torsions:
  status: ('A' for Active; 'I' for Inactive)
    1  A    between atoms: C_4  and  C_12
    2  A    between atoms: C_7  and  C_20
    3  A    between atoms: C_7  and  O_34
    4  A    between atoms: C_10  and  C_40
    5  A    between atoms: C_12  and  C_19
    6  A    between atoms: C_13  and  C_16
    7  A    between atoms: C_14  and  S_17
    8  A    between atoms: S_17  and  C_39
    9  A    between atoms: C_22  and  C_24
                            x       y       z     vdW  Elec       q    Type
                         _______ _______ _______ _____ _____    ______ ____

>  <TORSDO>
F 9

$$$$
=
 OpenBabel10222418553D

 43 48  0  0  1  0  0  0  0  0999 V2000
  187.3650  177.8030  141.7500 C   0  0  0  0  0  0  0  0  0  0  0  0
  185.5970  177.5260  145.6730 C   0  0  2  0  0  3  0  0  0  0  0  0
  185.7880  177.8700  147.0020 C   0  0  0  0  0  2  0  0  0  0  0  0
  186.0730  178.2960  142.1800 C   0  0  0  0  0  0  0  0  0  0  0  0
  188.3540  177.1250  146.0350 C   0  0  0  0  0  0  0  0  0  0  0  0
  189.7350  176.8340  140.9470 C   0  0  2  0  0  3  0  0  0  0  0  0
  186.9730  177.3890  146.2340 N   0  0  0  0  0  0  0  0  0  0  0  0
  189.2340  177.2430  147.0350 C   0  0  0  0  0  2  0  0  0  0  0  0
  185.8570  178.4890  143.4570 C   0  0  0  0  0  0  0  0  0  0  0  0
  188.8120  176.8840  144.7100 N   0  0  0  0  0  0  0  0  0  0  0  0
  185.5940  178.6950  144.7220 C   0  0  0  0  0  0  0  0  0  0  0  0
  190.6870  177.1010  146.7590 C   0  0  0  0  0  0  0  0  0  0  0  0
  190.5970  176.9600  143.2180 C   0  0  0  0  0  0  0  0  0  0  0  0
  188.4330  177.3810  141.3740 C   0  0  0  0  0  0  0  0  0  0  0  0
  191.1260  176.9360  145.5430 N   0  0  0  0  0  0  0  0  0  0  0  0
  190.8170  177.1410  141.9470 C   0  0  0  0  0  3  0  0  0  0  0  0
  185.1650  180.0600  145.1520 C   0  0  0  0  0  1  0  0  0  0  0  0
  190.2080  176.8300  144.4470 C   0  0  0  0  0  0  0  0  0  0  0  0
  191.6120  177.1970  147.8340 N   0  0  0  0  0  1  0  0  0  0  0  0
  185.6620  178.9200  139.7810 C   0  0  0  0  0  2  0  0  0  0  0  0
  185.0890  178.8450  141.1730 C   0  0  1  0  0  3  0  0  0  0  0  0
  184.9530  177.8060  139.0570 C   0  0  0  0  0  2  0  0  0  0  0  0
  183.6880  177.6660  139.6420 O   0  0  0  0  0  0  0  0  0  0  0  0
  183.8830  177.9290  141.0100 C   0  0  2  0  0  3  0  0  0  0  0  0
  182.4170  178.7540  141.7070 S   0  0  0  0  0  0  0  0  0  0  0  0
  181.5920  178.8880  140.1190 C   0  0  0  0  0  3  0  0  0  0  0  0
  181.0530  180.0500  139.7550 C   0  0  0  0  0  3  0  0  0  0  0  0
  180.3630  180.1890  138.4340 C   0  0  2  0  0  3  0  0  0  0  0  0
  181.3310  180.1090  137.4050 O   0  0  0  0  0  0  0  0  0  0  0  0
  180.8130  181.3830  137.6740 C   0  0  2  0  0  0  0  0  0  0  0  0
  181.7730  182.2210  138.2490 O   0  0  0  0  0  1  0  0  0  0  0  0
  179.9710  181.9130  136.5210 C   0  0  1  0  0  3  0  0  0  0  0  0
  180.3010  183.3750  136.2780 C   0  0  0  0  0  1  0  0  0  0  0  0
  180.9880  182.0200  134.5950 N   0  0  0  0  0  1  0  0  0  0  0  0
  180.2460  181.1850  135.3610 O   0  0  0  0  0  0  0  0  0  0  0  0
  190.0950  177.3900  139.5770 C   0  0  0  0  0  2  0  0  0  0  0  0
  192.7430  176.7240  138.6820 S   0  0  0  0  0  0  0  0  0  0  0  0
  190.9820  176.4600  138.8170 C   0  0  0  0  0  0  0  0  0  0  0  0
  191.5250  174.5880  137.6950 N   0  0  0  0  0  2  0  0  0  0  0  0
  190.5400  175.3690  138.2970 N   0  0  0  0  0  0  0  0  0  0  0  0
  192.8700  175.1230  137.7990 C   0  0  1  0  0  3  0  0  0  0  0  0
  194.2110  176.5620  136.3670 N   0  0  0  0  0  1  0  0  0  0  0  0
  193.4410  175.3320  136.4080 C   0  0  0  0  0  2  0  0  0  0  0  0
  1  4  1  0  0  0  0
  2  7  1  0  0  0  0
  2  3  1  1  0  0  0
  4  9  2  0  0  0  0
  5  7  1  0  0  0  0
  5  8  1  0  0  0  0
  6 36  1  6  0  0  0
  6 14  1  0  0  0  0
  6 16  1  0  0  0  0
  7  3  1  0  0  0  0
  9 11  2  0  0  0  0
 10  5  2  0  0  0  0
 11 17  1  0  0  0  0
 11  2  1  0  0  0  0
 12  8  1  0  0  0  0
 12 19  1  0  0  0  0
 13 18  2  0  0  0  0
 14  1  3  0  0  0  0
 15 12  2  0  0  0  0
 16 13  2  0  0  0  0
 18 10  1  0  0  0  0
 18 15  1  0  0  0  0
 20 21  1  0  0  0  0
 21  4  1  1  0  0  0
 22 23  1  0  0  0  0
 22 20  1  0  0  0  0
 23 24  1  0  0  0  0
 24 21  1  0  0  0  0
 24 25  1  6  0  0  0
 26 25  1  0  0  0  0
 27 26  2  0  0  0  0
 28 27  1  1  0  0  0
 29 30  1  0  0  0  0
 29 28  1  0  0  0  0
 30 31  1  1  0  0  0
 30 28  1  0  0  0  0
 32 33  1  6  0  0  0
 32 30  1  0  0  0  0
 34 35  1  0  0  0  0
 35 32  1  0  0  0  0
 37 38  1  0  0  0  0
 38 36  1  0  0  0  0
 39 41  1  0  0  0  0
 39 40  1  0  0  0  0
 40 38  2  0  0  0  0
 41 43  1  6  0  0  0
 41 37  1  0  0  0  0
 42 43  1  0  0  0  0
M  END
>  <MODEL>
2

>  <REMARK>
 VINA RESULT:      -7.8      2.327      2.769
  Name = 
  9 active torsions:
  status: ('A' for Active; 'I' for Inactive)
    1  A    between atoms: C_4  and  C_12
    2  A    between atoms: C_7  and  C_20
    3  A    between atoms: C_7  and  O_34
    4  A    between atoms: C_10  and  C_40
    5  A    between atoms: C_12  and  C_19
    6  A    between atoms: C_13  and  C_16
    7  A    between atoms: C_14  and  S_17
    8  A    between atoms: S_17  and  C_39
    9  A    between atoms: C_22  and  C_24
                            x       y       z     vdW  Elec       q    Type
                         _______ _______ _______ _____ _____    ______ ____

>  <TORSDO>
F 9

$$$$
=
 OpenBabel10222418553D

 43 48  0  0  1  0  0  0  0  0999 V2000
  186.4630  178.5210  140.8080 C   0  0  0  0  0  0  0  0  0  0  0  0
  185.4940  179.3080  144.9360 C   0  0  2  0  0  3  0  0  0  0  0  0
  184.6460  178.9350  145.9660 C   0  0  0  0  0  2  0  0  0  0  0  0
  187.3310  178.4130  141.9630 C   0  0  0  0  0  0  0  0  0  0  0  0
  183.0400  178.9250  143.6220 C   0  0  0  0  0  0  0  0  0  0  0  0
  184.8640  178.7830  138.6700 C   0  0  2  0  0  3  0  0  0  0  0  0
  184.0620  179.0600  144.5990 N   0  0  0  0  0  0  0  0  0  0  0  0
  181.7960  178.5720  143.9630 C   0  0  0  0  0  2  0  0  0  0  0  0
  186.7990  178.2960  143.1530 C   0  0  0  0  0  0  0  0  0  0  0  0
  183.4010  179.0190  142.2490 N   0  0  0  0  0  0  0  0  0  0  0  0
  186.3120  178.1810  144.3620 C   0  0  0  0  0  0  0  0  0  0  0  0
  180.7910  178.3010  142.9040 C   0  0  0  0  0  0  0  0  0  0  0  0
  182.8940  178.4360  140.0540 C   0  0  0  0  0  0  0  0  0  0  0  0
  185.7540  178.6240  139.8350 C   0  0  0  0  0  0  0  0  0  0  0  0
  181.1200  178.3270  141.6430 N   0  0  0  0  0  0  0  0  0  0  0  0
  183.5040  178.1920  138.9300 C   0  0  0  0  0  3  0  0  0  0  0  0
  186.7010  176.9930  145.1810 C   0  0  0  0  0  1  0  0  0  0  0  0
  182.4520  178.6790  141.2480 C   0  0  0  0  0  0  0  0  0  0  0  0
  179.4630  177.9570  143.2770 N   0  0  0  0  0  1  0  0  0  0  0  0
  189.4680  177.6510  143.0450 C   0  0  0  0  0  2  0  0  0  0  0  0
  188.8100  178.1530  141.7860 C   0  0  1  0  0  3  0  0  0  0  0  0
  189.7270  176.1990  142.7430 C   0  0  0  0  0  2  0  0  0  0  0  0
  189.9340  176.0910  141.3610 O   0  0  0  0  0  0  0  0  0  0  0  0
  189.0660  177.0350  140.7840 C   0  0  2  0  0  3  0  0  0  0  0  0
  189.8190  177.7460  139.2850 S   0  0  0  0  0  0  0  0  0  0  0  0
  191.1540  176.5490  139.2450 C   0  0  0  0  0  3  0  0  0  0  0  0
  191.8020  176.3250  138.1030 C   0  0  0  0  0  3  0  0  0  0  0  0
  192.9220  175.3340  138.0450 C   0  0  2  0  0  3  0  0  0  0  0  0
  194.0600  175.8960  138.6710 O   0  0  0  0  0  0  0  0  0  0  0  0
  194.0880  175.8300  137.2720 C   0  0  2  0  0  0  0  0  0  0  0  0
  194.0170  177.1000  136.6920 O   0  0  0  0  0  1  0  0  0  0  0  0
  195.1390  174.8510  136.7660 C   0  0  1  0  0  3  0  0  0  0  0  0
  195.4660  175.1560  135.3150 C   0  0  0  0  0  1  0  0  0  0  0  0
  197.1980  175.5690  136.7080 N   0  0  0  0  0  1  0  0  0  0  0  0
  196.3030  174.9700  137.5300 O   0  0  0  0  0  0  0  0  0  0  0  0
  185.5060  178.1390  137.4490 C   0  0  0  0  0  2  0  0  0  0  0  0
  183.4780  177.1300  135.6820 S   0  0  0  0  0  0  0  0  0  0  0  0
  184.7170  176.9720  136.9590 C   0  0  0  0  0  0  0  0  0  0  0  0
  184.1710  174.8000  136.7400 N   0  0  0  0  0  2  0  0  0  0  0  0
  184.9500  175.7730  137.3640 N   0  0  0  0  0  0  0  0  0  0  0  0
  183.2700  175.3090  135.7210 C   0  0  1  0  0  3  0  0  0  0  0  0
  181.8320  173.9840  137.1690 N   0  0  0  0  0  1  0  0  0  0  0  0
  181.8400  174.9500  136.0850 C   0  0  0  0  0  2  0  0  0  0  0  0
  1  4  1  0  0  0  0
  2  3  1  1  0  0  0
  4  9  2  0  0  0  0
  5  8  1  0  0  0  0
  5  7  1  0  0  0  0
  6 36  1  6  0  0  0
  6 16  1  0  0  0  0
  6 14  1  0  0  0  0
  7  2  1  0  0  0  0
  7  3  1  0  0  0  0
  9 11  2  0  0  0  0
 10  5  2  0  0  0  0
 11  2  1  0  0  0  0
 11 17  1  0  0  0  0
 12 19  1  0  0  0  0
 12  8  1  0  0  0  0
 13 18  2  0  0  0  0
 14  1  3  0  0  0  0
 15 12  2  0  0  0  0
 16 13  2  0  0  0  0
 18 15  1  0  0  0  0
 18 10  1  0  0  0  0
 21  4  1  1  0  0  0
 21 20  1  0  0  0  0
 22 20  1  0  0  0  0
 23 22  1  0  0  0  0
 24 25  1  6  0  0  0
 24 23  1  0  0  0  0
 24 21  1  0  0  0  0
 26 25  1  0  0  0  0
 27 26  2  0  0  0  0
 28 27  1  6  0  0  0
 28 29  1  0  0  0  0
 30 31  1  6  0  0  0
 30 28  1  0  0  0  0
 30 29  1  0  0  0  0
 32 33  1  6  0  0  0
 32 30  1  0  0  0  0
 32 35  1  0  0  0  0
 34 35  1  0  0  0  0
 37 41  1  0  0  0  0
 37 38  1  0  0  0  0
 38 40  2  0  0  0  0
 38 36  1  0  0  0  0
 39 40  1  0  0  0  0
 41 43  1  1  0  0  0
 41 39  1  0  0  0  0
 43 42  1  0  0  0  0
M  END
>  <MODEL>
3

>  <REMARK>
 VINA RESULT:      -7.7      5.059      8.925
  Name = 
  9 active torsions:
  status: ('A' for Active; 'I' for Inactive)
    1  A    between atoms: C_4  and  C_12
    2  A    between atoms: C_7  and  C_20
    3  A    between atoms: C_7  and  O_34
    4  A    between atoms: C_10  and  C_40
    5  A    between atoms: C_12  and  C_19
    6  A    between atoms: C_13  and  C_16
    7  A    between atoms: C_14  and  S_17
    8  A    between atoms: S_17  and  C_39
    9  A    between atoms: C_22  and  C_24
                            x       y       z     vdW  Elec       q    Type
                         _______ _______ _______ _____ _____    ______ ____

>  <TORSDO>
F 9

$$$$
=
 OpenBabel10222418553D

 43 48  0  0  1  0  0  0  0  0999 V2000
  187.2400  178.2950  140.0250 C   0  0  0  0  0  0  0  0  0  0  0  0
  187.2780  178.3530  135.7130 C   0  0  2  0  0  3  0  0  0  0  0  0
  187.6090  177.6020  134.5970 C   0  0  0  0  0  2  0  0  0  0  0  0
  186.1180  178.4750  139.1270 C   0  0  0  0  0  0  0  0  0  0  0  0
  189.6630  177.0900  136.4930 C   0  0  0  0  0  0  0  0  0  0  0  0
  189.3350  178.0200  141.6790 C   0  0  2  0  0  3  0  0  0  0  0  0
  188.5440  177.5660  135.7590 N   0  0  0  0  0  0  0  0  0  0  0  0
  190.5400  176.2410  135.9470 C   0  0  0  0  0  3  0  0  0  0  0  0
  186.2240  178.0760  137.8850 C   0  0  0  0  0  0  0  0  0  0  0  0
  189.7500  177.4110  137.8760 N   0  0  0  0  0  2  0  0  0  0  0  0
  186.2840  177.6950  136.6350 C   0  0  0  0  0  0  0  0  0  0  0  0
  191.6160  175.6530  136.7860 C   0  0  0  0  0  0  0  0  0  0  0  0
  190.5750  176.8140  139.9690 C   0  0  0  0  0  0  0  0  0  0  0  0
  188.1710  178.1630  140.7840 C   0  0  0  0  0  0  0  0  0  0  0  0
  191.6760  175.8920  138.0660 N   0  0  0  0  0  0  0  0  0  0  0  0
  190.2470  176.9120  141.2260 C   0  0  0  0  0  3  0  0  0  0  0  0
  185.2700  176.7180  136.1330 C   0  0  0  0  0  1  0  0  0  0  0  0
  190.7350  176.7790  138.6830 C   0  0  0  0  0  0  0  0  0  0  0  0
  192.5620  174.7750  136.1890 N   0  0  0  0  0  1  0  0  0  0  0  0
  183.6330  178.4400  138.7560 C   0  0  0  0  0  2  0  0  0  0  0  0
  184.7580  178.8510  139.6700 C   0  0  1  0  0  3  0  0  0  0  0  0
  183.0040  177.2810  139.4840 C   0  0  0  0  0  2  0  0  0  0  0  0
  183.1860  177.5010  140.8560 O   0  0  0  0  0  0  0  0  0  0  0  0
  184.4480  178.1130  140.9660 C   0  0  2  0  0  3  0  0  0  0  0  0
  184.4490  179.3080  142.3400 S   0  0  0  0  0  0  0  0  0  0  0  0
  185.1840  178.1530  143.4990 C   0  0  0  0  0  3  0  0  0  0  0  0
  185.6530  178.5990  144.6630 C   0  0  0  0  0  3  0  0  0  0  0  0
  186.2670  177.6550  145.6490 C   0  0  2  0  0  3  0  0  0  0  0  0
  185.3390  177.4160  146.6900 O   0  0  0  0  0  0  0  0  0  0  0  0
  186.4190  178.2530  147.0000 C   0  0  2  0  0  0  0  0  0  0  0  0
  186.0090  179.5750  147.1980 O   0  0  0  0  0  1  0  0  0  0  0  0
  187.3630  177.6180  148.0120 C   0  0  1  0  0  3  0  0  0  0  0  0
  188.4610  176.8630  147.2840 C   0  0  0  0  0  1  0  0  0  0  0  0
  189.2480  178.6270  148.4430 N   0  0  0  0  0  1  0  0  0  0  0  0
  187.9420  178.6120  148.8050 O   0  0  0  0  0  0  0  0  0  0  0  0
  188.8540  177.7730  143.1020 C   0  0  0  0  0  2  0  0  0  0  0  0
  190.7610  175.8640  144.0890 S   0  0  0  0  0  0  0  0  0  0  0  0
  189.9870  177.4720  144.0250 C   0  0  0  0  0  0  0  0  0  0  0  0
  191.6230  177.9360  145.4990 N   0  0  0  0  0  2  0  0  0  0  0  0
  190.5270  178.3800  144.7600 N   0  0  0  0  0  0  0  0  0  0  0  0
  191.9790  176.5460  145.2750 C   0  0  1  0  0  3  0  0  0  0  0  0
  192.0110  176.7190  147.7020 N   0  0  0  0  0  1  0  0  0  0  0  0
  191.9150  175.7900  146.5900 C   0  0  0  0  0  2  0  0  0  0  0  0
  1 14  3  0  0  0  0
  2  3  1  6  0  0  0
  2  7  1  0  0  0  0
  2 11  1  0  0  0  0
  3  7  1  0  0  0  0
  4  1  1  0  0  0  0
  5 10  1  0  0  0  0
  6 36  1  1  0  0  0
  7  5  1  0  0  0  0
  8  5  2  0  0  0  0
  8 12  1  0  0  0  0
  9  4  2  0  0  0  0
 10 18  1  0  0  0  0
 11  9  2  0  0  0  0
 12 15  2  0  0  0  0
 13 16  2  0  0  0  0
 14  6  1  0  0  0  0
 15 18  1  0  0  0  0
 16  6  1  0  0  0  0
 17 11  1  0  0  0  0
 18 13  2  0  0  0  0
 19 12  1  0  0  0  0
 20 22  1  0  0  0  0
 20 21  1  0  0  0  0
 21  4  1  6  0  0  0
 21 24  1  0  0  0  0
 22 23  1  0  0  0  0
 23 24  1  0  0  0  0
 24 25  1  1  0  0  0
 25 26  1  0  0  0  0
 26 27  2  0  0  0  0
 28 27  1  6  0  0  0
 28 29  1  0  0  0  0
 28 30  1  0  0  0  0
 29 30  1  0  0  0  0
 30 31  1  1  0  0  0
 30 32  1  0  0  0  0
 32 33  1  6  0  0  0
 32 35  1  0  0  0  0
 34 35  1  0  0  0  0
 36 38  1  0  0  0  0
 37 41  1  0  0  0  0
 38 37  1  0  0  0  0
 38 40  2  0  0  0  0
 40 39  1  0  0  0  0
 41 39  1  0  0  0  0
 41 43  1  1  0  0  0
 43 42  1  0  0  0  0
M  END
>  <MODEL>
4

>  <REMARK>
 VINA RESULT:      -7.6      3.501      8.703
  Name = 
  9 active torsions:
  status: ('A' for Active; 'I' for Inactive)
    1  A    between atoms: C_4  and  C_12
    2  A    between atoms: C_7  and  C_20
    3  A    between atoms: C_7  and  O_34
    4  A    between atoms: C_10  and  C_40
    5  A    between atoms: C_12  and  C_19
    6  A    between atoms: C_13  and  C_16
    7  A    between atoms: C_14  and  S_17
    8  A    between atoms: S_17  and  C_39
    9  A    between atoms: C_22  and  C_24
                            x       y       z     vdW  Elec       q    Type
                         _______ _______ _______ _____ _____    ______ ____

>  <TORSDO>
F 9

$$$$
=
 OpenBabel10222418553D

 43 48  0  0  1  0  0  0  0  0999 V2000
  187.7210  177.7910  139.4100 C   0  0  0  0  0  0  0  0  0  0  0  0
  183.4990  177.9470  140.2730 C   0  0  2  0  0  3  0  0  0  0  0  0
  182.5540  178.5610  141.0790 C   0  0  0  0  0  2  0  0  0  0  0  0
  186.6390  178.1200  138.5050 C   0  0  0  0  0  0  0  0  0  0  0  0
  184.8050  178.1110  142.7550 C   0  0  0  0  0  0  0  0  0  0  0  0
  189.7120  177.1200  141.0800 C   0  0  2  0  0  3  0  0  0  0  0  0
  183.8470  178.1600  141.7080 N   0  0  0  0  0  0  0  0  0  0  0  0
  184.5180  178.5670  143.9790 C   0  0  0  0  0  2  0  0  0  0  0  0
  185.4900  178.5080  138.9980 C   0  0  0  0  0  0  0  0  0  0  0  0
  186.1320  177.7110  142.4380 N   0  0  0  0  0  0  0  0  0  0  0  0
  184.3240  178.8980  139.4450 C   0  0  0  0  0  0  0  0  0  0  0  0
  185.5870  178.6330  145.0090 C   0  0  0  0  0  0  0  0  0  0  0  0
  188.3890  177.8190  142.9980 C   0  0  0  0  0  0  0  0  0  0  0  0
  188.6310  177.5000  140.1500 C   0  0  0  0  0  0  0  0  0  0  0  0
  186.8190  178.3240  144.7190 N   0  0  0  0  0  0  0  0  0  0  0  0
  189.5540  177.7940  142.4160 C   0  0  0  0  0  3  0  0  0  0  0  0
  183.7930  180.2230  139.0020 C   0  0  0  0  0  1  0  0  0  0  0  0
  187.1610  177.8540  143.4090 C   0  0  0  0  0  0  0  0  0  0  0  0
  185.2650  179.0900  146.3170 N   0  0  0  0  0  1  0  0  0  0  0  0
  188.3270  178.6880  136.7320 C   0  0  0  0  0  2  0  0  0  0  0  0
  186.9040  178.2900  137.0270 C   0  0  1  0  0  3  0  0  0  0  0  0
  188.9200  177.4350  136.1430 C   0  0  0  0  0  2  0  0  0  0  0  0
  187.8870  176.7520  135.4880 O   0  0  0  0  0  0  0  0  0  0  0  0
  186.7420  176.9760  136.2740 C   0  0  2  0  0  3  0  0  0  0  0  0
  185.2640  177.0810  135.2140 S   0  0  0  0  0  0  0  0  0  0  0  0
  184.2700  176.0520  136.2960 C   0  0  0  0  0  3  0  0  0  0  0  0
  183.0630  176.4680  136.6730 C   0  0  0  0  0  3  0  0  0  0  0  0
  182.2140  175.6260  137.5720 C   0  0  2  0  0  3  0  0  0  0  0  0
  180.9630  175.4080  136.9450 O   0  0  0  0  0  0  0  0  0  0  0  0
  180.9750  176.3200  138.0090 C   0  0  2  0  0  0  0  0  0  0  0  0
  180.7510  177.6290  137.5710 O   0  0  0  0  0  1  0  0  0  0  0  0
  180.1970  175.8060  139.2130 C   0  0  1  0  0  3  0  0  0  0  0  0
  179.6290  176.9780  139.9930 C   0  0  0  0  0  1  0  0  0  0  0  0
  179.3680  173.7950  139.3790 N   0  0  0  0  0  1  0  0  0  0  0  0
  179.1460  174.9920  138.7830 O   0  0  0  0  0  0  0  0  0  0  0  0
  191.0580  177.4640  140.4590 C   0  0  0  0  0  2  0  0  0  0  0  0
  192.9310  176.6800  138.4250 S   0  0  0  0  0  0  0  0  0  0  0  0
  191.3820  176.5710  139.3080 C   0  0  0  0  0  0  0  0  0  0  0  0
  191.1010  174.8340  137.9060 N   0  0  0  0  0  2  0  0  0  0  0  0
  190.6010  175.6130  138.9470 N   0  0  0  0  0  0  0  0  0  0  0  0
  192.4240  175.2160  137.4450 C   0  0  1  0  0  3  0  0  0  0  0  0
  193.7040  175.5770  135.4070 N   0  0  0  0  0  1  0  0  0  0  0  0
  192.3650  175.5650  135.9690 C   0  0  0  0  0  2  0  0  0  0  0  0
  1 14  3  0  0  0  0
  2  3  1  1  0  0  0
  2  7  1  0  0  0  0
  3  7  1  0  0  0  0
  4  9  2  0  0  0  0
  4  1  1  0  0  0  0
  5  8  1  0  0  0  0
  6 36  1  6  0  0  0
  6 16  1  0  0  0  0
  7  5  1  0  0  0  0
  8 12  1  0  0  0  0
  9 11  2  0  0  0  0
 10  5  2  0  0  0  0
 10 18  1  0  0  0  0
 11  2  1  0  0  0  0
 12 19  1  0  0  0  0
 13 18  2  0  0  0  0
 14  6  1  0  0  0  0
 15 12  2  0  0  0  0
 16 13  2  0  0  0  0
 17 11  1  0  0  0  0
 18 15  1  0  0  0  0
 20 21  1  0  0  0  0
 21  4  1  1  0  0  0
 22 20  1  0  0  0  0
 23 22  1  0  0  0  0
 23 24  1  0  0  0  0
 24 25  1  6  0  0  0
 24 21  1  0  0  0  0
 25 26  1  0  0  0  0
 26 27  2  0  0  0  0
 28 27  1  6  0  0  0
 28 30  1  0  0  0  0
 29 28  1  0  0  0  0
 29 30  1  0  0  0  0
 30 31  1  6  0  0  0
 30 32  1  0  0  0  0
 32 33  1  6  0  0  0
 35 32  1  0  0  0  0
 35 34  1  0  0  0  0
 37 38  1  0  0  0  0
 38 36  1  0  0  0  0
 39 40  1  0  0  0  0
 40 38  2  0  0  0  0
 41 43  1  6  0  0  0
 41 39  1  0  0  0  0
 41 37  1  0  0  0  0
 42 43  1  0  0  0  0
M  END
>  <MODEL>
5

>  <REMARK>
 VINA RESULT:      -7.6      3.466      5.512
  Name = 
  9 active torsions:
  status: ('A' for Active; 'I' for Inactive)
    1  A    between atoms: C_4  and  C_12
    2  A    between atoms: C_7  and  C_20
    3  A    between atoms: C_7  and  O_34
    4  A    between atoms: C_10  and  C_40
    5  A    between atoms: C_12  and  C_19
    6  A    between atoms: C_13  and  C_16
    7  A    between atoms: C_14  and  S_17
    8  A    between atoms: S_17  and  C_39
    9  A    between atoms: C_22  and  C_24
                            x       y       z     vdW  Elec       q    Type
                         _______ _______ _______ _____ _____    ______ ____

>  <TORSDO>
F 9

$$$$
=
 OpenBabel10222418553D

 43 48  0  0  1  0  0  0  0  0999 V2000
  186.2860  178.4270  142.7730 C   0  0  0  0  0  0  0  0  0  0  0  0
  184.0410  177.5790  139.1910 C   0  0  2  0  0  3  0  0  0  0  0  0
  182.9510  177.9920  138.4410 C   0  0  0  0  0  2  0  0  0  0  0  0
  186.7650  178.4080  141.4060 C   0  0  0  0  0  0  0  0  0  0  0  0
  182.1450  178.2440  141.1550 C   0  0  0  0  0  0  0  0  0  0  0  0
  185.4020  178.4000  145.3070 C   0  0  2  0  0  3  0  0  0  0  0  0
  182.8050  177.9750  139.9260 N   0  0  0  0  0  0  0  0  0  0  0  0
  180.8890  178.7000  141.1830 C   0  0  0  0  0  3  0  0  0  0  0  0
  185.9040  178.5300  140.4270 C   0  0  0  0  0  0  0  0  0  0  0  0
  182.9010  178.1680  142.3580 N   0  0  0  0  0  2  0  0  0  0  0  0
  185.0820  178.6450  139.4160 C   0  0  0  0  0  0  0  0  0  0  0  0
  180.2800  179.1060  142.4760 C   0  0  0  0  0  0  0  0  0  0  0  0
  183.1370  178.8790  144.5610 C   0  0  0  0  0  0  0  0  0  0  0  0
  185.9030  178.4290  143.9190 C   0  0  0  0  0  0  0  0  0  0  0  0
  180.9770  179.0960  143.5770 N   0  0  0  0  0  0  0  0  0  0  0  0
  184.0800  179.1070  145.4310 C   0  0  0  0  0  3  0  0  0  0  0  0
  185.2940  179.7580  138.4420 C   0  0  0  0  0  1  0  0  0  0  0  0
  182.3330  178.6350  143.5750 C   0  0  0  0  0  0  0  0  0  0  0  0
  178.9330  179.5600  142.4990 N   0  0  0  0  0  1  0  0  0  0  0  0
  189.1020  178.2410  142.3140 C   0  0  0  0  0  2  0  0  0  0  0  0
  188.2420  178.5330  141.1120 C   0  0  1  0  0  3  0  0  0  0  0  0
  189.7020  176.8980  141.9900 C   0  0  0  0  0  2  0  0  0  0  0  0
  189.8220  176.8190  140.5960 O   0  0  0  0  0  0  0  0  0  0  0  0
  188.6990  177.4990  140.0910 C   0  0  2  0  0  3  0  0  0  0  0  0
  189.1250  178.3500  138.5380 S   0  0  0  0  0  0  0  0  0  0  0  0
  189.7850  176.8690  137.7700 C   0  0  0  0  0  3  0  0  0  0  0  0
  191.0990  176.7510  137.5920 C   0  0  0  0  0  3  0  0  0  0  0  0
  191.6740  175.5240  136.9570 C   0  0  2  0  0  3  0  0  0  0  0  0
  191.9520  174.5750  137.9700 O   0  0  0  0  0  0  0  0  0  0  0  0
  193.0570  175.2340  137.4150 C   0  0  2  0  0  0  0  0  0  0  0  0
  193.6550  176.1030  138.3320 O   0  0  0  0  0  1  0  0  0  0  0  0
  193.9430  174.2900  136.6130 C   0  0  1  0  0  3  0  0  0  0  0  0
  195.3360  174.8820  136.4860 C   0  0  0  0  0  1  0  0  0  0  0  0
  195.2330  173.0740  137.8820 N   0  0  0  0  0  1  0  0  0  0  0  0
  194.0290  173.0560  137.2620 O   0  0  0  0  0  0  0  0  0  0  0  0
  186.4370  179.0250  146.2320 C   0  0  0  0  0  2  0  0  0  0  0  0
  188.1820  177.6300  148.0380 S   0  0  0  0  0  0  0  0  0  0  0  0
  187.6210  178.1370  146.4200 C   0  0  0  0  0  0  0  0  0  0  0  0
  189.2760  176.7490  145.7900 N   0  0  0  0  0  2  0  0  0  0  0  0
  188.2460  177.6150  145.4240 N   0  0  0  0  0  0  0  0  0  0  0  0
  189.4300  176.5640  147.2220 C   0  0  1  0  0  3  0  0  0  0  0  0
  191.7570  176.7660  146.5410 N   0  0  0  0  0  1  0  0  0  0  0  0
  190.8300  176.9770  147.6390 C   0  0  0  0  0  2  0  0  0  0  0  0
  1 14  3  0  0  0  0
  2  3  1  6  0  0  0
  2 11  1  0  0  0  0
  2  7  1  0  0  0  0
  3  7  1  0  0  0  0
  4  1  1  0  0  0  0
  5  8  2  0  0  0  0
  5 10  1  0  0  0  0
  6 16  1  0  0  0  0
  6 36  1  1  0  0  0
  7  5  1  0  0  0  0
  8 12  1  0  0  0  0
  9  4  2  0  0  0  0
 10 18  1  0  0  0  0
 11  9  2  0  0  0  0
 12 19  1  0  0  0  0
 12 15  2  0  0  0  0
 13 16  2  0  0  0  0
 14  6  1  0  0  0  0
 17 11  1  0  0  0  0
 18 15  1  0  0  0  0
 18 13  2  0  0  0  0
 21  4  1  1  0  0  0
 21 20  1  0  0  0  0
 22 20  1  0  0  0  0
 23 22  1  0  0  0  0
 24 25  1  6  0  0  0
 24 23  1  0  0  0  0
 24 21  1  0  0  0  0
 26 25  1  0  0  0  0
 27 26  2  0  0  0  0
 28 30  1  0  0  0  0
 28 27  1  1  0  0  0
 28 29  1  0  0  0  0
 30 29  1  0  0  0  0
 30 31  1  1  0  0  0
 32 33  1  1  0  0  0
 32 35  1  0  0  0  0
 32 30  1  0  0  0  0
 35 34  1  0  0  0  0
 36 38  1  0  0  0  0
 38 37  1  0  0  0  0
 39 41  1  0  0  0  0
 40 39  1  0  0  0  0
 40 38  2  0  0  0  0
 41 43  1  1  0  0  0
 41 37  1  0  0  0  0
 42 43  1  0  0  0  0
M  END
>  <MODEL>
6

>  <REMARK>
 VINA RESULT:      -7.6      4.752     10.057
  Name = 
  9 active torsions:
  status: ('A' for Active; 'I' for Inactive)
    1  A    between atoms: C_4  and  C_12
    2  A    between atoms: C_7  and  C_20
    3  A    between atoms: C_7  and  O_34
    4  A    between atoms: C_10  and  C_40
    5  A    between atoms: C_12  and  C_19
    6  A    between atoms: C_13  and  C_16
    7  A    between atoms: C_14  and  S_17
    8  A    between atoms: S_17  and  C_39
    9  A    between atoms: C_22  and  C_24
                            x       y       z     vdW  Elec       q    Type
                         _______ _______ _______ _____ _____    ______ ____

>  <TORSDO>
F 9

$$$$
=
 OpenBabel10222418553D

 43 48  0  0  1  0  0  0  0  0999 V2000
  187.0130  178.1810  142.0750 C   0  0  0  0  0  0  0  0  0  0  0  0
  187.4030  176.8820  137.9810 C   0  0  2  0  0  3  0  0  0  0  0  0
  187.0110  177.1710  136.6840 C   0  0  0  0  0  2  0  0  0  0  0  0
  188.2270  178.0440  141.2960 C   0  0  0  0  0  0  0  0  0  0  0  0
  184.7230  177.6610  138.2960 C   0  0  0  0  0  0  0  0  0  0  0  0
  184.7640  178.3730  143.5270 C   0  0  2  0  0  3  0  0  0  0  0  0
  185.9870  177.2980  137.7620 N   0  0  0  0  0  0  0  0  0  0  0  0
  183.7250  178.0650  137.5020 C   0  0  0  0  0  3  0  0  0  0  0  0
  188.1480  178.0300  139.9890 C   0  0  0  0  0  0  0  0  0  0  0  0
  184.5820  177.7390  139.7090 N   0  0  0  0  0  2  0  0  0  0  0  0
  188.1190  178.0070  138.6820 C   0  0  0  0  0  0  0  0  0  0  0  0
  182.4650  178.5740  138.1020 C   0  0  0  0  0  0  0  0  0  0  0  0
  183.4430  178.6790  141.5080 C   0  0  0  0  0  0  0  0  0  0  0  0
  186.0100  178.2820  142.7400 C   0  0  0  0  0  0  0  0  0  0  0  0
  182.3420  178.7050  139.3930 N   0  0  0  0  0  0  0  0  0  0  0  0
  183.6630  179.0330  142.7420 C   0  0  0  0  0  3  0  0  0  0  0  0
  188.9150  179.0240  137.9290 C   0  0  0  0  0  1  0  0  0  0  0  0
  183.4030  178.3030  140.2680 C   0  0  0  0  0  0  0  0  0  0  0  0
  181.3990  178.9710  137.2500 N   0  0  0  0  0  1  0  0  0  0  0  0
  189.4930  178.2460  143.4580 C   0  0  0  0  0  2  0  0  0  0  0  0
  189.5790  178.2000  141.9540 C   0  0  1  0  0  3  0  0  0  0  0  0
  190.0460  176.9090  143.8750 C   0  0  0  0  0  2  0  0  0  0  0  0
  190.9880  176.5260  142.9100 O   0  0  0  0  0  0  0  0  0  0  0  0
  190.4730  176.9960  141.6880 C   0  0  2  0  0  3  0  0  0  0  0  0
  191.8330  177.5020  140.5870 S   0  0  0  0  0  0  0  0  0  0  0  0
  191.3120  176.4210  139.2530 C   0  0  0  0  0  3  0  0  0  0  0  0
  192.0790  176.2970  138.1710 C   0  0  0  0  0  3  0  0  0  0  0  0
  191.6680  175.3980  137.0470 C   0  0  2  0  0  3  0  0  0  0  0  0
  191.4570  174.0960  137.5590 O   0  0  0  0  0  0  0  0  0  0  0  0
  192.6290  174.2900  136.8170 C   0  0  2  0  0  0  0  0  0  0  0  0
  193.7700  174.2140  137.6230 O   0  0  0  0  0  1  0  0  0  0  0  0
  192.6080  173.5230  135.5020 C   0  0  1  0  0  3  0  0  0  0  0  0
  194.0200  173.4080  134.9540 C   0  0  0  0  0  1  0  0  0  0  0  0
  193.1820  171.4600  135.9160 N   0  0  0  0  0  1  0  0  0  0  0  0
  192.0940  172.2410  135.7100 O   0  0  0  0  0  0  0  0  0  0  0  0
  185.0350  179.1320  144.8180 C   0  0  0  0  0  2  0  0  0  0  0  0
  186.4340  178.9900  147.3240 S   0  0  0  0  0  0  0  0  0  0  0  0
  186.0250  178.4220  145.6810 C   0  0  0  0  0  0  0  0  0  0  0  0
  187.4050  176.7520  146.2870 N   0  0  0  0  0  2  0  0  0  0  0  0
  186.5680  177.3110  145.3230 N   0  0  0  0  0  0  0  0  0  0  0  0
  187.4810  177.5000  147.5300 C   0  0  1  0  0  3  0  0  0  0  0  0
  189.8180  176.8490  147.3440 N   0  0  0  0  0  1  0  0  0  0  0  0
  188.9220  177.9000  147.7930 C   0  0  0  0  0  2  0  0  0  0  0  0
  1 14  3  0  0  0  0
  2  3  1  6  0  0  0
  2 11  1  0  0  0  0
  3  7  1  0  0  0  0
  4  1  1  0  0  0  0
  5 10  1  0  0  0  0
  6 36  1  1  0  0  0
  7  2  1  0  0  0  0
  7  5  1  0  0  0  0
  8 12  1  0  0  0  0
  8  5  2  0  0  0  0
  9  4  2  0  0  0  0
 10 18  1  0  0  0  0
 11  9  2  0  0  0  0
 12 15  2  0  0  0  0
 13 16  2  0  0  0  0
 14  6  1  0  0  0  0
 15 18  1  0  0  0  0
 16  6  1  0  0  0  0
 17 11  1  0  0  0  0
 18 13  2  0  0  0  0
 19 12  1  0  0  0  0
 20 22  1  0  0  0  0
 21  4  1  6  0  0  0
 21 20  1  0  0  0  0
 23 22  1  0  0  0  0
 24 25  1  6  0  0  0
 24 21  1  0  0  0  0
 24 23  1  0  0  0  0
 26 25  1  0  0  0  0
 27 26  2  0  0  0  0
 28 29  1  0  0  0  0
 28 27  1  1  0  0  0
 30 28  1  0  0  0  0
 30 29  1  0  0  0  0
 30 31  1  1  0  0  0
 32 33  1  1  0  0  0
 32 35  1  0  0  0  0
 32 30  1  0  0  0  0
 35 34  1  0  0  0  0
 36 38  1  0  0  0  0
 37 41  1  0  0  0  0
 38 37  1  0  0  0  0
 39 41  1  0  0  0  0
 40 38  2  0  0  0  0
 40 39  1  0  0  0  0
 41 43  1  6  0  0  0
 42 43  1  0  0  0  0
M  END
>  <MODEL>
7

>  <REMARK>
 VINA RESULT:      -7.5      4.587     10.265
  Name = 
  9 active torsions:
  status: ('A' for Active; 'I' for Inactive)
    1  A    between atoms: C_4  and  C_12
    2  A    between atoms: C_7  and  C_20
    3  A    between atoms: C_7  and  O_34
    4  A    between atoms: C_10  and  C_40
    5  A    between atoms: C_12  and  C_19
    6  A    between atoms: C_13  and  C_16
    7  A    between atoms: C_14  and  S_17
    8  A    between atoms: S_17  and  C_39
    9  A    between atoms: C_22  and  C_24
                            x       y       z     vdW  Elec       q    Type
                         _______ _______ _______ _____ _____    ______ ____

>  <TORSDO>
F 9

$$$$
=
 OpenBabel10222418553D

 43 48  0  0  1  0  0  0  0  0999 V2000
  187.2820  178.5240  141.3760 C   0  0  0  0  0  0  0  0  0  0  0  0
  191.0230  178.5920  143.5200 C   0  0  2  0  0  3  0  0  0  0  0  0
  191.7150  177.9950  144.5610 C   0  0  0  0  0  2  0  0  0  0  0  0
  188.6150  178.3180  140.8470 C   0  0  0  0  0  0  0  0  0  0  0  0
  189.0260  178.2020  145.4570 C   0  0  0  0  0  0  0  0  0  0  0  0
  184.8230  178.9690  142.3550 C   0  0  2  0  0  3  0  0  0  0  0  0
  190.2640  178.2740  144.7640 N   0  0  0  0  0  0  0  0  0  0  0  0
  188.9520  177.6960  146.6920 C   0  0  0  0  0  2  0  0  0  0  0  0
  189.5800  177.9770  141.6640 C   0  0  0  0  0  0  0  0  0  0  0  0
  187.8360  178.5330  144.7510 N   0  0  0  0  0  0  0  0  0  0  0  0
  190.5760  177.6390  142.4420 C   0  0  0  0  0  0  0  0  0  0  0  0
  187.6240  177.5020  147.3310 C   0  0  0  0  0  0  0  0  0  0  0  0
  185.5340  178.2480  144.5670 C   0  0  0  0  0  0  0  0  0  0  0  0
  186.1670  178.7120  141.8020 C   0  0  0  0  0  0  0  0  0  0  0  0
  186.5230  177.7480  146.6770 N   0  0  0  0  0  0  0  0  0  0  0  0
  184.6100  178.2300  143.6490 C   0  0  0  0  0  3  0  0  0  0  0  0
  191.3220  176.3780  142.1450 C   0  0  0  0  0  1  0  0  0  0  0  0
  186.5710  178.2680  145.3430 C   0  0  0  0  0  0  0  0  0  0  0  0
  187.5570  176.9930  148.6560 N   0  0  0  0  0  1  0  0  0  0  0  0
  190.1610  177.5840  139.0070 C   0  0  0  0  0  2  0  0  0  0  0  0
  188.8380  178.2160  139.3560 C   0  0  1  0  0  3  0  0  0  0  0  0
  189.7680  176.2240  138.4950 C   0  0  0  0  0  2  0  0  0  0  0  0
  188.5010  176.3480  137.9090 O   0  0  0  0  0  0  0  0  0  0  0  0
  187.8210  177.2920  138.6990 C   0  0  2  0  0  3  0  0  0  0  0  0
  186.7020  178.2880  137.6630 S   0  0  0  0  0  0  0  0  0  0  0  0
  186.1680  176.8830  136.6830 C   0  0  0  0  0  3  0  0  0  0  0  0
  184.9460  176.3840  136.8600 C   0  0  0  0  0  3  0  0  0  0  0  0
  184.4770  175.2150  136.0520 C   0  0  2  0  0  3  0  0  0  0  0  0
  183.0950  175.3690  135.7890 O   0  0  0  0  0  0  0  0  0  0  0  0
  183.4420  174.4120  136.7510 C   0  0  2  0  0  0  0  0  0  0  0  0
  183.0450  174.8010  138.0350 O   0  0  0  0  0  1  0  0  0  0  0  0
  183.1340  172.9950  136.2870 C   0  0  1  0  0  3  0  0  0  0  0  0
  183.7980  171.9960  137.2180 C   0  0  0  0  0  1  0  0  0  0  0  0
  181.5670  171.7680  137.1800 N   0  0  0  0  0  1  0  0  0  0  0  0
  181.7530  172.7820  136.3010 O   0  0  0  0  0  0  0  0  0  0  0  0
  183.7690  178.5750  141.3300 C   0  0  0  0  0  2  0  0  0  0  0  0
  180.9840  178.9170  140.7140 S   0  0  0  0  0  0  0  0  0  0  0  0
  182.3890  178.8650  141.8160 C   0  0  0  0  0  0  0  0  0  0  0  0
  180.7670  179.1900  143.3410 N   0  0  0  0  0  2  0  0  0  0  0  0
  182.1210  179.0030  143.0670 N   0  0  0  0  0  0  0  0  0  0  0  0
  179.9030  179.1550  142.1740 C   0  0  1  0  0  3  0  0  0  0  0  0
  179.6780  181.2530  140.9630 N   0  0  0  0  0  1  0  0  0  0  0  0
  179.1490  180.4670  142.0640 C   0  0  0  0  0  2  0  0  0  0  0  0
  1 14  3  0  0  0  0
  2  3  1  1  0  0  0
  2  7  1  0  0  0  0
  3  7  1  0  0  0  0
  4  1  1  0  0  0  0
  4  9  2  0  0  0  0
  5  8  1  0  0  0  0
  6 36  1  6  0  0  0
  6 16  1  0  0  0  0
  7  5  1  0  0  0  0
  8 12  1  0  0  0  0
  9 11  2  0  0  0  0
 10 18  1  0  0  0  0
 10  5  2  0  0  0  0
 11  2  1  0  0  0  0
 12 19  1  0  0  0  0
 13 18  2  0  0  0  0
 14  6  1  0  0  0  0
 15 12  2  0  0  0  0
 16 13  2  0  0  0  0
 17 11  1  0  0  0  0
 18 15  1  0  0  0  0
 20 21  1  0  0  0  0
 21  4  1  1  0  0  0
 22 20  1  0  0  0  0
 23 22  1  0  0  0  0
 23 24  1  0  0  0  0
 24 25  1  6  0  0  0
 24 21  1  0  0  0  0
 26 27  2  0  0  0  0
 26 25  1  0  0  0  0
 28 30  1  0  0  0  0
 28 27  1  1  0  0  0
 29 28  1  0  0  0  0
 29 30  1  0  0  0  0
 30 31  1  1  0  0  0
 32 35  1  0  0  0  0
 32 30  1  0  0  0  0
 32 33  1  1  0  0  0
 35 34  1  0  0  0  0
 36 38  1  0  0  0  0
 37 38  1  0  0  0  0
 37 41  1  0  0  0  0
 38 40  2  0  0  0  0
 40 39  1  0  0  0  0
 41 43  1  6  0  0  0
 41 39  1  0  0  0  0
 42 43  1  0  0  0  0
M  END
>  <MODEL>
8

>  <REMARK>
 VINA RESULT:      -7.5      3.755      7.097
  Name = 
  9 active torsions:
  status: ('A' for Active; 'I' for Inactive)
    1  A    between atoms: C_4  and  C_12
    2  A    between atoms: C_7  and  C_20
    3  A    between atoms: C_7  and  O_34
    4  A    between atoms: C_10  and  C_40
    5  A    between atoms: C_12  and  C_19
    6  A    between atoms: C_13  and  C_16
    7  A    between atoms: C_14  and  S_17
    8  A    between atoms: S_17  and  C_39
    9  A    between atoms: C_22  and  C_24
                            x       y       z     vdW  Elec       q    Type
                         _______ _______ _______ _____ _____    ______ ____

>  <TORSDO>
F 9

$$$$
=
 OpenBabel10222418553D

 43 48  0  0  1  0  0  0  0  0999 V2000
  187.9470  178.2620  140.3450 C   0  0  0  0  0  0  0  0  0  0  0  0
  185.1880  179.3360  143.4800 C   0  0  2  0  0  3  0  0  0  0  0  0
  183.9670  179.0020  144.0450 C   0  0  0  0  0  2  0  0  0  0  0  0
  188.1930  178.3000  141.7720 C   0  0  0  0  0  0  0  0  0  0  0  0
  183.6120  178.7050  141.2420 C   0  0  0  0  0  0  0  0  0  0  0  0
  187.5000  178.2530  137.6990 C   0  0  2  0  0  3  0  0  0  0  0  0
  184.0710  178.9790  142.5570 N   0  0  0  0  0  0  0  0  0  0  0  0
  182.3540  178.3120  141.0140 C   0  0  0  0  0  2  0  0  0  0  0  0
  187.1760  178.2530  142.5960 C   0  0  0  0  0  0  0  0  0  0  0  0
  184.5590  178.7050  140.1810 N   0  0  0  0  0  0  0  0  0  0  0  0
  186.1910  178.2130  143.4570 C   0  0  0  0  0  0  0  0  0  0  0  0
  181.9470  177.8970  139.6470 C   0  0  0  0  0  0  0  0  0  0  0  0
  185.1190  177.9120  138.0650 C   0  0  0  0  0  0  0  0  0  0  0  0
  187.7610  178.2430  139.1510 C   0  0  0  0  0  0  0  0  0  0  0  0
  182.8170  177.8360  138.6780 N   0  0  0  0  0  0  0  0  0  0  0  0
  186.1790  177.6100  137.3710 C   0  0  0  0  0  3  0  0  0  0  0  0
  186.1770  177.1210  144.4780 C   0  0  0  0  0  1  0  0  0  0  0  0
  184.1770  178.2280  138.8970 C   0  0  0  0  0  0  0  0  0  0  0  0
  180.6000  177.5100  139.4090 N   0  0  0  0  0  1  0  0  0  0  0  0
  189.6080  177.7840  143.7840 C   0  0  0  0  0  2  0  0  0  0  0  0
  189.5910  178.1110  142.3130 C   0  0  1  0  0  3  0  0  0  0  0  0
  189.9830  176.3260  143.8080 C   0  0  0  0  0  2  0  0  0  0  0  0
  190.7950  176.0850  142.6920 O   0  0  0  0  0  0  0  0  0  0  0  0
  190.2800  176.9100  141.6770 C   0  0  2  0  0  3  0  0  0  0  0  0
  191.6280  177.5030  140.6040 S   0  0  0  0  0  0  0  0  0  0  0  0
  191.1880  176.4120  139.2500 C   0  0  0  0  0  3  0  0  0  0  0  0
  192.0280  176.2620  138.2270 C   0  0  0  0  0  3  0  0  0  0  0  0
  191.6850  175.3550  137.0880 C   0  0  2  0  0  3  0  0  0  0  0  0
  191.4520  174.0540  137.5950 O   0  0  0  0  0  0  0  0  0  0  0  0
  192.6630  174.2500  136.9190 C   0  0  2  0  0  0  0  0  0  0  0  0
  193.7580  174.1850  137.7870 O   0  0  0  0  0  1  0  0  0  0  0  0
  192.7190  173.4760  135.6080 C   0  0  1  0  0  3  0  0  0  0  0  0
  194.1240  173.5420  135.0350 C   0  0  0  0  0  1  0  0  0  0  0  0
  191.4210  171.8640  134.9200 N   0  0  0  0  0  1  0  0  0  0  0  0
  192.3820  172.1390  135.8350 O   0  0  0  0  0  0  0  0  0  0  0  0
  188.6370  177.5470  136.9750 C   0  0  0  0  0  2  0  0  0  0  0  0
  187.9300  175.8830  134.7410 S   0  0  0  0  0  0  0  0  0  0  0  0
  188.2250  176.2030  136.4740 C   0  0  0  0  0  0  0  0  0  0  0  0
  187.8270  173.9920  136.5950 N   0  0  0  0  0  2  0  0  0  0  0  0
  188.1490  175.1790  137.2510 N   0  0  0  0  0  0  0  0  0  0  0  0
  187.6760  174.1160  135.1560 C   0  0  1  0  0  3  0  0  0  0  0  0
  185.3450  174.7740  134.9240 N   0  0  0  0  0  1  0  0  0  0  0  0
  186.2800  173.6760  134.7540 C   0  0  0  0  0  2  0  0  0  0  0  0
  1  4  1  0  0  0  0
  2  3  1  1  0  0  0
  4  9  2  0  0  0  0
  5  7  1  0  0  0  0
  6 36  1  6  0  0  0
  6 14  1  0  0  0  0
  7  2  1  0  0  0  0
  7  3  1  0  0  0  0
  8  5  1  0  0  0  0
  9 11  2  0  0  0  0
 10  5  2  0  0  0  0
 11  2  1  0  0  0  0
 11 17  1  0  0  0  0
 12  8  1  0  0  0  0
 13 18  2  0  0  0  0
 14  1  3  0  0  0  0
 15 18  1  0  0  0  0
 15 12  2  0  0  0  0
 16  6  1  0  0  0  0
 16 13  2  0  0  0  0
 18 10  1  0  0  0  0
 19 12  1  0  0  0  0
 20 22  1  0  0  0  0
 21  4  1  6  0  0  0
 21 20  1  0  0  0  0
 23 22  1  0  0  0  0
 24 25  1  6  0  0  0
 24 21  1  0  0  0  0
 24 23  1  0  0  0  0
 26 25  1  0  0  0  0
 27 26  2  0  0  0  0
 28 29  1  0  0  0  0
 28 27  1  1  0  0  0
 30 28  1  0  0  0  0
 30 29  1  0  0  0  0
 30 31  1  1  0  0  0
 32 33  1  1  0  0  0
 32 35  1  0  0  0  0
 32 30  1  0  0  0  0
 34 35  1  0  0  0  0
 37 41  1  0  0  0  0
 37 38  1  0  0  0  0
 38 36  1  0  0  0  0
 38 40  2  0  0  0  0
 39 40  1  0  0  0  0
 41 43  1  1  0  0  0
 41 39  1  0  0  0  0
 43 42  1  0  0  0  0
M  END
>  <MODEL>
9

>  <REMARK>
 VINA RESULT:      -7.5      5.052      8.607
  Name = 
  9 active torsions:
  status: ('A' for Active; 'I' for Inactive)
    1  A    between atoms: C_4  and  C_12
    2  A    between atoms: C_7  and  C_20
    3  A    between atoms: C_7  and  O_34
    4  A    between atoms: C_10  and  C_40
    5  A    between atoms: C_12  and  C_19
    6  A    between atoms: C_13  and  C_16
    7  A    between atoms: C_14  and  S_17
    8  A    between atoms: S_17  and  C_39
    9  A    between atoms: C_22  and  C_24
                            x       y       z     vdW  Elec       q    Type
                         _______ _______ _______ _____ _____    ______ ____

>  <TORSDO>
F 9

$$$$
