=
 OpenBabel10222417493D

 53 60  0  0  1  0  0  0  0  0999 V2000
  184.3970  179.1070  141.5400 C   0  0  0  0  0  0  0  0  0  0  0  0
  181.4020  178.9180  141.4220 C   0  0  0  0  0  0  0  0  0  0  0  0
  183.6490  178.7630  142.6330 C   0  0  0  0  0  0  0  0  0  0  0  0
  182.2350  179.3590  140.3260 C   0  0  0  0  0  0  0  0  0  0  0  0
  182.8040  178.4640  143.7410 C   0  0  0  0  0  2  0  0  0  0  0  0
  183.6200  179.4540  140.4480 N   0  0  0  0  0  0  0  0  0  0  0  0
  182.2070  178.6890  142.5170 C   0  0  0  0  0  0  0  0  0  0  0  0
  186.3300  178.8380  140.1070 N   0  0  0  0  0  0  0  0  0  0  0  0
  187.8570  178.1250  141.4700 N   0  0  0  0  0  0  0  0  0  0  0  0
  186.7000  178.2530  142.2320 C   0  0  0  0  0  3  0  0  0  0  0  0
  185.7650  178.7140  141.3400 C   0  0  0  0  0  0  0  0  0  0  0  0
  187.5890  178.4790  140.2700 N   0  0  0  0  0  0  0  0  0  0  0  0
  189.0990  178.3270  142.0510 N   0  0  0  0  0  2  0  0  0  0  0  0
  190.4360  177.2540  141.8700 S   0  0  0  0  0  0  0  0  0  0  0  0
  190.0230  175.8070  142.0190 O   0  0  0  0  0  0  0  0  0  0  0  0
  191.0920  177.5170  140.5390 O   0  0  0  0  0  0  0  0  0  0  0  0
  190.6110  177.5960  144.9990 N   0  0  0  0  0  0  0  0  0  0  0  0
  191.5430  177.7100  143.2380 C   0  0  2  0  0  3  0  0  0  0  0  0
  192.0520  175.5890  144.4820 O   0  0  0  0  0  0  0  0  0  0  0  0
  191.4940  176.6540  144.2780 C   0  0  0  0  0  0  0  0  0  0  0  0
  190.9780  178.5760  144.1320 O   0  0  0  0  0  0  0  0  0  0  0  0
  189.8020  177.1810  147.4740 S   0  0  0  0  0  0  0  0  0  0  0  0
  189.5060  177.3450  145.8790 C   0  0  0  0  0  0  0  0  0  0  0  0
  188.1080  177.4480  145.3710 C   0  0  0  0  0  2  0  0  0  0  0  0
  187.1470  177.9890  146.4330 C   0  0  0  0  0  2  0  0  0  0  0  0
  184.8780  178.0090  147.0220 C   0  0  0  0  0  1  0  0  0  0  0  0
  185.6590  179.5640  145.4970 C   0  0  0  0  0  1  0  0  0  0  0  0
  185.7940  178.1710  145.9050 N   0  0  0  0  0  0  0  0  0  0  0  0
  181.7520  179.2850  138.9470 C   0  0  2  0  0  3  0  0  0  0  0  0
  182.9470  179.2070  138.1140 C   0  0  0  0  0  2  0  0  0  0  0  0
  182.1210  180.4260  138.1350 N   0  0  0  0  0  2  0  0  0  0  0  0
  179.9140  178.5790  141.4860 C   0  0  0  0  0  2  0  0  0  0  0  0
  179.5830  177.1380  141.0800 C   0  0  0  0  0  2  0  0  0  0  0  0
  180.0370  176.6660  139.6960 C   0  0  2  0  0  3  0  0  0  0  0  0
  182.1090  175.7890  138.6110 C   0  0  0  0  0  2  0  0  0  0  0  0
  178.9330  176.2260  138.7460 C   0  0  0  0  0  2  0  0  0  0  0  0
  180.2750  175.2890  136.7980 C   0  0  0  0  0  2  0  0  0  0  0  0
  179.5220  176.5070  137.3520 C   0  0  0  0  0  2  0  0  0  0  0  0
  181.7230  175.1090  137.3170 C   0  0  2  0  0  3  0  0  0  0  0  0
  181.1930  175.6530  139.8220 C   0  0  0  0  0  2  0  0  0  0  0  0
  181.3410  170.4660  135.1150 N   0  0  0  0  0  1  0  0  0  0  0  0
  184.1810  171.9620  137.1680 C   0  0  0  0  0  2  0  0  0  0  0  0
  183.0830  170.9800  136.6730 C   0  0  0  0  0  2  0  0  0  0  0  0
  182.3190  173.6930  137.0400 C   0  0  2  0  0  3  0  0  0  0  0  0
  183.8550  173.4580  137.0270 C   0  0  2  0  0  3  0  0  0  0  0  0
  182.2400  171.5380  135.5700 C   0  0  2  0  0  3  0  0  0  0  0  0
  181.4910  172.8580  136.0280 C   0  0  0  0  0  2  0  0  0  0  0  0
  187.1530  174.8650  135.5030 S   0  0  0  0  0  0  0  0  0  0  0  0
  185.4990  175.0590  136.1160 C   0  0  0  0  0  0  0  0  0  0  0  0
  187.6500  176.1350  136.6910 C   0  0  0  0  0  2  0  0  0  0  0  0
  184.5430  174.0340  135.8720 N   0  0  0  0  0  2  0  0  0  0  0  0
  186.4140  176.9370  137.0840 C   0  0  0  0  0  2  0  0  0  0  0  0
  185.2610  176.0620  136.9010 N   0  0  0  0  0  0  0  0  0  0  0  0
  1  3  1  0  0  0  0
  2 32  1  0  0  0  0
  2  7  1  0  0  0  0
  3  5  1  0  0  0  0
  4  6  1  0  0  0  0
  4  2  2  0  0  0  0
  6  1  2  0  0  0  0
  7  3  2  0  0  0  0
  7  5  1  0  0  0  0
  8 12  2  0  0  0  0
  8 11  1  0  0  0  0
  9 13  1  0  0  0  0
  9 10  1  0  0  0  0
 11  1  1  0  0  0  0
 11 10  2  0  0  0  0
 12  9  1  0  0  0  0
 14 15  2  0  0  0  0
 14 13  1  0  0  0  0
 16 14  2  0  0  0  0
 17 23  1  0  0  0  0
 18 14  1  6  0  0  0
 18 21  1  0  0  0  0
 18 20  1  0  0  0  0
 20 19  2  0  0  0  0
 20 17  1  0  0  0  0
 21 17  1  0  0  0  0
 23 22  2  0  0  0  0
 24 23  1  0  0  0  0
 24 25  1  0  0  0  0
 27 28  1  0  0  0  0
 28 25  1  0  0  0  0
 28 26  1  0  0  0  0
 29  4  1  1  0  0  0
 30 31  1  0  0  0  0
 30 29  1  0  0  0  0
 31 29  1  0  0  0  0
 33 32  1  0  0  0  0
 34 40  1  0  0  0  0
 34 33  1  1  0  0  0
 35 40  1  0  0  0  0
 36 34  1  0  0  0  0
 37 38  1  0  0  0  0
 38 36  1  0  0  0  0
 39 37  1  1  0  0  0
 39 35  1  0  0  0  0
 43 42  1  0  0  0  0
 44 47  1  6  0  0  0
 44 39  1  0  0  0  0
 45 51  1  6  0  0  0
 45 44  1  0  0  0  0
 45 42  1  0  0  0  0
 46 41  1  1  0  0  0
 46 47  1  0  0  0  0
 46 43  1  0  0  0  0
 48 49  1  0  0  0  0
 48 50  1  0  0  0  0
 49 53  2  0  0  0  0
 50 52  1  0  0  0  0
 51 49  1  0  0  0  0
 53 52  1  0  0  0  0
M  END
>  <MODEL>
1

>  <REMARK>
 VINA RESULT:      -8.0      0.000      0.000
  Name = 
  14 active torsions:
  status: ('A' for Active; 'I' for Inactive)
    1  A    between atoms: C_3  and  C_35
    2  A    between atoms: C_4  and  C_24
    3  A    between atoms: C_5  and  C_24
    4  A    between atoms: C_5  and  C_26
    5  A    between atoms: N_6  and  N_10
    6  A    between atoms: S_9  and  N_10
    7  A    between atoms: S_9  and  C_31
    8  A    between atoms: C_13  and  C_28
    9  A    between atoms: C_17  and  C_51
   10  A    between atoms: N_19  and  C_30
   11  A    between atoms: N_27  and  C_33
   12  A    between atoms: C_33  and  C_40
   13  A    between atoms: C_40  and  C_47
   14  A    between atoms: N_46  and  C_47
                            x       y       z     vdW  Elec       q    Type
                         _______ _______ _______ _____ _____    ______ ____

>  <TORSDO>
F 14

$$$$
=
 OpenBabel10222417493D

 53 60  0  0  1  0  0  0  0  0999 V2000
  182.7230  177.9540  138.8970 C   0  0  0  0  0  0  0  0  0  0  0  0
  182.2170  178.7580  141.7470 C   0  0  0  0  0  0  0  0  0  0  0  0
  183.7450  178.1770  139.7800 C   0  0  0  0  0  0  0  0  0  0  0  0
  181.1830  178.5930  140.7490 C   0  0  0  0  0  0  0  0  0  0  0  0
  184.7570  178.4780  140.7360 C   0  0  0  0  0  2  0  0  0  0  0  0
  181.4800  178.2460  139.4330 N   0  0  0  0  0  0  0  0  0  0  0  0
  183.4410  178.5640  141.1420 C   0  0  0  0  0  0  0  0  0  0  0  0
  183.4750  177.5060  136.6400 N   0  0  0  0  0  0  0  0  0  0  0  0
  182.8310  175.4640  136.3030 N   0  0  0  0  0  0  0  0  0  0  0  0
  182.3810  175.7970  137.5770 C   0  0  0  0  0  3  0  0  0  0  0  0
  182.8160  177.0870  137.7550 C   0  0  0  0  0  0  0  0  0  0  0  0
  183.4530  176.4730  135.8200 N   0  0  0  0  0  0  0  0  0  0  0  0
  183.1820  174.1560  136.0090 N   0  0  0  0  0  2  0  0  0  0  0  0
  184.7920  173.6410  135.6680 S   0  0  0  0  0  0  0  0  0  0  0  0
  184.8470  172.1800  135.2810 O   0  0  0  0  0  0  0  0  0  0  0  0
  185.3670  174.5280  134.5940 O   0  0  0  0  0  0  0  0  0  0  0  0
  187.6400  173.9900  136.9740 N   0  0  0  0  0  0  0  0  0  0  0  0
  185.6660  173.8810  137.2430 C   0  0  2  0  0  3  0  0  0  0  0  0
  186.5240  176.2410  137.2310 O   0  0  0  0  0  0  0  0  0  0  0  0
  186.5960  175.0280  137.1160 C   0  0  0  0  0  0  0  0  0  0  0  0
  186.7460  173.0580  137.3990 O   0  0  0  0  0  0  0  0  0  0  0  0
  189.1720  172.7230  135.2420 S   0  0  0  0  0  0  0  0  0  0  0  0
  188.8560  173.9950  136.2130 C   0  0  0  0  0  0  0  0  0  0  0  0
  189.6960  175.2250  136.1520 C   0  0  0  0  0  2  0  0  0  0  0  0
  191.1220  174.9760  136.6500 C   0  0  0  0  0  2  0  0  0  0  0  0
  193.0890  176.2310  136.8820 C   0  0  0  0  0  1  0  0  0  0  0  0
  192.8320  174.8730  135.0270 C   0  0  0  0  0  1  0  0  0  0  0  0
  192.1060  175.7720  135.9150 N   0  0  0  0  0  0  0  0  0  0  0  0
  179.8000  178.3310  141.1480 C   0  0  2  0  0  3  0  0  0  0  0  0
  179.7080  176.8870  141.3260 C   0  0  0  0  0  2  0  0  0  0  0  0
  179.0510  177.5490  140.1860 N   0  0  0  0  0  2  0  0  0  0  0  0
  182.1390  178.9680  143.2570 C   0  0  0  0  0  2  0  0  0  0  0  0
  183.3330  179.7290  143.8450 C   0  0  0  0  0  2  0  0  0  0  0  0
  184.4310  178.9130  144.5320 C   0  0  2  0  0  3  0  0  0  0  0  0
  186.3920  177.5070  143.8860 C   0  0  0  0  0  2  0  0  0  0  0  0
  184.7240  179.2750  145.9810 C   0  0  0  0  0  2  0  0  0  0  0  0
  186.7740  177.8470  146.4630 C   0  0  0  0  0  2  0  0  0  0  0  0
  185.2460  177.9590  146.5840 C   0  0  0  0  0  2  0  0  0  0  0  0
  187.2990  177.3660  145.0890 C   0  0  2  0  0  3  0  0  0  0  0  0
  185.6880  178.8360  143.6420 C   0  0  0  0  0  2  0  0  0  0  0  0
  192.1910  176.4900  146.4480 N   0  0  0  0  0  1  0  0  0  0  0  0
  190.7950  178.5940  143.5930 C   0  0  0  0  0  2  0  0  0  0  0  0
  191.6120  178.1720  144.8470 C   0  0  0  0  0  2  0  0  0  0  0  0
  188.8250  177.6170  144.8740 C   0  0  2  0  0  3  0  0  0  0  0  0
  189.3890  177.9850  143.4740 C   0  0  2  0  0  3  0  0  0  0  0  0
  191.2590  176.8100  145.3550 C   0  0  2  0  0  3  0  0  0  0  0  0
  189.7310  176.7240  145.7630 C   0  0  0  0  0  2  0  0  0  0  0  0
  190.4170  176.6500  139.9620 S   0  0  0  0  0  0  0  0  0  0  0  0
  189.2120  177.2090  141.1370 C   0  0  0  0  0  0  0  0  0  0  0  0
  189.7780  177.9120  138.8350 C   0  0  0  0  0  2  0  0  0  0  0  0
  189.3780  176.8840  142.5120 N   0  0  0  0  0  2  0  0  0  0  0  0
  188.3730  178.2940  139.2870 C   0  0  0  0  0  2  0  0  0  0  0  0
  188.2980  178.0290  140.7200 N   0  0  0  0  0  0  0  0  0  0  0  0
  1  6  2  0  0  0  0
  1  3  1  0  0  0  0
  2 32  1  0  0  0  0
  3  5  1  0  0  0  0
  3  7  2  0  0  0  0
  4  2  2  0  0  0  0
  5  7  1  0  0  0  0
  6  4  1  0  0  0  0
  7  2  1  0  0  0  0
  8 11  1  0  0  0  0
  9 10  1  0  0  0  0
 10 11  2  0  0  0  0
 11  1  1  0  0  0  0
 12  9  1  0  0  0  0
 12  8  2  0  0  0  0
 13  9  1  0  0  0  0
 14 13  1  0  0  0  0
 15 14  2  0  0  0  0
 16 14  2  0  0  0  0
 17 20  1  0  0  0  0
 17 21  1  0  0  0  0
 18 14  1  6  0  0  0
 18 21  1  0  0  0  0
 20 19  2  0  0  0  0
 20 18  1  0  0  0  0
 22 23  2  0  0  0  0
 23 17  1  0  0  0  0
 24 23  1  0  0  0  0
 24 25  1  0  0  0  0
 27 28  1  0  0  0  0
 28 25  1  0  0  0  0
 28 26  1  0  0  0  0
 29  4  1  6  0  0  0
 29 30  1  0  0  0  0
 31 29  1  0  0  0  0
 31 30  1  0  0  0  0
 32 33  1  0  0  0  0
 34 33  1  6  0  0  0
 34 36  1  0  0  0  0
 36 38  1  0  0  0  0
 37 38  1  0  0  0  0
 39 35  1  6  0  0  0
 39 37  1  0  0  0  0
 40 35  1  0  0  0  0
 40 34  1  0  0  0  0
 42 43  1  0  0  0  0
 43 46  1  0  0  0  0
 44 39  1  0  0  0  0
 44 47  1  6  0  0  0
 45 51  1  6  0  0  0
 45 42  1  0  0  0  0
 45 44  1  0  0  0  0
 46 47  1  0  0  0  0
 46 41  1  1  0  0  0
 48 49  1  0  0  0  0
 49 51  1  0  0  0  0
 50 52  1  0  0  0  0
 50 48  1  0  0  0  0
 52 53  1  0  0  0  0
 53 49  2  0  0  0  0
M  END
>  <MODEL>
2

>  <REMARK>
 VINA RESULT:      -7.9      3.159      8.774
  Name = 
  14 active torsions:
  status: ('A' for Active; 'I' for Inactive)
    1  A    between atoms: C_3  and  C_35
    2  A    between atoms: C_4  and  C_24
    3  A    between atoms: C_5  and  C_24
    4  A    between atoms: C_5  and  C_26
    5  A    between atoms: N_6  and  N_10
    6  A    between atoms: S_9  and  N_10
    7  A    between atoms: S_9  and  C_31
    8  A    between atoms: C_13  and  C_28
    9  A    between atoms: C_17  and  C_51
   10  A    between atoms: N_19  and  C_30
   11  A    between atoms: N_27  and  C_33
   12  A    between atoms: C_33  and  C_40
   13  A    between atoms: C_40  and  C_47
   14  A    between atoms: N_46  and  C_47
                            x       y       z     vdW  Elec       q    Type
                         _______ _______ _______ _____ _____    ______ ____

>  <TORSDO>
F 14

$$$$
=
 OpenBabel10222417493D

 53 60  0  0  1  0  0  0  0  0999 V2000
  183.2610  178.6230  142.6990 C   0  0  0  0  0  0  0  0  0  0  0  0
  181.6650  179.1550  140.2100 C   0  0  0  0  0  0  0  0  0  0  0  0
  183.8560  178.7900  141.4780 C   0  0  0  0  0  0  0  0  0  0  0  0
  181.0880  178.8860  141.5080 C   0  0  0  0  0  0  0  0  0  0  0  0
  184.4030  178.9190  140.1690 C   0  0  0  0  0  2  0  0  0  0  0  0
  181.8780  178.6170  142.6230 N   0  0  0  0  0  0  0  0  0  0  0  0
  183.0360  179.0420  140.3120 C   0  0  0  0  0  0  0  0  0  0  0  0
  183.2230  178.6910  145.1190 N   0  0  0  0  0  0  0  0  0  0  0  0
  185.2320  179.3310  145.6240 N   0  0  0  0  0  0  0  0  0  0  0  0
  185.1770  179.3190  144.2330 C   0  0  0  0  0  3  0  0  0  0  0  0
  183.9000  178.9010  143.9560 C   0  0  0  0  0  0  0  0  0  0  0  0
  184.0940  178.9570  146.0740 N   0  0  0  0  0  0  0  0  0  0  0  0
  186.4230  179.0540  146.2750 N   0  0  0  0  0  2  0  0  0  0  0  0
  187.4740  177.7530  145.8540 S   0  0  0  0  0  0  0  0  0  0  0  0
  186.7520  176.6710  145.0820 O   0  0  0  0  0  0  0  0  0  0  0  0
  188.6450  178.3060  145.0830 O   0  0  0  0  0  0  0  0  0  0  0  0
  189.9670  176.7070  147.4750 N   0  0  0  0  0  0  0  0  0  0  0  0
  188.0100  177.0940  147.4610 C   0  0  2  0  0  3  0  0  0  0  0  0
  189.3580  178.9030  148.5620 O   0  0  0  0  0  0  0  0  0  0  0  0
  189.1790  177.8680  147.9410 C   0  0  0  0  0  0  0  0  0  0  0  0
  188.8160  175.9940  147.3580 O   0  0  0  0  0  0  0  0  0  0  0  0
  192.4310  175.8050  147.7330 S   0  0  0  0  0  0  0  0  0  0  0  0
  191.2910  176.6440  146.9250 C   0  0  0  0  0  0  0  0  0  0  0  0
  191.5520  177.1490  145.5470 C   0  0  0  0  0  2  0  0  0  0  0  0
  191.3500  176.0650  144.4860 C   0  0  0  0  0  2  0  0  0  0  0  0
  190.2650  176.2970  142.4210 C   0  0  0  0  0  1  0  0  0  0  0  0
  191.5540  178.0450  143.2180 C   0  0  0  0  0  1  0  0  0  0  0  0
  191.4990  176.5910  143.1280 N   0  0  0  0  0  0  0  0  0  0  0  0
  179.7260  179.3210  141.8200 C   0  0  2  0  0  3  0  0  0  0  0  0
  179.7980  179.9170  143.1500 C   0  0  0  0  0  2  0  0  0  0  0  0
  179.1290  178.6210  142.9390 N   0  0  0  0  0  2  0  0  0  0  0  0
  181.0350  179.6280  138.9020 C   0  0  0  0  0  2  0  0  0  0  0  0
  181.9510  179.4870  137.6800 C   0  0  0  0  0  2  0  0  0  0  0  0
  181.8010  178.2310  136.8180 C   0  0  2  0  0  3  0  0  0  0  0  0
  183.2570  176.4420  135.8590 C   0  0  0  0  0  2  0  0  0  0  0  0
  180.4130  177.6080  136.7830 C   0  0  0  0  0  2  0  0  0  0  0  0
  180.8480  175.4590  135.4920 C   0  0  0  0  0  2  0  0  0  0  0  0
  180.3630  176.9140  135.4100 C   0  0  0  0  0  2  0  0  0  0  0  0
  182.3840  175.2670  135.4750 C   0  0  2  0  0  3  0  0  0  0  0  0
  182.9300  177.2250  137.1250 C   0  0  0  0  0  2  0  0  0  0  0  0
  182.0660  170.1400  135.0790 N   0  0  0  0  0  1  0  0  0  0  0  0
  184.3490  172.2770  137.2560 C   0  0  0  0  0  2  0  0  0  0  0  0
  183.3260  171.1910  136.8210 C   0  0  0  0  0  2  0  0  0  0  0  0
  182.8470  173.8470  135.9300 C   0  0  2  0  0  3  0  0  0  0  0  0
  184.2750  173.6100  136.4940 C   0  0  2  0  0  3  0  0  0  0  0  0
  182.9230  171.2960  135.3840 C   0  0  2  0  0  3  0  0  0  0  0  0
  182.2510  172.6980  135.0750 C   0  0  0  0  0  2  0  0  0  0  0  0
  188.0660  173.2770  135.6600 S   0  0  0  0  0  0  0  0  0  0  0  0
  186.5920  174.2320  135.9090 C   0  0  0  0  0  0  0  0  0  0  0  0
  188.8570  174.3340  136.8950 C   0  0  0  0  0  2  0  0  0  0  0  0
  185.3400  173.6990  135.4950 N   0  0  0  0  0  2  0  0  0  0  0  0
  188.0600  175.6290  137.0020 C   0  0  0  0  0  2  0  0  0  0  0  0
  186.6900  175.3230  136.6030 N   0  0  0  0  0  0  0  0  0  0  0  0
  1 11  1  0  0  0  0
  2  7  2  0  0  0  0
  2  4  1  0  0  0  0
  3  1  2  0  0  0  0
  4  6  2  0  0  0  0
  5  7  1  0  0  0  0
  5  3  1  0  0  0  0
  6  1  1  0  0  0  0
  7  3  1  0  0  0  0
  8 12  2  0  0  0  0
  9 12  1  0  0  0  0
  9 13  1  0  0  0  0
 10  9  1  0  0  0  0
 11 10  2  0  0  0  0
 11  8  1  0  0  0  0
 14 13  1  0  0  0  0
 15 14  2  0  0  0  0
 16 14  2  0  0  0  0
 17 20  1  0  0  0  0
 18 14  1  6  0  0  0
 18 20  1  0  0  0  0
 20 19  2  0  0  0  0
 21 18  1  0  0  0  0
 21 17  1  0  0  0  0
 23 17  1  0  0  0  0
 23 22  2  0  0  0  0
 24 23  1  0  0  0  0
 25 24  1  0  0  0  0
 26 28  1  0  0  0  0
 28 27  1  0  0  0  0
 28 25  1  0  0  0  0
 29  4  1  1  0  0  0
 29 31  1  0  0  0  0
 29 30  1  0  0  0  0
 31 30  1  0  0  0  0
 32  2  1  0  0  0  0
 33 32  1  0  0  0  0
 34 40  1  0  0  0  0
 34 33  1  1  0  0  0
 35 40  1  0  0  0  0
 36 34  1  0  0  0  0
 38 37  1  0  0  0  0
 38 36  1  0  0  0  0
 39 37  1  1  0  0  0
 39 35  1  0  0  0  0
 39 44  1  0  0  0  0
 43 42  1  0  0  0  0
 44 47  1  6  0  0  0
 44 45  1  0  0  0  0
 45 51  1  6  0  0  0
 45 42  1  0  0  0  0
 46 41  1  1  0  0  0
 46 43  1  0  0  0  0
 47 46  1  0  0  0  0
 48 49  1  0  0  0  0
 48 50  1  0  0  0  0
 49 53  2  0  0  0  0
 50 52  1  0  0  0  0
 51 49  1  0  0  0  0
 53 52  1  0  0  0  0
M  END
>  <MODEL>
3

>  <REMARK>
 VINA RESULT:      -7.3      2.482      3.781
  Name = 
  14 active torsions:
  status: ('A' for Active; 'I' for Inactive)
    1  A    between atoms: C_3  and  C_35
    2  A    between atoms: C_4  and  C_24
    3  A    between atoms: C_5  and  C_24
    4  A    between atoms: C_5  and  C_26
    5  A    between atoms: N_6  and  N_10
    6  A    between atoms: S_9  and  N_10
    7  A    between atoms: S_9  and  C_31
    8  A    between atoms: C_13  and  C_28
    9  A    between atoms: C_17  and  C_51
   10  A    between atoms: N_19  and  C_30
   11  A    between atoms: N_27  and  C_33
   12  A    between atoms: C_33  and  C_40
   13  A    between atoms: C_40  and  C_47
   14  A    between atoms: N_46  and  C_47
                            x       y       z     vdW  Elec       q    Type
                         _______ _______ _______ _____ _____    ______ ____

>  <TORSDO>
F 14

$$$$
=
 OpenBabel10222417493D

 53 60  0  0  1  0  0  0  0  0999 V2000
  188.0360  177.1630  142.9300 C   0  0  0  0  0  0  0  0  0  0  0  0
  185.6630  178.0740  144.5310 C   0  0  0  0  0  0  0  0  0  0  0  0
  187.0050  177.8630  142.3640 C   0  0  0  0  0  0  0  0  0  0  0  0
  186.7370  177.2590  145.0540 C   0  0  0  0  0  0  0  0  0  0  0  0
  185.8740  178.5470  141.8320 C   0  0  0  0  0  2  0  0  0  0  0  0
  187.7990  176.8420  144.2560 N   0  0  0  0  0  0  0  0  0  0  0  0
  185.8860  178.2750  143.1850 C   0  0  0  0  0  0  0  0  0  0  0  0
  190.2570  176.2030  142.8470 N   0  0  0  0  0  0  0  0  0  0  0  0
  191.2680  177.4300  141.3730 N   0  0  0  0  0  0  0  0  0  0  0  0
  189.9910  177.9670  141.5000 C   0  0  0  0  0  3  0  0  0  0  0  0
  189.3830  177.1610  142.4300 C   0  0  0  0  0  0  0  0  0  0  0  0
  191.3600  176.4230  142.1580 N   0  0  0  0  0  0  0  0  0  0  0  0
  191.9320  177.4970  140.1590 N   0  0  0  0  0  2  0  0  0  0  0  0
  191.3830  176.7350  138.7130 S   0  0  0  0  0  0  0  0  0  0  0  0
  192.4880  176.6080  137.6880 O   0  0  0  0  0  0  0  0  0  0  0  0
  190.7890  175.3960  139.0670 O   0  0  0  0  0  0  0  0  0  0  0  0
  188.8970  176.9530  136.7880 N   0  0  0  0  0  0  0  0  0  0  0  0
  190.1060  177.8650  138.0870 C   0  0  2  0  0  3  0  0  0  0  0  0
  187.9360  177.1320  139.1160 O   0  0  0  0  0  0  0  0  0  0  0  0
  188.7750  177.2290  138.2360 C   0  0  0  0  0  0  0  0  0  0  0  0
  189.9480  177.8120  136.7300 O   0  0  0  0  0  0  0  0  0  0  0  0
  189.3130  174.4960  135.9250 S   0  0  0  0  0  0  0  0  0  0  0  0
  188.4090  175.8510  136.0090 C   0  0  0  0  0  0  0  0  0  0  0  0
  187.0180  175.8720  135.4730 C   0  0  0  0  0  2  0  0  0  0  0  0
  185.9770  175.5880  136.5590 C   0  0  0  0  0  2  0  0  0  0  0  0
  184.8300  177.4450  137.4140 C   0  0  0  0  0  1  0  0  0  0  0  0
  184.8890  177.1140  135.1250 C   0  0  0  0  0  1  0  0  0  0  0  0
  184.7770  176.4090  136.3960 N   0  0  0  0  0  0  0  0  0  0  0  0
  187.0060  177.2170  146.4920 C   0  0  2  0  0  3  0  0  0  0  0  0
  187.7660  178.4270  146.7860 C   0  0  0  0  0  2  0  0  0  0  0  0
  188.4110  177.1040  146.8220 N   0  0  0  0  0  2  0  0  0  0  0  0
  184.5000  178.7800  145.2250 C   0  0  0  0  0  2  0  0  0  0  0  0
  183.7810  179.8100  144.3450 C   0  0  0  0  0  2  0  0  0  0  0  0
  182.5160  179.3600  143.6090 C   0  0  2  0  0  3  0  0  0  0  0  0
  181.6600  179.2560  141.2650 C   0  0  0  0  0  2  0  0  0  0  0  0
  181.6330  178.3660  144.3480 C   0  0  0  0  0  2  0  0  0  0  0  0
  179.9180  177.7770  142.5620 C   0  0  0  0  0  2  0  0  0  0  0  0
  180.2260  178.6480  143.7890 C   0  0  0  0  0  2  0  0  0  0  0  0
  180.4980  178.2880  141.2210 C   0  0  2  0  0  3  0  0  0  0  0  0
  182.8510  178.9430  142.1630 C   0  0  0  0  0  2  0  0  0  0  0  0
  178.9370  173.7260  139.4030 N   0  0  0  0  0  1  0  0  0  0  0  0
  181.0820  176.4050  137.7450 C   0  0  0  0  0  2  0  0  0  0  0  0
  180.6030  175.0250  138.2790 C   0  0  0  0  0  2  0  0  0  0  0  0
  180.4950  177.2180  140.0850 C   0  0  2  0  0  3  0  0  0  0  0  0
  180.6960  177.6240  138.5980 C   0  0  2  0  0  3  0  0  0  0  0  0
  179.3420  175.1040  139.0790 C   0  0  2  0  0  3  0  0  0  0  0  0
  179.5190  176.0400  140.3460 C   0  0  0  0  0  2  0  0  0  0  0  0
  179.3650  180.0070  135.8180 S   0  0  0  0  0  0  0  0  0  0  0  0
  179.7910  179.6430  137.5020 C   0  0  0  0  0  0  0  0  0  0  0  0
  180.4610  181.4400  135.9420 C   0  0  0  0  0  2  0  0  0  0  0  0
  179.5610  178.3340  138.0090 N   0  0  0  0  0  2  0  0  0  0  0  0
  180.6470  181.7780  137.4170 C   0  0  0  0  0  2  0  0  0  0  0  0
  180.4430  180.5440  138.1680 N   0  0  0  0  0  0  0  0  0  0  0  0
  1  6  1  0  0  0  0
  2  4  1  0  0  0  0
  2 32  1  0  0  0  0
  3  1  2  0  0  0  0
  3  7  1  0  0  0  0
  5  3  1  0  0  0  0
  5  7  1  0  0  0  0
  6  4  2  0  0  0  0
  7  2  2  0  0  0  0
  9 10  1  0  0  0  0
  9 12  1  0  0  0  0
 10 11  2  0  0  0  0
 11  8  1  0  0  0  0
 11  1  1  0  0  0  0
 12  8  2  0  0  0  0
 13  9  1  0  0  0  0
 14 16  2  0  0  0  0
 14 13  1  0  0  0  0
 15 14  2  0  0  0  0
 17 20  1  0  0  0  0
 18 20  1  0  0  0  0
 18 14  1  6  0  0  0
 20 19  2  0  0  0  0
 21 17  1  0  0  0  0
 21 18  1  0  0  0  0
 22 23  2  0  0  0  0
 23 17  1  0  0  0  0
 24 23  1  0  0  0  0
 24 25  1  0  0  0  0
 27 28  1  0  0  0  0
 28 25  1  0  0  0  0
 28 26  1  0  0  0  0
 29  4  1  6  0  0  0
 29 30  1  0  0  0  0
 29 31  1  0  0  0  0
 30 31  1  0  0  0  0
 33 32  1  0  0  0  0
 34 33  1  1  0  0  0
 34 36  1  0  0  0  0
 35 40  1  0  0  0  0
 37 38  1  0  0  0  0
 38 36  1  0  0  0  0
 39 35  1  1  0  0  0
 39 37  1  0  0  0  0
 40 34  1  0  0  0  0
 42 43  1  0  0  0  0
 42 45  1  0  0  0  0
 43 46  1  0  0  0  0
 44 47  1  6  0  0  0
 44 39  1  0  0  0  0
 45 51  1  6  0  0  0
 45 44  1  0  0  0  0
 46 41  1  1  0  0  0
 46 47  1  0  0  0  0
 48 50  1  0  0  0  0
 48 49  1  0  0  0  0
 49 51  1  0  0  0  0
 49 53  2  0  0  0  0
 50 52  1  0  0  0  0
 52 53  1  0  0  0  0
M  END
>  <MODEL>
4

>  <REMARK>
 VINA RESULT:      -7.1      2.956      6.880
  Name = 
  14 active torsions:
  status: ('A' for Active; 'I' for Inactive)
    1  A    between atoms: C_3  and  C_35
    2  A    between atoms: C_4  and  C_24
    3  A    between atoms: C_5  and  C_24
    4  A    between atoms: C_5  and  C_26
    5  A    between atoms: N_6  and  N_10
    6  A    between atoms: S_9  and  N_10
    7  A    between atoms: S_9  and  C_31
    8  A    between atoms: C_13  and  C_28
    9  A    between atoms: C_17  and  C_51
   10  A    between atoms: N_19  and  C_30
   11  A    between atoms: N_27  and  C_33
   12  A    between atoms: C_33  and  C_40
   13  A    between atoms: C_40  and  C_47
   14  A    between atoms: N_46  and  C_47
                            x       y       z     vdW  Elec       q    Type
                         _______ _______ _______ _____ _____    ______ ____

>  <TORSDO>
F 14

$$$$
=
 OpenBabel10222417493D

 53 60  0  0  1  0  0  0  0  0999 V2000
  181.3580  177.4100  139.8780 C   0  0  0  0  0  0  0  0  0  0  0  0
  182.7020  179.0950  141.9700 C   0  0  0  0  0  0  0  0  0  0  0  0
  182.7150  177.4050  140.0510 C   0  0  0  0  0  0  0  0  0  0  0  0
  181.2850  179.1240  141.6850 C   0  0  0  0  0  0  0  0  0  0  0  0
  184.1240  177.4910  140.2510 C   0  0  0  0  0  2  0  0  0  0  0  0
  180.7200  178.3400  140.6810 N   0  0  0  0  0  0  0  0  0  0  0  0
  183.3080  178.2390  141.0750 C   0  0  0  0  0  0  0  0  0  0  0  0
  179.3060  176.4940  138.9780 N   0  0  0  0  0  0  0  0  0  0  0  0
  179.8610  174.4650  138.4550 N   0  0  0  0  0  0  0  0  0  0  0  0
  180.9960  175.0310  139.0260 C   0  0  0  0  0  3  0  0  0  0  0  0
  180.6080  176.3120  139.3330 C   0  0  0  0  0  0  0  0  0  0  0  0
  178.9330  175.3450  138.4470 N   0  0  0  0  0  0  0  0  0  0  0  0
  179.9880  173.5000  137.4680 N   0  0  0  0  0  2  0  0  0  0  0  0
  180.2260  173.8510  135.7970 S   0  0  0  0  0  0  0  0  0  0  0  0
  178.9360  173.7610  135.0120 O   0  0  0  0  0  0  0  0  0  0  0  0
  180.8640  175.2110  135.6740 O   0  0  0  0  0  0  0  0  0  0  0  0
  183.2240  172.8810  135.8830 N   0  0  0  0  0  0  0  0  0  0  0  0
  181.3640  172.5490  135.2400 C   0  0  2  0  0  3  0  0  0  0  0  0
  181.9540  171.1980  137.2720 O   0  0  0  0  0  0  0  0  0  0  0  0
  182.1270  172.0360  136.4030 C   0  0  0  0  0  0  0  0  0  0  0  0
  182.5340  173.0320  134.7220 O   0  0  0  0  0  0  0  0  0  0  0  0
  185.8040  173.1100  136.3760 S   0  0  0  0  0  0  0  0  0  0  0  0
  184.2590  173.5910  136.5780 C   0  0  0  0  0  0  0  0  0  0  0  0
  183.9450  174.8630  137.2890 C   0  0  0  0  0  2  0  0  0  0  0  0
  184.1530  176.0900  136.3970 C   0  0  0  0  0  2  0  0  0  0  0  0
  185.5760  177.2600  134.9470 C   0  0  0  0  0  1  0  0  0  0  0  0
  186.3110  176.7550  137.0810 C   0  0  0  0  0  1  0  0  0  0  0  0
  185.5450  176.2210  135.9620 N   0  0  0  0  0  0  0  0  0  0  0  0
  180.3330  179.5990  142.6900 C   0  0  2  0  0  3  0  0  0  0  0  0
  179.0110  179.2840  142.1620 C   0  0  0  0  0  2  0  0  0  0  0  0
  179.4830  180.6780  142.2290 N   0  0  0  0  0  2  0  0  0  0  0  0
  183.5180  179.7210  143.0990 C   0  0  0  0  0  2  0  0  0  0  0  0
  183.2530  179.1040  144.4770 C   0  0  0  0  0  2  0  0  0  0  0  0
  184.4470  178.5220  145.2390 C   0  0  2  0  0  3  0  0  0  0  0  0
  186.4440  177.0960  144.7700 C   0  0  0  0  0  2  0  0  0  0  0  0
  184.8170  179.2250  146.5370 C   0  0  0  0  0  2  0  0  0  0  0  0
  186.9830  178.0440  147.1600 C   0  0  0  0  0  2  0  0  0  0  0  0
  185.4640  178.1110  147.3790 C   0  0  0  0  0  2  0  0  0  0  0  0
  187.4400  177.2810  145.8930 C   0  0  2  0  0  3  0  0  0  0  0  0
  185.6400  178.2980  144.2880 C   0  0  0  0  0  2  0  0  0  0  0  0
  192.4640  176.4050  146.6290 N   0  0  0  0  0  1  0  0  0  0  0  0
  190.7250  178.5610  144.0110 C   0  0  0  0  0  2  0  0  0  0  0  0
  191.6900  178.1170  145.1470 C   0  0  0  0  0  2  0  0  0  0  0  0
  188.9280  177.5450  145.5010 C   0  0  2  0  0  3  0  0  0  0  0  0
  189.3160  177.9470  144.0500 C   0  0  2  0  0  3  0  0  0  0  0  0
  191.4050  176.7420  145.6640 C   0  0  2  0  0  3  0  0  0  0  0  0
  189.9380  176.6390  146.2530 C   0  0  0  0  0  2  0  0  0  0  0  0
  190.0660  176.6280  140.4620 S   0  0  0  0  0  0  0  0  0  0  0  0
  188.9620  177.2250  141.7160 C   0  0  0  0  0  0  0  0  0  0  0  0
  189.4270  177.9420  139.3960 C   0  0  0  0  0  2  0  0  0  0  0  0
  189.1920  176.8660  143.0730 N   0  0  0  0  0  2  0  0  0  0  0  0
  188.0730  178.3860  139.9370 C   0  0  0  0  0  2  0  0  0  0  0  0
  188.0690  178.0980  141.3680 N   0  0  0  0  0  0  0  0  0  0  0  0
  1  3  2  0  0  0  0
  1  6  1  0  0  0  0
  2 32  1  0  0  0  0
  3  5  1  0  0  0  0
  3  7  1  0  0  0  0
  4  2  1  0  0  0  0
  5  7  1  0  0  0  0
  6  4  2  0  0  0  0
  7  2  2  0  0  0  0
  8 11  1  0  0  0  0
  9 10  1  0  0  0  0
 10 11  2  0  0  0  0
 11  1  1  0  0  0  0
 12  9  1  0  0  0  0
 12  8  2  0  0  0  0
 13  9  1  0  0  0  0
 14 13  1  0  0  0  0
 15 14  2  0  0  0  0
 16 14  2  0  0  0  0
 17 20  1  0  0  0  0
 17 23  1  0  0  0  0
 18 14  1  1  0  0  0
 18 20  1  0  0  0  0
 20 19  2  0  0  0  0
 21 18  1  0  0  0  0
 21 17  1  0  0  0  0
 22 23  2  0  0  0  0
 23 24  1  0  0  0  0
 25 24  1  0  0  0  0
 26 28  1  0  0  0  0
 28 25  1  0  0  0  0
 28 27  1  0  0  0  0
 29  4  1  6  0  0  0
 30 31  1  0  0  0  0
 30 29  1  0  0  0  0
 31 29  1  0  0  0  0
 32 33  1  0  0  0  0
 34 33  1  6  0  0  0
 34 36  1  0  0  0  0
 36 38  1  0  0  0  0
 37 38  1  0  0  0  0
 39 35  1  6  0  0  0
 39 37  1  0  0  0  0
 40 35  1  0  0  0  0
 40 34  1  0  0  0  0
 42 45  1  0  0  0  0
 42 43  1  0  0  0  0
 43 46  1  0  0  0  0
 44 39  1  0  0  0  0
 44 47  1  6  0  0  0
 45 51  1  6  0  0  0
 45 44  1  0  0  0  0
 46 47  1  0  0  0  0
 46 41  1  1  0  0  0
 48 49  1  0  0  0  0
 49 51  1  0  0  0  0
 50 52  1  0  0  0  0
 50 48  1  0  0  0  0
 52 53  1  0  0  0  0
 53 49  2  0  0  0  0
M  END
>  <MODEL>
5

>  <REMARK>
 VINA RESULT:      -6.9      3.938      9.654
  Name = 
  14 active torsions:
  status: ('A' for Active; 'I' for Inactive)
    1  A    between atoms: C_3  and  C_35
    2  A    between atoms: C_4  and  C_24
    3  A    between atoms: C_5  and  C_24
    4  A    between atoms: C_5  and  C_26
    5  A    between atoms: N_6  and  N_10
    6  A    between atoms: S_9  and  N_10
    7  A    between atoms: S_9  and  C_31
    8  A    between atoms: C_13  and  C_28
    9  A    between atoms: C_17  and  C_51
   10  A    between atoms: N_19  and  C_30
   11  A    between atoms: N_27  and  C_33
   12  A    between atoms: C_33  and  C_40
   13  A    between atoms: C_40  and  C_47
   14  A    between atoms: N_46  and  C_47
                            x       y       z     vdW  Elec       q    Type
                         _______ _______ _______ _____ _____    ______ ____

>  <TORSDO>
F 14

$$$$
=
 OpenBabel10222417493D

 53 60  0  0  1  0  0  0  0  0999 V2000
  183.6350  179.0770  143.5920 C   0  0  0  0  0  0  0  0  0  0  0  0
  186.1370  177.9240  144.7890 C   0  0  0  0  0  0  0  0  0  0  0  0
  184.5930  178.4710  142.8250 C   0  0  0  0  0  0  0  0  0  0  0  0
  185.1350  178.6490  145.5360 C   0  0  0  0  0  0  0  0  0  0  0  0
  185.6550  177.8760  142.0840 C   0  0  0  0  0  2  0  0  0  0  0  0
  184.0060  179.1870  144.9210 N   0  0  0  0  0  0  0  0  0  0  0  0
  185.7810  177.9340  143.4570 C   0  0  0  0  0  0  0  0  0  0  0  0
  181.5410  180.2890  143.5170 N   0  0  0  0  0  0  0  0  0  0  0  0
  180.2280  178.9380  142.4460 N   0  0  0  0  0  0  0  0  0  0  0  0
  181.4440  178.2700  142.5640 C   0  0  0  0  0  3  0  0  0  0  0  0
  182.2460  179.1580  143.2350 C   0  0  0  0  0  0  0  0  0  0  0  0
  180.3450  180.0850  143.0000 N   0  0  0  0  0  0  0  0  0  0  0  0
  179.4170  178.7160  141.3450 N   0  0  0  0  0  2  0  0  0  0  0  0
  180.0090  178.3510  139.7660 S   0  0  0  0  0  0  0  0  0  0  0  0
  178.9310  178.4880  138.7140 O   0  0  0  0  0  0  0  0  0  0  0  0
  181.1930  179.2380  139.4760 O   0  0  0  0  0  0  0  0  0  0  0  0
  181.4250  175.9980  138.2190 N   0  0  0  0  0  0  0  0  0  0  0  0
  180.5180  176.6110  139.8870 C   0  0  2  0  0  3  0  0  0  0  0  0
  183.0210  176.6100  140.0770 O   0  0  0  0  0  0  0  0  0  0  0  0
  181.9470  176.4930  139.5110 C   0  0  0  0  0  0  0  0  0  0  0  0
  180.1950  175.8700  138.7840 O   0  0  0  0  0  0  0  0  0  0  0  0
  181.5540  177.4650  136.0320 S   0  0  0  0  0  0  0  0  0  0  0  0
  181.9500  176.1370  136.8910 C   0  0  0  0  0  0  0  0  0  0  0  0
  182.9990  175.1980  136.4000 C   0  0  0  0  0  2  0  0  0  0  0  0
  182.7270  173.7540  136.8260 C   0  0  0  0  0  2  0  0  0  0  0  0
  184.9030  173.2180  137.5140 C   0  0  0  0  0  1  0  0  0  0  0  0
  183.4700  171.5140  136.8850 C   0  0  0  0  0  1  0  0  0  0  0  0
  183.8670  172.8770  136.5540 N   0  0  0  0  0  0  0  0  0  0  0  0
  185.0080  178.4670  146.9830 C   0  0  2  0  0  3  0  0  0  0  0  0
  185.9650  179.3900  147.5810 C   0  0  0  0  0  2  0  0  0  0  0  0
  186.2000  177.9370  147.6130 N   0  0  0  0  0  2  0  0  0  0  0  0
  187.3500  177.1160  145.2460 C   0  0  0  0  0  2  0  0  0  0  0  0
  188.6710  177.8920  145.2010 C   0  0  0  0  0  2  0  0  0  0  0  0
  189.6140  177.6290  144.0230 C   0  0  2  0  0  3  0  0  0  0  0  0
  189.7520  176.1040  142.0500 C   0  0  0  0  0  2  0  0  0  0  0  0
  190.5470  178.7710  143.6480 C   0  0  0  0  0  2  0  0  0  0  0  0
  191.6030  177.8880  141.5080 C   0  0  0  0  0  2  0  0  0  0  0  0
  191.7600  178.0560  143.0270 C   0  0  0  0  0  2  0  0  0  0  0  0
  190.7310  176.6910  141.0570 C   0  0  2  0  0  3  0  0  0  0  0  0
  188.8360  177.0410  142.8290 C   0  0  0  0  0  2  0  0  0  0  0  0
  188.4330  179.2350  137.2110 N   0  0  0  0  0  1  0  0  0  0  0  0
  190.2210  175.8690  137.1800 C   0  0  0  0  0  2  0  0  0  0  0  0
  189.1300  176.9580  136.9740 C   0  0  0  0  0  2  0  0  0  0  0  0
  190.2860  176.7620  139.5630 C   0  0  2  0  0  3  0  0  0  0  0  0
  191.0690  176.0040  138.4550 C   0  0  2  0  0  3  0  0  0  0  0  0
  189.4790  178.2730  137.5950 C   0  0  2  0  0  3  0  0  0  0  0  0
  189.6870  178.1360  139.1600 C   0  0  0  0  0  2  0  0  0  0  0  0
  194.0100  176.3670  135.9260 S   0  0  0  0  0  0  0  0  0  0  0  0
  193.3040  175.7590  137.4350 C   0  0  0  0  0  0  0  0  0  0  0  0
  194.4330  174.6530  135.5340 C   0  0  0  0  0  2  0  0  0  0  0  0
  192.3820  176.5730  138.1490 N   0  0  0  0  0  2  0  0  0  0  0  0
  194.4420  173.8510  136.8300 C   0  0  0  0  0  2  0  0  0  0  0  0
  193.5380  174.5250  137.7560 N   0  0  0  0  0  0  0  0  0  0  0  0
  1  6  1  0  0  0  0
  2 32  1  0  0  0  0
  2  4  1  0  0  0  0
  3  7  1  0  0  0  0
  3  1  2  0  0  0  0
  5  3  1  0  0  0  0
  5  7  1  0  0  0  0
  6  4  2  0  0  0  0
  7  2  2  0  0  0  0
  9 10  1  0  0  0  0
  9 12  1  0  0  0  0
 10 11  2  0  0  0  0
 11  8  1  0  0  0  0
 11  1  1  0  0  0  0
 12  8  2  0  0  0  0
 13  9  1  0  0  0  0
 14 13  1  0  0  0  0
 15 14  2  0  0  0  0
 16 14  2  0  0  0  0
 17 21  1  0  0  0  0
 17 20  1  0  0  0  0
 18 14  1  6  0  0  0
 20 18  1  0  0  0  0
 20 19  2  0  0  0  0
 21 18  1  0  0  0  0
 22 23  2  0  0  0  0
 23 17  1  0  0  0  0
 24 25  1  0  0  0  0
 24 23  1  0  0  0  0
 28 25  1  0  0  0  0
 28 27  1  0  0  0  0
 28 26  1  0  0  0  0
 29  4  1  6  0  0  0
 29 30  1  0  0  0  0
 29 31  1  0  0  0  0
 30 31  1  0  0  0  0
 33 32  1  0  0  0  0
 34 33  1  1  0  0  0
 35 40  1  0  0  0  0
 36 34  1  0  0  0  0
 37 38  1  0  0  0  0
 38 36  1  0  0  0  0
 39 37  1  1  0  0  0
 39 35  1  0  0  0  0
 40 34  1  0  0  0  0
 42 45  1  0  0  0  0
 43 42  1  0  0  0  0
 43 46  1  0  0  0  0
 44 47  1  6  0  0  0
 44 39  1  0  0  0  0
 45 51  1  6  0  0  0
 45 44  1  0  0  0  0
 46 41  1  1  0  0  0
 46 47  1  0  0  0  0
 48 49  1  0  0  0  0
 49 53  2  0  0  0  0
 49 51  1  0  0  0  0
 50 48  1  0  0  0  0
 50 52  1  0  0  0  0
 52 53  1  0  0  0  0
M  END
>  <MODEL>
6

>  <REMARK>
 VINA RESULT:      -6.8      4.350      9.383
  Name = 
  14 active torsions:
  status: ('A' for Active; 'I' for Inactive)
    1  A    between atoms: C_3  and  C_35
    2  A    between atoms: C_4  and  C_24
    3  A    between atoms: C_5  and  C_24
    4  A    between atoms: C_5  and  C_26
    5  A    between atoms: N_6  and  N_10
    6  A    between atoms: S_9  and  N_10
    7  A    between atoms: S_9  and  C_31
    8  A    between atoms: C_13  and  C_28
    9  A    between atoms: C_17  and  C_51
   10  A    between atoms: N_19  and  C_30
   11  A    between atoms: N_27  and  C_33
   12  A    between atoms: C_33  and  C_40
   13  A    between atoms: C_40  and  C_47
   14  A    between atoms: N_46  and  C_47
                            x       y       z     vdW  Elec       q    Type
                         _______ _______ _______ _____ _____    ______ ____

>  <TORSDO>
F 14

$$$$
=
 OpenBabel10222417493D

 53 60  0  0  1  0  0  0  0  0999 V2000
  190.4180  177.2330  137.8790 C   0  0  0  0  0  0  0  0  0  0  0  0
  188.3390  176.8570  135.7440 C   0  0  0  0  0  0  0  0  0  0  0  0
  189.5080  178.2080  137.5730 C   0  0  0  0  0  0  0  0  0  0  0  0
  189.3770  175.8980  136.0500 C   0  0  0  0  0  0  0  0  0  0  0  0
  188.5670  179.1980  137.1650 C   0  0  0  0  0  2  0  0  0  0  0  0
  190.3340  176.1400  137.0340 N   0  0  0  0  0  0  0  0  0  0  0  0
  188.5290  177.9710  136.5330 C   0  0  0  0  0  0  0  0  0  0  0  0
  192.4020  177.2170  139.2660 N   0  0  0  0  0  0  0  0  0  0  0  0
  191.6060  176.9190  141.2600 N   0  0  0  0  0  0  0  0  0  0  0  0
  190.5070  176.8890  140.4060 C   0  0  0  0  0  3  0  0  0  0  0  0
  191.0500  177.0900  139.1620 C   0  0  0  0  0  0  0  0  0  0  0  0
  192.6560  177.1160  140.5570 N   0  0  0  0  0  0  0  0  0  0  0  0
  191.4680  177.3990  142.5530 N   0  0  0  0  0  2  0  0  0  0  0  0
  191.0450  176.4190  143.9070 S   0  0  0  0  0  0  0  0  0  0  0  0
  189.6090  175.9480  143.8370 O   0  0  0  0  0  0  0  0  0  0  0  0
  192.0110  175.2650  143.9910 O   0  0  0  0  0  0  0  0  0  0  0  0
  189.4870  177.9870  146.1540 N   0  0  0  0  0  0  0  0  0  0  0  0
  191.2460  177.5350  145.3270 C   0  0  2  0  0  3  0  0  0  0  0  0
  190.7500  176.1760  147.3800 O   0  0  0  0  0  0  0  0  0  0  0  0
  190.5160  176.9800  146.4920 C   0  0  0  0  0  0  0  0  0  0  0  0
  190.3750  178.5890  145.3200 O   0  0  0  0  0  0  0  0  0  0  0  0
  187.4270  177.9410  147.8000 S   0  0  0  0  0  0  0  0  0  0  0  0
  188.0600  177.9410  146.2970 C   0  0  0  0  0  0  0  0  0  0  0  0
  187.1830  178.1070  145.1030 C   0  0  0  0  0  2  0  0  0  0  0  0
  185.7340  177.7060  145.3900 C   0  0  0  0  0  2  0  0  0  0  0  0
  184.4280  179.5210  144.6870 C   0  0  0  0  0  1  0  0  0  0  0  0
  185.5840  178.2860  143.1080 C   0  0  0  0  0  1  0  0  0  0  0  0
  184.8200  178.1650  144.3440 N   0  0  0  0  0  0  0  0  0  0  0  0
  189.2150  174.4880  135.6950 C   0  0  2  0  0  3  0  0  0  0  0  0
  189.2710  173.7550  136.9540 C   0  0  0  0  0  2  0  0  0  0  0  0
  190.3770  173.6740  135.9860 N   0  0  0  0  0  2  0  0  0  0  0  0
  187.1060  176.7590  134.8480 C   0  0  0  0  0  2  0  0  0  0  0  0
  185.8970  176.0980  135.5200 C   0  0  0  0  0  2  0  0  0  0  0  0
  185.0740  176.9420  136.4970 C   0  0  2  0  0  3  0  0  0  0  0  0
  182.7070  177.6890  136.7820 C   0  0  0  0  0  2  0  0  0  0  0  0
  185.6650  177.1170  137.8880 C   0  0  0  0  0  2  0  0  0  0  0  0
  183.7700  178.3010  139.1050 C   0  0  0  0  0  2  0  0  0  0  0  0
  185.0980  178.4700  138.3530 C   0  0  0  0  0  2  0  0  0  0  0  0
  182.5150  178.1400  138.2130 C   0  0  2  0  0  3  0  0  0  0  0  0
  183.6000  176.4860  136.4980 C   0  0  0  0  0  2  0  0  0  0  0  0
  179.8440  174.1890  140.1640 N   0  0  0  0  0  1  0  0  0  0  0  0
  179.1110  177.9260  140.2960 C   0  0  0  0  0  2  0  0  0  0  0  0
  178.9310  176.3990  140.0680 C   0  0  0  0  0  2  0  0  0  0  0  0
  181.2630  177.6030  138.9760 C   0  0  2  0  0  3  0  0  0  0  0  0
  180.5150  178.4850  140.0130 C   0  0  2  0  0  3  0  0  0  0  0  0
  180.1880  175.6150  140.2810 C   0  0  2  0  0  3  0  0  0  0  0  0
  181.3350  176.0860  139.2940 C   0  0  0  0  0  2  0  0  0  0  0  0
  180.6000  178.2040  143.8980 S   0  0  0  0  0  0  0  0  0  0  0  0
  180.5110  179.1400  142.3940 C   0  0  0  0  0  0  0  0  0  0  0  0
  179.0800  179.0410  144.4070 C   0  0  0  0  0  2  0  0  0  0  0  0
  181.2500  178.7040  141.2590 N   0  0  0  0  0  2  0  0  0  0  0  0
  178.9380  180.3200  143.5910 C   0  0  0  0  0  2  0  0  0  0  0  0
  179.6510  180.1080  142.3360 N   0  0  0  0  0  0  0  0  0  0  0  0
  1 11  1  0  0  0  0
  2  4  2  0  0  0  0
  2  7  1  0  0  0  0
  3  1  1  0  0  0  0
  4  6  1  0  0  0  0
  5  3  1  0  0  0  0
  6  1  2  0  0  0  0
  7  5  1  0  0  0  0
  7  3  2  0  0  0  0
  8 12  2  0  0  0  0
  9 13  1  0  0  0  0
 10  9  1  0  0  0  0
 11  8  1  0  0  0  0
 11 10  2  0  0  0  0
 12  9  1  0  0  0  0
 13 14  1  0  0  0  0
 14 16  2  0  0  0  0
 15 14  2  0  0  0  0
 17 23  1  0  0  0  0
 17 20  1  0  0  0  0
 18 14  1  6  0  0  0
 18 20  1  0  0  0  0
 20 19  2  0  0  0  0
 21 18  1  0  0  0  0
 21 17  1  0  0  0  0
 23 22  2  0  0  0  0
 24 25  1  0  0  0  0
 24 23  1  0  0  0  0
 27 28  1  0  0  0  0
 28 26  1  0  0  0  0
 28 25  1  0  0  0  0
 29 31  1  0  0  0  0
 29  4  1  1  0  0  0
 29 30  1  0  0  0  0
 31 30  1  0  0  0  0
 32 33  1  0  0  0  0
 32  2  1  0  0  0  0
 34 33  1  6  0  0  0
 34 40  1  0  0  0  0
 34 36  1  0  0  0  0
 36 38  1  0  0  0  0
 38 37  1  0  0  0  0
 39 35  1  6  0  0  0
 39 44  1  0  0  0  0
 39 37  1  0  0  0  0
 40 35  1  0  0  0  0
 43 46  1  0  0  0  0
 43 42  1  0  0  0  0
 44 47  1  1  0  0  0
 44 45  1  0  0  0  0
 45 42  1  0  0  0  0
 45 51  1  1  0  0  0
 46 41  1  6  0  0  0
 47 46  1  0  0  0  0
 48 50  1  0  0  0  0
 49 48  1  0  0  0  0
 51 49  1  0  0  0  0
 52 50  1  0  0  0  0
 53 49  2  0  0  0  0
 53 52  1  0  0  0  0
M  END
>  <MODEL>
7

>  <REMARK>
 VINA RESULT:      -6.7      3.090      6.524
  Name = 
  14 active torsions:
  status: ('A' for Active; 'I' for Inactive)
    1  A    between atoms: C_3  and  C_35
    2  A    between atoms: C_4  and  C_24
    3  A    between atoms: C_5  and  C_24
    4  A    between atoms: C_5  and  C_26
    5  A    between atoms: N_6  and  N_10
    6  A    between atoms: S_9  and  N_10
    7  A    between atoms: S_9  and  C_31
    8  A    between atoms: C_13  and  C_28
    9  A    between atoms: C_17  and  C_51
   10  A    between atoms: N_19  and  C_30
   11  A    between atoms: N_27  and  C_33
   12  A    between atoms: C_33  and  C_40
   13  A    between atoms: C_40  and  C_47
   14  A    between atoms: N_46  and  C_47
                            x       y       z     vdW  Elec       q    Type
                         _______ _______ _______ _____ _____    ______ ____

>  <TORSDO>
F 14

$$$$
=
 OpenBabel10222417493D

 53 60  0  0  1  0  0  0  0  0999 V2000
  184.7520  178.4180  138.9350 C   0  0  0  0  0  0  0  0  0  0  0  0
  183.4090  178.5490  141.6180 C   0  0  0  0  0  0  0  0  0  0  0  0
  185.4400  178.7290  140.0760 C   0  0  0  0  0  0  0  0  0  0  0  0
  182.7180  178.3110  140.3710 C   0  0  0  0  0  0  0  0  0  0  0  0
  186.0820  179.0990  141.2930 C   0  0  0  0  0  2  0  0  0  0  0  0
  183.3900  178.2900  139.1510 N   0  0  0  0  0  0  0  0  0  0  0  0
  184.7400  178.7790  141.3420 C   0  0  0  0  0  0  0  0  0  0  0  0
  186.6050  178.1740  137.3960 N   0  0  0  0  0  0  0  0  0  0  0  0
  185.9190  176.6240  136.0440 N   0  0  0  0  0  0  0  0  0  0  0  0
  184.8690  176.8440  136.9300 C   0  0  0  0  0  3  0  0  0  0  0  0
  185.3440  177.8200  137.7700 C   0  0  0  0  0  0  0  0  0  0  0  0
  186.8830  177.4030  136.3610 N   0  0  0  0  0  0  0  0  0  0  0  0
  186.1210  175.3640  135.5040 N   0  0  0  0  0  2  0  0  0  0  0  0
  187.6700  174.6280  135.3190 S   0  0  0  0  0  0  0  0  0  0  0  0
  187.5820  173.3030  134.5940 O   0  0  0  0  0  0  0  0  0  0  0  0
  188.5840  175.5960  134.6120 O   0  0  0  0  0  0  0  0  0  0  0  0
  190.1260  173.7540  137.0900 N   0  0  0  0  0  0  0  0  0  0  0  0
  188.2210  174.3460  137.0270 C   0  0  2  0  0  3  0  0  0  0  0  0
  189.8100  176.2100  137.5810 O   0  0  0  0  0  0  0  0  0  0  0  0
  189.4900  175.0780  137.2580 C   0  0  0  0  0  0  0  0  0  0  0  0
  188.9020  173.1720  137.1940 O   0  0  0  0  0  0  0  0  0  0  0  0
  191.4440  172.4420  135.2210 S   0  0  0  0  0  0  0  0  0  0  0  0
  191.4030  173.3990  136.5410 C   0  0  0  0  0  0  0  0  0  0  0  0
  192.6410  174.0660  137.0350 C   0  0  0  0  0  2  0  0  0  0  0  0
  193.5170  174.5790  135.8890 C   0  0  0  0  0  2  0  0  0  0  0  0
  194.5200  176.5450  135.0970 C   0  0  0  0  0  1  0  0  0  0  0  0
  193.5020  176.5580  137.1750 C   0  0  0  0  0  1  0  0  0  0  0  0
  194.3180  175.7380  136.2880 N   0  0  0  0  0  0  0  0  0  0  0  0
  181.4160  177.6440  140.3570 C   0  0  2  0  0  3  0  0  0  0  0  0
  181.3760  176.8820  139.1150 C   0  0  0  0  0  2  0  0  0  0  0  0
  180.5430  178.0840  139.2890 N   0  0  0  0  0  2  0  0  0  0  0  0
  182.9360  178.4600  143.0680 C   0  0  0  0  0  2  0  0  0  0  0  0
  183.7130  179.3620  144.0340 C   0  0  0  0  0  2  0  0  0  0  0  0
  184.6880  178.6930  145.0070 C   0  0  2  0  0  3  0  0  0  0  0  0
  186.5920  177.0780  144.9230 C   0  0  0  0  0  2  0  0  0  0  0  0
  184.8820  179.3920  146.3440 C   0  0  0  0  0  2  0  0  0  0  0  0
  186.7780  178.0340  147.3630 C   0  0  0  0  0  2  0  0  0  0  0  0
  185.2580  178.2460  147.3000 C   0  0  0  0  0  2  0  0  0  0  0  0
  187.3820  177.2000  146.2070 C   0  0  2  0  0  3  0  0  0  0  0  0
  186.0070  178.3360  144.2910 C   0  0  0  0  0  2  0  0  0  0  0  0
  192.0840  175.8390  147.8160 N   0  0  0  0  0  1  0  0  0  0  0  0
  191.0590  178.1470  144.9610 C   0  0  0  0  0  2  0  0  0  0  0  0
  191.7570  177.6140  146.2440 C   0  0  0  0  0  2  0  0  0  0  0  0
  188.9350  177.3170  146.0900 C   0  0  2  0  0  3  0  0  0  0  0  0
  189.6140  177.6730  144.7390 C   0  0  2  0  0  3  0  0  0  0  0  0
  191.2530  176.2760  146.6820 C   0  0  2  0  0  3  0  0  0  0  0  0
  189.7010  176.3190  146.9980 C   0  0  0  0  0  2  0  0  0  0  0  0
  190.9300  176.2330  141.3670 S   0  0  0  0  0  0  0  0  0  0  0  0
  189.6710  176.9780  142.3710 C   0  0  0  0  0  0  0  0  0  0  0  0
  190.7020  177.6060  140.2130 C   0  0  0  0  0  2  0  0  0  0  0  0
  189.5630  176.6070  143.7390 N   0  0  0  0  0  2  0  0  0  0  0  0
  189.3320  178.2240  140.4640 C   0  0  0  0  0  2  0  0  0  0  0  0
  188.9900  177.9540  141.8570 N   0  0  0  0  0  0  0  0  0  0  0  0
  1  6  2  0  0  0  0
  1  3  1  0  0  0  0
  2 32  1  0  0  0  0
  3  5  1  0  0  0  0
  3  7  2  0  0  0  0
  4  2  2  0  0  0  0
  5  7  1  0  0  0  0
  6  4  1  0  0  0  0
  7  2  1  0  0  0  0
  8 11  1  0  0  0  0
  9 12  1  0  0  0  0
  9 10  1  0  0  0  0
 10 11  2  0  0  0  0
 11  1  1  0  0  0  0
 12  8  2  0  0  0  0
 13  9  1  0  0  0  0
 14 13  1  0  0  0  0
 15 14  2  0  0  0  0
 16 14  2  0  0  0  0
 17 21  1  0  0  0  0
 17 20  1  0  0  0  0
 18 14  1  6  0  0  0
 18 21  1  0  0  0  0
 18 20  1  0  0  0  0
 20 19  2  0  0  0  0
 22 23  2  0  0  0  0
 23 24  1  0  0  0  0
 23 17  1  0  0  0  0
 25 28  1  0  0  0  0
 25 24  1  0  0  0  0
 26 28  1  0  0  0  0
 28 27  1  0  0  0  0
 29  4  1  6  0  0  0
 30 31  1  0  0  0  0
 30 29  1  0  0  0  0
 31 29  1  0  0  0  0
 32 33  1  0  0  0  0
 34 33  1  6  0  0  0
 34 36  1  0  0  0  0
 36 38  1  0  0  0  0
 38 37  1  0  0  0  0
 39 35  1  6  0  0  0
 39 37  1  0  0  0  0
 40 35  1  0  0  0  0
 40 34  1  0  0  0  0
 42 43  1  0  0  0  0
 43 46  1  0  0  0  0
 44 39  1  0  0  0  0
 44 47  1  6  0  0  0
 45 51  1  6  0  0  0
 45 42  1  0  0  0  0
 45 44  1  0  0  0  0
 46 47  1  0  0  0  0
 46 41  1  1  0  0  0
 48 49  1  0  0  0  0
 49 51  1  0  0  0  0
 50 52  1  0  0  0  0
 50 48  1  0  0  0  0
 52 53  1  0  0  0  0
 53 49  2  0  0  0  0
M  END
>  <MODEL>
8

>  <REMARK>
 VINA RESULT:      -6.7      3.299      8.891
  Name = 
  14 active torsions:
  status: ('A' for Active; 'I' for Inactive)
    1  A    between atoms: C_3  and  C_35
    2  A    between atoms: C_4  and  C_24
    3  A    between atoms: C_5  and  C_24
    4  A    between atoms: C_5  and  C_26
    5  A    between atoms: N_6  and  N_10
    6  A    between atoms: S_9  and  N_10
    7  A    between atoms: S_9  and  C_31
    8  A    between atoms: C_13  and  C_28
    9  A    between atoms: C_17  and  C_51
   10  A    between atoms: N_19  and  C_30
   11  A    between atoms: N_27  and  C_33
   12  A    between atoms: C_33  and  C_40
   13  A    between atoms: C_40  and  C_47
   14  A    between atoms: N_46  and  C_47
                            x       y       z     vdW  Elec       q    Type
                         _______ _______ _______ _____ _____    ______ ____

>  <TORSDO>
F 14

$$$$
=
 OpenBabel10222417493D

 53 60  0  0  1  0  0  0  0  0999 V2000
  186.6050  177.7250  142.7250 C   0  0  0  0  0  0  0  0  0  0  0  0
  183.9910  178.8060  143.7350 C   0  0  0  0  0  0  0  0  0  0  0  0
  185.5350  177.9270  141.8960 C   0  0  0  0  0  0  0  0  0  0  0  0
  185.1240  178.4930  144.5770 C   0  0  0  0  0  0  0  0  0  0  0  0
  184.3650  178.1100  141.1030 C   0  0  0  0  0  2  0  0  0  0  0  0
  186.3030  177.9660  144.0550 N   0  0  0  0  0  0  0  0  0  0  0  0
  184.2990  178.4500  142.4390 C   0  0  0  0  0  0  0  0  0  0  0  0
  188.9580  178.0630  143.1840 N   0  0  0  0  0  0  0  0  0  0  0  0
  189.9040  177.5530  141.3010 N   0  0  0  0  0  0  0  0  0  0  0  0
  188.5350  177.4240  141.0840 C   0  0  0  0  0  3  0  0  0  0  0  0
  187.9760  177.7440  142.2960 C   0  0  0  0  0  0  0  0  0  0  0  0
  190.0860  177.9120  142.5160 N   0  0  0  0  0  0  0  0  0  0  0  0
  190.7960  176.7430  140.6170 N   0  0  0  0  0  2  0  0  0  0  0  0
  191.3580  177.0580  139.0180 S   0  0  0  0  0  0  0  0  0  0  0  0
  190.5800  178.1750  138.3570 O   0  0  0  0  0  0  0  0  0  0  0  0
  192.8340  177.3590  139.0740 O   0  0  0  0  0  0  0  0  0  0  0  0
  189.3320  175.5690  137.1170 N   0  0  0  0  0  0  0  0  0  0  0  0
  191.0470  175.5010  138.1350 C   0  0  2  0  0  3  0  0  0  0  0  0
  191.3750  175.9860  135.6930 O   0  0  0  0  0  0  0  0  0  0  0  0
  190.7370  175.7970  136.7160 C   0  0  0  0  0  0  0  0  0  0  0  0
  189.7710  175.0330  138.2870 O   0  0  0  0  0  0  0  0  0  0  0  0
  187.8120  177.7210  137.0300 S   0  0  0  0  0  0  0  0  0  0  0  0
  188.1200  176.1690  136.6380 C   0  0  0  0  0  0  0  0  0  0  0  0
  187.2790  175.4560  135.6350 C   0  0  0  0  0  2  0  0  0  0  0  0
  186.6580  174.1780  136.2050 C   0  0  0  0  0  2  0  0  0  0  0  0
  187.7690  172.2220  136.8660 C   0  0  0  0  0  1  0  0  0  0  0  0
  186.3160  172.1390  135.0680 C   0  0  0  0  0  1  0  0  0  0  0  0
  187.3260  172.9750  135.7050 N   0  0  0  0  0  0  0  0  0  0  0  0
  185.2680  179.1170  145.8920 C   0  0  2  0  0  3  0  0  0  0  0  0
  186.1690  178.2490  146.6430 C   0  0  0  0  0  2  0  0  0  0  0  0
  184.7370  178.3210  146.9800 N   0  0  0  0  0  2  0  0  0  0  0  0
  182.6790  179.5280  144.0350 C   0  0  0  0  0  2  0  0  0  0  0  0
  181.4400  178.6270  143.9670 C   0  0  0  0  0  2  0  0  0  0  0  0
  180.5520  178.7290  142.7230 C   0  0  2  0  0  3  0  0  0  0  0  0
  179.8010  180.4780  141.1060 C   0  0  0  0  0  2  0  0  0  0  0  0
  180.3050  177.4290  141.9720 C   0  0  0  0  0  2  0  0  0  0  0  0
  179.0700  178.2570  139.9070 C   0  0  0  0  0  2  0  0  0  0  0  0
  178.9320  177.6490  141.3110 C   0  0  0  0  0  2  0  0  0  0  0  0
  179.2800  179.7900  139.8630 C   0  0  2  0  0  3  0  0  0  0  0  0
  181.0120  179.8930  141.8230 C   0  0  0  0  0  2  0  0  0  0  0  0
  180.6600  183.7220  136.8320 N   0  0  0  0  0  1  0  0  0  0  0  0
  180.6610  179.9790  136.1180 C   0  0  0  0  0  2  0  0  0  0  0  0
  180.3970  181.5040  135.9740 C   0  0  0  0  0  2  0  0  0  0  0  0
  179.7830  180.3180  138.4830 C   0  0  2  0  0  3  0  0  0  0  0  0
  180.6580  179.4310  137.5550 C   0  0  2  0  0  3  0  0  0  0  0  0
  180.8460  182.2990  137.1580 C   0  0  2  0  0  3  0  0  0  0  0  0
  180.1030  181.8360  138.4800 C   0  0  0  0  0  2  0  0  0  0  0  0
  184.0200  177.4880  137.2280 S   0  0  0  0  0  0  0  0  0  0  0  0
  182.5130  177.8860  138.0760 C   0  0  0  0  0  0  0  0  0  0  0  0
  183.5060  175.7570  137.3090 C   0  0  0  0  0  2  0  0  0  0  0  0
  182.0240  179.2220  138.0350 N   0  0  0  0  0  2  0  0  0  0  0  0
  182.4760  175.6110  138.4230 C   0  0  0  0  0  2  0  0  0  0  0  0
  181.8260  176.9080  138.5770 N   0  0  0  0  0  0  0  0  0  0  0  0
  1  6  1  0  0  0  0
  2 32  1  0  0  0  0
  2  4  1  0  0  0  0
  3  7  1  0  0  0  0
  3  1  2  0  0  0  0
  5  3  1  0  0  0  0
  5  7  1  0  0  0  0
  6  4  2  0  0  0  0
  7  2  2  0  0  0  0
  9 12  1  0  0  0  0
 10  9  1  0  0  0  0
 10 11  2  0  0  0  0
 11  1  1  0  0  0  0
 11  8  1  0  0  0  0
 12  8  2  0  0  0  0
 13  9  1  0  0  0  0
 14 16  2  0  0  0  0
 14 13  1  0  0  0  0
 15 14  2  0  0  0  0
 17 21  1  0  0  0  0
 18 21  1  0  0  0  0
 18 14  1  1  0  0  0
 19 20  2  0  0  0  0
 20 17  1  0  0  0  0
 20 18  1  0  0  0  0
 23 22  2  0  0  0  0
 23 17  1  0  0  0  0
 24 25  1  0  0  0  0
 24 23  1  0  0  0  0
 27 28  1  0  0  0  0
 28 25  1  0  0  0  0
 28 26  1  0  0  0  0
 29  4  1  6  0  0  0
 29 30  1  0  0  0  0
 29 31  1  0  0  0  0
 30 31  1  0  0  0  0
 33 32  1  0  0  0  0
 34 33  1  1  0  0  0
 35 40  1  0  0  0  0
 36 34  1  0  0  0  0
 37 38  1  0  0  0  0
 38 36  1  0  0  0  0
 39 37  1  1  0  0  0
 39 35  1  0  0  0  0
 40 34  1  0  0  0  0
 42 45  1  0  0  0  0
 43 42  1  0  0  0  0
 43 46  1  0  0  0  0
 44 47  1  1  0  0  0
 44 39  1  0  0  0  0
 45 51  1  1  0  0  0
 45 44  1  0  0  0  0
 46 41  1  6  0  0  0
 46 47  1  0  0  0  0
 48 50  1  0  0  0  0
 48 49  1  0  0  0  0
 49 53  2  0  0  0  0
 50 52  1  0  0  0  0
 51 49  1  0  0  0  0
 52 53  1  0  0  0  0
M  END
>  <MODEL>
9

>  <REMARK>
 VINA RESULT:      -6.7      2.972      6.940
  Name = 
  14 active torsions:
  status: ('A' for Active; 'I' for Inactive)
    1  A    between atoms: C_3  and  C_35
    2  A    between atoms: C_4  and  C_24
    3  A    between atoms: C_5  and  C_24
    4  A    between atoms: C_5  and  C_26
    5  A    between atoms: N_6  and  N_10
    6  A    between atoms: S_9  and  N_10
    7  A    between atoms: S_9  and  C_31
    8  A    between atoms: C_13  and  C_28
    9  A    between atoms: C_17  and  C_51
   10  A    between atoms: N_19  and  C_30
   11  A    between atoms: N_27  and  C_33
   12  A    between atoms: C_33  and  C_40
   13  A    between atoms: C_40  and  C_47
   14  A    between atoms: N_46  and  C_47
                            x       y       z     vdW  Elec       q    Type
                         _______ _______ _______ _____ _____    ______ ____

>  <TORSDO>
F 14

$$$$
