=
 OpenBabel10222419323D

 26 29  0  0  1  0  0  0  0  0999 V2000
  189.5200  178.4270  144.1610 C   0  0  2  0  0  3  0  0  0  0  0  0
  188.0150  177.5740  146.1380 C   0  0  0  0  0  0  0  0  0  0  0  0
  191.6260  175.9940  147.6510 O   0  0  0  0  0  1  0  0  0  0  0  0
  190.0050  177.5690  142.1790 C   0  0  2  0  0  3  0  0  0  0  0  0
  189.2390  177.7390  145.4580 C   0  0  0  0  0  0  0  0  0  0  0  0
  189.2350  176.3160  147.8520 C   0  0  0  0  0  3  0  0  0  0  0  0
  190.4040  177.2260  145.9620 C   0  0  0  0  0  0  0  0  0  0  0  0
  191.2560  177.5940  142.8200 O   0  0  0  0  0  0  0  0  0  0  0  0
  188.9640  177.6960  143.1140 O   0  0  0  0  0  0  0  0  0  0  0  0
  191.5190  177.5140  145.1430 N   0  0  0  0  0  2  0  0  0  0  0  0
  190.4360  176.5090  147.1560 C   0  0  0  0  0  0  0  0  0  0  0  0
  191.0330  178.2930  144.0050 C   0  0  2  0  0  0  0  0  0  0  0  0
  188.0350  176.8470  147.3460 C   0  0  0  0  0  3  0  0  0  0  0  0
  185.9550  179.0550  146.3170 C   0  0  0  0  0  3  0  0  0  0  0  0
  184.9670  178.6260  144.4390 C   0  0  0  0  0  3  0  0  0  0  0  0
  184.8750  179.3480  145.5720 N   0  0  0  0  0  0  0  0  0  0  0  0
  186.7350  178.1340  145.6470 C   0  0  1  0  0  3  0  0  0  0  0  0
  186.1140  177.8570  144.4450 C   0  0  0  0  0  3  0  0  0  0  0  0
  191.2160  180.6000  144.5170 O   0  0  0  0  0  0  0  0  0  0  0  0
  191.7040  179.6320  143.9540 C   0  0  0  0  0  3  0  0  0  0  0  0
  189.8550  176.2680  141.4090 C   0  0  0  0  0  2  0  0  0  0  0  0
  190.6050  176.3310  140.1650 N   0  0  0  0  0  2  0  0  0  0  0  0
  190.0820  177.4550  139.4050 C   0  0  0  0  0  2  0  0  0  0  0  0
  189.0650  176.9700  138.3840 C   0  0  0  0  0  2  0  0  0  0  0  0
  187.7600  177.7430  138.5000 C   0  0  0  0  0  2  0  0  0  0  0  0
  187.8260  178.6410  139.5660 O   0  0  0  0  0  1  0  0  0  0  0  0
  1  9  1  6  0  0  0
  1  5  1  0  0  0  0
  2 13  1  0  0  0  0
  4 21  1  1  0  0  0
  4  8  1  0  0  0  0
  4  9  1  0  0  0  0
  5  7  1  0  0  0  0
  5  2  2  0  0  0  0
  7 11  2  0  0  0  0
  8 12  1  0  0  0  0
 10  7  1  0  0  0  0
 11  3  1  0  0  0  0
 11  6  1  0  0  0  0
 12 20  1  6  0  0  0
 12  1  1  0  0  0  0
 12 10  1  0  0  0  0
 13  6  2  0  0  0  0
 15 18  2  0  0  0  0
 15 16  1  0  0  0  0
 16 14  2  0  0  0  0
 17  2  1  6  0  0  0
 17 14  1  0  0  0  0
 18 17  1  0  0  0  0
 20 19  2  0  0  0  0
 22 21  1  0  0  0  0
 23 22  1  0  0  0  0
 24 25  1  0  0  0  0
 24 23  1  0  0  0  0
 25 26  1  0  0  0  0
M  END
>  <MODEL>
1

>  <REMARK>
 VINA RESULT:      -6.8      0.000      0.000
  Name = 
  7 active torsions:
  status: ('A' for Active; 'I' for Inactive)
    1  A    between atoms: C_3  and  C_10
    2  A    between atoms: C_3  and  N_19
    3  A    between atoms: C_4  and  C_8
    4  A    between atoms: C_6  and  C_16
    5  A    between atoms: C_8  and  C_14
    6  A    between atoms: C_14  and  N_19
    7  A    between atoms: C_21  and  C_25
                            x       y       z     vdW  Elec       q    Type
                         _______ _______ _______ _____ _____    ______ ____

>  <TORSDO>
F 7

$$$$
=
 OpenBabel10222419323D

 26 29  0  0  1  0  0  0  0  0999 V2000
  189.3510  178.4950  144.1390 C   0  0  2  0  0  3  0  0  0  0  0  0
  187.8730  177.6180  146.1260 C   0  0  0  0  0  0  0  0  0  0  0  0
  191.5140  176.0720  147.6020 O   0  0  0  0  0  1  0  0  0  0  0  0
  189.8290  177.6520  142.1500 C   0  0  2  0  0  3  0  0  0  0  0  0
  189.0890  177.7990  145.4360 C   0  0  0  0  0  0  0  0  0  0  0  0
  189.1210  176.3670  147.8240 C   0  0  0  0  0  3  0  0  0  0  0  0
  190.2640  177.2970  145.9280 C   0  0  0  0  0  0  0  0  0  0  0  0
  191.0840  177.6880  142.7800 O   0  0  0  0  0  0  0  0  0  0  0  0
  188.7950  177.7620  143.0940 O   0  0  0  0  0  0  0  0  0  0  0  0
  191.3680  177.6020  145.1010 N   0  0  0  0  0  2  0  0  0  0  0  0
  190.3140  176.5760  147.1190 C   0  0  0  0  0  0  0  0  0  0  0  0
  190.8640  178.3790  143.9700 C   0  0  2  0  0  0  0  0  0  0  0  0
  187.9110  176.8860  147.3300 C   0  0  0  0  0  3  0  0  0  0  0  0
  185.7890  179.0610  146.3360 C   0  0  0  0  0  3  0  0  0  0  0  0
  184.8030  178.6490  144.4530 C   0  0  0  0  0  3  0  0  0  0  0  0
  184.7030  179.3500  145.5990 N   0  0  0  0  0  0  0  0  0  0  0  0
  186.5820  178.1650  145.6480 C   0  0  1  0  0  3  0  0  0  0  0  0
  185.9630  177.8990  144.4430 C   0  0  0  0  0  3  0  0  0  0  0  0
  192.5120  179.9670  144.5900 O   0  0  0  0  0  0  0  0  0  0  0  0
  191.5200  179.7270  143.9190 C   0  0  0  0  0  3  0  0  0  0  0  0
  189.6870  176.3520  141.3760 C   0  0  0  0  0  2  0  0  0  0  0  0
  190.6120  176.3310  140.2540 N   0  0  0  0  0  2  0  0  0  0  0  0
  189.8820  176.7990  139.0870 C   0  0  0  0  0  2  0  0  0  0  0  0
  190.6970  176.5580  137.8270 C   0  0  0  0  0  2  0  0  0  0  0  0
  191.4880  175.2630  137.9250 C   0  0  0  0  0  2  0  0  0  0  0  0
  190.6570  174.1710  137.6730 O   0  0  0  0  0  1  0  0  0  0  0  0
  1  9  1  6  0  0  0
  1  5  1  0  0  0  0
  2 13  1  0  0  0  0
  4 21  1  1  0  0  0
  4  8  1  0  0  0  0
  4  9  1  0  0  0  0
  5  7  1  0  0  0  0
  5  2  2  0  0  0  0
  7 11  2  0  0  0  0
  8 12  1  0  0  0  0
 10  7  1  0  0  0  0
 11  3  1  0  0  0  0
 11  6  1  0  0  0  0
 12 20  1  6  0  0  0
 12  1  1  0  0  0  0
 12 10  1  0  0  0  0
 13  6  2  0  0  0  0
 15 16  1  0  0  0  0
 16 14  2  0  0  0  0
 17  2  1  6  0  0  0
 17 14  1  0  0  0  0
 18 15  2  0  0  0  0
 18 17  1  0  0  0  0
 20 19  2  0  0  0  0
 22 21  1  0  0  0  0
 23 22  1  0  0  0  0
 24 25  1  0  0  0  0
 24 23  1  0  0  0  0
 26 25  1  0  0  0  0
M  END
>  <MODEL>
2

>  <REMARK>
 VINA RESULT:      -6.5      1.344      1.498
  Name = 
  7 active torsions:
  status: ('A' for Active; 'I' for Inactive)
    1  A    between atoms: C_3  and  C_10
    2  A    between atoms: C_3  and  N_19
    3  A    between atoms: C_4  and  C_8
    4  A    between atoms: C_6  and  C_16
    5  A    between atoms: C_8  and  C_14
    6  A    between atoms: C_14  and  N_19
    7  A    between atoms: C_21  and  C_25
                            x       y       z     vdW  Elec       q    Type
                         _______ _______ _______ _____ _____    ______ ____

>  <TORSDO>
F 7

$$$$
=
 OpenBabel10222419323D

 26 29  0  0  1  0  0  0  0  0999 V2000
  183.2350  178.3070  139.7570 C   0  0  2  0  0  3  0  0  0  0  0  0
  180.6750  178.8480  139.5200 C   0  0  0  0  0  0  0  0  0  0  0  0
  182.0250  182.5810  138.0820 O   0  0  0  0  0  1  0  0  0  0  0  0
  184.6450  178.4800  141.4540 C   0  0  2  0  0  3  0  0  0  0  0  0
  182.0480  179.1470  139.4090 C   0  0  0  0  0  0  0  0  0  0  0  0
  180.2040  181.0960  138.6650 C   0  0  0  0  0  3  0  0  0  0  0  0
  182.4740  180.3600  138.9360 C   0  0  0  0  0  0  0  0  0  0  0  0
  185.1720  179.3880  140.5200 O   0  0  0  0  0  0  0  0  0  0  0  0
  183.3140  178.1580  141.1390 O   0  0  0  0  0  0  0  0  0  0  0  0
  183.8820  180.4550  138.8860 N   0  0  0  0  0  2  0  0  0  0  0  0
  181.5770  181.3560  138.5570 C   0  0  0  0  0  0  0  0  0  0  0  0
  184.4220  179.1830  139.3630 C   0  0  2  0  0  0  0  0  0  0  0  0
  179.7580  179.8510  139.1420 C   0  0  0  0  0  3  0  0  0  0  0  0
  179.6600  177.2950  141.2590 C   0  0  0  0  0  3  0  0  0  0  0  0
  179.5420  175.4410  140.1450 C   0  0  0  0  0  3  0  0  0  0  0  0
  179.2820  176.0070  141.3400 N   0  0  0  0  0  2  0  0  0  0  0  0
  180.1680  177.5420  139.9990 C   0  0  0  0  0  0  0  0  0  0  0  0
  180.0930  176.3660  139.2800 C   0  0  0  0  0  3  0  0  0  0  0  0
  186.4820  178.5540  138.3730 O   0  0  0  0  0  0  0  0  0  0  0  0
  185.2620  178.5330  138.3060 C   0  0  0  0  0  3  0  0  0  0  0  0
  184.7170  179.0840  142.8460 C   0  0  0  0  0  2  0  0  0  0  0  0
  183.5270  178.7360  143.6070 N   0  0  0  0  0  2  0  0  0  0  0  0
  183.7960  179.0640  144.9970 C   0  0  0  0  0  2  0  0  0  0  0  0
  185.2900  179.2480  145.2130 C   0  0  0  0  0  2  0  0  0  0  0  0
  185.7110  178.7440  146.5850 C   0  0  0  0  0  2  0  0  0  0  0  0
  184.6020  178.2720  147.2870 O   0  0  0  0  0  1  0  0  0  0  0  0
  1  5  1  1  0  0  0
  1  9  1  0  0  0  0
  2 17  1  0  0  0  0
  3 11  1  0  0  0  0
  4 21  1  1  0  0  0
  5  2  1  0  0  0  0
  6 13  1  0  0  0  0
  7  5  2  0  0  0  0
  8  4  1  0  0  0  0
  9  4  1  0  0  0  0
 10  7  1  0  0  0  0
 10 12  1  0  0  0  0
 11  6  2  0  0  0  0
 11  7  1  0  0  0  0
 12 20  1  6  0  0  0
 12  1  1  0  0  0  0
 12  8  1  0  0  0  0
 13  2  2  0  0  0  0
 14 16  1  0  0  0  0
 15 16  1  0  0  0  0
 17 14  2  0  0  0  0
 18 17  1  0  0  0  0
 18 15  2  0  0  0  0
 20 19  2  0  0  0  0
 21 22  1  0  0  0  0
 22 23  1  0  0  0  0
 23 24  1  0  0  0  0
 24 25  1  0  0  0  0
 25 26  1  0  0  0  0
M  END
>  <MODEL>
3

>  <REMARK>
 VINA RESULT:      -6.2      5.456      9.285
  Name = 
  7 active torsions:
  status: ('A' for Active; 'I' for Inactive)
    1  A    between atoms: C_3  and  C_10
    2  A    between atoms: C_3  and  N_19
    3  A    between atoms: C_4  and  C_8
    4  A    between atoms: C_6  and  C_16
    5  A    between atoms: C_8  and  C_14
    6  A    between atoms: C_14  and  N_19
    7  A    between atoms: C_21  and  C_25
                            x       y       z     vdW  Elec       q    Type
                         _______ _______ _______ _____ _____    ______ ____

>  <TORSDO>
F 7

$$$$
=
 OpenBabel10222419323D

 26 29  0  0  1  0  0  0  0  0999 V2000
  190.6000  176.9910  138.5000 C   0  0  2  0  0  3  0  0  0  0  0  0
  191.1730  174.9070  137.0070 C   0  0  0  0  0  0  0  0  0  0  0  0
  186.9830  174.4770  136.7310 O   0  0  0  0  0  1  0  0  0  0  0  0
  190.4030  177.2490  140.6890 C   0  0  2  0  0  3  0  0  0  0  0  0
  190.2930  175.8050  137.6440 C   0  0  0  0  0  0  0  0  0  0  0  0
  189.2080  173.6960  136.1840 C   0  0  0  0  0  3  0  0  0  0  0  0
  188.9350  175.6570  137.5430 C   0  0  0  0  0  0  0  0  0  0  0  0
  189.1060  177.5280  140.2270 O   0  0  0  0  0  0  0  0  0  0  0  0
  191.1450  176.5680  139.7090 O   0  0  0  0  0  0  0  0  0  0  0  0
  188.2300  176.6660  138.2360 N   0  0  0  0  0  2  0  0  0  0  0  0
  188.3610  174.6130  136.8210 C   0  0  0  0  0  0  0  0  0  0  0  0
  189.2220  177.5550  138.8380 C   0  0  2  0  0  0  0  0  0  0  0  0
  190.6030  173.8440  136.2760 C   0  0  0  0  0  3  0  0  0  0  0  0
  193.3810  176.0610  136.4900 C   0  0  0  0  0  3  0  0  0  0  0  0
  194.7830  174.7480  137.4910 C   0  0  0  0  0  3  0  0  0  0  0  0
  194.6850  175.8720  136.7540 N   0  0  0  0  0  0  0  0  0  0  0  0
  192.6480  175.0420  137.0650 C   0  0  1  0  0  3  0  0  0  0  0  0
  193.5330  174.2010  137.7090 C   0  0  0  0  0  3  0  0  0  0  0  0
  188.4420  179.1800  137.2980 O   0  0  0  0  0  0  0  0  0  0  0  0
  189.0570  178.9550  138.3290 C   0  0  0  0  0  3  0  0  0  0  0  0
  190.3230  176.4110  141.9540 C   0  0  0  0  0  2  0  0  0  0  0  0
  191.4650  176.6830  142.8110 N   0  0  0  0  0  2  0  0  0  0  0  0
  191.2820  178.0180  143.3570 C   0  0  0  0  0  2  0  0  0  0  0  0
  190.9530  177.9380  144.8390 C   0  0  0  0  0  2  0  0  0  0  0  0
  191.5670  176.6980  145.4710 C   0  0  0  0  0  2  0  0  0  0  0  0
  191.8490  176.9330  146.8170 O   0  0  0  0  0  1  0  0  0  0  0  0
  1  5  1  6  0  0  0
  1 12  1  0  0  0  0
  1  9  1  0  0  0  0
  2  5  1  0  0  0  0
  3 11  1  0  0  0  0
  4 21  1  1  0  0  0
  6 13  1  0  0  0  0
  6 11  2  0  0  0  0
  7  5  2  0  0  0  0
  7 10  1  0  0  0  0
  8  4  1  0  0  0  0
  9  4  1  0  0  0  0
 10 12  1  0  0  0  0
 11  7  1  0  0  0  0
 12 20  1  6  0  0  0
 12  8  1  0  0  0  0
 13  2  2  0  0  0  0
 14 16  2  0  0  0  0
 14 17  1  0  0  0  0
 15 18  2  0  0  0  0
 16 15  1  0  0  0  0
 17  2  1  1  0  0  0
 17 18  1  0  0  0  0
 19 20  2  0  0  0  0
 21 22  1  0  0  0  0
 22 23  1  0  0  0  0
 23 24  1  0  0  0  0
 24 25  1  0  0  0  0
 25 26  1  0  0  0  0
M  END
>  <MODEL>
4

>  <REMARK>
 VINA RESULT:      -5.9      3.292      8.736
  Name = 
  7 active torsions:
  status: ('A' for Active; 'I' for Inactive)
    1  A    between atoms: C_3  and  C_10
    2  A    between atoms: C_3  and  N_19
    3  A    between atoms: C_4  and  C_8
    4  A    between atoms: C_6  and  C_16
    5  A    between atoms: C_8  and  C_14
    6  A    between atoms: C_14  and  N_19
    7  A    between atoms: C_21  and  C_25
                            x       y       z     vdW  Elec       q    Type
                         _______ _______ _______ _____ _____    ______ ____

>  <TORSDO>
F 7

$$$$
=
 OpenBabel10222419323D

 26 29  0  0  1  0  0  0  0  0999 V2000
  184.6540  178.9310  138.9900 C   0  0  2  0  0  3  0  0  0  0  0  0
  186.0670  177.2560  137.5420 C   0  0  0  0  0  0  0  0  0  0  0  0
  182.3940  175.2340  137.0500 O   0  0  0  0  0  1  0  0  0  0  0  0
  184.2610  179.0600  141.1640 C   0  0  2  0  0  3  0  0  0  0  0  0
  184.8760  177.7310  138.1270 C   0  0  0  0  0  0  0  0  0  0  0  0
  184.7720  175.3880  136.6260 C   0  0  0  0  0  3  0  0  0  0  0  0
  183.6890  177.0690  137.9560 C   0  0  0  0  0  0  0  0  0  0  0  0
  182.9830  178.8190  140.6330 O   0  0  0  0  0  0  0  0  0  0  0  0
  185.2580  178.7350  140.2290 O   0  0  0  0  0  0  0  0  0  0  0  0
  182.6130  177.7140  138.6050 N   0  0  0  0  0  2  0  0  0  0  0  0
  183.6040  175.8940  137.2110 C   0  0  0  0  0  0  0  0  0  0  0  0
  183.1490  178.9100  139.2520 C   0  0  2  0  0  0  0  0  0  0  0  0
  185.9930  176.0660  136.7900 C   0  0  0  0  0  3  0  0  0  0  0  0
  187.8240  178.9600  136.8510 C   0  0  0  0  0  3  0  0  0  0  0  0
  189.3430  178.6290  138.3590 C   0  0  0  0  0  3  0  0  0  0  0  0
  189.0330  179.3670  137.2750 N   0  0  0  0  0  0  0  0  0  0  0  0
  187.3680  177.9520  137.6770 C   0  0  1  0  0  3  0  0  0  0  0  0
  188.3280  177.7360  138.6440 C   0  0  0  0  0  3  0  0  0  0  0  0
  183.0590  181.2180  138.7210 O   0  0  0  0  0  0  0  0  0  0  0  0
  182.4790  180.1430  138.7270 C   0  0  0  0  0  3  0  0  0  0  0  0
  184.4490  178.2380  142.4280 C   0  0  0  0  0  2  0  0  0  0  0  0
  185.4870  178.8250  143.2600 N   0  0  0  0  0  2  0  0  0  0  0  0
  186.2650  177.7290  143.8140 C   0  0  0  0  0  2  0  0  0  0  0  0
  186.4320  177.9090  145.3140 C   0  0  0  0  0  2  0  0  0  0  0  0
  185.6080  179.0830  145.8200 C   0  0  0  0  0  2  0  0  0  0  0  0
  184.5600  178.6280  146.6200 O   0  0  0  0  0  1  0  0  0  0  0  0
  1  5  1  6  0  0  0
  1 12  1  0  0  0  0
  1  9  1  0  0  0  0
  2  5  1  0  0  0  0
  3 11  1  0  0  0  0
  4 21  1  1  0  0  0
  6 13  1  0  0  0  0
  6 11  2  0  0  0  0
  7  5  2  0  0  0  0
  7 10  1  0  0  0  0
  8  4  1  0  0  0  0
  9  4  1  0  0  0  0
 10 12  1  0  0  0  0
 11  7  1  0  0  0  0
 12 20  1  6  0  0  0
 12  8  1  0  0  0  0
 13  2  2  0  0  0  0
 14 16  2  0  0  0  0
 14 17  1  0  0  0  0
 15 18  2  0  0  0  0
 16 15  1  0  0  0  0
 17  2  1  1  0  0  0
 17 18  1  0  0  0  0
 19 20  2  0  0  0  0
 21 22  1  0  0  0  0
 22 23  1  0  0  0  0
 23 24  1  0  0  0  0
 24 25  1  0  0  0  0
 25 26  1  0  0  0  0
M  END
>  <MODEL>
5

>  <REMARK>
 VINA RESULT:      -5.8      4.061      8.980
  Name = 
  7 active torsions:
  status: ('A' for Active; 'I' for Inactive)
    1  A    between atoms: C_3  and  C_10
    2  A    between atoms: C_3  and  N_19
    3  A    between atoms: C_4  and  C_8
    4  A    between atoms: C_6  and  C_16
    5  A    between atoms: C_8  and  C_14
    6  A    between atoms: C_14  and  N_19
    7  A    between atoms: C_21  and  C_25
                            x       y       z     vdW  Elec       q    Type
                         _______ _______ _______ _____ _____    ______ ____

>  <TORSDO>
F 7

$$$$
=
 OpenBabel10222419323D

 26 29  0  0  1  0  0  0  0  0999 V2000
  190.2830  176.9810  137.8200 C   0  0  2  0  0  3  0  0  0  0  0  0
  191.2140  174.8330  136.6270 C   0  0  0  0  0  0  0  0  0  0  0  0
  187.1700  173.6240  136.5650 O   0  0  0  0  0  1  0  0  0  0  0  0
  190.0600  177.5240  139.9540 C   0  0  2  0  0  3  0  0  0  0  0  0
  190.1900  175.6440  137.1580 C   0  0  0  0  0  0  0  0  0  0  0  0
  189.4960  173.1810  136.0600 C   0  0  0  0  0  3  0  0  0  0  0  0
  188.8810  175.2420  137.1270 C   0  0  0  0  0  0  0  0  0  0  0  0
  188.7300  177.4930  139.5020 O   0  0  0  0  0  0  0  0  0  0  0  0
  190.9050  176.8480  139.0580 O   0  0  0  0  0  0  0  0  0  0  0  0
  188.0090  176.2010  137.6900 N   0  0  0  0  0  2  0  0  0  0  0  0
  188.5010  174.0160  136.5850 C   0  0  0  0  0  0  0  0  0  0  0  0
  188.8270  177.3330  138.1210 C   0  0  2  0  0  0  0  0  0  0  0  0
  190.8410  173.5880  136.0800 C   0  0  0  0  0  3  0  0  0  0  0  0
  193.5480  174.9960  137.6240 C   0  0  0  0  0  3  0  0  0  0  0  0
  194.6060  176.0320  136.0430 C   0  0  0  0  0  3  0  0  0  0  0  0
  194.7480  175.4870  137.2670 N   0  0  0  0  0  2  0  0  0  0  0  0
  192.6390  175.2370  136.6130 C   0  0  0  0  0  0  0  0  0  0  0  0
  193.3060  175.8940  135.5990 C   0  0  0  0  0  3  0  0  0  0  0  0
  189.0520  179.6190  137.5350 O   0  0  0  0  0  0  0  0  0  0  0  0
  188.4060  178.5890  137.4190 C   0  0  0  0  0  3  0  0  0  0  0  0
  190.1440  176.8830  141.3290 C   0  0  0  0  0  2  0  0  0  0  0  0
  189.2870  177.5920  142.2660 N   0  0  0  0  0  2  0  0  0  0  0  0
  188.5720  176.5870  143.0370 C   0  0  0  0  0  2  0  0  0  0  0  0
  188.0710  177.1860  144.3420 C   0  0  0  0  0  2  0  0  0  0  0  0
  189.1220  177.0750  145.4350 C   0  0  0  0  0  2  0  0  0  0  0  0
  189.8220  178.2760  145.5550 O   0  0  0  0  0  1  0  0  0  0  0  0
  1  5  1  1  0  0  0
  1 12  1  0  0  0  0
  1  9  1  0  0  0  0
  2  5  1  0  0  0  0
  3 11  1  0  0  0  0
  4 21  1  1  0  0  0
  6 13  1  0  0  0  0
  6 11  2  0  0  0  0
  7  5  2  0  0  0  0
  7 10  1  0  0  0  0
  8  4  1  0  0  0  0
  9  4  1  0  0  0  0
 10 12  1  0  0  0  0
 11  7  1  0  0  0  0
 12 20  1  6  0  0  0
 12  8  1  0  0  0  0
 13  2  2  0  0  0  0
 15 16  1  0  0  0  0
 16 14  1  0  0  0  0
 17  2  1  0  0  0  0
 17 14  2  0  0  0  0
 18 15  2  0  0  0  0
 18 17  1  0  0  0  0
 20 19  2  0  0  0  0
 21 22  1  0  0  0  0
 22 23  1  0  0  0  0
 23 24  1  0  0  0  0
 24 25  1  0  0  0  0
 25 26  1  0  0  0  0
M  END
>  <MODEL>
6

>  <REMARK>
 VINA RESULT:      -5.6      3.379      8.874
  Name = 
  7 active torsions:
  status: ('A' for Active; 'I' for Inactive)
    1  A    between atoms: C_3  and  C_10
    2  A    between atoms: C_3  and  N_19
    3  A    between atoms: C_4  and  C_8
    4  A    between atoms: C_6  and  C_16
    5  A    between atoms: C_8  and  C_14
    6  A    between atoms: C_14  and  N_19
    7  A    between atoms: C_21  and  C_25
                            x       y       z     vdW  Elec       q    Type
                         _______ _______ _______ _____ _____    ______ ____

>  <TORSDO>
F 7

$$$$
=
 OpenBabel10222419323D

 26 29  0  0  1  0  0  0  0  0999 V2000
  191.0730  175.3580  137.9440 C   0  0  2  0  0  3  0  0  0  0  0  0
  189.9460  177.5180  138.9270 C   0  0  0  0  0  0  0  0  0  0  0  0
  188.4490  178.0140  135.0110 O   0  0  0  0  0  1  0  0  0  0  0  0
  193.0830  174.9770  137.1000 C   0  0  2  0  0  3  0  0  0  0  0  0
  190.2360  176.5960  137.9010 C   0  0  0  0  0  0  0  0  0  0  0  0
  188.6440  178.7980  137.2930 C   0  0  0  0  0  3  0  0  0  0  0  0
  189.7400  176.7650  136.6360 C   0  0  0  0  0  0  0  0  0  0  0  0
  192.2370  174.7410  136.0030 O   0  0  0  0  0  0  0  0  0  0  0  0
  192.4130  175.7040  138.0970 O   0  0  0  0  0  0  0  0  0  0  0  0
  190.1290  175.7260  135.7610 N   0  0  0  0  0  2  0  0  0  0  0  0
  188.9420  177.8560  136.3000 C   0  0  0  0  0  0  0  0  0  0  0  0
  190.9480  174.7920  136.5310 C   0  0  2  0  0  0  0  0  0  0  0  0
  189.1420  178.6280  138.5970 C   0  0  0  0  0  3  0  0  0  0  0  0
  189.6850  176.9170  141.3850 C   0  0  0  0  0  3  0  0  0  0  0  0
  191.6820  177.3080  142.1260 C   0  0  0  0  0  3  0  0  0  0  0  0
  190.4540  176.8880  142.4870 N   0  0  0  0  0  2  0  0  0  0  0  0
  190.4370  177.3630  140.3170 C   0  0  0  0  0  0  0  0  0  0  0  0
  191.7140  177.6110  140.7780 C   0  0  0  0  0  3  0  0  0  0  0  0
  189.4530  173.1370  137.3340 O   0  0  0  0  0  0  0  0  0  0  0  0
  190.3310  173.4260  136.5360 C   0  0  0  0  0  3  0  0  0  0  0  0
  194.3120  175.7420  136.6370 C   0  0  0  0  0  2  0  0  0  0  0  0
  195.5210  175.0530  137.0610 N   0  0  0  0  0  2  0  0  0  0  0  0
  195.1960  174.3250  138.2770 C   0  0  0  0  0  2  0  0  0  0  0  0
  196.4160  174.2410  139.1800 C   0  0  0  0  0  2  0  0  0  0  0  0
  197.6870  174.5790  138.4160 C   0  0  0  0  0  2  0  0  0  0  0  0
  198.3040  175.6970  138.9760 O   0  0  0  0  0  1  0  0  0  0  0  0
  1  5  1  6  0  0  0
  1  9  1  0  0  0  0
  2 17  1  0  0  0  0
  3 11  1  0  0  0  0
  4 21  1  6  0  0  0
  4  9  1  0  0  0  0
  5  2  2  0  0  0  0
  6 13  2  0  0  0  0
  7  5  1  0  0  0  0
  8 12  1  0  0  0  0
  8  4  1  0  0  0  0
 10 12  1  0  0  0  0
 10  7  1  0  0  0  0
 11  7  2  0  0  0  0
 11  6  1  0  0  0  0
 12 20  1  1  0  0  0
 12  1  1  0  0  0  0
 13  2  1  0  0  0  0
 14 16  1  0  0  0  0
 15 16  1  0  0  0  0
 17 18  1  0  0  0  0
 17 14  2  0  0  0  0
 18 15  2  0  0  0  0
 20 19  2  0  0  0  0
 21 22  1  0  0  0  0
 22 23  1  0  0  0  0
 23 24  1  0  0  0  0
 25 26  1  0  0  0  0
 25 24  1  0  0  0  0
M  END
>  <MODEL>
7

>  <REMARK>
 VINA RESULT:      -5.6      4.933      8.522
  Name = 
  7 active torsions:
  status: ('A' for Active; 'I' for Inactive)
    1  A    between atoms: C_3  and  C_10
    2  A    between atoms: C_3  and  N_19
    3  A    between atoms: C_4  and  C_8
    4  A    between atoms: C_6  and  C_16
    5  A    between atoms: C_8  and  C_14
    6  A    between atoms: C_14  and  N_19
    7  A    between atoms: C_21  and  C_25
                            x       y       z     vdW  Elec       q    Type
                         _______ _______ _______ _____ _____    ______ ____

>  <TORSDO>
F 7

$$$$
=
 OpenBabel10222419323D

 26 29  0  0  1  0  0  0  0  0999 V2000
  186.3100  178.1340  137.9180 C   0  0  2  0  0  3  0  0  0  0  0  0
  184.8700  178.8210  140.0040 C   0  0  0  0  0  0  0  0  0  0  0  0
  188.4770  178.3120  142.1380 O   0  0  0  0  0  1  0  0  0  0  0  0
  186.6560  176.1890  136.9200 C   0  0  2  0  0  3  0  0  0  0  0  0
  186.0640  178.4390  139.3600 C   0  0  0  0  0  0  0  0  0  0  0  0
  186.1160  178.8480  142.1140 C   0  0  0  0  0  3  0  0  0  0  0  0
  187.2290  178.2820  140.0630 C   0  0  0  0  0  0  0  0  0  0  0  0
  187.9370  176.5290  137.3880 O   0  0  0  0  0  0  0  0  0  0  0  0
  185.6700  176.9450  137.5750 O   0  0  0  0  0  0  0  0  0  0  0  0
  188.3130  177.9140  139.2340 N   0  0  0  0  0  2  0  0  0  0  0  0
  187.2880  178.4780  141.4410 C   0  0  0  0  0  0  0  0  0  0  0  0
  187.8060  177.8310  137.8660 C   0  0  2  0  0  0  0  0  0  0  0  0
  184.9170  179.0190  141.4000 C   0  0  0  0  0  3  0  0  0  0  0  0
  183.1140  180.2470  138.8410 C   0  0  0  0  0  3  0  0  0  0  0  0
  181.6710  178.7400  138.2580 C   0  0  0  0  0  3  0  0  0  0  0  0
  181.9370  180.0610  138.2170 N   0  0  0  0  0  0  0  0  0  0  0  0
  183.5930  179.0300  139.2830 C   0  0  1  0  0  3  0  0  0  0  0  0
  182.6810  178.0620  138.9120 C   0  0  0  0  0  3  0  0  0  0  0  0
  189.0120  179.8220  137.4170 O   0  0  0  0  0  0  0  0  0  0  0  0
  188.5330  178.7900  136.9720 C   0  0  0  0  0  3  0  0  0  0  0  0
  186.4090  174.7070  137.1480 C   0  0  0  0  0  2  0  0  0  0  0  0
  184.9830  174.4470  137.2590 N   0  0  0  0  0  2  0  0  0  0  0  0
  184.8290  173.0470  137.6180 C   0  0  0  0  0  2  0  0  0  0  0  0
  184.3370  172.2490  136.4200 C   0  0  0  0  0  2  0  0  0  0  0  0
  183.3780  171.1500  136.8500 C   0  0  0  0  0  2  0  0  0  0  0  0
  182.1480  171.6990  137.2130 O   0  0  0  0  0  1  0  0  0  0  0  0
  1  9  1  1  0  0  0
  1  5  1  0  0  0  0
  2 13  1  0  0  0  0
  4 21  1  1  0  0  0
  4  8  1  0  0  0  0
  4  9  1  0  0  0  0
  5  2  2  0  0  0  0
  5  7  1  0  0  0  0
  7 11  2  0  0  0  0
  8 12  1  0  0  0  0
 10  7  1  0  0  0  0
 11  6  1  0  0  0  0
 11  3  1  0  0  0  0
 12 20  1  6  0  0  0
 12  1  1  0  0  0  0
 12 10  1  0  0  0  0
 13  6  2  0  0  0  0
 14 17  1  0  0  0  0
 15 18  2  0  0  0  0
 16 15  1  0  0  0  0
 16 14  2  0  0  0  0
 17  2  1  6  0  0  0
 18 17  1  0  0  0  0
 20 19  2  0  0  0  0
 21 22  1  0  0  0  0
 22 23  1  0  0  0  0
 24 25  1  0  0  0  0
 24 23  1  0  0  0  0
 25 26  1  0  0  0  0
M  END
>  <MODEL>
8

>  <REMARK>
 VINA RESULT:      -5.3      4.622      7.110
  Name = 
  7 active torsions:
  status: ('A' for Active; 'I' for Inactive)
    1  A    between atoms: C_3  and  C_10
    2  A    between atoms: C_3  and  N_19
    3  A    between atoms: C_4  and  C_8
    4  A    between atoms: C_6  and  C_16
    5  A    between atoms: C_8  and  C_14
    6  A    between atoms: C_14  and  N_19
    7  A    between atoms: C_21  and  C_25
                            x       y       z     vdW  Elec       q    Type
                         _______ _______ _______ _____ _____    ______ ____

>  <TORSDO>
F 7

$$$$
=
 OpenBabel10222419323D

 26 29  0  0  1  0  0  0  0  0999 V2000
  189.1490  176.9340  137.4630 C   0  0  2  0  0  3  0  0  0  0  0  0
  189.7650  174.4270  136.9780 C   0  0  0  0  0  0  0  0  0  0  0  0
  185.5870  173.8250  137.0360 O   0  0  0  0  0  1  0  0  0  0  0  0
  188.9820  178.0930  139.3410 C   0  0  2  0  0  3  0  0  0  0  0  0
  188.8670  175.4900  137.2010 C   0  0  0  0  0  0  0  0  0  0  0  0
  187.8280  172.9370  136.8060 C   0  0  0  0  0  3  0  0  0  0  0  0
  187.5130  175.2830  137.2120 C   0  0  0  0  0  0  0  0  0  0  0  0
  187.6680  178.1190  138.8440 O   0  0  0  0  0  0  0  0  0  0  0  0
  189.7290  177.0770  138.7210 O   0  0  0  0  0  0  0  0  0  0  0  0
  186.7870  176.4740  137.4330 N   0  0  0  0  0  2  0  0  0  0  0  0
  186.9620  174.0170  137.0190 C   0  0  0  0  0  0  0  0  0  0  0  0
  187.7590  177.5570  137.5710 C   0  0  2  0  0  0  0  0  0  0  0  0
  189.2190  173.1420  136.7840 C   0  0  0  0  0  3  0  0  0  0  0  0
  192.0040  174.6020  135.7820 C   0  0  0  0  0  3  0  0  0  0  0  0
  193.3430  174.9450  137.4500 C   0  0  0  0  0  3  0  0  0  0  0  0
  193.2910  174.8070  136.1110 N   0  0  0  0  0  0  0  0  0  0  0  0
  191.2350  174.6070  136.9290 C   0  0  1  0  0  3  0  0  0  0  0  0
  192.0800  174.8290  137.9980 C   0  0  0  0  0  3  0  0  0  0  0  0
  187.5360  179.7910  136.8100 O   0  0  0  0  0  0  0  0  0  0  0  0
  187.5390  178.6040  136.5220 C   0  0  0  0  0  3  0  0  0  0  0  0
  188.9520  177.8690  140.8430 C   0  0  0  0  0  2  0  0  0  0  0  0
  187.8740  178.6390  141.4440 N   0  0  0  0  0  2  0  0  0  0  0  0
  187.3220  177.8350  142.5220 C   0  0  0  0  0  2  0  0  0  0  0  0
  188.3970  176.9370  143.1110 C   0  0  0  0  0  2  0  0  0  0  0  0
  188.7180  177.3330  144.5440 C   0  0  0  0  0  2  0  0  0  0  0  0
  187.5720  177.2500  145.3350 O   0  0  0  0  0  1  0  0  0  0  0  0
  1  5  1  1  0  0  0
  1 12  1  0  0  0  0
  1  9  1  0  0  0  0
  2  5  1  0  0  0  0
  4 21  1  1  0  0  0
  5  7  2  0  0  0  0
  6 11  2  0  0  0  0
  7 10  1  0  0  0  0
  8  4  1  0  0  0  0
  9  4  1  0  0  0  0
 10 12  1  0  0  0  0
 11  3  1  0  0  0  0
 11  7  1  0  0  0  0
 12 20  1  6  0  0  0
 12  8  1  0  0  0  0
 13  6  1  0  0  0  0
 13  2  2  0  0  0  0
 14 16  2  0  0  0  0
 14 17  1  0  0  0  0
 15 18  2  0  0  0  0
 16 15  1  0  0  0  0
 17  2  1  6  0  0  0
 17 18  1  0  0  0  0
 20 19  2  0  0  0  0
 21 22  1  0  0  0  0
 22 23  1  0  0  0  0
 23 24  1  0  0  0  0
 24 25  1  0  0  0  0
 25 26  1  0  0  0  0
M  END
>  <MODEL>
9

>  <REMARK>
 VINA RESULT:      -5.2      3.287      8.752
  Name = 
  7 active torsions:
  status: ('A' for Active; 'I' for Inactive)
    1  A    between atoms: C_3  and  C_10
    2  A    between atoms: C_3  and  N_19
    3  A    between atoms: C_4  and  C_8
    4  A    between atoms: C_6  and  C_16
    5  A    between atoms: C_8  and  C_14
    6  A    between atoms: C_14  and  N_19
    7  A    between atoms: C_21  and  C_25
                            x       y       z     vdW  Elec       q    Type
                         _______ _______ _______ _____ _____    ______ ____

>  <TORSDO>
F 7

$$$$
