=
 OpenBabel10222415373D

 40 45  0  0  1  0  0  0  0  0999 V2000
  187.3300  179.0620  147.4970 C   0  0  0  0  0  3  0  0  0  0  0  0
  183.3100  178.7040  141.9280 C   0  0  0  0  0  2  0  0  0  0  0  0
  186.7210  178.0910  142.8110 C   0  0  0  0  0  0  0  0  0  0  0  0
  191.2250  177.9140  141.3960 C   0  0  1  0  0  3  0  0  0  0  0  0
  190.3700  177.2540  143.6800 C   0  0  1  0  0  3  0  0  0  0  0  0
  184.8240  178.3160  143.8930 C   0  0  0  0  0  0  0  0  0  0  0  0
  186.9450  177.8340  145.3490 C   0  0  0  0  0  0  0  0  0  0  0  0
  186.7450  178.9700  146.3010 C   0  0  0  0  0  3  0  0  0  0  0  0
  189.9560  177.2210  140.8760 C   0  0  0  0  0  2  0  0  0  0  0  0
  188.3370  178.1380  148.0610 C   0  0  0  0  0  0  0  0  0  0  0  0
  188.4070  177.6570  145.0110 C   0  0  0  0  0  0  0  0  0  0  0  0
  188.1520  177.8460  142.5650 C   0  0  0  0  0  0  0  0  0  0  0  0
  186.1690  178.0870  144.0820 C   0  0  0  0  0  0  0  0  0  0  0  0
  189.2530  177.4760  147.3420 C   0  0  0  0  0  3  0  0  0  0  0  0
  184.6480  178.4330  142.5350 C   0  0  0  0  0  0  0  0  0  0  0  0
  188.3910  178.0190  149.4430 O   0  0  0  0  0  1  0  0  0  0  0  0
  188.6970  178.0300  141.1690 C   0  0  0  0  0  2  0  0  0  0  0  0
  189.3910  177.4730  145.8730 C   0  0  0  0  0  0  0  0  0  0  0  0
  190.7110  177.2750  145.1760 C   0  0  1  0  0  3  0  0  0  0  0  0
  183.6950  178.3230  144.8710 C   0  0  0  0  0  2  0  0  0  0  0  0
  182.2420  178.2910  142.8610 N   0  0  0  0  0  0  0  0  0  0  0  0
  185.7940  178.3090  141.9000 O   0  0  0  0  0  0  0  0  0  0  0  0
  188.9210  177.6060  143.6480 C   0  0  2  0  0  3  0  0  0  0  0  0
  191.1830  178.2680  142.8910 C   0  0  0  0  0  2  0  0  0  0  0  0
  182.4450  178.9000  144.1870 C   0  0  0  0  0  2  0  0  0  0  0  0
  191.3720  175.9890  145.5830 C   0  0  0  0  0  0  0  0  0  0  0  0
  191.5760  175.1290  144.7420 O   0  0  0  0  0  0  0  0  0  0  0  0
  191.7830  175.7430  146.9990 C   0  0  0  0  0  1  0  0  0  0  0  0
  180.7110  180.0820  142.6020 O   0  0  0  0  0  1  0  0  0  0  0  0
  180.9360  178.7220  142.3550 C   0  0  1  0  0  3  0  0  0  0  0  0
  180.8400  178.4670  140.9850 O   0  0  0  0  0  0  0  0  0  0  0  0
  179.5260  178.0340  140.7950 C   0  0  0  0  0  2  0  0  0  0  0  0
  179.5220  176.6150  140.2580 C   0  0  1  0  0  3  0  0  0  0  0  0
  180.9060  176.2690  139.7490 C   0  0  0  0  0  1  0  0  0  0  0  0
  179.1530  175.6900  141.3150 N   0  0  0  0  0  1  0  0  0  0  0  0
  192.3300  177.0990  141.1430 O   0  0  0  0  0  0  0  0  0  0  0  0
  192.9630  177.6850  140.0440 C   0  0  0  0  0  2  0  0  0  0  0  0
  193.0350  176.7040  138.9290 C   0  0  0  0  0  0  0  0  0  0  0  0
  194.1990  175.9780  138.7170 O   0  0  0  0  0  1  0  0  0  0  0  0
  192.0290  176.5050  138.2010 O   0  0  0  0  0  0  0  0  0  0  0  0
  1 10  1  0  0  0  0
  2 15  1  0  0  0  0
  2 21  1  0  0  0  0
  3 13  1  0  0  0  0
  4 36  1  1  0  0  0
  4 24  1  0  0  0  0
  5 24  1  6  0  0  0
  5 19  1  0  0  0  0
  6 13  1  0  0  0  0
  6 20  1  0  0  0  0
  7  8  1  0  0  0  0
  8  1  2  0  0  0  0
  9 17  1  0  0  0  0
  9  4  1  0  0  0  0
 10 16  1  0  0  0  0
 11  7  1  0  0  0  0
 11 18  2  0  0  0  0
 12  3  2  0  0  0  0
 13  7  2  0  0  0  0
 14 10  2  0  0  0  0
 15  6  2  0  0  0  0
 17 12  1  0  0  0  0
 18 14  1  0  0  0  0
 19 26  1  1  0  0  0
 19 18  1  0  0  0  0
 21 25  1  0  0  0  0
 22 15  1  0  0  0  0
 22  3  1  0  0  0  0
 23 12  1  6  0  0  0
 23  5  1  0  0  0  0
 23 11  1  0  0  0  0
 25 20  1  0  0  0  0
 26 28  1  0  0  0  0
 27 26  2  0  0  0  0
 30 29  1  6  0  0  0
 30 21  1  0  0  0  0
 31 30  1  0  0  0  0
 32 31  1  0  0  0  0
 33 34  1  1  0  0  0
 33 32  1  0  0  0  0
 33 35  1  0  0  0  0
 37 36  1  0  0  0  0
 38 37  1  0  0  0  0
 39 38  1  0  0  0  0
 40 38  2  0  0  0  0
M  END
>  <MODEL>
1

>  <REMARK>
 VINA RESULT:      -9.1      0.000      0.000
  Name = 
  8 active torsions:
  status: ('A' for Active; 'I' for Inactive)
    1  A    between atoms: O_3  and  C_4
    2  A    between atoms: O_3  and  C_19
    3  A    between atoms: C_4  and  C_25
    4  A    between atoms: C_6  and  O_38
    5  A    between atoms: C_7  and  C_30
    6  A    between atoms: C_15  and  C_20
    7  A    between atoms: C_19  and  N_33
    8  A    between atoms: C_20  and  O_38
                            x       y       z     vdW  Elec       q    Type
                         _______ _______ _______ _____ _____    ______ ____

>  <TORSDO>
F 8

$$$$
=
 OpenBabel10222415373D

 40 45  0  0  1  0  0  0  0  0999 V2000
  188.6000  176.7850  138.6660 C   0  0  0  0  0  3  0  0  0  0  0  0
  182.4440  179.1910  140.5680 C   0  0  0  0  0  2  0  0  0  0  0  0
  185.6000  178.4300  142.0670 C   0  0  0  0  0  0  0  0  0  0  0  0
  187.9450  177.1280  145.9570 C   0  0  1  0  0  3  0  0  0  0  0  0
  188.9930  177.7910  143.7560 C   0  0  1  0  0  3  0  0  0  0  0  0
  184.8630  178.7830  140.0300 C   0  0  0  0  0  0  0  0  0  0  0  0
  187.4230  178.3020  140.2740 C   0  0  0  0  0  0  0  0  0  0  0  0
  187.4790  177.2160  139.2480 C   0  0  0  0  0  3  0  0  0  0  0  0
  186.9730  178.2860  145.6820 C   0  0  0  0  0  2  0  0  0  0  0  0
  189.9790  177.2140  138.9810 C   0  0  0  0  0  0  0  0  0  0  0  0
  188.3020  177.9760  141.4590 C   0  0  0  0  0  0  0  0  0  0  0  0
  186.5370  178.1680  143.1730 C   0  0  0  0  0  0  0  0  0  0  0  0
  186.0040  178.4900  140.7430 C   0  0  1  0  0  3  0  0  0  0  0  0
  190.4070  177.5780  140.1970 C   0  0  0  0  0  3  0  0  0  0  0  0
  183.8550  178.8910  140.9590 C   0  0  0  0  0  0  0  0  0  0  0  0
  190.9170  177.1500  137.9590 O   0  0  0  0  0  1  0  0  0  0  0  0
  185.9890  177.9580  144.5630 C   0  0  0  0  0  2  0  0  0  0  0  0
  189.5920  177.6950  141.4220 C   0  0  0  0  0  0  0  0  0  0  0  0
  190.1550  177.4810  142.8030 C   0  0  1  0  0  3  0  0  0  0  0  0
  184.6750  179.0750  138.5780 C   0  0  0  0  0  2  0  0  0  0  0  0
  182.4180  179.8540  139.2490 N   0  0  0  0  0  0  0  0  0  0  0  0
  184.3080  178.6640  142.1740 O   0  0  0  0  0  0  0  0  0  0  0  0
  187.8340  177.9910  142.8410 C   0  0  0  0  0  0  0  0  0  0  0  0
  188.7210  176.6480  144.7200 C   0  0  0  0  0  2  0  0  0  0  0  0
  183.1720  179.0680  138.2570 C   0  0  0  0  0  2  0  0  0  0  0  0
  191.3200  178.3870  143.0790 C   0  0  0  0  0  0  0  0  0  0  0  0
  192.3950  178.1580  142.5480 O   0  0  0  0  0  0  0  0  0  0  0  0
  191.1900  179.5630  143.9930 C   0  0  0  0  0  1  0  0  0  0  0  0
  180.1920  180.4700  139.7810 O   0  0  0  0  0  1  0  0  0  0  0  0
  181.0370  179.9830  138.7760 C   0  0  1  0  0  3  0  0  0  0  0  0
  180.9830  180.8250  137.6630 O   0  0  0  0  0  0  0  0  0  0  0  0
  181.2430  182.1000  138.1700 C   0  0  0  0  0  2  0  0  0  0  0  0
  180.6280  183.1510  137.2650 C   0  0  1  0  0  3  0  0  0  0  0  0
  181.5250  184.3700  137.2320 C   0  0  0  0  0  1  0  0  0  0  0  0
  180.4880  182.6200  135.9200 N   0  0  0  0  0  1  0  0  0  0  0  0
  188.8480  177.5130  146.9500 O   0  0  0  0  0  0  0  0  0  0  0  0
  189.6920  176.4120  147.1140 C   0  0  0  0  0  2  0  0  0  0  0  0
  191.1020  176.8750  147.2030 C   0  0  0  0  0  0  0  0  0  0  0  0
  191.9320  176.7900  146.0930 O   0  0  0  0  0  0  0  0  0  0  0  0
  191.5330  177.3790  148.2720 O   0  0  0  0  0  1  0  0  0  0  0  0
  1 10  2  0  0  0  0
  1  8  1  0  0  0  0
  2 15  1  0  0  0  0
  3 22  1  0  0  0  0
  3 12  2  0  0  0  0
  4 36  1  1  0  0  0
  5 24  1  1  0  0  0
  6 15  2  0  0  0  0
  7 13  1  0  0  0  0
  7 11  1  0  0  0  0
  8  7  2  0  0  0  0
  9  4  1  0  0  0  0
 10 14  1  0  0  0  0
 11 23  2  0  0  0  0
 12 17  1  0  0  0  0
 13  6  1  1  0  0  0
 13  3  1  0  0  0  0
 14 18  2  0  0  0  0
 15 22  1  0  0  0  0
 16 10  1  0  0  0  0
 17  9  1  0  0  0  0
 18 11  1  0  0  0  0
 18 19  1  0  0  0  0
 19 26  1  1  0  0  0
 19  5  1  0  0  0  0
 20  6  1  0  0  0  0
 21  2  1  0  0  0  0
 23 12  1  0  0  0  0
 23  5  1  0  0  0  0
 24  4  1  0  0  0  0
 25 20  1  0  0  0  0
 25 21  1  0  0  0  0
 26 28  1  0  0  0  0
 27 26  2  0  0  0  0
 30 21  1  0  0  0  0
 30 29  1  1  0  0  0
 31 32  1  0  0  0  0
 31 30  1  0  0  0  0
 33 34  1  6  0  0  0
 33 32  1  0  0  0  0
 35 33  1  0  0  0  0
 36 37  1  0  0  0  0
 37 38  1  0  0  0  0
 38 40  1  0  0  0  0
 39 38  2  0  0  0  0
M  END
>  <MODEL>
2

>  <REMARK>
 VINA RESULT:      -8.4      2.940      5.867
  Name = 
  8 active torsions:
  status: ('A' for Active; 'I' for Inactive)
    1  A    between atoms: O_3  and  C_4
    2  A    between atoms: O_3  and  C_19
    3  A    between atoms: C_4  and  C_25
    4  A    between atoms: C_6  and  O_38
    5  A    between atoms: C_7  and  C_30
    6  A    between atoms: C_15  and  C_20
    7  A    between atoms: C_19  and  N_33
    8  A    between atoms: C_20  and  O_38
                            x       y       z     vdW  Elec       q    Type
                         _______ _______ _______ _____ _____    ______ ____

>  <TORSDO>
F 8

$$$$
=
 OpenBabel10222415373D

 40 45  0  0  1  0  0  0  0  0999 V2000
  187.1090  178.6900  146.5340 C   0  0  0  0  0  3  0  0  0  0  0  0
  183.1140  178.9550  140.9410 C   0  0  0  0  0  2  0  0  0  0  0  0
  186.5010  178.1660  141.7770 C   0  0  0  0  0  0  0  0  0  0  0  0
  191.0070  177.9890  140.3680 C   0  0  1  0  0  3  0  0  0  0  0  0
  190.1190  177.1490  142.5790 C   0  0  1  0  0  3  0  0  0  0  0  0
  184.6050  178.3470  142.8680 C   0  0  0  0  0  0  0  0  0  0  0  0
  186.7020  177.6740  144.2810 C   0  0  0  0  0  0  0  0  0  0  0  0
  186.5290  178.7240  145.3320 C   0  0  0  0  0  3  0  0  0  0  0  0
  189.7230  177.3830  139.7830 C   0  0  0  0  0  2  0  0  0  0  0  0
  188.0850  177.6910  147.0150 C   0  0  0  0  0  0  0  0  0  0  0  0
  188.1600  177.4870  143.9350 C   0  0  0  0  0  0  0  0  0  0  0  0
  187.9260  177.9040  141.5150 C   0  0  0  0  0  0  0  0  0  0  0  0
  185.9410  178.0630  143.0400 C   0  0  0  0  0  0  0  0  0  0  0  0
  188.9870  177.0700  146.2430 C   0  0  0  0  0  3  0  0  0  0  0  0
  184.4410  178.5920  141.5260 C   0  0  0  0  0  0  0  0  0  0  0  0
  188.1270  177.4450  148.3810 O   0  0  0  0  0  1  0  0  0  0  0  0
  188.4850  178.1970  140.1440 C   0  0  0  0  0  2  0  0  0  0  0  0
  189.1330  177.1970  144.7800 C   0  0  0  0  0  0  0  0  0  0  0  0
  190.4520  177.0240  144.0720 C   0  0  1  0  0  3  0  0  0  0  0  0
  183.4700  178.2970  143.8380 C   0  0  0  0  0  2  0  0  0  0  0  0
  182.0300  178.4890  141.8290 N   0  0  0  0  0  0  0  0  0  0  0  0
  185.5860  178.4920  140.8860 O   0  0  0  0  0  0  0  0  0  0  0  0
  188.6820  177.5440  142.5740 C   0  0  2  0  0  3  0  0  0  0  0  0
  190.9660  178.2070  141.8890 C   0  0  0  0  0  2  0  0  0  0  0  0
  182.2410  178.9700  143.2050 C   0  0  0  0  0  2  0  0  0  0  0  0
  191.0740  175.6890  144.3640 C   0  0  0  0  0  0  0  0  0  0  0  0
  190.9280  174.7750  143.5680 O   0  0  0  0  0  0  0  0  0  0  0  0
  191.8660  175.4570  145.6100 C   0  0  0  0  0  1  0  0  0  0  0  0
  179.6700  178.2640  141.8840 O   0  0  0  0  0  1  0  0  0  0  0  0
  180.7390  179.0020  141.3590 C   0  0  1  0  0  3  0  0  0  0  0  0
  180.6000  180.3480  141.7050 O   0  0  0  0  0  0  0  0  0  0  0  0
  179.6650  180.8530  140.7980 C   0  0  0  0  0  2  0  0  0  0  0  0
  180.1240  180.5810  139.3780 C   0  0  1  0  0  3  0  0  0  0  0  0
  178.9310  180.6390  138.4470 C   0  0  0  0  0  1  0  0  0  0  0  0
  181.0980  181.5810  138.9760 N   0  0  0  0  0  1  0  0  0  0  0  0
  192.0900  177.1690  140.0460 O   0  0  0  0  0  0  0  0  0  0  0  0
  191.7110  176.5200  138.8680 C   0  0  0  0  0  2  0  0  0  0  0  0
  192.9000  176.3390  137.9940 C   0  0  0  0  0  0  0  0  0  0  0  0
  194.0850  175.8510  138.5270 O   0  0  0  0  0  1  0  0  0  0  0  0
  192.8220  176.5930  136.7650 O   0  0  0  0  0  0  0  0  0  0  0  0
  1 10  1  0  0  0  0
  2 15  1  0  0  0  0
  2 21  1  0  0  0  0
  3 13  1  0  0  0  0
  4 36  1  1  0  0  0
  4 24  1  0  0  0  0
  5 24  1  1  0  0  0
  5 19  1  0  0  0  0
  6 13  1  0  0  0  0
  6 20  1  0  0  0  0
  7  8  1  0  0  0  0
  8  1  2  0  0  0  0
  9 17  1  0  0  0  0
  9  4  1  0  0  0  0
 10 16  1  0  0  0  0
 11  7  1  0  0  0  0
 11 18  2  0  0  0  0
 12  3  2  0  0  0  0
 13  7  2  0  0  0  0
 14 10  2  0  0  0  0
 15  6  2  0  0  0  0
 17 12  1  0  0  0  0
 18 14  1  0  0  0  0
 19 26  1  6  0  0  0
 19 18  1  0  0  0  0
 21 25  1  0  0  0  0
 22 15  1  0  0  0  0
 22  3  1  0  0  0  0
 23 12  1  6  0  0  0
 23  5  1  0  0  0  0
 23 11  1  0  0  0  0
 25 20  1  0  0  0  0
 26 28  1  0  0  0  0
 27 26  2  0  0  0  0
 30 31  1  0  0  0  0
 30 21  1  0  0  0  0
 30 29  1  1  0  0  0
 32 31  1  0  0  0  0
 33 34  1  6  0  0  0
 33 32  1  0  0  0  0
 35 33  1  0  0  0  0
 37 36  1  0  0  0  0
 38 39  1  0  0  0  0
 38 37  1  0  0  0  0
 40 38  2  0  0  0  0
M  END
>  <MODEL>
3

>  <REMARK>
 VINA RESULT:      -8.2      1.528      1.926
  Name = 
  8 active torsions:
  status: ('A' for Active; 'I' for Inactive)
    1  A    between atoms: O_3  and  C_4
    2  A    between atoms: O_3  and  C_19
    3  A    between atoms: C_4  and  C_25
    4  A    between atoms: C_6  and  O_38
    5  A    between atoms: C_7  and  C_30
    6  A    between atoms: C_15  and  C_20
    7  A    between atoms: C_19  and  N_33
    8  A    between atoms: C_20  and  O_38
                            x       y       z     vdW  Elec       q    Type
                         _______ _______ _______ _____ _____    ______ ____

>  <TORSDO>
F 8

$$$$
=
 OpenBabel10222415373D

 40 45  0  0  1  0  0  0  0  0999 V2000
  193.4280  177.1080  139.7690 C   0  0  0  0  0  3  0  0  0  0  0  0
  188.5440  177.6270  144.5840 C   0  0  0  0  0  2  0  0  0  0  0  0
  188.7810  177.4470  141.0200 C   0  0  0  0  0  0  0  0  0  0  0  0
  186.8650  178.5540  136.8460 C   0  0  1  0  0  3  0  0  0  0  0  0
  188.9060  177.1070  137.1930 C   0  0  1  0  0  3  0  0  0  0  0  0
  190.0930  176.9800  142.7160 C   0  0  0  0  0  0  0  0  0  0  0  0
  191.0620  176.5100  140.3310 C   0  0  0  0  0  0  0  0  0  0  0  0
  192.3420  177.2580  140.5290 C   0  0  0  0  0  3  0  0  0  0  0  0
  186.3050  177.8140  138.0690 C   0  0  0  0  0  2  0  0  0  0  0  0
  193.5480  176.2700  138.5570 C   0  0  0  0  0  0  0  0  0  0  0  0
  190.5180  176.7220  138.9390 C   0  0  1  0  0  3  0  0  0  0  0  0
  188.3040  177.5630  139.6310 C   0  0  0  0  0  0  0  0  0  0  0  0
  190.0410  176.9670  141.3410 C   0  0  0  0  0  0  0  0  0  0  0  0
  192.5550  176.0340  137.6900 C   0  0  0  0  0  3  0  0  0  0  0  0
  188.8730  177.4520  143.1360 C   0  0  0  0  0  0  0  0  0  0  0  0
  194.8060  175.7660  138.2520 O   0  0  0  0  0  1  0  0  0  0  0  0
  186.9850  178.2450  139.3650 C   0  0  0  0  0  2  0  0  0  0  0  0
  191.1550  176.4860  137.8060 C   0  0  0  0  0  0  0  0  0  0  0  0
  190.2810  176.7550  136.6090 C   0  0  1  0  0  3  0  0  0  0  0  0
  191.1480  176.4850  143.6510 C   0  0  0  0  0  2  0  0  0  0  0  0
  189.4170  176.7630  145.4040 N   0  0  0  0  0  0  0  0  0  0  0  0
  188.1010  177.7390  142.1100 O   0  0  0  0  0  0  0  0  0  0  0  0
  189.1570  177.1690  138.6620 C   0  0  0  0  0  0  0  0  0  0  0  0
  188.3890  178.4420  136.6830 C   0  0  0  0  0  2  0  0  0  0  0  0
  190.8330  176.9870  145.0700 C   0  0  0  0  0  2  0  0  0  0  0  0
  190.1810  175.5580  135.7080 C   0  0  0  0  0  0  0  0  0  0  0  0
  190.8190  175.5380  134.6680 O   0  0  0  0  0  0  0  0  0  0  0  0
  189.3130  174.3930  136.0590 C   0  0  0  0  0  1  0  0  0  0  0  0
  190.4160  176.8890  147.5510 O   0  0  0  0  0  1  0  0  0  0  0  0
  189.2300  177.0650  146.8270 C   0  0  1  0  0  3  0  0  0  0  0  0
  188.7680  178.3740  146.9860 O   0  0  0  0  0  0  0  0  0  0  0  0
  187.5690  178.2440  147.6920 C   0  0  0  0  0  2  0  0  0  0  0  0
  186.4490  178.9340  146.9380 C   0  0  1  0  0  3  0  0  0  0  0  0
  185.3690  177.9250  146.6110 C   0  0  0  0  0  1  0  0  0  0  0  0
  185.8850  179.9940  147.7570 N   0  0  0  0  0  1  0  0  0  0  0  0
  186.2390  178.0750  135.6930 O   0  0  0  0  0  0  0  0  0  0  0  0
  185.2510  177.2040  136.1570 C   0  0  0  0  0  2  0  0  0  0  0  0
  185.3870  175.8890  135.4770 C   0  0  0  0  0  0  0  0  0  0  0  0
  186.4510  175.6600  134.6150 O   0  0  0  0  0  0  0  0  0  0  0  0
  184.5600  174.9710  135.7120 O   0  0  0  0  0  1  0  0  0  0  0  0
  1  8  1  0  0  0  0
  2 21  1  0  0  0  0
  3 13  2  0  0  0  0
  3 22  1  0  0  0  0
  4 36  1  6  0  0  0
  4  9  1  0  0  0  0
  5 24  1  6  0  0  0
  5 23  1  0  0  0  0
  6 15  2  0  0  0  0
  6 20  1  0  0  0  0
  7  8  2  0  0  0  0
  7 13  1  0  0  0  0
  9 17  1  0  0  0  0
 10  1  2  0  0  0  0
 11 18  1  6  0  0  0
 11  7  1  0  0  0  0
 12  3  1  0  0  0  0
 13  6  1  0  0  0  0
 14 18  2  0  0  0  0
 14 10  1  0  0  0  0
 15  2  1  0  0  0  0
 16 10  1  0  0  0  0
 17 12  1  0  0  0  0
 19 26  1  6  0  0  0
 19  5  1  0  0  0  0
 19 18  1  0  0  0  0
 20 25  1  0  0  0  0
 21 30  1  0  0  0  0
 22 15  1  0  0  0  0
 23 11  1  0  0  0  0
 23 12  2  0  0  0  0
 24  4  1  0  0  0  0
 25 21  1  0  0  0  0
 26 28  1  0  0  0  0
 27 26  2  0  0  0  0
 30 31  1  0  0  0  0
 30 29  1  1  0  0  0
 31 32  1  0  0  0  0
 33 34  1  1  0  0  0
 33 32  1  0  0  0  0
 33 35  1  0  0  0  0
 36 37  1  0  0  0  0
 38 40  1  0  0  0  0
 38 37  1  0  0  0  0
 39 38  2  0  0  0  0
M  END
>  <MODEL>
4

>  <REMARK>
 VINA RESULT:      -7.7      3.821      8.209
  Name = 
  8 active torsions:
  status: ('A' for Active; 'I' for Inactive)
    1  A    between atoms: O_3  and  C_4
    2  A    between atoms: O_3  and  C_19
    3  A    between atoms: C_4  and  C_25
    4  A    between atoms: C_6  and  O_38
    5  A    between atoms: C_7  and  C_30
    6  A    between atoms: C_15  and  C_20
    7  A    between atoms: C_19  and  N_33
    8  A    between atoms: C_20  and  O_38
                            x       y       z     vdW  Elec       q    Type
                         _______ _______ _______ _____ _____    ______ ____

>  <TORSDO>
F 8

$$$$
=
 OpenBabel10222415373D

 40 45  0  0  1  0  0  0  0  0999 V2000
  189.2110  178.7020  137.3660 C   0  0  0  0  0  3  0  0  0  0  0  0
  188.8900  178.0350  144.2030 C   0  0  0  0  0  2  0  0  0  0  0  0
  186.6460  178.2530  141.4260 C   0  0  0  0  0  0  0  0  0  0  0  0
  182.3660  179.4950  139.8590 C   0  0  1  0  0  3  0  0  0  0  0  0
  184.1490  178.3230  138.5060 C   0  0  1  0  0  3  0  0  0  0  0  0
  188.7780  177.8060  141.7050 C   0  0  0  0  0  0  0  0  0  0  0  0
  187.8820  177.7210  139.2480 C   0  0  0  0  0  0  0  0  0  0  0  0
  188.9280  178.6190  138.6670 C   0  0  0  0  0  3  0  0  0  0  0  0
  182.8140  178.5630  140.9950 C   0  0  0  0  0  2  0  0  0  0  0  0
  188.5050  178.0170  136.2630 C   0  0  0  0  0  0  0  0  0  0  0  0
  186.5290  177.9940  138.6350 C   0  0  1  0  0  3  0  0  0  0  0  0
  185.3490  178.4400  140.7560 C   0  0  0  0  0  0  0  0  0  0  0  0
  187.8040  177.9260  140.7390 C   0  0  0  0  0  0  0  0  0  0  0  0
  187.1970  177.7320  136.2550 C   0  0  0  0  0  3  0  0  0  0  0  0
  188.1520  178.0560  142.9040 C   0  0  0  0  0  0  0  0  0  0  0  0
  189.2360  177.7280  135.1180 O   0  0  0  0  0  1  0  0  0  0  0  0
  184.1770  178.9530  141.5570 C   0  0  0  0  0  2  0  0  0  0  0  0
  186.2340  177.9670  137.3480 C   0  0  0  0  0  0  0  0  0  0  0  0
  184.7700  178.2300  137.1060 C   0  0  1  0  0  3  0  0  0  0  0  0
  190.2030  177.3730  141.5980 C   0  0  0  0  0  2  0  0  0  0  0  0
  190.1170  177.2250  144.0720 N   0  0  0  0  0  0  0  0  0  0  0  0
  186.8790  178.3340  142.7210 O   0  0  0  0  0  0  0  0  0  0  0  0
  185.3290  178.2710  139.4160 C   0  0  0  0  0  0  0  0  0  0  0  0
  183.3760  179.6170  138.7070 C   0  0  0  0  0  2  0  0  0  0  0  0
  190.9200  177.6790  142.9230 C   0  0  0  0  0  2  0  0  0  0  0  0
  184.1260  177.1290  136.3150 C   0  0  0  0  0  0  0  0  0  0  0  0
  183.9840  177.2620  135.1110 O   0  0  0  0  0  0  0  0  0  0  0  0
  183.6550  175.8720  136.9740 C   0  0  0  0  0  1  0  0  0  0  0  0
  192.0550  178.1660  145.0610 O   0  0  0  0  0  1  0  0  0  0  0  0
  190.9370  177.3520  145.2800 C   0  0  1  0  0  3  0  0  0  0  0  0
  190.1730  177.8690  146.3300 O   0  0  0  0  0  0  0  0  0  0  0  0
  189.7530  176.7470  147.0490 C   0  0  0  0  0  2  0  0  0  0  0  0
  188.5580  177.1050  147.9110 C   0  0  1  0  0  3  0  0  0  0  0  0
  188.9250  178.2550  148.8250 C   0  0  0  0  0  1  0  0  0  0  0  0
  187.4430  177.4990  147.0670 N   0  0  0  0  0  1  0  0  0  0  0  0
  181.1410  179.0520  139.3580 O   0  0  0  0  0  0  0  0  0  0  0  0
  180.2520  179.1680  140.4280 C   0  0  0  0  0  2  0  0  0  0  0  0
  179.7630  180.5700  140.5200 C   0  0  0  0  0  0  0  0  0  0  0  0
  179.6800  181.1960  141.7560 O   0  0  0  0  0  1  0  0  0  0  0  0
  179.4610  181.2010  139.4750 O   0  0  0  0  0  0  0  0  0  0  0  0
  1  8  1  0  0  0  0
  3 22  1  0  0  0  0
  4 36  1  6  0  0  0
  4  9  1  0  0  0  0
  5 24  1  6  0  0  0
  5 23  1  0  0  0  0
  6 15  2  0  0  0  0
  7 13  1  0  0  0  0
  8  7  2  0  0  0  0
  9 17  1  0  0  0  0
 10  1  2  0  0  0  0
 11 18  1  1  0  0  0
 11  7  1  0  0  0  0
 11 23  1  0  0  0  0
 12  3  1  0  0  0  0
 12 17  1  0  0  0  0
 13  3  2  0  0  0  0
 13  6  1  0  0  0  0
 14 10  1  0  0  0  0
 14 18  2  0  0  0  0
 15  2  1  0  0  0  0
 16 10  1  0  0  0  0
 19 26  1  6  0  0  0
 19 18  1  0  0  0  0
 19  5  1  0  0  0  0
 20  6  1  0  0  0  0
 20 25  1  0  0  0  0
 21  2  1  0  0  0  0
 21 30  1  0  0  0  0
 22 15  1  0  0  0  0
 23 12  2  0  0  0  0
 24  4  1  0  0  0  0
 25 21  1  0  0  0  0
 26 28  1  0  0  0  0
 27 26  2  0  0  0  0
 30 29  1  6  0  0  0
 30 31  1  0  0  0  0
 31 32  1  0  0  0  0
 32 33  1  0  0  0  0
 33 34  1  1  0  0  0
 35 33  1  0  0  0  0
 36 37  1  0  0  0  0
 37 38  1  0  0  0  0
 38 39  1  0  0  0  0
 40 38  2  0  0  0  0
M  END
>  <MODEL>
5

>  <REMARK>
 VINA RESULT:      -7.5      3.354      9.776
  Name = 
  8 active torsions:
  status: ('A' for Active; 'I' for Inactive)
    1  A    between atoms: O_3  and  C_4
    2  A    between atoms: O_3  and  C_19
    3  A    between atoms: C_4  and  C_25
    4  A    between atoms: C_6  and  O_38
    5  A    between atoms: C_7  and  C_30
    6  A    between atoms: C_15  and  C_20
    7  A    between atoms: C_19  and  N_33
    8  A    between atoms: C_20  and  O_38
                            x       y       z     vdW  Elec       q    Type
                         _______ _______ _______ _____ _____    ______ ____

>  <TORSDO>
F 8

$$$$
=
 OpenBabel10222415373D

 40 45  0  0  1  0  0  0  0  0999 V2000
  193.3300  177.0990  139.4010 C   0  0  0  0  0  3  0  0  0  0  0  0
  188.3220  177.9810  144.0310 C   0  0  0  0  0  2  0  0  0  0  0  0
  188.6490  177.4670  140.5070 C   0  0  0  0  0  0  0  0  0  0  0  0
  186.8180  178.1340  136.2040 C   0  0  1  0  0  3  0  0  0  0  0  0
  188.8740  176.7660  136.7350 C   0  0  1  0  0  3  0  0  0  0  0  0
  189.9270  177.1890  142.2700 C   0  0  0  0  0  0  0  0  0  0  0  0
  190.9620  176.5120  139.9640 C   0  0  0  0  0  0  0  0  0  0  0  0
  192.2230  177.3000  140.1180 C   0  0  0  0  0  3  0  0  0  0  0  0
  186.2400  177.5030  137.4800 C   0  0  0  0  0  2  0  0  0  0  0  0
  193.4950  176.1520  138.2780 C   0  0  0  0  0  0  0  0  0  0  0  0
  190.4480  176.5800  138.5450 C   0  0  1  0  0  3  0  0  0  0  0  0
  188.2050  177.4400  139.1040 C   0  0  0  0  0  0  0  0  0  0  0  0
  189.9090  177.0440  140.9010 C   0  0  0  0  0  0  0  0  0  0  0  0
  192.5270  175.8160  137.4150 C   0  0  0  0  0  3  0  0  0  0  0  0
  188.6890  177.6750  142.6150 C   0  0  0  0  0  0  0  0  0  0  0  0
  194.7670  175.6450  138.0510 O   0  0  0  0  0  1  0  0  0  0  0  0
  186.8810  178.0690  138.7430 C   0  0  0  0  0  2  0  0  0  0  0  0
  191.1170  176.2490  137.4550 C   0  0  0  0  0  0  0  0  0  0  0  0
  190.2680  176.3870  136.2180 C   0  0  1  0  0  3  0  0  0  0  0  0
  190.9670  176.8060  143.2720 C   0  0  0  0  0  2  0  0  0  0  0  0
  189.1890  177.2170  144.9510 N   0  0  0  0  0  0  0  0  0  0  0  0
  187.9380  177.8490  141.5490 O   0  0  0  0  0  0  0  0  0  0  0  0
  189.0880  176.9730  138.1960 C   0  0  0  0  0  0  0  0  0  0  0  0
  188.3470  178.0360  136.0880 C   0  0  0  0  0  2  0  0  0  0  0  0
  190.6090  177.4340  144.6290 C   0  0  0  0  0  2  0  0  0  0  0  0
  190.2100  175.1080  135.4340 C   0  0  0  0  0  0  0  0  0  0  0  0
  191.1090  174.8450  134.6520 O   0  0  0  0  0  0  0  0  0  0  0  0
  189.0720  174.1510  135.5910 C   0  0  0  0  0  1  0  0  0  0  0  0
  187.6020  177.8660  146.5890 O   0  0  0  0  0  1  0  0  0  0  0  0
  188.9620  177.6490  146.3330 C   0  0  1  0  0  3  0  0  0  0  0  0
  189.4660  176.6990  147.2250 O   0  0  0  0  0  0  0  0  0  0  0  0
  190.6970  177.2150  147.6360 C   0  0  0  0  0  2  0  0  0  0  0  0
  191.6490  176.0820  147.9630 C   0  0  1  0  0  3  0  0  0  0  0  0
  192.0940  175.4150  146.6780 C   0  0  0  0  0  1  0  0  0  0  0  0
  192.8110  176.6010  148.6620 N   0  0  0  0  0  1  0  0  0  0  0  0
  186.2280  177.5360  135.0890 O   0  0  0  0  0  0  0  0  0  0  0  0
  184.9700  177.1200  135.5280 C   0  0  0  0  0  2  0  0  0  0  0  0
  184.7350  175.7130  135.1080 C   0  0  0  0  0  0  0  0  0  0  0  0
  183.4720  175.1510  135.2390 O   0  0  0  0  0  1  0  0  0  0  0  0
  185.6710  175.0430  134.5990 O   0  0  0  0  0  0  0  0  0  0  0  0
  1  8  1  0  0  0  0
  2 21  1  0  0  0  0
  3 13  2  0  0  0  0
  3 22  1  0  0  0  0
  4 36  1  6  0  0  0
  4  9  1  0  0  0  0
  5 24  1  6  0  0  0
  5 23  1  0  0  0  0
  6 15  2  0  0  0  0
  6 20  1  0  0  0  0
  7  8  2  0  0  0  0
  7 13  1  0  0  0  0
  9 17  1  0  0  0  0
 10  1  2  0  0  0  0
 11 18  1  1  0  0  0
 11  7  1  0  0  0  0
 12  3  1  0  0  0  0
 13  6  1  0  0  0  0
 14 18  2  0  0  0  0
 14 10  1  0  0  0  0
 15  2  1  0  0  0  0
 16 10  1  0  0  0  0
 17 12  1  0  0  0  0
 19 26  1  1  0  0  0
 19  5  1  0  0  0  0
 19 18  1  0  0  0  0
 20 25  1  0  0  0  0
 21 30  1  0  0  0  0
 22 15  1  0  0  0  0
 23 11  1  0  0  0  0
 23 12  2  0  0  0  0
 24  4  1  0  0  0  0
 25 21  1  0  0  0  0
 26 28  1  0  0  0  0
 27 26  2  0  0  0  0
 30 29  1  1  0  0  0
 30 31  1  0  0  0  0
 31 32  1  0  0  0  0
 32 33  1  0  0  0  0
 33 34  1  6  0  0  0
 33 35  1  0  0  0  0
 36 37  1  0  0  0  0
 38 39  1  0  0  0  0
 38 37  1  0  0  0  0
 40 38  2  0  0  0  0
M  END
>  <MODEL>
6

>  <REMARK>
 VINA RESULT:      -7.4      4.116      8.946
  Name = 
  8 active torsions:
  status: ('A' for Active; 'I' for Inactive)
    1  A    between atoms: O_3  and  C_4
    2  A    between atoms: O_3  and  C_19
    3  A    between atoms: C_4  and  C_25
    4  A    between atoms: C_6  and  O_38
    5  A    between atoms: C_7  and  C_30
    6  A    between atoms: C_15  and  C_20
    7  A    between atoms: C_19  and  N_33
    8  A    between atoms: C_20  and  O_38
                            x       y       z     vdW  Elec       q    Type
                         _______ _______ _______ _____ _____    ______ ____

>  <TORSDO>
F 8

$$$$
=
 OpenBabel10222415373D

 40 45  0  0  1  0  0  0  0  0999 V2000
  181.4100  178.4300  143.5710 C   0  0  0  0  0  3  0  0  0  0  0  0
  187.9440  177.6900  145.5860 C   0  0  0  0  0  2  0  0  0  0  0  0
  186.1200  178.2060  142.5530 C   0  0  0  0  0  0  0  0  0  0  0  0
  185.9410  177.6120  137.8700 C   0  0  1  0  0  3  0  0  0  0  0  0
  184.2770  178.9130  139.2550 C   0  0  1  0  0  3  0  0  0  0  0  0
  185.7170  178.4370  144.6980 C   0  0  0  0  0  0  0  0  0  0  0  0
  183.7740  179.0900  143.0720 C   0  0  0  0  0  0  0  0  0  0  0  0
  182.7230  178.2610  143.7400 C   0  0  0  0  0  3  0  0  0  0  0  0
  186.9930  178.2560  138.7840 C   0  0  0  0  0  2  0  0  0  0  0  0
  180.7540  179.3750  142.6440 C   0  0  0  0  0  0  0  0  0  0  0  0
  183.6290  179.0430  141.5690 C   0  0  1  0  0  3  0  0  0  0  0  0
  185.9170  178.2520  141.0950 C   0  0  0  0  0  0  0  0  0  0  0  0
  185.1420  178.5880  143.4570 C   0  0  0  0  0  0  0  0  0  0  0  0
  181.2470  179.7450  141.4540 C   0  0  0  0  0  3  0  0  0  0  0  0
  186.9960  177.9890  144.4700 C   0  0  0  0  0  0  0  0  0  0  0  0
  179.4940  179.8430  142.9940 O   0  0  0  0  0  1  0  0  0  0  0  0
  186.9740  177.6660  140.1900 C   0  0  0  0  0  2  0  0  0  0  0  0
  182.5480  179.3560  140.8780 C   0  0  0  0  0  0  0  0  0  0  0  0
  182.7860  179.2500  139.3940 C   0  0  1  0  0  3  0  0  0  0  0  0
  185.1990  178.7840  146.0560 C   0  0  0  0  0  2  0  0  0  0  0  0
  187.5370  178.4240  146.8010 N   0  0  0  0  0  0  0  0  0  0  0  0
  187.2200  177.8430  143.1810 O   0  0  0  0  0  0  0  0  0  0  0  0
  184.7180  178.6940  140.6630 C   0  0  0  0  0  0  0  0  0  0  0  0
  184.5080  177.6620  138.4230 C   0  0  0  0  0  2  0  0  0  0  0  0
  186.1220  178.1620  147.1170 C   0  0  0  0  0  2  0  0  0  0  0  0
  182.4670  180.5330  138.6820 C   0  0  0  0  0  0  0  0  0  0  0  0
  183.2690  181.4520  138.7200 O   0  0  0  0  0  0  0  0  0  0  0  0
  181.1860  180.7070  137.9310 C   0  0  0  0  0  1  0  0  0  0  0  0
  187.5530  177.7220  149.0660 O   0  0  0  0  0  1  0  0  0  0  0  0
  188.3470  177.9940  147.9440 C   0  0  1  0  0  3  0  0  0  0  0  0
  189.0940  176.8620  147.6090 O   0  0  0  0  0  0  0  0  0  0  0  0
  190.3920  177.3400  147.4110 C   0  0  0  0  0  2  0  0  0  0  0  0
  191.3050  176.2000  147.0010 C   0  0  1  0  0  3  0  0  0  0  0  0
  191.6860  176.3630  145.5440 C   0  0  0  0  0  1  0  0  0  0  0  0
  192.5070  176.2140  147.8160 N   0  0  0  0  0  1  0  0  0  0  0  0
  185.9770  178.2330  136.6190 O   0  0  0  0  0  0  0  0  0  0  0  0
  186.0410  177.1830  135.7000 C   0  0  0  0  0  2  0  0  0  0  0  0
  187.4590  176.9310  135.3310 C   0  0  0  0  0  0  0  0  0  0  0  0
  188.3880  177.9600  135.3990 O   0  0  0  0  0  1  0  0  0  0  0  0
  187.8260  175.7760  134.9930 O   0  0  0  0  0  0  0  0  0  0  0  0
  1  8  1  0  0  0  0
  2 21  1  0  0  0  0
  3 22  1  0  0  0  0
  3 13  2  0  0  0  0
  4 36  1  6  0  0  0
  4 24  1  0  0  0  0
  4  9  1  0  0  0  0
  5 24  1  6  0  0  0
  5 19  1  0  0  0  0
  5 23  1  0  0  0  0
  6 20  1  0  0  0  0
  7 13  1  0  0  0  0
  7  8  2  0  0  0  0
  9 17  1  0  0  0  0
 10 16  1  0  0  0  0
 10  1  2  0  0  0  0
 11 23  1  6  0  0  0
 11  7  1  0  0  0  0
 12  3  1  0  0  0  0
 13  6  1  0  0  0  0
 14 10  1  0  0  0  0
 15  6  2  0  0  0  0
 15  2  1  0  0  0  0
 17 12  1  0  0  0  0
 18 14  2  0  0  0  0
 18 11  1  0  0  0  0
 19 26  1  6  0  0  0
 19 18  1  0  0  0  0
 20 25  1  0  0  0  0
 21 25  1  0  0  0  0
 21 30  1  0  0  0  0
 22 15  1  0  0  0  0
 23 12  2  0  0  0  0
 26 27  2  0  0  0  0
 28 26  1  0  0  0  0
 30 29  1  1  0  0  0
 31 30  1  0  0  0  0
 32 31  1  0  0  0  0
 33 34  1  6  0  0  0
 33 32  1  0  0  0  0
 33 35  1  0  0  0  0
 37 36  1  0  0  0  0
 38 39  1  0  0  0  0
 38 37  1  0  0  0  0
 40 38  2  0  0  0  0
M  END
>  <MODEL>
7

>  <REMARK>
 VINA RESULT:      -7.3      3.474      8.270
  Name = 
  8 active torsions:
  status: ('A' for Active; 'I' for Inactive)
    1  A    between atoms: O_3  and  C_4
    2  A    between atoms: O_3  and  C_19
    3  A    between atoms: C_4  and  C_25
    4  A    between atoms: C_6  and  O_38
    5  A    between atoms: C_7  and  C_30
    6  A    between atoms: C_15  and  C_20
    7  A    between atoms: C_19  and  N_33
    8  A    between atoms: C_20  and  O_38
                            x       y       z     vdW  Elec       q    Type
                         _______ _______ _______ _____ _____    ______ ____

>  <TORSDO>
F 8

$$$$
=
 OpenBabel10222415373D

 40 45  0  0  1  0  0  0  0  0999 V2000
  180.9080  178.4760  144.3350 C   0  0  0  0  0  3  0  0  0  0  0  0
  187.7180  177.5140  144.3040 C   0  0  0  0  0  2  0  0  0  0  0  0
  185.0880  178.1100  141.9550 C   0  0  0  0  0  0  0  0  0  0  0  0
  183.4970  177.5560  137.5420 C   0  0  1  0  0  3  0  0  0  0  0  0
  182.3670  178.8990  139.3580 C   0  0  1  0  0  3  0  0  0  0  0  0
  185.3530  178.3380  144.1220 C   0  0  0  0  0  0  0  0  0  0  0  0
  183.0340  179.0640  143.1500 C   0  0  0  0  0  0  0  0  0  0  0  0
  182.2050  178.2650  144.1040 C   0  0  0  0  0  3  0  0  0  0  0  0
  184.7950  178.1600  138.0980 C   0  0  0  0  0  2  0  0  0  0  0  0
  180.0350  179.4490  143.6440 C   0  0  0  0  0  0  0  0  0  0  0  0
  182.4460  179.0330  141.7590 C   0  0  1  0  0  3  0  0  0  0  0  0
  184.4600  178.1730  140.6250 C   0  0  0  0  0  0  0  0  0  0  0  0
  184.4380  178.5160  143.1090 C   0  0  0  0  0  0  0  0  0  0  0  0
  180.1620  179.8110  142.3610 C   0  0  0  0  0  3  0  0  0  0  0  0
  186.4900  177.8510  143.5220 C   0  0  0  0  0  0  0  0  0  0  0  0
  178.9540  179.9530  144.3540 O   0  0  0  0  0  1  0  0  0  0  0  0
  185.1780  177.5600  139.4470 C   0  0  0  0  0  2  0  0  0  0  0  0
  181.2180  179.3850  141.4220 C   0  0  0  0  0  0  0  0  0  0  0  0
  180.9980  179.2820  139.9360 C   0  0  1  0  0  3  0  0  0  0  0  0
  185.2760  178.6910  145.5720 C   0  0  0  0  0  2  0  0  0  0  0  0
  187.7170  178.2510  145.5840 N   0  0  0  0  0  0  0  0  0  0  0  0
  186.3130  177.7080  142.2260 O   0  0  0  0  0  0  0  0  0  0  0  0
  183.2010  178.6560  140.5700 C   0  0  0  0  0  0  0  0  0  0  0  0
  182.2980  177.6480  138.4980 C   0  0  0  0  0  2  0  0  0  0  0  0
  186.4540  178.0330  146.3090 C   0  0  0  0  0  2  0  0  0  0  0  0
  180.5220  180.5800  139.3490 C   0  0  0  0  0  0  0  0  0  0  0  0
  179.3460  180.8870  139.4520 O   0  0  0  0  0  0  0  0  0  0  0  0
  181.4610  181.5020  138.6400 C   0  0  0  0  0  1  0  0  0  0  0  0
  188.3490  177.2770  147.6510 O   0  0  0  0  0  1  0  0  0  0  0  0
  188.8180  177.7880  146.4340 C   0  0  1  0  0  3  0  0  0  0  0  0
  189.5650  176.8130  145.7670 O   0  0  0  0  0  0  0  0  0  0  0  0
  190.8950  177.1370  146.0420 C   0  0  0  0  0  2  0  0  0  0  0  0
  191.6830  177.2240  144.7480 C   0  0  1  0  0  3  0  0  0  0  0  0
  191.2560  176.1020  143.8250 C   0  0  0  0  0  1  0  0  0  0  0  0
  191.4290  178.5010  144.1030 N   0  0  0  0  0  1  0  0  0  0  0  0
  183.1780  178.1850  136.3360 O   0  0  0  0  0  0  0  0  0  0  0  0
  183.2020  177.1650  135.3820 C   0  0  0  0  0  2  0  0  0  0  0  0
  181.8110  176.8270  134.9790 C   0  0  0  0  0  0  0  0  0  0  0  0
  180.9360  177.8340  134.5940 O   0  0  0  0  0  0  0  0  0  0  0  0
  181.4380  175.6260  134.9500 O   0  0  0  0  0  1  0  0  0  0  0  0
  2 21  1  0  0  0  0
  3 22  1  0  0  0  0
  3 13  2  0  0  0  0
  4 36  1  6  0  0  0
  4  9  1  0  0  0  0
  4 24  1  0  0  0  0
  5 24  1  6  0  0  0
  5 19  1  0  0  0  0
  5 23  1  0  0  0  0
  6 20  1  0  0  0  0
  7  8  2  0  0  0  0
  8  1  1  0  0  0  0
  9 17  1  0  0  0  0
 10  1  2  0  0  0  0
 10 16  1  0  0  0  0
 11 23  1  6  0  0  0
 11  7  1  0  0  0  0
 12  3  1  0  0  0  0
 13  7  1  0  0  0  0
 13  6  1  0  0  0  0
 14 10  1  0  0  0  0
 15  6  2  0  0  0  0
 15  2  1  0  0  0  0
 17 12  1  0  0  0  0
 18 11  1  0  0  0  0
 18 14  2  0  0  0  0
 19 26  1  6  0  0  0
 19 18  1  0  0  0  0
 20 25  1  0  0  0  0
 21 25  1  0  0  0  0
 21 30  1  0  0  0  0
 22 15  1  0  0  0  0
 23 12  2  0  0  0  0
 26 27  2  0  0  0  0
 28 26  1  0  0  0  0
 30 29  1  1  0  0  0
 31 32  1  0  0  0  0
 31 30  1  0  0  0  0
 33 34  1  6  0  0  0
 33 32  1  0  0  0  0
 35 33  1  0  0  0  0
 37 36  1  0  0  0  0
 38 37  1  0  0  0  0
 39 38  2  0  0  0  0
 40 38  1  0  0  0  0
M  END
>  <MODEL>
8

>  <REMARK>
 VINA RESULT:      -7.2      3.356      9.125
  Name = 
  8 active torsions:
  status: ('A' for Active; 'I' for Inactive)
    1  A    between atoms: O_3  and  C_4
    2  A    between atoms: O_3  and  C_19
    3  A    between atoms: C_4  and  C_25
    4  A    between atoms: C_6  and  O_38
    5  A    between atoms: C_7  and  C_30
    6  A    between atoms: C_15  and  C_20
    7  A    between atoms: C_19  and  N_33
    8  A    between atoms: C_20  and  O_38
                            x       y       z     vdW  Elec       q    Type
                         _______ _______ _______ _____ _____    ______ ____

>  <TORSDO>
F 8

$$$$
=
 OpenBabel10222415373D

 40 45  0  0  1  0  0  0  0  0999 V2000
  191.7080  175.5220  145.7420 C   0  0  0  0  0  3  0  0  0  0  0  0
  190.8030  177.1810  139.1290 C   0  0  0  0  0  2  0  0  0  0  0  0
  189.0570  177.5050  142.2330 C   0  0  0  0  0  0  0  0  0  0  0  0
  184.8930  177.8770  144.4340 C   0  0  1  0  0  3  0  0  0  0  0  0
  187.1620  178.0440  145.5330 C   0  0  1  0  0  3  0  0  0  0  0  0
  191.1240  177.0950  141.6180 C   0  0  0  0  0  0  0  0  0  0  0  0
  190.6750  177.1970  144.1940 C   0  0  2  0  0  3  0  0  0  0  0  0
  191.3170  175.8870  144.5190 C   0  0  0  0  0  3  0  0  0  0  0  0
  185.5360  178.6970  143.3050 C   0  0  0  0  0  2  0  0  0  0  0  0
  191.5030  176.2760  146.9960 C   0  0  0  0  0  0  0  0  0  0  0  0
  189.4230  177.4080  145.0130 C   0  0  0  0  0  0  0  0  0  0  0  0
  187.8990  177.7630  143.1060 C   0  0  0  0  0  0  0  0  0  0  0  0
  190.3250  177.2450  142.7290 C   0  0  0  0  0  0  0  0  0  0  0  0
  190.4450  177.0570  147.2530 C   0  0  0  0  0  3  0  0  0  0  0  0
  190.3010  177.2810  140.5330 C   0  0  0  0  0  0  0  0  0  0  0  0
  192.4300  176.0910  148.0130 O   0  0  0  0  0  1  0  0  0  0  0  0
  186.5270  177.8750  142.4880 C   0  0  0  0  0  2  0  0  0  0  0  0
  189.3380  177.3760  146.3310 C   0  0  0  0  0  0  0  0  0  0  0  0
  187.9430  177.6900  146.8060 C   0  0  1  0  0  3  0  0  0  0  0  0
  192.6010  176.9030  141.5040 C   0  0  0  0  0  2  0  0  0  0  0  0
  192.2620  177.4070  139.1000 N   0  0  0  0  0  0  0  0  0  0  0  0
  189.0630  177.5130  140.9150 O   0  0  0  0  0  0  0  0  0  0  0  0
  188.1260  177.7430  144.4370 C   0  0  0  0  0  0  0  0  0  0  0  0
  185.9020  177.2070  145.3810 C   0  0  0  0  0  2  0  0  0  0  0  0
  192.9450  176.5190  140.0560 C   0  0  0  0  0  2  0  0  0  0  0  0
  187.9250  178.8390  147.7720 C   0  0  0  0  0  0  0  0  0  0  0  0
  188.8730  179.0030  148.5230 O   0  0  0  0  0  0  0  0  0  0  0  0
  186.7690  179.7850  147.8330 C   0  0  0  0  0  1  0  0  0  0  0  0
  193.9350  176.3240  137.8150 O   0  0  0  0  0  1  0  0  0  0  0  0
  192.7890  177.1280  137.7610 C   0  0  1  0  0  3  0  0  0  0  0  0
  191.8120  176.5080  136.9770 O   0  0  0  0  0  0  0  0  0  0  0  0
  192.4790  175.4540  136.3480 C   0  0  0  0  0  2  0  0  0  0  0  0
  191.5890  174.2260  136.3170 C   0  0  1  0  0  3  0  0  0  0  0  0
  192.4370  173.0000  136.0510 C   0  0  0  0  0  1  0  0  0  0  0  0
  190.9130  174.0760  137.5930 N   0  0  0  0  0  1  0  0  0  0  0  0
  184.0410  178.7010  145.1720 O   0  0  0  0  0  0  0  0  0  0  0  0
  183.5170  179.6000  144.2410 C   0  0  0  0  0  2  0  0  0  0  0  0
  182.2980  179.0190  143.6190 C   0  0  0  0  0  0  0  0  0  0  0  0
  182.2130  178.9000  142.2380 O   0  0  0  0  0  0  0  0  0  0  0  0
  181.3590  178.6010  144.3440 O   0  0  0  0  0  1  0  0  0  0  0  0
  1 10  1  0  0  0  0
  2 15  1  0  0  0  0
  3 13  2  0  0  0  0
  3 12  1  0  0  0  0
  4 36  1  1  0  0  0
  4 24  1  0  0  0  0
  5 24  1  6  0  0  0
  5 19  1  0  0  0  0
  6 13  1  0  0  0  0
  7  8  1  1  0  0  0
  7 11  1  0  0  0  0
  8  1  2  0  0  0  0
  9  4  1  0  0  0  0
 10 14  2  0  0  0  0
 10 16  1  0  0  0  0
 11 18  2  0  0  0  0
 12 23  2  0  0  0  0
 13  7  1  0  0  0  0
 15 22  1  0  0  0  0
 15  6  2  0  0  0  0
 17 12  1  0  0  0  0
 17  9  1  0  0  0  0
 18 19  1  0  0  0  0
 18 14  1  0  0  0  0
 19 26  1  1  0  0  0
 20  6  1  0  0  0  0
 21  2  1  0  0  0  0
 21 25  1  0  0  0  0
 22  3  1  0  0  0  0
 23 11  1  0  0  0  0
 23  5  1  0  0  0  0
 25 20  1  0  0  0  0
 26 28  1  0  0  0  0
 26 27  2  0  0  0  0
 30 29  1  1  0  0  0
 30 21  1  0  0  0  0
 31 30  1  0  0  0  0
 32 31  1  0  0  0  0
 33 34  1  1  0  0  0
 33 32  1  0  0  0  0
 33 35  1  0  0  0  0
 37 36  1  0  0  0  0
 38 37  1  0  0  0  0
 38 40  1  0  0  0  0
 39 38  2  0  0  0  0
M  END
>  <MODEL>
9

>  <REMARK>
 VINA RESULT:      -7.2      3.210      8.295
  Name = 
  8 active torsions:
  status: ('A' for Active; 'I' for Inactive)
    1  A    between atoms: O_3  and  C_4
    2  A    between atoms: O_3  and  C_19
    3  A    between atoms: C_4  and  C_25
    4  A    between atoms: C_6  and  O_38
    5  A    between atoms: C_7  and  C_30
    6  A    between atoms: C_15  and  C_20
    7  A    between atoms: C_19  and  N_33
    8  A    between atoms: C_20  and  O_38
                            x       y       z     vdW  Elec       q    Type
                         _______ _______ _______ _____ _____    ______ ____

>  <TORSDO>
F 8

$$$$
