=
 OpenBabel10222420033D

 54 59  0  0  1  0  0  0  0  0999 V2000
  183.7220  179.4030  138.9540 C   0  0  0  0  0  1  0  0  0  0  0  0
  181.8400  178.1260  138.1150 N   0  0  0  0  0  0  0  0  0  0  0  0
  180.5970  178.3930  138.8420 C   0  0  1  0  0  3  0  0  0  0  0  0
  180.9040  178.5390  140.3250 C   0  0  1  0  0  3  0  0  0  0  0  0
  179.9040  177.7330  141.1310 C   0  0  0  0  0  1  0  0  0  0  0  0
  182.2820  177.9500  140.4750 C   0  0  1  0  0  3  0  0  0  0  0  0
  182.9190  178.1160  139.0990 C   0  0  2  0  0  3  0  0  0  0  0  0
  180.5200  183.5240  136.1960 C   0  0  0  0  0  0  0  0  0  0  0  0
  180.6880  182.3280  135.7690 N   0  0  0  0  0  0  0  0  0  0  0  0
  179.8680  179.6050  138.2580 C   0  0  2  0  0  3  0  0  0  0  0  0
  179.6500  183.6140  137.2940 N   0  0  0  0  0  2  0  0  0  0  0  0
  181.1910  184.6450  135.6360 N   0  0  0  0  0  1  0  0  0  0  0  0
  179.7410  182.0460  138.9740 C   0  0  0  0  0  2  0  0  0  0  0  0
  180.6490  180.2790  137.1240 C   0  0  0  0  0  2  0  0  0  0  0  0
  179.8440  181.4670  136.5850 C   0  0  1  0  0  3  0  0  0  0  0  0
  179.2160  182.3250  137.6330 N   0  0  2  0  0  0  0  0  0  0  0  0
  179.4750  180.5930  139.3670 C   0  0  0  0  0  2  0  0  0  0  0  0
  182.2580  178.7490  142.7720 O   0  0  0  0  0  1  0  0  0  0  0  0
  183.0760  178.5470  141.6550 C   0  0  1  0  0  3  0  0  0  0  0  0
  184.2240  177.7880  141.9970 O   0  0  0  0  0  0  0  0  0  0  0  0
  184.6400  178.1410  143.2880 C   0  0  0  0  0  2  0  0  0  0  0  0
  185.9710  178.8640  143.2320 C   0  0  0  0  0  2  0  0  0  0  0  0
  187.0590  177.9610  143.5850 N   0  0  0  0  0  0  0  0  0  0  0  0
  188.2800  176.8730  145.2570 O   0  0  0  0  0  0  0  0  0  0  0  0
  187.3900  177.7150  144.9670 C   0  0  0  0  0  0  0  0  0  0  0  0
  186.7340  178.3920  145.9920 O   0  0  0  0  0  1  0  0  0  0  0  0
  187.7990  177.2830  142.5340 C   0  0  0  0  0  2  0  0  0  0  0  0
  190.2090  177.5290  141.6440 C   0  0  2  0  0  3  0  0  0  0  0  0
  188.8590  178.1900  141.8920 C   0  0  1  0  0  3  0  0  0  0  0  0
  188.3860  178.5770  140.5110 C   0  0  0  0  0  2  0  0  0  0  0  0
  188.5930  177.4440  139.6120 N   0  0  0  0  0  0  0  0  0  0  0  0
  190.1220  176.6460  140.0580 S   0  0  0  0  0  0  0  0  0  0  0  0
  191.3720  177.0760  143.8060 C   0  0  0  0  0  0  0  0  0  0  0  0
  190.6920  176.6390  142.7470 C   0  0  0  0  0  3  0  0  0  0  0  0
  191.7690  176.3990  146.1540 C   0  0  0  0  0  1  0  0  0  0  0  0
  191.7870  176.1390  144.7510 O   0  0  0  0  0  0  0  0  0  0  0  0
  190.6110  179.1950  144.5430 O   0  0  0  0  0  1  0  0  0  0  0  0
  191.6950  178.5310  143.9680 C   0  0  0  0  0  2  0  0  0  0  0  0
  188.7660  177.9890  138.2720 C   0  0  0  0  0  2  0  0  0  0  0  0
  189.3080  177.3880  135.9220 C   0  0  0  0  0  1  0  0  0  0  0  0
  187.4210  176.2810  137.0810 C   0  0  0  0  0  1  0  0  0  0  0  0
  188.8130  176.8630  137.2560 C   0  0  0  0  0  3  0  0  0  0  0  0
  181.7390  176.8640  137.6320 O   0  0  0  0  0  0  0  0  0  0  0  0
  182.8890  175.5010  136.0680 C   0  0  1  0  0  3  0  0  0  0  0  0
  183.0120  176.5550  137.1500 C   0  0  1  0  0  3  0  0  0  0  0  0
  183.0980  176.9660  135.6930 C   0  0  1  0  0  3  0  0  0  0  0  0
  184.4280  177.2300  135.3570 O   0  0  0  0  0  1  0  0  0  0  0  0
  184.1020  174.7620  135.9820 O   0  0  0  0  0  0  0  0  0  0  0  0
  184.3410  173.5280  136.6110 C   0  0  0  0  0  0  0  0  0  0  0  0
  184.8510  173.5510  137.7950 N   0  0  0  0  0  2  0  0  0  0  0  0
  182.6040  171.8800  135.6470 C   0  0  0  0  0  2  0  0  0  0  0  0
  184.9630  171.6150  135.1360 F   0  0  0  0  0  0  0  0  0  0  0  0
  183.2710  171.1720  136.8230 C   0  0  0  0  0  2  0  0  0  0  0  0
  184.0400  172.1770  136.0000 C   0  0  0  0  0  0  0  0  0  0  0  0
  2  7  1  0  0  0  0
  3  2  1  6  0  0  0
  3  4  1  0  0  0  0
  4  6  1  0  0  0  0
  4  5  1  1  0  0  0
  6 19  1  1  0  0  0
  7  1  1  1  0  0  0
  7  6  1  0  0  0  0
  8 11  1  0  0  0  0
  9  8  2  0  0  0  0
  9 15  1  0  0  0  0
 10 14  1  6  0  0  0
 10  3  1  0  0  0  0
 10 17  1  0  0  0  0
 11 16  1  0  0  0  0
 12  8  1  0  0  0  0
 13 17  1  0  0  0  0
 15 14  1  1  0  0  0
 15 16  1  0  0  0  0
 16 13  1  1  0  0  0
 19 20  1  0  0  0  0
 19 18  1  1  0  0  0
 20 21  1  0  0  0  0
 22 21  1  0  0  0  0
 22 23  1  0  0  0  0
 23 25  1  0  0  0  0
 25 24  2  0  0  0  0
 25 26  1  0  0  0  0
 27 23  1  0  0  0  0
 28 29  1  0  0  0  0
 28 34  1  1  0  0  0
 29 27  1  6  0  0  0
 30 29  1  0  0  0  0
 31 32  1  0  0  0  0
 31 30  1  0  0  0  0
 32 28  1  0  0  0  0
 33 38  1  0  0  0  0
 33 36  1  0  0  0  0
 34 33  2  0  0  0  0
 36 35  1  0  0  0  0
 38 37  1  0  0  0  0
 39 31  1  0  0  0  0
 40 42  1  0  0  0  0
 41 42  1  0  0  0  0
 42 39  1  0  0  0  0
 43  2  1  0  0  0  0
 44 48  1  1  0  0  0
 44 45  1  0  0  0  0
 45 43  1  6  0  0  0
 46 47  1  1  0  0  0
 46 44  1  0  0  0  0
 46 45  1  0  0  0  0
 48 49  1  0  0  0  0
 49 50  2  0  0  0  0
 51 54  1  0  0  0  0
 51 53  1  0  0  0  0
 52 54  1  0  0  0  0
 54 49  1  0  0  0  0
 54 53  1  0  0  0  0
M  END
>  <MODEL>
1

>  <REMARK>
 VINA RESULT:      -6.9      0.000      0.000
  Name = 
  18 active torsions:
  status: ('A' for Active; 'I' for Inactive)
    1  A    between atoms: C_1  and  O_47
    2  A    between atoms: C_1  and  C_51
    3  A    between atoms: C_2  and  O_5
    4  A    between atoms: C_2  and  C_40
    5  A    between atoms: N_4  and  O_28
    6  A    between atoms: O_5  and  C_31
    7  A    between atoms: C_8  and  N_15
    8  A    between atoms: C_8  and  C_18
    9  A    between atoms: C_9  and  O_32
   10  A    between atoms: C_10  and  N_33
   11  A    between atoms: C_10  and  C_50
   12  A    between atoms: C_13  and  C_20
   13  A    between atoms: C_14  and  C_17
   14  A    between atoms: N_15  and  C_40
   15  A    between atoms: C_19  and  O_28
   16  A    between atoms: C_27  and  C_31
   17  A    between atoms: O_32  and  C_34
   18  A    between atoms: C_34  and  C_54
                            x       y       z     vdW  Elec       q    Type
                         _______ _______ _______ _____ _____    ______ ____

>  <TORSDO>
F 18

$$$$
=
 OpenBabel10222420033D

 54 59  0  0  1  0  0  0  0  0999 V2000
  189.0550  178.3960  137.6480 C   0  0  0  0  0  1  0  0  0  0  0  0
  190.1640  176.5930  138.8300 N   0  0  0  0  0  0  0  0  0  0  0  0
  190.5110  175.4670  137.9600 C   0  0  1  0  0  3  0  0  0  0  0  0
  189.3850  175.2360  136.9630 C   0  0  1  0  0  3  0  0  0  0  0  0
  189.0640  173.7550  136.8960 C   0  0  0  0  0  1  0  0  0  0  0  0
  188.2180  175.9900  137.5450 C   0  0  1  0  0  3  0  0  0  0  0  0
  188.8570  177.0830  138.3960 C   0  0  2  0  0  3  0  0  0  0  0  0
  195.7810  173.7070  136.3900 C   0  0  0  0  0  0  0  0  0  0  0  0
  194.6120  173.4790  135.9200 N   0  0  0  0  0  0  0  0  0  0  0  0
  191.8690  175.6880  137.2900 C   0  0  2  0  0  3  0  0  0  0  0  0
  195.9240  174.9880  136.9490 N   0  0  0  0  0  2  0  0  0  0  0  0
  196.8190  172.7360  136.3870 N   0  0  0  0  0  1  0  0  0  0  0  0
  194.2320  175.8910  138.2180 C   0  0  0  0  0  2  0  0  0  0  0  0
  192.4950  174.3880  136.7720 C   0  0  0  0  0  2  0  0  0  0  0  0
  193.8390  174.6980  136.1020 C   0  0  1  0  0  3  0  0  0  0  0  0
  194.7010  175.6640  136.8470 N   0  0  2  0  0  0  0  0  0  0  0  0
  192.8150  176.4650  138.2170 C   0  0  0  0  0  2  0  0  0  0  0  0
  187.8340  176.6720  135.2410 O   0  0  0  0  0  1  0  0  0  0  0  0
  187.2130  176.4750  136.4800 C   0  0  1  0  0  3  0  0  0  0  0  0
  186.0830  175.6290  136.3520 O   0  0  0  0  0  0  0  0  0  0  0  0
  185.0820  176.0650  137.2310 C   0  0  0  0  0  2  0  0  0  0  0  0
  184.4470  177.3410  136.7140 C   0  0  0  0  0  2  0  0  0  0  0  0
  183.7140  178.0140  137.7780 N   0  0  0  0  0  0  0  0  0  0  0  0
  183.7460  179.4890  139.5940 O   0  0  0  0  0  1  0  0  0  0  0  0
  184.4030  178.8520  138.7290 C   0  0  0  0  0  0  0  0  0  0  0  0
  185.7890  178.9740  138.7020 O   0  0  0  0  0  0  0  0  0  0  0  0
  182.2710  177.8600  137.8650 C   0  0  0  0  0  2  0  0  0  0  0  0
  180.5250  177.3230  139.6880 C   0  0  2  0  0  3  0  0  0  0  0  0
  181.8530  176.9590  139.0370 C   0  0  1  0  0  3  0  0  0  0  0  0
  181.6270  175.5620  138.5090 C   0  0  0  0  0  2  0  0  0  0  0  0
  180.3370  175.5250  137.8230 N   0  0  0  0  0  0  0  0  0  0  0  0
  179.1920  176.5500  138.7250 S   0  0  0  0  0  0  0  0  0  0  0  0
  180.3570  179.4020  141.0600 C   0  0  0  0  0  0  0  0  0  0  0  0
  180.2930  178.7900  139.8790 C   0  0  0  0  0  3  0  0  0  0  0  0
  179.6440  181.5060  139.9660 C   0  0  0  0  0  1  0  0  0  0  0  0
  180.0930  180.7710  141.1040 O   0  0  0  0  0  0  0  0  0  0  0  0
  181.3520  179.4710  143.2070 O   0  0  0  0  0  1  0  0  0  0  0  0
  180.6860  178.6390  142.3070 C   0  0  0  0  0  2  0  0  0  0  0  0
  179.8480  174.1560  137.9070 C   0  0  0  0  0  2  0  0  0  0  0  0
  180.0820  173.1900  135.6290 C   0  0  0  0  0  1  0  0  0  0  0  0
  180.7180  171.8540  137.6130 C   0  0  0  0  0  1  0  0  0  0  0  0
  180.6830  173.2510  137.0190 C   0  0  0  0  0  3  0  0  0  0  0  0
  189.9960  176.0800  140.0730 O   0  0  0  0  0  0  0  0  0  0  0  0
  189.0380  176.7760  142.1280 C   0  0  1  0  0  3  0  0  0  0  0  0
  189.8320  177.1890  140.9050 C   0  0  1  0  0  3  0  0  0  0  0  0
  190.5540  176.9310  142.2130 C   0  0  1  0  0  3  0  0  0  0  0  0
  190.9190  178.1470  142.7960 O   0  0  0  0  0  1  0  0  0  0  0  0
  188.3660  177.9100  142.6660 O   0  0  0  0  0  0  0  0  0  0  0  0
  187.0720  177.8960  143.2140 C   0  0  0  0  0  0  0  0  0  0  0  0
  186.8690  177.1530  144.2480 N   0  0  0  0  0  2  0  0  0  0  0  0
  184.8070  179.0540  143.6500 C   0  0  0  0  0  2  0  0  0  0  0  0
  186.1360  179.6500  141.7080 F   0  0  0  0  0  0  0  0  0  0  0  0
  184.5610  178.0100  142.5640 C   0  0  0  0  0  2  0  0  0  0  0  0
  185.9030  178.6930  142.6790 C   0  0  0  0  0  0  0  0  0  0  0  0
  2 43  1  0  0  0  0
  3  2  1  6  0  0  0
  4  5  1  1  0  0  0
  4  6  1  0  0  0  0
  4  3  1  0  0  0  0
  6 19  1  6  0  0  0
  6  7  1  0  0  0  0
  7  1  1  6  0  0  0
  7  2  1  0  0  0  0
  8 11  1  0  0  0  0
  9 15  1  0  0  0  0
  9  8  2  0  0  0  0
 10 14  1  1  0  0  0
 10  3  1  0  0  0  0
 10 17  1  0  0  0  0
 12  8  1  0  0  0  0
 15 14  1  1  0  0  0
 15 16  1  0  0  0  0
 16 11  1  0  0  0  0
 16 13  1  1  0  0  0
 17 13  1  0  0  0  0
 19 18  1  6  0  0  0
 20 19  1  0  0  0  0
 20 21  1  0  0  0  0
 22 21  1  0  0  0  0
 22 23  1  0  0  0  0
 23 27  1  0  0  0  0
 23 25  1  0  0  0  0
 25 24  1  0  0  0  0
 26 25  2  0  0  0  0
 28 34  1  6  0  0  0
 29 27  1  6  0  0  0
 29 28  1  0  0  0  0
 30 29  1  0  0  0  0
 31 39  1  0  0  0  0
 31 30  1  0  0  0  0
 31 32  1  0  0  0  0
 32 28  1  0  0  0  0
 33 36  1  0  0  0  0
 33 38  1  0  0  0  0
 34 33  2  0  0  0  0
 35 36  1  0  0  0  0
 38 37  1  0  0  0  0
 40 42  1  0  0  0  0
 42 41  1  0  0  0  0
 42 39  1  0  0  0  0
 44 46  1  0  0  0  0
 44 48  1  1  0  0  0
 45 43  1  6  0  0  0
 45 44  1  0  0  0  0
 45 46  1  0  0  0  0
 46 47  1  1  0  0  0
 48 49  1  0  0  0  0
 49 50  2  0  0  0  0
 52 54  1  0  0  0  0
 53 54  1  0  0  0  0
 53 51  1  0  0  0  0
 54 49  1  0  0  0  0
 54 51  1  0  0  0  0
M  END
>  <MODEL>
2

>  <REMARK>
 VINA RESULT:      -6.8      4.016     10.788
  Name = 
  18 active torsions:
  status: ('A' for Active; 'I' for Inactive)
    1  A    between atoms: C_1  and  O_47
    2  A    between atoms: C_1  and  C_51
    3  A    between atoms: C_2  and  O_5
    4  A    between atoms: C_2  and  C_40
    5  A    between atoms: N_4  and  O_28
    6  A    between atoms: O_5  and  C_31
    7  A    between atoms: C_8  and  N_15
    8  A    between atoms: C_8  and  C_18
    9  A    between atoms: C_9  and  O_32
   10  A    between atoms: C_10  and  N_33
   11  A    between atoms: C_10  and  C_50
   12  A    between atoms: C_13  and  C_20
   13  A    between atoms: C_14  and  C_17
   14  A    between atoms: N_15  and  C_40
   15  A    between atoms: C_19  and  O_28
   16  A    between atoms: C_27  and  C_31
   17  A    between atoms: O_32  and  C_34
   18  A    between atoms: C_34  and  C_54
                            x       y       z     vdW  Elec       q    Type
                         _______ _______ _______ _____ _____    ______ ____

>  <TORSDO>
F 18

$$$$
=
 OpenBabel10222420033D

 54 59  0  0  1  0  0  0  0  0999 V2000
  188.9400  178.9020  138.0670 C   0  0  0  0  0  1  0  0  0  0  0  0
  189.7090  176.8420  139.0870 N   0  0  0  0  0  0  0  0  0  0  0  0
  189.8670  175.7500  138.1230 C   0  0  1  0  0  3  0  0  0  0  0  0
  188.7300  175.8020  137.1140 C   0  0  1  0  0  3  0  0  0  0  0  0
  188.1610  174.4090  136.9220 C   0  0  0  0  0  1  0  0  0  0  0  0
  187.7040  176.6940  137.7620 C   0  0  1  0  0  3  0  0  0  0  0  0
  188.5110  177.5840  138.7010 C   0  0  2  0  0  3  0  0  0  0  0  0
  195.2030  173.6930  137.3260 C   0  0  0  0  0  0  0  0  0  0  0  0
  194.0540  173.3220  136.8960 N   0  0  0  0  0  0  0  0  0  0  0  0
  191.2510  175.7900  137.4700 C   0  0  2  0  0  3  0  0  0  0  0  0
  195.3180  175.0820  137.4990 N   0  0  0  0  0  2  0  0  0  0  0  0
  196.2430  172.7760  137.6410 N   0  0  0  0  0  1  0  0  0  0  0  0
  193.5730  176.2860  138.3900 C   0  0  0  0  0  2  0  0  0  0  0  0
  191.9020  174.4050  137.3710 C   0  0  0  0  0  2  0  0  0  0  0  0
  193.2700  174.5310  136.6920 C   0  0  1  0  0  3  0  0  0  0  0  0
  194.0980  175.6820  137.1610 N   0  0  2  0  0  0  0  0  0  0  0  0
  192.1560  176.8140  138.1710 C   0  0  0  0  0  2  0  0  0  0  0  0
  186.7480  176.7500  135.5260 O   0  0  0  0  0  1  0  0  0  0  0  0
  186.8090  177.4330  136.7460 C   0  0  1  0  0  3  0  0  0  0  0  0
  185.5090  177.7050  137.2410 O   0  0  0  0  0  0  0  0  0  0  0  0
  184.5660  177.0430  136.4420 C   0  0  0  0  0  2  0  0  0  0  0  0
  183.3060  176.7630  137.2380 C   0  0  0  0  0  2  0  0  0  0  0  0
  182.1420  177.3240  136.5660 N   0  0  0  0  0  0  0  0  0  0  0  0
  180.1260  176.9570  135.4370 O   0  0  0  0  0  0  0  0  0  0  0  0
  181.1670  176.4620  135.9450 C   0  0  0  0  0  0  0  0  0  0  0  0
  181.3530  175.0830  135.9030 O   0  0  0  0  0  1  0  0  0  0  0  0
  181.9490  178.7640  136.5450 C   0  0  0  0  0  2  0  0  0  0  0  0
  181.5190  179.9790  138.7810 C   0  0  2  0  0  3  0  0  0  0  0  0
  180.9270  179.2300  137.5930 C   0  0  1  0  0  3  0  0  0  0  0  0
  180.0070  180.2390  136.9490 C   0  0  0  0  0  2  0  0  0  0  0  0
  180.7110  181.5160  136.8490 N   0  0  0  0  0  0  0  0  0  0  0  0
  181.7080  181.7240  138.3110 S   0  0  0  0  0  0  0  0  0  0  0  0
  182.8650  178.6780  140.4310 C   0  0  0  0  0  0  0  0  0  0  0  0
  182.7930  179.4090  139.3200 C   0  0  0  0  0  3  0  0  0  0  0  0
  185.3250  178.9320  140.5440 C   0  0  0  0  0  1  0  0  0  0  0  0
  184.1200  178.2270  140.8400 O   0  0  0  0  0  0  0  0  0  0  0  0
  181.6300  179.1140  142.4050 O   0  0  0  0  0  1  0  0  0  0  0  0
  181.6350  178.3630  141.2290 C   0  0  0  0  0  2  0  0  0  0  0  0
  179.7000  182.5640  136.8630 C   0  0  0  0  0  2  0  0  0  0  0  0
  179.3650  184.9610  137.4290 C   0  0  0  0  0  1  0  0  0  0  0  0
  180.8800  184.3240  135.5770 C   0  0  0  0  0  1  0  0  0  0  0  0
  180.3640  183.9260  136.9490 C   0  0  0  0  0  3  0  0  0  0  0  0
  189.4410  176.2620  140.2820 O   0  0  0  0  0  0  0  0  0  0  0  0
  189.1600  176.7770  142.5810 C   0  0  1  0  0  3  0  0  0  0  0  0
  189.6290  177.2720  141.2270 C   0  0  1  0  0  3  0  0  0  0  0  0
  190.6490  176.8060  142.2480 C   0  0  1  0  0  3  0  0  0  0  0  0
  191.2860  177.9120  142.8150 O   0  0  0  0  0  1  0  0  0  0  0  0
  188.7840  177.8860  143.3900 O   0  0  0  0  0  0  0  0  0  0  0  0
  188.2760  177.7940  144.6970 C   0  0  0  0  0  0  0  0  0  0  0  0
  189.1110  177.9070  145.6730 N   0  0  0  0  0  2  0  0  0  0  0  0
  185.7920  178.2660  144.1770 C   0  0  0  0  0  2  0  0  0  0  0  0
  186.4220  176.3360  145.5090 F   0  0  0  0  0  0  0  0  0  0  0  0
  186.0330  178.7330  145.6110 C   0  0  0  0  0  2  0  0  0  0  0  0
  186.8190  177.5760  145.0400 C   0  0  0  0  0  0  0  0  0  0  0  0
  2 43  1  0  0  0  0
  3  2  1  1  0  0  0
  4  5  1  1  0  0  0
  4  6  1  0  0  0  0
  4  3  1  0  0  0  0
  6 19  1  6  0  0  0
  6  7  1  0  0  0  0
  7  1  1  6  0  0  0
  7  2  1  0  0  0  0
  8 11  1  0  0  0  0
  8 12  1  0  0  0  0
  9  8  2  0  0  0  0
 10 14  1  1  0  0  0
 10  3  1  0  0  0  0
 10 17  1  0  0  0  0
 15  9  1  0  0  0  0
 15 16  1  0  0  0  0
 15 14  1  1  0  0  0
 16 11  1  0  0  0  0
 16 13  1  1  0  0  0
 17 13  1  0  0  0  0
 19 18  1  6  0  0  0
 19 20  1  0  0  0  0
 21 22  1  0  0  0  0
 21 20  1  0  0  0  0
 23 22  1  0  0  0  0
 24 25  2  0  0  0  0
 25 23  1  0  0  0  0
 26 25  1  0  0  0  0
 27 23  1  0  0  0  0
 28 34  1  6  0  0  0
 29 27  1  6  0  0  0
 29 28  1  0  0  0  0
 30 29  1  0  0  0  0
 31 39  1  0  0  0  0
 31 30  1  0  0  0  0
 31 32  1  0  0  0  0
 32 28  1  0  0  0  0
 33 36  1  0  0  0  0
 33 38  1  0  0  0  0
 34 33  2  0  0  0  0
 35 36  1  0  0  0  0
 38 37  1  0  0  0  0
 39 42  1  0  0  0  0
 41 42  1  0  0  0  0
 42 40  1  0  0  0  0
 44 48  1  1  0  0  0
 45 43  1  6  0  0  0
 45 46  1  0  0  0  0
 45 44  1  0  0  0  0
 46 44  1  0  0  0  0
 46 47  1  1  0  0  0
 48 49  1  0  0  0  0
 49 54  1  0  0  0  0
 49 50  2  0  0  0  0
 51 54  1  0  0  0  0
 51 53  1  0  0  0  0
 54 52  1  0  0  0  0
 54 53  1  0  0  0  0
M  END
>  <MODEL>
3

>  <REMARK>
 VINA RESULT:      -6.7      3.673     10.870
  Name = 
  18 active torsions:
  status: ('A' for Active; 'I' for Inactive)
    1  A    between atoms: C_1  and  O_47
    2  A    between atoms: C_1  and  C_51
    3  A    between atoms: C_2  and  O_5
    4  A    between atoms: C_2  and  C_40
    5  A    between atoms: N_4  and  O_28
    6  A    between atoms: O_5  and  C_31
    7  A    between atoms: C_8  and  N_15
    8  A    between atoms: C_8  and  C_18
    9  A    between atoms: C_9  and  O_32
   10  A    between atoms: C_10  and  N_33
   11  A    between atoms: C_10  and  C_50
   12  A    between atoms: C_13  and  C_20
   13  A    between atoms: C_14  and  C_17
   14  A    between atoms: N_15  and  C_40
   15  A    between atoms: C_19  and  O_28
   16  A    between atoms: C_27  and  C_31
   17  A    between atoms: O_32  and  C_34
   18  A    between atoms: C_34  and  C_54
                            x       y       z     vdW  Elec       q    Type
                         _______ _______ _______ _____ _____    ______ ____

>  <TORSDO>
F 18

$$$$
=
 OpenBabel10222420033D

 54 59  0  0  1  0  0  0  0  0999 V2000
  183.9850  179.3640  140.1900 C   0  0  0  0  0  1  0  0  0  0  0  0
  182.0990  177.9160  139.7190 N   0  0  0  0  0  0  0  0  0  0  0  0
  180.8650  178.3510  140.3780 C   0  0  1  0  0  3  0  0  0  0  0  0
  181.1930  178.8570  141.7740 C   0  0  1  0  0  3  0  0  0  0  0  0
  180.2090  178.2710  142.7690 C   0  0  0  0  0  1  0  0  0  0  0  0
  182.5760  178.3250  142.0430 C   0  0  1  0  0  3  0  0  0  0  0  0
  183.1920  178.1500  140.6590 C   0  0  2  0  0  3  0  0  0  0  0  0
  180.6170  183.2650  137.3580 C   0  0  0  0  0  0  0  0  0  0  0  0
  181.0910  182.1050  137.0930 N   0  0  0  0  0  0  0  0  0  0  0  0
  180.1200  179.3810  139.5260 C   0  0  2  0  0  3  0  0  0  0  0  0
  179.4860  183.2360  138.1910 N   0  0  0  0  0  2  0  0  0  0  0  0
  181.2110  184.4680  136.8880 N   0  0  0  0  0  1  0  0  0  0  0  0
  179.3990  181.7820  139.9710 C   0  0  0  0  0  2  0  0  0  0  0  0
  181.0450  180.1410  138.5690 C   0  0  0  0  0  2  0  0  0  0  0  0
  180.2210  181.1360  137.7430 C   0  0  1  0  0  3  0  0  0  0  0  0
  179.2040  181.9040  138.5220 N   0  0  2  0  0  0  0  0  0  0  0  0
  179.2890  180.3220  140.4100 C   0  0  0  0  0  2  0  0  0  0  0  0
  183.0630  178.8960  144.3570 O   0  0  0  0  0  1  0  0  0  0  0  0
  183.3840  179.1950  143.0280 C   0  0  1  0  0  3  0  0  0  0  0  0
  184.7840  179.1260  142.8160 O   0  0  0  0  0  0  0  0  0  0  0  0
  185.4070  178.7120  144.0010 C   0  0  0  0  0  2  0  0  0  0  0  0
  186.1240  177.3940  143.7850 C   0  0  0  0  0  2  0  0  0  0  0  0
  187.3940  177.3790  144.5000 N   0  0  0  0  0  0  0  0  0  0  0  0
  188.5390  177.5940  146.5290 O   0  0  0  0  0  0  0  0  0  0  0  0
  187.4460  177.6870  145.9080 C   0  0  0  0  0  0  0  0  0  0  0  0
  186.3040  178.0810  146.5990 O   0  0  0  0  0  1  0  0  0  0  0  0
  188.6130  177.0270  143.7920 C   0  0  0  0  0  2  0  0  0  0  0  0
  190.7450  178.3480  143.1840 C   0  0  2  0  0  3  0  0  0  0  0  0
  189.2310  178.2300  143.0640 C   0  0  1  0  0  3  0  0  0  0  0  0
  188.9960  178.0640  141.5820 C   0  0  0  0  0  2  0  0  0  0  0  0
  189.9420  177.0750  141.0670 N   0  0  0  0  0  0  0  0  0  0  0  0
  191.4970  177.2940  141.9090 S   0  0  0  0  0  0  0  0  0  0  0  0
  191.6030  176.8280  144.9690 C   0  0  0  0  0  0  0  0  0  0  0  0
  191.2990  178.0530  144.5430 C   0  0  0  0  0  3  0  0  0  0  0  0
  191.4020  175.9380  147.2700 C   0  0  0  0  0  1  0  0  0  0  0  0
  192.0880  176.6880  146.2690 O   0  0  0  0  0  0  0  0  0  0  0  0
  192.4270  174.7050  144.3190 O   0  0  0  0  0  1  0  0  0  0  0  0
  191.4140  175.6350  144.0820 C   0  0  0  0  0  2  0  0  0  0  0  0
  190.1640  177.3880  139.6620 C   0  0  0  0  0  2  0  0  0  0  0  0
  188.2360  176.6140  138.2970 C   0  0  0  0  0  1  0  0  0  0  0  0
  189.1220  178.9070  138.0030 C   0  0  0  0  0  1  0  0  0  0  0  0
  188.8570  177.8000  139.0090 C   0  0  0  0  0  3  0  0  0  0  0  0
  181.9980  176.5740  139.5620 O   0  0  0  0  0  0  0  0  0  0  0  0
  182.3300  174.9010  137.9130 C   0  0  1  0  0  3  0  0  0  0  0  0
  182.0390  176.3640  138.1830 C   0  0  1  0  0  3  0  0  0  0  0  0
  180.9050  175.4350  137.7940 C   0  0  1  0  0  3  0  0  0  0  0  0
  180.5470  175.6630  136.4630 O   0  0  0  0  0  1  0  0  0  0  0  0
  182.9450  174.7640  136.6370 O   0  0  0  0  0  0  0  0  0  0  0  0
  184.3150  174.9370  136.3790 C   0  0  0  0  0  0  0  0  0  0  0  0
  184.7090  176.1000  135.9880 N   0  0  0  0  0  2  0  0  0  0  0  0
  184.9050  172.4230  136.3970 C   0  0  0  0  0  2  0  0  0  0  0  0
  186.6380  174.0880  136.0500 F   0  0  0  0  0  0  0  0  0  0  0  0
  185.3150  172.9770  137.7590 C   0  0  0  0  0  2  0  0  0  0  0  0
  185.3620  173.8540  136.5310 C   0  0  0  0  0  0  0  0  0  0  0  0
  2  7  1  0  0  0  0
  3  2  1  6  0  0  0
  3  4  1  0  0  0  0
  4  6  1  0  0  0  0
  4  5  1  1  0  0  0
  6 19  1  1  0  0  0
  7  1  1  6  0  0  0
  7  6  1  0  0  0  0
  8 11  1  0  0  0  0
  9  8  2  0  0  0  0
  9 15  1  0  0  0  0
 10 14  1  1  0  0  0
 10  3  1  0  0  0  0
 10 17  1  0  0  0  0
 11 16  1  0  0  0  0
 12  8  1  0  0  0  0
 13 17  1  0  0  0  0
 15 16  1  0  0  0  0
 15 14  1  1  0  0  0
 16 13  1  1  0  0  0
 19 18  1  1  0  0  0
 20 19  1  0  0  0  0
 20 21  1  0  0  0  0
 22 21  1  0  0  0  0
 22 23  1  0  0  0  0
 23 25  1  0  0  0  0
 25 24  2  0  0  0  0
 25 26  1  0  0  0  0
 27 23  1  0  0  0  0
 28 34  1  1  0  0  0
 29 28  1  0  0  0  0
 29 27  1  1  0  0  0
 30 29  1  0  0  0  0
 31 30  1  0  0  0  0
 31 32  1  0  0  0  0
 32 28  1  0  0  0  0
 33 36  1  0  0  0  0
 34 33  2  0  0  0  0
 36 35  1  0  0  0  0
 38 37  1  0  0  0  0
 38 33  1  0  0  0  0
 39 31  1  0  0  0  0
 40 42  1  0  0  0  0
 41 42  1  0  0  0  0
 42 39  1  0  0  0  0
 43  2  1  0  0  0  0
 44 48  1  6  0  0  0
 44 45  1  0  0  0  0
 45 43  1  1  0  0  0
 46 47  1  6  0  0  0
 46 44  1  0  0  0  0
 46 45  1  0  0  0  0
 49 54  1  0  0  0  0
 49 48  1  0  0  0  0
 50 49  2  0  0  0  0
 51 54  1  0  0  0  0
 51 53  1  0  0  0  0
 52 54  1  0  0  0  0
 54 53  1  0  0  0  0
M  END
>  <MODEL>
4

>  <REMARK>
 VINA RESULT:      -5.9      1.636      2.022
  Name = 
  18 active torsions:
  status: ('A' for Active; 'I' for Inactive)
    1  A    between atoms: C_1  and  O_47
    2  A    between atoms: C_1  and  C_51
    3  A    between atoms: C_2  and  O_5
    4  A    between atoms: C_2  and  C_40
    5  A    between atoms: N_4  and  O_28
    6  A    between atoms: O_5  and  C_31
    7  A    between atoms: C_8  and  N_15
    8  A    between atoms: C_8  and  C_18
    9  A    between atoms: C_9  and  O_32
   10  A    between atoms: C_10  and  N_33
   11  A    between atoms: C_10  and  C_50
   12  A    between atoms: C_13  and  C_20
   13  A    between atoms: C_14  and  C_17
   14  A    between atoms: N_15  and  C_40
   15  A    between atoms: C_19  and  O_28
   16  A    between atoms: C_27  and  C_31
   17  A    between atoms: O_32  and  C_34
   18  A    between atoms: C_34  and  C_54
                            x       y       z     vdW  Elec       q    Type
                         _______ _______ _______ _____ _____    ______ ____

>  <TORSDO>
F 18

$$$$
=
 OpenBabel10222420033D

 54 59  0  0  1  0  0  0  0  0999 V2000
  188.9640  179.1340  138.6830 C   0  0  0  0  0  1  0  0  0  0  0  0
  189.9280  177.0020  139.3200 N   0  0  0  0  0  0  0  0  0  0  0  0
  189.8210  175.9890  138.2680 C   0  0  1  0  0  3  0  0  0  0  0  0
  188.4680  176.1160  137.5840 C   0  0  1  0  0  3  0  0  0  0  0  0
  187.8450  174.7410  137.4370 C   0  0  0  0  0  1  0  0  0  0  0  0
  187.6530  176.9530  138.5340 C   0  0  1  0  0  3  0  0  0  0  0  0
  188.6850  177.7700  139.3040 C   0  0  2  0  0  3  0  0  0  0  0  0
  194.4190  173.7590  135.5810 C   0  0  0  0  0  0  0  0  0  0  0  0
  193.1570  173.6230  135.4030 N   0  0  0  0  0  0  0  0  0  0  0  0
  190.9970  176.0820  137.2930 C   0  0  2  0  0  3  0  0  0  0  0  0
  194.7900  175.0320  136.0440 N   0  0  0  0  0  2  0  0  0  0  0  0
  195.3470  172.7020  135.3710 N   0  0  0  0  0  1  0  0  0  0  0  0
  193.5200  176.0980  137.6380 C   0  0  0  0  0  2  0  0  0  0  0  0
  191.3790  174.7240  136.6910 C   0  0  0  0  0  2  0  0  0  0  0  0
  192.5480  174.9070  135.7170 C   0  0  1  0  0  3  0  0  0  0  0  0
  193.6350  175.8080  136.2050 N   0  0  2  0  0  0  0  0  0  0  0  0
  192.1930  176.7910  137.9460 C   0  0  0  0  0  2  0  0  0  0  0  0
  186.7070  177.7610  136.4440 O   0  0  0  0  0  1  0  0  0  0  0  0
  186.5450  177.7660  137.8340 C   0  0  1  0  0  3  0  0  0  0  0  0
  185.2370  177.3540  138.1940 O   0  0  0  0  0  0  0  0  0  0  0  0
  184.5150  178.4650  138.6510 C   0  0  0  0  0  2  0  0  0  0  0  0
  183.4440  178.8450  137.6480 C   0  0  0  0  0  2  0  0  0  0  0  0
  182.2340  179.2820  138.3320 N   0  0  0  0  0  0  0  0  0  0  0  0
  181.0110  181.0300  139.2930 O   0  0  0  0  0  1  0  0  0  0  0  0
  182.0930  180.6490  138.7730 C   0  0  0  0  0  0  0  0  0  0  0  0
  183.1350  181.5600  138.6270 O   0  0  0  0  0  0  0  0  0  0  0  0
  181.1510  178.3380  138.5500 C   0  0  0  0  0  2  0  0  0  0  0  0
  180.4200  177.2310  140.7640 C   0  0  2  0  0  3  0  0  0  0  0  0
  181.4720  177.3330  139.6670 C   0  0  1  0  0  3  0  0  0  0  0  0
  181.5080  175.9480  139.0680 C   0  0  0  0  0  2  0  0  0  0  0  0
  180.1340  175.4970  138.8510 N   0  0  0  0  0  0  0  0  0  0  0  0
  179.1330  176.0760  140.2070 S   0  0  0  0  0  0  0  0  0  0  0  0
  180.2910  179.2330  142.2490 C   0  0  0  0  0  0  0  0  0  0  0  0
  179.8380  178.5370  141.2090 C   0  0  0  0  0  3  0  0  0  0  0  0
  178.9320  181.2020  141.6120 C   0  0  0  0  0  1  0  0  0  0  0  0
  179.6420  180.4240  142.5750 O   0  0  0  0  0  0  0  0  0  0  0  0
  182.2530  179.8210  143.4380 O   0  0  0  0  0  1  0  0  0  0  0  0
  181.4550  178.7430  143.0570 C   0  0  0  0  0  2  0  0  0  0  0  0
  180.1470  174.0420  138.9140 C   0  0  0  0  0  2  0  0  0  0  0  0
  181.3860  172.9640  137.0490 C   0  0  0  0  0  1  0  0  0  0  0  0
  179.5330  174.5320  136.5630 C   0  0  0  0  0  1  0  0  0  0  0  0
  180.0320  173.4610  137.5170 C   0  0  0  0  0  3  0  0  0  0  0  0
  189.9590  176.3320  140.4970 O   0  0  0  0  0  0  0  0  0  0  0  0
  189.7530  176.6780  142.8350 C   0  0  1  0  0  3  0  0  0  0  0  0
  189.9700  177.3230  141.4800 C   0  0  1  0  0  3  0  0  0  0  0  0
  191.1550  177.0920  142.3970 C   0  0  1  0  0  3  0  0  0  0  0  0
  191.5430  178.3020  142.9770 O   0  0  0  0  0  1  0  0  0  0  0  0
  189.1840  177.6270  143.7300 O   0  0  0  0  0  0  0  0  0  0  0  0
  188.7090  177.3360  145.0200 C   0  0  0  0  0  0  0  0  0  0  0  0
  187.5020  176.8950  145.1270 N   0  0  0  0  0  2  0  0  0  0  0  0
  191.0170  177.4580  146.1700 C   0  0  0  0  0  2  0  0  0  0  0  0
  189.0490  178.3590  147.2700 F   0  0  0  0  0  0  0  0  0  0  0  0
  190.2650  176.3020  146.8240 C   0  0  0  0  0  2  0  0  0  0  0  0
  189.5140  177.4990  146.2900 C   0  0  0  0  0  0  0  0  0  0  0  0
  2 43  1  0  0  0  0
  3  2  1  1  0  0  0
  4  5  1  1  0  0  0
  4  3  1  0  0  0  0
  4  6  1  0  0  0  0
  6 19  1  6  0  0  0
  6  7  1  0  0  0  0
  7  1  1  6  0  0  0
  7  2  1  0  0  0  0
  8 11  1  0  0  0  0
  9  8  2  0  0  0  0
  9 15  1  0  0  0  0
 10 14  1  1  0  0  0
 10 17  1  0  0  0  0
 10  3  1  0  0  0  0
 11 16  1  0  0  0  0
 12  8  1  0  0  0  0
 13 17  1  0  0  0  0
 15 16  1  0  0  0  0
 15 14  1  1  0  0  0
 16 13  1  1  0  0  0
 19 18  1  6  0  0  0
 19 20  1  0  0  0  0
 20 21  1  0  0  0  0
 22 23  1  0  0  0  0
 22 21  1  0  0  0  0
 23 27  1  0  0  0  0
 23 25  1  0  0  0  0
 25 24  1  0  0  0  0
 26 25  2  0  0  0  0
 28 34  1  6  0  0  0
 29 27  1  6  0  0  0
 29 28  1  0  0  0  0
 30 29  1  0  0  0  0
 31 39  1  0  0  0  0
 31 30  1  0  0  0  0
 31 32  1  0  0  0  0
 32 28  1  0  0  0  0
 33 36  1  0  0  0  0
 33 38  1  0  0  0  0
 34 33  2  0  0  0  0
 35 36  1  0  0  0  0
 38 37  1  0  0  0  0
 40 42  1  0  0  0  0
 41 42  1  0  0  0  0
 42 39  1  0  0  0  0
 44 48  1  1  0  0  0
 45 43  1  6  0  0  0
 45 46  1  0  0  0  0
 45 44  1  0  0  0  0
 46 44  1  0  0  0  0
 46 47  1  1  0  0  0
 48 49  1  0  0  0  0
 49 50  2  0  0  0  0
 49 54  1  0  0  0  0
 51 54  1  0  0  0  0
 51 53  1  0  0  0  0
 54 53  1  0  0  0  0
 54 52  1  0  0  0  0
M  END
>  <MODEL>
5

>  <REMARK>
 VINA RESULT:      -5.4      4.080     10.799
  Name = 
  18 active torsions:
  status: ('A' for Active; 'I' for Inactive)
    1  A    between atoms: C_1  and  O_47
    2  A    between atoms: C_1  and  C_51
    3  A    between atoms: C_2  and  O_5
    4  A    between atoms: C_2  and  C_40
    5  A    between atoms: N_4  and  O_28
    6  A    between atoms: O_5  and  C_31
    7  A    between atoms: C_8  and  N_15
    8  A    between atoms: C_8  and  C_18
    9  A    between atoms: C_9  and  O_32
   10  A    between atoms: C_10  and  N_33
   11  A    between atoms: C_10  and  C_50
   12  A    between atoms: C_13  and  C_20
   13  A    between atoms: C_14  and  C_17
   14  A    between atoms: N_15  and  C_40
   15  A    between atoms: C_19  and  O_28
   16  A    between atoms: C_27  and  C_31
   17  A    between atoms: O_32  and  C_34
   18  A    between atoms: C_34  and  C_54
                            x       y       z     vdW  Elec       q    Type
                         _______ _______ _______ _____ _____    ______ ____

>  <TORSDO>
F 18

$$$$
=
 OpenBabel10222420033D

 54 59  0  0  1  0  0  0  0  0999 V2000
  185.2230  178.3990  137.6790 C   0  0  0  0  0  1  0  0  0  0  0  0
  183.1390  177.2700  138.1890 N   0  0  0  0  0  0  0  0  0  0  0  0
  182.2430  178.0720  139.0240 C   0  0  1  0  0  3  0  0  0  0  0  0
  183.0610  178.8150  140.0700 C   0  0  1  0  0  3  0  0  0  0  0  0
  182.3970  178.6730  141.4260 C   0  0  0  0  0  1  0  0  0  0  0  0
  184.3890  178.1040  140.0700 C   0  0  1  0  0  3  0  0  0  0  0  0
  184.4980  177.5000  138.6740 C   0  0  2  0  0  3  0  0  0  0  0  0
  180.0740  183.2580  137.7060 C   0  0  0  0  0  0  0  0  0  0  0  0
  181.2200  182.7200  137.5110 N   0  0  0  0  0  0  0  0  0  0  0  0
  181.3790  179.0010  138.1680 C   0  0  2  0  0  3  0  0  0  0  0  0
  179.0080  182.3450  137.6710 N   0  0  0  0  0  2  0  0  0  0  0  0
  179.9080  184.6440  137.9790 N   0  0  0  0  0  1  0  0  0  0  0  0
  179.2260  180.2740  138.6480 C   0  0  0  0  0  2  0  0  0  0  0  0
  181.8900  180.4470  138.1580 C   0  0  0  0  0  2  0  0  0  0  0  0
  180.9840  181.3040  137.2680 C   0  0  1  0  0  3  0  0  0  0  0  0
  179.5210  181.0610  137.4450 N   0  0  2  0  0  0  0  0  0  0  0  0
  179.9020  178.9050  138.5780 C   0  0  0  0  0  2  0  0  0  0  0  0
  185.2740  179.6950  141.6840 O   0  0  0  0  0  1  0  0  0  0  0  0
  185.5640  179.0070  140.5000 C   0  0  1  0  0  3  0  0  0  0  0  0
  186.7940  178.3100  140.6060 O   0  0  0  0  0  0  0  0  0  0  0  0
  187.1620  178.2320  141.9560 C   0  0  0  0  0  2  0  0  0  0  0  0
  188.5870  178.7170  142.1410 C   0  0  0  0  0  2  0  0  0  0  0  0
  189.2990  177.8640  143.0840 N   0  0  0  0  0  0  0  0  0  0  0  0
  190.7600  176.0710  143.4370 O   0  0  0  0  0  1  0  0  0  0  0  0
  190.0880  176.7510  142.6160 C   0  0  0  0  0  0  0  0  0  0  0  0
  190.1260  176.4180  141.2660 O   0  0  0  0  0  0  0  0  0  0  0  0
  189.2320  178.1540  144.5070 C   0  0  0  0  0  2  0  0  0  0  0  0
  188.7050  177.1150  146.8100 C   0  0  2  0  0  3  0  0  0  0  0  0
  188.5460  177.0290  145.2970 C   0  0  1  0  0  3  0  0  0  0  0  0
  187.0550  177.1340  145.0830 C   0  0  0  0  0  2  0  0  0  0  0  0
  186.5410  178.2290  145.9030 N   0  0  0  0  0  0  0  0  0  0  0  0
  187.4240  178.2340  147.4500 S   0  0  0  0  0  0  0  0  0  0  0  0
  191.0430  176.6340  147.5390 C   0  0  0  0  0  0  0  0  0  0  0  0
  190.0700  177.5070  147.2840 C   0  0  0  0  0  3  0  0  0  0  0  0
  193.1910  176.3290  148.7330 C   0  0  0  0  0  1  0  0  0  0  0  0
  192.2620  177.1280  148.0010 O   0  0  0  0  0  0  0  0  0  0  0  0
  191.6720  174.6850  146.3500 O   0  0  0  0  0  1  0  0  0  0  0  0
  190.8280  175.1620  147.3530 C   0  0  0  0  0  2  0  0  0  0  0  0
  185.1490  177.9220  146.2010 C   0  0  0  0  0  2  0  0  0  0  0  0
  183.3140  178.4320  144.6050 C   0  0  0  0  0  1  0  0  0  0  0  0
  185.0960  180.0990  145.0180 C   0  0  0  0  0  1  0  0  0  0  0  0
  184.2470  179.0100  145.6510 C   0  0  0  0  0  3  0  0  0  0  0  0
  182.8460  175.9720  138.4480 O   0  0  0  0  0  0  0  0  0  0  0  0
  181.8340  174.0530  137.4890 C   0  0  1  0  0  3  0  0  0  0  0  0
  182.2930  175.4810  137.2640 C   0  0  1  0  0  3  0  0  0  0  0  0
  180.8210  175.1950  137.4920 C   0  0  1  0  0  3  0  0  0  0  0  0
  180.1340  175.2810  136.2780 O   0  0  0  0  0  1  0  0  0  0  0  0
  181.8280  173.3530  136.2490 O   0  0  0  0  0  0  0  0  0  0  0  0
  182.1190  171.9870  136.0940 C   0  0  0  0  0  0  0  0  0  0  0  0
  181.1810  171.2240  135.6460 N   0  0  0  0  0  2  0  0  0  0  0  0
  184.2640  170.8230  135.2530 C   0  0  0  0  0  2  0  0  0  0  0  0
  184.2160  171.8730  137.4410 F   0  0  0  0  0  0  0  0  0  0  0  0
  183.5990  169.8580  136.2310 C   0  0  0  0  0  2  0  0  0  0  0  0
  183.4540  171.3500  136.4110 C   0  0  0  0  0  0  0  0  0  0  0  0
  2 43  1  0  0  0  0
  2  7  1  0  0  0  0
  3  2  1  6  0  0  0
  3  4  1  0  0  0  0
  4  6  1  0  0  0  0
  4  5  1  1  0  0  0
  6 19  1  6  0  0  0
  7  1  1  6  0  0  0
  7  6  1  0  0  0  0
  8 12  1  0  0  0  0
  9  8  2  0  0  0  0
 10 14  1  1  0  0  0
 10 17  1  0  0  0  0
 10  3  1  0  0  0  0
 11  8  1  0  0  0  0
 15 16  1  0  0  0  0
 15  9  1  0  0  0  0
 15 14  1  1  0  0  0
 16 11  1  0  0  0  0
 16 13  1  1  0  0  0
 17 13  1  0  0  0  0
 19 20  1  0  0  0  0
 19 18  1  1  0  0  0
 20 21  1  0  0  0  0
 21 22  1  0  0  0  0
 22 23  1  0  0  0  0
 23 27  1  0  0  0  0
 25 23  1  0  0  0  0
 25 24  1  0  0  0  0
 26 25  2  0  0  0  0
 28 34  1  6  0  0  0
 28 32  1  0  0  0  0
 29 27  1  6  0  0  0
 29 28  1  0  0  0  0
 30 29  1  0  0  0  0
 30 31  1  0  0  0  0
 31 39  1  0  0  0  0
 31 32  1  0  0  0  0
 33 36  1  0  0  0  0
 34 33  2  0  0  0  0
 36 35  1  0  0  0  0
 37 38  1  0  0  0  0
 38 33  1  0  0  0  0
 40 42  1  0  0  0  0
 41 42  1  0  0  0  0
 42 39  1  0  0  0  0
 44 48  1  6  0  0  0
 44 46  1  0  0  0  0
 45 44  1  0  0  0  0
 45 46  1  0  0  0  0
 45 43  1  1  0  0  0
 46 47  1  6  0  0  0
 49 48  1  0  0  0  0
 49 54  1  0  0  0  0
 50 49  2  0  0  0  0
 51 53  1  0  0  0  0
 51 54  1  0  0  0  0
 53 54  1  0  0  0  0
 54 52  1  0  0  0  0
M  END
>  <MODEL>
6

>  <REMARK>
 VINA RESULT:      -5.2      2.485      4.133
  Name = 
  18 active torsions:
  status: ('A' for Active; 'I' for Inactive)
    1  A    between atoms: C_1  and  O_47
    2  A    between atoms: C_1  and  C_51
    3  A    between atoms: C_2  and  O_5
    4  A    between atoms: C_2  and  C_40
    5  A    between atoms: N_4  and  O_28
    6  A    between atoms: O_5  and  C_31
    7  A    between atoms: C_8  and  N_15
    8  A    between atoms: C_8  and  C_18
    9  A    between atoms: C_9  and  O_32
   10  A    between atoms: C_10  and  N_33
   11  A    between atoms: C_10  and  C_50
   12  A    between atoms: C_13  and  C_20
   13  A    between atoms: C_14  and  C_17
   14  A    between atoms: N_15  and  C_40
   15  A    between atoms: C_19  and  O_28
   16  A    between atoms: C_27  and  C_31
   17  A    between atoms: O_32  and  C_34
   18  A    between atoms: C_34  and  C_54
                            x       y       z     vdW  Elec       q    Type
                         _______ _______ _______ _____ _____    ______ ____

>  <TORSDO>
F 18

$$$$
=
 OpenBabel10222420033D

 54 59  0  0  1  0  0  0  0  0999 V2000
  186.0940  178.6420  137.4610 C   0  0  0  0  0  1  0  0  0  0  0  0
  184.2260  177.1150  137.6950 N   0  0  0  0  0  0  0  0  0  0  0  0
  183.1740  177.6280  138.5740 C   0  0  1  0  0  3  0  0  0  0  0  0
  183.8110  178.3460  139.7550 C   0  0  1  0  0  3  0  0  0  0  0  0
  183.1350  177.9050  141.0390 C   0  0  0  0  0  1  0  0  0  0  0  0
  185.2430  177.8790  139.7390 C   0  0  1  0  0  3  0  0  0  0  0  0
  185.5050  177.5030  138.2850 C   0  0  2  0  0  3  0  0  0  0  0  0
  179.6130  182.1520  138.1360 C   0  0  0  0  0  0  0  0  0  0  0  0
  180.8890  182.0430  138.0990 N   0  0  0  0  0  0  0  0  0  0  0  0
  182.1890  178.5070  137.7990 C   0  0  2  0  0  3  0  0  0  0  0  0
  178.9360  181.0420  137.6050 N   0  0  0  0  0  2  0  0  0  0  0  0
  178.9500  183.2740  138.7050 N   0  0  0  0  0  1  0  0  0  0  0  0
  179.6870  178.9130  138.0400 C   0  0  0  0  0  2  0  0  0  0  0  0
  182.1790  179.9610  138.2870 C   0  0  0  0  0  2  0  0  0  0  0  0
  181.1840  180.7740  137.4500 C   0  0  1  0  0  3  0  0  0  0  0  0
  179.8800  180.0930  137.1920 N   0  0  2  0  0  0  0  0  0  0  0  0
  180.7870  177.8810  137.7920 C   0  0  0  0  0  2  0  0  0  0  0  0
  185.7330  179.4220  141.5550 O   0  0  0  0  0  1  0  0  0  0  0  0
  186.2240  178.8990  140.3530 C   0  0  1  0  0  3  0  0  0  0  0  0
  187.5330  178.3830  140.5210 O   0  0  0  0  0  0  0  0  0  0  0  0
  187.7780  178.1880  141.8880 C   0  0  0  0  0  2  0  0  0  0  0  0
  189.0370  178.9200  142.3070 C   0  0  0  0  0  2  0  0  0  0  0  0
  189.8630  178.0720  143.1560 N   0  0  0  0  0  0  0  0  0  0  0  0
  191.5410  176.4490  143.3190 O   0  0  0  0  0  1  0  0  0  0  0  0
  190.7770  177.1200  142.5750 C   0  0  0  0  0  0  0  0  0  0  0  0
  190.8360  176.9330  141.1970 O   0  0  0  0  0  0  0  0  0  0  0  0
  189.7820  178.2050  144.6010 C   0  0  0  0  0  2  0  0  0  0  0  0
  188.9230  177.1000  146.7690 C   0  0  2  0  0  3  0  0  0  0  0  0
  189.0320  177.0330  145.2510 C   0  0  1  0  0  3  0  0  0  0  0  0
  187.5960  177.0650  144.7830 C   0  0  0  0  0  2  0  0  0  0  0  0
  186.8910  178.1170  145.5120 N   0  0  0  0  0  0  0  0  0  0  0  0
  187.4940  178.1410  147.1880 S   0  0  0  0  0  0  0  0  0  0  0  0
  191.2160  176.7670  147.7000 C   0  0  0  0  0  0  0  0  0  0  0  0
  190.1640  177.5530  147.4750 C   0  0  0  0  0  3  0  0  0  0  0  0
  193.1850  176.5080  149.1790 C   0  0  0  0  0  1  0  0  0  0  0  0
  192.3000  177.3060  148.3920 O   0  0  0  0  0  0  0  0  0  0  0  0
  192.1670  175.1820  146.2200 O   0  0  0  0  0  1  0  0  0  0  0  0
  191.2260  175.3410  147.2370 C   0  0  0  0  0  2  0  0  0  0  0  0
  185.4870  177.7340  145.5630 C   0  0  0  0  0  2  0  0  0  0  0  0
  183.3060  178.6270  144.7760 C   0  0  0  0  0  1  0  0  0  0  0  0
  185.3310  180.0490  144.6900 C   0  0  0  0  0  1  0  0  0  0  0  0
  184.6080  178.9670  145.4750 C   0  0  0  0  0  3  0  0  0  0  0  0
  184.1580  175.7630  137.7640 O   0  0  0  0  0  0  0  0  0  0  0  0
  186.2380  174.7510  137.2380 C   0  0  1  0  0  3  0  0  0  0  0  0
  184.9340  175.3050  136.6980 C   0  0  1  0  0  3  0  0  0  0  0  0
  185.1120  173.8050  136.8300 C   0  0  1  0  0  3  0  0  0  0  0  0
  185.3370  173.2460  135.5690 O   0  0  0  0  0  1  0  0  0  0  0  0
  187.2440  174.8310  136.2340 O   0  0  0  0  0  0  0  0  0  0  0  0
  188.6010  174.5210  136.4260 C   0  0  0  0  0  0  0  0  0  0  0  0
  188.9480  173.2820  136.3510 N   0  0  0  0  0  2  0  0  0  0  0  0
  191.0160  175.3440  136.0320 C   0  0  0  0  0  2  0  0  0  0  0  0
  189.3250  176.8650  136.8820 F   0  0  0  0  0  0  0  0  0  0  0  0
  190.8750  175.1100  137.5330 C   0  0  0  0  0  2  0  0  0  0  0  0
  189.6830  175.5390  136.7110 C   0  0  0  0  0  0  0  0  0  0  0  0
  2 43  1  0  0  0  0
  2  7  1  0  0  0  0
  3  2  1  6  0  0  0
  3  4  1  0  0  0  0
  4  5  1  1  0  0  0
  6  4  1  0  0  0  0
  6 19  1  6  0  0  0
  7  1  1  6  0  0  0
  7  6  1  0  0  0  0
  8 12  1  0  0  0  0
  9  8  2  0  0  0  0
 10 17  1  1  0  0  0
 10 14  1  0  0  0  0
 10  3  1  0  0  0  0
 11  8  1  0  0  0  0
 15  9  1  0  0  0  0
 15 14  1  1  0  0  0
 16 15  1  0  0  0  0
 16 11  1  0  0  0  0
 16 13  1  1  0  0  0
 17 13  1  0  0  0  0
 19 20  1  0  0  0  0
 19 18  1  1  0  0  0
 20 21  1  0  0  0  0
 21 22  1  0  0  0  0
 22 23  1  0  0  0  0
 23 27  1  0  0  0  0
 25 23  1  0  0  0  0
 25 24  1  0  0  0  0
 26 25  2  0  0  0  0
 28 32  1  0  0  0  0
 28 34  1  1  0  0  0
 29 27  1  6  0  0  0
 29 28  1  0  0  0  0
 30 29  1  0  0  0  0
 30 31  1  0  0  0  0
 31 39  1  0  0  0  0
 31 32  1  0  0  0  0
 33 36  1  0  0  0  0
 34 33  2  0  0  0  0
 36 35  1  0  0  0  0
 37 38  1  0  0  0  0
 38 33  1  0  0  0  0
 40 42  1  0  0  0  0
 41 42  1  0  0  0  0
 42 39  1  0  0  0  0
 44 48  1  6  0  0  0
 45 46  1  0  0  0  0
 45 44  1  0  0  0  0
 45 43  1  1  0  0  0
 46 47  1  6  0  0  0
 46 44  1  0  0  0  0
 48 49  1  0  0  0  0
 49 54  1  0  0  0  0
 50 49  2  0  0  0  0
 51 54  1  0  0  0  0
 51 53  1  0  0  0  0
 54 52  1  0  0  0  0
 54 53  1  0  0  0  0
M  END
>  <MODEL>
7

>  <REMARK>
 VINA RESULT:      -5.1      2.649      4.826
  Name = 
  18 active torsions:
  status: ('A' for Active; 'I' for Inactive)
    1  A    between atoms: C_1  and  O_47
    2  A    between atoms: C_1  and  C_51
    3  A    between atoms: C_2  and  O_5
    4  A    between atoms: C_2  and  C_40
    5  A    between atoms: N_4  and  O_28
    6  A    between atoms: O_5  and  C_31
    7  A    between atoms: C_8  and  N_15
    8  A    between atoms: C_8  and  C_18
    9  A    between atoms: C_9  and  O_32
   10  A    between atoms: C_10  and  N_33
   11  A    between atoms: C_10  and  C_50
   12  A    between atoms: C_13  and  C_20
   13  A    between atoms: C_14  and  C_17
   14  A    between atoms: N_15  and  C_40
   15  A    between atoms: C_19  and  O_28
   16  A    between atoms: C_27  and  C_31
   17  A    between atoms: O_32  and  C_34
   18  A    between atoms: C_34  and  C_54
                            x       y       z     vdW  Elec       q    Type
                         _______ _______ _______ _____ _____    ______ ____

>  <TORSDO>
F 18

$$$$
=
 OpenBabel10222420033D

 54 59  0  0  1  0  0  0  0  0999 V2000
  183.8430  178.0930  137.8160 C   0  0  0  0  0  1  0  0  0  0  0  0
  181.8880  177.3280  139.0280 N   0  0  0  0  0  0  0  0  0  0  0  0
  181.4110  178.2980  140.0160 C   0  0  1  0  0  3  0  0  0  0  0  0
  182.6050  178.9520  140.6960 C   0  0  1  0  0  3  0  0  0  0  0  0
  182.3810  178.9780  142.1960 C   0  0  0  0  0  1  0  0  0  0  0  0
  183.7590  178.0440  140.3630 C   0  0  1  0  0  3  0  0  0  0  0  0
  183.3480  177.3660  139.0600 C   0  0  2  0  0  3  0  0  0  0  0  0
  180.2230  183.4730  137.7460 C   0  0  0  0  0  0  0  0  0  0  0  0
  180.8200  182.4370  137.2850 N   0  0  0  0  0  0  0  0  0  0  0  0
  180.4570  179.3100  139.3770 C   0  0  2  0  0  3  0  0  0  0  0  0
  179.1910  183.1720  138.6500 N   0  0  0  0  0  2  0  0  0  0  0  0
  180.6030  184.7990  137.4060 N   0  0  0  0  0  1  0  0  0  0  0  0
  179.4670  181.5040  140.2090 C   0  0  0  0  0  2  0  0  0  0  0  0
  181.1780  180.3140  138.4690 C   0  0  0  0  0  2  0  0  0  0  0  0
  180.1530  181.2770  137.8570 C   0  0  1  0  0  3  0  0  0  0  0  0
  179.1210  181.7820  138.8110 N   0  0  2  0  0  0  0  0  0  0  0  0
  179.5960  180.0000  140.4450 C   0  0  0  0  0  2  0  0  0  0  0  0
  185.9440  178.3530  141.3880 O   0  0  0  0  0  1  0  0  0  0  0  0
  185.1200  178.7710  140.3370 C   0  0  1  0  0  3  0  0  0  0  0  0
  185.7890  178.6600  139.0920 O   0  0  0  0  0  0  0  0  0  0  0  0
  187.1110  178.2530  139.3170 C   0  0  0  0  0  2  0  0  0  0  0  0
  187.9570  178.5080  138.0840 C   0  0  0  0  0  2  0  0  0  0  0  0
  188.8340  177.3750  137.8230 N   0  0  0  0  0  0  0  0  0  0  0  0
  189.0820  175.1930  137.0140 O   0  0  0  0  0  0  0  0  0  0  0  0
  188.3010  176.1370  137.3090 C   0  0  0  0  0  0  0  0  0  0  0  0
  186.9320  175.9680  137.1250 O   0  0  0  0  0  1  0  0  0  0  0  0
  190.2620  177.5020  138.0600 C   0  0  0  0  0  2  0  0  0  0  0  0
  192.3340  176.2000  138.8800 C   0  0  2  0  0  3  0  0  0  0  0  0
  190.8170  176.3450  138.9030 C   0  0  1  0  0  3  0  0  0  0  0  0
  190.5010  176.6150  140.3540 C   0  0  0  0  0  2  0  0  0  0  0  0
  191.4310  177.6250  140.8550 N   0  0  0  0  0  0  0  0  0  0  0  0
  193.0280  177.3300  140.1230 S   0  0  0  0  0  0  0  0  0  0  0  0
  193.7230  175.4740  136.9380 C   0  0  0  0  0  0  0  0  0  0  0  0
  192.9700  176.3930  137.5390 C   0  0  0  0  0  3  0  0  0  0  0  0
  195.6880  175.8790  135.4870 C   0  0  0  0  0  1  0  0  0  0  0  0
  194.2790  175.7900  135.6990 O   0  0  0  0  0  0  0  0  0  0  0  0
  195.0650  174.2440  138.4530 O   0  0  0  0  0  1  0  0  0  0  0  0
  193.9790  174.1450  137.5830 C   0  0  0  0  0  2  0  0  0  0  0  0
  191.5660  177.4080  142.2890 C   0  0  0  0  0  2  0  0  0  0  0  0
  191.2660  179.1490  144.0370 C   0  0  0  0  0  1  0  0  0  0  0  0
  189.5880  177.3470  143.7820 C   0  0  0  0  0  1  0  0  0  0  0  0
  190.5550  178.2540  143.0410 C   0  0  0  0  0  3  0  0  0  0  0  0
  181.5180  176.1060  139.4820 O   0  0  0  0  0  0  0  0  0  0  0  0
  181.3330  174.0490  138.3140 C   0  0  1  0  0  3  0  0  0  0  0  0
  180.8820  175.4940  138.4000 C   0  0  1  0  0  3  0  0  0  0  0  0
  179.9770  174.3950  138.9220 C   0  0  1  0  0  3  0  0  0  0  0  0
  178.9330  174.1770  138.0180 O   0  0  0  0  0  1  0  0  0  0  0  0
  181.2030  173.5880  136.9740 O   0  0  0  0  0  0  0  0  0  0  0  0
  182.2660  173.4230  136.0700 C   0  0  0  0  0  0  0  0  0  0  0  0
  182.2180  174.0810  134.9630 N   0  0  0  0  0  2  0  0  0  0  0  0
  183.6300  171.3350  135.4010 C   0  0  0  0  0  2  0  0  0  0  0  0
  184.6580  173.1060  136.7050 F   0  0  0  0  0  0  0  0  0  0  0  0
  183.2310  171.1450  136.8620 C   0  0  0  0  0  2  0  0  0  0  0  0
  183.4650  172.5300  136.3070 C   0  0  0  0  0  0  0  0  0  0  0  0
  2  7  1  0  0  0  0
  2 43  1  0  0  0  0
  3  2  1  6  0  0  0
  3  4  1  0  0  0  0
  4  5  1  1  0  0  0
  6 19  1  6  0  0  0
  6  4  1  0  0  0  0
  7  1  1  6  0  0  0
  7  6  1  0  0  0  0
  8 11  1  0  0  0  0
  9  8  2  0  0  0  0
  9 15  1  0  0  0  0
 10 14  1  1  0  0  0
 10  3  1  0  0  0  0
 10 17  1  0  0  0  0
 11 16  1  0  0  0  0
 12  8  1  0  0  0  0
 13 17  1  0  0  0  0
 15 14  1  1  0  0  0
 15 16  1  0  0  0  0
 16 13  1  1  0  0  0
 19 18  1  1  0  0  0
 20 21  1  0  0  0  0
 20 19  1  0  0  0  0
 22 21  1  0  0  0  0
 23 27  1  0  0  0  0
 23 22  1  0  0  0  0
 24 25  2  0  0  0  0
 25 23  1  0  0  0  0
 26 25  1  0  0  0  0
 28 34  1  6  0  0  0
 28 29  1  0  0  0  0
 28 32  1  0  0  0  0
 29 27  1  6  0  0  0
 29 30  1  0  0  0  0
 30 31  1  0  0  0  0
 31 39  1  0  0  0  0
 32 31  1  0  0  0  0
 33 34  2  0  0  0  0
 33 38  1  0  0  0  0
 35 36  1  0  0  0  0
 36 33  1  0  0  0  0
 38 37  1  0  0  0  0
 39 42  1  0  0  0  0
 42 41  1  0  0  0  0
 42 40  1  0  0  0  0
 44 48  1  6  0  0  0
 44 45  1  0  0  0  0
 44 46  1  0  0  0  0
 45 46  1  0  0  0  0
 45 43  1  1  0  0  0
 46 47  1  6  0  0  0
 49 54  1  0  0  0  0
 49 48  1  0  0  0  0
 50 49  2  0  0  0  0
 51 54  1  0  0  0  0
 51 53  1  0  0  0  0
 54 52  1  0  0  0  0
 54 53  1  0  0  0  0
M  END
>  <MODEL>
8

>  <REMARK>
 VINA RESULT:      -5.1      3.020      4.784
  Name = 
  18 active torsions:
  status: ('A' for Active; 'I' for Inactive)
    1  A    between atoms: C_1  and  O_47
    2  A    between atoms: C_1  and  C_51
    3  A    between atoms: C_2  and  O_5
    4  A    between atoms: C_2  and  C_40
    5  A    between atoms: N_4  and  O_28
    6  A    between atoms: O_5  and  C_31
    7  A    between atoms: C_8  and  N_15
    8  A    between atoms: C_8  and  C_18
    9  A    between atoms: C_9  and  O_32
   10  A    between atoms: C_10  and  N_33
   11  A    between atoms: C_10  and  C_50
   12  A    between atoms: C_13  and  C_20
   13  A    between atoms: C_14  and  C_17
   14  A    between atoms: N_15  and  C_40
   15  A    between atoms: C_19  and  O_28
   16  A    between atoms: C_27  and  C_31
   17  A    between atoms: O_32  and  C_34
   18  A    between atoms: C_34  and  C_54
                            x       y       z     vdW  Elec       q    Type
                         _______ _______ _______ _____ _____    ______ ____

>  <TORSDO>
F 18

$$$$
=
 OpenBabel10222420033D

 54 59  0  0  1  0  0  0  0  0999 V2000
  189.5260  175.5480  138.5590 C   0  0  0  0  0  1  0  0  0  0  0  0
  189.3260  174.8640  136.2420 N   0  0  0  0  0  0  0  0  0  0  0  0
  190.0030  175.7750  135.3160 C   0  0  1  0  0  3  0  0  0  0  0  0
  189.7940  177.2090  135.7780 C   0  0  1  0  0  3  0  0  0  0  0  0
  189.4000  178.0700  134.5940 C   0  0  0  0  0  1  0  0  0  0  0  0
  188.6490  177.1170  136.7530 C   0  0  1  0  0  3  0  0  0  0  0  0
  188.7100  175.6870  137.2790 C   0  0  2  0  0  3  0  0  0  0  0  0
  194.5680  172.4110  136.4040 C   0  0  0  0  0  0  0  0  0  0  0  0
  193.5590  172.2820  135.6260 N   0  0  0  0  0  0  0  0  0  0  0  0
  191.4800  175.4040  135.1620 C   0  0  2  0  0  3  0  0  0  0  0  0
  194.9890  173.7410  136.5660 N   0  0  0  0  0  2  0  0  0  0  0  0
  195.1730  171.3130  137.0730 N   0  0  0  0  0  1  0  0  0  0  0  0
  193.4380  175.4250  136.7900 C   0  0  0  0  0  2  0  0  0  0  0  0
  191.7360  173.9010  135.3240 C   0  0  0  0  0  2  0  0  0  0  0  0
  193.2300  173.6130  135.1380 C   0  0  1  0  0  3  0  0  0  0  0  0
  194.1430  174.5760  135.8240 N   0  0  2  0  0  0  0  0  0  0  0  0
  192.3570  176.2520  136.0950 C   0  0  0  0  0  2  0  0  0  0  0  0
  189.0410  179.4600  137.2790 O   0  0  0  0  0  1  0  0  0  0  0  0
  188.6700  178.2260  137.8250 C   0  0  1  0  0  3  0  0  0  0  0  0
  187.4520  178.3330  138.5420 O   0  0  0  0  0  0  0  0  0  0  0  0
  187.7220  178.2840  139.9160 C   0  0  0  0  0  2  0  0  0  0  0  0
  189.2120  178.4180  140.1640 C   0  0  0  0  0  2  0  0  0  0  0  0
  189.6230  177.5690  141.2750 N   0  0  0  0  0  0  0  0  0  0  0  0
  191.3540  176.4980  142.4280 O   0  0  0  0  0  1  0  0  0  0  0  0
  191.0000  177.1660  141.4210 C   0  0  0  0  0  0  0  0  0  0  0  0
  191.9520  177.5120  140.4660 O   0  0  0  0  0  0  0  0  0  0  0  0
  188.6390  177.1450  142.2580 C   0  0  0  0  0  2  0  0  0  0  0  0
  187.0050  178.2550  143.9180 C   0  0  2  0  0  3  0  0  0  0  0  0
  188.4180  178.2010  143.3510 C   0  0  1  0  0  3  0  0  0  0  0  0
  189.2730  177.8440  144.5430 C   0  0  0  0  0  2  0  0  0  0  0  0
  188.6340  176.7450  145.2640 N   0  0  0  0  0  0  0  0  0  0  0  0
  186.8710  176.9970  145.2220 S   0  0  0  0  0  0  0  0  0  0  0  0
  184.6580  178.5280  143.1140 C   0  0  0  0  0  0  0  0  0  0  0  0
  185.9090  178.1240  142.9060 C   0  0  0  0  0  3  0  0  0  0  0  0
  184.0840  178.2950  140.7170 C   0  0  0  0  0  1  0  0  0  0  0  0
  183.7250  178.3240  142.0980 O   0  0  0  0  0  0  0  0  0  0  0  0
  182.8750  179.1000  144.5640 O   0  0  0  0  0  1  0  0  0  0  0  0
  184.2590  179.1690  144.4100 C   0  0  0  0  0  2  0  0  0  0  0  0
  189.0520  176.8470  146.6550 C   0  0  0  0  0  2  0  0  0  0  0  0
  189.4160  178.5250  148.4530 C   0  0  0  0  0  1  0  0  0  0  0  0
  187.1210  178.0230  147.6710 C   0  0  0  0  0  1  0  0  0  0  0  0
  188.5730  178.1600  147.2460 C   0  0  0  0  0  3  0  0  0  0  0  0
  188.3150  174.2910  135.5450 O   0  0  0  0  0  0  0  0  0  0  0  0
  186.6200  172.6410  135.7200 C   0  0  1  0  0  3  0  0  0  0  0  0
  187.7130  173.4060  136.4410 C   0  0  1  0  0  3  0  0  0  0  0  0
  187.9740  171.9860  135.9770 C   0  0  1  0  0  3  0  0  0  0  0  0
  187.9310  171.1190  137.0720 O   0  0  0  0  0  1  0  0  0  0  0  0
  185.6420  172.2060  136.6600 O   0  0  0  0  0  0  0  0  0  0  0  0
  184.3950  172.8190  136.8670 C   0  0  0  0  0  0  0  0  0  0  0  0
  184.3270  173.7510  137.7550 N   0  0  0  0  0  2  0  0  0  0  0  0
  182.3600  171.2540  136.5920 C   0  0  0  0  0  2  0  0  0  0  0  0
  182.3300  173.4850  135.6360 F   0  0  0  0  0  0  0  0  0  0  0  0
  183.1210  171.2170  135.2690 C   0  0  0  0  0  2  0  0  0  0  0  0
  183.1270  172.4640  136.1210 C   0  0  0  0  0  0  0  0  0  0  0  0
  2  7  1  0  0  0  0
  3  4  1  0  0  0  0
  3  2  1  1  0  0  0
  4  5  1  6  0  0  0
  4  6  1  0  0  0  0
  6  7  1  0  0  0  0
  6 19  1  1  0  0  0
  7  1  1  1  0  0  0
  8 11  1  0  0  0  0
  8 12  1  0  0  0  0
  9  8  2  0  0  0  0
 10  3  1  0  0  0  0
 10 14  1  1  0  0  0
 10 17  1  0  0  0  0
 15 14  1  1  0  0  0
 15  9  1  0  0  0  0
 15 16  1  0  0  0  0
 16 11  1  0  0  0  0
 16 13  1  1  0  0  0
 17 13  1  0  0  0  0
 19 18  1  6  0  0  0
 19 20  1  0  0  0  0
 20 21  1  0  0  0  0
 21 22  1  0  0  0  0
 22 23  1  0  0  0  0
 23 25  1  0  0  0  0
 23 27  1  0  0  0  0
 25 24  1  0  0  0  0
 26 25  2  0  0  0  0
 28 34  1  6  0  0  0
 28 32  1  0  0  0  0
 29 27  1  6  0  0  0
 29 28  1  0  0  0  0
 29 30  1  0  0  0  0
 30 31  1  0  0  0  0
 31 39  1  0  0  0  0
 32 31  1  0  0  0  0
 33 38  1  0  0  0  0
 34 33  2  0  0  0  0
 35 36  1  0  0  0  0
 36 33  1  0  0  0  0
 38 37  1  0  0  0  0
 39 42  1  0  0  0  0
 42 41  1  0  0  0  0
 42 40  1  0  0  0  0
 43  2  1  0  0  0  0
 44 46  1  0  0  0  0
 44 45  1  0  0  0  0
 44 48  1  1  0  0  0
 45 43  1  6  0  0  0
 46 45  1  0  0  0  0
 46 47  1  1  0  0  0
 48 49  1  0  0  0  0
 49 50  2  0  0  0  0
 52 54  1  0  0  0  0
 53 54  1  0  0  0  0
 53 51  1  0  0  0  0
 54 51  1  0  0  0  0
 54 49  1  0  0  0  0
M  END
>  <MODEL>
9

>  <REMARK>
 VINA RESULT:      -4.9      4.306      9.221
  Name = 
  18 active torsions:
  status: ('A' for Active; 'I' for Inactive)
    1  A    between atoms: C_1  and  O_47
    2  A    between atoms: C_1  and  C_51
    3  A    between atoms: C_2  and  O_5
    4  A    between atoms: C_2  and  C_40
    5  A    between atoms: N_4  and  O_28
    6  A    between atoms: O_5  and  C_31
    7  A    between atoms: C_8  and  N_15
    8  A    between atoms: C_8  and  C_18
    9  A    between atoms: C_9  and  O_32
   10  A    between atoms: C_10  and  N_33
   11  A    between atoms: C_10  and  C_50
   12  A    between atoms: C_13  and  C_20
   13  A    between atoms: C_14  and  C_17
   14  A    between atoms: N_15  and  C_40
   15  A    between atoms: C_19  and  O_28
   16  A    between atoms: C_27  and  C_31
   17  A    between atoms: O_32  and  C_34
   18  A    between atoms: C_34  and  C_54
                            x       y       z     vdW  Elec       q    Type
                         _______ _______ _______ _____ _____    ______ ____

>  <TORSDO>
F 18

$$$$
