=
 OpenBabel10222415473D

 44 47  0  0  1  0  0  0  0  0999 V2000
  188.1660  178.4380  143.8560 C   0  0  0  0  0  0  0  0  0  0  0  0
  191.4470  176.3670  142.0650 C   0  0  0  0  0  3  0  0  0  0  0  0
  191.5110  176.0190  143.4550 N   0  0  0  0  0  0  0  0  0  0  0  0
  189.1570  178.2620  144.7980 O   0  0  0  0  0  0  0  0  0  0  0  0
  186.2220  178.2800  142.6450 C   0  0  0  0  0  0  0  0  0  0  0  0
  190.0790  178.2190  142.6520 N   0  0  0  0  0  0  0  0  0  0  0  0
  191.0360  176.7670  144.4110 C   0  0  0  0  0  0  0  0  0  0  0  0
  186.7820  178.3700  143.9300 C   0  0  0  0  0  0  0  0  0  0  0  0
  186.0200  178.2630  145.2070 C   0  0  0  0  0  1  0  0  0  0  0  0
  191.1770  176.3200  145.7630 N   0  0  0  0  0  2  0  0  0  0  0  0
  187.4810  178.2580  141.4820 S   0  0  0  0  0  0  0  0  0  0  0  0
  190.7640  177.4360  141.6630 C   0  0  0  0  0  0  0  0  0  0  0  0
  188.6850  178.4790  142.6300 C   0  0  0  0  0  0  0  0  0  0  0  0
  190.4080  178.1130  144.0970 C   0  0  2  0  0  3  0  0  0  0  0  0
  184.4190  178.4230  140.8780 C   0  0  0  0  0  2  0  0  0  0  0  0
  184.7520  178.1630  142.3580 C   0  0  0  0  0  3  0  0  0  0  0  0
  182.4400  178.9800  143.0170 C   0  0  0  0  0  2  0  0  0  0  0  0
  182.9850  178.9280  140.6890 C   0  0  0  0  0  2  0  0  0  0  0  0
  183.9530  179.0880  143.2770 C   0  0  0  0  0  2  0  0  0  0  0  0
  182.1140  178.3630  141.7230 N   0  0  0  0  0  0  0  0  0  0  0  0
  180.7470  178.7550  141.4130 C   0  0  0  0  0  2  0  0  0  0  0  0
  179.2320  176.6870  141.2780 N   0  0  0  0  0  2  0  0  0  0  0  0
  179.6300  176.2210  139.9790 C   0  0  0  0  0  0  0  0  0  0  0  0
  179.7690  177.7940  142.0150 C   0  0  0  0  0  0  0  0  0  0  0  0
  179.3580  177.9990  143.1890 O   0  0  0  0  0  0  0  0  0  0  0  0
  178.9310  175.2880  139.4160 N   0  0  0  0  0  2  0  0  0  0  0  0
  181.8890  175.6460  139.1150 C   0  0  0  0  0  1  0  0  0  0  0  0
  180.8570  176.7420  139.2940 C   0  0  0  0  0  3  0  0  0  0  0  0
  180.5140  177.3580  137.9510 C   0  0  0  0  0  1  0  0  0  0  0  0
  190.5560  176.9130  139.2900 C   0  0  0  0  0  0  0  0  0  0  0  0
  190.9230  174.8040  138.3560 O   0  0  0  0  0  1  0  0  0  0  0  0
  190.7660  177.7880  140.2370 C   0  0  0  0  0  3  0  0  0  0  0  0
  190.3320  176.0610  138.3280 C   0  0  0  0  0  0  0  0  0  0  0  0
  189.4210  176.4320  137.2110 C   0  0  0  0  0  2  0  0  0  0  0  0
  188.3600  177.2930  137.7060 N   0  0  0  0  0  2  0  0  0  0  0  0
  187.1320  176.5200  137.6400 C   0  0  0  0  0  2  0  0  0  0  0  0
  186.0830  178.6100  137.9930 F   0  0  0  0  0  0  0  0  0  0  0  0
  185.9530  177.4180  137.3060 C   0  0  0  0  0  0  0  0  0  0  0  0
  185.9250  177.6770  135.9480 F   0  0  0  0  0  0  0  0  0  0  0  0
  184.7720  176.8050  137.6820 F   0  0  0  0  0  0  0  0  0  0  0  0
  190.8660  177.1490  146.9170 C   0  0  0  0  0  2  0  0  0  0  0  0
  189.4380  176.8910  147.3530 C   0  0  0  0  0  2  0  0  0  0  0  0
  187.5770  178.2160  148.3040 C   0  0  0  0  0  1  0  0  0  0  0  0
  189.0520  177.8890  148.4230 C   0  0  0  0  0  2  0  0  0  0  0  0
  1  8  1  0  0  0  0
  1  4  1  0  0  0  0
  2  3  1  0  0  0  0
  3  7  2  0  0  0  0
  5  8  2  0  0  0  0
  6 14  1  0  0  0  0
  7 10  1  0  0  0  0
  8  9  1  0  0  0  0
 10 41  1  0  0  0  0
 11 13  1  0  0  0  0
 11  5  1  0  0  0  0
 12  2  2  0  0  0  0
 12  6  1  0  0  0  0
 13  6  1  0  0  0  0
 13  1  2  0  0  0  0
 14  7  1  6  0  0  0
 14  4  1  0  0  0  0
 15 16  1  0  0  0  0
 16  5  1  0  0  0  0
 16 19  1  0  0  0  0
 17 19  1  0  0  0  0
 18 15  1  0  0  0  0
 18 20  1  0  0  0  0
 20 17  1  0  0  0  0
 21 20  1  0  0  0  0
 21 24  1  0  0  0  0
 22 24  1  0  0  0  0
 23 22  1  0  0  0  0
 24 25  2  0  0  0  0
 26 23  2  0  0  0  0
 27 28  1  0  0  0  0
 28 23  1  0  0  0  0
 29 28  1  0  0  0  0
 30 32  2  0  0  0  0
 32 12  1  0  0  0  0
 33 31  1  0  0  0  0
 33 30  2  0  0  0  0
 34 35  1  0  0  0  0
 34 33  1  0  0  0  0
 36 35  1  0  0  0  0
 38 36  1  0  0  0  0
 38 40  1  0  0  0  0
 38 37  1  0  0  0  0
 39 38  1  0  0  0  0
 41 42  1  0  0  0  0
 42 44  1  0  0  0  0
 43 44  1  0  0  0  0
M  END
>  <MODEL>
1

>  <REMARK>
 VINA RESULT:      -7.7      0.000      0.000
  Name = 
  12 active torsions:
  status: ('A' for Active; 'I' for Inactive)
    1  A    between atoms: N_4  and  C_19
    2  A    between atoms: N_4  and  C_26
    3  A    between atoms: C_8  and  N_30
    4  A    between atoms: C_8  and  C_42
    5  A    between atoms: C_10  and  C_26
    6  A    between atoms: C_12  and  C_32
    7  A    between atoms: C_15  and  C_24
    8  A    between atoms: C_17  and  C_20
    9  A    between atoms: C_17  and  N_44
   10  A    between atoms: C_19  and  C_41
   11  A    between atoms: C_22  and  C_42
   12  A    between atoms: C_31  and  C_38
                            x       y       z     vdW  Elec       q    Type
                         _______ _______ _______ _____ _____    ______ ____

>  <TORSDO>
F 12

$$$$
=
 OpenBabel10222415473D

 44 47  0  0  1  0  0  0  0  0999 V2000
  188.1260  178.3180  144.2010 C   0  0  0  0  0  0  0  0  0  0  0  0
  191.2010  176.1130  142.2160 C   0  0  0  0  0  3  0  0  0  0  0  0
  191.3410  175.7680  143.6020 N   0  0  0  0  0  0  0  0  0  0  0  0
  189.1670  178.1070  145.0790 O   0  0  0  0  0  0  0  0  0  0  0  0
  186.1020  178.2310  143.1190 C   0  0  0  0  0  0  0  0  0  0  0  0
  189.9470  178.0200  142.8780 N   0  0  0  0  0  0  0  0  0  0  0  0
  190.9580  176.5380  144.5810 C   0  0  0  0  0  0  0  0  0  0  0  0
  186.7470  178.3050  144.3640 C   0  0  0  0  0  0  0  0  0  0  0  0
  186.0660  178.2320  145.6880 C   0  0  0  0  0  1  0  0  0  0  0  0
  191.1690  176.0910  145.9240 N   0  0  0  0  0  2  0  0  0  0  0  0
  187.2820  178.1560  141.8770 S   0  0  0  0  0  0  0  0  0  0  0  0
  190.5360  177.2060  141.8520 C   0  0  0  0  0  0  0  0  0  0  0  0
  188.5650  178.3340  142.9440 C   0  0  0  0  0  0  0  0  0  0  0  0
  190.3640  177.9070  144.2990 C   0  0  2  0  0  3  0  0  0  0  0  0
  184.2150  178.0630  141.4450 C   0  0  0  0  0  2  0  0  0  0  0  0
  184.6140  178.1710  142.9270 C   0  0  0  0  0  3  0  0  0  0  0  0
  182.4110  179.3290  143.4310 C   0  0  0  0  0  2  0  0  0  0  0  0
  182.8130  178.6230  141.1820 C   0  0  0  0  0  2  0  0  0  0  0  0
  183.9400  179.3700  143.5970 C   0  0  0  0  0  2  0  0  0  0  0  0
  181.9660  178.4250  142.3600 N   0  0  0  0  0  0  0  0  0  0  0  0
  180.6150  178.8400  142.0080 C   0  0  0  0  0  2  0  0  0  0  0  0
  179.3850  177.9340  139.9440 N   0  0  0  0  0  2  0  0  0  0  0  0
  179.5940  179.0540  139.0690 C   0  0  0  0  0  0  0  0  0  0  0  0
  179.9000  177.7500  141.2710 C   0  0  0  0  0  0  0  0  0  0  0  0
  179.6900  176.6540  141.8570 O   0  0  0  0  0  0  0  0  0  0  0  0
  178.9310  179.1010  137.9580 N   0  0  0  0  0  2  0  0  0  0  0  0
  181.6120  180.2620  138.2660 C   0  0  0  0  0  1  0  0  0  0  0  0
  180.5930  180.1260  139.3810 C   0  0  0  0  0  3  0  0  0  0  0  0
  179.9100  181.4570  139.6280 C   0  0  0  0  0  1  0  0  0  0  0  0
  191.3400  177.1480  139.5510 C   0  0  0  0  0  0  0  0  0  0  0  0
  193.5590  176.7680  138.9260 O   0  0  0  0  0  1  0  0  0  0  0  0
  190.4600  177.5530  140.4260 C   0  0  0  0  0  3  0  0  0  0  0  0
  192.1960  176.7410  138.6550 C   0  0  0  0  0  0  0  0  0  0  0  0
  191.7070  176.2250  137.3470 C   0  0  0  0  0  2  0  0  0  0  0  0
  190.3260  175.7890  137.4750 N   0  0  0  0  0  2  0  0  0  0  0  0
  189.5800  176.4550  136.4210 C   0  0  0  0  0  2  0  0  0  0  0  0
  189.3610  178.6530  137.2670 F   0  0  0  0  0  0  0  0  0  0  0  0
  188.6460  177.5000  137.0070 C   0  0  0  0  0  0  0  0  0  0  0  0
  187.6330  177.7860  136.1100 F   0  0  0  0  0  0  0  0  0  0  0  0
  188.0970  177.0330  138.1870 F   0  0  0  0  0  0  0  0  0  0  0  0
  190.9650  176.9360  147.0900 C   0  0  0  0  0  2  0  0  0  0  0  0
  189.5310  176.8080  147.5620 C   0  0  0  0  0  2  0  0  0  0  0  0
  187.7480  177.8930  148.8910 C   0  0  0  0  0  1  0  0  0  0  0  0
  189.1230  178.0760  148.2790 C   0  0  0  0  0  2  0  0  0  0  0  0
  1  8  1  0  0  0  0
  1  4  1  0  0  0  0
  2  3  1  0  0  0  0
  3  7  2  0  0  0  0
  5  8  2  0  0  0  0
  6 13  1  0  0  0  0
  6 14  1  0  0  0  0
  7 10  1  0  0  0  0
  8  9  1  0  0  0  0
 10 41  1  0  0  0  0
 11 13  1  0  0  0  0
 11  5  1  0  0  0  0
 12  2  2  0  0  0  0
 12  6  1  0  0  0  0
 13  1  2  0  0  0  0
 14  7  1  6  0  0  0
 14  4  1  0  0  0  0
 15 16  1  0  0  0  0
 16  5  1  0  0  0  0
 16 19  1  0  0  0  0
 17 19  1  0  0  0  0
 18 15  1  0  0  0  0
 18 20  1  0  0  0  0
 20 17  1  0  0  0  0
 21 20  1  0  0  0  0
 22 24  1  0  0  0  0
 23 28  1  0  0  0  0
 23 22  1  0  0  0  0
 24 25  2  0  0  0  0
 24 21  1  0  0  0  0
 26 23  2  0  0  0  0
 27 28  1  0  0  0  0
 28 29  1  0  0  0  0
 30 32  2  0  0  0  0
 32 12  1  0  0  0  0
 33 31  1  0  0  0  0
 33 30  2  0  0  0  0
 34 35  1  0  0  0  0
 34 33  1  0  0  0  0
 36 38  1  0  0  0  0
 36 35  1  0  0  0  0
 38 37  1  0  0  0  0
 38 40  1  0  0  0  0
 39 38  1  0  0  0  0
 41 42  1  0  0  0  0
 42 44  1  0  0  0  0
 44 43  1  0  0  0  0
M  END
>  <MODEL>
2

>  <REMARK>
 VINA RESULT:      -7.7      1.572      1.907
  Name = 
  12 active torsions:
  status: ('A' for Active; 'I' for Inactive)
    1  A    between atoms: N_4  and  C_19
    2  A    between atoms: N_4  and  C_26
    3  A    between atoms: C_8  and  N_30
    4  A    between atoms: C_8  and  C_42
    5  A    between atoms: C_10  and  C_26
    6  A    between atoms: C_12  and  C_32
    7  A    between atoms: C_15  and  C_24
    8  A    between atoms: C_17  and  C_20
    9  A    between atoms: C_17  and  N_44
   10  A    between atoms: C_19  and  C_41
   11  A    between atoms: C_22  and  C_42
   12  A    between atoms: C_31  and  C_38
                            x       y       z     vdW  Elec       q    Type
                         _______ _______ _______ _____ _____    ______ ____

>  <TORSDO>
F 12

$$$$
=
 OpenBabel10222415473D

 44 47  0  0  1  0  0  0  0  0999 V2000
  186.1660  178.5910  138.3690 C   0  0  0  0  0  0  0  0  0  0  0  0
  183.9770  177.7960  141.9520 C   0  0  0  0  0  3  0  0  0  0  0  0
  183.0110  177.6700  140.8990 N   0  0  0  0  0  0  0  0  0  0  0  0
  184.8460  178.9360  138.1760 O   0  0  0  0  0  0  0  0  0  0  0  0
  188.2020  177.5320  138.2940 C   0  0  0  0  0  0  0  0  0  0  0  0
  185.3660  179.0090  140.4530 N   0  0  0  0  0  0  0  0  0  0  0  0
  183.1110  178.2760  139.7490 C   0  0  0  0  0  0  0  0  0  0  0  0
  187.1060  177.9890  137.5440 C   0  0  0  0  0  0  0  0  0  0  0  0
  186.8990  177.7400  136.0890 C   0  0  0  0  0  1  0  0  0  0  0  0
  182.0720  178.0850  138.7840 N   0  0  0  0  0  2  0  0  0  0  0  0
  187.9320  177.8740  139.9520 S   0  0  0  0  0  0  0  0  0  0  0  0
  185.1190  178.4510  141.7520 C   0  0  0  0  0  0  0  0  0  0  0  0
  186.4950  178.6900  139.6550 C   0  0  0  0  0  0  0  0  0  0  0  0
  184.2720  179.2140  139.4700 C   0  0  2  0  0  3  0  0  0  0  0  0
  189.0550  175.3650  137.3100 C   0  0  0  0  0  2  0  0  0  0  0  0
  189.3890  176.8080  137.7240 C   0  0  0  0  0  3  0  0  0  0  0  0
  191.7980  176.1270  138.1420 C   0  0  0  0  0  2  0  0  0  0  0  0
  190.2880  174.4550  137.3400 C   0  0  0  0  0  2  0  0  0  0  0  0
  190.5610  176.8480  138.7050 C   0  0  0  0  0  2  0  0  0  0  0  0
  191.4890  175.2300  137.0190 N   0  0  0  0  0  0  0  0  0  0  0  0
  192.6020  174.2980  136.9190 C   0  0  0  0  0  2  0  0  0  0  0  0
  194.8660  174.8420  135.8390 N   0  0  0  0  0  2  0  0  0  0  0  0
  195.7000  174.6560  136.9930 C   0  0  0  0  0  0  0  0  0  0  0  0
  193.4540  174.6130  135.7290 C   0  0  0  0  0  0  0  0  0  0  0  0
  192.9040  174.7410  134.6020 O   0  0  0  0  0  0  0  0  0  0  0  0
  196.9310  175.0500  136.9370 N   0  0  0  0  0  2  0  0  0  0  0  0
  195.4690  172.4790  138.1710 C   0  0  0  0  0  1  0  0  0  0  0  0
  195.1970  173.9700  138.2280 C   0  0  0  0  0  3  0  0  0  0  0  0
  195.8190  174.5650  139.4760 C   0  0  0  0  0  1  0  0  0  0  0  0
  185.6960  178.4910  144.1210 C   0  0  0  0  0  0  0  0  0  0  0  0
  184.1910  178.9460  145.8490 O   0  0  0  0  0  1  0  0  0  0  0  0
  186.0580  178.6030  142.8710 C   0  0  0  0  0  3  0  0  0  0  0  0
  185.3620  178.3660  145.3760 C   0  0  0  0  0  0  0  0  0  0  0  0
  186.2280  177.5790  146.2950 C   0  0  0  0  0  2  0  0  0  0  0  0
  187.5600  178.1590  146.3340 N   0  0  0  0  0  2  0  0  0  0  0  0
  188.4980  177.0540  146.2270 C   0  0  0  0  0  2  0  0  0  0  0  0
  189.2150  178.4340  144.4450 F   0  0  0  0  0  0  0  0  0  0  0  0
  189.2760  177.1400  144.9240 C   0  0  0  0  0  0  0  0  0  0  0  0
  190.5980  176.7960  145.1390 F   0  0  0  0  0  0  0  0  0  0  0  0
  188.7240  176.2840  143.9880 F   0  0  0  0  0  0  0  0  0  0  0  0
  181.9730  178.8530  137.5530 C   0  0  0  0  0  2  0  0  0  0  0  0
  180.7230  179.7080  137.5910 C   0  0  0  0  0  2  0  0  0  0  0  0
  180.1400  181.9780  136.7940 C   0  0  0  0  0  1  0  0  0  0  0  0
  181.1150  181.1700  137.6270 C   0  0  0  0  0  2  0  0  0  0  0  0
  1 13  2  0  0  0  0
  3  2  1  0  0  0  0
  4  1  1  0  0  0  0
  5 11  1  0  0  0  0
  6 12  1  0  0  0  0
  7  3  2  0  0  0  0
  8  5  2  0  0  0  0
  8  1  1  0  0  0  0
  9  8  1  0  0  0  0
 10  7  1  0  0  0  0
 12  2  2  0  0  0  0
 12 32  1  0  0  0  0
 13 11  1  0  0  0  0
 13  6  1  0  0  0  0
 14  4  1  6  0  0  0
 14  7  1  0  0  0  0
 14  6  1  0  0  0  0
 15 18  1  0  0  0  0
 15 16  1  0  0  0  0
 16  5  1  0  0  0  0
 16 19  1  0  0  0  0
 17 19  1  0  0  0  0
 20 18  1  0  0  0  0
 20 17  1  0  0  0  0
 21 20  1  0  0  0  0
 22 23  1  0  0  0  0
 23 28  1  0  0  0  0
 24 22  1  0  0  0  0
 24 21  1  0  0  0  0
 25 24  2  0  0  0  0
 26 23  2  0  0  0  0
 27 28  1  0  0  0  0
 28 29  1  0  0  0  0
 30 33  2  0  0  0  0
 32 30  2  0  0  0  0
 33 31  1  0  0  0  0
 33 34  1  0  0  0  0
 34 35  1  0  0  0  0
 36 35  1  0  0  0  0
 37 38  1  0  0  0  0
 38 39  1  0  0  0  0
 38 36  1  0  0  0  0
 40 38  1  0  0  0  0
 41 42  1  0  0  0  0
 41 10  1  0  0  0  0
 42 44  1  0  0  0  0
 43 44  1  0  0  0  0
M  END
>  <MODEL>
3

>  <REMARK>
 VINA RESULT:      -7.6      3.982     10.649
  Name = 
  12 active torsions:
  status: ('A' for Active; 'I' for Inactive)
    1  A    between atoms: N_4  and  C_19
    2  A    between atoms: N_4  and  C_26
    3  A    between atoms: C_8  and  N_30
    4  A    between atoms: C_8  and  C_42
    5  A    between atoms: C_10  and  C_26
    6  A    between atoms: C_12  and  C_32
    7  A    between atoms: C_15  and  C_24
    8  A    between atoms: C_17  and  C_20
    9  A    between atoms: C_17  and  N_44
   10  A    between atoms: C_19  and  C_41
   11  A    between atoms: C_22  and  C_42
   12  A    between atoms: C_31  and  C_38
                            x       y       z     vdW  Elec       q    Type
                         _______ _______ _______ _____ _____    ______ ____

>  <TORSDO>
F 12

$$$$
=
 OpenBabel10222415473D

 44 47  0  0  1  0  0  0  0  0999 V2000
  189.5750  177.2650  138.1240 C   0  0  0  0  0  0  0  0  0  0  0  0
  185.5450  176.3070  137.0740 C   0  0  0  0  0  3  0  0  0  0  0  0
  186.3470  175.3780  136.3300 N   0  0  0  0  0  0  0  0  0  0  0  0
  189.5570  176.7170  136.8590 O   0  0  0  0  0  0  0  0  0  0  0  0
  189.8720  177.6040  140.3750 C   0  0  0  0  0  0  0  0  0  0  0  0
  187.4770  177.6620  137.3510 N   0  0  0  0  0  0  0  0  0  0  0  0
  187.5800  175.6080  135.9770 C   0  0  0  0  0  0  0  0  0  0  0  0
  190.4550  177.1300  139.1890 C   0  0  0  0  0  0  0  0  0  0  0  0
  191.7750  176.4430  139.0980 C   0  0  0  0  0  1  0  0  0  0  0  0
  188.2710  174.6100  135.2190 N   0  0  0  0  0  2  0  0  0  0  0  0
  188.2770  178.1410  140.0440 S   0  0  0  0  0  0  0  0  0  0  0  0
  186.0790  177.4220  137.5670 C   0  0  0  0  0  0  0  0  0  0  0  0
  188.4170  177.8630  138.3950 C   0  0  0  0  0  0  0  0  0  0  0  0
  188.2430  176.9340  136.3060 C   0  0  2  0  0  3  0  0  0  0  0  0
  190.2560  176.2840  142.4970 C   0  0  0  0  0  2  0  0  0  0  0  0
  190.5340  177.5850  141.7240 C   0  0  0  0  0  3  0  0  0  0  0  0
  190.8000  178.8290  143.9210 C   0  0  0  0  0  2  0  0  0  0  0  0
  190.3510  176.4820  144.0130 C   0  0  0  0  0  2  0  0  0  0  0  0
  190.1250  178.8130  142.5380 C   0  0  0  0  0  2  0  0  0  0  0  0
  191.3370  177.5200  144.3220 N   0  0  0  0  0  0  0  0  0  0  0  0
  191.4940  177.5660  145.7680 C   0  0  0  0  0  2  0  0  0  0  0  0
  190.3030  175.8420  147.2510 N   0  0  0  0  0  2  0  0  0  0  0  0
  189.1420  176.6190  147.5840 C   0  0  0  0  0  0  0  0  0  0  0  0
  191.3700  176.1960  146.3600 C   0  0  0  0  0  0  0  0  0  0  0  0
  192.2650  175.3440  146.1150 O   0  0  0  0  0  0  0  0  0  0  0  0
  188.3560  176.1880  148.5180 N   0  0  0  0  0  2  0  0  0  0  0  0
  187.7710  177.5950  145.7540 C   0  0  0  0  0  1  0  0  0  0  0  0
  188.7910  177.8730  146.8420 C   0  0  0  0  0  3  0  0  0  0  0  0
  188.2680  178.9400  147.7850 C   0  0  0  0  0  1  0  0  0  0  0  0
  184.3240  177.9990  139.1590 C   0  0  0  0  0  0  0  0  0  0  0  0
  182.6160  176.5570  139.8370 O   0  0  0  0  0  1  0  0  0  0  0  0
  185.2130  178.3720  138.2770 C   0  0  0  0  0  3  0  0  0  0  0  0
  183.4420  177.6520  140.0550 C   0  0  0  0  0  0  0  0  0  0  0  0
  183.3400  178.4210  141.3260 C   0  0  0  0  0  2  0  0  0  0  0  0
  184.6530  178.5340  141.9400 N   0  0  0  0  0  2  0  0  0  0  0  0
  184.5360  179.5300  142.9910 C   0  0  0  0  0  2  0  0  0  0  0  0
  185.2470  179.6550  145.2430 F   0  0  0  0  0  0  0  0  0  0  0  0
  184.5390  178.8660  144.3580 C   0  0  0  0  0  0  0  0  0  0  0  0
  183.2420  178.7200  144.8160 F   0  0  0  0  0  0  0  0  0  0  0  0
  185.1410  177.6240  144.2770 F   0  0  0  0  0  0  0  0  0  0  0  0
  189.5710  174.8290  134.6050 C   0  0  0  0  0  2  0  0  0  0  0  0
  190.4300  173.5940  134.7880 C   0  0  0  0  0  2  0  0  0  0  0  0
  192.3690  174.2070  136.1990 C   0  0  0  0  0  1  0  0  0  0  0  0
  190.9900  173.5760  136.1940 C   0  0  0  0  0  2  0  0  0  0  0  0
  1 13  2  0  0  0  0
  1  8  1  0  0  0  0
  2 12  2  0  0  0  0
  3  2  1  0  0  0  0
  4  1  1  0  0  0  0
  5 16  1  0  0  0  0
  6 12  1  0  0  0  0
  6 13  1  0  0  0  0
  7  3  2  0  0  0  0
  8  5  2  0  0  0  0
  9  8  1  0  0  0  0
 10  7  1  0  0  0  0
 11  5  1  0  0  0  0
 12 32  1  0  0  0  0
 13 11  1  0  0  0  0
 14  7  1  1  0  0  0
 14  4  1  0  0  0  0
 14  6  1  0  0  0  0
 15 18  1  0  0  0  0
 16 15  1  0  0  0  0
 16 19  1  0  0  0  0
 17 20  1  0  0  0  0
 18 20  1  0  0  0  0
 19 17  1  0  0  0  0
 20 21  1  0  0  0  0
 21 24  1  0  0  0  0
 22 23  1  0  0  0  0
 23 26  2  0  0  0  0
 24 22  1  0  0  0  0
 25 24  2  0  0  0  0
 27 28  1  0  0  0  0
 28 23  1  0  0  0  0
 28 29  1  0  0  0  0
 30 33  2  0  0  0  0
 31 33  1  0  0  0  0
 32 30  2  0  0  0  0
 33 34  1  0  0  0  0
 34 35  1  0  0  0  0
 35 36  1  0  0  0  0
 36 38  1  0  0  0  0
 38 39  1  0  0  0  0
 38 37  1  0  0  0  0
 40 38  1  0  0  0  0
 41 42  1  0  0  0  0
 41 10  1  0  0  0  0
 42 44  1  0  0  0  0
 44 43  1  0  0  0  0
M  END
>  <MODEL>
4

>  <REMARK>
 VINA RESULT:      -7.4      3.090      9.129
  Name = 
  12 active torsions:
  status: ('A' for Active; 'I' for Inactive)
    1  A    between atoms: N_4  and  C_19
    2  A    between atoms: N_4  and  C_26
    3  A    between atoms: C_8  and  N_30
    4  A    between atoms: C_8  and  C_42
    5  A    between atoms: C_10  and  C_26
    6  A    between atoms: C_12  and  C_32
    7  A    between atoms: C_15  and  C_24
    8  A    between atoms: C_17  and  C_20
    9  A    between atoms: C_17  and  N_44
   10  A    between atoms: C_19  and  C_41
   11  A    between atoms: C_22  and  C_42
   12  A    between atoms: C_31  and  C_38
                            x       y       z     vdW  Elec       q    Type
                         _______ _______ _______ _____ _____    ______ ____

>  <TORSDO>
F 12

$$$$
=
 OpenBabel10222415473D

 44 47  0  0  1  0  0  0  0  0999 V2000
  187.5260  178.2860  139.7310 C   0  0  0  0  0  0  0  0  0  0  0  0
  186.3660  177.6600  143.7960 C   0  0  0  0  0  3  0  0  0  0  0  0
  185.1380  177.6210  143.0560 N   0  0  0  0  0  0  0  0  0  0  0  0
  186.2380  178.7420  139.9070 O   0  0  0  0  0  0  0  0  0  0  0  0
  189.3650  177.0580  139.1110 C   0  0  0  0  0  0  0  0  0  0  0  0
  187.3770  178.7580  141.9470 N   0  0  0  0  0  0  0  0  0  0  0  0
  184.9630  178.2230  141.9130 C   0  0  0  0  0  0  0  0  0  0  0  0
  188.1450  177.6110  138.6880 C   0  0  0  0  0  0  0  0  0  0  0  0
  187.5210  177.3880  137.3530 C   0  0  0  0  0  1  0  0  0  0  0  0
  183.6840  178.1260  141.2790 N   0  0  0  0  0  2  0  0  0  0  0  0
  189.5980  177.4130  140.7720 S   0  0  0  0  0  0  0  0  0  0  0  0
  187.4570  178.2160  143.2740 C   0  0  0  0  0  0  0  0  0  0  0  0
  188.2080  178.3490  140.8720 C   0  0  0  0  0  0  0  0  0  0  0  0
  186.0730  179.0610  141.3040 C   0  0  2  0  0  3  0  0  0  0  0  0
  191.6950  176.1160  138.8380 C   0  0  0  0  0  2  0  0  0  0  0  0
  190.2810  176.2400  138.2460 C   0  0  0  0  0  3  0  0  0  0  0  0
  191.2410  175.9790  135.9100 C   0  0  0  0  0  2  0  0  0  0  0  0
  192.7550  175.8730  137.7580 C   0  0  0  0  0  2  0  0  0  0  0  0
  190.3210  176.8060  136.8260 C   0  0  0  0  0  2  0  0  0  0  0  0
  192.1730  175.1140  136.6490 N   0  0  0  0  0  0  0  0  0  0  0  0
  193.2490  174.7870  135.7250 C   0  0  0  0  0  2  0  0  0  0  0  0
  194.4960  172.5480  135.5720 N   0  0  0  0  0  2  0  0  0  0  0  0
  195.7620  172.9770  136.0960 C   0  0  0  0  0  0  0  0  0  0  0  0
  193.2890  173.3140  135.4560 C   0  0  0  0  0  0  0  0  0  0  0  0
  192.2400  172.7390  135.0560 O   0  0  0  0  0  0  0  0  0  0  0  0
  196.7770  172.1810  135.9900 N   0  0  0  0  0  2  0  0  0  0  0  0
  196.1750  174.0760  138.2880 C   0  0  0  0  0  1  0  0  0  0  0  0
  195.9190  174.2870  136.8080 C   0  0  0  0  0  3  0  0  0  0  0  0
  197.0380  175.1110  136.1990 C   0  0  0  0  0  1  0  0  0  0  0  0
  188.7170  177.9370  145.3430 C   0  0  0  0  0  0  0  0  0  0  0  0
  187.7810  177.9570  147.4830 O   0  0  0  0  0  1  0  0  0  0  0  0
  188.6800  178.2820  144.0840 C   0  0  0  0  0  3  0  0  0  0  0  0
  188.7820  177.5810  146.5960 C   0  0  0  0  0  0  0  0  0  0  0  0
  189.9210  176.7480  147.0680 C   0  0  0  0  0  2  0  0  0  0  0  0
  191.1460  177.1680  146.4070 N   0  0  0  0  0  2  0  0  0  0  0  0
  191.7610  175.9670  145.8680 C   0  0  0  0  0  2  0  0  0  0  0  0
  190.3610  175.6270  143.9930 F   0  0  0  0  0  0  0  0  0  0  0  0
  191.6550  175.9480  144.3530 C   0  0  0  0  0  0  0  0  0  0  0  0
  191.9740  177.1930  143.8400 F   0  0  0  0  0  0  0  0  0  0  0  0
  192.5180  175.0010  143.8320 F   0  0  0  0  0  0  0  0  0  0  0  0
  183.3080  178.9060  140.1100 C   0  0  0  0  0  2  0  0  0  0  0  0
  182.4670  178.0530  139.1830 C   0  0  0  0  0  2  0  0  0  0  0  0
  182.9950  175.6790  138.7210 C   0  0  0  0  0  1  0  0  0  0  0  0
  182.3940  176.6420  139.7260 C   0  0  0  0  0  2  0  0  0  0  0  0
  1  4  1  0  0  0  0
  1 13  2  0  0  0  0
  3  2  1  0  0  0  0
  5 11  1  0  0  0  0
  6 12  1  0  0  0  0
  7  3  2  0  0  0  0
  8  5  2  0  0  0  0
  8  1  1  0  0  0  0
  9  8  1  0  0  0  0
 10  7  1  0  0  0  0
 11 13  1  0  0  0  0
 12  2  2  0  0  0  0
 12 32  1  0  0  0  0
 13  6  1  0  0  0  0
 14  4  1  6  0  0  0
 14  7  1  0  0  0  0
 14  6  1  0  0  0  0
 16 15  1  0  0  0  0
 16  5  1  0  0  0  0
 17 20  1  0  0  0  0
 17 19  1  0  0  0  0
 18 15  1  0  0  0  0
 19 16  1  0  0  0  0
 20 18  1  0  0  0  0
 21 20  1  0  0  0  0
 22 23  1  0  0  0  0
 23 28  1  0  0  0  0
 24 22  1  0  0  0  0
 24 21  1  0  0  0  0
 25 24  2  0  0  0  0
 26 23  2  0  0  0  0
 28 27  1  0  0  0  0
 29 28  1  0  0  0  0
 30 33  2  0  0  0  0
 32 30  2  0  0  0  0
 33 34  1  0  0  0  0
 33 31  1  0  0  0  0
 35 34  1  0  0  0  0
 36 35  1  0  0  0  0
 37 38  1  0  0  0  0
 38 36  1  0  0  0  0
 39 38  1  0  0  0  0
 40 38  1  0  0  0  0
 41 10  1  0  0  0  0
 42 44  1  0  0  0  0
 42 41  1  0  0  0  0
 43 44  1  0  0  0  0
M  END
>  <MODEL>
5

>  <REMARK>
 VINA RESULT:      -7.4      4.145     10.313
  Name = 
  12 active torsions:
  status: ('A' for Active; 'I' for Inactive)
    1  A    between atoms: N_4  and  C_19
    2  A    between atoms: N_4  and  C_26
    3  A    between atoms: C_8  and  N_30
    4  A    between atoms: C_8  and  C_42
    5  A    between atoms: C_10  and  C_26
    6  A    between atoms: C_12  and  C_32
    7  A    between atoms: C_15  and  C_24
    8  A    between atoms: C_17  and  C_20
    9  A    between atoms: C_17  and  N_44
   10  A    between atoms: C_19  and  C_41
   11  A    between atoms: C_22  and  C_42
   12  A    between atoms: C_31  and  C_38
                            x       y       z     vdW  Elec       q    Type
                         _______ _______ _______ _____ _____    ______ ____

>  <TORSDO>
F 12

$$$$
=
 OpenBabel10222415473D

 44 47  0  0  1  0  0  0  0  0999 V2000
  185.8530  178.2300  137.9790 C   0  0  0  0  0  0  0  0  0  0  0  0
  183.6810  177.8460  141.6390 C   0  0  0  0  0  3  0  0  0  0  0  0
  182.7990  177.3250  140.6350 N   0  0  0  0  0  0  0  0  0  0  0  0
  184.5030  178.2820  137.7100 O   0  0  0  0  0  0  0  0  0  0  0  0
  188.0440  177.5610  138.1490 C   0  0  0  0  0  0  0  0  0  0  0  0
  184.9020  178.9360  139.9170 N   0  0  0  0  0  0  0  0  0  0  0  0
  182.8420  177.6770  139.3800 C   0  0  0  0  0  0  0  0  0  0  0  0
  186.9190  177.6420  137.3110 C   0  0  0  0  0  0  0  0  0  0  0  0
  186.8230  177.0530  135.9460 C   0  0  0  0  0  1  0  0  0  0  0  0
  181.8960  177.0990  138.4760 N   0  0  0  0  0  2  0  0  0  0  0  0
  187.6460  178.1990  139.6900 S   0  0  0  0  0  0  0  0  0  0  0  0
  184.6990  178.6360  141.3060 C   0  0  0  0  0  0  0  0  0  0  0  0
  186.1040  178.6600  139.2140 C   0  0  0  0  0  0  0  0  0  0  0  0
  183.8330  178.7250  138.9070 C   0  0  2  0  0  3  0  0  0  0  0  0
  189.2370  175.4720  137.3730 C   0  0  0  0  0  2  0  0  0  0  0  0
  189.3620  176.9570  137.7570 C   0  0  0  0  0  3  0  0  0  0  0  0
  191.7610  176.5620  138.4900 C   0  0  0  0  0  2  0  0  0  0  0  0
  190.5470  174.7070  137.5910 C   0  0  0  0  0  2  0  0  0  0  0  0
  190.3940  177.1580  138.8680 C   0  0  0  0  0  2  0  0  0  0  0  0
  191.6890  175.6000  137.3800 N   0  0  0  0  0  0  0  0  0  0  0  0
  192.9000  174.7950  137.4550 C   0  0  0  0  0  2  0  0  0  0  0  0
  195.1480  175.0600  136.2440 N   0  0  0  0  0  2  0  0  0  0  0  0
  196.0160  174.8860  137.3750 C   0  0  0  0  0  0  0  0  0  0  0  0
  193.7180  174.9470  136.2100 C   0  0  0  0  0  0  0  0  0  0  0  0
  193.1270  175.0400  135.1010 O   0  0  0  0  0  0  0  0  0  0  0  0
  197.2730  175.1650  137.2370 N   0  0  0  0  0  2  0  0  0  0  0  0
  195.5440  172.8220  138.6770 C   0  0  0  0  0  1  0  0  0  0  0  0
  195.5170  174.3380  138.6780 C   0  0  0  0  0  3  0  0  0  0  0  0
  196.3280  174.8730  139.8430 C   0  0  0  0  0  1  0  0  0  0  0  0
  185.2500  179.0950  143.6360 C   0  0  0  0  0  0  0  0  0  0  0  0
  183.6920  179.2140  145.3730 O   0  0  0  0  0  1  0  0  0  0  0  0
  185.5470  179.1920  142.3680 C   0  0  0  0  0  3  0  0  0  0  0  0
  184.9830  178.9950  144.9090 C   0  0  0  0  0  0  0  0  0  0  0  0
  186.0640  178.6220  145.8620 C   0  0  0  0  0  2  0  0  0  0  0  0
  186.6620  177.3600  145.4590 N   0  0  0  0  0  2  0  0  0  0  0  0
  188.0990  177.5120  145.6140 C   0  0  0  0  0  2  0  0  0  0  0  0
  187.8790  176.9340  143.3320 F   0  0  0  0  0  0  0  0  0  0  0  0
  188.8010  177.3360  144.2780 C   0  0  0  0  0  0  0  0  0  0  0  0
  189.3700  178.5320  143.8810 F   0  0  0  0  0  0  0  0  0  0  0  0
  189.7870  176.3720  144.3880 F   0  0  0  0  0  0  0  0  0  0  0  0
  181.7190  177.5540  137.1060 C   0  0  0  0  0  2  0  0  0  0  0  0
  181.3240  176.3800  136.2320 C   0  0  0  0  0  2  0  0  0  0  0  0
  183.0840  177.5060  134.9060 C   0  0  0  0  0  1  0  0  0  0  0  0
  181.8880  176.5770  134.8410 C   0  0  0  0  0  2  0  0  0  0  0  0
  1 13  2  0  0  0  0
  3  2  1  0  0  0  0
  4  1  1  0  0  0  0
  5 11  1  0  0  0  0
  6 12  1  0  0  0  0
  7  3  2  0  0  0  0
  8  1  1  0  0  0  0
  8  5  2  0  0  0  0
  9  8  1  0  0  0  0
 10  7  1  0  0  0  0
 12  2  2  0  0  0  0
 12 32  1  0  0  0  0
 13 11  1  0  0  0  0
 13  6  1  0  0  0  0
 14  4  1  6  0  0  0
 14  7  1  0  0  0  0
 14  6  1  0  0  0  0
 15 18  1  0  0  0  0
 15 16  1  0  0  0  0
 16  5  1  0  0  0  0
 16 19  1  0  0  0  0
 17 19  1  0  0  0  0
 20 21  1  0  0  0  0
 20 18  1  0  0  0  0
 20 17  1  0  0  0  0
 22 23  1  0  0  0  0
 23 28  1  0  0  0  0
 24 22  1  0  0  0  0
 24 21  1  0  0  0  0
 25 24  2  0  0  0  0
 26 23  2  0  0  0  0
 27 28  1  0  0  0  0
 28 29  1  0  0  0  0
 30 33  2  0  0  0  0
 32 30  2  0  0  0  0
 33 31  1  0  0  0  0
 33 34  1  0  0  0  0
 35 36  1  0  0  0  0
 35 34  1  0  0  0  0
 37 38  1  0  0  0  0
 38 40  1  0  0  0  0
 38 36  1  0  0  0  0
 39 38  1  0  0  0  0
 41 10  1  0  0  0  0
 42 41  1  0  0  0  0
 44 43  1  0  0  0  0
 44 42  1  0  0  0  0
M  END
>  <MODEL>
6

>  <REMARK>
 VINA RESULT:      -7.2      3.858     10.754
  Name = 
  12 active torsions:
  status: ('A' for Active; 'I' for Inactive)
    1  A    between atoms: N_4  and  C_19
    2  A    between atoms: N_4  and  C_26
    3  A    between atoms: C_8  and  N_30
    4  A    between atoms: C_8  and  C_42
    5  A    between atoms: C_10  and  C_26
    6  A    between atoms: C_12  and  C_32
    7  A    between atoms: C_15  and  C_24
    8  A    between atoms: C_17  and  C_20
    9  A    between atoms: C_17  and  N_44
   10  A    between atoms: C_19  and  C_41
   11  A    between atoms: C_22  and  C_42
   12  A    between atoms: C_31  and  C_38
                            x       y       z     vdW  Elec       q    Type
                         _______ _______ _______ _____ _____    ______ ____

>  <TORSDO>
F 12

$$$$
=
 OpenBabel10222415473D

 44 47  0  0  1  0  0  0  0  0999 V2000
  186.6240  178.5920  142.1030 C   0  0  0  0  0  0  0  0  0  0  0  0
  190.0430  176.7620  140.3080 C   0  0  0  0  0  3  0  0  0  0  0  0
  190.0410  176.2850  141.6610 N   0  0  0  0  0  0  0  0  0  0  0  0
  187.5660  178.3460  143.0770 O   0  0  0  0  0  0  0  0  0  0  0  0
  184.7500  178.5140  140.7770 C   0  0  0  0  0  0  0  0  0  0  0  0
  188.6020  178.5240  140.9910 N   0  0  0  0  0  0  0  0  0  0  0  0
  189.4990  176.9300  142.6560 C   0  0  0  0  0  0  0  0  0  0  0  0
  185.2390  178.4920  142.0940 C   0  0  0  0  0  0  0  0  0  0  0  0
  184.4140  178.2500  143.3110 C   0  0  0  0  0  1  0  0  0  0  0  0
  189.5780  176.3590  143.9650 N   0  0  0  0  0  2  0  0  0  0  0  0
  186.0690  178.6260  139.6880 S   0  0  0  0  0  0  0  0  0  0  0  0
  189.3570  177.8510  139.9720 C   0  0  0  0  0  0  0  0  0  0  0  0
  187.2050  178.7590  140.9170 C   0  0  0  0  0  0  0  0  0  0  0  0
  188.8560  178.2880  142.4350 C   0  0  2  0  0  3  0  0  0  0  0  0
  182.9490  177.0110  139.8340 C   0  0  0  0  0  2  0  0  0  0  0  0
  183.3010  178.3980  140.4000 C   0  0  0  0  0  3  0  0  0  0  0  0
  181.4270  179.4280  139.0300 C   0  0  0  0  0  2  0  0  0  0  0  0
  181.7380  177.0600  138.8960 C   0  0  0  0  0  2  0  0  0  0  0  0
  182.9120  179.5110  139.4250 C   0  0  0  0  0  2  0  0  0  0  0  0
  180.8200  178.1200  139.3190 N   0  0  0  0  0  0  0  0  0  0  0  0
  179.6270  178.0290  138.4910 C   0  0  0  0  0  2  0  0  0  0  0  0
  179.1380  176.0380  136.9460 N   0  0  0  0  0  2  0  0  0  0  0  0
  179.5130  176.6430  135.6990 C   0  0  0  0  0  0  0  0  0  0  0  0
  179.2460  176.5990  138.2620 C   0  0  0  0  0  0  0  0  0  0  0  0
  178.9530  175.8800  139.2550 O   0  0  0  0  0  0  0  0  0  0  0  0
  179.2100  176.0320  134.5990 N   0  0  0  0  0  2  0  0  0  0  0  0
  181.7370  177.6660  135.2620 C   0  0  0  0  0  1  0  0  0  0  0  0
  180.2920  177.9230  135.6440 C   0  0  0  0  0  3  0  0  0  0  0  0
  179.6640  178.9060  134.6750 C   0  0  0  0  0  1  0  0  0  0  0  0
  189.4600  177.5370  137.5560 C   0  0  0  0  0  0  0  0  0  0  0  0
  190.2740  175.6210  136.4970 O   0  0  0  0  0  1  0  0  0  0  0  0
  189.4260  178.3380  138.5870 C   0  0  0  0  0  3  0  0  0  0  0  0
  189.4770  176.7580  136.5090 C   0  0  0  0  0  0  0  0  0  0  0  0
  188.6200  177.0810  135.3360 C   0  0  0  0  0  2  0  0  0  0  0  0
  187.4740  177.8660  135.7630 N   0  0  0  0  0  2  0  0  0  0  0  0
  186.2960  177.2090  135.2250 C   0  0  0  0  0  2  0  0  0  0  0  0
  184.5080  175.7970  135.8630 F   0  0  0  0  0  0  0  0  0  0  0  0
  185.3810  176.7510  136.3490 C   0  0  0  0  0  0  0  0  0  0  0  0
  186.1290  176.2020  137.3750 F   0  0  0  0  0  0  0  0  0  0  0  0
  184.6550  177.8240  136.8330 F   0  0  0  0  0  0  0  0  0  0  0  0
  189.1870  177.0690  145.1730 C   0  0  0  0  0  2  0  0  0  0  0  0
  190.3540  177.1000  146.1400 C   0  0  0  0  0  2  0  0  0  0  0  0
  188.3350  177.4190  147.5350 C   0  0  0  0  0  1  0  0  0  0  0  0
  189.8290  177.1600  147.5580 C   0  0  0  0  0  2  0  0  0  0  0  0
  1  4  1  0  0  0  0
  2  3  1  0  0  0  0
  3  7  2  0  0  0  0
  5  8  2  0  0  0  0
  6 14  1  0  0  0  0
  7 10  1  0  0  0  0
  8  1  1  0  0  0  0
  8  9  1  0  0  0  0
 10 41  1  0  0  0  0
 11  5  1  0  0  0  0
 11 13  1  0  0  0  0
 12  2  2  0  0  0  0
 12  6  1  0  0  0  0
 13  6  1  0  0  0  0
 13  1  2  0  0  0  0
 14  7  1  6  0  0  0
 14  4  1  0  0  0  0
 15 16  1  0  0  0  0
 16  5  1  0  0  0  0
 17 20  1  0  0  0  0
 17 19  1  0  0  0  0
 18 20  1  0  0  0  0
 18 15  1  0  0  0  0
 19 16  1  0  0  0  0
 21 20  1  0  0  0  0
 22 24  1  0  0  0  0
 23 22  1  0  0  0  0
 24 21  1  0  0  0  0
 24 25  2  0  0  0  0
 26 23  2  0  0  0  0
 27 28  1  0  0  0  0
 28 23  1  0  0  0  0
 29 28  1  0  0  0  0
 30 32  2  0  0  0  0
 31 33  1  0  0  0  0
 32 12  1  0  0  0  0
 33 30  2  0  0  0  0
 34 35  1  0  0  0  0
 34 33  1  0  0  0  0
 36 35  1  0  0  0  0
 36 38  1  0  0  0  0
 37 38  1  0  0  0  0
 38 40  1  0  0  0  0
 38 39  1  0  0  0  0
 41 42  1  0  0  0  0
 42 44  1  0  0  0  0
 43 44  1  0  0  0  0
M  END
>  <MODEL>
7

>  <REMARK>
 VINA RESULT:      -7.2      2.064      2.867
  Name = 
  12 active torsions:
  status: ('A' for Active; 'I' for Inactive)
    1  A    between atoms: N_4  and  C_19
    2  A    between atoms: N_4  and  C_26
    3  A    between atoms: C_8  and  N_30
    4  A    between atoms: C_8  and  C_42
    5  A    between atoms: C_10  and  C_26
    6  A    between atoms: C_12  and  C_32
    7  A    between atoms: C_15  and  C_24
    8  A    between atoms: C_17  and  C_20
    9  A    between atoms: C_17  and  N_44
   10  A    between atoms: C_19  and  C_41
   11  A    between atoms: C_22  and  C_42
   12  A    between atoms: C_31  and  C_38
                            x       y       z     vdW  Elec       q    Type
                         _______ _______ _______ _____ _____    ______ ____

>  <TORSDO>
F 12

$$$$
=
 OpenBabel10222415473D

 44 47  0  0  1  0  0  0  0  0999 V2000
  187.1740  178.5100  139.6110 C   0  0  0  0  0  0  0  0  0  0  0  0
  185.7830  177.5500  143.5360 C   0  0  0  0  0  3  0  0  0  0  0  0
  184.5980  177.5900  142.7280 N   0  0  0  0  0  0  0  0  0  0  0  0
  185.8810  178.9650  139.7550 O   0  0  0  0  0  0  0  0  0  0  0  0
  189.0360  177.3190  138.9900 C   0  0  0  0  0  0  0  0  0  0  0  0
  186.9040  178.7920  141.8480 N   0  0  0  0  0  0  0  0  0  0  0  0
  184.4920  178.2900  141.6340 C   0  0  0  0  0  0  0  0  0  0  0  0
  187.8460  177.9200  138.5490 C   0  0  0  0  0  0  0  0  0  0  0  0
  187.2960  177.8210  137.1670 C   0  0  0  0  0  1  0  0  0  0  0  0
  183.2500  178.2620  140.9240 N   0  0  0  0  0  2  0  0  0  0  0  0
  189.1780  177.5270  140.6860 S   0  0  0  0  0  0  0  0  0  0  0  0
  186.9050  178.1360  143.1250 C   0  0  0  0  0  0  0  0  0  0  0  0
  187.7910  178.4670  140.7900 C   0  0  0  0  0  0  0  0  0  0  0  0
  185.6400  179.1640  141.1630 C   0  0  2  0  0  3  0  0  0  0  0  0
  189.4030  175.2440  137.5930 C   0  0  0  0  0  2  0  0  0  0  0  0
  189.9940  176.5670  138.1090 C   0  0  0  0  0  3  0  0  0  0  0  0
  192.3290  175.5820  137.9530 C   0  0  0  0  0  2  0  0  0  0  0  0
  190.4910  174.2160  137.2640 C   0  0  0  0  0  2  0  0  0  0  0  0
  191.3200  176.3380  138.8360 C   0  0  0  0  0  2  0  0  0  0  0  0
  191.7040  174.8990  136.8100 N   0  0  0  0  0  0  0  0  0  0  0  0
  192.6490  173.8800  136.3750 C   0  0  0  0  0  2  0  0  0  0  0  0
  194.9110  173.9400  135.1630 N   0  0  0  0  0  2  0  0  0  0  0  0
  195.5240  172.8130  135.8080 C   0  0  0  0  0  0  0  0  0  0  0  0
  193.5700  174.4220  135.3260 C   0  0  0  0  0  0  0  0  0  0  0  0
  193.1740  175.3750  134.6010 O   0  0  0  0  0  0  0  0  0  0  0  0
  196.7920  172.6170  135.6370 N   0  0  0  0  0  2  0  0  0  0  0  0
  194.4560  170.5680  135.8310 C   0  0  0  0  0  1  0  0  0  0  0  0
  194.7270  171.8360  136.6180 C   0  0  0  0  0  3  0  0  0  0  0  0
  195.4300  171.5010  137.9190 C   0  0  0  0  0  1  0  0  0  0  0  0
  188.0030  177.9030  145.2900 C   0  0  0  0  0  0  0  0  0  0  0  0
  186.9690  178.2740  147.3520 O   0  0  0  0  0  1  0  0  0  0  0  0
  188.0820  178.1180  144.0040 C   0  0  0  0  0  3  0  0  0  0  0  0
  187.9510  177.6740  146.5730 C   0  0  0  0  0  0  0  0  0  0  0  0
  188.9340  176.7470  147.1970 C   0  0  0  0  0  2  0  0  0  0  0  0
  190.1190  176.6500  146.3610 N   0  0  0  0  0  2  0  0  0  0  0  0
  191.2620  176.8480  147.2350 C   0  0  0  0  0  2  0  0  0  0  0  0
  191.2680  174.5840  147.9180 F   0  0  0  0  0  0  0  0  0  0  0  0
  192.0660  175.5650  147.3620 C   0  0  0  0  0  0  0  0  0  0  0  0
  192.4940  175.1490  146.1140 F   0  0  0  0  0  0  0  0  0  0  0  0
  193.1620  175.7740  148.1780 F   0  0  0  0  0  0  0  0  0  0  0  0
  182.9460  179.1450  139.8080 C   0  0  0  0  0  2  0  0  0  0  0  0
  181.4710  179.0460  139.4730 C   0  0  0  0  0  2  0  0  0  0  0  0
  179.2370  179.9290  140.0640 C   0  0  0  0  0  1  0  0  0  0  0  0
  180.6650  179.7540  140.5410 C   0  0  0  0  0  2  0  0  0  0  0  0
  1  4  1  0  0  0  0
  1 13  2  0  0  0  0
  3  2  1  0  0  0  0
  5 11  1  0  0  0  0
  6 12  1  0  0  0  0
  7  3  2  0  0  0  0
  8  5  2  0  0  0  0
  8  1  1  0  0  0  0
  9  8  1  0  0  0  0
 10  7  1  0  0  0  0
 11 13  1  0  0  0  0
 12  2  2  0  0  0  0
 12 32  1  0  0  0  0
 13  6  1  0  0  0  0
 14  4  1  6  0  0  0
 14  7  1  0  0  0  0
 14  6  1  0  0  0  0
 15 16  1  0  0  0  0
 16 19  1  0  0  0  0
 16  5  1  0  0  0  0
 17 19  1  0  0  0  0
 18 15  1  0  0  0  0
 20 18  1  0  0  0  0
 20 17  1  0  0  0  0
 21 20  1  0  0  0  0
 22 24  1  0  0  0  0
 22 23  1  0  0  0  0
 23 28  1  0  0  0  0
 24 21  1  0  0  0  0
 25 24  2  0  0  0  0
 26 23  2  0  0  0  0
 27 28  1  0  0  0  0
 28 29  1  0  0  0  0
 30 33  2  0  0  0  0
 32 30  2  0  0  0  0
 33 34  1  0  0  0  0
 33 31  1  0  0  0  0
 35 34  1  0  0  0  0
 35 36  1  0  0  0  0
 36 38  1  0  0  0  0
 38 37  1  0  0  0  0
 38 40  1  0  0  0  0
 39 38  1  0  0  0  0
 41 10  1  0  0  0  0
 42 41  1  0  0  0  0
 42 44  1  0  0  0  0
 43 44  1  0  0  0  0
M  END
>  <MODEL>
8

>  <REMARK>
 VINA RESULT:      -7.1      4.700     10.636
  Name = 
  12 active torsions:
  status: ('A' for Active; 'I' for Inactive)
    1  A    between atoms: N_4  and  C_19
    2  A    between atoms: N_4  and  C_26
    3  A    between atoms: C_8  and  N_30
    4  A    between atoms: C_8  and  C_42
    5  A    between atoms: C_10  and  C_26
    6  A    between atoms: C_12  and  C_32
    7  A    between atoms: C_15  and  C_24
    8  A    between atoms: C_17  and  C_20
    9  A    between atoms: C_17  and  N_44
   10  A    between atoms: C_19  and  C_41
   11  A    between atoms: C_22  and  C_42
   12  A    between atoms: C_31  and  C_38
                            x       y       z     vdW  Elec       q    Type
                         _______ _______ _______ _____ _____    ______ ____

>  <TORSDO>
F 12

$$$$
=
 OpenBabel10222415473D

 44 47  0  0  1  0  0  0  0  0999 V2000
  189.8710  177.6420  138.7730 C   0  0  0  0  0  0  0  0  0  0  0  0
  187.9590  175.7240  135.4680 C   0  0  0  0  0  3  0  0  0  0  0  0
  189.2530  175.1090  135.5480 N   0  0  0  0  0  0  0  0  0  0  0  0
  190.8320  177.2140  137.8830 O   0  0  0  0  0  0  0  0  0  0  0  0
  188.5080  177.8650  140.6080 C   0  0  0  0  0  0  0  0  0  0  0  0
  188.7980  177.5220  136.7760 N   0  0  0  0  0  0  0  0  0  0  0  0
  190.2990  175.6900  136.0640 C   0  0  0  0  0  0  0  0  0  0  0  0
  189.8240  177.6630  140.1600 C   0  0  0  0  0  0  0  0  0  0  0  0
  190.9910  177.3650  141.0380 C   0  0  0  0  0  1  0  0  0  0  0  0
  191.5410  174.9790  136.0700 N   0  0  0  0  0  2  0  0  0  0  0  0
  187.4630  177.9780  139.2530 S   0  0  0  0  0  0  0  0  0  0  0  0
  187.7280  176.8980  136.0510 C   0  0  0  0  0  0  0  0  0  0  0  0
  188.7220  177.8830  138.1460 C   0  0  0  0  0  0  0  0  0  0  0  0
  190.2140  177.1140  136.5840 C   0  0  2  0  0  3  0  0  0  0  0  0
  188.4720  176.6360  142.8170 C   0  0  0  0  0  2  0  0  0  0  0  0
  188.0910  177.9140  142.0500 C   0  0  0  0  0  3  0  0  0  0  0  0
  186.1380  178.2770  143.6320 C   0  0  0  0  0  2  0  0  0  0  0  0
  187.5540  176.3880  144.0180 C   0  0  0  0  0  2  0  0  0  0  0  0
  186.5930  178.2050  142.1640 C   0  0  0  0  0  2  0  0  0  0  0  0
  187.0930  177.6650  144.5680 N   0  0  0  0  0  0  0  0  0  0  0  0
  186.3480  177.3800  145.7860 C   0  0  0  0  0  2  0  0  0  0  0  0
  187.2800  178.9000  147.6330 N   0  0  0  0  0  2  0  0  0  0  0  0
  188.5450  178.2470  147.8230 C   0  0  0  0  0  0  0  0  0  0  0  0
  186.2720  178.5940  146.6590 C   0  0  0  0  0  0  0  0  0  0  0  0
  185.2590  179.3400  146.5780 O   0  0  0  0  0  0  0  0  0  0  0  0
  189.2640  178.5770  148.8480 N   0  0  0  0  0  2  0  0  0  0  0  0
  190.1130  177.8720  145.9310 C   0  0  0  0  0  1  0  0  0  0  0  0
  189.0730  177.2460  146.8400 C   0  0  0  0  0  3  0  0  0  0  0  0
  189.6590  176.0390  147.5480 C   0  0  0  0  0  1  0  0  0  0  0  0
  185.3590  177.1320  136.5790 C   0  0  0  0  0  0  0  0  0  0  0  0
  184.0130  175.4270  137.4400 O   0  0  0  0  0  1  0  0  0  0  0  0
  186.4050  177.5200  135.9010 C   0  0  0  0  0  3  0  0  0  0  0  0
  184.3030  176.7740  137.2570 C   0  0  0  0  0  0  0  0  0  0  0  0
  183.4230  177.8140  137.8550 C   0  0  0  0  0  2  0  0  0  0  0  0
  182.2860  177.1820  138.5050 N   0  0  0  0  0  2  0  0  0  0  0  0
  182.5380  177.2430  139.9350 C   0  0  0  0  0  2  0  0  0  0  0  0
  182.2650  179.0090  141.4840 F   0  0  0  0  0  0  0  0  0  0  0  0
  181.5680  178.2010  140.6070 C   0  0  0  0  0  0  0  0  0  0  0  0
  180.9480  178.9910  139.6560 F   0  0  0  0  0  0  0  0  0  0  0  0
  180.6130  177.4890  141.3080 F   0  0  0  0  0  0  0  0  0  0  0  0
  192.8100  175.5890  136.4360 C   0  0  0  0  0  2  0  0  0  0  0  0
  193.3550  174.9130  137.6780 C   0  0  0  0  0  2  0  0  0  0  0  0
  194.8350  172.9380  137.4900 C   0  0  0  0  0  1  0  0  0  0  0  0
  194.7730  174.4510  137.4170 C   0  0  0  0  0  2  0  0  0  0  0  0
  1  8  1  0  0  0  0
  2  3  1  0  0  0  0
  2 12  2  0  0  0  0
  3  7  2  0  0  0  0
  4  1  1  0  0  0  0
  5 16  1  0  0  0  0
  6 13  1  0  0  0  0
  7 10  1  0  0  0  0
  8  5  2  0  0  0  0
  8  9  1  0  0  0  0
 10 41  1  0  0  0  0
 11  5  1  0  0  0  0
 12  6  1  0  0  0  0
 13  1  2  0  0  0  0
 13 11  1  0  0  0  0
 14  7  1  1  0  0  0
 14  6  1  0  0  0  0
 14  4  1  0  0  0  0
 15 18  1  0  0  0  0
 16 19  1  0  0  0  0
 16 15  1  0  0  0  0
 17 20  1  0  0  0  0
 18 20  1  0  0  0  0
 19 17  1  0  0  0  0
 20 21  1  0  0  0  0
 21 24  1  0  0  0  0
 22 23  1  0  0  0  0
 23 26  2  0  0  0  0
 24 22  1  0  0  0  0
 25 24  2  0  0  0  0
 27 28  1  0  0  0  0
 28 29  1  0  0  0  0
 28 23  1  0  0  0  0
 30 33  2  0  0  0  0
 32 12  1  0  0  0  0
 32 30  2  0  0  0  0
 33 31  1  0  0  0  0
 33 34  1  0  0  0  0
 34 35  1  0  0  0  0
 35 36  1  0  0  0  0
 36 38  1  0  0  0  0
 38 40  1  0  0  0  0
 38 37  1  0  0  0  0
 39 38  1  0  0  0  0
 41 42  1  0  0  0  0
 44 43  1  0  0  0  0
 44 42  1  0  0  0  0
M  END
>  <MODEL>
9

>  <REMARK>
 VINA RESULT:      -6.8      2.981      7.936
  Name = 
  12 active torsions:
  status: ('A' for Active; 'I' for Inactive)
    1  A    between atoms: N_4  and  C_19
    2  A    between atoms: N_4  and  C_26
    3  A    between atoms: C_8  and  N_30
    4  A    between atoms: C_8  and  C_42
    5  A    between atoms: C_10  and  C_26
    6  A    between atoms: C_12  and  C_32
    7  A    between atoms: C_15  and  C_24
    8  A    between atoms: C_17  and  C_20
    9  A    between atoms: C_17  and  N_44
   10  A    between atoms: C_19  and  C_41
   11  A    between atoms: C_22  and  C_42
   12  A    between atoms: C_31  and  C_38
                            x       y       z     vdW  Elec       q    Type
                         _______ _______ _______ _____ _____    ______ ____

>  <TORSDO>
F 12

$$$$
