=
 OpenBabel10222418083D

 25 28  0  0  0  0  0  0  0  0999 V2000
  191.7980  176.4300  145.3200 C   0  0  0  0  0  3  0  0  0  0  0  0
  187.8580  177.0540  141.6710 O   0  0  0  0  0  0  0  0  0  0  0  0
  189.2010  177.5570  144.1220 C   0  0  0  0  0  0  0  0  0  0  0  0
  191.6650  175.6870  144.2220 C   0  0  0  0  0  0  0  0  0  0  0  0
  189.8380  177.9360  145.2360 C   0  0  0  0  0  3  0  0  0  0  0  0
  185.5320  178.5310  144.6080 N   0  0  0  0  0  0  0  0  0  0  0  0
  190.9400  176.1270  143.0120 C   0  0  0  0  0  3  0  0  0  0  0  0
  187.7810  177.9430  143.8890 C   0  0  0  0  0  0  0  0  0  0  0  0
  191.3140  177.8340  145.4300 C   0  0  0  0  0  2  0  0  0  0  0  0
  187.3750  178.1270  142.4450 C   0  0  0  0  0  2  0  0  0  0  0  0
  189.8920  176.9650  142.9480 C   0  0  0  0  0  0  0  0  0  0  0  0
  185.7790  178.2690  146.8710 N   0  0  0  0  0  0  0  0  0  0  0  0
  183.5840  178.9510  145.9000 N   0  0  0  0  0  1  0  0  0  0  0  0
  189.2170  177.1420  141.6940 N   0  0  0  0  0  0  0  0  0  0  0  0
  187.0900  177.9530  146.3290 C   0  0  0  0  0  3  0  0  0  0  0  0
  192.2550  174.4310  144.2040 O   0  0  0  0  0  1  0  0  0  0  0  0
  186.8770  178.1440  144.8630 C   0  0  0  0  0  0  0  0  0  0  0  0
  184.9540  178.5900  145.7580 C   0  0  0  0  0  0  0  0  0  0  0  0
  189.9460  177.3890  140.4550 C   0  0  0  0  0  2  0  0  0  0  0  0
  189.1000  176.6420  136.9090 C   0  0  0  0  0  2  0  0  0  0  0  0
  189.0480  177.1550  139.2480 C   0  0  0  0  0  3  0  0  0  0  0  0
  188.4420  178.4310  138.8220 N   0  0  0  0  0  2  0  0  0  0  0  0
  189.8030  176.4830  138.1780 N   0  0  0  0  0  2  0  0  0  0  0  0
  189.1820  179.0230  137.7090 C   0  0  0  0  0  2  0  0  0  0  0  0
  189.1120  178.1100  136.4850 C   0  0  0  0  0  2  0  0  0  0  0  0
  1  9  1  0  0  0  0
  2 14  1  0  0  0  0
  2 10  1  0  0  0  0
  3  5  2  0  0  0  0
  4  1  2  0  0  0  0
  5  9  1  0  0  0  0
  6 17  1  0  0  0  0
  6 18  2  0  0  0  0
  7  4  1  0  0  0  0
  8  3  1  0  0  0  0
  8 17  2  0  0  0  0
 10  8  1  0  0  0  0
 11  7  2  0  0  0  0
 11  3  1  0  0  0  0
 14 11  1  0  0  0  0
 15 12  2  0  0  0  0
 16  4  1  0  0  0  0
 17 15  1  0  0  0  0
 18 13  1  0  0  0  0
 18 12  1  0  0  0  0
 19 14  1  0  0  0  0
 20 23  1  0  0  0  0
 21 19  1  0  0  0  0
 22 21  1  0  0  0  0
 23 21  1  0  0  0  0
 24 22  1  0  0  0  0
 25 20  1  0  0  0  0
 25 24  1  0  0  0  0
M  END
>  <MODEL>
1

>  <REMARK>
 VINA RESULT:      -8.5      0.000      0.000
  Name = 
  2 active torsions:
  status: ('A' for Active; 'I' for Inactive)
    1  A    between atoms: C_2  and  C_11
    2  A    between atoms: C_11  and  N_21
                            x       y       z     vdW  Elec       q    Type
                         _______ _______ _______ _____ _____    ______ ____

>  <TORSDO>
F 2

$$$$
=
 OpenBabel10222418083D

 25 28  0  0  0  0  0  0  0  0999 V2000
  186.7640  177.8660  146.5080 C   0  0  0  0  0  3  0  0  0  0  0  0
  184.3440  179.6110  141.9980 O   0  0  0  0  0  0  0  0  0  0  0  0
  186.2200  178.0870  143.4900 C   0  0  0  0  0  0  0  0  0  0  0  0
  185.8580  178.8420  146.4690 C   0  0  0  0  0  0  0  0  0  0  0  0
  187.0450  177.2500  144.1290 C   0  0  0  0  0  3  0  0  0  0  0  0
  187.6020  178.4430  139.9380 N   0  0  0  0  0  0  0  0  0  0  0  0
  184.8590  178.9980  145.3920 C   0  0  0  0  0  3  0  0  0  0  0  0
  186.3540  178.3160  142.0230 C   0  0  0  0  0  0  0  0  0  0  0  0
  186.8210  176.7550  145.5180 C   0  0  0  0  0  2  0  0  0  0  0  0
  185.0750  178.6400  141.2860 C   0  0  0  0  0  2  0  0  0  0  0  0
  184.9870  178.6430  144.1030 C   0  0  0  0  0  0  0  0  0  0  0  0
  189.7130  178.0540  140.7380 N   0  0  0  0  0  0  0  0  0  0  0  0
  189.3280  178.4750  138.3090 N   0  0  0  0  0  1  0  0  0  0  0  0
  183.9660  179.0270  143.1700 N   0  0  0  0  0  0  0  0  0  0  0  0
  188.8660  177.9850  141.9170 C   0  0  0  0  0  3  0  0  0  0  0  0
  185.8390  179.7600  147.5100 O   0  0  0  0  0  1  0  0  0  0  0  0
  187.5110  178.2370  141.3430 C   0  0  0  0  0  0  0  0  0  0  0  0
  188.8500  178.3310  139.6420 C   0  0  0  0  0  0  0  0  0  0  0  0
  182.5490  178.8300  143.4540 C   0  0  0  0  0  2  0  0  0  0  0  0
  179.5220  180.2820  141.8490 C   0  0  0  0  0  2  0  0  0  0  0  0
  181.6930  179.3880  142.3260 C   0  0  0  0  0  3  0  0  0  0  0  0
  181.3020  178.2990  141.4100 N   0  0  0  0  0  2  0  0  0  0  0  0
  180.5440  180.1240  142.8790 N   0  0  0  0  0  2  0  0  0  0  0  0
  179.9570  177.8110  141.7110 C   0  0  0  0  0  2  0  0  0  0  0  0
  178.9300  178.9210  141.4850 C   0  0  0  0  0  2  0  0  0  0  0  0
  2 14  1  0  0  0  0
  3 11  1  0  0  0  0
  3  5  2  0  0  0  0
  4  1  2  0  0  0  0
  4 16  1  0  0  0  0
  5  9  1  0  0  0  0
  6 17  1  0  0  0  0
  7  4  1  0  0  0  0
  8  3  1  0  0  0  0
  9  1  1  0  0  0  0
 10  2  1  0  0  0  0
 10  8  1  0  0  0  0
 11  7  2  0  0  0  0
 12 15  2  0  0  0  0
 13 18  1  0  0  0  0
 14 19  1  0  0  0  0
 14 11  1  0  0  0  0
 17 15  1  0  0  0  0
 17  8  2  0  0  0  0
 18  6  2  0  0  0  0
 18 12  1  0  0  0  0
 20 23  1  0  0  0  0
 21 23  1  0  0  0  0
 21 19  1  0  0  0  0
 22 24  1  0  0  0  0
 22 21  1  0  0  0  0
 25 24  1  0  0  0  0
 25 20  1  0  0  0  0
M  END
>  <MODEL>
2

>  <REMARK>
 VINA RESULT:      -8.1      3.588      7.141
  Name = 
  2 active torsions:
  status: ('A' for Active; 'I' for Inactive)
    1  A    between atoms: C_2  and  C_11
    2  A    between atoms: C_11  and  N_21
                            x       y       z     vdW  Elec       q    Type
                         _______ _______ _______ _____ _____    ______ ____

>  <TORSDO>
F 2

$$$$
=
 OpenBabel10222418083D

 25 28  0  0  0  0  0  0  0  0999 V2000
  191.2050  176.7520  145.0280 C   0  0  0  0  0  3  0  0  0  0  0  0
  189.0570  176.9770  140.0720 O   0  0  0  0  0  0  0  0  0  0  0  0
  189.2630  177.6540  142.8220 C   0  0  0  0  0  0  0  0  0  0  0  0
  191.5660  175.9660  144.0150 C   0  0  0  0  0  0  0  0  0  0  0  0
  189.3730  178.1130  144.0740 C   0  0  0  0  0  3  0  0  0  0  0  0
  185.6670  178.3840  141.7310 N   0  0  0  0  0  0  0  0  0  0  0  0
  191.3730  176.3140  142.5930 C   0  0  0  0  0  3  0  0  0  0  0  0
  188.0420  177.9320  142.0140 C   0  0  0  0  0  0  0  0  0  0  0  0
  190.6470  178.1220  144.8510 C   0  0  0  0  0  2  0  0  0  0  0  0
  188.2470  178.0390  140.5210 C   0  0  0  0  0  2  0  0  0  0  0  0
  190.4000  177.0740  142.0630 C   0  0  0  0  0  0  0  0  0  0  0  0
  184.9890  178.2140  143.9130 N   0  0  0  0  0  0  0  0  0  0  0  0
  183.3450  178.7080  142.1020 N   0  0  0  0  0  1  0  0  0  0  0  0
  190.2830  177.1620  140.6350 N   0  0  0  0  0  0  0  0  0  0  0  0
  186.4210  177.9730  143.9650 C   0  0  0  0  0  3  0  0  0  0  0  0
  192.1760  174.7550  144.3100 O   0  0  0  0  0  1  0  0  0  0  0  0
  186.8110  178.1000  142.5290 C   0  0  0  0  0  0  0  0  0  0  0  0
  184.6710  178.4400  142.5450 C   0  0  0  0  0  0  0  0  0  0  0  0
  191.4390  177.4180  139.7820 C   0  0  0  0  0  2  0  0  0  0  0  0
  191.1520  174.4890  137.5050 C   0  0  0  0  0  2  0  0  0  0  0  0
  191.3010  176.6820  138.4560 C   0  0  0  0  0  3  0  0  0  0  0  0
  192.5600  176.7850  137.6950 N   0  0  0  0  0  2  0  0  0  0  0  0
  190.8750  175.2920  138.6910 N   0  0  0  0  0  2  0  0  0  0  0  0
  193.3830  175.5890  137.8660 C   0  0  0  0  0  2  0  0  0  0  0  0
  192.6610  174.3670  137.2970 C   0  0  0  0  0  2  0  0  0  0  0  0
  2 10  1  0  0  0  0
  2 14  1  0  0  0  0
  3  5  2  0  0  0  0
  4 16  1  0  0  0  0
  4  1  2  0  0  0  0
  5  9  1  0  0  0  0
  6 17  1  0  0  0  0
  6 18  2  0  0  0  0
  7  4  1  0  0  0  0
  8 17  2  0  0  0  0
  8  3  1  0  0  0  0
  9  1  1  0  0  0  0
 10  8  1  0  0  0  0
 11  7  2  0  0  0  0
 11  3  1  0  0  0  0
 12 15  2  0  0  0  0
 13 18  1  0  0  0  0
 14 11  1  0  0  0  0
 17 15  1  0  0  0  0
 18 12  1  0  0  0  0
 19 14  1  0  0  0  0
 20 23  1  0  0  0  0
 21 23  1  0  0  0  0
 21 19  1  0  0  0  0
 22 24  1  0  0  0  0
 22 21  1  0  0  0  0
 25 20  1  0  0  0  0
 25 24  1  0  0  0  0
M  END
>  <MODEL>
3

>  <REMARK>
 VINA RESULT:      -7.9      2.101      2.632
  Name = 
  2 active torsions:
  status: ('A' for Active; 'I' for Inactive)
    1  A    between atoms: C_2  and  C_11
    2  A    between atoms: C_11  and  N_21
                            x       y       z     vdW  Elec       q    Type
                         _______ _______ _______ _____ _____    ______ ____

>  <TORSDO>
F 2

$$$$
=
 OpenBabel10222418083D

 25 28  0  0  0  0  0  0  0  0999 V2000
  180.9480  179.5280  139.9240 C   0  0  0  0  0  3  0  0  0  0  0  0
  186.2920  179.0190  140.5670 O   0  0  0  0  0  0  0  0  0  0  0  0
  183.5680  178.7010  141.3040 C   0  0  0  0  0  0  0  0  0  0  0  0
  181.8580  180.0880  139.1280 C   0  0  0  0  0  0  0  0  0  0  0  0
  182.3110  178.4060  141.6560 C   0  0  0  0  0  3  0  0  0  0  0  0
  185.6500  178.4970  144.5090 N   0  0  0  0  0  0  0  0  0  0  0  0
  183.2400  179.5880  138.9780 C   0  0  0  0  0  3  0  0  0  0  0  0
  184.6870  178.5430  142.2740 C   0  0  0  0  0  0  0  0  0  0  0  0
  181.1820  178.2720  140.6900 C   0  0  0  0  0  2  0  0  0  0  0  0
  186.0320  178.1950  141.6800 C   0  0  0  0  0  2  0  0  0  0  0  0
  183.9830  178.9530  139.9000 C   0  0  0  0  0  0  0  0  0  0  0  0
  183.8020  179.0870  145.7280 N   0  0  0  0  0  0  0  0  0  0  0  0
  185.9860  178.6570  146.8530 N   0  0  0  0  0  1  0  0  0  0  0  0
  185.3670  178.6930  139.6210 N   0  0  0  0  0  0  0  0  0  0  0  0
  183.3310  179.0670  144.3520 C   0  0  0  0  0  3  0  0  0  0  0  0
  181.4840  181.1960  138.3820 O   0  0  0  0  0  1  0  0  0  0  0  0
  184.5640  178.6740  143.6070 C   0  0  0  0  0  0  0  0  0  0  0  0
  185.1800  178.7370  145.6840 C   0  0  0  0  0  0  0  0  0  0  0  0
  185.8020  178.1150  138.3550 C   0  0  0  0  0  2  0  0  0  0  0  0
  189.1910  178.8190  136.9900 C   0  0  0  0  0  2  0  0  0  0  0  0
  187.3210  178.0630  138.2820 C   0  0  0  0  0  3  0  0  0  0  0  0
  187.7550  176.7110  137.8790 N   0  0  0  0  0  2  0  0  0  0  0  0
  187.8220  179.1240  137.3930 N   0  0  0  0  0  2  0  0  0  0  0  0
  188.0400  176.6510  136.4460 C   0  0  0  0  0  2  0  0  0  0  0  0
  189.2090  177.5750  136.1020 C   0  0  0  0  0  2  0  0  0  0  0  0
  1  9  1  0  0  0  0
  2 10  1  0  0  0  0
  3  5  2  0  0  0  0
  3  8  1  0  0  0  0
  4  1  2  0  0  0  0
  6 18  2  0  0  0  0
  7  4  1  0  0  0  0
  7 11  2  0  0  0  0
  8 17  2  0  0  0  0
  9  5  1  0  0  0  0
 10  8  1  0  0  0  0
 11  3  1  0  0  0  0
 14 11  1  0  0  0  0
 14  2  1  0  0  0  0
 15 12  2  0  0  0  0
 16  4  1  0  0  0  0
 17 15  1  0  0  0  0
 17  6  1  0  0  0  0
 18 12  1  0  0  0  0
 18 13  1  0  0  0  0
 19 14  1  0  0  0  0
 20 23  1  0  0  0  0
 21 19  1  0  0  0  0
 22 21  1  0  0  0  0
 23 21  1  0  0  0  0
 24 22  1  0  0  0  0
 25 24  1  0  0  0  0
 25 20  1  0  0  0  0
M  END
>  <MODEL>
4

>  <REMARK>
 VINA RESULT:      -7.7      3.791      6.340
  Name = 
  2 active torsions:
  status: ('A' for Active; 'I' for Inactive)
    1  A    between atoms: C_2  and  C_11
    2  A    between atoms: C_11  and  N_21
                            x       y       z     vdW  Elec       q    Type
                         _______ _______ _______ _____ _____    ______ ____

>  <TORSDO>
F 2

$$$$
=
 OpenBabel10222418083D

 25 28  0  0  0  0  0  0  0  0999 V2000
  191.2650  176.7440  145.1540 C   0  0  0  0  0  3  0  0  0  0  0  0
  188.7020  177.1080  140.4070 O   0  0  0  0  0  0  0  0  0  0  0  0
  189.1380  177.7000  143.1510 C   0  0  0  0  0  0  0  0  0  0  0  0
  191.5430  175.9930  144.0890 C   0  0  0  0  0  0  0  0  0  0  0  0
  189.3520  178.1190  144.4030 C   0  0  0  0  0  3  0  0  0  0  0  0
  185.4590  178.4340  142.3930 N   0  0  0  0  0  0  0  0  0  0  0  0
  191.2280  176.3840  142.7000 C   0  0  0  0  0  3  0  0  0  0  0  0
  187.8510  177.9930  142.4590 C   0  0  0  0  0  0  0  0  0  0  0  0
  190.6870  178.1140  145.0690 C   0  0  0  0  0  2  0  0  0  0  0  0
  187.9280  178.1490  140.9580 C   0  0  0  0  0  2  0  0  0  0  0  0
  190.2090  177.1530  142.2800 C   0  0  0  0  0  0  0  0  0  0  0  0
  184.9690  178.1900  144.6180 N   0  0  0  0  0  0  0  0  0  0  0  0
  183.1750  178.7280  142.9700 N   0  0  0  0  0  1  0  0  0  0  0  0
  189.9710  177.2850  140.8700 N   0  0  0  0  0  0  0  0  0  0  0  0
  186.4020  177.9590  144.5400 C   0  0  0  0  0  3  0  0  0  0  0  0
  192.1820  174.7780  144.2920 O   0  0  0  0  0  1  0  0  0  0  0  0
  186.6680  178.1350  143.0810 C   0  0  0  0  0  0  0  0  0  0  0  0
  184.5340  178.4570  143.2900 C   0  0  0  0  0  0  0  0  0  0  0  0
  191.0480  177.5770  139.9310 C   0  0  0  0  0  2  0  0  0  0  0  0
  192.8110  175.5720  137.3380 C   0  0  0  0  0  2  0  0  0  0  0  0
  191.3870  176.3460  139.1030 C   0  0  0  0  0  3  0  0  0  0  0  0
  190.2850  176.0590  138.1630 N   0  0  0  0  0  2  0  0  0  0  0  0
  192.6870  176.5260  138.4370 N   0  0  0  0  0  2  0  0  0  0  0  0
  190.5710  176.5940  136.8330 C   0  0  0  0  0  2  0  0  0  0  0  0
  191.8010  175.9060  136.2410 C   0  0  0  0  0  2  0  0  0  0  0  0
  2 14  1  0  0  0  0
  2 10  1  0  0  0  0
  3  5  2  0  0  0  0
  4 16  1  0  0  0  0
  4  1  2  0  0  0  0
  5  9  1  0  0  0  0
  6 17  1  0  0  0  0
  6 18  2  0  0  0  0
  7  4  1  0  0  0  0
  8 17  2  0  0  0  0
  8  3  1  0  0  0  0
  9  1  1  0  0  0  0
 10  8  1  0  0  0  0
 11  7  2  0  0  0  0
 11  3  1  0  0  0  0
 13 18  1  0  0  0  0
 14 11  1  0  0  0  0
 15 12  2  0  0  0  0
 17 15  1  0  0  0  0
 18 12  1  0  0  0  0
 19 14  1  0  0  0  0
 20 23  1  0  0  0  0
 21 19  1  0  0  0  0
 22 21  1  0  0  0  0
 23 21  1  0  0  0  0
 24 22  1  0  0  0  0
 25 24  1  0  0  0  0
 25 20  1  0  0  0  0
M  END
>  <MODEL>
5

>  <REMARK>
 VINA RESULT:      -7.6      1.696      2.061
  Name = 
  2 active torsions:
  status: ('A' for Active; 'I' for Inactive)
    1  A    between atoms: C_2  and  C_11
    2  A    between atoms: C_11  and  N_21
                            x       y       z     vdW  Elec       q    Type
                         _______ _______ _______ _____ _____    ______ ____

>  <TORSDO>
F 2

$$$$
=
 OpenBabel10222418083D

 25 28  0  0  0  0  0  0  0  0999 V2000
  187.3550  178.4120  147.8650 C   0  0  0  0  0  3  0  0  0  0  0  0
  186.1560  178.7430  142.6030 O   0  0  0  0  0  0  0  0  0  0  0  0
  187.6510  177.8680  144.8540 C   0  0  0  0  0  0  0  0  0  0  0  0
  186.4280  179.2200  147.3540 C   0  0  0  0  0  0  0  0  0  0  0  0
  188.3260  177.3190  145.8700 C   0  0  0  0  0  3  0  0  0  0  0  0
  189.9310  177.5990  141.7900 N   0  0  0  0  0  0  0  0  0  0  0  0
  185.7560  178.9890  146.0590 C   0  0  0  0  0  3  0  0  0  0  0  0
  188.1680  177.7760  143.4590 C   0  0  0  0  0  0  0  0  0  0  0  0
  187.7630  177.1240  147.2380 C   0  0  0  0  0  2  0  0  0  0  0  0
  187.1230  177.7460  142.3680 C   0  0  0  0  0  2  0  0  0  0  0  0
  186.2600  178.3730  144.9770 C   0  0  0  0  0  0  0  0  0  0  0  0
  191.7610  177.6950  143.1650 N   0  0  0  0  0  0  0  0  0  0  0  0
  192.0330  177.4990  140.6920 N   0  0  0  0  0  1  0  0  0  0  0  0
  185.5120  178.3920  143.7520 N   0  0  0  0  0  0  0  0  0  0  0  0
  190.6290  177.7790  144.0720 C   0  0  0  0  0  3  0  0  0  0  0  0
  186.0550  180.3380  148.0880 O   0  0  0  0  0  1  0  0  0  0  0  0
  189.4700  177.7050  143.1320 C   0  0  0  0  0  0  0  0  0  0  0  0
  191.2170  177.5950  141.8540 C   0  0  0  0  0  0  0  0  0  0  0  0
  184.0890  178.0720  143.7130 C   0  0  0  0  0  2  0  0  0  0  0  0
  181.1760  179.5310  141.9160 C   0  0  0  0  0  2  0  0  0  0  0  0
  183.3550  179.0020  142.7570 C   0  0  0  0  0  3  0  0  0  0  0  0
  183.6590  178.6250  141.3630 N   0  0  0  0  0  2  0  0  0  0  0  0
  181.9140  179.0030  143.0590 N   0  0  0  0  0  2  0  0  0  0  0  0
  182.6010  177.7890  140.7970 C   0  0  0  0  0  2  0  0  0  0  0  0
  181.2890  178.5720  140.7320 C   0  0  0  0  0  2  0  0  0  0  0  0
  2 14  1  0  0  0  0
  3 11  1  0  0  0  0
  3  5  2  0  0  0  0
  4  1  2  0  0  0  0
  4 16  1  0  0  0  0
  5  9  1  0  0  0  0
  6 18  2  0  0  0  0
  6 17  1  0  0  0  0
  7  4  1  0  0  0  0
  8  3  1  0  0  0  0
  9  1  1  0  0  0  0
 10  2  1  0  0  0  0
 10  8  1  0  0  0  0
 11  7  2  0  0  0  0
 12 15  2  0  0  0  0
 13 18  1  0  0  0  0
 14 11  1  0  0  0  0
 17  8  2  0  0  0  0
 17 15  1  0  0  0  0
 18 12  1  0  0  0  0
 19 14  1  0  0  0  0
 20 23  1  0  0  0  0
 21 23  1  0  0  0  0
 21 19  1  0  0  0  0
 22 21  1  0  0  0  0
 24 22  1  0  0  0  0
 25 24  1  0  0  0  0
 25 20  1  0  0  0  0
M  END
>  <MODEL>
6

>  <REMARK>
 VINA RESULT:      -7.4      3.072      6.287
  Name = 
  2 active torsions:
  status: ('A' for Active; 'I' for Inactive)
    1  A    between atoms: C_2  and  C_11
    2  A    between atoms: C_11  and  N_21
                            x       y       z     vdW  Elec       q    Type
                         _______ _______ _______ _____ _____    ______ ____

>  <TORSDO>
F 2

$$$$
=
 OpenBabel10222418083D

 25 28  0  0  0  0  0  0  0  0999 V2000
  186.7870  177.9810  146.9650 C   0  0  0  0  0  3  0  0  0  0  0  0
  186.3590  179.1920  141.7130 O   0  0  0  0  0  0  0  0  0  0  0  0
  187.4320  177.8310  143.9630 C   0  0  0  0  0  0  0  0  0  0  0  0
  186.0290  178.9630  146.4780 C   0  0  0  0  0  0  0  0  0  0  0  0
  187.9000  177.0650  144.9550 C   0  0  0  0  0  3  0  0  0  0  0  0
  190.0670  177.7090  141.1890 N   0  0  0  0  0  0  0  0  0  0  0  0
  185.5200  179.0010  145.0920 C   0  0  0  0  0  3  0  0  0  0  0  0
  188.1220  177.8710  142.6420 C   0  0  0  0  0  0  0  0  0  0  0  0
  187.1380  176.7530  146.1990 C   0  0  0  0  0  2  0  0  0  0  0  0
  187.2390  178.1250  141.4430 C   0  0  0  0  0  2  0  0  0  0  0  0
  186.0990  178.4840  143.9950 C   0  0  0  0  0  0  0  0  0  0  0  0
  191.6930  177.3830  142.7700 N   0  0  0  0  0  0  0  0  0  0  0  0
  192.2780  177.5020  140.3480 N   0  0  0  0  0  1  0  0  0  0  0  0
  185.5310  178.7680  142.7080 N   0  0  0  0  0  0  0  0  0  0  0  0
  190.4620  177.4800  143.5380 C   0  0  0  0  0  3  0  0  0  0  0  0
  185.6800  180.0040  147.3260 O   0  0  0  0  0  1  0  0  0  0  0  0
  189.4420  177.6840  142.4670 C   0  0  0  0  0  0  0  0  0  0  0  0
  191.3250  177.5360  141.4050 C   0  0  0  0  0  0  0  0  0  0  0  0
  184.1010  178.6360  142.4500 C   0  0  0  0  0  2  0  0  0  0  0  0
  183.4500  179.5230  138.8960 C   0  0  0  0  0  2  0  0  0  0  0  0
  183.8430  178.3920  140.9700 C   0  0  0  0  0  3  0  0  0  0  0  0
  182.4820  177.8520  140.7840 N   0  0  0  0  0  2  0  0  0  0  0  0
  184.0900  179.6240  140.2030 N   0  0  0  0  0  2  0  0  0  0  0  0
  181.5410  178.9060  140.4090 C   0  0  0  0  0  2  0  0  0  0  0  0
  181.9310  179.5050  139.0580 C   0  0  0  0  0  2  0  0  0  0  0  0
  2 14  1  0  0  0  0
  3 11  1  0  0  0  0
  3  5  2  0  0  0  0
  4  1  2  0  0  0  0
  4 16  1  0  0  0  0
  5  9  1  0  0  0  0
  6 18  2  0  0  0  0
  6 17  1  0  0  0  0
  7  4  1  0  0  0  0
  8  3  1  0  0  0  0
  9  1  1  0  0  0  0
 10  2  1  0  0  0  0
 10  8  1  0  0  0  0
 11  7  2  0  0  0  0
 12 15  2  0  0  0  0
 13 18  1  0  0  0  0
 14 11  1  0  0  0  0
 17  8  2  0  0  0  0
 17 15  1  0  0  0  0
 18 12  1  0  0  0  0
 19 14  1  0  0  0  0
 20 25  1  0  0  0  0
 20 23  1  0  0  0  0
 21 19  1  0  0  0  0
 22 21  1  0  0  0  0
 23 21  1  0  0  0  0
 24 22  1  0  0  0  0
 25 24  1  0  0  0  0
M  END
>  <MODEL>
7

>  <REMARK>
 VINA RESULT:      -7.4      3.314      5.965
  Name = 
  2 active torsions:
  status: ('A' for Active; 'I' for Inactive)
    1  A    between atoms: C_2  and  C_11
    2  A    between atoms: C_11  and  N_21
                            x       y       z     vdW  Elec       q    Type
                         _______ _______ _______ _____ _____    ______ ____

>  <TORSDO>
F 2

$$$$
=
 OpenBabel10222418083D

 25 28  0  0  0  0  0  0  0  0999 V2000
  186.7200  178.2780  147.4890 C   0  0  0  0  0  3  0  0  0  0  0  0
  186.6650  177.8240  142.1020 O   0  0  0  0  0  0  0  0  0  0  0  0
  185.6960  178.7040  144.6220 C   0  0  0  0  0  0  0  0  0  0  0  0
  187.5440  177.4970  146.7920 C   0  0  0  0  0  0  0  0  0  0  0  0
  185.2510  179.2550  145.7560 C   0  0  0  0  0  3  0  0  0  0  0  0
  182.7490  178.7620  142.1790 N   0  0  0  0  0  0  0  0  0  0  0  0
  187.8790  177.7150  145.3690 C   0  0  0  0  0  3  0  0  0  0  0  0
  184.8620  178.7240  143.3870 C   0  0  0  0  0  0  0  0  0  0  0  0
  186.1080  179.5230  146.9480 C   0  0  0  0  0  2  0  0  0  0  0  0
  185.6180  178.7660  142.0800 C   0  0  0  0  0  2  0  0  0  0  0  0
  187.1020  178.2690  144.4240 C   0  0  0  0  0  0  0  0  0  0  0  0
  181.3010  178.6270  143.9490 N   0  0  0  0  0  0  0  0  0  0  0  0
  180.4460  178.7260  141.6070 N   0  0  0  0  0  1  0  0  0  0  0  0
  187.5410  178.2430  143.0570 N   0  0  0  0  0  0  0  0  0  0  0  0
  182.6180  178.6280  144.5650 C   0  0  0  0  0  3  0  0  0  0  0  0
  188.1370  176.4240  147.4410 O   0  0  0  0  0  1  0  0  0  0  0  0
  183.5170  178.7230  143.3760 C   0  0  0  0  0  0  0  0  0  0  0  0
  181.5160  178.7080  142.5450 C   0  0  0  0  0  0  0  0  0  0  0  0
  188.8960  178.6280  142.6760 C   0  0  0  0  0  2  0  0  0  0  0  0
  190.3640  175.2520  143.2180 C   0  0  0  0  0  2  0  0  0  0  0  0
  189.7340  177.3980  142.3590 C   0  0  0  0  0  3  0  0  0  0  0  0
  191.1680  177.7250  142.4860 N   0  0  0  0  0  2  0  0  0  0  0  0
  189.3170  176.2690  143.2080 N   0  0  0  0  0  2  0  0  0  0  0  0
  191.6930  177.3090  143.7860 C   0  0  0  0  0  2  0  0  0  0  0  0
  191.6070  175.7890  143.9270 C   0  0  0  0  0  2  0  0  0  0  0  0
  2 14  1  0  0  0  0
  3  5  2  0  0  0  0
  4 16  1  0  0  0  0
  4  1  2  0  0  0  0
  5  9  1  0  0  0  0
  6 18  2  0  0  0  0
  6 17  1  0  0  0  0
  7  4  1  0  0  0  0
  8  3  1  0  0  0  0
  9  1  1  0  0  0  0
 10  2  1  0  0  0  0
 10  8  1  0  0  0  0
 11  3  1  0  0  0  0
 11  7  2  0  0  0  0
 12 15  2  0  0  0  0
 13 18  1  0  0  0  0
 14 11  1  0  0  0  0
 17  8  2  0  0  0  0
 17 15  1  0  0  0  0
 18 12  1  0  0  0  0
 19 14  1  0  0  0  0
 20 25  1  0  0  0  0
 21 22  1  0  0  0  0
 21 19  1  0  0  0  0
 21 23  1  0  0  0  0
 22 24  1  0  0  0  0
 23 20  1  0  0  0  0
 24 25  1  0  0  0  0
M  END
>  <MODEL>
8

>  <REMARK>
 VINA RESULT:      -7.1      3.064      4.746
  Name = 
  2 active torsions:
  status: ('A' for Active; 'I' for Inactive)
    1  A    between atoms: C_2  and  C_11
    2  A    between atoms: C_11  and  N_21
                            x       y       z     vdW  Elec       q    Type
                         _______ _______ _______ _____ _____    ______ ____

>  <TORSDO>
F 2

$$$$
=
 OpenBabel10222418083D

 25 28  0  0  0  0  0  0  0  0999 V2000
  186.3690  178.2540  146.6130 C   0  0  0  0  0  3  0  0  0  0  0  0
  185.5060  177.8780  141.2890 O   0  0  0  0  0  0  0  0  0  0  0  0
  184.9250  178.7170  143.9390 C   0  0  0  0  0  0  0  0  0  0  0  0
  187.0810  177.4870  145.7880 C   0  0  0  0  0  0  0  0  0  0  0  0
  184.6540  179.2500  145.1360 C   0  0  0  0  0  3  0  0  0  0  0  0
  181.6440  178.7970  141.9680 N   0  0  0  0  0  0  0  0  0  0  0  0
  187.1970  177.7270  144.3350 C   0  0  0  0  0  3  0  0  0  0  0  0
  183.9140  178.7520  142.8440 C   0  0  0  0  0  0  0  0  0  0  0  0
  185.6800  179.5040  146.1890 C   0  0  0  0  0  2  0  0  0  0  0  0
  184.4650  178.8160  141.4380 C   0  0  0  0  0  2  0  0  0  0  0  0
  186.2860  178.2910  143.5250 C   0  0  0  0  0  0  0  0  0  0  0  0
  180.4790  178.6300  143.9340 N   0  0  0  0  0  0  0  0  0  0  0  0
  179.2810  178.7590  141.7490 N   0  0  0  0  0  1  0  0  0  0  0  0
  186.5150  178.2870  142.1070 N   0  0  0  0  0  0  0  0  0  0  0  0
  181.8730  178.6270  144.3440 C   0  0  0  0  0  3  0  0  0  0  0  0
  187.7670  176.4070  146.3240 O   0  0  0  0  0  1  0  0  0  0  0  0
  182.5840  178.7440  143.0350 C   0  0  0  0  0  0  0  0  0  0  0  0
  180.4800  178.7320  142.5150 C   0  0  0  0  0  0  0  0  0  0  0  0
  187.7960  178.6840  141.5330 C   0  0  0  0  0  2  0  0  0  0  0  0
  190.3100  176.7440  139.5930 C   0  0  0  0  0  2  0  0  0  0  0  0
  188.3060  177.6190  140.5730 C   0  0  0  0  0  3  0  0  0  0  0  0
  187.9420  177.9790  139.1890 N   0  0  0  0  0  2  0  0  0  0  0  0
  189.7530  177.4210  140.7610 N   0  0  0  0  0  2  0  0  0  0  0  0
  189.0550  178.6280  138.4990 C   0  0  0  0  0  2  0  0  0  0  0  0
  190.2330  177.6600  138.3730 C   0  0  0  0  0  2  0  0  0  0  0  0
  2 10  1  0  0  0  0
  2 14  1  0  0  0  0
  3  5  2  0  0  0  0
  4 16  1  0  0  0  0
  4  1  2  0  0  0  0
  5  9  1  0  0  0  0
  6 18  2  0  0  0  0
  6 17  1  0  0  0  0
  7  4  1  0  0  0  0
  8 17  2  0  0  0  0
  8  3  1  0  0  0  0
  9  1  1  0  0  0  0
 10  8  1  0  0  0  0
 11  3  1  0  0  0  0
 11  7  2  0  0  0  0
 12 15  2  0  0  0  0
 13 18  1  0  0  0  0
 14 11  1  0  0  0  0
 17 15  1  0  0  0  0
 18 12  1  0  0  0  0
 19 14  1  0  0  0  0
 20 23  1  0  0  0  0
 21 23  1  0  0  0  0
 21 19  1  0  0  0  0
 22 21  1  0  0  0  0
 24 22  1  0  0  0  0
 25 24  1  0  0  0  0
 25 20  1  0  0  0  0
M  END
>  <MODEL>
9

>  <REMARK>
 VINA RESULT:      -7.0      2.850      4.290
  Name = 
  2 active torsions:
  status: ('A' for Active; 'I' for Inactive)
    1  A    between atoms: C_2  and  C_11
    2  A    between atoms: C_11  and  N_21
                            x       y       z     vdW  Elec       q    Type
                         _______ _______ _______ _____ _____    ______ ____

>  <TORSDO>
F 2

$$$$
