=
 OpenBabel10222415153D

 34 38  0  0  1  0  0  0  0  0999 V2000
  188.3450  178.6380  138.2910 C   0  0  0  0  0  3  0  0  0  0  0  0
  190.2900  176.6170  138.3550 C   0  0  0  0  0  0  0  0  0  0  0  0
  190.2940  176.5440  135.9220 C   0  0  0  0  0  0  0  0  0  0  0  0
  189.7950  177.1550  139.5640 C   0  0  0  0  0  0  0  0  0  0  0  0
  191.2370  175.5640  135.9680 N   0  0  0  0  0  0  0  0  0  0  0  0
  188.8220  178.1770  139.5210 C   0  0  0  0  0  0  0  0  0  0  0  0
  189.7970  177.0940  137.1160 C   0  0  0  0  0  0  0  0  0  0  0  0
  191.7270  175.0920  137.1440 C   0  0  0  0  0  3  0  0  0  0  0  0
  188.8270  178.1030  137.0980 C   0  0  0  0  0  3  0  0  0  0  0  0
  191.2630  175.6070  138.3550 C   0  0  0  0  0  3  0  0  0  0  0  0
  189.8140  176.9910  134.6560 N   0  0  0  0  0  1  0  0  0  0  0  0
  190.3100  176.6530  140.8830 C   0  0  0  0  0  2  0  0  0  0  0  0
  191.4950  177.4860  141.3390 C   0  0  0  0  0  2  0  0  0  0  0  0
  191.9230  177.0540  142.7290 C   0  0  0  0  0  2  0  0  0  0  0  0
  190.7490  176.7450  144.8620 C   0  0  2  0  0  3  0  0  0  0  0  0
  191.7240  177.7540  145.0040 O   0  0  0  0  0  0  0  0  0  0  0  0
  191.0420  177.7110  143.7760 C   0  0  1  0  0  3  0  0  0  0  0  0
  187.1110  177.7940  146.9340 C   0  0  0  0  0  3  0  0  0  0  0  0
  189.4910  177.1310  145.5930 C   0  0  0  0  0  0  0  0  0  0  0  0
  190.6880  177.2080  147.7530 N   0  0  0  0  0  1  0  0  0  0  0  0
  188.2310  176.9940  143.5510 F   0  0  0  0  0  0  0  0  0  0  0  0
  188.3060  177.6810  147.6470 C   0  0  0  0  0  3  0  0  0  0  0  0
  189.4910  177.3400  146.9900 C   0  0  0  0  0  0  0  0  0  0  0  0
  188.2750  177.2240  144.8880 C   0  0  0  0  0  0  0  0  0  0  0  0
  187.0960  177.5610  145.5570 C   0  0  0  0  0  3  0  0  0  0  0  0
  188.2650  178.7820  140.7740 C   0  0  0  0  0  2  0  0  0  0  0  0
  186.1130  178.5290  142.0710 N   0  0  0  0  0  2  0  0  0  0  0  0
  184.6960  178.4040  142.2650 C   0  0  0  0  0  0  0  0  0  0  0  0
  186.1330  178.6520  139.7280 O   0  0  0  0  0  0  0  0  0  0  0  0
  183.8810  178.5240  141.2670 N   0  0  0  0  0  2  0  0  0  0  0  0
  186.7800  178.6460  140.8090 C   0  0  0  0  0  0  0  0  0  0  0  0
  184.2380  179.6660  144.3220 C   0  0  0  0  0  2  0  0  0  0  0  0
  182.9070  179.1800  143.7990 C   0  0  0  0  0  2  0  0  0  0  0  0
  184.1410  178.3080  143.6490 C   0  0  0  0  0  3  0  0  0  0  0  0
  1  6  1  0  0  0  0
  2 10  1  0  0  0  0
  2  4  1  0  0  0  0
  3  5  2  0  0  0  0
  3  7  1  0  0  0  0
  4 12  1  0  0  0  0
  5  8  1  0  0  0  0
  6  4  2  0  0  0  0
  6 26  1  0  0  0  0
  7  2  2  0  0  0  0
  8 10  2  0  0  0  0
  9  7  1  0  0  0  0
  9  1  2  0  0  0  0
 11  3  1  0  0  0  0
 12 13  1  0  0  0  0
 13 14  1  0  0  0  0
 15 16  1  0  0  0  0
 15 19  1  1  0  0  0
 17 14  1  6  0  0  0
 17 15  1  0  0  0  0
 17 16  1  0  0  0  0
 18 22  1  0  0  0  0
 19 23  1  0  0  0  0
 21 24  1  0  0  0  0
 23 22  2  0  0  0  0
 23 20  1  0  0  0  0
 24 25  1  0  0  0  0
 24 19  2  0  0  0  0
 25 18  2  0  0  0  0
 26 31  1  0  0  0  0
 27 28  1  0  0  0  0
 28 34  1  0  0  0  0
 29 31  2  0  0  0  0
 30 28  2  0  0  0  0
 31 27  1  0  0  0  0
 33 32  1  0  0  0  0
 34 33  1  0  0  0  0
 34 32  1  0  0  0  0
M  END
>  <MODEL>
1

>  <REMARK>
 VINA RESULT:      -9.1      0.000      0.000
  Name = 
  8 active torsions:
  status: ('A' for Active; 'I' for Inactive)
    1  A    between atoms: C_1  and  C_8
    2  A    between atoms: C_9  and  C_11
    3  A    between atoms: C_9  and  C_14
    4  A    between atoms: C_11  and  C_26
    5  A    between atoms: C_16  and  C_17
    6  A    between atoms: C_17  and  C_28
    7  A    between atoms: C_20  and  C_26
    8  A    between atoms: C_21  and  C_33
                            x       y       z     vdW  Elec       q    Type
                         _______ _______ _______ _____ _____    ______ ____

>  <TORSDO>
F 8

$$$$
=
 OpenBabel10222415153D

 34 38  0  0  1  0  0  0  0  0999 V2000
  183.1630  178.2540  140.8190 C   0  0  0  0  0  3  0  0  0  0  0  0
  181.6760  178.7610  143.1450 C   0  0  0  0  0  0  0  0  0  0  0  0
  179.6440  178.0710  141.9960 C   0  0  0  0  0  0  0  0  0  0  0  0
  183.0710  178.9890  143.1380 C   0  0  0  0  0  0  0  0  0  0  0  0
  178.9360  178.3210  143.1310 N   0  0  0  0  0  0  0  0  0  0  0  0
  183.8110  178.7240  141.9650 C   0  0  0  0  0  0  0  0  0  0  0  0
  181.0330  178.2850  141.9770 C   0  0  0  0  0  0  0  0  0  0  0  0
  179.5320  178.7750  144.2650 C   0  0  0  0  0  3  0  0  0  0  0  0
  181.7860  178.0360  140.8230 C   0  0  0  0  0  3  0  0  0  0  0  0
  180.9070  179.0040  144.2920 C   0  0  0  0  0  3  0  0  0  0  0  0
  178.9600  177.6020  140.8360 N   0  0  0  0  0  1  0  0  0  0  0  0
  183.7610  179.4960  144.3720 C   0  0  0  0  0  2  0  0  0  0  0  0
  184.3400  178.3390  145.1660 C   0  0  0  0  0  2  0  0  0  0  0  0
  185.6410  178.7650  145.8210 C   0  0  0  0  0  2  0  0  0  0  0  0
  188.0350  178.2590  146.0140 C   0  0  2  0  0  3  0  0  0  0  0  0
  187.2930  177.3160  146.7570 O   0  0  0  0  0  0  0  0  0  0  0  0
  186.7270  177.7410  145.5440 C   0  0  1  0  0  3  0  0  0  0  0  0
  191.2930  176.3650  143.9120 C   0  0  0  0  0  3  0  0  0  0  0  0
  189.1670  177.5770  145.2930 C   0  0  0  0  0  0  0  0  0  0  0  0
  190.2860  177.0290  147.4260 N   0  0  0  0  0  1  0  0  0  0  0  0
  188.1920  178.1460  143.1710 F   0  0  0  0  0  0  0  0  0  0  0  0
  191.2910  176.3880  145.3070 C   0  0  0  0  0  3  0  0  0  0  0  0
  190.2440  177.0000  146.0010 C   0  0  0  0  0  0  0  0  0  0  0  0
  189.1920  177.5680  143.8850 C   0  0  0  0  0  0  0  0  0  0  0  0
  190.2470  176.9590  143.2020 C   0  0  0  0  0  3  0  0  0  0  0  0
  185.2920  178.9470  141.9050 C   0  0  0  0  0  2  0  0  0  0  0  0
  186.8730  178.1760  140.0940 N   0  0  0  0  0  2  0  0  0  0  0  0
  187.4290  178.0990  138.7730 C   0  0  0  0  0  0  0  0  0  0  0  0
  185.1640  179.7230  139.6610 O   0  0  0  0  0  0  0  0  0  0  0  0
  186.8510  178.6910  137.7780 N   0  0  0  0  0  2  0  0  0  0  0  0
  185.7610  178.9870  140.4900 C   0  0  0  0  0  0  0  0  0  0  0  0
  189.4210  177.7630  137.3760 C   0  0  0  0  0  2  0  0  0  0  0  0
  189.9000  177.8850  138.8030 C   0  0  0  0  0  2  0  0  0  0  0  0
  188.5840  177.1890  138.5050 C   0  0  0  0  0  3  0  0  0  0  0  0
  1  9  2  0  0  0  0
  1  6  1  0  0  0  0
  2 10  1  0  0  0  0
  3  5  2  0  0  0  0
  4  2  1  0  0  0  0
  4 12  1  0  0  0  0
  5  8  1  0  0  0  0
  6  4  2  0  0  0  0
  7  3  1  0  0  0  0
  7  2  2  0  0  0  0
  8 10  2  0  0  0  0
  9  7  1  0  0  0  0
 11  3  1  0  0  0  0
 12 13  1  0  0  0  0
 13 14  1  0  0  0  0
 15 19  1  6  0  0  0
 15 16  1  0  0  0  0
 17 14  1  1  0  0  0
 17 15  1  0  0  0  0
 17 16  1  0  0  0  0
 18 22  1  0  0  0  0
 19 23  1  0  0  0  0
 21 24  1  0  0  0  0
 22 23  2  0  0  0  0
 23 20  1  0  0  0  0
 24 19  2  0  0  0  0
 25 24  1  0  0  0  0
 25 18  2  0  0  0  0
 26  6  1  0  0  0  0
 27 31  1  0  0  0  0
 28 27  1  0  0  0  0
 29 31  2  0  0  0  0
 30 28  2  0  0  0  0
 31 26  1  0  0  0  0
 32 34  1  0  0  0  0
 32 33  1  0  0  0  0
 34 28  1  0  0  0  0
 34 33  1  0  0  0  0
M  END
>  <MODEL>
2

>  <REMARK>
 VINA RESULT:      -9.0      2.319      7.364
  Name = 
  8 active torsions:
  status: ('A' for Active; 'I' for Inactive)
    1  A    between atoms: C_1  and  C_8
    2  A    between atoms: C_9  and  C_11
    3  A    between atoms: C_9  and  C_14
    4  A    between atoms: C_11  and  C_26
    5  A    between atoms: C_16  and  C_17
    6  A    between atoms: C_17  and  C_28
    7  A    between atoms: C_20  and  C_26
    8  A    between atoms: C_21  and  C_33
                            x       y       z     vdW  Elec       q    Type
                         _______ _______ _______ _____ _____    ______ ____

>  <TORSDO>
F 8

$$$$
=
 OpenBabel10222415153D

 34 38  0  0  1  0  0  0  0  0999 V2000
  189.6270  176.9400  144.0530 C   0  0  0  0  0  3  0  0  0  0  0  0
  188.2050  177.5780  146.3870 C   0  0  0  0  0  0  0  0  0  0  0  0
  190.2840  177.5840  147.6530 C   0  0  0  0  0  0  0  0  0  0  0  0
  187.5130  177.4080  145.1660 C   0  0  0  0  0  0  0  0  0  0  0  0
  189.5810  177.8920  148.7760 N   0  0  0  0  0  0  0  0  0  0  0  0
  188.2390  177.0940  143.9960 C   0  0  0  0  0  0  0  0  0  0  0  0
  189.6110  177.4190  146.4290 C   0  0  0  0  0  0  0  0  0  0  0  0
  188.2320  178.0530  148.7590 C   0  0  0  0  0  3  0  0  0  0  0  0
  190.3090  177.1010  145.2590 C   0  0  0  0  0  3  0  0  0  0  0  0
  187.5210  177.8980  147.5690 C   0  0  0  0  0  3  0  0  0  0  0  0
  191.6980  177.4210  147.7370 N   0  0  0  0  0  1  0  0  0  0  0  0
  186.0210  177.5710  145.1110 C   0  0  0  0  0  2  0  0  0  0  0  0
  185.6500  179.0430  145.1550 C   0  0  0  0  0  2  0  0  0  0  0  0
  184.1400  179.1930  145.1250 C   0  0  0  0  0  2  0  0  0  0  0  0
  183.0850  178.4710  143.0300 C   0  0  2  0  0  3  0  0  0  0  0  0
  182.2920  179.4670  143.6370 O   0  0  0  0  0  0  0  0  0  0  0  0
  183.6840  179.6250  143.7430 C   0  0  1  0  0  3  0  0  0  0  0  0
  183.2800  179.0300  138.7550 C   0  0  0  0  0  3  0  0  0  0  0  0
  183.1350  178.6820  141.5400 C   0  0  0  0  0  0  0  0  0  0  0  0
  180.7580  178.0540  141.3030 N   0  0  0  0  0  1  0  0  0  0  0  0
  185.4740  179.2210  141.6680 F   0  0  0  0  0  0  0  0  0  0  0  0
  182.0740  178.6530  139.3500 C   0  0  0  0  0  3  0  0  0  0  0  0
  181.9970  178.4660  140.7320 C   0  0  0  0  0  0  0  0  0  0  0  0
  184.3520  179.0400  140.9270 C   0  0  0  0  0  0  0  0  0  0  0  0
  184.4170  179.2180  139.5430 C   0  0  0  0  0  3  0  0  0  0  0  0
  187.5550  176.9040  142.6770 C   0  0  0  0  0  2  0  0  0  0  0  0
  189.0450  176.6790  140.6500 N   0  0  0  0  0  2  0  0  0  0  0  0
  189.8370  177.1250  139.5390 C   0  0  0  0  0  0  0  0  0  0  0  0
  188.3900  178.7770  141.4720 O   0  0  0  0  0  0  0  0  0  0  0  0
  189.8730  178.3770  139.2140 N   0  0  0  0  0  2  0  0  0  0  0  0
  188.3510  177.5220  141.5770 C   0  0  0  0  0  0  0  0  0  0  0  0
  190.9530  176.8140  137.3730 C   0  0  0  0  0  2  0  0  0  0  0  0
  191.9580  176.4540  138.4410 C   0  0  0  0  0  2  0  0  0  0  0  0
  190.4900  176.1230  138.6430 C   0  0  0  0  0  3  0  0  0  0  0  0
  1  9  1  0  0  0  0
  2  7  1  0  0  0  0
  2 10  1  0  0  0  0
  3 11  1  0  0  0  0
  3  5  2  0  0  0  0
  4  2  2  0  0  0  0
  6  1  2  0  0  0  0
  6  4  1  0  0  0  0
  7  3  1  0  0  0  0
  8  5  1  0  0  0  0
  9  7  2  0  0  0  0
 10  8  2  0  0  0  0
 12 13  1  0  0  0  0
 12  4  1  0  0  0  0
 14 13  1  0  0  0  0
 15 19  1  6  0  0  0
 15 16  1  0  0  0  0
 15 17  1  0  0  0  0
 16 17  1  0  0  0  0
 17 14  1  1  0  0  0
 18 22  2  0  0  0  0
 18 25  1  0  0  0  0
 22 23  1  0  0  0  0
 23 20  1  0  0  0  0
 23 19  2  0  0  0  0
 24 19  1  0  0  0  0
 24 21  1  0  0  0  0
 25 24  2  0  0  0  0
 26  6  1  0  0  0  0
 27 31  1  0  0  0  0
 28 27  1  0  0  0  0
 29 31  2  0  0  0  0
 30 28  2  0  0  0  0
 31 26  1  0  0  0  0
 32 33  1  0  0  0  0
 32 34  1  0  0  0  0
 33 34  1  0  0  0  0
 34 28  1  0  0  0  0
M  END
>  <MODEL>
3

>  <REMARK>
 VINA RESULT:      -8.9      2.314      8.451
  Name = 
  8 active torsions:
  status: ('A' for Active; 'I' for Inactive)
    1  A    between atoms: C_1  and  C_8
    2  A    between atoms: C_9  and  C_11
    3  A    between atoms: C_9  and  C_14
    4  A    between atoms: C_11  and  C_26
    5  A    between atoms: C_16  and  C_17
    6  A    between atoms: C_17  and  C_28
    7  A    between atoms: C_20  and  C_26
    8  A    between atoms: C_21  and  C_33
                            x       y       z     vdW  Elec       q    Type
                         _______ _______ _______ _____ _____    ______ ____

>  <TORSDO>
F 8

$$$$
=
 OpenBabel10222415153D

 34 38  0  0  1  0  0  0  0  0999 V2000
  185.9160  178.1250  145.3560 C   0  0  0  0  0  3  0  0  0  0  0  0
  188.6140  177.3710  145.1840 C   0  0  0  0  0  0  0  0  0  0  0  0
  188.8410  177.6320  147.5930 C   0  0  0  0  0  0  0  0  0  0  0  0
  187.8250  177.4350  144.0120 C   0  0  0  0  0  0  0  0  0  0  0  0
  190.1470  177.2650  147.4940 N   0  0  0  0  0  0  0  0  0  0  0  0
  186.4670  177.8090  144.1110 C   0  0  0  0  0  0  0  0  0  0  0  0
  188.0420  177.6940  146.4380 C   0  0  0  0  0  0  0  0  0  0  0  0
  190.7170  176.9480  146.3020 C   0  0  0  0  0  3  0  0  0  0  0  0
  186.6950  178.0690  146.5110 C   0  0  0  0  0  3  0  0  0  0  0  0
  189.9630  176.9960  145.1290 C   0  0  0  0  0  3  0  0  0  0  0  0
  188.3040  177.9610  148.8720 N   0  0  0  0  0  1  0  0  0  0  0  0
  188.4230  177.0970  142.6770 C   0  0  0  0  0  2  0  0  0  0  0  0
  188.7970  178.3640  141.9300 C   0  0  0  0  0  2  0  0  0  0  0  0
  188.7830  178.1030  140.4350 C   0  0  0  0  0  2  0  0  0  0  0  0
  190.4930  177.3260  138.8550 C   0  0  2  0  0  3  0  0  0  0  0  0
  191.0650  177.4650  140.1370 O   0  0  0  0  0  0  0  0  0  0  0  0
  189.7470  176.9820  140.0900 C   0  0  1  0  0  3  0  0  0  0  0  0
  191.9550  173.7800  136.8760 C   0  0  0  0  0  3  0  0  0  0  0  0
  191.0150  176.0820  138.1850 C   0  0  0  0  0  0  0  0  0  0  0  0
  193.3540  176.7530  138.6110 N   0  0  0  0  0  1  0  0  0  0  0  0
  188.7730  175.3980  137.6520 F   0  0  0  0  0  0  0  0  0  0  0  0
  192.8600  174.6850  137.4340 C   0  0  0  0  0  3  0  0  0  0  0  0
  192.4010  175.8380  138.0750 C   0  0  0  0  0  0  0  0  0  0  0  0
  190.1110  175.1760  137.5980 C   0  0  0  0  0  0  0  0  0  0  0  0
  190.5830  174.0290  136.9540 C   0  0  0  0  0  3  0  0  0  0  0  0
  185.5870  177.8920  142.9010 C   0  0  0  0  0  2  0  0  0  0  0  0
  183.0980  178.2540  143.1310 N   0  0  0  0  0  2  0  0  0  0  0  0
  181.8880  178.9890  143.3670 C   0  0  0  0  0  0  0  0  0  0  0  0
  184.6290  180.0110  143.4020 O   0  0  0  0  0  0  0  0  0  0  0  0
  181.9310  180.2200  143.7630 N   0  0  0  0  0  2  0  0  0  0  0  0
  184.4250  178.7920  143.1550 C   0  0  0  0  0  0  0  0  0  0  0  0
  179.4570  179.3110  143.2410 C   0  0  0  0  0  2  0  0  0  0  0  0
  179.8630  178.5390  142.0080 C   0  0  0  0  0  2  0  0  0  0  0  0
  180.5710  178.2840  143.3260 C   0  0  0  0  0  3  0  0  0  0  0  0
  1  9  1  0  0  0  0
  2  7  1  0  0  0  0
  3 11  1  0  0  0  0
  4  6  1  0  0  0  0
  4  2  2  0  0  0  0
  5  3  2  0  0  0  0
  6  1  2  0  0  0  0
  7  9  2  0  0  0  0
  7  3  1  0  0  0  0
  8  5  1  0  0  0  0
 10  2  1  0  0  0  0
 10  8  2  0  0  0  0
 12  4  1  0  0  0  0
 13 12  1  0  0  0  0
 14 13  1  0  0  0  0
 15 19  1  6  0  0  0
 15 17  1  0  0  0  0
 15 16  1  0  0  0  0
 17 16  1  0  0  0  0
 17 14  1  1  0  0  0
 18 25  2  0  0  0  0
 18 22  1  0  0  0  0
 22 23  2  0  0  0  0
 23 19  1  0  0  0  0
 23 20  1  0  0  0  0
 24 21  1  0  0  0  0
 24 19  2  0  0  0  0
 25 24  1  0  0  0  0
 26 31  1  0  0  0  0
 26  6  1  0  0  0  0
 27 31  1  0  0  0  0
 27 28  1  0  0  0  0
 28 30  2  0  0  0  0
 31 29  2  0  0  0  0
 32 34  1  0  0  0  0
 33 32  1  0  0  0  0
 33 34  1  0  0  0  0
 34 28  1  0  0  0  0
M  END
>  <MODEL>
4

>  <REMARK>
 VINA RESULT:      -8.8      2.380      7.480
  Name = 
  8 active torsions:
  status: ('A' for Active; 'I' for Inactive)
    1  A    between atoms: C_1  and  C_8
    2  A    between atoms: C_9  and  C_11
    3  A    between atoms: C_9  and  C_14
    4  A    between atoms: C_11  and  C_26
    5  A    between atoms: C_16  and  C_17
    6  A    between atoms: C_17  and  C_28
    7  A    between atoms: C_20  and  C_26
    8  A    between atoms: C_21  and  C_33
                            x       y       z     vdW  Elec       q    Type
                         _______ _______ _______ _____ _____    ______ ____

>  <TORSDO>
F 8

$$$$
=
 OpenBabel10222415153D

 34 38  0  0  1  0  0  0  0  0999 V2000
  186.0990  178.0820  145.4040 C   0  0  0  0  0  3  0  0  0  0  0  0
  188.7860  177.2730  145.3200 C   0  0  0  0  0  0  0  0  0  0  0  0
  188.9660  177.6230  147.7210 C   0  0  0  0  0  0  0  0  0  0  0  0
  188.0230  177.3070  144.1290 C   0  0  0  0  0  0  0  0  0  0  0  0
  190.2680  177.2290  147.6650 N   0  0  0  0  0  0  0  0  0  0  0  0
  186.6700  177.7090  144.1840 C   0  0  0  0  0  0  0  0  0  0  0  0
  188.1930  177.6540  146.5480 C   0  0  0  0  0  0  0  0  0  0  0  0
  190.8560  176.8550  146.4980 C   0  0  0  0  0  3  0  0  0  0  0  0
  186.8530  178.0560  146.5770 C   0  0  0  0  0  3  0  0  0  0  0  0
  190.1290  176.8720  145.3080 C   0  0  0  0  0  3  0  0  0  0  0  0
  188.4090  178.0090  148.9750 N   0  0  0  0  0  1  0  0  0  0  0  0
  188.6430  176.9070  142.8210 C   0  0  0  0  0  2  0  0  0  0  0  0
  189.3890  178.0800  142.2100 C   0  0  0  0  0  2  0  0  0  0  0  0
  190.3920  177.5760  141.1890 C   0  0  0  0  0  2  0  0  0  0  0  0
  190.4260  177.1790  138.7670 C   0  0  2  0  0  3  0  0  0  0  0  0
  190.4900  175.9450  139.4470 O   0  0  0  0  0  0  0  0  0  0  0  0
  189.6700  176.9320  140.0200 C   0  0  1  0  0  3  0  0  0  0  0  0
  187.7970  176.8070  135.3650 C   0  0  0  0  0  3  0  0  0  0  0  0
  189.5210  177.0670  137.5690 C   0  0  0  0  0  0  0  0  0  0  0  0
  188.9230  179.4590  137.7110 N   0  0  0  0  0  1  0  0  0  0  0  0
  189.9800  174.7120  137.4120 F   0  0  0  0  0  0  0  0  0  0  0  0
  187.9570  178.0480  135.9840 C   0  0  0  0  0  3  0  0  0  0  0  0
  188.8030  178.1830  137.0870 C   0  0  0  0  0  0  0  0  0  0  0  0
  189.3340  175.8150  136.9520 C   0  0  0  0  0  0  0  0  0  0  0  0
  188.4810  175.6910  135.8530 C   0  0  0  0  0  3  0  0  0  0  0  0
  185.8180  177.7620  142.9530 C   0  0  0  0  0  2  0  0  0  0  0  0
  183.3610  178.1880  143.3500 N   0  0  0  0  0  2  0  0  0  0  0  0
  182.1740  178.9680  143.5570 C   0  0  0  0  0  0  0  0  0  0  0  0
  184.8970  179.9480  143.1260 O   0  0  0  0  0  0  0  0  0  0  0  0
  182.2450  180.2520  143.7010 N   0  0  0  0  0  2  0  0  0  0  0  0
  184.6800  178.7070  143.1400 C   0  0  0  0  0  0  0  0  0  0  0  0
  179.7400  179.2890  143.6210 C   0  0  0  0  0  2  0  0  0  0  0  0
  180.0230  178.2990  142.5170 C   0  0  0  0  0  2  0  0  0  0  0  0
  180.8650  178.2830  143.7810 C   0  0  0  0  0  3  0  0  0  0  0  0
  1  9  1  0  0  0  0
  2  7  1  0  0  0  0
  3 11  1  0  0  0  0
  4  6  1  0  0  0  0
  4  2  2  0  0  0  0
  5  3  2  0  0  0  0
  6  1  2  0  0  0  0
  7  9  2  0  0  0  0
  7  3  1  0  0  0  0
  8  5  1  0  0  0  0
 10  2  1  0  0  0  0
 10  8  2  0  0  0  0
 12  4  1  0  0  0  0
 13 12  1  0  0  0  0
 14 13  1  0  0  0  0
 15 19  1  6  0  0  0
 15 16  1  0  0  0  0
 15 17  1  0  0  0  0
 16 17  1  0  0  0  0
 17 14  1  1  0  0  0
 18 25  2  0  0  0  0
 18 22  1  0  0  0  0
 22 23  2  0  0  0  0
 23 19  1  0  0  0  0
 23 20  1  0  0  0  0
 24 21  1  0  0  0  0
 24 19  2  0  0  0  0
 25 24  1  0  0  0  0
 26 31  1  0  0  0  0
 26  6  1  0  0  0  0
 27 28  1  0  0  0  0
 28 30  2  0  0  0  0
 28 34  1  0  0  0  0
 29 31  2  0  0  0  0
 31 27  1  0  0  0  0
 32 34  1  0  0  0  0
 33 32  1  0  0  0  0
 33 34  1  0  0  0  0
M  END
>  <MODEL>
5

>  <REMARK>
 VINA RESULT:      -8.8      2.416      7.568
  Name = 
  8 active torsions:
  status: ('A' for Active; 'I' for Inactive)
    1  A    between atoms: C_1  and  C_8
    2  A    between atoms: C_9  and  C_11
    3  A    between atoms: C_9  and  C_14
    4  A    between atoms: C_11  and  C_26
    5  A    between atoms: C_16  and  C_17
    6  A    between atoms: C_17  and  C_28
    7  A    between atoms: C_20  and  C_26
    8  A    between atoms: C_21  and  C_33
                            x       y       z     vdW  Elec       q    Type
                         _______ _______ _______ _____ _____    ______ ____

>  <TORSDO>
F 8

$$$$
=
 OpenBabel10222415153D

 34 38  0  0  1  0  0  0  0  0999 V2000
  185.1400  178.9720  142.9550 C   0  0  0  0  0  3  0  0  0  0  0  0
  187.2230  177.7390  144.3750 C   0  0  0  0  0  0  0  0  0  0  0  0
  186.1470  178.3380  146.4740 C   0  0  0  0  0  0  0  0  0  0  0  0
  187.2470  177.7530  142.9610 C   0  0  0  0  0  0  0  0  0  0  0  0
  187.1640  177.7360  147.1490 N   0  0  0  0  0  0  0  0  0  0  0  0
  186.1900  178.3700  142.2560 C   0  0  0  0  0  0  0  0  0  0  0  0
  186.1530  178.3530  145.0680 C   0  0  0  0  0  0  0  0  0  0  0  0
  188.2000  177.1370  146.5040 C   0  0  0  0  0  3  0  0  0  0  0  0
  185.1200  178.9650  144.3490 C   0  0  0  0  0  3  0  0  0  0  0  0
  188.2480  177.1290  145.1110 C   0  0  0  0  0  3  0  0  0  0  0  0
  185.0920  178.9550  147.2080 N   0  0  0  0  0  1  0  0  0  0  0  0
  188.3790  177.1060  142.2160 C   0  0  0  0  0  2  0  0  0  0  0  0
  189.5610  178.0540  142.1260 C   0  0  0  0  0  2  0  0  0  0  0  0
  190.5270  177.5710  141.0600 C   0  0  0  0  0  2  0  0  0  0  0  0
  190.4820  177.1690  138.6390 C   0  0  2  0  0  3  0  0  0  0  0  0
  190.5620  175.9350  139.3190 O   0  0  0  0  0  0  0  0  0  0  0  0
  189.7660  176.9280  139.9150 C   0  0  1  0  0  3  0  0  0  0  0  0
  187.7460  176.8000  135.3220 C   0  0  0  0  0  3  0  0  0  0  0  0
  189.5400  177.0580  137.4700 C   0  0  0  0  0  0  0  0  0  0  0  0
  188.9280  179.4440  137.6490 N   0  0  0  0  0  1  0  0  0  0  0  0
  190.0110  174.7080  137.2800 F   0  0  0  0  0  0  0  0  0  0  0  0
  187.9170  178.0380  135.9440 C   0  0  0  0  0  3  0  0  0  0  0  0
  188.7970  178.1720  137.0210 C   0  0  0  0  0  0  0  0  0  0  0  0
  189.3420  175.8080  136.8500 C   0  0  0  0  0  0  0  0  0  0  0  0
  188.4540  175.6860  135.7790 C   0  0  0  0  0  3  0  0  0  0  0  0
  186.1660  178.4120  140.7590 C   0  0  0  0  0  2  0  0  0  0  0  0
  183.7360  177.8520  140.3630 N   0  0  0  0  0  2  0  0  0  0  0  0
  182.3820  178.0780  139.9430 C   0  0  0  0  0  0  0  0  0  0  0  0
  184.6310  179.9410  139.7790 O   0  0  0  0  0  0  0  0  0  0  0  0
  182.0000  179.2480  139.5460 N   0  0  0  0  0  2  0  0  0  0  0  0
  184.8120  178.7920  140.2640 C   0  0  0  0  0  0  0  0  0  0  0  0
  180.2180  177.2270  139.1510 C   0  0  0  0  0  2  0  0  0  0  0  0
  181.2410  176.1500  138.8770 C   0  0  0  0  0  2  0  0  0  0  0  0
  181.3590  177.0040  140.1270 C   0  0  0  0  0  3  0  0  0  0  0  0
  1  9  1  0  0  0  0
  2  7  1  0  0  0  0
  2 10  1  0  0  0  0
  3  5  2  0  0  0  0
  3 11  1  0  0  0  0
  4  2  2  0  0  0  0
  6  1  2  0  0  0  0
  6  4  1  0  0  0  0
  7  3  1  0  0  0  0
  8  5  1  0  0  0  0
  9  7  2  0  0  0  0
 10  8  2  0  0  0  0
 12  4  1  0  0  0  0
 13 12  1  0  0  0  0
 14 13  1  0  0  0  0
 15 19  1  6  0  0  0
 15 16  1  0  0  0  0
 15 17  1  0  0  0  0
 16 17  1  0  0  0  0
 17 14  1  1  0  0  0
 18 25  2  0  0  0  0
 18 22  1  0  0  0  0
 22 23  2  0  0  0  0
 23 19  1  0  0  0  0
 23 20  1  0  0  0  0
 24 21  1  0  0  0  0
 24 19  2  0  0  0  0
 25 24  1  0  0  0  0
 26  6  1  0  0  0  0
 28 34  1  0  0  0  0
 28 27  1  0  0  0  0
 29 31  2  0  0  0  0
 30 28  2  0  0  0  0
 31 27  1  0  0  0  0
 31 26  1  0  0  0  0
 32 34  1  0  0  0  0
 33 32  1  0  0  0  0
 33 34  1  0  0  0  0
M  END
>  <MODEL>
6

>  <REMARK>
 VINA RESULT:      -8.8      2.855      7.479
  Name = 
  8 active torsions:
  status: ('A' for Active; 'I' for Inactive)
    1  A    between atoms: C_1  and  C_8
    2  A    between atoms: C_9  and  C_11
    3  A    between atoms: C_9  and  C_14
    4  A    between atoms: C_11  and  C_26
    5  A    between atoms: C_16  and  C_17
    6  A    between atoms: C_17  and  C_28
    7  A    between atoms: C_20  and  C_26
    8  A    between atoms: C_21  and  C_33
                            x       y       z     vdW  Elec       q    Type
                         _______ _______ _______ _____ _____    ______ ____

>  <TORSDO>
F 8

$$$$
=
 OpenBabel10222415153D

 34 38  0  0  1  0  0  0  0  0999 V2000
  186.9530  178.0460  137.7830 C   0  0  0  0  0  3  0  0  0  0  0  0
  186.6550  178.4970  140.5370 C   0  0  0  0  0  0  0  0  0  0  0  0
  184.2660  178.8410  140.2210 C   0  0  0  0  0  0  0  0  0  0  0  0
  187.9340  178.2180  140.0050 C   0  0  0  0  0  0  0  0  0  0  0  0
  184.1360  179.0580  141.5590 N   0  0  0  0  0  0  0  0  0  0  0  0
  188.0720  177.9850  138.6180 C   0  0  0  0  0  0  0  0  0  0  0  0
  185.5310  178.5550  139.6780 C   0  0  0  0  0  0  0  0  0  0  0  0
  185.2000  179.0040  142.4020 C   0  0  0  0  0  3  0  0  0  0  0  0
  185.6930  178.3280  138.3060 C   0  0  0  0  0  3  0  0  0  0  0  0
  186.4750  178.7250  141.9080 C   0  0  0  0  0  3  0  0  0  0  0  0
  183.1120  178.9190  139.3870 N   0  0  0  0  0  1  0  0  0  0  0  0
  189.1330  178.1570  140.9070 C   0  0  0  0  0  2  0  0  0  0  0  0
  189.2870  176.7620  141.4860 C   0  0  0  0  0  2  0  0  0  0  0  0
  190.4270  176.7440  142.4880 C   0  0  0  0  0  2  0  0  0  0  0  0
  190.2300  176.7140  144.9340 C   0  0  2  0  0  3  0  0  0  0  0  0
  191.1790  177.6860  144.5510 O   0  0  0  0  0  0  0  0  0  0  0  0
  190.0540  177.5480  143.7200 C   0  0  1  0  0  3  0  0  0  0  0  0
  187.7560  178.1500  148.1660 C   0  0  0  0  0  3  0  0  0  0  0  0
  189.3820  177.2340  146.0650 C   0  0  0  0  0  0  0  0  0  0  0  0
  191.2920  177.1410  147.6300 N   0  0  0  0  0  1  0  0  0  0  0  0
  187.4520  177.2730  144.6330 F   0  0  0  0  0  0  0  0  0  0  0  0
  189.1090  177.8900  148.3920 C   0  0  0  0  0  3  0  0  0  0  0  0
  189.9210  177.4220  147.3560 C   0  0  0  0  0  0  0  0  0  0  0  0
  188.0120  177.4780  145.8530 C   0  0  0  0  0  0  0  0  0  0  0  0
  187.2090  177.9390  146.8980 C   0  0  0  0  0  3  0  0  0  0  0  0
  189.4060  177.6840  138.0040 C   0  0  0  0  0  2  0  0  0  0  0  0
  188.6990  175.4340  137.1020 N   0  0  0  0  0  2  0  0  0  0  0  0
  188.7740  174.0160  136.8870 C   0  0  0  0  0  0  0  0  0  0  0  0
  190.5910  175.6760  138.4680 O   0  0  0  0  0  0  0  0  0  0  0  0
  189.7920  173.3380  137.3060 N   0  0  0  0  0  2  0  0  0  0  0  0
  189.6110  176.2120  137.8860 C   0  0  0  0  0  0  0  0  0  0  0  0
  187.8070  171.8450  136.2680 C   0  0  0  0  0  2  0  0  0  0  0  0
  186.6920  172.6670  136.8710 C   0  0  0  0  0  2  0  0  0  0  0  0
  187.7560  173.3420  136.0250 C   0  0  0  0  0  3  0  0  0  0  0  0
  1  9  2  0  0  0  0
  1  6  1  0  0  0  0
  2 10  1  0  0  0  0
  3  5  2  0  0  0  0
  4  2  1  0  0  0  0
  4 12  1  0  0  0  0
  5  8  1  0  0  0  0
  6  4  2  0  0  0  0
  7  3  1  0  0  0  0
  7  2  2  0  0  0  0
  9  7  1  0  0  0  0
 10  8  2  0  0  0  0
 11  3  1  0  0  0  0
 12 13  1  0  0  0  0
 13 14  1  0  0  0  0
 15 19  1  1  0  0  0
 16 15  1  0  0  0  0
 17 14  1  6  0  0  0
 17 16  1  0  0  0  0
 17 15  1  0  0  0  0
 18 22  1  0  0  0  0
 19 23  1  0  0  0  0
 21 24  1  0  0  0  0
 23 20  1  0  0  0  0
 23 22  2  0  0  0  0
 24 19  2  0  0  0  0
 24 25  1  0  0  0  0
 25 18  2  0  0  0  0
 26  6  1  0  0  0  0
 27 31  1  0  0  0  0
 28 27  1  0  0  0  0
 28 30  2  0  0  0  0
 31 26  1  0  0  0  0
 31 29  2  0  0  0  0
 32 33  1  0  0  0  0
 34 32  1  0  0  0  0
 34 33  1  0  0  0  0
 34 28  1  0  0  0  0
M  END
>  <MODEL>
7

>  <REMARK>
 VINA RESULT:      -8.7      2.229      5.510
  Name = 
  8 active torsions:
  status: ('A' for Active; 'I' for Inactive)
    1  A    between atoms: C_1  and  C_8
    2  A    between atoms: C_9  and  C_11
    3  A    between atoms: C_9  and  C_14
    4  A    between atoms: C_11  and  C_26
    5  A    between atoms: C_16  and  C_17
    6  A    between atoms: C_17  and  C_28
    7  A    between atoms: C_20  and  C_26
    8  A    between atoms: C_21  and  C_33
                            x       y       z     vdW  Elec       q    Type
                         _______ _______ _______ _____ _____    ______ ____

>  <TORSDO>
F 8

$$$$
=
 OpenBabel10222415153D

 34 38  0  0  1  0  0  0  0  0999 V2000
  187.6040  177.4960  144.4390 C   0  0  0  0  0  3  0  0  0  0  0  0
  190.2000  176.9780  145.3710 C   0  0  0  0  0  0  0  0  0  0  0  0
  189.4610  177.3810  147.6540 C   0  0  0  0  0  0  0  0  0  0  0  0
  189.9240  176.9120  143.9860 C   0  0  0  0  0  0  0  0  0  0  0  0
  190.7250  177.1280  148.0920 N   0  0  0  0  0  0  0  0  0  0  0  0
  188.6120  177.1680  143.5280 C   0  0  0  0  0  0  0  0  0  0  0  0
  189.1690  177.3120  146.2810 C   0  0  0  0  0  0  0  0  0  0  0  0
  191.7300  176.8020  147.2370 C   0  0  0  0  0  3  0  0  0  0  0  0
  187.8780  177.5680  145.8040 C   0  0  0  0  0  3  0  0  0  0  0  0
  191.4870  176.7230  145.8660 C   0  0  0  0  0  3  0  0  0  0  0  0
  188.4520  177.7240  148.6010 N   0  0  0  0  0  1  0  0  0  0  0  0
  191.0120  176.5620  143.0120 C   0  0  0  0  0  2  0  0  0  0  0  0
  191.5100  177.8090  142.3060 C   0  0  0  0  0  2  0  0  0  0  0  0
  191.9150  177.4680  140.8830 C   0  0  0  0  0  2  0  0  0  0  0  0
  191.0500  177.0330  138.6280 C   0  0  2  0  0  3  0  0  0  0  0  0
  190.9170  175.8700  139.4150 O   0  0  0  0  0  0  0  0  0  0  0  0
  190.6910  177.0940  140.0660 C   0  0  1  0  0  3  0  0  0  0  0  0
  187.5760  177.6280  136.1360 C   0  0  0  0  0  3  0  0  0  0  0  0
  189.8280  177.2200  137.7670 C   0  0  0  0  0  0  0  0  0  0  0  0
  190.2130  175.0570  136.6350 N   0  0  0  0  0  1  0  0  0  0  0  0
  189.4300  179.3750  138.7540 F   0  0  0  0  0  0  0  0  0  0  0  0
  188.3270  176.4570  136.0100 C   0  0  0  0  0  3  0  0  0  0  0  0
  189.4550  176.2520  136.8090 C   0  0  0  0  0  0  0  0  0  0  0  0
  189.0780  178.4070  137.8690 C   0  0  0  0  0  0  0  0  0  0  0  0
  187.9560  178.6030  137.0610 C   0  0  0  0  0  3  0  0  0  0  0  0
  188.2660  177.1100  142.0720 C   0  0  0  0  0  2  0  0  0  0  0  0
  185.9410  177.9610  142.5720 N   0  0  0  0  0  2  0  0  0  0  0  0
  184.7710  178.7770  142.4080 C   0  0  0  0  0  0  0  0  0  0  0  0
  187.2220  178.8370  140.8120 O   0  0  0  0  0  0  0  0  0  0  0  0
  184.7610  179.7530  141.5590 N   0  0  0  0  0  2  0  0  0  0  0  0
  187.1240  178.0200  141.7660 C   0  0  0  0  0  0  0  0  0  0  0  0
  184.1380  178.4170  144.7540 C   0  0  0  0  0  2  0  0  0  0  0  0
  183.5650  179.7530  144.3440 C   0  0  0  0  0  2  0  0  0  0  0  0
  183.6160  178.6130  143.3420 C   0  0  0  0  0  3  0  0  0  0  0  0
  1  9  1  0  0  0  0
  2 10  1  0  0  0  0
  2  7  1  0  0  0  0
  3  5  2  0  0  0  0
  3 11  1  0  0  0  0
  4  2  2  0  0  0  0
  6  4  1  0  0  0  0
  6  1  2  0  0  0  0
  7  3  1  0  0  0  0
  8  5  1  0  0  0  0
  9  7  2  0  0  0  0
 10  8  2  0  0  0  0
 12  4  1  0  0  0  0
 13 12  1  0  0  0  0
 14 13  1  0  0  0  0
 15 19  1  6  0  0  0
 15 16  1  0  0  0  0
 15 17  1  0  0  0  0
 16 17  1  0  0  0  0
 17 14  1  1  0  0  0
 18 25  1  0  0  0  0
 19 24  1  0  0  0  0
 20 23  1  0  0  0  0
 22 18  2  0  0  0  0
 22 23  1  0  0  0  0
 23 19  2  0  0  0  0
 24 21  1  0  0  0  0
 25 24  2  0  0  0  0
 26  6  1  0  0  0  0
 28 27  1  0  0  0  0
 28 34  1  0  0  0  0
 29 31  2  0  0  0  0
 30 28  2  0  0  0  0
 31 26  1  0  0  0  0
 31 27  1  0  0  0  0
 33 32  1  0  0  0  0
 34 33  1  0  0  0  0
 34 32  1  0  0  0  0
M  END
>  <MODEL>
8

>  <REMARK>
 VINA RESULT:      -8.7      1.835      7.179
  Name = 
  8 active torsions:
  status: ('A' for Active; 'I' for Inactive)
    1  A    between atoms: C_1  and  C_8
    2  A    between atoms: C_9  and  C_11
    3  A    between atoms: C_9  and  C_14
    4  A    between atoms: C_11  and  C_26
    5  A    between atoms: C_16  and  C_17
    6  A    between atoms: C_17  and  C_28
    7  A    between atoms: C_20  and  C_26
    8  A    between atoms: C_21  and  C_33
                            x       y       z     vdW  Elec       q    Type
                         _______ _______ _______ _____ _____    ______ ____

>  <TORSDO>
F 8

$$$$
=
 OpenBabel10222415153D

 34 38  0  0  1  0  0  0  0  0999 V2000
  186.0530  178.1670  137.6400 C   0  0  0  0  0  3  0  0  0  0  0  0
  186.0820  178.5030  140.4260 C   0  0  0  0  0  0  0  0  0  0  0  0
  183.6500  178.4370  140.4600 C   0  0  0  0  0  0  0  0  0  0  0  0
  187.3000  178.4590  139.7100 C   0  0  0  0  0  0  0  0  0  0  0  0
  183.6790  178.6000  141.8110 N   0  0  0  0  0  0  0  0  0  0  0  0
  187.2750  178.2830  138.3090 C   0  0  0  0  0  0  0  0  0  0  0  0
  184.8530  178.3840  139.7350 C   0  0  0  0  0  0  0  0  0  0  0  0
  184.8480  178.7130  142.4960 C   0  0  0  0  0  3  0  0  0  0  0  0
  184.8510  178.2170  138.3450 C   0  0  0  0  0  3  0  0  0  0  0  0
  186.0660  178.6670  141.8180 C   0  0  0  0  0  3  0  0  0  0  0  0
  182.3910  178.3320  139.7980 N   0  0  0  0  0  1  0  0  0  0  0  0
  188.6100  178.5860  140.4340 C   0  0  0  0  0  2  0  0  0  0  0  0
  189.0270  177.2450  141.0100 C   0  0  0  0  0  2  0  0  0  0  0  0
  190.3990  177.3640  141.6470 C   0  0  0  0  0  2  0  0  0  0  0  0
  190.3170  176.7170  144.0140 C   0  0  2  0  0  3  0  0  0  0  0  0
  191.4380  177.5450  143.7910 O   0  0  0  0  0  0  0  0  0  0  0  0
  190.2720  177.8650  143.0740 C   0  0  1  0  0  3  0  0  0  0  0  0
  188.3880  177.6850  147.7510 C   0  0  0  0  0  3  0  0  0  0  0  0
  189.6590  177.0740  145.3210 C   0  0  0  0  0  0  0  0  0  0  0  0
  191.7940  176.8260  146.5400 N   0  0  0  0  0  1  0  0  0  0  0  0
  187.5250  177.2500  144.2290 F   0  0  0  0  0  0  0  0  0  0  0  0
  189.7600  177.4270  147.7260 C   0  0  0  0  0  3  0  0  0  0  0  0
  190.3970  177.1100  146.5240 C   0  0  0  0  0  0  0  0  0  0  0  0
  188.2720  177.3120  145.3610 C   0  0  0  0  0  0  0  0  0  0  0  0
  187.6450  177.6220  146.5700 C   0  0  0  0  0  3  0  0  0  0  0  0
  188.5370  178.2290  137.5030 C   0  0  0  0  0  2  0  0  0  0  0  0
  190.5720  176.7450  137.6790 N   0  0  0  0  0  2  0  0  0  0  0  0
  191.3020  175.5120  137.7680 C   0  0  0  0  0  0  0  0  0  0  0  0
  188.4040  175.8550  137.5550 O   0  0  0  0  0  0  0  0  0  0  0  0
  190.6800  174.3840  137.8940 N   0  0  0  0  0  2  0  0  0  0  0  0
  189.1490  176.8710  137.5740 C   0  0  0  0  0  0  0  0  0  0  0  0
  193.3500  174.1830  137.4960 C   0  0  0  0  0  2  0  0  0  0  0  0
  193.4490  175.3460  136.5370 C   0  0  0  0  0  2  0  0  0  0  0  0
  192.7910  175.5380  137.8920 C   0  0  0  0  0  3  0  0  0  0  0  0
  1  6  2  0  0  0  0
  1  9  1  0  0  0  0
  2 10  1  0  0  0  0
  3  5  2  0  0  0  0
  4  2  2  0  0  0  0
  4 12  1  0  0  0  0
  5  8  1  0  0  0  0
  6  4  1  0  0  0  0
  7  2  1  0  0  0  0
  7  3  1  0  0  0  0
  9  7  2  0  0  0  0
 10  8  2  0  0  0  0
 11  3  1  0  0  0  0
 12 13  1  0  0  0  0
 13 14  1  0  0  0  0
 15 19  1  1  0  0  0
 16 15  1  0  0  0  0
 17 14  1  6  0  0  0
 17 16  1  0  0  0  0
 17 15  1  0  0  0  0
 19 24  2  0  0  0  0
 19 23  1  0  0  0  0
 21 24  1  0  0  0  0
 22 18  1  0  0  0  0
 23 20  1  0  0  0  0
 23 22  2  0  0  0  0
 24 25  1  0  0  0  0
 25 18  2  0  0  0  0
 26 31  1  0  0  0  0
 26  6  1  0  0  0  0
 27 28  1  0  0  0  0
 28 34  1  0  0  0  0
 28 30  2  0  0  0  0
 29 31  2  0  0  0  0
 31 27  1  0  0  0  0
 32 34  1  0  0  0  0
 33 32  1  0  0  0  0
 33 34  1  0  0  0  0
M  END
>  <MODEL>
9

>  <REMARK>
 VINA RESULT:      -8.6      1.595      5.955
  Name = 
  8 active torsions:
  status: ('A' for Active; 'I' for Inactive)
    1  A    between atoms: C_1  and  C_8
    2  A    between atoms: C_9  and  C_11
    3  A    between atoms: C_9  and  C_14
    4  A    between atoms: C_11  and  C_26
    5  A    between atoms: C_16  and  C_17
    6  A    between atoms: C_17  and  C_28
    7  A    between atoms: C_20  and  C_26
    8  A    between atoms: C_21  and  C_33
                            x       y       z     vdW  Elec       q    Type
                         _______ _______ _______ _____ _____    ______ ____

>  <TORSDO>
F 8

$$$$
