=
 OpenBabel10222421223D

 39 45  0  0  1  0  0  0  0  0999 V2000
  188.4540  177.1130  136.9910 C   0  0  2  0  0  3  0  0  0  0  0  0
  189.7820  177.1110  137.6060 N   0  0  0  0  0  0  0  0  0  0  0  0
  192.1000  174.9450  136.2010 N   0  0  0  0  0  0  0  0  0  0  0  0
  187.4880  177.8640  137.8960 C   0  0  1  0  0  3  0  0  0  0  0  0
  191.1660  175.7760  135.9670 N   0  0  0  0  0  0  0  0  0  0  0  0
  186.0180  178.5190  137.1770 Cl  0  0  0  0  0  0  0  0  0  0  0  0
  191.2760  176.5190  139.4150 C   0  0  0  0  0  3  0  0  0  0  0  0
  187.7130  177.9840  139.2270 C   0  0  0  0  0  0  0  0  0  0  0  0
  192.6390  175.1140  137.5520 C   0  0  2  0  0  3  0  0  0  0  0  0
  191.0090  176.6040  137.1050 C   0  0  0  0  0  0  0  0  0  0  0  0
  191.8550  176.2810  138.0520 C   0  0  0  0  0  0  0  0  0  0  0  0
  188.9780  177.4810  139.8220 C   0  0  0  0  0  3  0  0  0  0  0  0
  189.9510  177.0790  139.0140 C   0  0  0  0  0  0  0  0  0  0  0  0
  186.7280  175.6580  135.9140 C   0  0  1  0  0  3  0  0  0  0  0  0
  187.9600  175.6800  136.8110 C   0  0  1  0  0  3  0  0  0  0  0  0
  188.2680  173.8650  135.3080 O   0  0  0  0  0  1  0  0  0  0  0  0
  188.1000  175.2520  135.3640 C   0  0  1  0  0  3  0  0  0  0  0  0
  184.0270  172.4310  136.8410 C   0  0  0  0  0  3  0  0  0  0  0  0
  184.8700  174.0930  135.2920 C   0  0  0  0  0  3  0  0  0  0  0  0
  184.9580  172.8530  137.7960 C   0  0  0  0  0  3  0  0  0  0  0  0
  183.9810  173.0520  135.5910 C   0  0  0  0  0  3  0  0  0  0  0  0
  185.8180  174.5040  136.2360 C   0  0  0  0  0  0  0  0  0  0  0  0
  185.8460  173.8920  137.4970 C   0  0  0  0  0  3  0  0  0  0  0  0
  186.6410  178.5700  141.4810 C   0  0  0  0  0  0  0  0  0  0  0  0
  186.7190  178.6150  140.0510 N   0  0  0  0  0  2  0  0  0  0  0  0
  187.5430  178.0110  142.1630 O   0  0  0  0  0  0  0  0  0  0  0  0
  185.5500  179.0750  143.5020 O   0  0  0  0  0  0  0  0  0  0  0  0
  185.4890  179.2450  142.1550 C   0  0  2  0  0  3  0  0  0  0  0  0
  184.6620  178.2580  142.8140 N   0  0  2  0  0  0  0  0  0  0  0  0
  182.3130  178.7750  141.8270 C   0  0  0  0  0  1  0  0  0  0  0  0
  183.1630  179.7800  143.9110 O   0  0  0  0  0  0  0  0  0  0  0  0
  182.7390  178.4980  144.2410 N   0  0  0  0  0  2  0  0  0  0  0  0
  183.3170  178.8190  142.9650 C   0  0  2  0  0  0  0  0  0  0  0  0
  194.1090  175.4140  137.4940 C   0  0  0  0  0  0  0  0  0  0  0  0
  194.5320  176.3170  136.7810 O   0  0  0  0  0  0  0  0  0  0  0  0
  195.4590  175.2670  139.4460 O   0  0  0  0  0  1  0  0  0  0  0  0
  195.0550  174.5770  138.3020 C   0  0  2  0  0  3  0  0  0  0  0  0
  196.2630  174.1280  137.4880 C   0  0  0  0  0  2  0  0  0  0  0  0
  197.3620  174.9610  137.7260 O   0  0  0  0  0  1  0  0  0  0  0  0
  1  2  1  1  0  0  0
  1  4  1  0  0  0  0
  2 13  1  0  0  0  0
  3  9  1  0  0  0  0
  4  6  1  1  0  0  0
  4  8  1  0  0  0  0
  5  3  2  0  0  0  0
  5 10  1  0  0  0  0
  8 12  2  0  0  0  0
  8 25  1  0  0  0  0
  9 34  1  6  0  0  0
  9 11  1  0  0  0  0
 10  2  1  0  0  0  0
 10 11  2  0  0  0  0
 11  7  1  0  0  0  0
 13  7  2  0  0  0  0
 13 12  1  0  0  0  0
 14 22  1  1  0  0  0
 14 15  1  0  0  0  0
 15  1  1  6  0  0  0
 17 16  1  1  0  0  0
 17 14  1  0  0  0  0
 17 15  1  0  0  0  0
 18 20  1  0  0  0  0
 19 21  1  0  0  0  0
 19 22  2  0  0  0  0
 21 18  2  0  0  0  0
 22 23  1  0  0  0  0
 23 20  2  0  0  0  0
 24 26  2  0  0  0  0
 25 24  1  0  0  0  0
 28 24  1  6  0  0  0
 28 29  1  0  0  0  0
 28 27  1  0  0  0  0
 29 33  1  0  0  0  0
 29 27  1  1  0  0  0
 31 32  1  0  0  0  0
 33 30  1  6  0  0  0
 33 31  1  0  0  0  0
 33 32  1  0  0  0  0
 34 37  1  0  0  0  0
 35 34  2  0  0  0  0
 37 36  1  1  0  0  0
 38 39  1  0  0  0  0
 38 37  1  0  0  0  0
M  END
>  <MODEL>
1

>  <REMARK>
 VINA RESULT:      -7.4      0.000      0.000
  Name = 
  8 active torsions:
  status: ('A' for Active; 'I' for Inactive)
    1  A    between atoms: C_1  and  C_35
    2  A    between atoms: C_3  and  C_29
    3  A    between atoms: C_4  and  C_8
    4  A    between atoms: C_10  and  C_11
    5  A    between atoms: C_13  and  C_30
    6  A    between atoms: C_13  and  C_35
    7  A    between atoms: N_14  and  C_28
    8  A    between atoms: C_34  and  N_36
                            x       y       z     vdW  Elec       q    Type
                         _______ _______ _______ _____ _____    ______ ____

>  <TORSDO>
F 8

$$$$
=
 OpenBabel10222421223D

 39 45  0  0  1  0  0  0  0  0999 V2000
  189.8070  177.5460  138.6670 C   0  0  2  0  0  3  0  0  0  0  0  0
  188.8720  177.0180  137.6720 N   0  0  0  0  0  0  0  0  0  0  0  0
  185.5390  177.8730  138.1210 N   0  0  0  0  0  0  0  0  0  0  0  0
  191.1460  176.8420  138.5130 C   0  0  1  0  0  3  0  0  0  0  0  0
  186.7420  178.2840  138.1660 N   0  0  0  0  0  0  0  0  0  0  0  0
  192.5820  177.6440  139.1460 Cl  0  0  0  0  0  0  0  0  0  0  0  0
  187.6120  175.1890  136.7130 C   0  0  0  0  0  3  0  0  0  0  0  0
  191.2380  175.6090  137.9570 C   0  0  0  0  0  0  0  0  0  0  0  0
  185.4220  176.6500  137.3250 C   0  0  2  0  0  3  0  0  0  0  0  0
  187.5400  177.4160  137.3830 C   0  0  0  0  0  0  0  0  0  0  0  0
  186.8240  176.4570  136.8500 C   0  0  0  0  0  0  0  0  0  0  0  0
  190.0370  174.9580  137.3740 C   0  0  0  0  0  3  0  0  0  0  0  0
  188.9230  175.6670  137.2460 C   0  0  0  0  0  0  0  0  0  0  0  0
  189.8910  178.2820  141.0560 C   0  0  1  0  0  3  0  0  0  0  0  0
  189.2680  177.2960  140.0740 C   0  0  1  0  0  3  0  0  0  0  0  0
  187.4950  178.0550  141.4630 O   0  0  0  0  0  1  0  0  0  0  0  0
  188.4600  178.4870  140.5470 C   0  0  1  0  0  3  0  0  0  0  0  0
  190.2660  176.6910  145.0430 C   0  0  0  0  0  3  0  0  0  0  0  0
  189.9440  178.5690  143.5470 C   0  0  0  0  0  3  0  0  0  0  0  0
  190.3290  175.8290  143.9440 C   0  0  0  0  0  3  0  0  0  0  0  0
  190.0770  178.0600  144.8460 C   0  0  0  0  0  3  0  0  0  0  0  0
  189.9830  177.7080  142.4440 C   0  0  0  0  0  0  0  0  0  0  0  0
  190.1950  176.3370  142.6470 C   0  0  0  0  0  3  0  0  0  0  0  0
  193.5560  175.1440  136.9670 C   0  0  0  0  0  0  0  0  0  0  0  0
  192.5130  174.9470  137.9290 N   0  0  0  0  0  2  0  0  0  0  0  0
  193.4560  176.0280  136.0720 O   0  0  0  0  0  0  0  0  0  0  0  0
  194.8910  173.7450  138.3060 O   0  0  0  0  0  0  0  0  0  0  0  0
  194.7940  174.3100  137.0740 C   0  0  2  0  0  3  0  0  0  0  0  0
  195.6740  174.8690  138.0770 N   0  0  2  0  0  0  0  0  0  0  0  0
  197.3450  172.9610  137.5020 C   0  0  0  0  0  1  0  0  0  0  0  0
  198.0460  175.2040  138.2480 O   0  0  0  0  0  0  0  0  0  0  0  0
  197.7240  175.3240  136.9010 N   0  0  0  0  0  2  0  0  0  0  0  0
  197.0380  174.4210  137.7850 C   0  0  2  0  0  0  0  0  0  0  0  0
  184.4700  176.8590  136.1830 C   0  0  0  0  0  0  0  0  0  0  0  0
  184.8850  177.1970  135.0810 O   0  0  0  0  0  0  0  0  0  0  0  0
  182.3960  177.8910  136.7180 O   0  0  0  0  0  1  0  0  0  0  0  0
  183.0020  176.6700  136.4170 C   0  0  2  0  0  3  0  0  0  0  0  0
  182.7200  175.6460  137.5110 C   0  0  0  0  0  2  0  0  0  0  0  0
  182.1410  176.2550  138.6290 O   0  0  0  0  0  1  0  0  0  0  0  0
  1  2  1  6  0  0  0
  3  5  2  0  0  0  0
  4  1  1  0  0  0  0
  4  6  1  1  0  0  0
  7 11  1  0  0  0  0
  7 13  2  0  0  0  0
  8  4  1  0  0  0  0
  9 34  1  6  0  0  0
  9  3  1  0  0  0  0
 10  2  1  0  0  0  0
 10  5  1  0  0  0  0
 11  9  1  0  0  0  0
 11 10  2  0  0  0  0
 12  8  2  0  0  0  0
 13 12  1  0  0  0  0
 13  2  1  0  0  0  0
 14 22  1  1  0  0  0
 15  1  1  6  0  0  0
 15 17  1  0  0  0  0
 15 14  1  0  0  0  0
 17 14  1  0  0  0  0
 17 16  1  1  0  0  0
 19 21  2  0  0  0  0
 20 18  2  0  0  0  0
 21 18  1  0  0  0  0
 22 23  2  0  0  0  0
 22 19  1  0  0  0  0
 23 20  1  0  0  0  0
 24 25  1  0  0  0  0
 25  8  1  0  0  0  0
 26 24  2  0  0  0  0
 28 24  1  1  0  0  0
 28 29  1  0  0  0  0
 28 27  1  0  0  0  0
 29 27  1  1  0  0  0
 32 33  1  0  0  0  0
 32 31  1  0  0  0  0
 33 30  1  6  0  0  0
 33 29  1  0  0  0  0
 33 31  1  0  0  0  0
 34 37  1  0  0  0  0
 35 34  2  0  0  0  0
 37 36  1  1  0  0  0
 37 38  1  0  0  0  0
 38 39  1  0  0  0  0
M  END
>  <MODEL>
2

>  <REMARK>
 VINA RESULT:      -7.2      3.187      9.754
  Name = 
  8 active torsions:
  status: ('A' for Active; 'I' for Inactive)
    1  A    between atoms: C_1  and  C_35
    2  A    between atoms: C_3  and  C_29
    3  A    between atoms: C_4  and  C_8
    4  A    between atoms: C_10  and  C_11
    5  A    between atoms: C_13  and  C_30
    6  A    between atoms: C_13  and  C_35
    7  A    between atoms: N_14  and  C_28
    8  A    between atoms: C_34  and  N_36
                            x       y       z     vdW  Elec       q    Type
                         _______ _______ _______ _____ _____    ______ ____

>  <TORSDO>
F 8

$$$$
=
 OpenBabel10222421223D

 39 45  0  0  1  0  0  0  0  0999 V2000
  190.7390  177.8080  140.1850 C   0  0  2  0  0  3  0  0  0  0  0  0
  189.5830  177.7660  139.2860 N   0  0  0  0  0  0  0  0  0  0  0  0
  186.5480  178.7120  140.6770 N   0  0  0  0  0  0  0  0  0  0  0  0
  191.9040  177.0830  139.5280 C   0  0  1  0  0  3  0  0  0  0  0  0
  187.7930  178.9630  140.6070 N   0  0  0  0  0  0  0  0  0  0  0  0
  193.5340  177.4630  140.0820 Cl  0  0  0  0  0  0  0  0  0  0  0  0
  187.9070  176.5350  138.0510 C   0  0  0  0  0  3  0  0  0  0  0  0
  191.7050  176.1310  138.5830 C   0  0  0  0  0  0  0  0  0  0  0  0
  186.1090  177.8750  139.5590 C   0  0  2  0  0  3  0  0  0  0  0  0
  188.3040  178.3650  139.4310 C   0  0  0  0  0  0  0  0  0  0  0  0
  187.3660  177.7360  138.7670 C   0  0  0  0  0  0  0  0  0  0  0  0
  190.3370  175.8520  138.0780 C   0  0  0  0  0  3  0  0  0  0  0  0
  189.3460  176.6610  138.4290 C   0  0  0  0  0  0  0  0  0  0  0  0
  191.0860  177.8350  142.6610 C   0  0  1  0  0  3  0  0  0  0  0  0
  190.3990  177.1180  141.5040 C   0  0  1  0  0  3  0  0  0  0  0  0
  188.7790  177.2850  143.2350 O   0  0  0  0  0  1  0  0  0  0  0  0
  189.5920  178.0460  142.3900 C   0  0  1  0  0  3  0  0  0  0  0  0
  192.0560  175.2140  145.9410 C   0  0  0  0  0  3  0  0  0  0  0  0
  191.4220  177.4000  145.1080 C   0  0  0  0  0  3  0  0  0  0  0  0
  192.0450  174.7150  144.6350 C   0  0  0  0  0  3  0  0  0  0  0  0
  191.7490  176.5560  146.1780 C   0  0  0  0  0  3  0  0  0  0  0  0
  191.3880  176.9000  143.8010 C   0  0  0  0  0  0  0  0  0  0  0  0
  191.7180  175.5580  143.5660 C   0  0  0  0  0  3  0  0  0  0  0  0
  193.5250  175.6600  136.8410 C   0  0  0  0  0  0  0  0  0  0  0  0
  192.8350  175.4070  138.0710 N   0  0  0  0  0  2  0  0  0  0  0  0
  193.2230  176.6500  136.1190 O   0  0  0  0  0  0  0  0  0  0  0  0
  195.1220  174.0780  137.5320 O   0  0  0  0  0  0  0  0  0  0  0  0
  194.6480  174.7510  136.4510 C   0  0  2  0  0  3  0  0  0  0  0  0
  195.8660  175.1710  137.1070 N   0  0  2  0  0  0  0  0  0  0  0  0
  197.0950  174.9250  134.8290 C   0  0  0  0  0  1  0  0  0  0  0  0
  197.6660  173.6060  136.8310 O   0  0  0  0  0  0  0  0  0  0  0  0
  198.2500  174.8550  137.0080 N   0  0  0  0  0  2  0  0  0  0  0  0
  196.9990  174.6730  136.3240 C   0  0  2  0  0  0  0  0  0  0  0  0
  185.0330  178.5720  138.7770 C   0  0  0  0  0  0  0  0  0  0  0  0
  184.9050  179.7880  138.8420 O   0  0  0  0  0  0  0  0  0  0  0  0
  184.6300  177.5750  136.6550 O   0  0  0  0  0  1  0  0  0  0  0  0
  184.1010  177.7540  137.9350 C   0  0  2  0  0  3  0  0  0  0  0  0
  182.7070  178.3660  137.8600 C   0  0  0  0  0  2  0  0  0  0  0  0
  181.9280  177.9670  138.9520 O   0  0  0  0  0  1  0  0  0  0  0  0
  1  2  1  6  0  0  0
  2 10  1  0  0  0  0
  4  6  1  1  0  0  0
  4  1  1  0  0  0  0
  5  3  2  0  0  0  0
  7 13  2  0  0  0  0
  7 11  1  0  0  0  0
  8  4  1  0  0  0  0
  9 34  1  6  0  0  0
  9  3  1  0  0  0  0
 10  5  1  0  0  0  0
 11 10  2  0  0  0  0
 11  9  1  0  0  0  0
 12 13  1  0  0  0  0
 12  8  2  0  0  0  0
 13  2  1  0  0  0  0
 14 22  1  1  0  0  0
 15  1  1  6  0  0  0
 15 17  1  0  0  0  0
 15 14  1  0  0  0  0
 17 14  1  0  0  0  0
 17 16  1  1  0  0  0
 18 21  1  0  0  0  0
 19 21  2  0  0  0  0
 20 18  2  0  0  0  0
 22 19  1  0  0  0  0
 23 22  2  0  0  0  0
 23 20  1  0  0  0  0
 24 25  1  0  0  0  0
 25  8  1  0  0  0  0
 26 24  2  0  0  0  0
 28 24  1  1  0  0  0
 28 29  1  0  0  0  0
 28 27  1  0  0  0  0
 29 27  1  1  0  0  0
 31 32  1  0  0  0  0
 33 30  1  6  0  0  0
 33 31  1  0  0  0  0
 33 32  1  0  0  0  0
 33 29  1  0  0  0  0
 34 35  2  0  0  0  0
 37 36  1  6  0  0  0
 37 34  1  0  0  0  0
 38 37  1  0  0  0  0
 38 39  1  0  0  0  0
M  END
>  <MODEL>
3

>  <REMARK>
 VINA RESULT:      -7.0      3.578     10.188
  Name = 
  8 active torsions:
  status: ('A' for Active; 'I' for Inactive)
    1  A    between atoms: C_1  and  C_35
    2  A    between atoms: C_3  and  C_29
    3  A    between atoms: C_4  and  C_8
    4  A    between atoms: C_10  and  C_11
    5  A    between atoms: C_13  and  C_30
    6  A    between atoms: C_13  and  C_35
    7  A    between atoms: N_14  and  C_28
    8  A    between atoms: C_34  and  N_36
                            x       y       z     vdW  Elec       q    Type
                         _______ _______ _______ _____ _____    ______ ____

>  <TORSDO>
F 8

$$$$
=
 OpenBabel10222421223D

 39 45  0  0  1  0  0  0  0  0999 V2000
  189.1030  178.0450  139.1520 C   0  0  2  0  0  3  0  0  0  0  0  0
  189.0260  178.2000  140.6050 N   0  0  0  0  0  0  0  0  0  0  0  0
  191.5780  176.7120  142.4250 N   0  0  0  0  0  0  0  0  0  0  0  0
  187.7790  178.4730  138.5360 C   0  0  1  0  0  3  0  0  0  0  0  0
  191.2860  177.3820  141.3840 N   0  0  0  0  0  0  0  0  0  0  0  0
  187.7680  178.9410  136.8370 Cl  0  0  0  0  0  0  0  0  0  0  0  0
  188.0410  177.6450  142.7440 C   0  0  0  0  0  3  0  0  0  0  0  0
  186.6250  178.4460  139.2470 C   0  0  0  0  0  0  0  0  0  0  0  0
  190.5110  176.7870  143.4250 C   0  0  2  0  0  3  0  0  0  0  0  0
  190.0290  178.0010  141.5890 C   0  0  0  0  0  0  0  0  0  0  0  0
  189.5390  177.7090  142.7690 C   0  0  0  0  0  0  0  0  0  0  0  0
  186.6440  178.1040  140.6930 C   0  0  0  0  0  3  0  0  0  0  0  0
  187.8130  178.0030  141.3130 C   0  0  0  0  0  0  0  0  0  0  0  0
  189.6140  176.4450  137.2980 C   0  0  1  0  0  3  0  0  0  0  0  0
  189.3710  176.5840  138.7970 C   0  0  1  0  0  3  0  0  0  0  0  0
  191.2290  175.1210  138.5600 O   0  0  0  0  0  1  0  0  0  0  0  0
  190.7880  176.4190  138.2830 C   0  0  1  0  0  3  0  0  0  0  0  0
  188.3910  172.6250  135.7240 C   0  0  0  0  0  3  0  0  0  0  0  0
  189.9160  174.5080  135.7350 C   0  0  0  0  0  3  0  0  0  0  0  0
  187.6580  173.2160  136.7580 C   0  0  0  0  0  3  0  0  0  0  0  0
  189.5170  173.2710  135.2110 C   0  0  0  0  0  3  0  0  0  0  0  0
  189.1990  175.0930  136.7850 C   0  0  0  0  0  0  0  0  0  0  0  0
  188.0560  174.4500  137.2820 C   0  0  0  0  0  3  0  0  0  0  0  0
  184.2100  179.3040  139.1960 C   0  0  0  0  0  0  0  0  0  0  0  0
  185.3890  178.7630  138.5870 N   0  0  0  0  0  2  0  0  0  0  0  0
  184.2040  179.6400  140.4120 O   0  0  0  0  0  0  0  0  0  0  0  0
  181.8900  179.6750  139.1160 O   0  0  0  0  0  0  0  0  0  0  0  0
  182.9960  179.5090  138.3460 C   0  0  2  0  0  3  0  0  0  0  0  0
  182.0670  178.4200  138.5510 N   0  0  2  0  0  0  0  0  0  0  0  0
  181.7940  178.1390  135.9800 C   0  0  0  0  0  1  0  0  0  0  0  0
  179.9770  178.8940  137.4660 O   0  0  0  0  0  0  0  0  0  0  0  0
  180.0470  177.5130  137.6060 N   0  0  0  0  0  2  0  0  0  0  0  0
  181.2070  178.3280  137.3680 C   0  0  2  0  0  0  0  0  0  0  0  0
  191.0390  177.3560  144.7100 C   0  0  0  0  0  0  0  0  0  0  0  0
  191.9640  178.1590  144.7010 O   0  0  0  0  0  0  0  0  0  0  0  0
  189.4960  177.8410  146.4540 O   0  0  0  0  0  1  0  0  0  0  0  0
  190.4340  176.9090  146.0060 C   0  0  2  0  0  3  0  0  0  0  0  0
  191.4900  176.6520  147.0760 C   0  0  0  0  0  2  0  0  0  0  0  0
  192.2690  175.5370  146.7500 O   0  0  0  0  0  1  0  0  0  0  0  0
  1  2  1  1  0  0  0
  2 13  1  0  0  0  0
  2 10  1  0  0  0  0
  3  9  1  0  0  0  0
  4  6  1  6  0  0  0
  4  1  1  0  0  0  0
  4  8  1  0  0  0  0
  5 10  1  0  0  0  0
  5  3  2  0  0  0  0
  7 11  1  0  0  0  0
  8 12  2  0  0  0  0
  9 34  1  1  0  0  0
 10 11  2  0  0  0  0
 11  9  1  0  0  0  0
 12 13  1  0  0  0  0
 13  7  2  0  0  0  0
 14 22  1  1  0  0  0
 14 17  1  0  0  0  0
 14 15  1  0  0  0  0
 15  1  1  6  0  0  0
 17 16  1  1  0  0  0
 17 15  1  0  0  0  0
 18 20  1  0  0  0  0
 19 22  2  0  0  0  0
 20 23  2  0  0  0  0
 21 18  2  0  0  0  0
 21 19  1  0  0  0  0
 22 23  1  0  0  0  0
 24 26  2  0  0  0  0
 25 24  1  0  0  0  0
 25  8  1  0  0  0  0
 28 29  1  0  0  0  0
 28 27  1  0  0  0  0
 28 24  1  1  0  0  0
 29 27  1  1  0  0  0
 31 32  1  0  0  0  0
 33 30  1  6  0  0  0
 33 31  1  0  0  0  0
 33 32  1  0  0  0  0
 33 29  1  0  0  0  0
 34 37  1  0  0  0  0
 35 34  2  0  0  0  0
 37 36  1  1  0  0  0
 37 38  1  0  0  0  0
 39 38  1  0  0  0  0
M  END
>  <MODEL>
4

>  <REMARK>
 VINA RESULT:      -7.0      3.905      5.594
  Name = 
  8 active torsions:
  status: ('A' for Active; 'I' for Inactive)
    1  A    between atoms: C_1  and  C_35
    2  A    between atoms: C_3  and  C_29
    3  A    between atoms: C_4  and  C_8
    4  A    between atoms: C_10  and  C_11
    5  A    between atoms: C_13  and  C_30
    6  A    between atoms: C_13  and  C_35
    7  A    between atoms: N_14  and  C_28
    8  A    between atoms: C_34  and  N_36
                            x       y       z     vdW  Elec       q    Type
                         _______ _______ _______ _____ _____    ______ ____

>  <TORSDO>
F 8

$$$$
=
 OpenBabel10222421223D

 39 45  0  0  1  0  0  0  0  0999 V2000
  188.8370  177.0590  137.1350 C   0  0  2  0  0  3  0  0  0  0  0  0
  190.2840  176.9300  137.3180 N   0  0  0  0  0  0  0  0  0  0  0  0
  191.9530  175.0590  134.9200 N   0  0  0  0  0  0  0  0  0  0  0  0
  188.2250  177.6280  138.4060 C   0  0  1  0  0  3  0  0  0  0  0  0
  191.0460  175.9260  135.1280 N   0  0  0  0  0  0  0  0  0  0  0  0
  186.6540  178.4190  138.2870 Cl  0  0  0  0  0  0  0  0  0  0  0  0
  192.1970  175.9900  138.4630 C   0  0  0  0  0  3  0  0  0  0  0  0
  188.8330  177.4880  139.6100 C   0  0  0  0  0  0  0  0  0  0  0  0
  192.8700  174.9610  136.0570 C   0  0  2  0  0  3  0  0  0  0  0  0
  191.2780  176.5200  136.3920 C   0  0  0  0  0  0  0  0  0  0  0  0
  192.3400  176.0150  136.9710 C   0  0  0  0  0  0  0  0  0  0  0  0
  190.1810  176.8710  139.7010 C   0  0  0  0  0  3  0  0  0  0  0  0
  190.8500  176.6250  138.5820 C   0  0  0  0  0  0  0  0  0  0  0  0
  186.8680  175.8540  136.1720 C   0  0  1  0  0  3  0  0  0  0  0  0
  188.2230  175.6900  136.8520 C   0  0  1  0  0  3  0  0  0  0  0  0
  188.1670  174.0920  135.0940 O   0  0  0  0  0  1  0  0  0  0  0  0
  188.1070  175.4640  135.3580 C   0  0  1  0  0  3  0  0  0  0  0  0
  184.1270  172.6620  137.1010 C   0  0  0  0  0  3  0  0  0  0  0  0
  184.8030  174.5150  135.6930 C   0  0  0  0  0  3  0  0  0  0  0  0
  185.2500  172.8690  137.9080 C   0  0  0  0  0  3  0  0  0  0  0  0
  183.9010  173.4860  135.9970 C   0  0  0  0  0  3  0  0  0  0  0  0
  185.9410  174.7110  136.4840 C   0  0  0  0  0  0  0  0  0  0  0  0
  186.1510  173.8950  137.6050 C   0  0  0  0  0  3  0  0  0  0  0  0
  188.2950  177.4240  142.1150 C   0  0  0  0  0  0  0  0  0  0  0  0
  188.1620  177.9550  140.7910 N   0  0  0  0  0  2  0  0  0  0  0  0
  189.1260  176.5100  142.3670 O   0  0  0  0  0  0  0  0  0  0  0  0
  187.1950  177.0860  144.1660 O   0  0  0  0  0  0  0  0  0  0  0  0
  187.4610  178.0130  143.2090 C   0  0  2  0  0  3  0  0  0  0  0  0
  186.1780  177.3470  143.2570 N   0  0  2  0  0  0  0  0  0  0  0  0
  185.3310  178.6110  145.3660 C   0  0  0  0  0  1  0  0  0  0  0  0
  184.0010  178.3590  143.3050 O   0  0  0  0  0  0  0  0  0  0  0  0
  184.9090  179.3830  143.0600 N   0  0  0  0  0  2  0  0  0  0  0  0
  185.2190  178.2530  143.8940 C   0  0  2  0  0  0  0  0  0  0  0  0
  194.2760  175.2570  135.6220 C   0  0  0  0  0  0  0  0  0  0  0  0
  194.4890  175.8910  134.5950 O   0  0  0  0  0  0  0  0  0  0  0  0
  195.4280  175.3640  137.6990 O   0  0  0  0  0  1  0  0  0  0  0  0
  195.4160  174.7440  136.4490 C   0  0  2  0  0  3  0  0  0  0  0  0
  196.7590  174.9200  135.7480 C   0  0  0  0  0  2  0  0  0  0  0  0
  197.6520  175.6360  136.5520 O   0  0  0  0  0  1  0  0  0  0  0  0
  1  2  1  1  0  0  0
  1  4  1  0  0  0  0
  2 13  1  0  0  0  0
  3  5  2  0  0  0  0
  3  9  1  0  0  0  0
  4  6  1  1  0  0  0
  4  8  1  0  0  0  0
  5 10  1  0  0  0  0
  7 13  2  0  0  0  0
  8 12  2  0  0  0  0
  8 25  1  0  0  0  0
  9 34  1  6  0  0  0
  9 11  1  0  0  0  0
 10 11  2  0  0  0  0
 10  2  1  0  0  0  0
 11  7  1  0  0  0  0
 13 12  1  0  0  0  0
 14 22  1  1  0  0  0
 14 15  1  0  0  0  0
 15  1  1  6  0  0  0
 17 16  1  1  0  0  0
 17 14  1  0  0  0  0
 17 15  1  0  0  0  0
 18 20  1  0  0  0  0
 19 21  1  0  0  0  0
 19 22  2  0  0  0  0
 21 18  2  0  0  0  0
 22 23  1  0  0  0  0
 23 20  2  0  0  0  0
 24 26  2  0  0  0  0
 25 24  1  0  0  0  0
 28 24  1  6  0  0  0
 28 29  1  0  0  0  0
 28 27  1  0  0  0  0
 29 33  1  0  0  0  0
 29 27  1  1  0  0  0
 31 33  1  0  0  0  0
 32 31  1  0  0  0  0
 32 33  1  0  0  0  0
 33 30  1  1  0  0  0
 34 37  1  0  0  0  0
 35 34  2  0  0  0  0
 37 36  1  1  0  0  0
 38 37  1  0  0  0  0
 38 39  1  0  0  0  0
M  END
>  <MODEL>
5

>  <REMARK>
 VINA RESULT:      -6.9      1.399      1.639
  Name = 
  8 active torsions:
  status: ('A' for Active; 'I' for Inactive)
    1  A    between atoms: C_1  and  C_35
    2  A    between atoms: C_3  and  C_29
    3  A    between atoms: C_4  and  C_8
    4  A    between atoms: C_10  and  C_11
    5  A    between atoms: C_13  and  C_30
    6  A    between atoms: C_13  and  C_35
    7  A    between atoms: N_14  and  C_28
    8  A    between atoms: C_34  and  N_36
                            x       y       z     vdW  Elec       q    Type
                         _______ _______ _______ _____ _____    ______ ____

>  <TORSDO>
F 8

$$$$
=
 OpenBabel10222421223D

 39 45  0  0  1  0  0  0  0  0999 V2000
  189.2980  177.1170  137.4640 C   0  0  2  0  0  3  0  0  0  0  0  0
  190.7510  176.9540  137.5400 N   0  0  0  0  0  0  0  0  0  0  0  0
  192.2780  175.6470  134.7110 N   0  0  0  0  0  0  0  0  0  0  0  0
  188.7560  177.3980  138.8580 C   0  0  1  0  0  3  0  0  0  0  0  0
  191.3910  176.4470  135.1490 N   0  0  0  0  0  0  0  0  0  0  0  0
  187.1900  178.1940  138.9930 Cl  0  0  0  0  0  0  0  0  0  0  0  0
  192.7100  175.7910  138.3550 C   0  0  0  0  0  3  0  0  0  0  0  0
  189.4230  177.0020  139.9700 C   0  0  0  0  0  0  0  0  0  0  0  0
  193.2500  175.3070  135.7520 C   0  0  2  0  0  3  0  0  0  0  0  0
  191.6930  176.7550  136.4970 C   0  0  0  0  0  0  0  0  0  0  0  0
  192.7780  176.1380  136.8980 C   0  0  0  0  0  0  0  0  0  0  0  0
  190.7680  176.3820  139.8560 C   0  0  0  0  0  3  0  0  0  0  0  0
  191.3780  176.3840  138.6770 C   0  0  0  0  0  0  0  0  0  0  0  0
  187.2020  176.1030  136.5510 C   0  0  1  0  0  3  0  0  0  0  0  0
  188.6560  175.8410  136.9250 C   0  0  1  0  0  3  0  0  0  0  0  0
  188.3070  174.7700  134.8320 O   0  0  0  0  0  1  0  0  0  0  0  0
  188.2810  176.0160  135.4660 C   0  0  1  0  0  3  0  0  0  0  0  0
  184.7050  172.6240  137.0280 C   0  0  0  0  0  3  0  0  0  0  0  0
  185.0450  174.8730  136.1940 C   0  0  0  0  0  3  0  0  0  0  0  0
  186.0050  172.6210  137.5440 C   0  0  0  0  0  3  0  0  0  0  0  0
  184.2240  173.7490  136.3560 C   0  0  0  0  0  3  0  0  0  0  0  0
  186.3550  174.8670  136.6890 C   0  0  0  0  0  0  0  0  0  0  0  0
  186.8250  173.7430  137.3820 C   0  0  0  0  0  3  0  0  0  0  0  0
  189.1040  176.4750  142.4580 C   0  0  0  0  0  0  0  0  0  0  0  0
  188.8180  177.2020  141.2570 N   0  0  0  0  0  2  0  0  0  0  0  0
  190.0250  175.6130  142.4910 O   0  0  0  0  0  0  0  0  0  0  0  0
  187.9480  178.1000  143.7030 O   0  0  0  0  0  0  0  0  0  0  0  0
  188.3190  176.7930  143.6910 C   0  0  2  0  0  3  0  0  0  0  0  0
  189.0380  177.7590  144.4920 N   0  0  2  0  0  0  0  0  0  0  0  0
  187.1010  177.4970  146.2060 C   0  0  0  0  0  1  0  0  0  0  0  0
  189.3990  178.1280  146.8380 O   0  0  0  0  0  0  0  0  0  0  0  0
  189.4110  176.7510  146.6460 N   0  0  0  0  0  2  0  0  0  0  0  0
  188.5770  177.6340  145.8770 C   0  0  2  0  0  0  0  0  0  0  0  0
  194.6350  175.6920  135.3180 C   0  0  0  0  0  0  0  0  0  0  0  0
  194.8400  176.7710  134.7760 O   0  0  0  0  0  0  0  0  0  0  0  0
  195.6230  174.0900  136.7720 O   0  0  0  0  0  1  0  0  0  0  0  0
  195.7600  174.7260  135.5370 C   0  0  2  0  0  3  0  0  0  0  0  0
  197.1240  175.3980  135.4260 C   0  0  0  0  0  2  0  0  0  0  0  0
  197.6220  175.7280  136.6910 O   0  0  0  0  0  1  0  0  0  0  0  0
  1  2  1  1  0  0  0
  1  4  1  0  0  0  0
  2 13  1  0  0  0  0
  3  5  2  0  0  0  0
  3  9  1  0  0  0  0
  4  6  1  6  0  0  0
  4  8  1  0  0  0  0
  5 10  1  0  0  0  0
  7 13  2  0  0  0  0
  8 25  1  0  0  0  0
  9 34  1  6  0  0  0
  9 11  1  0  0  0  0
 10 11  2  0  0  0  0
 10  2  1  0  0  0  0
 11  7  1  0  0  0  0
 12  8  2  0  0  0  0
 13 12  1  0  0  0  0
 14 22  1  6  0  0  0
 14 15  1  0  0  0  0
 15  1  1  1  0  0  0
 17 16  1  6  0  0  0
 17 14  1  0  0  0  0
 17 15  1  0  0  0  0
 18 20  1  0  0  0  0
 19 21  1  0  0  0  0
 19 22  2  0  0  0  0
 21 18  2  0  0  0  0
 22 23  1  0  0  0  0
 23 20  2  0  0  0  0
 24 26  2  0  0  0  0
 25 24  1  0  0  0  0
 28 24  1  6  0  0  0
 28 27  1  0  0  0  0
 28 29  1  0  0  0  0
 29 27  1  6  0  0  0
 29 33  1  0  0  0  0
 32 31  1  0  0  0  0
 33 30  1  1  0  0  0
 33 32  1  0  0  0  0
 33 31  1  0  0  0  0
 34 37  1  0  0  0  0
 35 34  2  0  0  0  0
 37 36  1  1  0  0  0
 38 37  1  0  0  0  0
 38 39  1  0  0  0  0
M  END
>  <MODEL>
6

>  <REMARK>
 VINA RESULT:      -6.8      2.572      2.953
  Name = 
  8 active torsions:
  status: ('A' for Active; 'I' for Inactive)
    1  A    between atoms: C_1  and  C_35
    2  A    between atoms: C_3  and  C_29
    3  A    between atoms: C_4  and  C_8
    4  A    between atoms: C_10  and  C_11
    5  A    between atoms: C_13  and  C_30
    6  A    between atoms: C_13  and  C_35
    7  A    between atoms: N_14  and  C_28
    8  A    between atoms: C_34  and  N_36
                            x       y       z     vdW  Elec       q    Type
                         _______ _______ _______ _____ _____    ______ ____

>  <TORSDO>
F 8

$$$$
=
 OpenBabel10222421223D

 39 45  0  0  1  0  0  0  0  0999 V2000
  182.0210  177.9450  137.7210 C   0  0  2  0  0  3  0  0  0  0  0  0
  181.4270  179.2830  137.7250 N   0  0  0  0  0  0  0  0  0  0  0  0
  181.0330  180.7740  134.6180 N   0  0  0  0  0  0  0  0  0  0  0  0
  182.4060  177.5680  139.1440 C   0  0  1  0  0  3  0  0  0  0  0  0
  180.9370  179.6940  135.2810 N   0  0  0  0  0  0  0  0  0  0  0  0
  182.5900  175.8570  139.5280 Cl  0  0  0  0  0  0  0  0  0  0  0  0
  181.5710  181.6620  138.1400 C   0  0  0  0  0  3  0  0  0  0  0  0
  182.6560  178.5120  140.0840 C   0  0  0  0  0  0  0  0  0  0  0  0
  181.0640  181.9420  135.5010 C   0  0  2  0  0  3  0  0  0  0  0  0
  180.8540  180.0190  136.6560 C   0  0  0  0  0  0  0  0  0  0  0  0
  180.8990  181.3150  136.8450 C   0  0  0  0  0  0  0  0  0  0  0  0
  182.4470  179.9500  139.7760 C   0  0  0  0  0  3  0  0  0  0  0  0
  181.8470  180.2820  138.6400 C   0  0  0  0  0  0  0  0  0  0  0  0
  183.9660  176.5790  136.9430 C   0  0  1  0  0  3  0  0  0  0  0  0
  183.2710  177.9320  136.8450 C   0  0  1  0  0  3  0  0  0  0  0  0
  183.8850  177.3400  134.6260 O   0  0  0  0  0  1  0  0  0  0  0  0
  183.1140  176.9300  135.7180 C   0  0  1  0  0  3  0  0  0  0  0  0
  188.2350  176.8370  136.4160 C   0  0  0  0  0  3  0  0  0  0  0  0
  186.1800  175.5550  136.3580 C   0  0  0  0  0  3  0  0  0  0  0  0
  187.5140  177.9710  136.8030 C   0  0  0  0  0  3  0  0  0  0  0  0
  187.5700  175.6290  136.1960 C   0  0  0  0  0  3  0  0  0  0  0  0
  185.4510  176.6930  136.7240 C   0  0  0  0  0  0  0  0  0  0  0  0
  186.1260  177.8970  136.9640 C   0  0  0  0  0  3  0  0  0  0  0  0
  184.1880  178.6840  142.1320 C   0  0  0  0  0  0  0  0  0  0  0  0
  183.1140  178.1030  141.3830 N   0  0  0  0  0  2  0  0  0  0  0  0
  184.7870  179.7130  141.7160 O   0  0  0  0  0  0  0  0  0  0  0  0
  183.6500  178.4100  144.4050 O   0  0  0  0  0  0  0  0  0  0  0  0
  184.5540  178.0730  143.4480 C   0  0  2  0  0  3  0  0  0  0  0  0
  184.8450  179.1160  144.4070 N   0  0  2  0  0  0  0  0  0  0  0  0
  187.0960  178.0270  145.1210 C   0  0  0  0  0  1  0  0  0  0  0  0
  185.0860  178.0590  146.5490 O   0  0  0  0  0  0  0  0  0  0  0  0
  185.6640  179.3190  146.6610 N   0  0  0  0  0  2  0  0  0  0  0  0
  185.7070  178.5500  145.4470 C   0  0  2  0  0  0  0  0  0  0  0  0
  179.9300  182.8710  135.1770 C   0  0  0  0  0  0  0  0  0  0  0  0
  178.9320  182.4580  134.5970 O   0  0  0  0  0  0  0  0  0  0  0  0
  181.3870  184.6840  135.6740 O   0  0  0  0  0  1  0  0  0  0  0  0
  180.0450  184.3180  135.5530 C   0  0  2  0  0  3  0  0  0  0  0  0
  179.2810  184.6430  136.8320 C   0  0  0  0  0  2  0  0  0  0  0  0
  179.7090  185.8590  137.3740 O   0  0  0  0  0  1  0  0  0  0  0  0
  1  2  1  1  0  0  0
  1  4  1  0  0  0  0
  2 13  1  0  0  0  0
  3  5  2  0  0  0  0
  3  9  1  0  0  0  0
  4  6  1  6  0  0  0
  4  8  1  0  0  0  0
  5 10  1  0  0  0  0
  7 13  2  0  0  0  0
  8 25  1  0  0  0  0
  9 34  1  6  0  0  0
  9 11  1  0  0  0  0
 10 11  2  0  0  0  0
 10  2  1  0  0  0  0
 11  7  1  0  0  0  0
 12  8  2  0  0  0  0
 13 12  1  0  0  0  0
 14 22  1  6  0  0  0
 15 14  1  0  0  0  0
 15  1  1  1  0  0  0
 17 16  1  6  0  0  0
 17 15  1  0  0  0  0
 17 14  1  0  0  0  0
 18 20  1  0  0  0  0
 19 22  2  0  0  0  0
 20 23  2  0  0  0  0
 21 19  1  0  0  0  0
 21 18  2  0  0  0  0
 22 23  1  0  0  0  0
 25 24  1  0  0  0  0
 26 24  2  0  0  0  0
 28 24  1  6  0  0  0
 28 27  1  0  0  0  0
 28 29  1  0  0  0  0
 29 27  1  1  0  0  0
 29 33  1  0  0  0  0
 31 32  1  0  0  0  0
 33 30  1  6  0  0  0
 33 31  1  0  0  0  0
 33 32  1  0  0  0  0
 34 37  1  0  0  0  0
 35 34  2  0  0  0  0
 37 36  1  1  0  0  0
 37 38  1  0  0  0  0
 38 39  1  0  0  0  0
M  END
>  <MODEL>
7

>  <REMARK>
 VINA RESULT:      -6.7      5.434      9.484
  Name = 
  8 active torsions:
  status: ('A' for Active; 'I' for Inactive)
    1  A    between atoms: C_1  and  C_35
    2  A    between atoms: C_3  and  C_29
    3  A    between atoms: C_4  and  C_8
    4  A    between atoms: C_10  and  C_11
    5  A    between atoms: C_13  and  C_30
    6  A    between atoms: C_13  and  C_35
    7  A    between atoms: N_14  and  C_28
    8  A    between atoms: C_34  and  N_36
                            x       y       z     vdW  Elec       q    Type
                         _______ _______ _______ _____ _____    ______ ____

>  <TORSDO>
F 8

$$$$
=
 OpenBabel10222421223D

 39 45  0  0  1  0  0  0  0  0999 V2000
  187.5340  177.5860  137.7930 C   0  0  2  0  0  3  0  0  0  0  0  0
  188.0060  178.0270  139.1080 N   0  0  0  0  0  0  0  0  0  0  0  0
  190.7980  176.3790  140.3440 N   0  0  0  0  0  0  0  0  0  0  0  0
  186.1540  178.1740  137.5390 C   0  0  1  0  0  3  0  0  0  0  0  0
  190.2530  176.8890  139.3150 N   0  0  0  0  0  0  0  0  0  0  0  0
  185.6040  178.3040  135.8700 Cl  0  0  0  0  0  0  0  0  0  0  0  0
  187.7840  178.1180  141.5150 C   0  0  0  0  0  3  0  0  0  0  0  0
  185.3400  178.5390  138.5600 C   0  0  0  0  0  0  0  0  0  0  0  0
  190.1830  176.8760  141.5760 C   0  0  2  0  0  3  0  0  0  0  0  0
  189.2560  177.7980  139.7420 C   0  0  0  0  0  0  0  0  0  0  0  0
  189.1840  177.8510  141.0490 C   0  0  0  0  0  0  0  0  0  0  0  0
  185.8260  178.4810  139.9630 C   0  0  0  0  0  3  0  0  0  0  0  0
  187.1120  178.2410  140.1870 C   0  0  0  0  0  0  0  0  0  0  0  0
  186.9720  175.6000  136.3810 C   0  0  1  0  0  3  0  0  0  0  0  0
  187.4450  176.0630  137.7550 C   0  0  1  0  0  3  0  0  0  0  0  0
  188.8170  174.2120  137.1710 O   0  0  0  0  0  1  0  0  0  0  0  0
  188.4510  175.5010  136.7710 C   0  0  1  0  0  3  0  0  0  0  0  0
  184.7330  171.9210  136.5120 C   0  0  0  0  0  3  0  0  0  0  0  0
  186.1870  173.4610  135.3350 C   0  0  0  0  0  3  0  0  0  0  0  0
  184.7430  172.7680  137.6260 C   0  0  0  0  0  3  0  0  0  0  0  0
  185.4520  172.2690  135.3660 C   0  0  0  0  0  3  0  0  0  0  0  0
  186.2190  174.3000  136.4540 C   0  0  0  0  0  0  0  0  0  0  0  0
  185.4780  173.9570  137.5940 C   0  0  0  0  0  3  0  0  0  0  0  0
  182.8360  178.1790  138.1470 C   0  0  0  0  0  0  0  0  0  0  0  0
  184.0090  178.9930  138.2660 N   0  0  0  0  0  2  0  0  0  0  0  0
  182.8770  176.9420  138.3900 O   0  0  0  0  0  0  0  0  0  0  0  0
  180.7810  178.0060  137.0180 O   0  0  0  0  0  0  0  0  0  0  0  0
  181.5450  178.8370  137.7740 C   0  0  2  0  0  3  0  0  0  0  0  0
  181.4760  178.9970  136.3380 N   0  0  2  0  0  0  0  0  0  0  0  0
  180.7640  181.4840  136.6070 C   0  0  0  0  0  1  0  0  0  0  0  0
  179.2780  179.7330  135.7090 O   0  0  0  0  0  0  0  0  0  0  0  0
  180.1290  180.0920  134.6710 N   0  0  0  0  0  2  0  0  0  0  0  0
  180.5440  180.0890  136.0480 C   0  0  2  0  0  0  0  0  0  0  0  0
  191.2120  177.5460  142.4400 C   0  0  0  0  0  0  0  0  0  0  0  0
  192.4020  177.4760  142.1590 O   0  0  0  0  0  0  0  0  0  0  0  0
  191.6890  179.2700  144.0080 O   0  0  0  0  0  1  0  0  0  0  0  0
  190.7630  178.2820  143.6670 C   0  0  2  0  0  3  0  0  0  0  0  0
  190.5200  177.3440  144.8430 C   0  0  0  0  0  2  0  0  0  0  0  0
  191.7290  176.9240  145.4070 O   0  0  0  0  0  1  0  0  0  0  0  0
  1  2  1  1  0  0  0
  2 10  1  0  0  0  0
  2 13  1  0  0  0  0
  3  9  1  0  0  0  0
  4  6  1  1  0  0  0
  4  1  1  0  0  0  0
  4  8  1  0  0  0  0
  5 10  1  0  0  0  0
  5  3  2  0  0  0  0
  8 12  2  0  0  0  0
  9 34  1  1  0  0  0
 10 11  2  0  0  0  0
 11  7  1  0  0  0  0
 11  9  1  0  0  0  0
 12 13  1  0  0  0  0
 13  7  2  0  0  0  0
 14 22  1  1  0  0  0
 14 17  1  0  0  0  0
 14 15  1  0  0  0  0
 15  1  1  6  0  0  0
 17 16  1  1  0  0  0
 17 15  1  0  0  0  0
 18 20  1  0  0  0  0
 19 21  1  0  0  0  0
 19 22  2  0  0  0  0
 21 18  2  0  0  0  0
 22 23  1  0  0  0  0
 23 20  2  0  0  0  0
 24 25  1  0  0  0  0
 24 26  2  0  0  0  0
 25  8  1  0  0  0  0
 27 28  1  0  0  0  0
 28 24  1  6  0  0  0
 29 27  1  6  0  0  0
 29 28  1  0  0  0  0
 31 33  1  0  0  0  0
 32 31  1  0  0  0  0
 32 33  1  0  0  0  0
 33 29  1  0  0  0  0
 33 30  1  1  0  0  0
 34 37  1  0  0  0  0
 35 34  2  0  0  0  0
 37 36  1  1  0  0  0
 37 38  1  0  0  0  0
 38 39  1  0  0  0  0
M  END
>  <MODEL>
8

>  <REMARK>
 VINA RESULT:      -6.6      3.882      5.172
  Name = 
  8 active torsions:
  status: ('A' for Active; 'I' for Inactive)
    1  A    between atoms: C_1  and  C_35
    2  A    between atoms: C_3  and  C_29
    3  A    between atoms: C_4  and  C_8
    4  A    between atoms: C_10  and  C_11
    5  A    between atoms: C_13  and  C_30
    6  A    between atoms: C_13  and  C_35
    7  A    between atoms: N_14  and  C_28
    8  A    between atoms: C_34  and  N_36
                            x       y       z     vdW  Elec       q    Type
                         _______ _______ _______ _____ _____    ______ ____

>  <TORSDO>
F 8

$$$$
=
 OpenBabel10222421223D

 39 45  0  0  1  0  0  0  0  0999 V2000
  187.1300  178.4400  138.9100 C   0  0  2  0  0  3  0  0  0  0  0  0
  185.8890  177.9360  138.3180 N   0  0  0  0  0  0  0  0  0  0  0  0
  183.0680  178.1220  140.3280 N   0  0  0  0  0  0  0  0  0  0  0  0
  188.3040  178.0100  138.0420 C   0  0  1  0  0  3  0  0  0  0  0  0
  184.1240  178.7190  139.9470 N   0  0  0  0  0  0  0  0  0  0  0  0
  189.8050  178.9270  138.1660 Cl  0  0  0  0  0  0  0  0  0  0  0  0
  184.4770  176.1080  137.5990 C   0  0  0  0  0  3  0  0  0  0  0  0
  188.2290  176.9230  137.2360 C   0  0  0  0  0  0  0  0  0  0  0  0
  182.6970  177.0490  139.4020 C   0  0  2  0  0  3  0  0  0  0  0  0
  184.5460  178.1440  138.7240 C   0  0  0  0  0  0  0  0  0  0  0  0
  183.7410  177.1820  138.3440 C   0  0  0  0  0  0  0  0  0  0  0  0
  186.9480  176.1850  137.0910 C   0  0  0  0  0  3  0  0  0  0  0  0
  185.8460  176.7050  137.6150 C   0  0  0  0  0  0  0  0  0  0  0  0
  188.3300  178.6910  141.0900 C   0  0  1  0  0  3  0  0  0  0  0  0
  187.3080  177.8670  140.3140 C   0  0  1  0  0  3  0  0  0  0  0  0
  186.4000  178.1680  142.4890 O   0  0  0  0  0  1  0  0  0  0  0  0
  186.8290  178.8610  141.3520 C   0  0  1  0  0  3  0  0  0  0  0  0
  190.5070  176.3790  144.0030 C   0  0  0  0  0  3  0  0  0  0  0  0
  189.5680  178.4860  143.2610 C   0  0  0  0  0  3  0  0  0  0  0  0
  190.0130  175.7570  142.8520 C   0  0  0  0  0  3  0  0  0  0  0  0
  190.2870  177.7430  144.2070 C   0  0  0  0  0  3  0  0  0  0  0  0
  189.0530  177.8640  142.1180 C   0  0  0  0  0  0  0  0  0  0  0  0
  189.2950  176.4990  141.9080 C   0  0  0  0  0  3  0  0  0  0  0  0
  190.3410  175.5040  136.9260 C   0  0  0  0  0  0  0  0  0  0  0  0
  189.4000  176.5030  136.5170 N   0  0  0  0  0  2  0  0  0  0  0  0
  190.1510  174.8210  137.9690 O   0  0  0  0  0  0  0  0  0  0  0  0
  192.0510  174.0160  136.2990 O   0  0  0  0  0  0  0  0  0  0  0  0
  191.5360  175.2510  136.0620 C   0  0  2  0  0  3  0  0  0  0  0  0
  192.7110  175.0860  136.8880 N   0  0  2  0  0  0  0  0  0  0  0  0
  193.9860  174.9520  134.6260 C   0  0  0  0  0  1  0  0  0  0  0  0
  195.0430  175.6420  136.7440 O   0  0  0  0  0  0  0  0  0  0  0  0
  194.3420  176.7480  136.2790 N   0  0  0  0  0  2  0  0  0  0  0  0
  193.8870  175.4000  136.0740 C   0  0  2  0  0  0  0  0  0  0  0  0
  181.3180  177.2830  138.8560 C   0  0  0  0  0  0  0  0  0  0  0  0
  181.1400  178.0610  137.9270 O   0  0  0  0  0  0  0  0  0  0  0  0
  179.3020  176.0750  138.4960 O   0  0  0  0  0  1  0  0  0  0  0  0
  180.1580  176.5680  139.4820 C   0  0  2  0  0  3  0  0  0  0  0  0
  179.3970  177.4550  140.4610 C   0  0  0  0  0  2  0  0  0  0  0  0
  179.3100  176.8490  141.7190 O   0  0  0  0  0  1  0  0  0  0  0  0
  1  2  1  6  0  0  0
  2 10  1  0  0  0  0
  4  6  1  1  0  0  0
  4  1  1  0  0  0  0
  5  3  2  0  0  0  0
  7 13  2  0  0  0  0
  7 11  1  0  0  0  0
  8  4  1  0  0  0  0
  9 34  1  6  0  0  0
  9  3  1  0  0  0  0
 10  5  1  0  0  0  0
 11 10  2  0  0  0  0
 11  9  1  0  0  0  0
 12  8  2  0  0  0  0
 12 13  1  0  0  0  0
 13  2  1  0  0  0  0
 14 17  1  0  0  0  0
 14 22  1  1  0  0  0
 15  1  1  6  0  0  0
 15 14  1  0  0  0  0
 15 17  1  0  0  0  0
 17 16  1  1  0  0  0
 18 21  1  0  0  0  0
 19 21  2  0  0  0  0
 20 18  2  0  0  0  0
 22 19  1  0  0  0  0
 23 22  2  0  0  0  0
 23 20  1  0  0  0  0
 24 26  2  0  0  0  0
 25 24  1  0  0  0  0
 25  8  1  0  0  0  0
 28 27  1  0  0  0  0
 28 29  1  0  0  0  0
 28 24  1  1  0  0  0
 29 27  1  6  0  0  0
 32 31  1  0  0  0  0
 33 30  1  6  0  0  0
 33 32  1  0  0  0  0
 33 31  1  0  0  0  0
 33 29  1  0  0  0  0
 34 37  1  0  0  0  0
 35 34  2  0  0  0  0
 37 36  1  6  0  0  0
 37 38  1  0  0  0  0
 38 39  1  0  0  0  0
M  END
>  <MODEL>
9

>  <REMARK>
 VINA RESULT:      -6.3      3.137     10.015
  Name = 
  8 active torsions:
  status: ('A' for Active; 'I' for Inactive)
    1  A    between atoms: C_1  and  C_35
    2  A    between atoms: C_3  and  C_29
    3  A    between atoms: C_4  and  C_8
    4  A    between atoms: C_10  and  C_11
    5  A    between atoms: C_13  and  C_30
    6  A    between atoms: C_13  and  C_35
    7  A    between atoms: N_14  and  C_28
    8  A    between atoms: C_34  and  N_36
                            x       y       z     vdW  Elec       q    Type
                         _______ _______ _______ _____ _____    ______ ____

>  <TORSDO>
F 8

$$$$
