=
 OpenBabel10222417503D

 53 57  0  0  1  0  0  0  0  0999 V2000
  186.6850  177.7980  144.3860 C   0  0  0  0  0  0  0  0  0  0  0  0
  186.8330  178.6550  138.2880 C   0  0  0  0  0  2  0  0  0  0  0  0
  187.6110  177.5000  145.3790 C   0  0  0  0  0  3  0  0  0  0  0  0
  188.9730  177.3850  145.0900 C   0  0  0  0  0  0  0  0  0  0  0  0
  188.2210  178.3820  138.8960 C   0  0  1  0  0  3  0  0  0  0  0  0
  184.4880  178.8030  139.2740 C   0  0  0  0  0  0  0  0  0  0  0  0
  188.8900  178.0170  141.3720 N   0  0  0  0  0  0  0  0  0  0  0  0
  189.8730  177.0930  146.1250 C   0  0  0  0  0  0  0  0  0  0  0  0
  188.4870  177.8580  142.7400 C   0  0  0  0  0  0  0  0  0  0  0  0
  185.2480  177.9210  144.7730 C   0  0  0  0  0  1  0  0  0  0  0  0
  187.9250  178.2580  140.3520 C   0  0  0  0  0  0  0  0  0  0  0  0
  187.1100  177.9810  143.0630 C   0  0  0  0  0  0  0  0  0  0  0  0
  185.9070  178.6300  139.4170 N   0  0  0  0  0  0  0  0  0  0  0  0
  186.0870  178.3460  142.0030 C   0  0  0  0  0  3  0  0  0  0  0  0
  186.6470  178.3930  140.6090 C   0  0  0  0  0  0  0  0  0  0  0  0
  189.4370  177.5650  143.7590 C   0  0  0  0  0  0  0  0  0  0  0  0
  190.8360  177.4420  143.5260 C   0  0  0  0  0  0  0  0  0  0  0  0
  183.9900  178.9640  138.1290 O   0  0  0  0  0  0  0  0  0  0  0  0
  191.2340  176.9880  145.8280 C   0  0  0  0  0  3  0  0  0  0  0  0
  191.6750  177.1630  144.5590 N   0  0  0  0  0  0  0  0  0  0  0  0
  191.4640  177.6140  142.1820 C   0  0  0  0  0  1  0  0  0  0  0  0
  190.6910  175.6120  138.0260 C   0  0  0  0  0  3  0  0  0  0  0  0
  188.0060  176.2600  137.5990 C   0  0  0  0  0  3  0  0  0  0  0  0
  189.8750  174.7480  137.2830 C   0  0  0  0  0  0  0  0  0  0  0  0
  190.1650  176.7910  138.5560 C   0  0  0  0  0  3  0  0  0  0  0  0
  188.8140  177.1160  138.3520 C   0  0  0  0  0  0  0  0  0  0  0  0
  188.5340  175.0810  137.0670 C   0  0  0  0  0  3  0  0  0  0  0  0
  190.4160  173.4770  136.7090 C   0  0  1  0  0  3  0  0  0  0  0  0
  189.2880  172.5890  136.2160 C   0  0  0  0  0  1  0  0  0  0  0  0
  191.3370  173.7640  135.6170 N   0  0  0  0  0  2  0  0  0  0  0  0
  193.0410  172.1240  135.1110 C   0  0  0  0  0  1  0  0  0  0  0  0
  192.6560  173.2830  136.0040 C   0  0  1  0  0  3  0  0  0  0  0  0
  195.6130  174.4350  139.1150 C   0  0  0  0  0  1  0  0  0  0  0  0
  194.8000  172.4540  137.8580 C   0  0  0  0  0  1  0  0  0  0  0  0
  195.0440  175.9230  136.8020 O   0  0  0  0  0  0  0  0  0  0  0  0
  194.9150  173.9000  137.9600 N   0  0  0  0  0  0  0  0  0  0  0  0
  194.5460  174.7670  136.8740 C   0  0  0  0  0  0  0  0  0  0  0  0
  193.6350  174.3510  135.8500 N   0  0  0  0  0  2  0  0  0  0  0  0
  189.4600  177.9300  148.4200 C   0  0  0  0  0  1  0  0  0  0  0  0
  189.4030  176.9090  147.4330 O   0  0  0  0  0  0  0  0  0  0  0  0
  183.5680  178.7700  140.4510 C   0  0  0  0  0  2  0  0  0  0  0  0
  181.2260  177.9760  140.1650 C   0  0  0  0  0  1  0  0  0  0  0  0
  182.6610  177.5460  140.4040 C   0  0  1  0  0  3  0  0  0  0  0  0
  183.1030  176.5390  139.3460 C   0  0  0  0  0  2  0  0  0  0  0  0
  181.9640  175.8050  138.8110 N   0  0  0  0  0  2  0  0  0  0  0  0
  181.5210  175.6690  136.0500 O   0  0  0  0  0  0  0  0  0  0  0  0
  182.2790  173.5640  137.3990 O   0  0  0  0  0  1  0  0  0  0  0  0
  182.4740  175.0620  137.3070 P   0  0  2  0  0  0  0  0  0  0  0  0
  183.7080  174.0030  134.7160 O   0  0  0  0  0  0  0  0  0  0  0  0
  184.2240  175.4680  136.9730 C   0  0  0  0  0  2  0  0  0  0  0  0
  184.8370  174.6830  135.4590 P   0  0  2  0  0  4  0  0  0  0  0  0
  184.9860  174.3750  137.1700 O   0  0  0  0  0  0  0  0  0  0  0  0
  185.8660  175.8990  134.5950 C   0  0  0  0  0  1  0  0  0  0  0  0
  1 10  1  0  0  0  0
  1  3  1  0  0  0  0
  2  5  1  0  0  0  0
  2 13  1  0  0  0  0
  4  3  2  0  0  0  0
  4  8  1  0  0  0  0
  5 26  1  6  0  0  0
  5 11  1  0  0  0  0
  6 13  1  0  0  0  0
  6 41  1  0  0  0  0
  7  9  1  0  0  0  0
  8 40  1  0  0  0  0
  9 12  1  0  0  0  0
  9 16  2  0  0  0  0
 11 15  1  0  0  0  0
 11  7  2  0  0  0  0
 12  1  2  0  0  0  0
 13 15  1  0  0  0  0
 14 12  1  0  0  0  0
 15 14  2  0  0  0  0
 16  4  1  0  0  0  0
 17 16  1  0  0  0  0
 17 20  2  0  0  0  0
 18  6  2  0  0  0  0
 19  8  2  0  0  0  0
 20 19  1  0  0  0  0
 21 17  1  0  0  0  0
 22 25  1  0  0  0  0
 23 26  1  0  0  0  0
 24 22  2  0  0  0  0
 26 25  2  0  0  0  0
 27 24  1  0  0  0  0
 27 23  2  0  0  0  0
 28 29  1  6  0  0  0
 28 24  1  0  0  0  0
 30 32  1  0  0  0  0
 30 28  1  0  0  0  0
 32 31  1  6  0  0  0
 34 36  1  0  0  0  0
 35 37  2  0  0  0  0
 36 33  1  0  0  0  0
 37 36  1  0  0  0  0
 38 32  1  0  0  0  0
 38 37  1  0  0  0  0
 40 39  1  0  0  0  0
 43 42  1  6  0  0  0
 43 41  1  0  0  0  0
 44 43  1  0  0  0  0
 45 44  1  0  0  0  0
 48 46  2  6  0  0  0
 48 47  1  0  0  0  0
 48 45  1  0  0  0  0
 49 51  2  0  0  0  0
 50 52  1  0  0  0  0
 50 48  1  0  0  0  0
 51 53  1  1  0  0  0
 51 52  1  0  0  0  0
M  END
>  <MODEL>
1

>  <REMARK>
 VINA RESULT:      -8.3      0.000      0.000
  Name = 
  12 active torsions:
  status: ('A' for Active; 'I' for Inactive)
    1  A    between atoms: N_2  and  C_52
    2  A    between atoms: N_2  and  P_53
    3  A    between atoms: C_7  and  N_10
    4  A    between atoms: C_7  and  C_27
    5  A    between atoms: N_10  and  C_22
    6  A    between atoms: C_13  and  P_53
    7  A    between atoms: C_14  and  C_33
    8  A    between atoms: C_17  and  C_39
    9  A    between atoms: C_22  and  N_50
   10  A    between atoms: C_24  and  O_46
   11  A    between atoms: C_30  and  C_39
   12  A    between atoms: C_30  and  C_52
                            x       y       z     vdW  Elec       q    Type
                         _______ _______ _______ _____ _____    ______ ____

>  <TORSDO>
F 12

$$$$
=
 OpenBabel10222417503D

 53 56  0  0  1  0  0  0  0  0999 V2000
  189.2880  177.6780  140.2030 C   0  0  0  0  0  0  0  0  0  0  0  0
  183.3710  179.2820  140.8070 C   0  0  0  0  0  2  0  0  0  0  0  0
  190.1100  177.2530  139.1660 C   0  0  0  0  0  3  0  0  0  0  0  0
  189.6370  177.1670  137.8540 C   0  0  0  0  0  0  0  0  0  0  0  0
  183.7590  178.9280  139.3590 C   0  0  1  0  0  3  0  0  0  0  0  0
  184.6600  179.3220  143.0050 C   0  0  0  0  0  0  0  0  0  0  0  0
  186.0660  178.2550  138.3920 N   0  0  0  0  0  0  0  0  0  0  0  0
  190.5060  176.7440  136.8370 C   0  0  0  0  0  0  0  0  0  0  0  0
  187.4450  177.9310  138.6220 C   0  0  0  0  0  0  0  0  0  0  0  0
  189.8670  177.7600  141.5770 C   0  0  0  0  0  1  0  0  0  0  0  0
  185.2150  178.6270  139.4720 C   0  0  0  0  0  0  0  0  0  0  0  0
  187.9530  178.0210  139.9440 C   0  0  0  0  0  0  0  0  0  0  0  0
  184.5980  179.1240  141.5830 N   0  0  0  0  0  0  0  0  0  0  0  0
  187.0850  178.5200  141.0850 C   0  0  0  0  0  3  0  0  0  0  0  0
  185.6470  178.7360  140.7040 C   0  0  0  0  0  0  0  0  0  0  0  0
  188.2900  177.5080  137.5570 C   0  0  0  0  0  0  0  0  0  0  0  0
  187.8670  177.4070  136.2020 C   0  0  0  0  0  0  0  0  0  0  0  0
  183.6160  179.6260  143.6400 O   0  0  0  0  0  0  0  0  0  0  0  0
  190.0260  176.6680  135.5270 C   0  0  0  0  0  3  0  0  0  0  0  0
  188.7430  176.9960  135.2460 N   0  0  0  0  0  0  0  0  0  0  0  0
  186.4850  177.7400  135.7450 C   0  0  0  0  0  1  0  0  0  0  0  0
  181.8510  176.5170  137.1060 C   0  0  0  0  0  3  0  0  0  0  0  0
  182.6670  176.7210  139.7720 C   0  0  0  0  0  3  0  0  0  0  0  0
  181.5370  175.4940  138.0120 C   0  0  0  0  0  0  0  0  0  0  0  0
  182.5740  177.6330  137.5310 C   0  0  0  0  0  3  0  0  0  0  0  0
  182.9940  177.7360  138.8670 C   0  0  0  0  0  0  0  0  0  0  0  0
  181.9420  175.6060  139.3460 C   0  0  0  0  0  3  0  0  0  0  0  0
  180.7670  174.2880  137.5790 C   0  0  1  0  0  3  0  0  0  0  0  0
  179.4070  174.2500  138.2510 C   0  0  0  0  0  1  0  0  0  0  0  0
  180.6070  174.2790  136.1310 N   0  0  0  0  0  2  0  0  0  0  0  0
  180.5010  172.4100  134.5980 C   0  0  0  0  0  1  0  0  0  0  0  0
  181.3590  173.1490  135.6030 C   0  0  1  0  0  3  0  0  0  0  0  0
  185.3640  173.3130  137.5210 C   0  0  0  0  0  1  0  0  0  0  0  0
  183.4940  171.7410  137.0800 C   0  0  0  0  0  1  0  0  0  0  0  0
  184.6980  174.5230  135.0760 O   0  0  0  0  0  0  0  0  0  0  0  0
  184.1820  172.9770  136.7490 N   0  0  0  0  0  0  0  0  0  0  0  0
  183.8450  173.7400  135.5760 C   0  0  0  0  0  0  0  0  0  0  0  0
  182.5660  173.6250  134.9410 N   0  0  0  0  0  2  0  0  0  0  0  0
  192.2240  175.0810  137.4880 C   0  0  0  0  0  1  0  0  0  0  0  0
  191.8310  176.4020  137.1430 O   0  0  0  0  0  0  0  0  0  0  0  0
  185.9310  179.1480  143.7690 C   0  0  0  0  0  2  0  0  0  0  0  0
  186.6160  176.7730  144.0670 C   0  0  0  0  0  1  0  0  0  0  0  0
  185.8590  177.9330  144.6860 C   0  0  1  0  0  3  0  0  0  0  0  0
  186.3880  178.2320  146.0850 C   0  0  0  0  0  2  0  0  0  0  0  0
  187.0240  177.0580  146.6690 N   0  0  0  0  0  2  0  0  0  0  0  0
  189.4360  176.2430  147.8350 O   0  0  0  0  0  1  0  0  0  0  0  0
  188.9010  178.7740  147.4750 O   0  0  0  0  0  0  0  0  0  0  0  0
  188.7340  177.4130  146.8370 P   0  0  2  0  0  0  0  0  0  0  0  0
  191.7370  176.8410  146.7590 O   0  0  0  0  0  0  0  0  0  0  0  0
  189.5450  177.3590  145.2010 C   0  0  0  0  0  2  0  0  0  0  0  0
  191.3360  177.1180  145.3270 P   0  0  0  0  0  0  0  0  0  0  0  0
  190.2810  178.4740  145.0250 O   0  0  0  0  0  0  0  0  0  0  0  0
  191.8190  175.9520  144.0260 C   0  0  0  0  0 15  0  0  0  0  0  0
  1 10  1  0  0  0  0
  2 13  1  0  0  0  0
  3  1  2  0  0  0  0
  4  3  1  0  0  0  0
  5 26  1  1  0  0  0
  5 11  1  0  0  0  0
  5  2  1  0  0  0  0
  6 18  2  0  0  0  0
  6 41  1  0  0  0  0
  7  9  2  0  0  0  0
  7 11  1  0  0  0  0
  8 40  1  0  0  0  0
  8  4  2  0  0  0  0
  9 12  1  0  0  0  0
 11 15  2  0  0  0  0
 12  1  1  0  0  0  0
 12 14  2  0  0  0  0
 13  6  1  0  0  0  0
 15 14  1  0  0  0  0
 15 13  1  0  0  0  0
 16  4  1  0  0  0  0
 16  9  1  0  0  0  0
 17 16  2  0  0  0  0
 19  8  1  0  0  0  0
 20 19  2  0  0  0  0
 20 17  1  0  0  0  0
 21 17  1  0  0  0  0
 22 25  2  0  0  0  0
 22 24  1  0  0  0  0
 24 27  2  0  0  0  0
 25 26  1  0  0  0  0
 26 23  2  0  0  0  0
 27 23  1  0  0  0  0
 28 24  1  0  0  0  0
 28 29  1  1  0  0  0
 30 28  1  0  0  0  0
 32 31  1  6  0  0  0
 32 30  1  0  0  0  0
 35 37  2  0  0  0  0
 36 34  1  0  0  0  0
 36 33  1  0  0  0  0
 37 36  1  0  0  0  0
 38 37  1  0  0  0  0
 38 32  1  0  0  0  0
 40 39  1  0  0  0  0
 41 43  1  0  0  0  0
 43 42  1  6  0  0  0
 43 44  1  0  0  0  0
 44 45  1  0  0  0  0
 45 48  1  0  0  0  0
 48 47  2  1  0  0  0
 48 46  1  0  0  0  0
 50 48  1  0  0  0  0
 51 49  2  0  0  0  0
 52 50  1  0  0  0  0
 52 51  1  0  0  0  0
M  END
>  <MODEL>
2

>  <REMARK>
 VINA RESULT:      -8.0      3.530      8.779
  Name = 
  12 active torsions:
  status: ('A' for Active; 'I' for Inactive)
    1  A    between atoms: N_2  and  C_52
    2  A    between atoms: N_2  and  P_53
    3  A    between atoms: C_7  and  N_10
    4  A    between atoms: C_7  and  C_27
    5  A    between atoms: N_10  and  C_22
    6  A    between atoms: C_13  and  P_53
    7  A    between atoms: C_14  and  C_33
    8  A    between atoms: C_17  and  C_39
    9  A    between atoms: C_22  and  N_50
   10  A    between atoms: C_24  and  O_46
   11  A    between atoms: C_30  and  C_39
   12  A    between atoms: C_30  and  C_52
                            x       y       z     vdW  Elec       q    Type
                         _______ _______ _______ _____ _____    ______ ____

>  <TORSDO>
F 12

$$$$
=
 OpenBabel10222417503D

 53 56  0  0  1  0  0  0  0  0999 V2000
  184.4620  173.1720  136.0220 C   0  0  0  0  0  0  0  0  0  0  0  0
  187.8040  178.2020  137.2390 C   0  0  0  0  0  2  0  0  0  0  0  0
  183.1690  172.7390  136.2910 C   0  0  0  0  0  3  0  0  0  0  0  0
  182.2520  173.5600  136.9520 C   0  0  0  0  0  0  0  0  0  0  0  0
  186.3590  178.2900  137.7650 C   0  0  1  0  0  3  0  0  0  0  0  0
  189.1040  176.4000  135.9900 C   0  0  0  0  0  0  0  0  0  0  0  0
  184.4170  176.5920  137.5370 N   0  0  0  0  0  0  0  0  0  0  0  0
  180.9540  173.0840  137.1930 C   0  0  0  0  0  0  0  0  0  0  0  0
  183.9620  175.3010  137.1070 C   0  0  0  0  0  0  0  0  0  0  0  0
  185.3830  172.2450  135.2970 C   0  0  0  0  0  1  0  0  0  0  0  0
  185.7630  177.0010  137.3140 C   0  0  0  0  0  0  0  0  0  0  0  0
  184.8710  174.4520  136.4230 C   0  0  0  0  0  0  0  0  0  0  0  0
  187.8950  176.8990  136.5860 N   0  0  0  0  0  0  0  0  0  0  0  0
  186.2750  174.9190  136.0830 C   0  0  0  0  0  3  0  0  0  0  0  0
  186.6300  176.2540  136.6740 C   0  0  0  0  0  0  0  0  0  0  0  0
  182.6340  174.8620  137.3720 C   0  0  0  0  0  0  0  0  0  0  0  0
  181.6550  175.6550  138.0340 C   0  0  0  0  0  0  0  0  0  0  0  0
  190.1560  177.0920  136.0380 O   0  0  0  0  0  0  0  0  0  0  0  0
  180.0410  173.9150  137.8470 C   0  0  0  0  0  3  0  0  0  0  0  0
  180.4060  175.1570  138.2440 N   0  0  0  0  0  0  0  0  0  0  0  0
  181.9130  177.0420  138.5220 C   0  0  0  0  0  1  0  0  0  0  0  0
  187.4320  178.3450  141.4230 C   0  0  0  0  0  3  0  0  0  0  0  0
  185.1120  178.6590  139.8960 C   0  0  0  0  0  3  0  0  0  0  0  0
  186.2110  178.6110  142.0570 C   0  0  0  0  0  0  0  0  0  0  0  0
  187.4930  178.2430  140.0320 C   0  0  0  0  0  3  0  0  0  0  0  0
  186.3320  178.4090  139.2600 C   0  0  0  0  0  0  0  0  0  0  0  0
  185.0520  178.7600  141.2880 C   0  0  0  0  0  3  0  0  0  0  0  0
  186.1220  178.7290  143.5450 C   0  0  1  0  0  3  0  0  0  0  0  0
  184.7100  179.0840  143.9720 C   0  0  0  0  0  1  0  0  0  0  0  0
  186.5360  177.4850  144.1800 N   0  0  0  0  0  2  0  0  0  0  0  0
  187.9060  177.8580  146.1390 C   0  0  0  0  0  1  0  0  0  0  0  0
  187.9080  177.6500  144.6390 C   0  0  1  0  0  3  0  0  0  0  0  0
  191.4360  177.5930  141.9370 C   0  0  0  0  0  1  0  0  0  0  0  0
  190.5510  178.7670  143.9380 C   0  0  0  0  0  1  0  0  0  0  0  0
  190.1030  175.3150  142.8950 O   0  0  0  0  0  0  0  0  0  0  0  0
  190.5220  177.6060  143.0650 N   0  0  0  0  0  0  0  0  0  0  0  0
  189.7780  176.4220  143.4040 C   0  0  0  0  0  0  0  0  0  0  0  0
  188.6810  176.4560  144.3240 N   0  0  0  0  0  2  0  0  0  0  0  0
  179.2640  171.2990  136.8880 C   0  0  0  0  0  1  0  0  0  0  0  0
  180.5910  171.7950  136.7810 O   0  0  0  0  0  0  0  0  0  0  0  0
  189.1640  175.0600  135.3330 C   0  0  0  0  0  2  0  0  0  0  0  0
  189.0250  172.6530  135.9510 C   0  0  0  0  0  1  0  0  0  0  0  0
  189.6420  173.9920  136.3080 C   0  0  1  0  0  3  0  0  0  0  0  0
  191.1630  173.8870  136.3500 C   0  0  0  0  0  2  0  0  0  0  0  0
  191.6950  174.4380  137.5900 N   0  0  0  0  0  2  0  0  0  0  0  0
  193.7190  176.1510  138.4850 O   0  0  0  0  0  1  0  0  0  0  0  0
  193.2240  175.8660  135.9360 O   0  0  0  0  0  0  0  0  0  0  0  0
  193.2810  175.0980  137.2380 P   0  0  2  0  0  0  0  0  0  0  0  0
  196.1560  175.8460  136.5120 O   0  0  0  0  0  0  0  0  0  0  0  0
  194.5100  173.7490  137.1420 C   0  0  0  0  0  2  0  0  0  0  0  0
  196.1360  174.3360  136.5990 P   0  0  0  0  0  0  0  0  0  0  0  0
  194.8020  173.4960  135.8520 O   0  0  0  0  0  0  0  0  0  0  0  0
  197.3830  173.4860  137.6030 C   0  0  0  0  0 15  0  0  0  0  0  0
  1  3  2  0  0  0  0
  1 12  1  0  0  0  0
  2  5  1  0  0  0  0
  3  4  1  0  0  0  0
  4  8  2  0  0  0  0
  4 16  1  0  0  0  0
  5 26  1  1  0  0  0
  6 18  2  0  0  0  0
  6 13  1  0  0  0  0
  8 19  1  0  0  0  0
  9 16  1  0  0  0  0
  9  7  2  0  0  0  0
 10  1  1  0  0  0  0
 11  7  1  0  0  0  0
 11  5  1  0  0  0  0
 12  9  1  0  0  0  0
 13 15  1  0  0  0  0
 13  2  1  0  0  0  0
 14 12  2  0  0  0  0
 14 15  1  0  0  0  0
 15 11  2  0  0  0  0
 16 17  2  0  0  0  0
 17 20  1  0  0  0  0
 17 21  1  0  0  0  0
 19 20  2  0  0  0  0
 22 24  1  0  0  0  0
 23 27  1  0  0  0  0
 24 28  1  0  0  0  0
 25 22  2  0  0  0  0
 26 23  2  0  0  0  0
 26 25  1  0  0  0  0
 27 24  2  0  0  0  0
 28 29  1  6  0  0  0
 28 30  1  0  0  0  0
 30 32  1  0  0  0  0
 32 31  1  1  0  0  0
 33 36  1  0  0  0  0
 35 37  2  0  0  0  0
 36 37  1  0  0  0  0
 36 34  1  0  0  0  0
 37 38  1  0  0  0  0
 38 32  1  0  0  0  0
 40 39  1  0  0  0  0
 40  8  1  0  0  0  0
 41  6  1  0  0  0  0
 41 43  1  0  0  0  0
 43 42  1  6  0  0  0
 43 44  1  0  0  0  0
 44 45  1  0  0  0  0
 48 47  2  6  0  0  0
 48 45  1  0  0  0  0
 48 46  1  0  0  0  0
 49 51  2  0  0  0  0
 50 48  1  0  0  0  0
 52 51  1  0  0  0  0
 52 50  1  0  0  0  0
M  END
>  <MODEL>
3

>  <REMARK>
 VINA RESULT:      -8.0      3.085      9.578
  Name = 
  12 active torsions:
  status: ('A' for Active; 'I' for Inactive)
    1  A    between atoms: N_2  and  C_52
    2  A    between atoms: N_2  and  P_53
    3  A    between atoms: C_7  and  N_10
    4  A    between atoms: C_7  and  C_27
    5  A    between atoms: N_10  and  C_22
    6  A    between atoms: C_13  and  P_53
    7  A    between atoms: C_14  and  C_33
    8  A    between atoms: C_17  and  C_39
    9  A    between atoms: C_22  and  N_50
   10  A    between atoms: C_24  and  O_46
   11  A    between atoms: C_30  and  C_39
   12  A    between atoms: C_30  and  C_52
                            x       y       z     vdW  Elec       q    Type
                         _______ _______ _______ _____ _____    ______ ____

>  <TORSDO>
F 12

$$$$
=
 OpenBabel10222417503D

 53 56  0  0  1  0  0  0  0  0999 V2000
  186.9730  177.6460  142.9130 C   0  0  0  0  0  0  0  0  0  0  0  0
  188.5250  178.3930  136.9990 C   0  0  0  0  0  2  0  0  0  0  0  0
  187.6490  177.4130  144.1050 C   0  0  0  0  0  3  0  0  0  0  0  0
  189.0450  177.3620  144.1490 C   0  0  0  0  0  0  0  0  0  0  0  0
  189.7400  178.2020  137.9260 C   0  0  1  0  0  3  0  0  0  0  0  0
  186.0080  178.4410  137.3990 C   0  0  0  0  0  0  0  0  0  0  0  0
  189.8170  177.9180  140.5000 N   0  0  0  0  0  0  0  0  0  0  0  0
  189.6860  177.1360  145.3760 C   0  0  0  0  0  0  0  0  0  0  0  0
  189.1090  177.7660  141.7380 C   0  0  0  0  0  0  0  0  0  0  0  0
  185.4810  177.7030  142.9460 C   0  0  0  0  0  1  0  0  0  0  0  0
  189.1130  178.0910  139.2740 C   0  0  0  0  0  0  0  0  0  0  0  0
  187.6910  177.8250  141.7230 C   0  0  0  0  0  0  0  0  0  0  0  0
  187.3590  178.3430  137.8780 N   0  0  0  0  0  0  0  0  0  0  0  0
  186.9330  178.1170  140.4400 C   0  0  0  0  0  3  0  0  0  0  0  0
  187.8050  178.1660  139.2170 C   0  0  0  0  0  0  0  0  0  0  0  0
  189.8030  177.5410  142.9610 C   0  0  0  0  0  0  0  0  0  0  0  0
  191.2210  177.4850  143.0680 C   0  0  0  0  0  0  0  0  0  0  0  0
  185.7900  178.5550  136.1640 O   0  0  0  0  0  0  0  0  0  0  0  0
  191.0820  177.0950  145.4120 C   0  0  0  0  0  3  0  0  0  0  0  0
  191.8020  177.2670  144.2790 N   0  0  0  0  0  0  0  0  0  0  0  0
  192.1410  177.6620  141.9060 C   0  0  0  0  0  1  0  0  0  0  0  0
  192.5010  175.5860  137.6760 C   0  0  0  0  0  3  0  0  0  0  0  0
  189.8950  176.0040  136.7540 C   0  0  0  0  0  3  0  0  0  0  0  0
  191.8860  174.6240  136.8630 C   0  0  0  0  0  0  0  0  0  0  0  0
  191.8130  176.7480  138.0290 C   0  0  0  0  0  3  0  0  0  0  0  0
  190.5010  176.9580  137.5760 C   0  0  0  0  0  0  0  0  0  0  0  0
  190.5850  174.8420  136.3990 C   0  0  0  0  0  3  0  0  0  0  0  0
  192.6020  173.3690  136.4740 C   0  0  1  0  0  3  0  0  0  0  0  0
  191.6260  172.3420  135.9300 C   0  0  0  0  0  1  0  0  0  0  0  0
  193.6280  173.6560  135.4810 N   0  0  0  0  0  2  0  0  0  0  0  0
  195.3670  171.9750  135.4810 C   0  0  0  0  0  1  0  0  0  0  0  0
  194.9190  173.3020  136.0540 C   0  0  1  0  0  3  0  0  0  0  0  0
  197.9510  174.8760  138.8960 C   0  0  0  0  0  1  0  0  0  0  0  0
  197.0960  172.7370  137.9680 C   0  0  0  0  0  1  0  0  0  0  0  0
  197.3460  176.0050  136.3980 O   0  0  0  0  0  0  0  0  0  0  0  0
  197.2250  174.1800  137.8500 N   0  0  0  0  0  0  0  0  0  0  0  0
  196.8400  174.8780  136.6520 C   0  0  0  0  0  0  0  0  0  0  0  0
  195.9030  174.3230  135.7210 N   0  0  0  0  0  2  0  0  0  0  0  0
  189.1270  177.7260  147.7170 C   0  0  0  0  0  1  0  0  0  0  0  0
  188.9270  176.9540  146.5410 O   0  0  0  0  0  0  0  0  0  0  0  0
  184.8380  178.3830  138.3260 C   0  0  0  0  0  2  0  0  0  0  0  0
  183.4290  176.3310  138.3040 C   0  0  0  0  0  1  0  0  0  0  0  0
  183.6510  177.6910  137.6680 C   0  0  1  0  0  3  0  0  0  0  0  0
  182.3790  178.5300  137.7400 C   0  0  0  0  0  2  0  0  0  0  0  0
  182.4430  179.4880  138.8360 N   0  0  0  0  0  2  0  0  0  0  0  0
  179.8880  179.7300  137.7180 O   0  0  0  0  0  0  0  0  0  0  0  0
  181.3360  181.8410  138.2400 O   0  0  0  0  0  1  0  0  0  0  0  0
  180.9890  180.4660  138.7680 P   0  0  2  0  0  0  0  0  0  0  0  0
  180.4100  177.8530  140.2490 O   0  0  0  0  0  0  0  0  0  0  0  0
  180.2360  180.5810  140.4300 C   0  0  0  0  0  2  0  0  0  0  0  0
  179.8580  178.9530  141.1290 P   0  0  0  0  0  0  0  0  0  0  0  0
  178.9400  180.2230  140.3630 O   0  0  0  0  0  0  0  0  0  0  0  0
  180.3070  178.9990  142.8840 C   0  0  0  0  0 15  0  0  0  0  0  0
  1 10  1  0  0  0  0
  1  3  1  0  0  0  0
  2 13  1  0  0  0  0
  2  5  1  0  0  0  0
  3  4  2  0  0  0  0
  4  8  1  0  0  0  0
  5 26  1  6  0  0  0
  5 11  1  0  0  0  0
  6 13  1  0  0  0  0
  6 41  1  0  0  0  0
  7  9  1  0  0  0  0
  8 19  2  0  0  0  0
  8 40  1  0  0  0  0
  9 16  2  0  0  0  0
 11  7  2  0  0  0  0
 12  9  1  0  0  0  0
 12  1  2  0  0  0  0
 13 15  1  0  0  0  0
 14 12  1  0  0  0  0
 15 11  1  0  0  0  0
 15 14  2  0  0  0  0
 16 17  1  0  0  0  0
 16  4  1  0  0  0  0
 17 20  2  0  0  0  0
 18  6  2  0  0  0  0
 20 19  1  0  0  0  0
 21 17  1  0  0  0  0
 22 25  1  0  0  0  0
 23 26  1  0  0  0  0
 24 22  2  0  0  0  0
 26 25  2  0  0  0  0
 27 23  2  0  0  0  0
 27 24  1  0  0  0  0
 28 29  1  6  0  0  0
 28 24  1  0  0  0  0
 30 32  1  0  0  0  0
 30 28  1  0  0  0  0
 32 31  1  6  0  0  0
 35 37  2  0  0  0  0
 36 34  1  0  0  0  0
 36 33  1  0  0  0  0
 37 36  1  0  0  0  0
 38 32  1  0  0  0  0
 38 37  1  0  0  0  0
 40 39  1  0  0  0  0
 43 44  1  0  0  0  0
 43 42  1  1  0  0  0
 43 41  1  0  0  0  0
 44 45  1  0  0  0  0
 47 48  1  0  0  0  0
 48 46  2  6  0  0  0
 48 45  1  0  0  0  0
 48 50  1  0  0  0  0
 49 51  2  0  0  0  0
 52 50  1  0  0  0  0
 52 51  1  0  0  0  0
M  END
>  <MODEL>
4

>  <REMARK>
 VINA RESULT:      -7.2      2.491      3.588
  Name = 
  12 active torsions:
  status: ('A' for Active; 'I' for Inactive)
    1  A    between atoms: N_2  and  C_52
    2  A    between atoms: N_2  and  P_53
    3  A    between atoms: C_7  and  N_10
    4  A    between atoms: C_7  and  C_27
    5  A    between atoms: N_10  and  C_22
    6  A    between atoms: C_13  and  P_53
    7  A    between atoms: C_14  and  C_33
    8  A    between atoms: C_17  and  C_39
    9  A    between atoms: C_22  and  N_50
   10  A    between atoms: C_24  and  O_46
   11  A    between atoms: C_30  and  C_39
   12  A    between atoms: C_30  and  C_52
                            x       y       z     vdW  Elec       q    Type
                         _______ _______ _______ _____ _____    ______ ____

>  <TORSDO>
F 12

$$$$
=
 OpenBabel10222417503D

 53 56  0  0  1  0  0  0  0  0999 V2000
  183.2620  174.8690  136.5780 C   0  0  0  0  0  0  0  0  0  0  0  0
  188.1950  178.2100  138.1410 C   0  0  0  0  0  2  0  0  0  0  0  0
  181.9240  174.8210  136.9520 C   0  0  0  0  0  3  0  0  0  0  0  0
  181.3940  175.7330  137.8680 C   0  0  0  0  0  0  0  0  0  0  0  0
  186.9120  178.6400  138.8770 C   0  0  1  0  0  3  0  0  0  0  0  0
  188.7050  176.3920  136.4290 C   0  0  0  0  0  0  0  0  0  0  0  0
  184.4980  177.7310  138.6440 N   0  0  0  0  0  0  0  0  0  0  0  0
  180.0360  175.6540  138.2090 C   0  0  0  0  0  0  0  0  0  0  0  0
  183.6000  176.7700  138.0710 C   0  0  0  0  0  0  0  0  0  0  0  0
  183.7530  173.8710  135.5810 C   0  0  0  0  0  1  0  0  0  0  0  0
  185.8810  177.7300  138.3030 C   0  0  0  0  0  0  0  0  0  0  0  0
  184.1100  175.8390  137.1280 C   0  0  0  0  0  0  0  0  0  0  0  0
  187.7880  177.1120  137.2690 N   0  0  0  0  0  0  0  0  0  0  0  0
  185.5570  175.8980  136.6750 C   0  0  0  0  0  3  0  0  0  0  0  0
  186.3900  176.8980  137.4270 C   0  0  0  0  0  0  0  0  0  0  0  0
  182.2270  176.7300  138.4450 C   0  0  0  0  0  0  0  0  0  0  0  0
  181.6300  177.6350  139.3670 C   0  0  0  0  0  0  0  0  0  0  0  0
  189.9290  176.6890  136.4430 O   0  0  0  0  0  0  0  0  0  0  0  0
  179.5130  176.5760  139.1200 C   0  0  0  0  0  3  0  0  0  0  0  0
  180.3080  177.5260  139.6660 N   0  0  0  0  0  0  0  0  0  0  0  0
  182.3810  178.7350  140.0420 C   0  0  0  0  0  1  0  0  0  0  0  0
  188.2440  177.6190  142.3000 C   0  0  0  0  0  3  0  0  0  0  0  0
  186.0190  178.8980  141.1940 C   0  0  0  0  0  3  0  0  0  0  0  0
  187.2210  178.0860  143.1360 C   0  0  0  0  0  0  0  0  0  0  0  0
  188.1560  177.7960  140.9180 C   0  0  0  0  0  3  0  0  0  0  0  0
  187.0450  178.4460  140.3580 C   0  0  0  0  0  0  0  0  0  0  0  0
  186.1070  178.7180  142.5760 C   0  0  0  0  0  3  0  0  0  0  0  0
  187.2950  177.9110  144.6200 C   0  0  1  0  0  3  0  0  0  0  0  0
  185.9180  177.6410  145.1970 C   0  0  0  0  0  1  0  0  0  0  0  0
  188.2000  176.8210  144.9590 N   0  0  0  0  0  2  0  0  0  0  0  0
  188.9180  177.4140  147.1910 C   0  0  0  0  0  1  0  0  0  0  0  0
  189.3040  177.3760  145.7280 C   0  0  1  0  0  3  0  0  0  0  0  0
  192.0240  177.5350  142.2170 C   0  0  0  0  0  1  0  0  0  0  0  0
  190.9970  179.0030  143.9360 C   0  0  0  0  0  1  0  0  0  0  0  0
  192.0520  175.5350  144.1880 O   0  0  0  0  0  0  0  0  0  0  0  0
  191.3820  177.6680  143.5120 N   0  0  0  0  0  0  0  0  0  0  0  0
  191.3300  176.5440  144.4100 C   0  0  0  0  0  0  0  0  0  0  0  0
  190.4870  176.5410  145.5680 N   0  0  0  0  0  2  0  0  0  0  0  0
  178.9530  173.4270  138.2880 C   0  0  0  0  0  1  0  0  0  0  0  0
  179.2260  174.6620  137.6400 O   0  0  0  0  0  0  0  0  0  0  0  0
  188.2550  175.2710  135.5510 C   0  0  0  0  0  2  0  0  0  0  0  0
  187.4740  172.9070  135.5050 C   0  0  0  0  0  1  0  0  0  0  0  0
  188.2030  173.9570  136.3220 C   0  0  1  0  0  3  0  0  0  0  0  0
  189.5910  173.4620  136.7150 C   0  0  0  0  0  2  0  0  0  0  0  0
  190.3360  173.0030  135.5490 N   0  0  0  0  0  2  0  0  0  0  0  0
  191.8890  175.1290  134.5970 O   0  0  0  0  0  0  0  0  0  0  0  0
  192.9530  172.7930  135.0820 O   0  0  0  0  0  1  0  0  0  0  0  0
  191.9140  173.7660  135.5960 P   0  0  2  0  0  0  0  0  0  0  0  0
  193.9980  175.9740  135.9640 O   0  0  0  0  0  0  0  0  0  0  0  0
  192.3040  174.2890  137.3030 C   0  0  0  0  0  2  0  0  0  0  0  0
  193.6280  175.5240  137.3600 P   0  0  0  0  0  0  0  0  0  0  0  0
  193.5110  173.8090  137.6570 O   0  0  0  0  0  0  0  0  0  0  0  0
  193.1630  176.7610  138.6010 C   0  0  0  0  0 15  0  0  0  0  0  0
  1  3  2  0  0  0  0
  1 12  1  0  0  0  0
  2  5  1  0  0  0  0
  3  4  1  0  0  0  0
  4  8  2  0  0  0  0
  4 16  1  0  0  0  0
  5 26  1  1  0  0  0
  6 18  2  0  0  0  0
  6 13  1  0  0  0  0
  8 19  1  0  0  0  0
  9 16  1  0  0  0  0
  9  7  2  0  0  0  0
 10  1  1  0  0  0  0
 11  7  1  0  0  0  0
 11  5  1  0  0  0  0
 12  9  1  0  0  0  0
 13 15  1  0  0  0  0
 13  2  1  0  0  0  0
 14 12  2  0  0  0  0
 14 15  1  0  0  0  0
 15 11  2  0  0  0  0
 16 17  2  0  0  0  0
 17 20  1  0  0  0  0
 17 21  1  0  0  0  0
 19 20  2  0  0  0  0
 22 24  1  0  0  0  0
 23 27  1  0  0  0  0
 24 28  1  0  0  0  0
 25 22  2  0  0  0  0
 26 25  1  0  0  0  0
 26 23  2  0  0  0  0
 27 24  2  0  0  0  0
 28 30  1  0  0  0  0
 28 29  1  6  0  0  0
 30 32  1  0  0  0  0
 32 31  1  1  0  0  0
 33 36  1  0  0  0  0
 35 37  2  0  0  0  0
 36 34  1  0  0  0  0
 36 37  1  0  0  0  0
 37 38  1  0  0  0  0
 38 32  1  0  0  0  0
 40  8  1  0  0  0  0
 40 39  1  0  0  0  0
 41 43  1  0  0  0  0
 41  6  1  0  0  0  0
 43 42  1  6  0  0  0
 43 44  1  0  0  0  0
 45 48  1  0  0  0  0
 45 44  1  0  0  0  0
 47 48  1  0  0  0  0
 48 46  2  6  0  0  0
 48 50  1  0  0  0  0
 49 51  2  0  0  0  0
 50 52  1  0  0  0  0
 51 52  1  0  0  0  0
M  END
>  <MODEL>
5

>  <REMARK>
 VINA RESULT:      -7.2      2.882      8.891
  Name = 
  12 active torsions:
  status: ('A' for Active; 'I' for Inactive)
    1  A    between atoms: N_2  and  C_52
    2  A    between atoms: N_2  and  P_53
    3  A    between atoms: C_7  and  N_10
    4  A    between atoms: C_7  and  C_27
    5  A    between atoms: N_10  and  C_22
    6  A    between atoms: C_13  and  P_53
    7  A    between atoms: C_14  and  C_33
    8  A    between atoms: C_17  and  C_39
    9  A    between atoms: C_22  and  N_50
   10  A    between atoms: C_24  and  O_46
   11  A    between atoms: C_30  and  C_39
   12  A    between atoms: C_30  and  C_52
                            x       y       z     vdW  Elec       q    Type
                         _______ _______ _______ _____ _____    ______ ____

>  <TORSDO>
F 12

$$$$
=
 OpenBabel10222417503D

 53 56  0  0  1  0  0  0  0  0999 V2000
  185.3330  174.8390  135.9330 C   0  0  0  0  0  0  0  0  0  0  0  0
  189.8040  177.8140  138.9490 C   0  0  0  0  0  2  0  0  0  0  0  0
  183.9490  174.9310  135.8470 C   0  0  0  0  0  3  0  0  0  0  0  0
  183.2460  175.9360  136.5150 C   0  0  0  0  0  0  0  0  0  0  0  0
  188.4030  178.3960  139.2120 C   0  0  1  0  0  3  0  0  0  0  0  0
  190.6550  175.8640  137.5460 C   0  0  0  0  0  0  0  0  0  0  0  0
  186.1160  177.6920  138.2200 N   0  0  0  0  0  0  0  0  0  0  0  0
  181.8500  175.9970  136.3920 C   0  0  0  0  0  0  0  0  0  0  0  0
  185.3600  176.7840  137.4070 C   0  0  0  0  0  0  0  0  0  0  0  0
  186.0180  173.7460  135.1770 C   0  0  0  0  0  1  0  0  0  0  0  0
  187.5270  177.5500  138.3530 C   0  0  0  0  0  0  0  0  0  0  0  0
  186.0510  175.7600  136.7080 C   0  0  0  0  0  0  0  0  0  0  0  0
  189.5930  176.7080  138.0190 N   0  0  0  0  0  0  0  0  0  0  0  0
  187.5650  175.6650  136.7540 C   0  0  0  0  0  3  0  0  0  0  0  0
  188.2050  176.6280  137.7140 C   0  0  0  0  0  0  0  0  0  0  0  0
  183.9430  176.8870  137.3090 C   0  0  0  0  0  0  0  0  0  0  0  0
  183.1750  177.8920  137.9620 C   0  0  0  0  0  0  0  0  0  0  0  0
  191.8310  176.0520  137.9540 O   0  0  0  0  0  0  0  0  0  0  0  0
  181.1570  177.0110  137.0580 C   0  0  0  0  0  3  0  0  0  0  0  0
  181.8230  177.9170  137.8120 N   0  0  0  0  0  0  0  0  0  0  0  0
  183.7740  178.9570  138.8190 C   0  0  0  0  0  1  0  0  0  0  0  0
  186.6370  178.8790  142.5560 C   0  0  0  0  0  3  0  0  0  0  0  0
  188.7820  177.4410  141.4870 C   0  0  0  0  0  3  0  0  0  0  0  0
  187.3880  178.0310  143.3810 C   0  0  0  0  0  0  0  0  0  0  0  0
  186.9550  179.0030  141.2020 C   0  0  0  0  0  3  0  0  0  0  0  0
  188.0260  178.2750  140.6590 C   0  0  0  0  0  0  0  0  0  0  0  0
  188.4650  177.3200  142.8420 C   0  0  0  0  0  3  0  0  0  0  0  0
  187.0640  177.8800  144.8330 C   0  0  1  0  0  3  0  0  0  0  0  0
  185.6270  177.4290  145.0170 C   0  0  0  0  0  1  0  0  0  0  0  0
  187.9690  176.9270  145.4610 N   0  0  0  0  0  2  0  0  0  0  0  0
  188.2870  177.8780  147.6620 C   0  0  0  0  0  1  0  0  0  0  0  0
  188.9010  177.6750  146.2940 C   0  0  1  0  0  3  0  0  0  0  0  0
  192.0560  177.4600  143.1720 C   0  0  0  0  0  1  0  0  0  0  0  0
  190.7150  179.1080  144.4560 C   0  0  0  0  0  1  0  0  0  0  0  0
  191.9420  175.8390  145.4620 O   0  0  0  0  0  0  0  0  0  0  0  0
  191.2380  177.7580  144.3330 N   0  0  0  0  0  0  0  0  0  0  0  0
  191.1350  176.8050  145.4060 C   0  0  0  0  0  0  0  0  0  0  0  0
  190.1450  176.9290  146.4340 N   0  0  0  0  0  2  0  0  0  0  0  0
  179.7550  175.0120  135.5080 C   0  0  0  0  0  1  0  0  0  0  0  0
  181.1720  175.0500  135.6130 O   0  0  0  0  0  0  0  0  0  0  0  0
  190.4020  174.7390  136.5960 C   0  0  0  0  0  2  0  0  0  0  0  0
  191.3250  172.6830  135.5390 C   0  0  0  0  0  1  0  0  0  0  0  0
  191.6060  173.8070  136.5170 C   0  0  1  0  0  3  0  0  0  0  0  0
  192.8840  174.5460  136.1320 C   0  0  0  0  0  2  0  0  0  0  0  0
  193.9650  173.6120  135.8450 N   0  0  0  0  0  2  0  0  0  0  0  0
  195.3880  175.9930  136.2240 O   0  0  0  0  0  1  0  0  0  0  0  0
  196.6230  173.7560  135.6790 O   0  0  0  0  0  0  0  0  0  0  0  0
  195.4500  174.3190  136.4520 P   0  0  2  0  0  0  0  0  0  0  0  0
  197.9990  175.2750  137.8460 O   0  0  0  0  0  0  0  0  0  0  0  0
  195.6230  173.9700  138.2370 C   0  0  0  0  0  2  0  0  0  0  0  0
  197.2260  174.5020  138.8920 P   0  0  0  0  0  0  0  0  0  0  0  0
  196.5170  172.9800  138.4190 O   0  0  0  0  0  0  0  0  0  0  0  0
  196.9270  175.2530  140.5150 C   0  0  0  0  0 15  0  0  0  0  0  0
  1 12  1  0  0  0  0
  2  5  1  0  0  0  0
  3  1  2  0  0  0  0
  3  4  1  0  0  0  0
  4 16  1  0  0  0  0
  5 26  1  1  0  0  0
  6 18  2  0  0  0  0
  6 13  1  0  0  0  0
  7 11  1  0  0  0  0
  8  4  2  0  0  0  0
  8 19  1  0  0  0  0
  9  7  2  0  0  0  0
 10  1  1  0  0  0  0
 11  5  1  0  0  0  0
 12 14  2  0  0  0  0
 12  9  1  0  0  0  0
 13  2  1  0  0  0  0
 14 15  1  0  0  0  0
 15 13  1  0  0  0  0
 15 11  2  0  0  0  0
 16  9  1  0  0  0  0
 16 17  2  0  0  0  0
 17 21  1  0  0  0  0
 19 20  2  0  0  0  0
 20 17  1  0  0  0  0
 22 24  1  0  0  0  0
 23 27  1  0  0  0  0
 24 28  1  0  0  0  0
 25 22  2  0  0  0  0
 26 25  1  0  0  0  0
 26 23  2  0  0  0  0
 27 24  2  0  0  0  0
 28 29  1  6  0  0  0
 28 30  1  0  0  0  0
 30 32  1  0  0  0  0
 32 38  1  0  0  0  0
 32 31  1  1  0  0  0
 33 36  1  0  0  0  0
 36 34  1  0  0  0  0
 36 37  1  0  0  0  0
 37 35  2  0  0  0  0
 37 38  1  0  0  0  0
 39 40  1  0  0  0  0
 40  8  1  0  0  0  0
 41  6  1  0  0  0  0
 43 42  1  6  0  0  0
 43 41  1  0  0  0  0
 44 43  1  0  0  0  0
 45 44  1  0  0  0  0
 45 48  1  0  0  0  0
 46 48  1  0  0  0  0
 48 47  2  6  0  0  0
 48 50  1  0  0  0  0
 49 51  2  0  0  0  0
 50 52  1  0  0  0  0
 52 51  1  0  0  0  0
M  END
>  <MODEL>
6

>  <REMARK>
 VINA RESULT:      -7.1      2.979      9.987
  Name = 
  12 active torsions:
  status: ('A' for Active; 'I' for Inactive)
    1  A    between atoms: N_2  and  C_52
    2  A    between atoms: N_2  and  P_53
    3  A    between atoms: C_7  and  N_10
    4  A    between atoms: C_7  and  C_27
    5  A    between atoms: N_10  and  C_22
    6  A    between atoms: C_13  and  P_53
    7  A    between atoms: C_14  and  C_33
    8  A    between atoms: C_17  and  C_39
    9  A    between atoms: C_22  and  N_50
   10  A    between atoms: C_24  and  O_46
   11  A    between atoms: C_30  and  C_39
   12  A    between atoms: C_30  and  C_52
                            x       y       z     vdW  Elec       q    Type
                         _______ _______ _______ _____ _____    ______ ____

>  <TORSDO>
F 12

$$$$
=
 OpenBabel10222417503D

 53 56  0  0  1  0  0  0  0  0999 V2000
  190.0940  177.5270  140.5350 C   0  0  0  0  0  0  0  0  0  0  0  0
  184.1280  179.0500  140.3680 C   0  0  0  0  0  2  0  0  0  0  0  0
  191.0400  177.0790  139.6200 C   0  0  0  0  0  3  0  0  0  0  0  0
  190.7290  176.9370  138.2660 C   0  0  0  0  0  0  0  0  0  0  0  0
  184.6910  178.6500  138.9910 C   0  0  1  0  0  3  0  0  0  0  0  0
  185.1440  179.1910  142.7010 C   0  0  0  0  0  0  0  0  0  0  0  0
  187.1060  177.9820  138.3320 N   0  0  0  0  0  0  0  0  0  0  0  0
  191.7190  176.4910  137.3770 C   0  0  0  0  0  0  0  0  0  0  0  0
  188.4510  177.6900  138.7370 C   0  0  0  0  0  0  0  0  0  0  0  0
  190.5040  177.6690  141.9650 C   0  0  0  0  0  1  0  0  0  0  0  0
  186.1270  178.3780  139.2880 C   0  0  0  0  0  0  0  0  0  0  0  0
  188.7960  177.8370  140.1060 C   0  0  0  0  0  0  0  0  0  0  0  0
  185.2550  178.9410  141.2900 N   0  0  0  0  0  0  0  0  0  0  0  0
  187.7920  178.3630  141.1160 C   0  0  0  0  0  3  0  0  0  0  0  0
  186.4070  178.5400  140.5580 C   0  0  0  0  0  0  0  0  0  0  0  0
  189.4230  177.2440  137.7980 C   0  0  0  0  0  0  0  0  0  0  0  0
  189.1660  177.0860  136.4070 C   0  0  0  0  0  0  0  0  0  0  0  0
  184.0270  179.5010  143.1950 O   0  0  0  0  0  0  0  0  0  0  0  0
  191.4000  176.3610  136.0230 C   0  0  0  0  0  3  0  0  0  0  0  0
  190.1560  176.6560  135.5790 N   0  0  0  0  0  0  0  0  0  0  0  0
  187.8450  177.3790  135.7760 C   0  0  0  0  0  1  0  0  0  0  0  0
  183.4210  175.9410  136.6300 C   0  0  0  0  0  3  0  0  0  0  0  0
  183.2480  176.6420  139.3300 C   0  0  0  0  0  3  0  0  0  0  0  0
  182.6740  175.1460  137.5100 C   0  0  0  0  0  0  0  0  0  0  0  0
  184.0820  177.0770  137.1000 C   0  0  0  0  0  3  0  0  0  0  0  0
  184.0050  177.4280  138.4570 C   0  0  0  0  0  0  0  0  0  0  0  0
  182.5850  175.5060  138.8590 C   0  0  0  0  0  3  0  0  0  0  0  0
  181.9610  173.9220  137.0310 C   0  0  1  0  0  3  0  0  0  0  0  0
  182.9530  172.8560  136.6050 C   0  0  0  0  0  1  0  0  0  0  0  0
  181.0860  173.4010  138.0720 N   0  0  0  0  0  2  0  0  0  0  0  0
  178.9660  173.9200  137.0300 C   0  0  0  0  0  1  0  0  0  0  0  0
  179.9190  174.2680  138.1540 C   0  0  1  0  0  3  0  0  0  0  0  0
  179.4650  177.4140  141.2590 C   0  0  0  0  0  1  0  0  0  0  0  0
  179.0470  177.0030  138.8460 C   0  0  0  0  0  1  0  0  0  0  0  0
  178.9310  174.6840  141.6410 O   0  0  0  0  0  0  0  0  0  0  0  0
  179.2880  176.4660  140.1740 N   0  0  0  0  0  0  0  0  0  0  0  0
  179.1520  175.0620  140.4590 C   0  0  0  0  0  0  0  0  0  0  0  0
  179.2450  174.0700  139.4290 N   0  0  0  0  0  2  0  0  0  0  0  0
  193.5030  174.8560  137.9060 C   0  0  0  0  0  1  0  0  0  0  0  0
  193.0010  176.1840  137.8500 O   0  0  0  0  0  0  0  0  0  0  0  0
  186.3170  179.0680  143.6180 C   0  0  0  0  0  2  0  0  0  0  0  0
  186.8600  176.6530  143.8900 C   0  0  0  0  0  1  0  0  0  0  0  0
  186.1790  177.8510  144.5240 C   0  0  1  0  0  3  0  0  0  0  0  0
  186.7330  178.1060  145.9220 C   0  0  0  0  0  2  0  0  0  0  0  0
  187.4420  176.9370  146.4280 N   0  0  0  0  0  2  0  0  0  0  0  0
  188.9610  177.8640  148.5890 O   0  0  0  0  0  1  0  0  0  0  0  0
  189.4320  178.6920  146.1570 O   0  0  0  0  0  0  0  0  0  0  0  0
  189.0310  177.4660  146.9480 P   0  0  2  0  0  0  0  0  0  0  0  0
  191.7290  177.7260  148.3640 O   0  0  0  0  0  0  0  0  0  0  0  0
  190.2440  176.1190  146.7170 C   0  0  0  0  0  2  0  0  0  0  0  0
  191.8260  176.4690  147.5280 P   0  0  0  0  0  0  0  0  0  0  0  0
  191.2250  176.5330  145.8920 O   0  0  0  0  0  0  0  0  0  0  0  0
  192.3920  174.9290  148.2980 C   0  0  0  0  0 15  0  0  0  0  0  0
  1 10  1  0  0  0  0
  2 13  1  0  0  0  0
  3  1  2  0  0  0  0
  4  3  1  0  0  0  0
  5 26  1  1  0  0  0
  5 11  1  0  0  0  0
  5  2  1  0  0  0  0
  6 18  2  0  0  0  0
  6 41  1  0  0  0  0
  7  9  2  0  0  0  0
  7 11  1  0  0  0  0
  8 40  1  0  0  0  0
  8  4  2  0  0  0  0
  9 12  1  0  0  0  0
 11 15  2  0  0  0  0
 12  1  1  0  0  0  0
 12 14  2  0  0  0  0
 13  6  1  0  0  0  0
 15 14  1  0  0  0  0
 15 13  1  0  0  0  0
 16  4  1  0  0  0  0
 16  9  1  0  0  0  0
 17 16  2  0  0  0  0
 19  8  1  0  0  0  0
 20 19  2  0  0  0  0
 20 17  1  0  0  0  0
 21 17  1  0  0  0  0
 22 25  2  0  0  0  0
 22 24  1  0  0  0  0
 24 27  2  0  0  0  0
 25 26  1  0  0  0  0
 26 23  2  0  0  0  0
 27 23  1  0  0  0  0
 28 29  1  1  0  0  0
 28 24  1  0  0  0  0
 28 30  1  0  0  0  0
 30 32  1  0  0  0  0
 32 31  1  6  0  0  0
 32 38  1  0  0  0  0
 34 36  1  0  0  0  0
 36 37  1  0  0  0  0
 36 33  1  0  0  0  0
 37 35  2  0  0  0  0
 38 37  1  0  0  0  0
 40 39  1  0  0  0  0
 41 43  1  0  0  0  0
 43 42  1  6  0  0  0
 43 44  1  0  0  0  0
 44 45  1  0  0  0  0
 45 48  1  0  0  0  0
 48 47  2  6  0  0  0
 48 46  1  0  0  0  0
 50 48  1  0  0  0  0
 51 49  2  0  0  0  0
 52 50  1  0  0  0  0
 52 51  1  0  0  0  0
M  END
>  <MODEL>
7

>  <REMARK>
 VINA RESULT:      -6.9      3.823      9.715
  Name = 
  12 active torsions:
  status: ('A' for Active; 'I' for Inactive)
    1  A    between atoms: N_2  and  C_52
    2  A    between atoms: N_2  and  P_53
    3  A    between atoms: C_7  and  N_10
    4  A    between atoms: C_7  and  C_27
    5  A    between atoms: N_10  and  C_22
    6  A    between atoms: C_13  and  P_53
    7  A    between atoms: C_14  and  C_33
    8  A    between atoms: C_17  and  C_39
    9  A    between atoms: C_22  and  N_50
   10  A    between atoms: C_24  and  O_46
   11  A    between atoms: C_30  and  C_39
   12  A    between atoms: C_30  and  C_52
                            x       y       z     vdW  Elec       q    Type
                         _______ _______ _______ _____ _____    ______ ____

>  <TORSDO>
F 12

$$$$
=
 OpenBabel10222417503D

 53 56  0  0  1  0  0  0  0  0999 V2000
  189.5370  176.9030  139.9650 C   0  0  0  0  0  0  0  0  0  0  0  0
  183.9100  179.3780  140.3410 C   0  0  0  0  0  2  0  0  0  0  0  0
  190.4030  176.5310  138.9420 C   0  0  0  0  0  3  0  0  0  0  0  0
  190.0830  176.7610  137.6020 C   0  0  0  0  0  0  0  0  0  0  0  0
  184.4090  179.2220  138.8920 C   0  0  1  0  0  3  0  0  0  0  0  0
  184.9170  178.8050  142.6110 C   0  0  0  0  0  0  0  0  0  0  0  0
  186.6830  178.3400  138.0220 N   0  0  0  0  0  0  0  0  0  0  0  0
  190.9910  176.3790  136.6040 C   0  0  0  0  0  0  0  0  0  0  0  0
  187.9580  177.7460  138.3060 C   0  0  0  0  0  0  0  0  0  0  0  0
  189.9550  176.6400  141.3750 C   0  0  0  0  0  1  0  0  0  0  0  0
  185.7770  178.6580  139.0730 C   0  0  0  0  0  0  0  0  0  0  0  0
  188.3130  177.5130  139.6600 C   0  0  0  0  0  0  0  0  0  0  0  0
  184.9950  178.8750  141.1780 N   0  0  0  0  0  0  0  0  0  0  0  0
  187.4020  177.9460  140.7950 C   0  0  0  0  0  3  0  0  0  0  0  0
  186.0700  178.4720  140.3370 C   0  0  0  0  0  0  0  0  0  0  0  0
  188.8490  177.3780  137.2590 C   0  0  0  0  0  0  0  0  0  0  0  0
  188.5800  177.5920  135.8780 C   0  0  0  0  0  0  0  0  0  0  0  0
  183.8640  179.1700  143.1970 O   0  0  0  0  0  0  0  0  0  0  0  0
  190.6650  176.6200  135.2670 C   0  0  0  0  0  3  0  0  0  0  0  0
  189.4910  177.2100  134.9420 N   0  0  0  0  0  0  0  0  0  0  0  0
  187.3310  178.2350  135.3730 C   0  0  0  0  0  1  0  0  0  0  0  0
  181.3590  177.6030  137.2790 C   0  0  0  0  0  3  0  0  0  0  0  0
  184.1090  177.1630  137.5130 C   0  0  0  0  0  3  0  0  0  0  0  0
  181.9410  176.4850  136.6660 C   0  0  0  0  0  0  0  0  0  0  0  0
  182.1490  178.4990  138.0000 C   0  0  0  0  0  3  0  0  0  0  0  0
  183.5330  178.2870  138.1130 C   0  0  0  0  0  0  0  0  0  0  0  0
  183.3160  176.2670  136.7930 C   0  0  0  0  0  3  0  0  0  0  0  0
  181.1140  175.5130  135.8850 C   0  0  1  0  0  3  0  0  0  0  0  0
  181.9740  174.3780  135.3610 C   0  0  0  0  0  1  0  0  0  0  0  0
  180.0380  174.9830  136.7100 N   0  0  0  0  0  2  0  0  0  0  0  0
  180.7130  174.2800  138.9240 C   0  0  0  0  0  1  0  0  0  0  0  0
  180.5690  173.8630  137.4760 C   0  0  1  0  0  3  0  0  0  0  0  0
  181.4720  170.0710  135.3430 C   0  0  0  0  0  1  0  0  0  0  0  0
  182.4080  171.5890  137.0700 C   0  0  0  0  0  1  0  0  0  0  0  0
  178.9410  170.8150  136.3050 O   0  0  0  0  0  0  0  0  0  0  0  0
  181.2550  171.1260  136.3160 N   0  0  0  0  0  0  0  0  0  0  0  0
  179.9170  171.5330  136.6530 C   0  0  0  0  0  0  0  0  0  0  0  0
  179.6560  172.7310  137.3930 N   0  0  0  0  0  2  0  0  0  0  0  0
  193.4550  176.4250  136.8540 C   0  0  0  0  0  1  0  0  0  0  0  0
  192.2010  175.7640  136.9530 O   0  0  0  0  0  0  0  0  0  0  0  0
  186.0460  178.2820  143.4370 C   0  0  0  0  0  2  0  0  0  0  0  0
  184.3190  178.6280  145.1960 C   0  0  0  0  0  1  0  0  0  0  0  0
  185.8080  178.5420  144.9190 C   0  0  1  0  0  3  0  0  0  0  0  0
  186.4580  177.4820  145.8030 C   0  0  0  0  0  2  0  0  0  0  0  0
  187.0140  178.0750  147.0130 N   0  0  0  0  0  2  0  0  0  0  0  0
  188.6610  176.0080  147.9360 O   0  0  0  0  0  0  0  0  0  0  0  0
  189.4540  178.4960  148.0040 O   0  0  0  0  0  1  0  0  0  0  0  0
  188.6680  177.5120  147.1650 P   0  0  2  0  0  0  0  0  0  0  0  0
  191.6760  176.9820  147.0210 O   0  0  0  0  0  0  0  0  0  0  0  0
  189.4180  177.3260  145.5100 C   0  0  0  0  0  2  0  0  0  0  0  0
  191.2170  177.1240  145.5870 P   0  0  0  0  0  0  0  0  0  0  0  0
  190.1260  178.4310  145.2080 O   0  0  0  0  0  0  0  0  0  0  0  0
  191.6730  175.8550  144.3760 C   0  0  0  0  0 15  0  0  0  0  0  0
  1 10  1  0  0  0  0
  2 13  1  0  0  0  0
  3  1  2  0  0  0  0
  4  3  1  0  0  0  0
  5 26  1  6  0  0  0
  5 11  1  0  0  0  0
  5  2  1  0  0  0  0
  6 18  2  0  0  0  0
  6 41  1  0  0  0  0
  7  9  2  0  0  0  0
  7 11  1  0  0  0  0
  8 40  1  0  0  0  0
  8  4  2  0  0  0  0
  9 12  1  0  0  0  0
 11 15  2  0  0  0  0
 12  1  1  0  0  0  0
 12 14  2  0  0  0  0
 13  6  1  0  0  0  0
 15 14  1  0  0  0  0
 15 13  1  0  0  0  0
 16  4  1  0  0  0  0
 16  9  1  0  0  0  0
 17 16  2  0  0  0  0
 19  8  1  0  0  0  0
 20 19  2  0  0  0  0
 20 17  1  0  0  0  0
 21 17  1  0  0  0  0
 22 25  1  0  0  0  0
 23 26  1  0  0  0  0
 24 27  1  0  0  0  0
 24 22  2  0  0  0  0
 25 26  2  0  0  0  0
 27 23  2  0  0  0  0
 28 29  1  1  0  0  0
 28 24  1  0  0  0  0
 28 30  1  0  0  0  0
 30 32  1  0  0  0  0
 32 31  1  1  0  0  0
 33 36  1  0  0  0  0
 35 37  2  0  0  0  0
 36 37  1  0  0  0  0
 36 34  1  0  0  0  0
 37 38  1  0  0  0  0
 38 32  1  0  0  0  0
 39 40  1  0  0  0  0
 41 43  1  0  0  0  0
 43 42  1  6  0  0  0
 43 44  1  0  0  0  0
 44 45  1  0  0  0  0
 45 48  1  0  0  0  0
 48 46  2  1  0  0  0
 48 47  1  0  0  0  0
 50 48  1  0  0  0  0
 51 49  2  0  0  0  0
 52 50  1  0  0  0  0
 52 51  1  0  0  0  0
M  END
>  <MODEL>
8

>  <REMARK>
 VINA RESULT:      -6.7      3.849      9.424
  Name = 
  12 active torsions:
  status: ('A' for Active; 'I' for Inactive)
    1  A    between atoms: N_2  and  C_52
    2  A    between atoms: N_2  and  P_53
    3  A    between atoms: C_7  and  N_10
    4  A    between atoms: C_7  and  C_27
    5  A    between atoms: N_10  and  C_22
    6  A    between atoms: C_13  and  P_53
    7  A    between atoms: C_14  and  C_33
    8  A    between atoms: C_17  and  C_39
    9  A    between atoms: C_22  and  N_50
   10  A    between atoms: C_24  and  O_46
   11  A    between atoms: C_30  and  C_39
   12  A    between atoms: C_30  and  C_52
                            x       y       z     vdW  Elec       q    Type
                         _______ _______ _______ _____ _____    ______ ____

>  <TORSDO>
F 12

$$$$
=
 OpenBabel10222417503D

 53 56  0  0  1  0  0  0  0  0999 V2000
  183.1290  177.5330  139.3930 C   0  0  0  0  0  0  0  0  0  0  0  0
  189.1860  178.5870  139.0170 C   0  0  0  0  0  2  0  0  0  0  0  0
  182.1440  177.6810  140.3630 C   0  0  0  0  0  3  0  0  0  0  0  0
  182.4310  178.2500  141.6060 C   0  0  0  0  0  0  0  0  0  0  0  0
  188.5820  178.9960  140.3730 C   0  0  1  0  0  3  0  0  0  0  0  0
  188.2080  177.5450  136.9070 C   0  0  0  0  0  0  0  0  0  0  0  0
  186.1200  178.9050  141.1720 N   0  0  0  0  0  0  0  0  0  0  0  0
  181.4030  178.3900  142.5500 C   0  0  0  0  0  0  0  0  0  0  0  0
  184.7610  178.5190  140.9170 C   0  0  0  0  0  0  0  0  0  0  0  0
  182.7450  176.9300  138.0810 C   0  0  0  0  0  1  0  0  0  0  0  0
  187.1340  178.6890  140.1960 C   0  0  0  0  0  0  0  0  0  0  0  0
  184.4420  177.9490  139.6570 C   0  0  0  0  0  0  0  0  0  0  0  0
  188.0640  178.0750  138.2350 N   0  0  0  0  0  0  0  0  0  0  0  0
  185.4910  177.8140  138.5690 C   0  0  0  0  0  3  0  0  0  0  0  0
  186.8790  178.1790  139.0160 C   0  0  0  0  0  0  0  0  0  0  0  0
  183.7500  178.6840  141.9050 C   0  0  0  0  0  0  0  0  0  0  0  0
  183.9810  179.2610  143.1850 C   0  0  0  0  0  0  0  0  0  0  0  0
  189.3490  177.4890  136.3770 O   0  0  0  0  0  0  0  0  0  0  0  0
  181.6970  178.9680  143.7880 C   0  0  0  0  0  3  0  0  0  0  0  0
  182.9550  179.3820  144.0700 N   0  0  0  0  0  0  0  0  0  0  0  0
  185.3130  179.7660  143.6320 C   0  0  0  0  0  1  0  0  0  0  0  0
  190.1820  176.1670  142.3650 C   0  0  0  0  0  3  0  0  0  0  0  0
  189.2220  178.7600  142.7750 C   0  0  0  0  0  3  0  0  0  0  0  0
  190.2430  176.7390  143.6430 C   0  0  0  0  0  0  0  0  0  0  0  0
  189.6490  176.8910  141.2970 C   0  0  0  0  0  3  0  0  0  0  0  0
  189.1740  178.1970  141.4960 C   0  0  0  0  0  0  0  0  0  0  0  0
  189.7540  178.0340  143.8430 C   0  0  0  0  0  3  0  0  0  0  0  0
  190.8130  175.9850  144.8020 C   0  0  1  0  0  3  0  0  0  0  0  0
  191.9110  175.0430  144.3400 C   0  0  0  0  0  1  0  0  0  0  0  0
  191.3350  176.9060  145.8020 N   0  0  0  0  0  2  0  0  0  0  0  0
  192.3240  175.6430  147.6130 C   0  0  0  0  0  1  0  0  0  0  0  0
  191.0730  176.3370  147.1160 C   0  0  1  0  0  3  0  0  0  0  0  0
  187.0680  178.2530  147.2990 C   0  0  0  0  0  1  0  0  0  0  0  0
  188.1460  176.0170  147.3430 C   0  0  0  0  0  1  0  0  0  0  0  0
  189.3670  179.1980  148.6040 O   0  0  0  0  0  0  0  0  0  0  0  0
  188.2620  177.4560  147.5120 N   0  0  0  0  0  0  0  0  0  0  0  0
  189.4430  178.0600  148.0680 C   0  0  0  0  0  0  0  0  0  0  0  0
  190.7120  177.3950  148.0500 N   0  0  0  0  0  2  0  0  0  0  0  0
  178.9480  178.7230  142.5340 C   0  0  0  0  0  1  0  0  0  0  0  0
  180.1060  177.9520  142.2470 O   0  0  0  0  0  0  0  0  0  0  0  0
  187.0380  177.0260  136.1360 C   0  0  0  0  0  2  0  0  0  0  0  0
  187.3110  174.8010  137.2190 C   0  0  0  0  0  1  0  0  0  0  0  0
  187.1620  175.5270  135.8950 C   0  0  1  0  0  3  0  0  0  0  0  0
  185.9810  174.9680  135.1080 C   0  0  0  0  0  2  0  0  0  0  0  0
  184.8920  174.5820  135.9960 N   0  0  0  0  0  2  0  0  0  0  0  0
  184.4820  172.1130  137.2500 O   0  0  0  0  0  1  0  0  0  0  0  0
  185.7330  172.2710  134.9620 O   0  0  0  0  0  0  0  0  0  0  0  0
  184.5860  172.8730  135.7450 P   0  0  2  0  0  0  0  0  0  0  0  0
  182.0120  173.6340  137.2110 O   0  0  0  0  0  0  0  0  0  0  0  0
  183.0050  172.6470  134.8560 C   0  0  0  0  0  2  0  0  0  0  0  0
  181.5710  173.0390  135.8910 P   0  0  0  0  0  0  0  0  0  0  0  0
  182.3570  171.5770  135.3550 O   0  0  0  0  0  0  0  0  0  0  0  0
  180.3880  173.9440  134.8580 C   0  0  0  0  0 15  0  0  0  0  0  0
  1 12  2  0  0  0  0
  1  3  1  0  0  0  0
  2  5  1  0  0  0  0
  3  4  2  0  0  0  0
  4 16  1  0  0  0  0
  4  8  1  0  0  0  0
  5 26  1  1  0  0  0
  6 13  1  0  0  0  0
  8 19  2  0  0  0  0
  9  7  1  0  0  0  0
  9 16  2  0  0  0  0
 10  1  1  0  0  0  0
 11  5  1  0  0  0  0
 11  7  2  0  0  0  0
 12  9  1  0  0  0  0
 13 15  1  0  0  0  0
 13  2  1  0  0  0  0
 14 15  2  0  0  0  0
 14 12  1  0  0  0  0
 15 11  1  0  0  0  0
 16 17  1  0  0  0  0
 17 21  1  0  0  0  0
 17 20  2  0  0  0  0
 18  6  2  0  0  0  0
 19 20  1  0  0  0  0
 22 24  1  0  0  0  0
 23 27  1  0  0  0  0
 24 27  2  0  0  0  0
 24 28  1  0  0  0  0
 25 26  1  0  0  0  0
 25 22  2  0  0  0  0
 26 23  2  0  0  0  0
 28 29  1  6  0  0  0
 28 30  1  0  0  0  0
 30 32  1  0  0  0  0
 32 31  1  1  0  0  0
 32 38  1  0  0  0  0
 33 36  1  0  0  0  0
 34 36  1  0  0  0  0
 36 37  1  0  0  0  0
 37 35  2  0  0  0  0
 38 37  1  0  0  0  0
 40 39  1  0  0  0  0
 40  8  1  0  0  0  0
 41  6  1  0  0  0  0
 43 41  1  0  0  0  0
 43 42  1  1  0  0  0
 44 43  1  0  0  0  0
 44 45  1  0  0  0  0
 48 47  2  6  0  0  0
 48 45  1  0  0  0  0
 48 46  1  0  0  0  0
 50 52  1  0  0  0  0
 50 48  1  0  0  0  0
 51 49  2  0  0  0  0
 52 51  1  0  0  0  0
M  END
>  <MODEL>
9

>  <REMARK>
 VINA RESULT:      -6.1      3.392      7.545
  Name = 
  12 active torsions:
  status: ('A' for Active; 'I' for Inactive)
    1  A    between atoms: N_2  and  C_52
    2  A    between atoms: N_2  and  P_53
    3  A    between atoms: C_7  and  N_10
    4  A    between atoms: C_7  and  C_27
    5  A    between atoms: N_10  and  C_22
    6  A    between atoms: C_13  and  P_53
    7  A    between atoms: C_14  and  C_33
    8  A    between atoms: C_17  and  C_39
    9  A    between atoms: C_22  and  N_50
   10  A    between atoms: C_24  and  O_46
   11  A    between atoms: C_30  and  C_39
   12  A    between atoms: C_30  and  C_52
                            x       y       z     vdW  Elec       q    Type
                         _______ _______ _______ _____ _____    ______ ____

>  <TORSDO>
F 12

$$$$
