=
 OpenBabel10222415473D

 44 49  0  0  1  0  0  0  0  0999 V2000
  186.5180  178.0860  138.3970 C   0  0  2  0  0  3  0  0  0  0  0  0
  188.7470  177.9480  141.9680 C   0  0  0  0  0  0  0  0  0  0  0  0
  190.6370  177.2960  140.5870 C   0  0  0  0  0  3  0  0  0  0  0  0
  187.3080  178.3720  142.0530 C   0  0  0  0  0  2  0  0  0  0  0  0
  188.4910  177.7710  139.5720 O   0  0  0  0  0  0  0  0  0  0  0  0
  186.5460  177.9770  140.7860 C   0  0  0  0  0  2  0  0  0  0  0  0
  189.5440  177.8360  143.1230 C   0  0  0  0  0  0  0  0  0  0  0  0
  187.2800  178.4460  139.6040 N   0  0  0  0  0  0  0  0  0  0  0  0
  189.3020  177.6820  140.7070 C   0  0  0  0  0  0  0  0  0  0  0  0
  191.4310  177.1840  141.7280 C   0  0  0  0  0  3  0  0  0  0  0  0
  190.8860  177.4500  142.9870 C   0  0  0  0  0  3  0  0  0  0  0  0
  190.5700  177.0400  145.7730 O   0  0  0  0  0  0  0  0  0  0  0  0
  189.4650  177.6370  145.6810 C   0  0  0  0  0  0  0  0  0  0  0  0
  188.9650  178.0830  144.4140 N   0  0  0  0  0  2  0  0  0  0  0  0
  188.6730  177.9020  146.9110 C   0  0  0  0  0  2  0  0  0  0  0  0
  187.2180  177.5450  146.6840 C   0  0  0  0  0  2  0  0  0  0  0  0
  186.4120  178.5590  147.1980 O   0  0  0  0  0  0  0  0  0  0  0  0
  185.1600  178.3380  146.6260 C   0  0  0  0  0  2  0  0  0  0  0  0
  184.2600  178.4270  144.4440 O   0  0  0  0  0  0  0  0  0  0  0  0
  183.7350  179.4640  145.1130 O   0  0  0  0  0  0  0  0  0  0  0  0
  185.0500  179.1180  145.3340 C   0  0  0  0  0  3  0  0  0  0  0  0
  189.4510  177.6630  136.8980 C   0  0  0  0  0  2  0  0  0  0  0  0
  187.1110  178.6270  137.0800 C   0  0  2  0  0  3  0  0  0  0  0  0
  186.4700  178.1270  135.8610 N   0  0  0  0  0  2  0  0  0  0  0  0
  187.0940  176.9040  135.3650 C   0  0  0  0  0  2  0  0  0  0  0  0
  188.3600  177.2430  134.5940 C   0  0  0  0  0  2  0  0  0  0  0  0
  188.6140  178.9300  136.9900 C   0  0  0  0  0  2  0  0  0  0  0  0
  189.6180  177.1640  135.4630 C   0  0  0  0  0  2  0  0  0  0  0  0
  184.7690  179.7460  138.8720 N   0  0  0  0  0  0  0  0  0  0  0  0
  185.0590  178.4760  138.4850 C   0  0  0  0  0  0  0  0  0  0  0  0
  184.0090  177.5570  138.2700 C   0  0  0  0  0  0  0  0  0  0  0  0
  182.4640  179.3060  138.8150 N   0  0  0  0  0  0  0  0  0  0  0  0
  183.4900  180.1630  139.0350 C   0  0  0  0  0  3  0  0  0  0  0  0
  182.6860  178.0200  138.4400 C   0  0  0  0  0  0  0  0  0  0  0  0
  181.5630  177.1670  138.2250 N   0  0  0  0  0  1  0  0  0  0  0  0
  184.1040  175.7560  136.7050 N   0  0  0  0  0  0  0  0  0  0  0  0
  184.3160  176.2100  137.8750 N   0  0  0  0  0  0  0  0  0  0  0  0
  185.4590  170.4660  135.3730 O   0  0  0  0  0  1  0  0  0  0  0  0
  185.1200  171.7730  135.6980 C   0  0  0  0  0  0  0  0  0  0  0  0
  185.8200  172.4480  136.7010 C   0  0  0  0  0  3  0  0  0  0  0  0
  185.4740  173.7630  137.0320 C   0  0  0  0  0  3  0  0  0  0  0  0
  184.0730  172.4090  135.0280 C   0  0  0  0  0  3  0  0  0  0  0  0
  183.7290  173.7230  135.3570 C   0  0  0  0  0  3  0  0  0  0  0  0
  184.4290  174.4080  136.3620 C   0  0  0  0  0  0  0  0  0  0  0  0
  1 30  1  1  0  0  0
  1  8  1  0  0  0  0
  2  4  1  0  0  0  0
  2  7  1  0  0  0  0
  3  9  1  0  0  0  0
  3 10  2  0  0  0  0
  5  8  1  0  0  0  0
  5  9  1  0  0  0  0
  6  4  1  0  0  0  0
  7 14  1  0  0  0  0
  8  6  1  0  0  0  0
  9  2  2  0  0  0  0
 10 11  1  0  0  0  0
 11  7  2  0  0  0  0
 13 12  2  0  0  0  0
 13 15  1  0  0  0  0
 14 13  1  0  0  0  0
 16 15  1  0  0  0  0
 16 17  1  0  0  0  0
 18 17  1  0  0  0  0
 19 20  1  0  0  0  0
 19 21  1  0  0  0  0
 20 21  1  0  0  0  0
 21 18  1  0  0  0  0
 22 27  1  0  0  0  0
 23  1  1  1  0  0  0
 24 23  1  0  0  0  0
 25 24  1  0  0  0  0
 26 25  1  0  0  0  0
 26 28  1  0  0  0  0
 27 23  1  0  0  0  0
 28 22  1  0  0  0  0
 29 33  1  0  0  0  0
 30 29  2  0  0  0  0
 31 34  2  0  0  0  0
 31 30  1  0  0  0  0
 32 33  2  0  0  0  0
 34 32  1  0  0  0  0
 35 34  1  0  0  0  0
 36 37  2  0  0  0  0
 37 31  1  0  0  0  0
 38 39  1  0  0  0  0
 39 40  1  0  0  0  0
 40 41  2  0  0  0  0
 42 43  1  0  0  0  0
 42 39  2  0  0  0  0
 43 44  2  0  0  0  0
 44 36  1  0  0  0  0
 44 41  1  0  0  0  0
M  END
>  <MODEL>
1

>  <REMARK>
 VINA RESULT:      -7.8      0.000      0.000
  Name = 
  11 active torsions:
  status: ('A' for Active; 'I' for Inactive)
    1  A    between atoms: C_5  and  C_41
    2  A    between atoms: N_7  and  C_24
    3  A    between atoms: C_9  and  C_41
    4  A    between atoms: O_10  and  C_37
    5  A    between atoms: O_10  and  C_43
    6  A    between atoms: C_11  and  N_27
    7  A    between atoms: C_28  and  N_39
    8  A    between atoms: N_31  and  C_41
    9  A    between atoms: C_32  and  C_37
   10  A    between atoms: C_32  and  C_38
   11  A    between atoms: C_35  and  C_43
                            x       y       z     vdW  Elec       q    Type
                         _______ _______ _______ _____ _____    ______ ____

>  <TORSDO>
F 11

$$$$
=
 OpenBabel10222415473D

 44 49  0  0  1  0  0  0  0  0999 V2000
  181.1820  178.8680  140.0360 C   0  0  2  0  0  3  0  0  0  0  0  0
  184.5610  178.3180  142.4910 C   0  0  0  0  0  0  0  0  0  0  0  0
  183.1810  179.1340  144.3170 C   0  0  0  0  0  3  0  0  0  0  0  0
  184.6730  177.9340  141.0420 C   0  0  0  0  0  2  0  0  0  0  0  0
  182.2530  178.9110  142.0920 O   0  0  0  0  0  0  0  0  0  0  0  0
  183.5470  178.5650  140.2200 C   0  0  0  0  0  2  0  0  0  0  0  0
  185.6590  178.2050  143.3640 C   0  0  0  0  0  0  0  0  0  0  0  0
  182.2550  178.2820  140.8570 N   0  0  0  0  0  0  0  0  0  0  0  0
  183.3270  178.7770  142.9770 C   0  0  0  0  0  0  0  0  0  0  0  0
  184.2660  179.0230  145.1850 C   0  0  0  0  0  3  0  0  0  0  0  0
  185.4970  178.5630  144.7100 C   0  0  0  0  0  3  0  0  0  0  0  0
  187.8560  176.8830  144.8270 O   0  0  0  0  0  0  0  0  0  0  0  0
  187.9940  177.1660  143.6070 C   0  0  0  0  0  0  0  0  0  0  0  0
  186.9280  177.7600  142.8560 N   0  0  0  0  0  2  0  0  0  0  0  0
  189.2810  176.8600  142.9280 C   0  0  0  0  0  2  0  0  0  0  0  0
  190.4400  177.4290  143.7210 C   0  0  0  0  0  2  0  0  0  0  0  0
  190.9580  176.4380  144.5520 O   0  0  0  0  0  0  0  0  0  0  0  0
  191.5060  177.1310  145.6290 C   0  0  0  0  0  2  0  0  0  0  0  0
  192.4680  175.7630  147.2970 O   0  0  0  0  0  0  0  0  0  0  0  0
  192.0500  176.8780  147.9160 O   0  0  0  0  0  0  0  0  0  0  0  0
  191.2840  176.3430  146.9030 C   0  0  0  0  0  3  0  0  0  0  0  0
  180.0430  177.6690  142.9170 C   0  0  0  0  0  2  0  0  0  0  0  0
  179.8110  178.9490  140.7390 C   0  0  2  0  0  3  0  0  0  0  0  0
  179.4310  180.2880  141.2000 N   0  0  0  0  0  2  0  0  0  0  0  0
  179.8810  180.5550  142.5630 C   0  0  0  0  0  2  0  0  0  0  0  0
  178.9310  179.9110  143.5600 C   0  0  0  0  0  2  0  0  0  0  0  0
  179.3170  177.7660  141.5840 C   0  0  0  0  0  2  0  0  0  0  0  0
  179.4000  178.5240  144.0090 C   0  0  0  0  0  2  0  0  0  0  0  0
  181.4040  176.8770  138.6140 N   0  0  0  0  0  0  0  0  0  0  0  0
  181.0190  178.1770  138.7010 C   0  0  0  0  0  0  0  0  0  0  0  0
  180.5730  178.8500  137.5420 C   0  0  0  0  0  0  0  0  0  0  0  0
  180.9050  176.8150  136.3200 N   0  0  0  0  0  0  0  0  0  0  0  0
  181.3480  176.1980  137.4420 C   0  0  0  0  0  3  0  0  0  0  0  0
  180.5180  178.1170  136.3370 C   0  0  0  0  0  0  0  0  0  0  0  0
  180.0620  178.7100  135.1230 N   0  0  0  0  0  1  0  0  0  0  0  0
  180.8530  181.1850  137.1290 N   0  0  0  0  0  0  0  0  0  0  0  0
  180.1800  180.2290  137.6320 N   0  0  0  0  0  0  0  0  0  0  0  0
  179.2130  186.5440  137.5560 O   0  0  0  0  0  1  0  0  0  0  0  0
  179.6150  185.2190  137.4550 C   0  0  0  0  0  0  0  0  0  0  0  0
  180.4980  184.8310  136.4440 C   0  0  0  0  0  3  0  0  0  0  0  0
  180.8970  183.4940  136.3390 C   0  0  0  0  0  3  0  0  0  0  0  0
  179.1300  184.2730  138.3600 C   0  0  0  0  0  3  0  0  0  0  0  0
  179.5310  182.9380  138.2570 C   0  0  0  0  0  3  0  0  0  0  0  0
  180.4180  182.5410  137.2450 C   0  0  0  0  0  0  0  0  0  0  0  0
  1 30  1  6  0  0  0
  1  8  1  0  0  0  0
  2  9  2  0  0  0  0
  2  7  1  0  0  0  0
  3 10  2  0  0  0  0
  4  2  1  0  0  0  0
  5  9  1  0  0  0  0
  6  8  1  0  0  0  0
  6  4  1  0  0  0  0
  7 11  2  0  0  0  0
  8  5  1  0  0  0  0
  9  3  1  0  0  0  0
 11 10  1  0  0  0  0
 13 12  2  0  0  0  0
 14  7  1  0  0  0  0
 14 13  1  0  0  0  0
 15 13  1  0  0  0  0
 15 16  1  0  0  0  0
 16 17  1  0  0  0  0
 17 18  1  0  0  0  0
 18 21  1  0  0  0  0
 19 20  1  0  0  0  0
 21 19  1  0  0  0  0
 21 20  1  0  0  0  0
 22 28  1  0  0  0  0
 23  1  1  1  0  0  0
 23 24  1  0  0  0  0
 23 27  1  0  0  0  0
 24 25  1  0  0  0  0
 25 26  1  0  0  0  0
 26 28  1  0  0  0  0
 27 22  1  0  0  0  0
 29 30  1  0  0  0  0
 31 37  1  0  0  0  0
 31 30  2  0  0  0  0
 32 34  2  0  0  0  0
 32 33  1  0  0  0  0
 33 29  2  0  0  0  0
 34 31  1  0  0  0  0
 35 34  1  0  0  0  0
 36 44  1  0  0  0  0
 36 37  2  0  0  0  0
 39 38  1  0  0  0  0
 39 42  1  0  0  0  0
 40 39  2  0  0  0  0
 41 40  1  0  0  0  0
 41 44  2  0  0  0  0
 43 42  2  0  0  0  0
 44 43  1  0  0  0  0
M  END
>  <MODEL>
2

>  <REMARK>
 VINA RESULT:      -7.6      4.146      8.181
  Name = 
  11 active torsions:
  status: ('A' for Active; 'I' for Inactive)
    1  A    between atoms: C_5  and  C_41
    2  A    between atoms: N_7  and  C_24
    3  A    between atoms: C_9  and  C_41
    4  A    between atoms: O_10  and  C_37
    5  A    between atoms: O_10  and  C_43
    6  A    between atoms: C_11  and  N_27
    7  A    between atoms: C_28  and  N_39
    8  A    between atoms: N_31  and  C_41
    9  A    between atoms: C_32  and  C_37
   10  A    between atoms: C_32  and  C_38
   11  A    between atoms: C_35  and  C_43
                            x       y       z     vdW  Elec       q    Type
                         _______ _______ _______ _____ _____    ______ ____

>  <TORSDO>
F 11

$$$$
=
 OpenBabel10222415473D

 44 49  0  0  1  0  0  0  0  0999 V2000
  185.3840  177.9940  139.1840 C   0  0  2  0  0  3  0  0  0  0  0  0
  185.0770  178.5930  143.3420 C   0  0  0  0  0  0  0  0  0  0  0  0
  182.6710  178.6520  143.0040 C   0  0  0  0  0  3  0  0  0  0  0  0
  186.4490  178.4060  142.7570 C   0  0  0  0  0  2  0  0  0  0  0  0
  184.1570  178.2760  141.1300 O   0  0  0  0  0  0  0  0  0  0  0  0
  186.4300  178.6180  141.2420 C   0  0  0  0  0  2  0  0  0  0  0  0
  184.8960  178.8410  144.7160 C   0  0  0  0  0  0  0  0  0  0  0  0
  185.3660  177.8030  140.6440 N   0  0  0  0  0  0  0  0  0  0  0  0
  183.9610  178.4950  142.4970 C   0  0  0  0  0  0  0  0  0  0  0  0
  182.4880  178.8970  144.3640 C   0  0  0  0  0  3  0  0  0  0  0  0
  183.5940  178.9930  145.2130 C   0  0  0  0  0  3  0  0  0  0  0  0
  186.4870  176.6970  145.9750 O   0  0  0  0  0  0  0  0  0  0  0  0
  186.7620  177.9040  146.2080 C   0  0  0  0  0  0  0  0  0  0  0  0
  186.0430  178.9670  145.5720 N   0  0  0  0  0  2  0  0  0  0  0  0
  187.8680  178.2320  147.1470 C   0  0  0  0  0  2  0  0  0  0  0  0
  189.0450  177.3070  146.9150 C   0  0  0  0  0  2  0  0  0  0  0  0
  189.8230  177.8080  145.8730 O   0  0  0  0  0  0  0  0  0  0  0  0
  191.0450  177.1500  145.9970 C   0  0  0  0  0  2  0  0  0  0  0  0
  192.1020  175.5040  147.3220 O   0  0  0  0  0  0  0  0  0  0  0  0
  192.3470  176.6830  147.9140 O   0  0  0  0  0  0  0  0  0  0  0  0
  191.1130  176.4610  147.3430 C   0  0  0  0  0  3  0  0  0  0  0  0
  188.4240  176.8510  138.4900 C   0  0  0  0  0  2  0  0  0  0  0  0
  186.6610  178.6690  138.6420 C   0  0  2  0  0  3  0  0  0  0  0  0
  186.5730  179.1370  137.2550 N   0  0  0  0  0  2  0  0  0  0  0  0
  186.9880  178.1170  136.2960 C   0  0  0  0  0  2  0  0  0  0  0  0
  188.5050  178.0700  136.2130 C   0  0  0  0  0  2  0  0  0  0  0  0
  188.0390  178.1830  139.1150 C   0  0  0  0  0  2  0  0  0  0  0  0
  189.1120  177.0070  137.1340 C   0  0  0  0  0  2  0  0  0  0  0  0
  184.0020  180.0220  139.0810 N   0  0  0  0  0  0  0  0  0  0  0  0
  184.1710  178.7380  138.6730 C   0  0  0  0  0  0  0  0  0  0  0  0
  183.1800  178.1250  137.8750 C   0  0  0  0  0  0  0  0  0  0  0  0
  181.9580  180.1860  137.9380 N   0  0  0  0  0  0  0  0  0  0  0  0
  182.9130  180.7440  138.7210 C   0  0  0  0  0  3  0  0  0  0  0  0
  182.0590  178.9020  137.5070 C   0  0  0  0  0  0  0  0  0  0  0  0
  181.0200  178.3720  136.6870 N   0  0  0  0  0  1  0  0  0  0  0  0
  182.9140  175.7640  138.1130 N   0  0  0  0  0  0  0  0  0  0  0  0
  183.3510  176.7620  137.4550 N   0  0  0  0  0  0  0  0  0  0  0  0
  183.6110  170.4830  136.3210 O   0  0  0  0  0  1  0  0  0  0  0  0
  183.4450  171.7880  136.7650 C   0  0  0  0  0  0  0  0  0  0  0  0
  182.1840  172.3880  136.7160 C   0  0  0  0  0  3  0  0  0  0  0  0
  182.0190  173.7050  137.1580 C   0  0  0  0  0  3  0  0  0  0  0  0
  184.5410  172.5030  137.2540 C   0  0  0  0  0  3  0  0  0  0  0  0
  184.3740  173.8180  137.6970 C   0  0  0  0  0  3  0  0  0  0  0  0
  183.1110  174.4270  137.6520 C   0  0  0  0  0  0  0  0  0  0  0  0
  1 30  1  1  0  0  0
  1  8  1  0  0  0  0
  2  7  1  0  0  0  0
  3 10  2  0  0  0  0
  4  2  1  0  0  0  0
  5  9  1  0  0  0  0
  6  4  1  0  0  0  0
  7 11  2  0  0  0  0
  7 14  1  0  0  0  0
  8  5  1  0  0  0  0
  8  6  1  0  0  0  0
  9  3  1  0  0  0  0
  9  2  2  0  0  0  0
 10 11  1  0  0  0  0
 12 13  2  0  0  0  0
 13 15  1  0  0  0  0
 14 13  1  0  0  0  0
 16 15  1  0  0  0  0
 17 18  1  0  0  0  0
 17 16  1  0  0  0  0
 18 21  1  0  0  0  0
 19 21  1  0  0  0  0
 19 20  1  0  0  0  0
 21 20  1  0  0  0  0
 22 27  1  0  0  0  0
 23 27  1  0  0  0  0
 23  1  1  6  0  0  0
 24 23  1  0  0  0  0
 25 24  1  0  0  0  0
 26 25  1  0  0  0  0
 26 28  1  0  0  0  0
 28 22  1  0  0  0  0
 30 29  2  0  0  0  0
 31 30  1  0  0  0  0
 32 33  2  0  0  0  0
 33 29  1  0  0  0  0
 34 31  2  0  0  0  0
 34 32  1  0  0  0  0
 35 34  1  0  0  0  0
 37 31  1  0  0  0  0
 37 36  2  0  0  0  0
 38 39  1  0  0  0  0
 39 42  1  0  0  0  0
 40 39  2  0  0  0  0
 40 41  1  0  0  0  0
 41 44  2  0  0  0  0
 42 43  2  0  0  0  0
 44 43  1  0  0  0  0
 44 36  1  0  0  0  0
M  END
>  <MODEL>
3

>  <REMARK>
 VINA RESULT:      -7.5      2.056      4.043
  Name = 
  11 active torsions:
  status: ('A' for Active; 'I' for Inactive)
    1  A    between atoms: C_5  and  C_41
    2  A    between atoms: N_7  and  C_24
    3  A    between atoms: C_9  and  C_41
    4  A    between atoms: O_10  and  C_37
    5  A    between atoms: O_10  and  C_43
    6  A    between atoms: C_11  and  N_27
    7  A    between atoms: C_28  and  N_39
    8  A    between atoms: N_31  and  C_41
    9  A    between atoms: C_32  and  C_37
   10  A    between atoms: C_32  and  C_38
   11  A    between atoms: C_35  and  C_43
                            x       y       z     vdW  Elec       q    Type
                         _______ _______ _______ _____ _____    ______ ____

>  <TORSDO>
F 11

$$$$
=
 OpenBabel10222415473D

 44 49  0  0  1  0  0  0  0  0999 V2000
  181.9420  178.0670  138.7460 C   0  0  2  0  0  3  0  0  0  0  0  0
  184.1630  178.5080  142.2980 C   0  0  0  0  0  0  0  0  0  0  0  0
  182.0330  178.8830  143.4060 C   0  0  0  0  0  3  0  0  0  0  0  0
  184.9110  178.1790  141.0370 C   0  0  0  0  0  2  0  0  0  0  0  0
  182.1070  178.4100  141.0330 O   0  0  0  0  0  0  0  0  0  0  0  0
  184.0520  178.4610  139.8020 C   0  0  0  0  0  2  0  0  0  0  0  0
  184.8400  178.7130  143.5150 C   0  0  0  0  0  0  0  0  0  0  0  0
  182.7430  177.8130  139.9550 N   0  0  0  0  0  0  0  0  0  0  0  0
  182.7630  178.5890  142.2540 C   0  0  0  0  0  0  0  0  0  0  0  0
  182.6990  179.0860  144.6140 C   0  0  0  0  0  3  0  0  0  0  0  0
  184.0930  179.0040  144.6660 C   0  0  0  0  0  3  0  0  0  0  0  0
  186.5610  176.7370  144.8720 O   0  0  0  0  0  0  0  0  0  0  0  0
  187.0800  177.7090  144.2620 C   0  0  0  0  0  0  0  0  0  0  0  0
  186.2740  178.6560  143.5500 N   0  0  0  0  0  2  0  0  0  0  0  0
  188.5590  177.8670  144.2650 C   0  0  0  0  0  2  0  0  0  0  0  0
  189.1920  176.8960  143.2890 C   0  0  0  0  0  2  0  0  0  0  0  0
  188.4710  176.9090  142.0970 O   0  0  0  0  0  0  0  0  0  0  0  0
  189.2060  177.7370  141.2490 C   0  0  0  0  0  2  0  0  0  0  0  0
  188.0290  178.6320  139.4070 O   0  0  0  0  0  0  0  0  0  0  0  0
  189.3050  178.4990  139.0140 O   0  0  0  0  0  0  0  0  0  0  0  0
  188.7460  177.5330  139.8210 C   0  0  0  0  0  3  0  0  0  0  0  0
  181.9070  181.3750  138.4500 C   0  0  0  0  0  2  0  0  0  0  0  0
  180.8340  179.1250  138.9220 C   0  0  2  0  0  3  0  0  0  0  0  0
  179.7630  179.0720  137.9230 N   0  0  0  0  0  2  0  0  0  0  0  0
  180.0470  179.9060  136.7580 C   0  0  0  0  0  2  0  0  0  0  0  0
  179.7230  181.3590  137.0680 C   0  0  0  0  0  2  0  0  0  0  0  0
  181.1870  180.5130  139.4760 C   0  0  0  0  0  2  0  0  0  0  0  0
  180.9480  182.1460  137.5430 C   0  0  0  0  0  2  0  0  0  0  0  0
  180.0990  176.4520  138.5780 N   0  0  0  0  0  0  0  0  0  0  0  0
  181.3430  176.8080  138.1630 C   0  0  0  0  0  0  0  0  0  0  0  0
  182.0550  175.9570  137.2880 C   0  0  0  0  0  0  0  0  0  0  0  0
  180.1630  174.4860  137.2970 N   0  0  0  0  0  0  0  0  0  0  0  0
  179.5090  175.3080  138.1530 C   0  0  0  0  0  3  0  0  0  0  0  0
  181.4140  174.7760  136.8550 C   0  0  0  0  0  0  0  0  0  0  0  0
  182.0490  173.8690  135.9550 N   0  0  0  0  0  1  0  0  0  0  0  0
  184.4380  175.9180  137.4310 N   0  0  0  0  0  0  0  0  0  0  0  0
  183.3750  176.3260  136.8600 N   0  0  0  0  0  0  0  0  0  0  0  0
  189.4840  177.5270  135.5500 O   0  0  0  0  0  1  0  0  0  0  0  0
  188.2400  177.1240  136.0160 C   0  0  0  0  0  0  0  0  0  0  0  0
  187.1730  178.0270  136.0320 C   0  0  0  0  0  3  0  0  0  0  0  0
  185.9210  177.6210  136.5080 C   0  0  0  0  0  3  0  0  0  0  0  0
  188.0570  175.8180  136.4750 C   0  0  0  0  0  3  0  0  0  0  0  0
  186.8050  175.4130  136.9470 C   0  0  0  0  0  3  0  0  0  0  0  0
  185.7290  176.3140  136.9660 C   0  0  0  0  0  0  0  0  0  0  0  0
  1 30  1  1  0  0  0
  1  8  1  0  0  0  0
  2  7  1  0  0  0  0
  3 10  2  0  0  0  0
  4  2  1  0  0  0  0
  5  9  1  0  0  0  0
  6  8  1  0  0  0  0
  6  4  1  0  0  0  0
  7 14  1  0  0  0  0
  7 11  2  0  0  0  0
  8  5  1  0  0  0  0
  9  2  2  0  0  0  0
  9  3  1  0  0  0  0
 10 11  1  0  0  0  0
 13 15  1  0  0  0  0
 13 12  2  0  0  0  0
 14 13  1  0  0  0  0
 16 15  1  0  0  0  0
 17 16  1  0  0  0  0
 18 17  1  0  0  0  0
 19 21  1  0  0  0  0
 20 19  1  0  0  0  0
 20 21  1  0  0  0  0
 21 18  1  0  0  0  0
 22 27  1  0  0  0  0
 23  1  1  6  0  0  0
 23 27  1  0  0  0  0
 24 23  1  0  0  0  0
 25 26  1  0  0  0  0
 25 24  1  0  0  0  0
 26 28  1  0  0  0  0
 28 22  1  0  0  0  0
 30 29  1  0  0  0  0
 31 30  2  0  0  0  0
 32 33  1  0  0  0  0
 33 29  2  0  0  0  0
 34 31  1  0  0  0  0
 34 32  2  0  0  0  0
 35 34  1  0  0  0  0
 37 31  1  0  0  0  0
 37 36  2  0  0  0  0
 38 39  1  0  0  0  0
 39 40  2  0  0  0  0
 39 42  1  0  0  0  0
 40 41  1  0  0  0  0
 41 44  2  0  0  0  0
 42 43  2  0  0  0  0
 43 44  1  0  0  0  0
 44 36  1  0  0  0  0
M  END
>  <MODEL>
4

>  <REMARK>
 VINA RESULT:      -7.5      2.627      5.957
  Name = 
  11 active torsions:
  status: ('A' for Active; 'I' for Inactive)
    1  A    between atoms: C_5  and  C_41
    2  A    between atoms: N_7  and  C_24
    3  A    between atoms: C_9  and  C_41
    4  A    between atoms: O_10  and  C_37
    5  A    between atoms: O_10  and  C_43
    6  A    between atoms: C_11  and  N_27
    7  A    between atoms: C_28  and  N_39
    8  A    between atoms: N_31  and  C_41
    9  A    between atoms: C_32  and  C_37
   10  A    between atoms: C_32  and  C_38
   11  A    between atoms: C_35  and  C_43
                            x       y       z     vdW  Elec       q    Type
                         _______ _______ _______ _____ _____    ______ ____

>  <TORSDO>
F 11

$$$$
=
 OpenBabel10222415473D

 44 49  0  0  1  0  0  0  0  0999 V2000
  181.8130  179.0560  140.4330 C   0  0  2  0  0  3  0  0  0  0  0  0
  184.8520  178.2060  143.2230 C   0  0  0  0  0  0  0  0  0  0  0  0
  183.3070  179.0010  144.9220 C   0  0  0  0  0  3  0  0  0  0  0  0
  185.1150  177.8900  141.7770 C   0  0  0  0  0  2  0  0  0  0  0  0
  182.6370  178.9390  142.5970 O   0  0  0  0  0  0  0  0  0  0  0  0
  184.1240  178.6210  140.8690 C   0  0  0  0  0  2  0  0  0  0  0  0
  185.8350  177.9910  144.2080 C   0  0  0  0  0  0  0  0  0  0  0  0
  182.7540  178.3740  141.3370 N   0  0  0  0  0  0  0  0  0  0  0  0
  183.5920  178.7050  143.5890 C   0  0  0  0  0  0  0  0  0  0  0  0
  184.2770  178.7880  145.9010 C   0  0  0  0  0  3  0  0  0  0  0  0
  185.5330  178.2890  145.5450 C   0  0  0  0  0  3  0  0  0  0  0  0
  188.4180  178.3940  145.5770 O   0  0  0  0  0  0  0  0  0  0  0  0
  188.3760  177.7630  144.4870 C   0  0  0  0  0  0  0  0  0  0  0  0
  187.1310  177.5060  143.8250 N   0  0  0  0  0  2  0  0  0  0  0  0
  189.6390  177.2600  143.8850 C   0  0  0  0  0  2  0  0  0  0  0  0
  189.3350  176.3480  142.7140 C   0  0  0  0  0  2  0  0  0  0  0  0
  189.8370  176.9180  141.5460 O   0  0  0  0  0  0  0  0  0  0  0  0
  188.7100  177.1720  140.7650 C   0  0  0  0  0  2  0  0  0  0  0  0
  189.3280  178.4340  138.8660 O   0  0  0  0  0  0  0  0  0  0  0  0
  188.0100  178.6230  139.0350 O   0  0  0  0  0  0  0  0  0  0  0  0
  188.8260  178.5470  140.1430 C   0  0  0  0  0  3  0  0  0  0  0  0
  180.2340  177.5790  142.9540 C   0  0  0  0  0  2  0  0  0  0  0  0
  180.3670  179.1470  140.9640 C   0  0  2  0  0  3  0  0  0  0  0  0
  180.0060  180.4380  141.5570 N   0  0  0  0  0  2  0  0  0  0  0  0
  180.2850  180.4910  142.9890 C   0  0  0  0  0  2  0  0  0  0  0  0
  179.1750  179.7940  143.7600 C   0  0  0  0  0  2  0  0  0  0  0  0
  179.6990  177.9030  141.5680 C   0  0  0  0  0  2  0  0  0  0  0  0
  179.5000  178.3290  144.0660 C   0  0  0  0  0  2  0  0  0  0  0  0
  182.3450  177.2310  138.8780 N   0  0  0  0  0  0  0  0  0  0  0  0
  181.7980  178.4630  139.0420 C   0  0  0  0  0  0  0  0  0  0  0  0
  181.3260  179.1720  137.9150 C   0  0  0  0  0  0  0  0  0  0  0  0
  181.9630  177.2990  136.5620 N   0  0  0  0  0  0  0  0  0  0  0  0
  182.4280  176.6490  137.6560 C   0  0  0  0  0  3  0  0  0  0  0  0
  181.4170  178.5390  136.6560 C   0  0  0  0  0  0  0  0  0  0  0  0
  180.9470  179.1700  135.4680 N   0  0  0  0  0  1  0  0  0  0  0  0
  181.2780  181.5390  137.6040 N   0  0  0  0  0  0  0  0  0  0  0  0
  180.7600  180.4810  138.0870 N   0  0  0  0  0  0  0  0  0  0  0  0
  178.9810  186.6080  138.3870 O   0  0  0  0  0  1  0  0  0  0  0  0
  179.5440  185.3530  138.1970 C   0  0  0  0  0  0  0  0  0  0  0  0
  180.7180  185.2190  137.4510 C   0  0  0  0  0  3  0  0  0  0  0  0
  181.2810  183.9540  137.2540 C   0  0  0  0  0  3  0  0  0  0  0  0
  178.9320  184.2240  138.7450 C   0  0  0  0  0  3  0  0  0  0  0  0
  179.4960  182.9600  138.5500 C   0  0  0  0  0  3  0  0  0  0  0  0
  180.6760  182.8180  137.8030 C   0  0  0  0  0  0  0  0  0  0  0  0
  1 30  1  6  0  0  0
  1  8  1  0  0  0  0
  2  9  2  0  0  0  0
  2  7  1  0  0  0  0
  3 10  2  0  0  0  0
  4  2  1  0  0  0  0
  5  9  1  0  0  0  0
  6  8  1  0  0  0  0
  6  4  1  0  0  0  0
  7 11  2  0  0  0  0
  8  5  1  0  0  0  0
  9  3  1  0  0  0  0
 11 10  1  0  0  0  0
 13 12  2  0  0  0  0
 14  7  1  0  0  0  0
 14 13  1  0  0  0  0
 15 13  1  0  0  0  0
 16 15  1  0  0  0  0
 17 16  1  0  0  0  0
 18 17  1  0  0  0  0
 19 20  1  0  0  0  0
 19 21  1  0  0  0  0
 20 21  1  0  0  0  0
 21 18  1  0  0  0  0
 22 28  1  0  0  0  0
 23  1  1  1  0  0  0
 23 24  1  0  0  0  0
 23 27  1  0  0  0  0
 24 25  1  0  0  0  0
 25 26  1  0  0  0  0
 26 28  1  0  0  0  0
 27 22  1  0  0  0  0
 29 30  1  0  0  0  0
 31 37  1  0  0  0  0
 31 30  2  0  0  0  0
 32 34  2  0  0  0  0
 32 33  1  0  0  0  0
 33 29  2  0  0  0  0
 34 31  1  0  0  0  0
 35 34  1  0  0  0  0
 36 44  1  0  0  0  0
 36 37  2  0  0  0  0
 39 38  1  0  0  0  0
 39 42  1  0  0  0  0
 40 39  2  0  0  0  0
 41 40  1  0  0  0  0
 41 44  2  0  0  0  0
 43 42  2  0  0  0  0
 44 43  1  0  0  0  0
M  END
>  <MODEL>
5

>  <REMARK>
 VINA RESULT:      -7.5      3.644      8.067
  Name = 
  11 active torsions:
  status: ('A' for Active; 'I' for Inactive)
    1  A    between atoms: C_5  and  C_41
    2  A    between atoms: N_7  and  C_24
    3  A    between atoms: C_9  and  C_41
    4  A    between atoms: O_10  and  C_37
    5  A    between atoms: O_10  and  C_43
    6  A    between atoms: C_11  and  N_27
    7  A    between atoms: C_28  and  N_39
    8  A    between atoms: N_31  and  C_41
    9  A    between atoms: C_32  and  C_37
   10  A    between atoms: C_32  and  C_38
   11  A    between atoms: C_35  and  C_43
                            x       y       z     vdW  Elec       q    Type
                         _______ _______ _______ _____ _____    ______ ____

>  <TORSDO>
F 11

$$$$
=
 OpenBabel10222415473D

 44 49  0  0  1  0  0  0  0  0999 V2000
  182.7490  179.1070  139.9400 C   0  0  2  0  0  3  0  0  0  0  0  0
  186.8690  178.6080  140.6580 C   0  0  0  0  0  0  0  0  0  0  0  0
  187.0680  178.1030  138.2890 C   0  0  0  0  0  3  0  0  0  0  0  0
  185.9990  179.0190  141.8120 C   0  0  0  0  0  2  0  0  0  0  0  0
  184.9160  178.6770  139.2380 O   0  0  0  0  0  0  0  0  0  0  0  0
  184.5230  178.7540  141.5040 C   0  0  0  0  0  2  0  0  0  0  0  0
  188.2480  178.3800  140.8280 C   0  0  0  0  0  0  0  0  0  0  0  0
  184.1780  179.3420  140.2050 N   0  0  0  0  0  0  0  0  0  0  0  0
  186.2910  178.4740  139.3860 C   0  0  0  0  0  0  0  0  0  0  0  0
  188.4340  177.8770  138.4530 C   0  0  0  0  0  3  0  0  0  0  0  0
  189.0180  178.0120  139.7150 C   0  0  0  0  0  3  0  0  0  0  0  0
  189.2690  176.2260  142.5700 O   0  0  0  0  0  0  0  0  0  0  0  0
  189.2710  177.4180  142.9770 C   0  0  0  0  0  0  0  0  0  0  0  0
  188.8310  178.4920  142.1370 N   0  0  0  0  0  2  0  0  0  0  0  0
  189.7570  177.7200  144.3500 C   0  0  0  0  0  2  0  0  0  0  0  0
  188.6150  177.6340  145.3410 C   0  0  0  0  0  2  0  0  0  0  0  0
  187.4350  178.0340  144.7170 O   0  0  0  0  0  0  0  0  0  0  0  0
  186.4300  177.7300  145.6340 C   0  0  0  0  0  2  0  0  0  0  0  0
  184.3360  178.4660  146.4440 O   0  0  0  0  0  0  0  0  0  0  0  0
  185.2170  179.4360  146.7320 O   0  0  0  0  0  0  0  0  0  0  0  0
  185.3270  178.7620  145.5360 C   0  0  0  0  0  3  0  0  0  0  0  0
  180.3390  180.1580  141.9690 C   0  0  0  0  0  2  0  0  0  0  0  0
  181.9850  178.4350  141.1000 C   0  0  2  0  0  3  0  0  0  0  0  0
  181.1050  177.3310  140.7040 N   0  0  0  0  0  2  0  0  0  0  0  0
  179.7530  177.7830  140.3880 C   0  0  0  0  0  2  0  0  0  0  0  0
  178.9620  177.9910  141.6690 C   0  0  0  0  0  2  0  0  0  0  0  0
  181.5320  179.2760  142.3020 C   0  0  0  0  0  2  0  0  0  0  0  0
  179.0000  179.4430  142.1560 C   0  0  0  0  0  2  0  0  0  0  0  0
  183.1480  177.1410  138.5220 N   0  0  0  0  0  0  0  0  0  0  0  0
  182.5070  178.3300  138.6660 C   0  0  0  0  0  0  0  0  0  0  0  0
  181.7240  178.8320  137.6030 C   0  0  0  0  0  0  0  0  0  0  0  0
  182.2740  176.8580  136.3610 N   0  0  0  0  0  0  0  0  0  0  0  0
  183.0360  176.4080  137.3880 C   0  0  0  0  0  3  0  0  0  0  0  0
  181.6180  178.0440  136.4360 C   0  0  0  0  0  0  0  0  0  0  0  0
  180.8330  178.4620  135.3220 N   0  0  0  0  0  1  0  0  0  0  0  0
  181.6630  181.2160  137.7300 N   0  0  0  0  0  0  0  0  0  0  0  0
  181.0580  180.0970  137.7500 N   0  0  0  0  0  0  0  0  0  0  0  0
  178.9430  186.0990  138.3180 O   0  0  0  0  0  1  0  0  0  0  0  0
  179.6100  184.8900  138.1760 C   0  0  0  0  0  0  0  0  0  0  0  0
  180.8070  184.8320  137.4570 C   0  0  0  0  0  3  0  0  0  0  0  0
  181.4760  183.6120  137.3090 C   0  0  0  0  0  3  0  0  0  0  0  0
  179.0810  183.7300  138.7450 C   0  0  0  0  0  3  0  0  0  0  0  0
  179.7510  182.5120  138.5990 C   0  0  0  0  0  3  0  0  0  0  0  0
  180.9540  182.4470  137.8800 C   0  0  0  0  0  0  0  0  0  0  0  0
  1 30  1  6  0  0  0
  1  8  1  0  0  0  0
  2  7  1  0  0  0  0
  2  4  1  0  0  0  0
  3 10  2  0  0  0  0
  3  9  1  0  0  0  0
  5  9  1  0  0  0  0
  5  8  1  0  0  0  0
  6  4  1  0  0  0  0
  7 14  1  0  0  0  0
  8  6  1  0  0  0  0
  9  2  2  0  0  0  0
 10 11  1  0  0  0  0
 11  7  2  0  0  0  0
 12 13  2  0  0  0  0
 13 15  1  0  0  0  0
 14 13  1  0  0  0  0
 15 16  1  0  0  0  0
 17 16  1  0  0  0  0
 17 18  1  0  0  0  0
 19 20  1  0  0  0  0
 21 18  1  0  0  0  0
 21 19  1  0  0  0  0
 21 20  1  0  0  0  0
 22 28  1  0  0  0  0
 22 27  1  0  0  0  0
 23  1  1  6  0  0  0
 23 27  1  0  0  0  0
 24 23  1  0  0  0  0
 25 24  1  0  0  0  0
 25 26  1  0  0  0  0
 26 28  1  0  0  0  0
 29 30  1  0  0  0  0
 31 37  1  0  0  0  0
 31 30  2  0  0  0  0
 32 34  2  0  0  0  0
 32 33  1  0  0  0  0
 33 29  2  0  0  0  0
 34 31  1  0  0  0  0
 35 34  1  0  0  0  0
 36 37  2  0  0  0  0
 36 44  1  0  0  0  0
 39 38  1  0  0  0  0
 39 42  1  0  0  0  0
 40 39  2  0  0  0  0
 41 40  1  0  0  0  0
 41 44  2  0  0  0  0
 43 42  2  0  0  0  0
 44 43  1  0  0  0  0
M  END
>  <MODEL>
6

>  <REMARK>
 VINA RESULT:      -7.4      3.327      6.959
  Name = 
  11 active torsions:
  status: ('A' for Active; 'I' for Inactive)
    1  A    between atoms: C_5  and  C_41
    2  A    between atoms: N_7  and  C_24
    3  A    between atoms: C_9  and  C_41
    4  A    between atoms: O_10  and  C_37
    5  A    between atoms: O_10  and  C_43
    6  A    between atoms: C_11  and  N_27
    7  A    between atoms: C_28  and  N_39
    8  A    between atoms: N_31  and  C_41
    9  A    between atoms: C_32  and  C_37
   10  A    between atoms: C_32  and  C_38
   11  A    between atoms: C_35  and  C_43
                            x       y       z     vdW  Elec       q    Type
                         _______ _______ _______ _____ _____    ______ ____

>  <TORSDO>
F 11

$$$$
=
 OpenBabel10222415473D

 44 49  0  0  1  0  0  0  0  0999 V2000
  182.0580  177.8710  138.8570 C   0  0  2  0  0  3  0  0  0  0  0  0
  184.2870  178.4640  142.3820 C   0  0  0  0  0  0  0  0  0  0  0  0
  182.1520  178.7530  143.5040 C   0  0  0  0  0  3  0  0  0  0  0  0
  185.0380  178.1520  141.1170 C   0  0  0  0  0  2  0  0  0  0  0  0
  182.2270  178.2530  141.1370 O   0  0  0  0  0  0  0  0  0  0  0  0
  184.1560  178.3770  139.8880 C   0  0  0  0  0  2  0  0  0  0  0  0
  184.9640  178.7170  143.5900 C   0  0  0  0  0  0  0  0  0  0  0  0
  182.8810  177.6710  140.0620 N   0  0  0  0  0  0  0  0  0  0  0  0
  182.8840  178.4780  142.3500 C   0  0  0  0  0  0  0  0  0  0  0  0
  182.8180  179.0040  144.7040 C   0  0  0  0  0  3  0  0  0  0  0  0
  184.2150  178.9880  144.7440 C   0  0  0  0  0  3  0  0  0  0  0  0
  186.7900  176.7810  144.8670 O   0  0  0  0  0  0  0  0  0  0  0  0
  187.2560  177.7960  144.2860 C   0  0  0  0  0  0  0  0  0  0  0  0
  186.4000  178.7270  143.6110 N   0  0  0  0  0  2  0  0  0  0  0  0
  188.7260  178.0250  144.2820 C   0  0  0  0  0  2  0  0  0  0  0  0
  189.4230  176.9660  145.1110 C   0  0  0  0  0  2  0  0  0  0  0  0
  190.6530  176.6640  144.5300 O   0  0  0  0  0  0  0  0  0  0  0  0
  191.5980  177.0790  145.4670 C   0  0  0  0  0  2  0  0  0  0  0  0
  192.4300  175.9450  147.3650 O   0  0  0  0  0  0  0  0  0  0  0  0
  191.9690  177.1270  147.8010 O   0  0  0  0  0  0  0  0  0  0  0  0
  191.2800  176.4610  146.8120 C   0  0  0  0  0  3  0  0  0  0  0  0
  181.9430  181.1780  138.5710 C   0  0  0  0  0  2  0  0  0  0  0  0
  180.9200  178.9000  139.0210 C   0  0  2  0  0  3  0  0  0  0  0  0
  179.8650  178.8230  138.0070 N   0  0  0  0  0  2  0  0  0  0  0  0
  180.1430  179.6680  136.8490 C   0  0  0  0  0  2  0  0  0  0  0  0
  179.7790  181.1110  137.1590 C   0  0  0  0  0  2  0  0  0  0  0  0
  181.2310  180.2950  139.5840 C   0  0  0  0  0  2  0  0  0  0  0  0
  180.9760  181.9280  137.6530 C   0  0  0  0  0  2  0  0  0  0  0  0
  180.3140  176.1420  138.8330 N   0  0  0  0  0  0  0  0  0  0  0  0
  181.4890  176.5810  138.3120 C   0  0  0  0  0  0  0  0  0  0  0  0
  182.1710  175.7850  137.3650 C   0  0  0  0  0  0  0  0  0  0  0  0
  180.3860  174.1940  137.5240 N   0  0  0  0  0  0  0  0  0  0  0  0
  179.7620  174.9650  138.4470 C   0  0  0  0  0  3  0  0  0  0  0  0
  181.5700  174.5680  136.9750 C   0  0  0  0  0  0  0  0  0  0  0  0
  182.1770  173.7130  136.0090 N   0  0  0  0  0  1  0  0  0  0  0  0
  184.5550  175.9020  137.2940 N   0  0  0  0  0  0  0  0  0  0  0  0
  183.4220  176.2430  136.8250 N   0  0  0  0  0  0  0  0  0  0  0  0
  189.3760  177.7930  135.1090 O   0  0  0  0  0  1  0  0  0  0  0  0
  188.1820  177.3290  135.6440 C   0  0  0  0  0  0  0  0  0  0  0  0
  188.1980  176.3930  136.6820 C   0  0  0  0  0  3  0  0  0  0  0  0
  186.9940  175.9220  137.2170 C   0  0  0  0  0  3  0  0  0  0  0  0
  186.9650  177.7930  135.1400 C   0  0  0  0  0  3  0  0  0  0  0  0
  185.7630  177.3240  135.6780 C   0  0  0  0  0  3  0  0  0  0  0  0
  185.7710  176.3850  136.7200 C   0  0  0  0  0  0  0  0  0  0  0  0
  1 30  1  1  0  0  0
  1  8  1  0  0  0  0
  2  7  1  0  0  0  0
  3 10  2  0  0  0  0
  4  2  1  0  0  0  0
  5  9  1  0  0  0  0
  6  8  1  0  0  0  0
  6  4  1  0  0  0  0
  7 14  1  0  0  0  0
  7 11  2  0  0  0  0
  8  5  1  0  0  0  0
  9  2  2  0  0  0  0
  9  3  1  0  0  0  0
 10 11  1  0  0  0  0
 13 12  2  0  0  0  0
 14 13  1  0  0  0  0
 15 13  1  0  0  0  0
 15 16  1  0  0  0  0
 17 16  1  0  0  0  0
 17 18  1  0  0  0  0
 18 21  1  0  0  0  0
 19 20  1  0  0  0  0
 21 19  1  0  0  0  0
 21 20  1  0  0  0  0
 22 27  1  0  0  0  0
 23  1  1  6  0  0  0
 23 27  1  0  0  0  0
 24 23  1  0  0  0  0
 25 26  1  0  0  0  0
 25 24  1  0  0  0  0
 26 28  1  0  0  0  0
 28 22  1  0  0  0  0
 30 29  2  0  0  0  0
 31 30  1  0  0  0  0
 32 33  2  0  0  0  0
 33 29  1  0  0  0  0
 34 31  2  0  0  0  0
 34 32  1  0  0  0  0
 35 34  1  0  0  0  0
 37 36  2  0  0  0  0
 37 31  1  0  0  0  0
 38 39  1  0  0  0  0
 39 40  1  0  0  0  0
 40 41  2  0  0  0  0
 42 39  2  0  0  0  0
 42 43  1  0  0  0  0
 43 44  2  0  0  0  0
 44 41  1  0  0  0  0
 44 36  1  0  0  0  0
M  END
>  <MODEL>
7

>  <REMARK>
 VINA RESULT:      -7.3      2.890      5.977
  Name = 
  11 active torsions:
  status: ('A' for Active; 'I' for Inactive)
    1  A    between atoms: C_5  and  C_41
    2  A    between atoms: N_7  and  C_24
    3  A    between atoms: C_9  and  C_41
    4  A    between atoms: O_10  and  C_37
    5  A    between atoms: O_10  and  C_43
    6  A    between atoms: C_11  and  N_27
    7  A    between atoms: C_28  and  N_39
    8  A    between atoms: N_31  and  C_41
    9  A    between atoms: C_32  and  C_37
   10  A    between atoms: C_32  and  C_38
   11  A    between atoms: C_35  and  C_43
                            x       y       z     vdW  Elec       q    Type
                         _______ _______ _______ _____ _____    ______ ____

>  <TORSDO>
F 11

$$$$
=
 OpenBabel10222415473D

 44 49  0  0  1  0  0  0  0  0999 V2000
  183.2920  177.3620  137.4400 C   0  0  2  0  0  3  0  0  0  0  0  0
  187.4840  177.7060  137.2100 C   0  0  0  0  0  0  0  0  0  0  0  0
  187.2420  177.2440  134.8370 C   0  0  0  0  0  3  0  0  0  0  0  0
  186.8310  177.9370  138.5440 C   0  0  0  0  0  2  0  0  0  0  0  0
  185.2880  177.3750  136.2600 O   0  0  0  0  0  0  0  0  0  0  0  0
  185.4060  177.3790  138.5580 C   0  0  0  0  0  2  0  0  0  0  0  0
  188.8830  177.7600  137.0630 C   0  0  0  0  0  0  0  0  0  0  0  0
  184.6690  177.8810  137.3920 N   0  0  0  0  0  0  0  0  0  0  0  0
  186.6730  177.4530  136.0930 C   0  0  0  0  0  0  0  0  0  0  0  0
  188.6270  177.2970  134.6870 C   0  0  0  0  0  3  0  0  0  0  0  0
  189.4410  177.5520  135.7940 C   0  0  0  0  0  3  0  0  0  0  0  0
  190.3760  175.7880  138.6730 O   0  0  0  0  0  0  0  0  0  0  0  0
  190.3820  177.0030  139.0040 C   0  0  0  0  0  0  0  0  0  0  0  0
  189.7100  177.9930  138.2150 N   0  0  0  0  0  2  0  0  0  0  0  0
  191.1150  177.4230  140.2280 C   0  0  0  0  0  2  0  0  0  0  0  0
  190.5250  176.7490  141.4500 C   0  0  0  0  0  2  0  0  0  0  0  0
  189.1830  177.1050  141.5670 O   0  0  0  0  0  0  0  0  0  0  0  0
  189.1190  177.8630  142.7350 C   0  0  0  0  0  2  0  0  0  0  0  0
  188.6260  177.6390  145.0350 O   0  0  0  0  0  0  0  0  0  0  0  0
  187.7640  176.8450  144.3820 O   0  0  0  0  0  0  0  0  0  0  0  0
  189.0630  176.9390  143.9330 C   0  0  0  0  0  3  0  0  0  0  0  0
  184.2340  174.1800  137.3060 C   0  0  0  0  0  2  0  0  0  0  0  0
  183.0030  176.2230  136.4410 C   0  0  2  0  0  3  0  0  0  0  0  0
  181.6110  175.7620  136.4130 N   0  0  0  0  0  2  0  0  0  0  0  0
  181.3650  174.6780  137.3600 C   0  0  0  0  0  2  0  0  0  0  0  0
  181.8420  173.3590  136.7730 C   0  0  0  0  0  2  0  0  0  0  0  0
  184.0810  175.1660  136.1580 C   0  0  0  0  0  2  0  0  0  0  0  0
  183.2650  173.0010  137.2110 C   0  0  0  0  0  2  0  0  0  0  0  0
  181.6250  178.5430  136.0750 N   0  0  0  0  0  0  0  0  0  0  0  0
  182.2490  178.4450  137.2780 C   0  0  0  0  0  0  0  0  0  0  0  0
  181.9750  179.3970  138.2850 C   0  0  0  0  0  0  0  0  0  0  0  0
  180.4240  180.4330  136.7800 N   0  0  0  0  0  0  0  0  0  0  0  0
  180.7210  179.5210  135.8230 C   0  0  0  0  0  3  0  0  0  0  0  0
  181.0230  180.4000  137.9980 C   0  0  0  0  0  0  0  0  0  0  0  0
  180.6680  181.3890  138.9610 N   0  0  0  0  0  1  0  0  0  0  0  0
  182.1170  178.7920  140.5900 N   0  0  0  0  0  0  0  0  0  0  0  0
  182.6460  179.3020  139.5510 N   0  0  0  0  0  0  0  0  0  0  0  0
  184.8680  178.5710  145.4860 O   0  0  0  0  0  1  0  0  0  0  0  0
  184.1930  178.6240  144.2740 C   0  0  0  0  0  0  0  0  0  0  0  0
  182.8370  178.9570  144.2430 C   0  0  0  0  0  3  0  0  0  0  0  0
  182.1560  179.0040  143.0210 C   0  0  0  0  0  3  0  0  0  0  0  0
  184.8700  178.3360  143.0870 C   0  0  0  0  0  3  0  0  0  0  0  0
  184.1900  178.3860  141.8660 C   0  0  0  0  0  3  0  0  0  0  0  0
  182.8280  178.7210  141.8270 C   0  0  0  0  0  0  0  0  0  0  0  0
  1 30  1  6  0  0  0
  2  4  1  0  0  0  0
  3  9  1  0  0  0  0
  4  6  1  0  0  0  0
  5  8  1  0  0  0  0
  7  2  1  0  0  0  0
  7 14  1  0  0  0  0
  8  1  1  0  0  0  0
  8  6  1  0  0  0  0
  9  5  1  0  0  0  0
  9  2  2  0  0  0  0
 10  3  2  0  0  0  0
 10 11  1  0  0  0  0
 11  7  2  0  0  0  0
 12 13  2  0  0  0  0
 13 15  1  0  0  0  0
 14 13  1  0  0  0  0
 15 16  1  0  0  0  0
 16 17  1  0  0  0  0
 17 18  1  0  0  0  0
 18 21  1  0  0  0  0
 20 19  1  0  0  0  0
 21 20  1  0  0  0  0
 21 19  1  0  0  0  0
 23  1  1  1  0  0  0
 24 23  1  0  0  0  0
 24 25  1  0  0  0  0
 26 28  1  0  0  0  0
 26 25  1  0  0  0  0
 27 23  1  0  0  0  0
 27 22  1  0  0  0  0
 28 22  1  0  0  0  0
 29 30  1  0  0  0  0
 30 31  2  0  0  0  0
 31 37  1  0  0  0  0
 32 34  2  0  0  0  0
 33 29  2  0  0  0  0
 33 32  1  0  0  0  0
 34 31  1  0  0  0  0
 34 35  1  0  0  0  0
 36 44  1  0  0  0  0
 37 36  2  0  0  0  0
 39 38  1  0  0  0  0
 40 39  1  0  0  0  0
 41 40  2  0  0  0  0
 42 39  2  0  0  0  0
 43 42  1  0  0  0  0
 44 43  2  0  0  0  0
 44 41  1  0  0  0  0
M  END
>  <MODEL>
8

>  <REMARK>
 VINA RESULT:      -7.1      2.267      6.381
  Name = 
  11 active torsions:
  status: ('A' for Active; 'I' for Inactive)
    1  A    between atoms: C_5  and  C_41
    2  A    between atoms: N_7  and  C_24
    3  A    between atoms: C_9  and  C_41
    4  A    between atoms: O_10  and  C_37
    5  A    between atoms: O_10  and  C_43
    6  A    between atoms: C_11  and  N_27
    7  A    between atoms: C_28  and  N_39
    8  A    between atoms: N_31  and  C_41
    9  A    between atoms: C_32  and  C_37
   10  A    between atoms: C_32  and  C_38
   11  A    between atoms: C_35  and  C_43
                            x       y       z     vdW  Elec       q    Type
                         _______ _______ _______ _____ _____    ______ ____

>  <TORSDO>
F 11

$$$$
=
 OpenBabel10222415473D

 44 49  0  0  1  0  0  0  0  0999 V2000
  181.4610  178.4660  137.6090 C   0  0  2  0  0  3  0  0  0  0  0  0
  183.9030  178.4580  141.0420 C   0  0  0  0  0  0  0  0  0  0  0  0
  185.7860  178.6520  139.5190 C   0  0  0  0  0  3  0  0  0  0  0  0
  182.4140  178.3960  141.2370 C   0  0  0  0  0  2  0  0  0  0  0  0
  183.5240  178.5950  138.6600 O   0  0  0  0  0  0  0  0  0  0  0  0
  181.7090  177.9920  139.9400 C   0  0  0  0  0  2  0  0  0  0  0  0
  184.7850  178.4160  142.1380 C   0  0  0  0  0  0  0  0  0  0  0  0
  182.1730  178.8470  138.8410 N   0  0  0  0  0  0  0  0  0  0  0  0
  184.4110  178.5820  139.7400 C   0  0  0  0  0  0  0  0  0  0  0  0
  186.6640  178.6120  140.6020 C   0  0  0  0  0  3  0  0  0  0  0  0
  186.1660  178.4920  141.9020 C   0  0  0  0  0  3  0  0  0  0  0  0
  184.8550  180.3480  144.3680 O   0  0  0  0  0  0  0  0  0  0  0  0
  184.3570  179.2040  144.5430 C   0  0  0  0  0  0  0  0  0  0  0  0
  184.2620  178.2620  143.4670 N   0  0  0  0  0  2  0  0  0  0  0  0
  183.8430  178.8290  145.8870 C   0  0  0  0  0  2  0  0  0  0  0  0
  184.9530  178.2330  146.7260 C   0  0  0  0  0  2  0  0  0  0  0  0
  185.6710  179.2610  147.3350 O   0  0  0  0  0  0  0  0  0  0  0  0
  187.0030  178.9950  147.0220 C   0  0  0  0  0  2  0  0  0  0  0  0
  188.4100  177.1440  147.4410 O   0  0  0  0  0  0  0  0  0  0  0  0
  188.9580  178.1900  148.0790 O   0  0  0  0  0  0  0  0  0  0  0  0
  187.5870  178.0580  148.0580 C   0  0  0  0  0  3  0  0  0  0  0  0
  180.9780  181.7520  137.5670 C   0  0  0  0  0  2  0  0  0  0  0  0
  180.2350  179.3420  137.2810 C   0  0  2  0  0  3  0  0  0  0  0  0
  179.8090  179.3100  135.8790 N   0  0  0  0  0  2  0  0  0  0  0  0
  180.4630  180.3370  135.0740 C   0  0  0  0  0  2  0  0  0  0  0  0
  179.7750  181.6770  135.2820 C   0  0  0  0  0  2  0  0  0  0  0  0
  180.0220  180.6650  138.0330 C   0  0  0  0  0  2  0  0  0  0  0  0
  180.4540  182.5280  136.3590 C   0  0  0  0  0  2  0  0  0  0  0  0
  179.8450  176.6890  138.1230 N   0  0  0  0  0  0  0  0  0  0  0  0
  181.0530  177.0100  137.5920 C   0  0  0  0  0  0  0  0  0  0  0  0
  181.9090  175.9830  137.1350 C   0  0  0  0  0  0  0  0  0  0  0  0
  180.2180  174.4000  137.7530 N   0  0  0  0  0  0  0  0  0  0  0  0
  179.4250  175.4020  138.2040 C   0  0  0  0  0  3  0  0  0  0  0  0
  181.4430  174.6530  137.2240 C   0  0  0  0  0  0  0  0  0  0  0  0
  182.2300  173.5550  136.7680 N   0  0  0  0  0  1  0  0  0  0  0  0
  184.2960  175.9960  137.1310 N   0  0  0  0  0  0  0  0  0  0  0  0
  183.1920  176.3220  136.5870 N   0  0  0  0  0  0  0  0  0  0  0  0
  189.2540  177.4230  134.9000 O   0  0  0  0  0  1  0  0  0  0  0  0
  188.0260  177.0730  135.4460 C   0  0  0  0  0  0  0  0  0  0  0  0
  187.9730  176.3450  136.6380 C   0  0  0  0  0  3  0  0  0  0  0  0
  186.7360  175.9880  137.1850 C   0  0  0  0  0  3  0  0  0  0  0  0
  186.8450  177.4420  134.8000 C   0  0  0  0  0  3  0  0  0  0  0  0
  185.6090  177.0870  135.3490 C   0  0  0  0  0  3  0  0  0  0  0  0
  185.5480  176.3570  136.5460 C   0  0  0  0  0  0  0  0  0  0  0  0
  1 30  1  1  0  0  0
  1  8  1  0  0  0  0
  2  4  1  0  0  0  0
  2  7  1  0  0  0  0
  3  9  1  0  0  0  0
  3 10  2  0  0  0  0
  5  8  1  0  0  0  0
  5  9  1  0  0  0  0
  6  4  1  0  0  0  0
  7 14  1  0  0  0  0
  8  6  1  0  0  0  0
  9  2  2  0  0  0  0
 10 11  1  0  0  0  0
 11  7  2  0  0  0  0
 12 13  2  0  0  0  0
 13 15  1  0  0  0  0
 14 13  1  0  0  0  0
 15 16  1  0  0  0  0
 16 17  1  0  0  0  0
 18 17  1  0  0  0  0
 18 21  1  0  0  0  0
 19 21  1  0  0  0  0
 19 20  1  0  0  0  0
 21 20  1  0  0  0  0
 22 27  1  0  0  0  0
 23  1  1  6  0  0  0
 23 27  1  0  0  0  0
 24 23  1  0  0  0  0
 25 26  1  0  0  0  0
 25 24  1  0  0  0  0
 26 28  1  0  0  0  0
 28 22  1  0  0  0  0
 29 33  1  0  0  0  0
 30 29  2  0  0  0  0
 31 34  2  0  0  0  0
 31 30  1  0  0  0  0
 32 33  2  0  0  0  0
 34 32  1  0  0  0  0
 35 34  1  0  0  0  0
 37 36  2  0  0  0  0
 37 31  1  0  0  0  0
 38 39  1  0  0  0  0
 39 40  1  0  0  0  0
 40 41  2  0  0  0  0
 42 43  1  0  0  0  0
 42 39  2  0  0  0  0
 43 44  2  0  0  0  0
 44 36  1  0  0  0  0
 44 41  1  0  0  0  0
M  END
>  <MODEL>
9

>  <REMARK>
 VINA RESULT:      -6.7      2.968      5.563
  Name = 
  11 active torsions:
  status: ('A' for Active; 'I' for Inactive)
    1  A    between atoms: C_5  and  C_41
    2  A    between atoms: N_7  and  C_24
    3  A    between atoms: C_9  and  C_41
    4  A    between atoms: O_10  and  C_37
    5  A    between atoms: O_10  and  C_43
    6  A    between atoms: C_11  and  N_27
    7  A    between atoms: C_28  and  N_39
    8  A    between atoms: N_31  and  C_41
    9  A    between atoms: C_32  and  C_37
   10  A    between atoms: C_32  and  C_38
   11  A    between atoms: C_35  and  C_43
                            x       y       z     vdW  Elec       q    Type
                         _______ _______ _______ _____ _____    ______ ____

>  <TORSDO>
F 11

$$$$
