=
 OpenBabel10222419133D

 56 63  0  0  1  0  0  0  0  0999 V2000
  185.8400  177.5980  137.9240 C   0  0  0  0  0  3  0  0  0  0  0  0
  188.8840  177.7110  137.2650 S   0  0  0  0  0  0  0  0  0  0  0  0
  183.2580  179.1710  138.6760 C   0  0  0  0  0  0  0  0  0  0  0  0
  187.5340  178.4090  139.5740 C   0  0  0  0  0  0  0  0  0  0  0  0
  184.0380  179.1380  139.9390 C   0  0  0  0  0  3  0  0  0  0  0  0
  186.1860  178.2290  139.0460 C   0  0  0  0  0  0  0  0  0  0  0  0
  189.9990  178.3470  139.6470 C   0  0  0  0  0  2  0  0  0  0  0  0
  188.7060  178.2320  138.9430 C   0  0  0  0  0  0  0  0  0  0  0  0
  185.2790  178.6640  140.1070 C   0  0  0  0  0  0  0  0  0  0  0  0
  187.4600  178.8170  140.9400 N   0  0  0  0  0  2  0  0  0  0  0  0
  184.4300  177.1970  137.6380 C   0  0  0  0  0  2  0  0  0  0  0  0
  183.4720  178.3470  137.6420 C   0  0  0  0  0  3  0  0  0  0  0  0
  186.0630  178.9080  141.3660 C   0  0  2  0  0  3  0  0  0  0  0  0
  190.4020  176.8610  137.7920 C   0  0  1  0  0  3  0  0  0  0  0  0
  190.9620  177.4400  139.0220 N   0  0  0  0  0  2  0  0  0  0  0  0
  179.8590  180.8340  138.3920 C   0  0  0  0  0  3  0  0  0  0  0  0
  182.1970  180.1900  138.5610 C   0  0  0  0  0  0  0  0  0  0  0  0
  181.5810  182.5350  138.3500 C   0  0  0  0  0  0  0  0  0  0  0  0
  180.8320  179.8390  138.5100 C   0  0  0  0  0  0  0  0  0  0  0  0
  180.4300  178.5090  138.5790 O   0  0  0  0  0  1  0  0  0  0  0  0
  180.2230  182.1810  138.3160 C   0  0  0  0  0  0  0  0  0  0  0  0
  182.5560  181.5420  138.4760 C   0  0  0  0  0  3  0  0  0  0  0  0
  181.9610  183.8290  138.2220 F   0  0  0  0  0  0  0  0  0  0  0  0
  179.1470  183.2110  138.1550 C   0  0  0  0  0  2  0  0  0  0  0  0
  179.4180  184.9010  136.5590 C   0  0  0  0  0  2  0  0  0  0  0  0
  180.5290  183.5420  134.9580 C   0  0  0  0  0  2  0  0  0  0  0  0
  179.7870  182.6730  135.9430 C   0  0  0  0  0  2  0  0  0  0  0  0
  180.6470  184.8550  135.6720 C   0  0  0  0  0  2  0  0  0  0  0  0
  178.9310  183.5390  136.7490 N   0  0  0  0  0  0  0  0  0  0  0  0
  190.1670  175.3570  137.9310 C   0  0  2  0  0  3  0  0  0  0  0  0
  191.3130  174.7090  138.4010 O   0  0  0  0  0  1  0  0  0  0  0  0
  189.7790  174.7970  136.6430 N   0  0  0  0  0  2  0  0  0  0  0  0
  192.1550  172.8280  134.7340 C   0  0  2  0  0  3  0  0  0  0  0  0
  189.8890  172.5640  135.5850 C   0  0  1  0  0  3  0  0  0  0  0  0
  191.0200  171.8270  134.9000 C   0  0  0  0  0  2  0  0  0  0  0  0
  190.6000  173.6120  136.4310 C   0  0  1  0  0  3  0  0  0  0  0  0
  192.9500  172.9380  136.0230 C   0  0  2  0  0  3  0  0  0  0  0  0
  189.0930  173.1770  134.6080 O   0  0  0  0  0  1  0  0  0  0  0  0
  191.8790  173.9680  135.6980 C   0  0  1  0  0  3  0  0  0  0  0  0
  195.0640  174.0420  136.8490 N   0  0  0  0  0  2  0  0  0  0  0  0
  196.4000  174.5840  136.6640 C   0  0  0  0  0  1  0  0  0  0  0  0
  194.7810  173.4960  134.5940 O   0  0  0  0  0  0  0  0  0  0  0  0
  194.3000  173.5180  135.7600 C   0  0  0  0  0  0  0  0  0  0  0  0
  184.4450  178.0810  143.1230 C   0  0  0  0  0  1  0  0  0  0  0  0
  185.7750  177.8380  142.4280 C   0  0  2  0  0  3  0  0  0  0  0  0
  187.9980  177.2300  143.2410 N   0  0  0  0  0  0  0  0  0  0  0  0
  188.7950  177.2420  144.4630 C   0  0  2  0  0  3  0  0  0  0  0  0
  186.6620  178.2860  144.7910 N   0  0  0  0  0  2  0  0  0  0  0  0
  186.8530  177.8020  143.4630 C   0  0  0  0  0  0  0  0  0  0  0  0
  187.8890  177.9450  145.4100 C   0  0  0  0  0  0  0  0  0  0  0  0
  188.1350  178.1680  146.6240 O   0  0  0  0  0  0  0  0  0  0  0  0
  190.1180  178.6540  143.0660 O   0  0  0  0  0  1  0  0  0  0  0  0
  190.1550  177.9330  144.2630 C   0  0  2  0  0  3  0  0  0  0  0  0
  191.5120  176.3190  145.6250 C   0  0  0  0  0  1  0  0  0  0  0  0
  191.3610  176.9780  144.2630 C   0  0  1  0  0  3  0  0  0  0  0  0
  191.1970  175.9810  143.2980 O   0  0  0  0  0  1  0  0  0  0  0  0
  1  6  2  0  0  0  0
  2 14  1  0  0  0  0
  2  8  1  0  0  0  0
  3  5  1  0  0  0  0
  4 10  1  0  0  0  0
  5  9  2  0  0  0  0
  6  4  1  0  0  0  0
  6  9  1  0  0  0  0
  8  4  2  0  0  0  0
  8  7  1  0  0  0  0
  9 13  1  0  0  0  0
 10 13  1  0  0  0  0
 11 12  1  0  0  0  0
 11  1  1  0  0  0  0
 12  3  2  0  0  0  0
 13 45  1  1  0  0  0
 14 30  1  1  0  0  0
 14 15  1  0  0  0  0
 15  7  1  0  0  0  0
 16 19  1  0  0  0  0
 17  3  1  0  0  0  0
 18 22  2  0  0  0  0
 19 17  2  0  0  0  0
 19 20  1  0  0  0  0
 21 18  1  0  0  0  0
 21 16  2  0  0  0  0
 22 17  1  0  0  0  0
 23 18  1  0  0  0  0
 24 21  1  0  0  0  0
 25 29  1  0  0  0  0
 26 28  1  0  0  0  0
 26 27  1  0  0  0  0
 27 29  1  0  0  0  0
 28 25  1  0  0  0  0
 29 24  1  0  0  0  0
 30 31  1  6  0  0  0
 32 30  1  0  0  0  0
 33 35  1  1  0  0  0
 33 39  1  0  0  0  0
 33 37  1  0  0  0  0
 34 38  1  6  0  0  0
 34 36  1  0  0  0  0
 35 34  1  0  0  0  0
 36 32  1  6  0  0  0
 37 43  1  6  0  0  0
 39 37  1  0  0  0  0
 39 36  1  0  0  0  0
 41 40  1  0  0  0  0
 42 43  2  0  0  0  0
 43 40  1  0  0  0  0
 45 44  1  0  0  0  0
 45 49  1  0  0  0  0
 46 49  2  0  0  0  0
 46 47  1  0  0  0  0
 47 50  1  0  0  0  0
 48 50  1  0  0  0  0
 49 48  1  0  0  0  0
 50 51  2  0  0  0  0
 52 53  1  0  0  0  0
 53 55  1  0  0  0  0
 53 47  1  0  0  0  0
 55 54  1  0  0  0  0
 56 55  1  0  0  0  0
M  END
>  <MODEL>
1

>  <REMARK>
 VINA RESULT:      -8.2      0.000      0.000
  Name = 
  11 active torsions:
  status: ('A' for Active; 'I' for Inactive)
    1  A    between atoms: C_4  and  C_41
    2  A    between atoms: C_4  and  N_56
    3  A    between atoms: C_7  and  C_22
    4  A    between atoms: C_9  and  C_47
    5  A    between atoms: C_9  and  N_48
    6  A    between atoms: C_10  and  C_32
    7  A    between atoms: C_23  and  N_48
    8  A    between atoms: C_29  and  C_32
    9  A    between atoms: C_31  and  C_37
   10  A    between atoms: C_37  and  C_45
   11  A    between atoms: C_39  and  C_52
                            x       y       z     vdW  Elec       q    Type
                         _______ _______ _______ _____ _____    ______ ____

>  <TORSDO>
F 11

$$$$
=
 OpenBabel10222419133D

 56 63  0  0  1  0  0  0  0  0999 V2000
  187.8290  177.1110  138.7250 C   0  0  0  0  0  3  0  0  0  0  0  0
  185.2640  178.7630  138.0840 S   0  0  0  0  0  0  0  0  0  0  0  0
  190.4960  175.8930  137.6710 C   0  0  0  0  0  0  0  0  0  0  0  0
  186.1260  176.3410  137.0640 C   0  0  0  0  0  0  0  0  0  0  0  0
  189.4500  174.9900  137.1280 C   0  0  0  0  0  3  0  0  0  0  0  0
  187.4310  176.3340  137.7170 C   0  0  0  0  0  0  0  0  0  0  0  0
  183.8430  177.0900  136.5020 C   0  0  0  0  0  2  0  0  0  0  0  0
  185.1640  177.2760  137.1350 C   0  0  0  0  0  0  0  0  0  0  0  0
  188.1240  175.1510  137.2130 C   0  0  0  0  0  0  0  0  0  0  0  0
  185.9740  175.1520  136.2900 N   0  0  0  0  0  2  0  0  0  0  0  0
  189.0560  176.8140  139.5220 C   0  0  0  0  0  2  0  0  0  0  0  0
  190.3000  176.7350  138.6940 C   0  0  0  0  0  3  0  0  0  0  0  0
  187.1650  174.3110  136.4150 C   0  0  2  0  0  3  0  0  0  0  0  0
  183.4710  178.6060  138.3380 C   0  0  1  0  0  3  0  0  0  0  0  0
  182.8330  177.7910  137.2940 N   0  0  0  0  0  2  0  0  0  0  0  0
  193.2550  176.0560  135.0710 C   0  0  0  0  0  3  0  0  0  0  0  0
  191.8230  175.8610  137.0250 C   0  0  0  0  0  0  0  0  0  0  0  0
  194.2210  175.5000  137.2190 C   0  0  0  0  0  0  0  0  0  0  0  0
  191.9820  176.1050  135.6450 C   0  0  0  0  0  0  0  0  0  0  0  0
  190.8890  176.4010  134.8370 O   0  0  0  0  0  1  0  0  0  0  0  0
  194.3770  175.7600  135.8480 C   0  0  0  0  0  0  0  0  0  0  0  0
  192.9510  175.5560  137.7980 C   0  0  0  0  0  3  0  0  0  0  0  0
  195.2860  175.1560  137.9820 F   0  0  0  0  0  0  0  0  0  0  0  0
  195.7170  175.6850  135.1820 C   0  0  0  0  0  2  0  0  0  0  0  0
  196.5280  173.4910  135.2770 C   0  0  0  0  0  2  0  0  0  0  0  0
  198.8270  174.0870  135.2850 C   0  0  0  0  0  2  0  0  0  0  0  0
  197.9890  175.2730  135.6920 C   0  0  0  0  0  2  0  0  0  0  0  0
  197.8470  173.1870  134.5950 C   0  0  0  0  0  2  0  0  0  0  0  0
  196.6240  174.8030  135.9100 N   0  0  0  0  0  0  0  0  0  0  0  0
  183.1620  178.0770  139.7380 C   0  0  2  0  0  3  0  0  0  0  0  0
  183.4670  176.7160  139.8410 O   0  0  0  0  0  1  0  0  0  0  0  0
  181.7530  178.2880  140.0450 N   0  0  0  0  0  2  0  0  0  0  0  0
  181.4130  178.9300  143.6000 C   0  0  2  0  0  3  0  0  0  0  0  0
  180.2740  179.5790  141.5490 C   0  0  1  0  0  3  0  0  0  0  0  0
  180.3280  179.8400  143.0390 C   0  0  0  0  0  2  0  0  0  0  0  0
  181.7000  179.1780  141.1980 C   0  0  1  0  0  3  0  0  0  0  0  0
  182.7810  179.5570  143.3960 C   0  0  2  0  0  3  0  0  0  0  0  0
  179.3900  178.5180  141.3090 O   0  0  0  0  0  1  0  0  0  0  0  0
  182.2750  178.5000  142.4270 C   0  0  1  0  0  3  0  0  0  0  0  0
  185.0170  178.4590  143.8010 N   0  0  0  0  0  2  0  0  0  0  0  0
  186.0470  177.8930  144.6560 C   0  0  0  0  0  1  0  0  0  0  0  0
  183.5560  178.9220  145.5640 O   0  0  0  0  0  0  0  0  0  0  0  0
  183.7810  178.9510  144.3240 C   0  0  0  0  0  0  0  0  0  0  0  0
  187.8070  171.9060  136.8490 C   0  0  0  0  0  1  0  0  0  0  0  0
  186.8070  173.0100  137.1470 C   0  0  2  0  0  3  0  0  0  0  0  0
  184.4300  172.6320  137.5680 N   0  0  0  0  0  0  0  0  0  0  0  0
  183.2690  171.9770  136.9750 C   0  0  2  0  0  3  0  0  0  0  0  0
  185.1850  171.8420  135.5420 N   0  0  0  0  0  2  0  0  0  0  0  0
  185.4430  172.5350  136.7620 C   0  0  0  0  0  0  0  0  0  0  0  0
  183.8160  171.5080  135.6740 C   0  0  0  0  0  0  0  0  0  0  0  0
  183.1800  170.8460  134.8120 O   0  0  0  0  0  0  0  0  0  0  0  0
  182.3300  174.0840  137.5880 O   0  0  0  0  0  1  0  0  0  0  0  0
  182.0670  172.9290  136.8460 C   0  0  2  0  0  3  0  0  0  0  0  0
  179.8040  173.4050  137.8210 C   0  0  0  0  0  1  0  0  0  0  0  0
  180.7230  172.3210  137.2790 C   0  0  1  0  0  3  0  0  0  0  0  0
  180.0940  171.6990  136.1990 O   0  0  0  0  0  1  0  0  0  0  0  0
  1 11  1  0  0  0  0
  2 14  1  0  0  0  0
  3 12  2  0  0  0  0
  4  8  2  0  0  0  0
  4  6  1  0  0  0  0
  5  9  2  0  0  0  0
  5  3  1  0  0  0  0
  6  1  2  0  0  0  0
  7  8  1  0  0  0  0
  7 15  1  0  0  0  0
  8  2  1  0  0  0  0
  9  6  1  0  0  0  0
 10 13  1  0  0  0  0
 10  4  1  0  0  0  0
 12 11  1  0  0  0  0
 13 45  1  1  0  0  0
 13  9  1  0  0  0  0
 14 30  1  1  0  0  0
 15 14  1  0  0  0  0
 16 19  2  0  0  0  0
 16 21  1  0  0  0  0
 17  3  1  0  0  0  0
 17 22  2  0  0  0  0
 18 22  1  0  0  0  0
 18 23  1  0  0  0  0
 19 17  1  0  0  0  0
 20 19  1  0  0  0  0
 21 18  2  0  0  0  0
 24 21  1  0  0  0  0
 24 29  1  0  0  0  0
 25 29  1  0  0  0  0
 26 27  1  0  0  0  0
 27 29  1  0  0  0  0
 28 25  1  0  0  0  0
 28 26  1  0  0  0  0
 30 31  1  6  0  0  0
 30 32  1  0  0  0  0
 33 35  1  6  0  0  0
 34 38  1  1  0  0  0
 34 35  1  0  0  0  0
 36 32  1  6  0  0  0
 36 34  1  0  0  0  0
 36 39  1  0  0  0  0
 37 33  1  0  0  0  0
 37 43  1  1  0  0  0
 39 37  1  0  0  0  0
 39 33  1  0  0  0  0
 40 43  1  0  0  0  0
 40 41  1  0  0  0  0
 43 42  2  0  0  0  0
 44 45  1  0  0  0  0
 47 46  1  0  0  0  0
 48 50  1  0  0  0  0
 48 49  1  0  0  0  0
 49 45  1  0  0  0  0
 49 46  2  0  0  0  0
 50 47  1  0  0  0  0
 51 50  2  0  0  0  0
 53 47  1  0  0  0  0
 53 55  1  0  0  0  0
 53 52  1  0  0  0  0
 55 54  1  0  0  0  0
 56 55  1  0  0  0  0
M  END
>  <MODEL>
2

>  <REMARK>
 VINA RESULT:      -7.4      4.395     12.314
  Name = 
  11 active torsions:
  status: ('A' for Active; 'I' for Inactive)
    1  A    between atoms: C_4  and  C_41
    2  A    between atoms: C_4  and  N_56
    3  A    between atoms: C_7  and  C_22
    4  A    between atoms: C_9  and  C_47
    5  A    between atoms: C_9  and  N_48
    6  A    between atoms: C_10  and  C_32
    7  A    between atoms: C_23  and  N_48
    8  A    between atoms: C_29  and  C_32
    9  A    between atoms: C_31  and  C_37
   10  A    between atoms: C_37  and  C_45
   11  A    between atoms: C_39  and  C_52
                            x       y       z     vdW  Elec       q    Type
                         _______ _______ _______ _____ _____    ______ ____

>  <TORSDO>
F 11

$$$$
=
 OpenBabel10222419133D

 56 63  0  0  1  0  0  0  0  0999 V2000
  189.1400  176.8300  138.8190 C   0  0  0  0  0  3  0  0  0  0  0  0
  186.7650  178.8220  138.4950 S   0  0  0  0  0  0  0  0  0  0  0  0
  191.5520  175.3820  137.4800 C   0  0  0  0  0  0  0  0  0  0  0  0
  187.2420  176.3990  137.2510 C   0  0  0  0  0  0  0  0  0  0  0  0
  190.3660  174.6560  136.9620 C   0  0  0  0  0  3  0  0  0  0  0  0
  188.5780  176.1850  137.7970 C   0  0  0  0  0  0  0  0  0  0  0  0
  185.0370  177.4570  136.9220 C   0  0  0  0  0  2  0  0  0  0  0  0
  186.4120  177.4340  137.4600 C   0  0  1  0  0  3  0  0  0  0  0  0
  189.0790  174.9680  137.1620 C   0  0  0  0  0  0  0  0  0  0  0  0
  186.8880  175.2990  136.4140 N   0  0  0  0  0  0  0  0  0  0  0  0
  190.3730  176.3270  139.4950 C   0  0  0  0  0  2  0  0  0  0  0  0
  191.5360  176.1620  138.5680 C   0  0  0  0  0  3  0  0  0  0  0  0
  187.9690  174.3130  136.3880 C   0  0  2  0  0  3  0  0  0  0  0  0
  184.9890  178.8640  138.8790 C   0  0  1  0  0  3  0  0  0  0  0  0
  184.1820  178.2120  137.8370 N   0  0  0  0  0  2  0  0  0  0  0  0
  194.5590  173.8850  135.7130 C   0  0  0  0  0  3  0  0  0  0  0  0
  192.8160  175.2400  136.7300 C   0  0  0  0  0  0  0  0  0  0  0  0
  194.7160  176.2990  135.6400 C   0  0  0  0  0  0  0  0  0  0  0  0
  193.3560  173.9750  136.4170 C   0  0  0  0  0  0  0  0  0  0  0  0
  192.7070  172.8040  136.7960 O   0  0  0  0  0  1  0  0  0  0  0  0
  195.2420  175.0380  135.3180 C   0  0  0  0  0  0  0  0  0  0  0  0
  193.5090  176.3930  136.3370 C   0  0  0  0  0  3  0  0  0  0  0  0
  195.3880  177.4300  135.3170 F   0  0  0  0  0  0  0  0  0  0  0  0
  196.5460  174.8910  134.5950 C   0  0  0  0  0  2  0  0  0  0  0  0
  197.2160  174.9770  136.8360 C   0  0  0  0  0  2  0  0  0  0  0  0
  199.1800  173.6730  136.5490 C   0  0  0  0  0  2  0  0  0  0  0  0
  198.7260  174.2160  135.2160 C   0  0  0  0  0  2  0  0  0  0  0  0
  197.9560  173.7840  137.4060 C   0  0  0  0  0  2  0  0  0  0  0  0
  197.6750  175.1980  135.4680 N   0  0  0  0  0  0  0  0  0  0  0  0
  184.7150  178.2700  140.2600 C   0  0  2  0  0  3  0  0  0  0  0  0
  183.8110  177.2070  140.1810 O   0  0  0  0  0  1  0  0  0  0  0  0
  184.1840  179.3010  141.1430 N   0  0  0  0  0  2  0  0  0  0  0  0
  186.1270  177.6200  143.7060 C   0  0  2  0  0  3  0  0  0  0  0  0
  184.1880  179.0880  143.6070 C   0  0  1  0  0  3  0  0  0  0  0  0
  185.1550  178.4200  144.5620 C   0  0  0  0  0  2  0  0  0  0  0  0
  185.0110  179.2970  142.3440 C   0  0  1  0  0  3  0  0  0  0  0  0
  187.2180  178.5270  143.1650 C   0  0  2  0  0  3  0  0  0  0  0  0
  183.1200  178.2130  143.3620 O   0  0  0  0  0  1  0  0  0  0  0  0
  186.0250  178.1700  142.2940 C   0  0  1  0  0  3  0  0  0  0  0  0
  188.7270  176.5230  143.4430 N   0  0  0  0  0  2  0  0  0  0  0  0
  189.8460  175.6800  143.0570 C   0  0  0  0  0  1  0  0  0  0  0  0
  189.0870  178.0860  141.7440 O   0  0  0  0  0  0  0  0  0  0  0  0
  188.4060  177.7270  142.7430 C   0  0  0  0  0  0  0  0  0  0  0  0
  188.3510  171.8270  136.6300 C   0  0  0  0  0  1  0  0  0  0  0  0
  187.5030  173.0140  137.0570 C   0  0  2  0  0  3  0  0  0  0  0  0
  185.1200  172.9060  137.5880 N   0  0  0  0  0  0  0  0  0  0  0  0
  183.8610  172.4200  137.0340 C   0  0  2  0  0  3  0  0  0  0  0  0
  185.6760  172.1160  135.4990 N   0  0  0  0  0  2  0  0  0  0  0  0
  186.0740  172.7210  136.7280 C   0  0  0  0  0  0  0  0  0  0  0  0
  184.2840  171.9430  135.6910 C   0  0  0  0  0  0  0  0  0  0  0  0
  183.5310  171.3990  134.8400 O   0  0  0  0  0  0  0  0  0  0  0  0
  183.1130  174.5010  137.9350 O   0  0  0  0  0  1  0  0  0  0  0  0
  182.7790  173.5150  137.0010 C   0  0  2  0  0  3  0  0  0  0  0  0
  180.5190  173.0990  135.9910 C   0  0  0  0  0  1  0  0  0  0  0  0
  181.3510  173.0070  137.2610 C   0  0  1  0  0  3  0  0  0  0  0  0
  181.3730  171.6780  137.6880 O   0  0  0  0  0  1  0  0  0  0  0  0
  1 11  1  0  0  0  0
  2 14  1  0  0  0  0
  3 12  2  0  0  0  0
  4  6  1  0  0  0  0
  5  9  2  0  0  0  0
  5  3  1  0  0  0  0
  6  1  2  0  0  0  0
  7  8  1  0  0  0  0
  7 15  1  0  0  0  0
  8  4  1  1  0  0  0
  8  2  1  0  0  0  0
  9  6  1  0  0  0  0
 10  4  2  0  0  0  0
 12 11  1  0  0  0  0
 13 10  1  0  0  0  0
 13 45  1  1  0  0  0
 13  9  1  0  0  0  0
 14 30  1  1  0  0  0
 15 14  1  0  0  0  0
 16 19  1  0  0  0  0
 17  3  1  0  0  0  0
 18 22  2  0  0  0  0
 19 17  2  0  0  0  0
 19 20  1  0  0  0  0
 21 18  1  0  0  0  0
 21 16  2  0  0  0  0
 22 17  1  0  0  0  0
 23 18  1  0  0  0  0
 24 21  1  0  0  0  0
 24 29  1  0  0  0  0
 25 28  1  0  0  0  0
 26 28  1  0  0  0  0
 27 29  1  0  0  0  0
 27 26  1  0  0  0  0
 29 25  1  0  0  0  0
 30 31  1  6  0  0  0
 30 32  1  0  0  0  0
 33 35  1  1  0  0  0
 34 38  1  6  0  0  0
 34 35  1  0  0  0  0
 36 32  1  6  0  0  0
 36 34  1  0  0  0  0
 37 43  1  6  0  0  0
 37 33  1  0  0  0  0
 39 36  1  0  0  0  0
 39 37  1  0  0  0  0
 39 33  1  0  0  0  0
 41 40  1  0  0  0  0
 42 43  2  0  0  0  0
 43 40  1  0  0  0  0
 44 45  1  0  0  0  0
 47 46  1  0  0  0  0
 48 50  1  0  0  0  0
 48 49  1  0  0  0  0
 49 45  1  0  0  0  0
 49 46  2  0  0  0  0
 50 47  1  0  0  0  0
 51 50  2  0  0  0  0
 53 47  1  0  0  0  0
 53 55  1  0  0  0  0
 53 52  1  0  0  0  0
 54 55  1  0  0  0  0
 55 56  1  0  0  0  0
M  END
>  <MODEL>
3

>  <REMARK>
 VINA RESULT:      -7.3      4.156     11.822
  Name = 
  11 active torsions:
  status: ('A' for Active; 'I' for Inactive)
    1  A    between atoms: C_4  and  C_41
    2  A    between atoms: C_4  and  N_56
    3  A    between atoms: C_7  and  C_22
    4  A    between atoms: C_9  and  C_47
    5  A    between atoms: C_9  and  N_48
    6  A    between atoms: C_10  and  C_32
    7  A    between atoms: C_23  and  N_48
    8  A    between atoms: C_29  and  C_32
    9  A    between atoms: C_31  and  C_37
   10  A    between atoms: C_37  and  C_45
   11  A    between atoms: C_39  and  C_52
                            x       y       z     vdW  Elec       q    Type
                         _______ _______ _______ _____ _____    ______ ____

>  <TORSDO>
F 11

$$$$
=
 OpenBabel10222419133D

 56 63  0  0  1  0  0  0  0  0999 V2000
  186.4110  177.3710  137.7820 C   0  0  0  0  0  3  0  0  0  0  0  0
  189.4100  177.5780  136.9580 S   0  0  0  0  0  0  0  0  0  0  0  0
  183.8350  178.8600  138.7060 C   0  0  0  0  0  0  0  0  0  0  0  0
  188.1720  178.1970  139.3520 C   0  0  0  0  0  0  0  0  0  0  0  0
  184.6850  178.8250  139.9230 C   0  0  0  0  0  3  0  0  0  0  0  0
  186.8020  177.9910  138.8950 C   0  0  0  0  0  0  0  0  0  0  0  0
  190.6390  178.2000  139.2880 C   0  0  0  0  0  2  0  0  0  0  0  0
  189.3120  178.0640  138.6540 C   0  0  0  0  0  0  0  0  0  0  0  0
  185.9450  178.3820  140.0130 C   0  0  0  0  0  0  0  0  0  0  0  0
  188.1640  178.5780  140.7280 N   0  0  0  0  0  2  0  0  0  0  0  0
  184.9980  176.9380  137.5670 C   0  0  0  0  0  2  0  0  0  0  0  0
  184.0130  178.0610  137.6460 C   0  0  0  0  0  3  0  0  0  0  0  0
  186.7910  178.6230  141.2320 C   0  0  2  0  0  3  0  0  0  0  0  0
  190.9760  176.7590  137.3850 C   0  0  1  0  0  3  0  0  0  0  0  0
  191.5880  177.3310  138.5930 N   0  0  0  0  0  2  0  0  0  0  0  0
  180.3840  180.4360  138.6340 C   0  0  0  0  0  3  0  0  0  0  0  0
  182.7430  179.8530  138.6700 C   0  0  0  0  0  0  0  0  0  0  0  0
  182.0560  182.1840  138.5500 C   0  0  0  0  0  0  0  0  0  0  0  0
  181.3870  179.4650  138.6790 C   0  0  0  0  0  0  0  0  0  0  0  0
  181.0240  178.1230  138.7350 O   0  0  0  0  0  1  0  0  0  0  0  0
  180.7080  181.7940  138.5740 C   0  0  0  0  0  0  0  0  0  0  0  0
  183.0620  181.2150  138.6020 C   0  0  0  0  0  3  0  0  0  0  0  0
  182.3950  183.4900  138.4360 F   0  0  0  0  0  0  0  0  0  0  0  0
  179.5980  182.7970  138.4940 C   0  0  0  0  0  2  0  0  0  0  0  0
  179.3030  184.5810  137.0060 C   0  0  0  0  0  2  0  0  0  0  0  0
  180.7770  183.7490  135.3400 C   0  0  0  0  0  2  0  0  0  0  0  0
  180.3600  182.6290  136.2610 C   0  0  0  0  0  2  0  0  0  0  0  0
  180.4740  184.9840  136.1330 C   0  0  0  0  0  2  0  0  0  0  0  0
  179.2780  183.1250  137.1070 N   0  0  0  0  0  0  0  0  0  0  0  0
  190.7880  175.2480  137.5070 C   0  0  2  0  0  3  0  0  0  0  0  0
  189.8500  174.9350  138.4950 O   0  0  0  0  0  1  0  0  0  0  0  0
  192.0620  174.6160  137.8220 N   0  0  0  0  0  2  0  0  0  0  0  0
  194.4830  172.9170  135.7190 C   0  0  2  0  0  3  0  0  0  0  0  0
  192.7880  174.6450  135.4580 C   0  0  1  0  0  3  0  0  0  0  0  0
  193.7620  173.7760  134.6900 C   0  0  0  0  0  2  0  0  0  0  0  0
  192.4260  173.7990  136.6710 C   0  0  1  0  0  3  0  0  0  0  0  0
  193.6320  171.7140  136.0870 C   0  0  2  0  0  3  0  0  0  0  0  0
  193.4460  175.8180  135.8530 O   0  0  0  0  0  1  0  0  0  0  0  0
  193.6390  172.9430  136.9810 C   0  0  1  0  0  3  0  0  0  0  0  0
  195.8950  170.7840  136.7080 N   0  0  0  0  0  2  0  0  0  0  0  0
  196.7650  169.7960  137.3210 C   0  0  0  0  0  1  0  0  0  0  0  0
  193.9260  169.6470  137.2460 O   0  0  0  0  0  0  0  0  0  0  0  0
  194.4720  170.6420  136.6990 C   0  0  0  0  0  0  0  0  0  0  0  0
  185.4510  177.8630  143.2350 C   0  0  0  0  0  1  0  0  0  0  0  0
  186.5900  177.5270  142.2870 C   0  0  2  0  0  3  0  0  0  0  0  0
  188.0080  177.8870  144.2440 N   0  0  0  0  0  0  0  0  0  0  0  0
  189.3540  177.6030  144.7310 C   0  0  2  0  0  3  0  0  0  0  0  0
  188.9530  176.5810  142.6000 N   0  0  0  0  0  2  0  0  0  0  0  0
  187.8340  177.3180  143.0900 C   0  0  0  0  0  0  0  0  0  0  0  0
  189.8980  176.7510  143.6390 C   0  0  0  0  0  0  0  0  0  0  0  0
  191.0640  176.2790  143.5970 O   0  0  0  0  0  0  0  0  0  0  0  0
  188.0380  176.9600  146.6160 O   0  0  0  0  0  1  0  0  0  0  0  0
  189.3420  176.9250  146.1120 C   0  0  2  0  0  3  0  0  0  0  0  0
  189.5820  177.8860  148.4180 C   0  0  0  0  0  1  0  0  0  0  0  0
  190.3160  177.5390  147.1320 C   0  0  1  0  0  3  0  0  0  0  0  0
  191.3440  176.6430  147.4290 O   0  0  0  0  0  1  0  0  0  0  0  0
  1  6  2  0  0  0  0
  2 14  1  0  0  0  0
  2  8  1  0  0  0  0
  3  5  1  0  0  0  0
  4 10  1  0  0  0  0
  5  9  2  0  0  0  0
  6  4  1  0  0  0  0
  6  9  1  0  0  0  0
  8  7  1  0  0  0  0
  8  4  2  0  0  0  0
  9 13  1  0  0  0  0
 10 13  1  0  0  0  0
 11 12  1  0  0  0  0
 11  1  1  0  0  0  0
 12  3  2  0  0  0  0
 13 45  1  1  0  0  0
 14 30  1  1  0  0  0
 14 15  1  0  0  0  0
 15  7  1  0  0  0  0
 16 19  1  0  0  0  0
 17 19  2  0  0  0  0
 17  3  1  0  0  0  0
 18 21  1  0  0  0  0
 18 22  2  0  0  0  0
 19 20  1  0  0  0  0
 21 16  2  0  0  0  0
 22 17  1  0  0  0  0
 23 18  1  0  0  0  0
 24 21  1  0  0  0  0
 25 29  1  0  0  0  0
 26 28  1  0  0  0  0
 26 27  1  0  0  0  0
 27 29  1  0  0  0  0
 28 25  1  0  0  0  0
 29 24  1  0  0  0  0
 30 32  1  0  0  0  0
 30 31  1  1  0  0  0
 33 35  1  6  0  0  0
 33 37  1  0  0  0  0
 33 39  1  0  0  0  0
 34 38  1  1  0  0  0
 34 36  1  0  0  0  0
 35 34  1  0  0  0  0
 36 39  1  0  0  0  0
 36 32  1  1  0  0  0
 37 43  1  1  0  0  0
 37 39  1  0  0  0  0
 40 41  1  0  0  0  0
 43 40  1  0  0  0  0
 43 42  2  0  0  0  0
 45 49  1  0  0  0  0
 45 44  1  0  0  0  0
 46 47  1  0  0  0  0
 47 53  1  0  0  0  0
 48 49  1  0  0  0  0
 48 50  1  0  0  0  0
 49 46  2  0  0  0  0
 50 47  1  0  0  0  0
 51 50  2  0  0  0  0
 53 52  1  0  0  0  0
 53 55  1  0  0  0  0
 55 56  1  0  0  0  0
 55 54  1  0  0  0  0
M  END
>  <MODEL>
4

>  <REMARK>
 VINA RESULT:      -7.0      1.619      2.205
  Name = 
  11 active torsions:
  status: ('A' for Active; 'I' for Inactive)
    1  A    between atoms: C_4  and  C_41
    2  A    between atoms: C_4  and  N_56
    3  A    between atoms: C_7  and  C_22
    4  A    between atoms: C_9  and  C_47
    5  A    between atoms: C_9  and  N_48
    6  A    between atoms: C_10  and  C_32
    7  A    between atoms: C_23  and  N_48
    8  A    between atoms: C_29  and  C_32
    9  A    between atoms: C_31  and  C_37
   10  A    between atoms: C_37  and  C_45
   11  A    between atoms: C_39  and  C_52
                            x       y       z     vdW  Elec       q    Type
                         _______ _______ _______ _____ _____    ______ ____

>  <TORSDO>
F 11

$$$$
=
 OpenBabel10222419133D

 56 63  0  0  1  0  0  0  0  0999 V2000
  188.3910  176.7490  138.4070 C   0  0  0  0  0  3  0  0  0  0  0  0
  185.8710  178.4860  137.8170 S   0  0  0  0  0  0  0  0  0  0  0  0
  190.9840  175.4250  137.2970 C   0  0  0  0  0  0  0  0  0  0  0  0
  186.6180  176.0250  136.8010 C   0  0  0  0  0  0  0  0  0  0  0  0
  189.8920  174.5560  136.7910 C   0  0  0  0  0  3  0  0  0  0  0  0
  187.9390  175.9780  137.4190 C   0  0  0  0  0  0  0  0  0  0  0  0
  184.3490  176.8500  136.2910 C   0  0  0  0  0  2  0  0  0  0  0  0
  185.6920  176.9940  136.8870 C   0  0  0  0  0  0  0  0  0  0  0  0
  188.5750  174.7650  136.9090 C   0  0  0  0  0  0  0  0  0  0  0  0
  186.4030  174.8350  136.0430 N   0  0  0  0  0  2  0  0  0  0  0  0
  189.6280  176.4150  139.1750 C   0  0  0  0  0  2  0  0  0  0  0  0
  190.8450  176.2840  138.3150 C   0  0  0  0  0  3  0  0  0  0  0  0
  187.5660  173.9530  136.1460 C   0  0  2  0  0  3  0  0  0  0  0  0
  184.0810  178.3960  138.1210 C   0  0  1  0  0  3  0  0  0  0  0  0
  183.3860  177.5940  137.1020 N   0  0  0  0  0  2  0  0  0  0  0  0
  194.0730  174.0680  135.5610 C   0  0  0  0  0  3  0  0  0  0  0  0
  192.2910  175.3400  136.6160 C   0  0  0  0  0  0  0  0  0  0  0  0
  194.2750  176.4700  135.7760 C   0  0  0  0  0  0  0  0  0  0  0  0
  192.8290  174.1060  136.1940 C   0  0  0  0  0  0  0  0  0  0  0  0
  192.1380  172.9150  136.3950 O   0  0  0  0  0  1  0  0  0  0  0  0
  194.7990  175.2420  135.3440 C   0  0  0  0  0  0  0  0  0  0  0  0
  193.0270  176.5130  136.4020 C   0  0  0  0  0  3  0  0  0  0  0  0
  194.9840  177.6150  135.6270 F   0  0  0  0  0  0  0  0  0  0  0  0
  196.1450  175.1480  134.6920 C   0  0  0  0  0  2  0  0  0  0  0  0
  196.9640  174.5910  136.8130 C   0  0  0  0  0  2  0  0  0  0  0  0
  199.1800  174.1230  136.0990 C   0  0  0  0  0  2  0  0  0  0  0  0
  198.4730  174.9620  135.0620 C   0  0  0  0  0  2  0  0  0  0  0  0
  198.0570  173.5450  136.9050 C   0  0  0  0  0  2  0  0  0  0  0  0
  197.2170  175.4260  135.6430 N   0  0  0  0  0  0  0  0  0  0  0  0
  183.7900  177.8920  139.5330 C   0  0  2  0  0  3  0  0  0  0  0  0
  182.4210  177.9290  139.8100 O   0  0  0  0  0  1  0  0  0  0  0  0
  184.5100  178.7050  140.5050 N   0  0  0  0  0  2  0  0  0  0  0  0
  183.2240  179.2430  143.8560 C   0  0  2  0  0  3  0  0  0  0  0  0
  185.2440  178.3420  142.8390 C   0  0  1  0  0  3  0  0  0  0  0  0
  184.5310  178.5230  144.1620 C   0  0  0  0  0  2  0  0  0  0  0  0
  184.1110  178.2370  141.8270 C   0  0  1  0  0  3  0  0  0  0  0  0
  182.1790  178.2500  143.3780 C   0  0  2  0  0  3  0  0  0  0  0  0
  186.0260  179.4770  142.5890 O   0  0  0  0  0  1  0  0  0  0  0  0
  182.9660  179.0710  142.3690 C   0  0  1  0  0  3  0  0  0  0  0  0
  180.4670  180.0250  142.8370 N   0  0  0  0  0  2  0  0  0  0  0  0
  179.1380  180.6090  142.9110 C   0  0  0  0  0  1  0  0  0  0  0  0
  179.9420  178.2120  144.2150 O   0  0  0  0  0  0  0  0  0  0  0  0
  180.8060  178.8200  143.5270 C   0  0  0  0  0  0  0  0  0  0  0  0
  188.0510  171.4970  136.4880 C   0  0  0  0  0  1  0  0  0  0  0  0
  187.1820  172.6730  136.9000 C   0  0  2  0  0  3  0  0  0  0  0  0
  184.8100  172.6540  137.4870 N   0  0  0  0  0  0  0  0  0  0  0  0
  183.5450  172.0650  137.0590 C   0  0  2  0  0  3  0  0  0  0  0  0
  185.3360  171.4870  135.5740 N   0  0  0  0  0  2  0  0  0  0  0  0
  185.7500  172.3160  136.6590 C   0  0  0  0  0  0  0  0  0  0  0  0
  183.9500  171.3450  135.8210 C   0  0  0  0  0  0  0  0  0  0  0  0
  183.1870  170.6460  135.1030 O   0  0  0  0  0  0  0  0  0  0  0  0
  182.6640  174.1760  137.7400 O   0  0  0  0  0  1  0  0  0  0  0  0
  182.4530  173.1270  136.8400 C   0  0  2  0  0  3  0  0  0  0  0  0
  180.2310  173.4560  137.9590 C   0  0  0  0  0  1  0  0  0  0  0  0
  181.0150  172.6000  136.9770 C   0  0  1  0  0  3  0  0  0  0  0  0
  180.3640  172.6230  135.7420 O   0  0  0  0  0  1  0  0  0  0  0  0
  1 11  1  0  0  0  0
  2 14  1  0  0  0  0
  3 12  2  0  0  0  0
  4  8  2  0  0  0  0
  4  6  1  0  0  0  0
  5  9  2  0  0  0  0
  5  3  1  0  0  0  0
  6  1  2  0  0  0  0
  7  8  1  0  0  0  0
  7 15  1  0  0  0  0
  8  2  1  0  0  0  0
  9  6  1  0  0  0  0
 10 13  1  0  0  0  0
 10  4  1  0  0  0  0
 12 11  1  0  0  0  0
 13 45  1  1  0  0  0
 13  9  1  0  0  0  0
 14 30  1  1  0  0  0
 15 14  1  0  0  0  0
 16 19  1  0  0  0  0
 17  3  1  0  0  0  0
 18 22  2  0  0  0  0
 19 20  1  0  0  0  0
 19 17  2  0  0  0  0
 21 16  2  0  0  0  0
 21 18  1  0  0  0  0
 22 17  1  0  0  0  0
 23 18  1  0  0  0  0
 24 21  1  0  0  0  0
 24 29  1  0  0  0  0
 25 28  1  0  0  0  0
 26 28  1  0  0  0  0
 27 29  1  0  0  0  0
 27 26  1  0  0  0  0
 29 25  1  0  0  0  0
 30 31  1  1  0  0  0
 30 32  1  0  0  0  0
 33 35  1  6  0  0  0
 34 38  1  6  0  0  0
 34 35  1  0  0  0  0
 36 32  1  6  0  0  0
 36 39  1  0  0  0  0
 36 34  1  0  0  0  0
 37 43  1  1  0  0  0
 37 33  1  0  0  0  0
 39 37  1  0  0  0  0
 39 33  1  0  0  0  0
 40 41  1  0  0  0  0
 40 43  1  0  0  0  0
 43 42  2  0  0  0  0
 44 45  1  0  0  0  0
 47 46  1  0  0  0  0
 48 50  1  0  0  0  0
 48 49  1  0  0  0  0
 49 45  1  0  0  0  0
 49 46  2  0  0  0  0
 50 47  1  0  0  0  0
 51 50  2  0  0  0  0
 53 55  1  0  0  0  0
 53 47  1  0  0  0  0
 53 52  1  0  0  0  0
 55 54  1  0  0  0  0
 56 55  1  0  0  0  0
M  END
>  <MODEL>
5

>  <REMARK>
 VINA RESULT:      -6.9      4.298     12.541
  Name = 
  11 active torsions:
  status: ('A' for Active; 'I' for Inactive)
    1  A    between atoms: C_4  and  C_41
    2  A    between atoms: C_4  and  N_56
    3  A    between atoms: C_7  and  C_22
    4  A    between atoms: C_9  and  C_47
    5  A    between atoms: C_9  and  N_48
    6  A    between atoms: C_10  and  C_32
    7  A    between atoms: C_23  and  N_48
    8  A    between atoms: C_29  and  C_32
    9  A    between atoms: C_31  and  C_37
   10  A    between atoms: C_37  and  C_45
   11  A    between atoms: C_39  and  C_52
                            x       y       z     vdW  Elec       q    Type
                         _______ _______ _______ _____ _____    ______ ____

>  <TORSDO>
F 11

$$$$
=
 OpenBabel10222419133D

 56 63  0  0  1  0  0  0  0  0999 V2000
  192.1260  176.5990  139.3150 C   0  0  0  0  0  3  0  0  0  0  0  0
  193.7740  174.3020  138.0010 S   0  0  0  0  0  0  0  0  0  0  0  0
  189.7510  177.3960  141.1670 C   0  0  0  0  0  0  0  0  0  0  0  0
  191.1090  174.9770  137.7070 C   0  0  0  0  0  0  0  0  0  0  0  0
  189.0950  176.9780  139.9030 C   0  0  0  0  0  3  0  0  0  0  0  0
  191.0790  176.0120  138.7350 C   0  0  0  0  0  0  0  0  0  0  0  0
  192.0500  173.2790  136.1840 C   0  0  0  0  0  2  0  0  0  0  0  0
  192.1450  174.2130  137.3240 C   0  0  0  0  0  0  0  0  0  0  0  0
  189.6860  176.4450  138.8270 C   0  0  0  0  0  0  0  0  0  0  0  0
  189.8190  174.8660  137.1060 N   0  0  0  0  0  2  0  0  0  0  0  0
  191.9930  177.8530  140.1140 C   0  0  0  0  0  2  0  0  0  0  0  0
  191.0450  177.7280  141.2650 C   0  0  0  0  0  3  0  0  0  0  0  0
  188.8960  175.8310  137.7040 C   0  0  2  0  0  3  0  0  0  0  0  0
  194.3820  173.8680  136.3440 C   0  0  1  0  0  3  0  0  0  0  0  0
  193.3600  173.1750  135.5440 N   0  0  0  0  0  2  0  0  0  0  0  0
  188.5600  176.9540  144.7430 C   0  0  0  0  0  3  0  0  0  0  0  0
  188.9190  177.4250  142.3860 C   0  0  0  0  0  0  0  0  0  0  0  0
  186.7990  177.9840  143.4420 C   0  0  0  0  0  0  0  0  0  0  0  0
  189.3840  176.9150  143.6150 C   0  0  0  0  0  0  0  0  0  0  0  0
  190.6590  176.3710  143.7310 O   0  0  0  0  0  1  0  0  0  0  0  0
  187.2720  177.4890  144.6670 C   0  0  0  0  0  0  0  0  0  0  0  0
  187.6230  177.9540  142.3140 C   0  0  0  0  0  3  0  0  0  0  0  0
  185.5350  178.4570  143.3300 F   0  0  0  0  0  0  0  0  0  0  0  0
  186.4130  177.4780  145.8950 C   0  0  0  0  0  2  0  0  0  0  0  0
  186.5320  177.8740  148.1990 C   0  0  0  0  0  2  0  0  0  0  0  0
  188.8770  178.2450  148.2570 C   0  0  0  0  0  2  0  0  0  0  0  0
  188.3670  178.4110  146.8470 C   0  0  0  0  0  2  0  0  0  0  0  0
  187.7930  177.4600  148.9300 C   0  0  0  0  0  2  0  0  0  0  0  0
  186.9070  178.4180  146.8970 N   0  0  0  0  0  0  0  0  0  0  0  0
  194.9270  175.0990  135.6210 C   0  0  2  0  0  3  0  0  0  0  0  0
  194.0690  175.5020  134.5940 O   0  0  0  0  0  1  0  0  0  0  0  0
  196.2450  174.8050  135.0730 N   0  0  0  0  0  2  0  0  0  0  0  0
  198.7130  174.3430  137.6920 C   0  0  2  0  0  3  0  0  0  0  0  0
  198.2270  173.3900  135.5050 C   0  0  1  0  0  3  0  0  0  0  0  0
  199.1110  173.2360  136.7240 C   0  0  0  0  0  2  0  0  0  0  0  0
  196.9440  173.9930  136.0610 C   0  0  1  0  0  3  0  0  0  0  0  0
  197.4810  173.9330  138.4790 C   0  0  2  0  0  3  0  0  0  0  0  0
  198.8420  174.2770  134.6110 O   0  0  0  0  0  1  0  0  0  0  0  0
  197.3420  174.8310  137.2610 C   0  0  1  0  0  3  0  0  0  0  0  0
  198.4860  174.8920  140.5870 N   0  0  0  0  0  2  0  0  0  0  0  0
  198.4390  175.7040  141.7910 C   0  0  0  0  0  1  0  0  0  0  0  0
  196.2770  175.3500  139.9780 O   0  0  0  0  0  0  0  0  0  0  0  0
  197.3560  174.7500  139.7230 C   0  0  0  0  0  0  0  0  0  0  0  0
  188.5860  178.2900  137.2120 C   0  0  0  0  0  1  0  0  0  0  0  0
  188.4910  176.8780  136.6580 C   0  0  2  0  0  3  0  0  0  0  0  0
  186.5560  175.4660  136.1750 N   0  0  0  0  0  0  0  0  0  0  0  0
  185.2440  175.5280  135.5410 C   0  0  2  0  0  3  0  0  0  0  0  0
  186.3020  177.6780  135.5900 N   0  0  0  0  0  2  0  0  0  0  0  0
  187.0940  176.6470  136.1790 C   0  0  0  0  0  0  0  0  0  0  0  0
  185.1370  176.9730  135.2050 C   0  0  0  0  0  0  0  0  0  0  0  0
  184.1700  177.5110  134.6050 O   0  0  0  0  0  0  0  0  0  0  0  0
  184.7090  174.5210  137.6380 O   0  0  0  0  0  1  0  0  0  0  0  0
  184.1270  175.0120  136.4660 C   0  0  2  0  0  3  0  0  0  0  0  0
  182.3170  174.5570  134.7870 C   0  0  0  0  0  1  0  0  0  0  0  0
  183.2250  173.9360  135.8370 C   0  0  1  0  0  3  0  0  0  0  0  0
  183.9970  172.9420  135.2320 O   0  0  0  0  0  1  0  0  0  0  0  0
  1 11  1  0  0  0  0
  3 12  2  0  0  0  0
  3 17  1  0  0  0  0
  4  6  1  0  0  0  0
  5  3  1  0  0  0  0
  6  9  1  0  0  0  0
  6  1  2  0  0  0  0
  7  8  1  0  0  0  0
  8  4  2  0  0  0  0
  8  2  1  0  0  0  0
  9  5  2  0  0  0  0
 10 13  1  0  0  0  0
 10  4  1  0  0  0  0
 11 12  1  0  0  0  0
 13 45  1  6  0  0  0
 13  9  1  0  0  0  0
 14 30  1  6  0  0  0
 14  2  1  0  0  0  0
 15  7  1  0  0  0  0
 15 14  1  0  0  0  0
 17 19  1  0  0  0  0
 18 21  2  0  0  0  0
 19 20  1  0  0  0  0
 19 16  2  0  0  0  0
 21 16  1  0  0  0  0
 21 24  1  0  0  0  0
 22 17  2  0  0  0  0
 22 18  1  0  0  0  0
 23 18  1  0  0  0  0
 24 29  1  0  0  0  0
 25 28  1  0  0  0  0
 26 28  1  0  0  0  0
 27 29  1  0  0  0  0
 27 26  1  0  0  0  0
 29 25  1  0  0  0  0
 30 31  1  6  0  0  0
 32 30  1  0  0  0  0
 33 35  1  6  0  0  0
 33 37  1  0  0  0  0
 34 38  1  6  0  0  0
 34 36  1  0  0  0  0
 34 35  1  0  0  0  0
 36 32  1  6  0  0  0
 36 39  1  0  0  0  0
 37 43  1  1  0  0  0
 39 33  1  0  0  0  0
 39 37  1  0  0  0  0
 40 41  1  0  0  0  0
 43 42  2  0  0  0  0
 43 40  1  0  0  0  0
 45 44  1  0  0  0  0
 46 49  2  0  0  0  0
 47 46  1  0  0  0  0
 47 53  1  0  0  0  0
 48 49  1  0  0  0  0
 49 45  1  0  0  0  0
 50 47  1  0  0  0  0
 50 48  1  0  0  0  0
 51 50  2  0  0  0  0
 53 52  1  0  0  0  0
 54 55  1  0  0  0  0
 55 53  1  0  0  0  0
 56 55  1  0  0  0  0
M  END
>  <MODEL>
6

>  <REMARK>
 VINA RESULT:      -6.9      4.584      9.056
  Name = 
  11 active torsions:
  status: ('A' for Active; 'I' for Inactive)
    1  A    between atoms: C_4  and  C_41
    2  A    between atoms: C_4  and  N_56
    3  A    between atoms: C_7  and  C_22
    4  A    between atoms: C_9  and  C_47
    5  A    between atoms: C_9  and  N_48
    6  A    between atoms: C_10  and  C_32
    7  A    between atoms: C_23  and  N_48
    8  A    between atoms: C_29  and  C_32
    9  A    between atoms: C_31  and  C_37
   10  A    between atoms: C_37  and  C_45
   11  A    between atoms: C_39  and  C_52
                            x       y       z     vdW  Elec       q    Type
                         _______ _______ _______ _____ _____    ______ ____

>  <TORSDO>
F 11

$$$$
=
 OpenBabel10222419133D

 56 63  0  0  1  0  0  0  0  0999 V2000
  188.1070  176.5770  135.1500 C   0  0  0  0  0  3  0  0  0  0  0  0
  185.2980  175.2440  134.9340 S   0  0  0  0  0  0  0  0  0  0  0  0
  191.1090  176.2600  135.9210 C   0  0  0  0  0  0  0  0  0  0  0  0
  186.8830  175.7110  137.1510 C   0  0  0  0  0  0  0  0  0  0  0  0
  190.4120  176.3630  137.2280 C   0  0  0  0  0  3  0  0  0  0  0  0
  188.0540  176.1950  136.4260 C   0  0  0  0  0  0  0  0  0  0  0  0
  184.5710  174.9350  137.5220 C   0  0  0  0  0  2  0  0  0  0  0  0
  185.7090  175.2930  136.6520 C   0  0  0  0  0  0  0  0  0  0  0  0
  189.0900  176.4050  137.4350 C   0  0  0  0  0  0  0  0  0  0  0  0
  187.1460  175.7410  138.5530 N   0  0  0  0  0  2  0  0  0  0  0  0
  189.2610  177.3460  134.5970 C   0  0  0  0  0  2  0  0  0  0  0  0
  190.5740  176.6460  134.7550 C   0  0  0  0  0  3  0  0  0  0  0  0
  188.4920  176.2580  138.8060 C   0  0  2  0  0  3  0  0  0  0  0  0
  183.5910  175.6260  135.4310 C   0  0  1  0  0  3  0  0  0  0  0  0
  183.3240  175.2470  136.8270 N   0  0  0  0  0  2  0  0  0  0  0  0
  193.9850  173.7900  136.0860 C   0  0  0  0  0  3  0  0  0  0  0  0
  192.4670  175.6800  135.9200 C   0  0  0  0  0  0  0  0  0  0  0  0
  194.8720  176.0220  135.7860 C   0  0  0  0  0  0  0  0  0  0  0  0
  192.6830  174.2970  136.0840 C   0  0  0  0  0  0  0  0  0  0  0  0
  191.6170  173.4170  136.2410 O   0  0  0  0  0  1  0  0  0  0  0  0
  195.0820  174.6420  135.9340 C   0  0  0  0  0  0  0  0  0  0  0  0
  193.5710  176.5310  135.7760 C   0  0  0  0  0  3  0  0  0  0  0  0
  195.9210  176.8740  135.6930 F   0  0  0  0  0  0  0  0  0  0  0  0
  196.4610  174.0560  135.9770 C   0  0  0  0  0  2  0  0  0  0  0  0
  197.4570  172.5410  137.4570 C   0  0  0  0  0  2  0  0  0  0  0  0
  199.1760  174.0110  138.1830 C   0  0  0  0  0  2  0  0  0  0  0  0
  198.0540  174.8030  137.5570 C   0  0  0  0  0  2  0  0  0  0  0  0
  198.9570  172.6240  137.6610 C   0  0  0  0  0  2  0  0  0  0  0  0
  196.9270  173.8970  137.3510 N   0  0  0  0  0  0  0  0  0  0  0  0
  183.2620  177.0960  135.1720 C   0  0  2  0  0  3  0  0  0  0  0  0
  184.2550  177.9330  135.6890 O   0  0  0  0  0  1  0  0  0  0  0  0
  181.9780  177.4270  135.7740 N   0  0  0  0  0  2  0  0  0  0  0  0
  181.6560  179.2690  138.8840 C   0  0  2  0  0  3  0  0  0  0  0  0
  181.0110  179.5650  136.5550 C   0  0  1  0  0  3  0  0  0  0  0  0
  181.0540  180.2620  137.8990 C   0  0  0  0  0  2  0  0  0  0  0  0
  182.1910  178.6040  136.6070 C   0  0  1  0  0  3  0  0  0  0  0  0
  183.1700  179.2790  138.7800 C   0  0  2  0  0  3  0  0  0  0  0  0
  179.8040  178.8610  136.4510 O   0  0  0  0  0  1  0  0  0  0  0  0
  182.3660  178.2090  138.0600 C   0  0  1  0  0  3  0  0  0  0  0  0
  184.8780  179.3810  140.6360 N   0  0  0  0  0  2  0  0  0  0  0  0
  185.4950  178.8910  141.8570 C   0  0  0  0  0  1  0  0  0  0  0  0
  183.3100  177.6520  140.5230 O   0  0  0  0  0  0  0  0  0  0  0  0
  183.7860  178.7020  140.0120 C   0  0  0  0  0  0  0  0  0  0  0  0
  188.9590  178.7380  138.6850 C   0  0  0  0  0  1  0  0  0  0  0  0
  188.4000  177.6070  139.5320 C   0  0  2  0  0  3  0  0  0  0  0  0
  188.5680  177.8590  141.9570 N   0  0  0  0  0  0  0  0  0  0  0  0
  189.5610  177.8630  143.0250 C   0  0  2  0  0  3  0  0  0  0  0  0
  190.5480  177.3350  140.9060 N   0  0  0  0  0  2  0  0  0  0  0  0
  189.1430  177.5720  140.8290 C   0  0  0  0  0  0  0  0  0  0  0  0
  190.8020  177.5040  142.2870 C   0  0  0  0  0  0  0  0  0  0  0  0
  191.9510  177.4140  142.7950 O   0  0  0  0  0  0  0  0  0  0  0  0
  188.2560  175.9730  143.6770 O   0  0  0  0  0  1  0  0  0  0  0  0
  189.1990  176.8870  144.1590 C   0  0  2  0  0  3  0  0  0  0  0  0
  187.1800  177.8380  145.3090 C   0  0  0  0  0  1  0  0  0  0  0  0
  188.6700  177.5610  145.4360 C   0  0  1  0  0  3  0  0  0  0  0  0
  188.8820  176.7420  146.5470 O   0  0  0  0  0  1  0  0  0  0  0  0
  1  6  2  0  0  0  0
  2 14  1  0  0  0  0
  2  8  1  0  0  0  0
  3  5  1  0  0  0  0
  4 10  1  0  0  0  0
  5  9  2  0  0  0  0
  6  4  1  0  0  0  0
  6  9  1  0  0  0  0
  8  4  2  0  0  0  0
  8  7  1  0  0  0  0
  9 13  1  0  0  0  0
 10 13  1  0  0  0  0
 11 12  1  0  0  0  0
 11  1  1  0  0  0  0
 12  3  2  0  0  0  0
 13 45  1  6  0  0  0
 14 30  1  1  0  0  0
 14 15  1  0  0  0  0
 15  7  1  0  0  0  0
 17  3  1  0  0  0  0
 17 19  2  0  0  0  0
 18 21  1  0  0  0  0
 19 16  1  0  0  0  0
 19 20  1  0  0  0  0
 21 24  1  0  0  0  0
 21 16  2  0  0  0  0
 22 18  2  0  0  0  0
 22 17  1  0  0  0  0
 23 18  1  0  0  0  0
 24 29  1  0  0  0  0
 25 28  1  0  0  0  0
 27 26  1  0  0  0  0
 28 26  1  0  0  0  0
 29 25  1  0  0  0  0
 29 27  1  0  0  0  0
 30 31  1  1  0  0  0
 30 32  1  0  0  0  0
 33 35  1  6  0  0  0
 34 38  1  1  0  0  0
 34 36  1  0  0  0  0
 34 35  1  0  0  0  0
 36 32  1  6  0  0  0
 36 39  1  0  0  0  0
 37 33  1  0  0  0  0
 37 43  1  1  0  0  0
 39 37  1  0  0  0  0
 39 33  1  0  0  0  0
 40 41  1  0  0  0  0
 43 42  2  0  0  0  0
 43 40  1  0  0  0  0
 44 45  1  0  0  0  0
 45 49  1  0  0  0  0
 46 47  1  0  0  0  0
 47 53  1  0  0  0  0
 48 50  1  0  0  0  0
 49 48  1  0  0  0  0
 49 46  2  0  0  0  0
 50 51  2  0  0  0  0
 50 47  1  0  0  0  0
 52 53  1  0  0  0  0
 53 55  1  0  0  0  0
 54 55  1  0  0  0  0
 55 56  1  0  0  0  0
M  END
>  <MODEL>
7

>  <REMARK>
 VINA RESULT:      -6.6      3.310     11.027
  Name = 
  11 active torsions:
  status: ('A' for Active; 'I' for Inactive)
    1  A    between atoms: C_4  and  C_41
    2  A    between atoms: C_4  and  N_56
    3  A    between atoms: C_7  and  C_22
    4  A    between atoms: C_9  and  C_47
    5  A    between atoms: C_9  and  N_48
    6  A    between atoms: C_10  and  C_32
    7  A    between atoms: C_23  and  N_48
    8  A    between atoms: C_29  and  C_32
    9  A    between atoms: C_31  and  C_37
   10  A    between atoms: C_37  and  C_45
   11  A    between atoms: C_39  and  C_52
                            x       y       z     vdW  Elec       q    Type
                         _______ _______ _______ _____ _____    ______ ____

>  <TORSDO>
F 11

$$$$
=
 OpenBabel10222419133D

 56 63  0  0  1  0  0  0  0  0999 V2000
  188.5150  176.4830  135.1130 C   0  0  0  0  0  3  0  0  0  0  0  0
  185.6820  175.2190  134.8100 S   0  0  0  0  0  0  0  0  0  0  0  0
  191.4770  176.1020  136.0020 C   0  0  0  0  0  0  0  0  0  0  0  0
  187.1950  175.6790  137.0780 C   0  0  0  0  0  0  0  0  0  0  0  0
  190.7340  176.2420  137.2800 C   0  0  0  0  0  3  0  0  0  0  0  0
  188.4040  176.1220  136.3910 C   0  0  0  0  0  0  0  0  0  0  0  0
  184.8520  174.9680  137.3720 C   0  0  0  0  0  2  0  0  0  0  0  0
  186.0300  175.2840  136.5410 C   0  0  0  0  0  0  0  0  0  0  0  0
  189.4070  176.3210  137.4360 C   0  0  0  0  0  0  0  0  0  0  0  0
  187.4060  175.7240  138.4890 N   0  0  0  0  0  2  0  0  0  0  0  0
  189.7090  177.2140  134.5940 C   0  0  0  0  0  2  0  0  0  0  0  0
  190.9960  176.4830  134.8110 C   0  0  0  0  0  3  0  0  0  0  0  0
  188.7540  176.2100  138.7850 C   0  0  2  0  0  3  0  0  0  0  0  0
  183.9690  175.6520  135.2360 C   0  0  1  0  0  3  0  0  0  0  0  0
  183.6390  175.3010  136.6260 N   0  0  0  0  0  2  0  0  0  0  0  0
  194.2830  173.5810  136.4120 C   0  0  0  0  0  3  0  0  0  0  0  0
  192.8180  175.4870  136.0610 C   0  0  0  0  0  0  0  0  0  0  0  0
  195.2320  175.7480  135.9020 C   0  0  0  0  0  0  0  0  0  0  0  0
  192.9960  174.1210  136.3570 C   0  0  0  0  0  0  0  0  0  0  0  0
  191.9060  173.2890  136.5950 O   0  0  0  0  0  1  0  0  0  0  0  0
  195.4030  174.3840  136.1820 C   0  0  0  0  0  0  0  0  0  0  0  0
  193.9460  176.2890  135.8380 C   0  0  0  0  0  3  0  0  0  0  0  0
  196.3040  176.5580  135.7300 F   0  0  0  0  0  0  0  0  0  0  0  0
  196.7660  173.7680  136.2850 C   0  0  0  0  0  2  0  0  0  0  0  0
  197.7340  172.2610  134.7770 C   0  0  0  0  0  2  0  0  0  0  0  0
  198.3040  170.6270  136.4040 C   0  0  0  0  0  2  0  0  0  0  0  0
  197.2430  171.5500  136.9530 C   0  0  0  0  0  2  0  0  0  0  0  0
  198.8860  171.4050  135.2640 C   0  0  0  0  0  2  0  0  0  0  0  0
  196.7520  172.3740  135.8520 N   0  0  0  0  0  0  0  0  0  0  0  0
  183.6890  177.1260  134.9440 C   0  0  2  0  0  3  0  0  0  0  0  0
  184.8780  177.8450  134.7940 O   0  0  0  0  0  1  0  0  0  0  0  0
  182.8990  177.7010  136.0240 N   0  0  0  0  0  2  0  0  0  0  0  0
  179.7050  179.4150  136.2040 C   0  0  2  0  0  3  0  0  0  0  0  0
  180.5420  177.2690  135.4140 C   0  0  1  0  0  3  0  0  0  0  0  0
  179.3100  178.1490  135.4550 C   0  0  0  0  0  2  0  0  0  0  0  0
  181.6970  178.2610  135.4190 C   0  0  1  0  0  3  0  0  0  0  0  0
  180.4160  180.3770  135.2690 C   0  0  2  0  0  3  0  0  0  0  0  0
  180.5670  176.4760  136.5690 O   0  0  0  0  0  1  0  0  0  0  0  0
  181.2220  179.4760  136.1920 C   0  0  1  0  0  3  0  0  0  0  0  0
  179.7760  182.0020  137.0920 N   0  0  0  0  0  2  0  0  0  0  0  0
  179.7490  183.3210  137.7000 C   0  0  0  0  0  1  0  0  0  0  0  0
  180.9420  182.7060  135.1930 O   0  0  0  0  0  0  0  0  0  0  0  0
  180.3870  181.7640  135.8210 C   0  0  0  0  0  0  0  0  0  0  0  0
  189.3010  178.6730  138.6520 C   0  0  0  0  0  1  0  0  0  0  0  0
  188.6710  177.5720  139.4880 C   0  0  2  0  0  3  0  0  0  0  0  0
  188.7470  177.8890  141.9100 N   0  0  0  0  0  0  0  0  0  0  0  0
  189.6910  177.8680  143.0220 C   0  0  2  0  0  3  0  0  0  0  0  0
  190.7360  177.2180  140.9650 N   0  0  0  0  0  2  0  0  0  0  0  0
  189.3520  177.5340  140.8180 C   0  0  0  0  0  0  0  0  0  0  0  0
  190.9390  177.4150  142.3510 C   0  0  0  0  0  0  0  0  0  0  0  0
  192.0570  177.2750  142.9130 O   0  0  0  0  0  0  0  0  0  0  0  0
  188.3600  175.9840  143.6370 O   0  0  0  0  0  1  0  0  0  0  0  0
  189.2220  176.9500  144.1650 C   0  0  2  0  0  3  0  0  0  0  0  0
  187.1510  177.1100  145.5730 C   0  0  0  0  0  1  0  0  0  0  0  0
  188.5380  177.6840  145.3310 C   0  0  1  0  0  3  0  0  0  0  0  0
  189.2890  177.5530  146.5010 O   0  0  0  0  0  1  0  0  0  0  0  0
  1  6  2  0  0  0  0
  2 14  1  0  0  0  0
  2  8  1  0  0  0  0
  3 17  1  0  0  0  0
  3  5  1  0  0  0  0
  4 10  1  0  0  0  0
  5  9  2  0  0  0  0
  6  4  1  0  0  0  0
  6  9  1  0  0  0  0
  8  4  2  0  0  0  0
  8  7  1  0  0  0  0
  9 13  1  0  0  0  0
 10 13  1  0  0  0  0
 11 12  1  0  0  0  0
 11  1  1  0  0  0  0
 12  3  2  0  0  0  0
 13 45  1  6  0  0  0
 14 30  1  1  0  0  0
 14 15  1  0  0  0  0
 15  7  1  0  0  0  0
 17 19  2  0  0  0  0
 18 21  1  0  0  0  0
 19 16  1  0  0  0  0
 19 20  1  0  0  0  0
 21 24  1  0  0  0  0
 21 16  2  0  0  0  0
 22 18  2  0  0  0  0
 22 17  1  0  0  0  0
 23 18  1  0  0  0  0
 25 28  1  0  0  0  0
 25 29  1  0  0  0  0
 26 27  1  0  0  0  0
 28 26  1  0  0  0  0
 29 24  1  0  0  0  0
 29 27  1  0  0  0  0
 30 31  1  1  0  0  0
 30 32  1  0  0  0  0
 33 35  1  6  0  0  0
 34 36  1  0  0  0  0
 34 35  1  0  0  0  0
 34 38  1  1  0  0  0
 36 32  1  1  0  0  0
 36 39  1  0  0  0  0
 37 43  1  1  0  0  0
 37 39  1  0  0  0  0
 37 33  1  0  0  0  0
 39 33  1  0  0  0  0
 40 41  1  0  0  0  0
 42 43  2  0  0  0  0
 43 40  1  0  0  0  0
 44 45  1  0  0  0  0
 45 49  1  0  0  0  0
 46 47  1  0  0  0  0
 47 53  1  0  0  0  0
 48 50  1  0  0  0  0
 49 48  1  0  0  0  0
 49 46  2  0  0  0  0
 50 51  2  0  0  0  0
 50 47  1  0  0  0  0
 52 53  1  0  0  0  0
 53 55  1  0  0  0  0
 55 54  1  0  0  0  0
 55 56  1  0  0  0  0
M  END
>  <MODEL>
8

>  <REMARK>
 VINA RESULT:      -6.6      3.574     11.704
  Name = 
  11 active torsions:
  status: ('A' for Active; 'I' for Inactive)
    1  A    between atoms: C_4  and  C_41
    2  A    between atoms: C_4  and  N_56
    3  A    between atoms: C_7  and  C_22
    4  A    between atoms: C_9  and  C_47
    5  A    between atoms: C_9  and  N_48
    6  A    between atoms: C_10  and  C_32
    7  A    between atoms: C_23  and  N_48
    8  A    between atoms: C_29  and  C_32
    9  A    between atoms: C_31  and  C_37
   10  A    between atoms: C_37  and  C_45
   11  A    between atoms: C_39  and  C_52
                            x       y       z     vdW  Elec       q    Type
                         _______ _______ _______ _____ _____    ______ ____

>  <TORSDO>
F 11

$$$$
=
 OpenBabel10222419133D

 56 63  0  0  1  0  0  0  0  0999 V2000
  187.1260  178.3380  141.4370 C   0  0  0  0  0  3  0  0  0  0  0  0
  188.4550  176.8600  143.8380 S   0  0  0  0  0  0  0  0  0  0  0  0
  185.4780  178.1090  138.8030 C   0  0  0  0  0  0  0  0  0  0  0  0
  188.9750  176.6840  141.1280 C   0  0  0  0  0  0  0  0  0  0  0  0
  186.8390  177.6600  138.4140 C   0  0  0  0  0  3  0  0  0  0  0  0
  187.8660  177.5230  140.6850 C   0  0  0  0  0  0  0  0  0  0  0  0
  190.5340  175.5690  142.6820 C   0  0  0  0  0  2  0  0  0  0  0  0
  189.3110  176.3400  142.3820 C   0  0  0  0  0  0  0  0  0  0  0  0
  187.8880  177.4760  139.2250 C   0  0  0  0  0  0  0  0  0  0  0  0
  189.7200  176.2420  139.9940 N   0  0  0  0  0  2  0  0  0  0  0  0
  186.2360  179.3790  140.8420 C   0  0  0  0  0  2  0  0  0  0  0  0
  185.2110  178.8210  139.9050 C   0  0  0  0  0  3  0  0  0  0  0  0
  189.1410  176.7840  138.7640 C   0  0  2  0  0  3  0  0  0  0  0  0
  190.0690  176.8450  144.6740 C   0  0  1  0  0  3  0  0  0  0  0  0
  191.0350  175.9650  143.9980 N   0  0  0  0  0  2  0  0  0  0  0  0
  182.0790  177.9870  137.1190 C   0  0  0  0  0  3  0  0  0  0  0  0
  184.3590  177.7250  137.9200 C   0  0  0  0  0  0  0  0  0  0  0  0
  183.4890  176.2540  136.1870 C   0  0  0  0  0  0  0  0  0  0  0  0
  183.1150  178.3880  137.9660 C   0  0  0  0  0  0  0  0  0  0  0  0
  182.8970  179.4450  138.8430 O   0  0  0  0  0  1  0  0  0  0  0  0
  182.2580  176.9270  136.2260 C   0  0  0  0  0  0  0  0  0  0  0  0
  184.5300  176.6580  137.0280 C   0  0  0  0  0  3  0  0  0  0  0  0
  183.6680  175.1880  135.3710 F   0  0  0  0  0  0  0  0  0  0  0  0
  181.1070  176.5110  135.3610 C   0  0  0  0  0  2  0  0  0  0  0  0
  179.0150  175.4710  135.2090 C   0  0  0  0  0  2  0  0  0  0  0  0
  179.5880  173.5860  136.5360 C   0  0  0  0  0  2  0  0  0  0  0  0
  180.5620  174.7090  136.7940 C   0  0  0  0  0  2  0  0  0  0  0  0
  178.9680  173.9560  135.2230 C   0  0  0  0  0  2  0  0  0  0  0  0
  180.0370  175.9130  136.1540 N   0  0  0  0  0  0  0  0  0  0  0  0
  190.6140  178.2630  144.8380 C   0  0  2  0  0  3  0  0  0  0  0  0
  192.0040  178.2880  144.6930 O   0  0  0  0  0  1  0  0  0  0  0  0
  190.2470  178.7840  146.1480 N   0  0  0  0  0  2  0  0  0  0  0  0
  187.1240  178.2520  147.9180 C   0  0  2  0  0  3  0  0  0  0  0  0
  189.4320  177.4970  148.0970 C   0  0  1  0  0  3  0  0  0  0  0  0
  188.0420  177.2890  148.6590 C   0  0  0  0  0  2  0  0  0  0  0  0
  189.1810  177.9320  146.6600 C   0  0  1  0  0  3  0  0  0  0  0  0
  186.7190  177.6630  146.5780 C   0  0  2  0  0  3  0  0  0  0  0  0
  190.0620  178.5200  148.8190 O   0  0  0  0  0  1  0  0  0  0  0  0
  187.8560  178.6700  146.6550 C   0  0  1  0  0  3  0  0  0  0  0  0
  185.3610  178.5810  144.6590 N   0  0  0  0  0  2  0  0  0  0  0  0
  184.1730  179.1940  144.0880 C   0  0  0  0  0  1  0  0  0  0  0  0
  184.5510  178.6290  146.8500 O   0  0  0  0  0  0  0  0  0  0  0  0
  185.4880  178.3330  146.0610 C   0  0  0  0  0  0  0  0  0  0  0  0
  189.4270  178.6960  137.1370 C   0  0  0  0  0  1  0  0  0  0  0  0
  190.1250  177.7660  138.1160 C   0  0  2  0  0  3  0  0  0  0  0  0
  192.4390  177.0390  137.8160 N   0  0  0  0  0  0  0  0  0  0  0  0
  193.2920  176.3590  136.8470 C   0  0  2  0  0  3  0  0  0  0  0  0
  191.0040  176.3990  136.1330 N   0  0  0  0  0  2  0  0  0  0  0  0
  191.2120  177.0390  137.3910 C   0  0  0  0  0  0  0  0  0  0  0  0
  192.3090  175.9620  135.8040 C   0  0  0  0  0  0  0  0  0  0  0  0
  192.5870  175.3640  134.7310 O   0  0  0  0  0  0  0  0  0  0  0  0
  194.6290  175.6060  138.6750 O   0  0  0  0  0  1  0  0  0  0  0  0
  194.0570  175.1800  137.4720 C   0  0  2  0  0  3  0  0  0  0  0  0
  195.8970  175.6670  135.8350 C   0  0  0  0  0  1  0  0  0  0  0  0
  195.1380  174.5690  136.5650 C   0  0  1  0  0  3  0  0  0  0  0  0
  196.0450  173.8200  137.3170 O   0  0  0  0  0  1  0  0  0  0  0  0
  2 14  1  0  0  0  0
  3 12  2  0  0  0  0
  4  8  2  0  0  0  0
  5  3  1  0  0  0  0
  5  9  2  0  0  0  0
  6  4  1  0  0  0  0
  6  1  2  0  0  0  0
  7 15  1  0  0  0  0
  8  7  1  0  0  0  0
  8  2  1  0  0  0  0
  9  6  1  0  0  0  0
 10  4  1  0  0  0  0
 11  1  1  0  0  0  0
 12 11  1  0  0  0  0
 13 45  1  1  0  0  0
 13  9  1  0  0  0  0
 13 10  1  0  0  0  0
 14 30  1  6  0  0  0
 15 14  1  0  0  0  0
 16 19  1  0  0  0  0
 17 19  2  0  0  0  0
 17  3  1  0  0  0  0
 18 21  1  0  0  0  0
 18 22  2  0  0  0  0
 19 20  1  0  0  0  0
 21 16  2  0  0  0  0
 22 17  1  0  0  0  0
 23 18  1  0  0  0  0
 24 29  1  0  0  0  0
 24 21  1  0  0  0  0
 25 28  1  0  0  0  0
 25 29  1  0  0  0  0
 26 27  1  0  0  0  0
 28 26  1  0  0  0  0
 29 27  1  0  0  0  0
 30 31  1  1  0  0  0
 30 32  1  0  0  0  0
 33 35  1  1  0  0  0
 34 35  1  0  0  0  0
 34 38  1  1  0  0  0
 36 32  1  1  0  0  0
 36 34  1  0  0  0  0
 37 43  1  6  0  0  0
 37 39  1  0  0  0  0
 37 33  1  0  0  0  0
 39 36  1  0  0  0  0
 39 33  1  0  0  0  0
 40 43  1  0  0  0  0
 41 40  1  0  0  0  0
 43 42  2  0  0  0  0
 44 45  1  0  0  0  0
 47 53  1  0  0  0  0
 47 46  1  0  0  0  0
 48 49  1  0  0  0  0
 49 46  2  0  0  0  0
 49 45  1  0  0  0  0
 50 48  1  0  0  0  0
 50 47  1  0  0  0  0
 51 50  2  0  0  0  0
 53 52  1  0  0  0  0
 54 55  1  0  0  0  0
 55 56  1  0  0  0  0
 55 53  1  0  0  0  0
M  END
>  <MODEL>
9

>  <REMARK>
 VINA RESULT:      -6.1      3.543      8.940
  Name = 
  11 active torsions:
  status: ('A' for Active; 'I' for Inactive)
    1  A    between atoms: C_4  and  C_41
    2  A    between atoms: C_4  and  N_56
    3  A    between atoms: C_7  and  C_22
    4  A    between atoms: C_9  and  C_47
    5  A    between atoms: C_9  and  N_48
    6  A    between atoms: C_10  and  C_32
    7  A    between atoms: C_23  and  N_48
    8  A    between atoms: C_29  and  C_32
    9  A    between atoms: C_31  and  C_37
   10  A    between atoms: C_37  and  C_45
   11  A    between atoms: C_39  and  C_52
                            x       y       z     vdW  Elec       q    Type
                         _______ _______ _______ _____ _____    ______ ____

>  <TORSDO>
F 11

$$$$
