=
 OpenBabel10222418283D

 28 33  0  0  1  0  0  0  0  0999 V2000
  190.7200  177.3940  140.8040 C   0  0  0  0  0  0  0  0  0  0  0  0
  189.9610  177.3990  144.2990 C   0  0  0  0  0  0  0  0  0  0  0  0
  191.4070  177.0380  144.4140 C   0  0  2  0  0  0  0  0  0  0  0  0
  191.9530  177.1450  143.0490 C   0  0  1  0  0  3  0  0  0  0  0  0
  189.3450  177.3380  140.1780 C   0  0  1  0  0  3  0  0  0  0  0  0
  188.9360  177.3180  145.2400 C   0  0  0  0  0  3  0  0  0  0  0  0
  184.2350  178.9560  144.4530 C   0  0  0  0  0  0  0  0  0  0  0  0
  186.2940  178.9990  146.2980 N   0  0  0  0  0  2  0  0  0  0  0  0
  187.6210  177.6240  144.8370 C   0  0  0  0  0  0  0  0  0  0  0  0
  191.6290  175.8050  143.5760 N   0  0  1  0  0  0  0  0  0  0  0  0
  187.3530  178.0030  143.4770 C   0  0  0  0  0  0  0  0  0  0  0  0
  188.4370  178.1060  142.5780 C   0  0  0  0  0  0  0  0  0  0  0  0
  190.8460  177.6310  142.2120 N   0  0  0  0  0  0  0  0  0  0  0  0
  188.2480  178.6370  140.8680 S   0  0  0  0  0  0  0  0  0  0  0  0
  184.7490  177.9130  143.5230 C   0  0  0  0  0  2  0  0  0  0  0  0
  186.5870  177.6220  145.9110 C   0  0  0  0  0  2  0  0  0  0  0  0
  191.6910  175.7650  145.0440 C   0  0  0  0  0  2  0  0  0  0  0  0
  186.0380  178.3040  142.9680 N   0  0  0  0  0  2  0  0  0  0  0  0
  184.0760  178.6240  145.8310 N   0  0  0  0  0  2  0  0  0  0  0  0
  184.0010  180.1250  144.0470 O   0  0  0  0  0  0  0  0  0  0  0  0
  191.7450  177.1400  140.1160 O   0  0  0  0  0  0  0  0  0  0  0  0
  184.9810  179.0720  146.8140 N   0  0  0  0  0  2  0  0  0  0  0  0
  189.7120  177.8060  143.0310 C   0  0  0  0  0  0  0  0  0  0  0  0
  189.4290  177.4950  138.7340 N   0  0  0  0  0  2  0  0  0  0  0  0
  188.9420  176.2640  138.1320 C   0  0  1  0  0  3  0  0  0  0  0  0
  187.6580  176.5330  137.3690 C   0  0  0  0  0  1  0  0  0  0  0  0
  190.0010  175.6530  137.2180 C   0  0  0  0  0  2  0  0  0  0  0  0
  190.7710  174.6350  137.9170 N   0  0  0  0  0  1  0  0  0  0  0  0
  1 13  1  0  0  0  0
  2  3  1  0  0  0  0
  2  6  1  0  0  0  0
  3 17  1  1  0  0  0
  4 13  1  6  0  0  0
  4 10  1  0  0  0  0
  4  3  1  0  0  0  0
  5 24  1  6  0  0  0
  5  1  1  0  0  0  0
  5 14  1  0  0  0  0
  7 19  1  0  0  0  0
  8 22  1  0  0  0  0
  9  6  2  0  0  0  0
  9 16  1  0  0  0  0
 10  3  1  0  0  0  0
 10 17  1  1  0  0  0
 11  9  1  0  0  0  0
 12 23  1  0  0  0  0
 12 11  2  0  0  0  0
 13 23  1  0  0  0  0
 14 12  1  0  0  0  0
 15  7  1  0  0  0  0
 16  8  1  0  0  0  0
 18 11  1  0  0  0  0
 18 15  1  0  0  0  0
 19 22  1  0  0  0  0
 20  7  2  0  0  0  0
 21  1  2  0  0  0  0
 23  2  2  0  0  0  0
 25 26  1  6  0  0  0
 25 24  1  0  0  0  0
 27 28  1  0  0  0  0
 27 25  1  0  0  0  0
M  END
>  <MODEL>
1

>  <REMARK>
 VINA RESULT:      -8.9      0.000      0.000
  Name = 
  3 active torsions:
  status: ('A' for Active; 'I' for Inactive)
    1  A    between atoms: C_1  and  C_7
    2  A    between atoms: N_6  and  C_7
    3  A    between atoms: N_6  and  C_8
                            x       y       z     vdW  Elec       q    Type
                         _______ _______ _______ _____ _____    ______ ____

>  <TORSDO>
F 3

$$$$
=
 OpenBabel10222418283D

 28 33  0  0  1  0  0  0  0  0999 V2000
  186.4410  178.4420  140.7120 C   0  0  0  0  0  0  0  0  0  0  0  0
  186.2250  178.0970  144.2650 C   0  0  0  0  0  0  0  0  0  0  0  0
  184.7860  178.4120  144.0110 C   0  0  2  0  0  0  0  0  0  0  0  0
  184.6360  178.4330  142.5450 C   0  0  1  0  0  3  0  0  0  0  0  0
  187.9290  178.5920  140.4940 C   0  0  1  0  0  3  0  0  0  0  0  0
  186.9520  178.1050  145.4530 C   0  0  0  0  0  3  0  0  0  0  0  0
  191.7660  176.6620  145.8380 C   0  0  0  0  0  0  0  0  0  0  0  0
  189.2890  176.3840  147.0360 N   0  0  0  0  0  2  0  0  0  0  0  0
  188.3400  177.8710  145.4000 C   0  0  0  0  0  0  0  0  0  0  0  0
  184.7370  179.7180  143.2620 N   0  0  1  0  0  0  0  0  0  0  0  0
  188.9850  177.6390  144.1370 C   0  0  0  0  0  0  0  0  0  0  0  0
  188.1900  177.6040  142.9700 C   0  0  0  0  0  0  0  0  0  0  0  0
  185.9500  178.0600  142.0030 N   0  0  0  0  0  0  0  0  0  0  0  0
  188.8610  177.2550  141.3350 S   0  0  0  0  0  0  0  0  0  0  0  0
  191.4710  177.7830  144.9030 C   0  0  0  0  0  2  0  0  0  0  0  0
  189.0440  177.7870  146.7120 C   0  0  0  0  0  2  0  0  0  0  0  0
  184.2790  179.6070  144.6540 C   0  0  0  0  0  2  0  0  0  0  0  0
  190.4020  177.4220  143.9820 N   0  0  0  0  0  2  0  0  0  0  0  0
  191.5290  176.8550  147.2310 N   0  0  0  0  0  2  0  0  0  0  0  0
  192.1580  175.5460  145.4060 O   0  0  0  0  0  0  0  0  0  0  0  0
  185.6290  178.7410  139.7950 O   0  0  0  0  0  0  0  0  0  0  0  0
  190.4150  176.2890  147.8830 N   0  0  0  0  0  2  0  0  0  0  0  0
  186.8280  177.8280  143.0820 C   0  0  0  0  0  0  0  0  0  0  0  0
  188.2460  178.5810  139.0740 N   0  0  0  0  0  2  0  0  0  0  0  0
  188.5710  177.2100  138.7110 C   0  0  1  0  0  3  0  0  0  0  0  0
  187.6030  176.7120  137.6540 C   0  0  0  0  0  1  0  0  0  0  0  0
  190.0130  177.1070  138.2200 C   0  0  0  0  0  2  0  0  0  0  0  0
  190.5300  175.7590  138.3970 N   0  0  0  0  0  1  0  0  0  0  0  0
  1 13  1  0  0  0  0
  2  6  1  0  0  0  0
  3  2  1  0  0  0  0
  3 17  1  1  0  0  0
  4 13  1  6  0  0  0
  4 10  1  0  0  0  0
  4  3  1  0  0  0  0
  5 24  1  6  0  0  0
  5  1  1  0  0  0  0
  5 14  1  0  0  0  0
  7 19  1  0  0  0  0
  8 22  1  0  0  0  0
  9  6  2  0  0  0  0
  9 16  1  0  0  0  0
 10  3  1  0  0  0  0
 10 17  1  1  0  0  0
 11  9  1  0  0  0  0
 12 23  1  0  0  0  0
 12 11  2  0  0  0  0
 13 23  1  0  0  0  0
 14 12  1  0  0  0  0
 15  7  1  0  0  0  0
 16  8  1  0  0  0  0
 18 11  1  0  0  0  0
 18 15  1  0  0  0  0
 19 22  1  0  0  0  0
 20  7  2  0  0  0  0
 21  1  2  0  0  0  0
 23  2  2  0  0  0  0
 25 26  1  6  0  0  0
 25 24  1  0  0  0  0
 27 28  1  0  0  0  0
 27 25  1  0  0  0  0
M  END
>  <MODEL>
2

>  <REMARK>
 VINA RESULT:      -8.7      2.282      5.029
  Name = 
  3 active torsions:
  status: ('A' for Active; 'I' for Inactive)
    1  A    between atoms: C_1  and  C_7
    2  A    between atoms: N_6  and  C_7
    3  A    between atoms: N_6  and  C_8
                            x       y       z     vdW  Elec       q    Type
                         _______ _______ _______ _____ _____    ______ ____

>  <TORSDO>
F 3

$$$$
=
 OpenBabel10222418283D

 28 33  0  0  1  0  0  0  0  0999 V2000
  184.9310  178.6640  145.2530 C   0  0  0  0  0  0  0  0  0  0  0  0
  188.2270  177.3350  144.8480 C   0  0  0  0  0  0  0  0  0  0  0  0
  188.1360  177.1830  146.3320 C   0  0  2  0  0  0  0  0  0  0  0  0
  186.7490  177.5380  146.6840 C   0  0  1  0  0  3  0  0  0  0  0  0
  184.7100  179.3770  143.9390 C   0  0  1  0  0  3  0  0  0  0  0  0
  189.3340  177.2800  144.0050 C   0  0  0  0  0  3  0  0  0  0  0  0
  189.0830  177.5640  138.9790 C   0  0  0  0  0  0  0  0  0  0  0  0
  190.2410  176.1310  141.0410 N   0  0  0  0  0  2  0  0  0  0  0  0
  189.1590  177.5700  142.6370 C   0  0  0  0  0  0  0  0  0  0  0  0
  187.8110  178.5380  146.9040 N   0  0  1  0  0  0  0  0  0  0  0  0
  187.8600  177.9220  142.1350 C   0  0  0  0  0  0  0  0  0  0  0  0
  186.7670  177.9230  143.0300 C   0  0  0  0  0  0  0  0  0  0  0  0
  186.0690  177.8060  145.4090 N   0  0  0  0  0  0  0  0  0  0  0  0
  185.0780  178.2780  142.5170 S   0  0  0  0  0  0  0  0  0  0  0  0
  188.5350  178.7170  139.7470 C   0  0  0  0  0  2  0  0  0  0  0  0
  190.3580  177.3920  141.7690 C   0  0  0  0  0  2  0  0  0  0  0  0
  189.1240  177.9090  147.1030 C   0  0  0  0  0  2  0  0  0  0  0  0
  187.5920  178.2630  140.7600 N   0  0  0  0  0  2  0  0  0  0  0  0
  190.4780  177.2850  139.0690 N   0  0  0  0  0  2  0  0  0  0  0  0
  188.3230  176.8140  138.3120 O   0  0  0  0  0  0  0  0  0  0  0  0
  184.1780  178.8920  146.2370 O   0  0  0  0  0  0  0  0  0  0  0  0
  190.9760  176.2140  139.8380 N   0  0  0  0  0  2  0  0  0  0  0  0
  186.9940  177.6180  144.3620 C   0  0  0  0  0  0  0  0  0  0  0  0
  183.3390  179.8550  143.8360 N   0  0  0  0  0  2  0  0  0  0  0  0
  182.5370  178.7660  143.2990 C   0  0  1  0  0  3  0  0  0  0  0  0
  181.3240  178.5330  144.1810 C   0  0  0  0  0  1  0  0  0  0  0  0
  182.1160  179.0610  141.8620 C   0  0  0  0  0  2  0  0  0  0  0  0
  180.7040  179.4060  141.7910 N   0  0  0  0  0  1  0  0  0  0  0  0
  1 13  1  0  0  0  0
  1 21  2  0  0  0  0
  2  3  1  0  0  0  0
  3  4  1  0  0  0  0
  3 10  1  0  0  0  0
  3 17  1  1  0  0  0
  4 13  1  6  0  0  0
  4 10  1  0  0  0  0
  5 24  1  6  0  0  0
  5  1  1  0  0  0  0
  6  2  2  0  0  0  0
  7 19  1  0  0  0  0
  7 15  1  0  0  0  0
  8 16  1  0  0  0  0
  9  6  1  0  0  0  0
 10 17  1  1  0  0  0
 11  9  2  0  0  0  0
 11 12  1  0  0  0  0
 12 23  2  0  0  0  0
 14 12  1  0  0  0  0
 14  5  1  0  0  0  0
 15 18  1  0  0  0  0
 16  9  1  0  0  0  0
 18 11  1  0  0  0  0
 19 22  1  0  0  0  0
 20  7  2  0  0  0  0
 22  8  1  0  0  0  0
 23  2  1  0  0  0  0
 23 13  1  0  0  0  0
 25 24  1  0  0  0  0
 25 26  1  1  0  0  0
 27 25  1  0  0  0  0
 28 27  1  0  0  0  0
M  END
>  <MODEL>
3

>  <REMARK>
 VINA RESULT:      -8.1      2.174      6.694
  Name = 
  3 active torsions:
  status: ('A' for Active; 'I' for Inactive)
    1  A    between atoms: C_1  and  C_7
    2  A    between atoms: N_6  and  C_7
    3  A    between atoms: N_6  and  C_8
                            x       y       z     vdW  Elec       q    Type
                         _______ _______ _______ _____ _____    ______ ____

>  <TORSDO>
F 3

$$$$
=
 OpenBabel10222418283D

 28 33  0  0  1  0  0  0  0  0999 V2000
  190.3080  176.8720  143.7940 C   0  0  0  0  0  0  0  0  0  0  0  0
  187.5340  178.0800  145.7020 C   0  0  0  0  0  0  0  0  0  0  0  0
  188.5150  177.9780  146.8260 C   0  0  2  0  0  0  0  0  0  0  0  0
  189.8050  177.6390  146.1980 C   0  0  1  0  0  3  0  0  0  0  0  0
  189.6420  176.4100  142.5180 C   0  0  1  0  0  3  0  0  0  0  0  0
  186.1490  178.2230  145.7280 C   0  0  0  0  0  3  0  0  0  0  0  0
  183.2880  178.8260  141.6220 C   0  0  0  0  0  0  0  0  0  0  0  0
  183.7110  179.8200  144.1680 N   0  0  0  0  0  2  0  0  0  0  0  0
  185.4410  178.1840  144.5100 C   0  0  0  0  0  0  0  0  0  0  0  0
  189.0300  176.5620  146.8450 N   0  0  1  0  0  0  0  0  0  0  0  0
  186.1450  177.9910  143.2720 C   0  0  0  0  0  0  0  0  0  0  0  0
  187.5540  177.8910  143.3050 C   0  0  0  0  0  0  0  0  0  0  0  0
  189.5560  177.6310  144.7500 N   0  0  0  0  0  0  0  0  0  0  0  0
  188.5610  177.7180  141.8220 S   0  0  0  0  0  0  0  0  0  0  0  0
  184.1130  177.5880  141.6920 C   0  0  0  0  0  2  0  0  0  0  0  0
  183.9760  178.4470  144.5920 C   0  0  0  0  0  2  0  0  0  0  0  0
  188.1500  177.0790  147.9020 C   0  0  0  0  0  2  0  0  0  0  0  0
  185.5040  177.9070  141.9840 N   0  0  0  0  0  2  0  0  0  0  0  0
  182.2540  179.0140  142.5840 N   0  0  0  0  0  2  0  0  0  0  0  0
  183.5360  179.7190  140.7680 O   0  0  0  0  0  0  0  0  0  0  0  0
  191.4860  176.5160  144.0640 O   0  0  0  0  0  0  0  0  0  0  0  0
  182.3940  179.9080  143.6640 N   0  0  0  0  0  2  0  0  0  0  0  0
  188.2000  177.9490  144.5290 C   0  0  0  0  0  0  0  0  0  0  0  0
  190.6360  176.0280  141.5260 N   0  0  0  0  0  2  0  0  0  0  0  0
  190.7600  177.1310  140.5860 C   0  0  1  0  0  3  0  0  0  0  0  0
  192.1990  177.6100  140.5360 C   0  0  0  0  0  1  0  0  0  0  0  0
  190.2760  176.7160  139.1990 C   0  0  0  0  0  2  0  0  0  0  0  0
  190.9460  175.5050  138.7520 N   0  0  0  0  0  1  0  0  0  0  0  0
  1 21  2  0  0  0  0
  1 13  1  0  0  0  0
  2  6  1  0  0  0  0
  2  3  1  0  0  0  0
  3 10  1  0  0  0  0
  3 17  1  1  0  0  0
  4 13  1  6  0  0  0
  4  3  1  0  0  0  0
  4 10  1  0  0  0  0
  5 24  1  6  0  0  0
  5  1  1  0  0  0  0
  7 15  1  0  0  0  0
  7 19  1  0  0  0  0
  8 16  1  0  0  0  0
  9 16  1  0  0  0  0
  9  6  2  0  0  0  0
 10 17  1  1  0  0  0
 11 12  2  0  0  0  0
 11  9  1  0  0  0  0
 12 23  1  0  0  0  0
 14  5  1  0  0  0  0
 14 12  1  0  0  0  0
 15 18  1  0  0  0  0
 18 11  1  0  0  0  0
 19 22  1  0  0  0  0
 20  7  2  0  0  0  0
 22  8  1  0  0  0  0
 23 13  1  0  0  0  0
 23  2  2  0  0  0  0
 25 26  1  6  0  0  0
 25 24  1  0  0  0  0
 27 25  1  0  0  0  0
 28 27  1  0  0  0  0
M  END
>  <MODEL>
4

>  <REMARK>
 VINA RESULT:      -7.5      2.065      3.160
  Name = 
  3 active torsions:
  status: ('A' for Active; 'I' for Inactive)
    1  A    between atoms: C_1  and  C_7
    2  A    between atoms: N_6  and  C_7
    3  A    between atoms: N_6  and  C_8
                            x       y       z     vdW  Elec       q    Type
                         _______ _______ _______ _____ _____    ______ ____

>  <TORSDO>
F 3

$$$$
=
 OpenBabel10222418283D

 28 33  0  0  1  0  0  0  0  0999 V2000
  183.8620  178.7120  144.2280 C   0  0  0  0  0  0  0  0  0  0  0  0
  187.0040  177.9250  145.7450 C   0  0  0  0  0  0  0  0  0  0  0  0
  186.2080  178.0620  147.0030 C   0  0  2  0  0  0  0  0  0  0  0  0
  184.8090  178.2330  146.5720 C   0  0  1  0  0  3  0  0  0  0  0  0
  184.2710  179.0950  142.8240 C   0  0  1  0  0  3  0  0  0  0  0  0
  188.3830  177.8950  145.5510 C   0  0  0  0  0  3  0  0  0  0  0  0
  190.6020  177.1110  141.0940 C   0  0  0  0  0  0  0  0  0  0  0  0
  190.6830  176.3480  143.7510 N   0  0  0  0  0  2  0  0  0  0  0  0
  188.8820  177.8680  144.2340 C   0  0  0  0  0  0  0  0  0  0  0  0
  185.5710  179.4270  146.9850 N   0  0  1  0  0  0  0  0  0  0  0  0
  187.9760  177.8790  143.1190 C   0  0  0  0  0  0  0  0  0  0  0  0
  186.5880  177.8700  143.3770 C   0  0  0  0  0  0  0  0  0  0  0  0
  184.8240  178.1150  145.1070 N   0  0  0  0  0  0  0  0  0  0  0  0
  185.3470  177.8130  142.0730 S   0  0  0  0  0  0  0  0  0  0  0  0
  189.6860  178.2810  141.1940 C   0  0  0  0  0  2  0  0  0  0  0  0
  190.3600  177.7310  144.0930 C   0  0  0  0  0  2  0  0  0  0  0  0
  186.6520  179.0900  147.9210 C   0  0  0  0  0  2  0  0  0  0  0  0
  188.3950  177.8830  141.7390 N   0  0  0  0  0  2  0  0  0  0  0  0
  191.7890  177.1040  141.8840 N   0  0  0  0  0  2  0  0  0  0  0  0
  190.3070  176.1200  140.3740 O   0  0  0  0  0  0  0  0  0  0  0  0
  182.7130  178.9990  144.6580 O   0  0  0  0  0  0  0  0  0  0  0  0
  191.9060  176.3140  143.0450 N   0  0  0  0  0  2  0  0  0  0  0  0
  186.1520  177.8840  144.6920 C   0  0  0  0  0  0  0  0  0  0  0  0
  183.1000  179.2950  141.9820 N   0  0  0  0  0  2  0  0  0  0  0  0
  183.3410  178.5970  140.7290 C   0  0  1  0  0  3  0  0  0  0  0  0
  182.2980  177.5120  140.5320 C   0  0  0  0  0  1  0  0  0  0  0  0
  183.3370  179.5750  139.5560 C   0  0  0  0  0  2  0  0  0  0  0  0
  184.6930  179.8930  139.1360 N   0  0  0  0  0  1  0  0  0  0  0  0
  1 21  2  0  0  0  0
  1 13  1  0  0  0  0
  2  3  1  0  0  0  0
  3 17  1  1  0  0  0
  4 13  1  6  0  0  0
  4 10  1  0  0  0  0
  4  3  1  0  0  0  0
  5 24  1  6  0  0  0
  5  1  1  0  0  0  0
  6  2  1  0  0  0  0
  7 15  1  0  0  0  0
  7 19  1  0  0  0  0
  8 16  1  0  0  0  0
  9  6  2  0  0  0  0
 10  3  1  0  0  0  0
 10 17  1  1  0  0  0
 11 12  2  0  0  0  0
 11  9  1  0  0  0  0
 12 23  1  0  0  0  0
 14  5  1  0  0  0  0
 14 12  1  0  0  0  0
 15 18  1  0  0  0  0
 16  9  1  0  0  0  0
 18 11  1  0  0  0  0
 19 22  1  0  0  0  0
 20  7  2  0  0  0  0
 22  8  1  0  0  0  0
 23 13  1  0  0  0  0
 23  2  2  0  0  0  0
 25 26  1  6  0  0  0
 25 24  1  0  0  0  0
 27 25  1  0  0  0  0
 28 27  1  0  0  0  0
M  END
>  <MODEL>
5

>  <REMARK>
 VINA RESULT:      -7.5      2.191      6.337
  Name = 
  3 active torsions:
  status: ('A' for Active; 'I' for Inactive)
    1  A    between atoms: C_1  and  C_7
    2  A    between atoms: N_6  and  C_7
    3  A    between atoms: N_6  and  C_8
                            x       y       z     vdW  Elec       q    Type
                         _______ _______ _______ _____ _____    ______ ____

>  <TORSDO>
F 3

$$$$
=
 OpenBabel10222418283D

 28 33  0  0  1  0  0  0  0  0999 V2000
  186.2770  178.5370  139.1780 C   0  0  0  0  0  0  0  0  0  0  0  0
  189.1300  177.7530  141.1880 C   0  0  0  0  0  0  0  0  0  0  0  0
  189.8150  177.7350  139.8600 C   0  0  2  0  0  0  0  0  0  0  0  0
  188.8120  178.2050  138.8880 C   0  0  1  0  0  3  0  0  0  0  0  0
  185.1320  178.2630  140.1260 C   0  0  1  0  0  3  0  0  0  0  0  0
  189.5500  177.2660  142.4240 C   0  0  0  0  0  3  0  0  0  0  0  0
  186.9730  177.8390  146.7170 C   0  0  0  0  0  0  0  0  0  0  0  0
  189.5080  178.0540  145.6340 N   0  0  0  0  0  2  0  0  0  0  0  0
  188.6550  177.3130  143.5100 C   0  0  0  0  0  0  0  0  0  0  0  0
  189.0750  176.7560  138.9850 N   0  0  1  0  0  0  0  0  0  0  0  0
  187.3320  177.8470  143.3330 C   0  0  0  0  0  0  0  0  0  0  0  0
  186.9760  178.3610  142.0670 C   0  0  0  0  0  0  0  0  0  0  0  0
  187.6210  178.5490  139.6770 N   0  0  0  0  0  0  0  0  0  0  0  0
  185.3780  179.1200  141.7290 S   0  0  0  0  0  0  0  0  0  0  0  0
  186.2810  177.1280  145.6060 C   0  0  0  0  0  2  0  0  0  0  0  0
  189.1960  176.8760  144.8290 C   0  0  0  0  0  2  0  0  0  0  0  0
  190.4290  176.4780  139.4840 C   0  0  0  0  0  2  0  0  0  0  0  0
  186.3400  177.9070  144.3770 N   0  0  0  0  0  2  0  0  0  0  0  0
  188.1360  177.2450  147.2890 N   0  0  0  0  0  2  0  0  0  0  0  0
  186.5770  178.9700  147.1050 O   0  0  0  0  0  0  0  0  0  0  0  0
  186.0660  178.6600  137.9420 O   0  0  0  0  0  0  0  0  0  0  0  0
  189.4320  177.7190  147.0040 N   0  0  0  0  0  2  0  0  0  0  0  0
  187.9000  178.3020  141.0370 C   0  0  0  0  0  0  0  0  0  0  0  0
  183.8670  178.6840  139.5430 N   0  0  0  0  0  2  0  0  0  0  0  0
  182.8640  177.7020  139.9230 C   0  0  1  0  0  3  0  0  0  0  0  0
  181.6840  178.3940  140.5800 C   0  0  0  0  0  1  0  0  0  0  0  0
  182.4130  176.8920  138.7100 C   0  0  0  0  0  2  0  0  0  0  0  0
  183.0080  175.5640  138.7180 N   0  0  0  0  0  1  0  0  0  0  0  0
  1 13  1  0  0  0  0
  1  5  1  0  0  0  0
  2  6  1  0  0  0  0
  3 17  1  6  0  0  0
  3  2  1  0  0  0  0
  4 10  1  0  0  0  0
  4 13  1  1  0  0  0
  4  3  1  0  0  0  0
  5 24  1  6  0  0  0
  5 14  1  0  0  0  0
  6  9  2  0  0  0  0
  7 20  2  0  0  0  0
  7 19  1  0  0  0  0
  8 22  1  0  0  0  0
  9 16  1  0  0  0  0
 10 17  1  6  0  0  0
 10  3  1  0  0  0  0
 11  9  1  0  0  0  0
 11 18  1  0  0  0  0
 12 11  2  0  0  0  0
 13 23  1  0  0  0  0
 14 12  1  0  0  0  0
 15  7  1  0  0  0  0
 16  8  1  0  0  0  0
 18 15  1  0  0  0  0
 21  1  2  0  0  0  0
 22 19  1  0  0  0  0
 23  2  2  0  0  0  0
 23 12  1  0  0  0  0
 24 25  1  0  0  0  0
 25 26  1  6  0  0  0
 27 28  1  0  0  0  0
 27 25  1  0  0  0  0
M  END
>  <MODEL>
6

>  <REMARK>
 VINA RESULT:      -7.4      3.033      4.647
  Name = 
  3 active torsions:
  status: ('A' for Active; 'I' for Inactive)
    1  A    between atoms: C_1  and  C_7
    2  A    between atoms: N_6  and  C_7
    3  A    between atoms: N_6  and  C_8
                            x       y       z     vdW  Elec       q    Type
                         _______ _______ _______ _____ _____    ______ ____

>  <TORSDO>
F 3

$$$$
=
 OpenBabel10222418283D

 28 33  0  0  1  0  0  0  0  0999 V2000
  186.3300  178.1400  145.8480 C   0  0  0  0  0  0  0  0  0  0  0  0
  185.8160  178.9030  142.3920 C   0  0  0  0  0  0  0  0  0  0  0  0
  184.5070  179.4140  142.9010 C   0  0  2  0  0  0  0  0  0  0  0  0
  184.5930  179.3320  144.3710 C   0  0  1  0  0  3  0  0  0  0  0  0
  187.4880  177.1690  145.7930 C   0  0  1  0  0  3  0  0  0  0  0  0
  186.2250  178.6150  141.0910 C   0  0  0  0  0  3  0  0  0  0  0  0
  190.8930  177.1810  139.8410 C   0  0  0  0  0  0  0  0  0  0  0  0
  188.8560  178.9030  139.1110 N   0  0  0  0  0  2  0  0  0  0  0  0
  187.4930  178.0340  140.8920 C   0  0  0  0  0  0  0  0  0  0  0  0
  183.8450  178.2850  143.6480 N   0  0  1  0  0  0  0  0  0  0  0  0
  188.3370  177.7410  142.0180 C   0  0  0  0  0  0  0  0  0  0  0  0
  187.8860  178.0920  143.3100 C   0  0  0  0  0  0  0  0  0  0  0  0
  185.9520  178.8580  144.6660 N   0  0  0  0  0  0  0  0  0  0  0  0
  188.8720  177.8440  144.7960 S   0  0  0  0  0  0  0  0  0  0  0  0
  190.1620  176.3230  140.8160 C   0  0  0  0  0  2  0  0  0  0  0  0
  187.9160  177.8460  139.4750 C   0  0  0  0  0  2  0  0  0  0  0  0
  183.3260  178.7710  142.3620 C   0  0  0  0  0  2  0  0  0  0  0  0
  189.6340  177.1210  141.9140 N   0  0  0  0  0  2  0  0  0  0  0  0
  190.3830  177.2940  138.5150 N   0  0  0  0  0  2  0  0  0  0  0  0
  191.9040  177.8420  140.1950 O   0  0  0  0  0  0  0  0  0  0  0  0
  185.6390  178.2490  146.8960 O   0  0  0  0  0  0  0  0  0  0  0  0
  189.6980  178.4440  138.0750 N   0  0  0  0  0  2  0  0  0  0  0  0
  186.6350  178.6730  143.4460 C   0  0  0  0  0  0  0  0  0  0  0  0
  187.9650  176.8590  147.1320 N   0  0  0  0  0  2  0  0  0  0  0  0
  189.2720  177.4810  147.2840 C   0  0  1  0  0  3  0  0  0  0  0  0
  189.2670  178.4080  148.4850 C   0  0  0  0  0  1  0  0  0  0  0  0
  190.3620  176.4210  147.4180 C   0  0  0  0  0  2  0  0  0  0  0  0
  191.6710  176.9760  147.1080 N   0  0  0  0  0  1  0  0  0  0  0  0
  1 21  2  0  0  0  0
  2  3  1  0  0  0  0
  2 23  1  0  0  0  0
  3 17  1  6  0  0  0
  3 10  1  0  0  0  0
  3  4  1  0  0  0  0
  4 13  1  6  0  0  0
  5  1  1  0  0  0  0
  5 24  1  1  0  0  0
  6  2  2  0  0  0  0
  7 20  2  0  0  0  0
  7 15  1  0  0  0  0
  8 16  1  0  0  0  0
  9  6  1  0  0  0  0
  9 11  2  0  0  0  0
 10 17  1  1  0  0  0
 10  4  1  0  0  0  0
 11 12  1  0  0  0  0
 12 23  2  0  0  0  0
 12 14  1  0  0  0  0
 13  1  1  0  0  0  0
 14  5  1  0  0  0  0
 15 18  1  0  0  0  0
 16  9  1  0  0  0  0
 18 11  1  0  0  0  0
 19  7  1  0  0  0  0
 22 19  1  0  0  0  0
 22  8  1  0  0  0  0
 23 13  1  0  0  0  0
 24 25  1  0  0  0  0
 25 27  1  0  0  0  0
 25 26  1  1  0  0  0
 28 27  1  0  0  0  0
M  END
>  <MODEL>
7

>  <REMARK>
 VINA RESULT:      -7.3      2.195      7.432
  Name = 
  3 active torsions:
  status: ('A' for Active; 'I' for Inactive)
    1  A    between atoms: C_1  and  C_7
    2  A    between atoms: N_6  and  C_7
    3  A    between atoms: N_6  and  C_8
                            x       y       z     vdW  Elec       q    Type
                         _______ _______ _______ _____ _____    ______ ____

>  <TORSDO>
F 3

$$$$
=
 OpenBabel10222418283D

 28 33  0  0  1  0  0  0  0  0999 V2000
  190.7190  177.4060  142.4150 C   0  0  0  0  0  0  0  0  0  0  0  0
  187.9230  177.6990  140.2040 C   0  0  0  0  0  0  0  0  0  0  0  0
  188.9390  177.3030  139.1820 C   0  0  2  0  0  0  0  0  0  0  0  0
  190.1590  176.9710  139.9420 C   0  0  1  0  0  3  0  0  0  0  0  0
  190.2340  178.1410  143.6430 C   0  0  1  0  0  3  0  0  0  0  0  0
  186.6540  178.2510  140.0440 C   0  0  0  0  0  3  0  0  0  0  0  0
  183.4540  179.1430  143.8350 C   0  0  0  0  0  0  0  0  0  0  0  0
  183.6010  178.0580  141.2950 N   0  0  0  0  0  2  0  0  0  0  0  0
  185.9330  178.6370  141.1910 C   0  0  0  0  0  0  0  0  0  0  0  0
  190.0770  178.2860  139.2760 N   0  0  1  0  0  0  0  0  0  0  0  0
  186.5100  178.4670  142.4970 C   0  0  0  0  0  0  0  0  0  0  0  0
  187.7830  177.8660  142.5990 C   0  0  0  0  0  0  0  0  0  0  0  0
  189.7960  177.1070  141.3590 N   0  0  0  0  0  0  0  0  0  0  0  0
  188.5880  177.5320  144.1750 S   0  0  0  0  0  0  0  0  0  0  0  0
  184.7800  179.8210  143.8980 C   0  0  0  0  0  2  0  0  0  0  0  0
  184.5420  179.1230  140.9620 C   0  0  0  0  0  2  0  0  0  0  0  0
  189.1710  178.2600  138.1200 C   0  0  0  0  0  2  0  0  0  0  0  0
  185.8610  178.8600  143.7230 N   0  0  0  0  0  2  0  0  0  0  0  0
  182.5650  179.4810  142.7730 N   0  0  0  0  0  2  0  0  0  0  0  0
  183.1470  178.2480  144.6650 O   0  0  0  0  0  0  0  0  0  0  0  0
  191.9420  177.1390  142.2720 O   0  0  0  0  0  0  0  0  0  0  0  0
  182.3640  178.6270  141.6700 N   0  0  0  0  0  2  0  0  0  0  0  0
  188.4420  177.4930  141.4390 C   0  0  0  0  0  0  0  0  0  0  0  0
  191.1800  177.9930  144.7400 N   0  0  0  0  0  2  0  0  0  0  0  0
  190.7850  176.8180  145.5000 C   0  0  1  0  0  3  0  0  0  0  0  0
  191.7940  175.7030  145.2920 C   0  0  0  0  0  1  0  0  0  0  0  0
  190.6440  177.1550  146.9830 C   0  0  0  0  0  2  0  0  0  0  0  0
  191.8530  176.8080  147.7140 N   0  0  0  0  0  1  0  0  0  0  0  0
  1  5  1  0  0  0  0
  2 23  1  0  0  0  0
  3 17  1  6  0  0  0
  3 10  1  0  0  0  0
  3  4  1  0  0  0  0
  3  2  1  0  0  0  0
  4 13  1  1  0  0  0
  5 14  1  0  0  0  0
  5 24  1  1  0  0  0
  6  2  2  0  0  0  0
  6  9  1  0  0  0  0
  7 15  1  0  0  0  0
  7 20  2  0  0  0  0
  8 22  1  0  0  0  0
  9 11  2  0  0  0  0
 10 17  1  6  0  0  0
 10  4  1  0  0  0  0
 11 12  1  0  0  0  0
 11 18  1  0  0  0  0
 12 14  1  0  0  0  0
 13 23  1  0  0  0  0
 13  1  1  0  0  0  0
 16  9  1  0  0  0  0
 16  8  1  0  0  0  0
 18 15  1  0  0  0  0
 19  7  1  0  0  0  0
 21  1  2  0  0  0  0
 22 19  1  0  0  0  0
 23 12  2  0  0  0  0
 24 25  1  0  0  0  0
 25 26  1  1  0  0  0
 25 27  1  0  0  0  0
 27 28  1  0  0  0  0
M  END
>  <MODEL>
8

>  <REMARK>
 VINA RESULT:      -6.8      2.196      5.159
  Name = 
  3 active torsions:
  status: ('A' for Active; 'I' for Inactive)
    1  A    between atoms: C_1  and  C_7
    2  A    between atoms: N_6  and  C_7
    3  A    between atoms: N_6  and  C_8
                            x       y       z     vdW  Elec       q    Type
                         _______ _______ _______ _____ _____    ______ ____

>  <TORSDO>
F 3

$$$$
=
 OpenBabel10222418283D

 28 33  0  0  1  0  0  0  0  0999 V2000
  189.4100  177.8120  146.8910 C   0  0  0  0  0  0  0  0  0  0  0  0
  186.3660  178.4410  145.1220 C   0  0  0  0  0  0  0  0  0  0  0  0
  185.8190  178.5770  146.5070 C   0  0  2  0  0  0  0  0  0  0  0  0
  186.9870  178.5070  147.4040 C   0  0  1  0  0  3  0  0  0  0  0  0
  190.2790  177.1890  145.8220 C   0  0  1  0  0  3  0  0  0  0  0  0
  185.7060  178.2850  143.9060 C   0  0  0  0  0  3  0  0  0  0  0  0
  188.0120  178.1690  139.4260 C   0  0  0  0  0  0  0  0  0  0  0  0
  185.8630  179.2870  140.7600 N   0  0  0  0  0  2  0  0  0  0  0  0
  186.4700  178.0680  142.7430 C   0  0  0  0  0  0  0  0  0  0  0  0
  186.1470  177.3050  147.2460 N   0  0  1  0  0  0  0  0  0  0  0  0
  187.9040  178.0020  142.8230 C   0  0  0  0  0  0  0  0  0  0  0  0
  188.5190  178.2070  144.0780 C   0  0  0  0  0  0  0  0  0  0  0  0
  188.1610  178.4140  146.5260 N   0  0  0  0  0  0  0  0  0  0  0  0
  190.3060  178.2200  144.3040 S   0  0  0  0  0  0  0  0  0  0  0  0
  188.4190  177.1380  140.4200 C   0  0  0  0  0  2  0  0  0  0  0  0
  185.7140  178.0130  141.4590 C   0  0  0  0  0  2  0  0  0  0  0  0
  184.7690  177.6460  146.8640 C   0  0  0  0  0  2  0  0  0  0  0  0
  188.7650  177.7540  141.6940 N   0  0  0  0  0  2  0  0  0  0  0  0
  186.6740  178.1520  138.9340 N   0  0  0  0  0  2  0  0  0  0  0  0
  188.8120  179.0740  139.0700 O   0  0  0  0  0  0  0  0  0  0  0  0
  189.7320  177.7230  148.1060 O   0  0  0  0  0  0  0  0  0  0  0  0
  185.7080  179.0800  139.3720 N   0  0  0  0  0  2  0  0  0  0  0  0
  187.7190  178.4290  145.1870 C   0  0  0  0  0  0  0  0  0  0  0  0
  191.6400  177.0070  146.3050 N   0  0  0  0  0  2  0  0  0  0  0  0
  191.7790  175.6130  146.6980 C   0  0  1  0  0  3  0  0  0  0  0  0
  192.2740  174.7900  145.5230 C   0  0  0  0  0  1  0  0  0  0  0  0
  192.7210  175.4790  147.8920 C   0  0  0  0  0  2  0  0  0  0  0  0
  192.8010  176.7270  148.6360 N   0  0  0  0  0  1  0  0  0  0  0  0
  1 21  2  0  0  0  0
  2 23  1  0  0  0  0
  2  3  1  0  0  0  0
  3 17  1  1  0  0  0
  3 10  1  0  0  0  0
  3  4  1  0  0  0  0
  4 13  1  6  0  0  0
  5 24  1  1  0  0  0
  5  1  1  0  0  0  0
  6  2  2  0  0  0  0
  7 15  1  0  0  0  0
  8 16  1  0  0  0  0
  9 11  2  0  0  0  0
  9  6  1  0  0  0  0
 10 17  1  1  0  0  0
 10  4  1  0  0  0  0
 11 12  1  0  0  0  0
 12 14  1  0  0  0  0
 12 23  2  0  0  0  0
 13  1  1  0  0  0  0
 14  5  1  0  0  0  0
 15 18  1  0  0  0  0
 16  9  1  0  0  0  0
 18 11  1  0  0  0  0
 19 22  1  0  0  0  0
 19  7  1  0  0  0  0
 20  7  2  0  0  0  0
 22  8  1  0  0  0  0
 23 13  1  0  0  0  0
 24 25  1  0  0  0  0
 25 26  1  6  0  0  0
 25 27  1  0  0  0  0
 27 28  1  0  0  0  0
M  END
>  <MODEL>
9

>  <REMARK>
 VINA RESULT:      -6.6      2.772      6.482
  Name = 
  3 active torsions:
  status: ('A' for Active; 'I' for Inactive)
    1  A    between atoms: C_1  and  C_7
    2  A    between atoms: N_6  and  C_7
    3  A    between atoms: N_6  and  C_8
                            x       y       z     vdW  Elec       q    Type
                         _______ _______ _______ _____ _____    ______ ____

>  <TORSDO>
F 3

$$$$
