=
 OpenBabel10222415533D

 29 31  0  0  1  0  0  0  0  0999 V2000
  184.9280  179.2320  140.5840 C   0  0  0  0  0  3  0  0  0  0  0  0
  187.1120  178.3750  141.0690 N   0  0  0  0  0  0  0  0  0  0  0  0
  186.8270  178.3010  139.6860 C   0  0  0  0  0  0  0  0  0  0  0  0
  185.5430  178.7670  139.3490 N   0  0  0  0  0  0  0  0  0  0  0  0
  187.6520  177.8960  138.8250 O   0  0  0  0  0  0  0  0  0  0  0  0
  185.9480  178.9720  141.7190 C   0  0  2  0  0  3  0  0  0  0  0  0
  186.4220  177.6570  143.7920 C   0  0  0  0  0  3  0  0  0  0  0  0
  186.4800  178.1770  145.0310 C   0  0  0  0  0  0  0  0  0  0  0  0
  185.3610  178.0240  142.7800 C   0  0  1  0  0  3  0  0  0  0  0  0
  184.1600  178.6430  143.4590 C   0  0  0  0  0  0  0  0  0  0  0  0
  183.0400  178.6400  142.8870 O   0  0  0  0  0  0  0  0  0  0  0  0
  185.3990  179.0730  145.5010 C   0  0  0  0  0  3  0  0  0  0  0  0
  184.3020  179.2820  144.7730 C   0  0  0  0  0  3  0  0  0  0  0  0
  187.5950  177.8230  145.9410 C   0  0  0  0  0  0  0  0  0  0  0  0
  187.4080  177.8200  147.3310 C   0  0  0  0  0  3  0  0  0  0  0  0
  189.6630  177.1680  147.6890 C   0  0  0  0  0  3  0  0  0  0  0  0
  189.9000  177.1560  146.3150 C   0  0  0  0  0  3  0  0  0  0  0  0
  188.4330  177.4980  148.1660 N   0  0  0  0  0  0  0  0  0  0  0  0
  188.8620  177.4840  145.4420 C   0  0  0  0  0  3  0  0  0  0  0  0
  188.4640  178.5110  141.5990 C   0  0  0  0  0  2  0  0  0  0  0  0
  188.5910  176.2390  142.1880 O   0  0  0  0  0  0  0  0  0  0  0  0
  189.1460  177.1820  141.6470 C   0  0  0  0  0  0  0  0  0  0  0  0
  190.5000  177.0210  141.0210 C   0  0  2  0  0  3  0  0  0  0  0  0
  191.6320  177.3730  141.9730 C   0  0  0  0  0  1  0  0  0  0  0  0
  190.6410  177.6810  139.6470 C   0  0  0  0  0  2  0  0  0  0  0  0
  190.4810  176.9990  136.8460 O   0  0  0  0  0  0  0  0  0  0  0  0
  191.1950  176.5610  138.3140 P   0  0  0  0  0  0  0  0  0  0  0  0
  190.7760  175.1510  138.6590 O   0  0  0  0  0  1  0  0  0  0  0  0
  192.8790  176.6130  138.1580 O   0  0  0  0  0  1  0  0  0  0  0  0
  2 20  1  0  0  0  0
  2  6  1  0  0  0  0
  3  2  1  0  0  0  0
  4  3  1  0  0  0  0
  4  1  2  0  0  0  0
  5  3  2  0  0  0  0
  6  1  1  6  0  0  0
  6  9  1  0  0  0  0
  7  8  2  0  0  0  0
  8 12  1  0  0  0  0
  8 14  1  0  0  0  0
  9 10  1  0  0  0  0
  9  7  1  1  0  0  0
 10 13  1  0  0  0  0
 11 10  2  0  0  0  0
 13 12  2  0  0  0  0
 14 15  1  0  0  0  0
 15 18  2  0  0  0  0
 16 18  1  0  0  0  0
 17 16  2  0  0  0  0
 19 14  2  0  0  0  0
 19 17  1  0  0  0  0
 20 22  1  0  0  0  0
 22 21  2  0  0  0  0
 23 22  1  0  0  0  0
 23 24  1  1  0  0  0
 25 23  1  0  0  0  0
 26 27  2  0  0  0  0
 27 28  1  0  0  0  0
 27 25  1  0  0  0  0
 29 27  1  0  0  0  0
M  END
>  <MODEL>
1

>  <REMARK>
 VINA RESULT:      -8.9      0.000      0.000
  Name = 
  7 active torsions:
  status: ('A' for Active; 'I' for Inactive)
    1  A    between atoms: C_2  and  C_10
    2  A    between atoms: C_3  and  C_8
    3  A    between atoms: C_3  and  C_24
    4  A    between atoms: P_7  and  C_8
    5  A    between atoms: N_9  and  C_18
    6  A    between atoms: C_18  and  C_24
    7  A    between atoms: C_19  and  C_29
                            x       y       z     vdW  Elec       q    Type
                         _______ _______ _______ _____ _____    ______ ____

>  <TORSDO>
F 7

$$$$
=
 OpenBabel10222415533D

 29 31  0  0  1  0  0  0  0  0999 V2000
  184.9000  179.3960  141.8550 C   0  0  0  0  0  3  0  0  0  0  0  0
  187.0850  178.5050  141.4420 N   0  0  0  0  0  0  0  0  0  0  0  0
  186.3520  178.6450  140.2400 C   0  0  0  0  0  0  0  0  0  0  0  0
  185.0490  179.1400  140.4300 N   0  0  0  0  0  0  0  0  0  0  0  0
  186.8260  178.3920  139.1010 O   0  0  0  0  0  0  0  0  0  0  0  0
  186.2300  178.9750  142.5280 C   0  0  2  0  0  3  0  0  0  0  0  0
  187.3120  177.4040  144.1440 C   0  0  0  0  0  3  0  0  0  0  0  0
  187.7470  177.7480  145.3690 C   0  0  0  0  0  0  0  0  0  0  0  0
  185.9930  177.8640  143.5670 C   0  0  1  0  0  3  0  0  0  0  0  0
  185.0590  178.3300  144.6600 C   0  0  0  0  0  0  0  0  0  0  0  0
  183.8170  178.3590  144.4600 O   0  0  0  0  0  0  0  0  0  0  0  0
  186.8640  178.5230  146.2700 C   0  0  0  0  0  3  0  0  0  0  0  0
  185.5980  178.7850  145.9480 C   0  0  0  0  0  3  0  0  0  0  0  0
  189.0860  177.3190  145.8370 C   0  0  0  0  0  0  0  0  0  0  0  0
  189.3200  177.0670  147.1970 C   0  0  0  0  0  3  0  0  0  0  0  0
  191.5880  176.5130  146.7610 C   0  0  0  0  0  3  0  0  0  0  0  0
  191.4070  176.7510  145.3990 C   0  0  0  0  0  3  0  0  0  0  0  0
  190.5510  176.6750  147.6250 N   0  0  0  0  0  0  0  0  0  0  0  0
  190.1520  177.1530  144.9400 C   0  0  0  0  0  3  0  0  0  0  0  0
  188.5410  178.5750  141.5010 C   0  0  0  0  0  2  0  0  0  0  0  0
  188.6410  176.2650  141.9270 O   0  0  0  0  0  0  0  0  0  0  0  0
  189.1400  177.2140  141.3450 C   0  0  0  0  0  0  0  0  0  0  0  0
  190.3410  177.0300  140.4650 C   0  0  2  0  0  3  0  0  0  0  0  0
  191.6250  177.5210  141.1140 C   0  0  0  0  0  1  0  0  0  0  0  0
  190.1570  177.5410  139.0330 C   0  0  0  0  0  2  0  0  0  0  0  0
  190.8670  174.8640  138.2170 O   0  0  0  0  0  1  0  0  0  0  0  0
  189.9790  176.2310  137.7710 P   0  0  0  0  0  0  0  0  0  0  0  0
  190.5100  176.7500  136.4550 O   0  0  0  0  0  0  0  0  0  0  0  0
  188.3520  175.8080  137.5810 O   0  0  0  0  0  1  0  0  0  0  0  0
  2 20  1  0  0  0  0
  2  6  1  0  0  0  0
  3  4  1  0  0  0  0
  3  2  1  0  0  0  0
  4  1  2  0  0  0  0
  5  3  2  0  0  0  0
  6  1  1  6  0  0  0
  6  9  1  0  0  0  0
  7  8  2  0  0  0  0
  8 14  1  0  0  0  0
  8 12  1  0  0  0  0
  9  7  1  1  0  0  0
  9 10  1  0  0  0  0
 10 13  1  0  0  0  0
 11 10  2  0  0  0  0
 13 12  2  0  0  0  0
 14 15  1  0  0  0  0
 15 18  2  0  0  0  0
 16 18  1  0  0  0  0
 17 16  2  0  0  0  0
 19 17  1  0  0  0  0
 19 14  2  0  0  0  0
 22 20  1  0  0  0  0
 22 21  2  0  0  0  0
 23 24  1  1  0  0  0
 23 22  1  0  0  0  0
 25 23  1  0  0  0  0
 27 26  1  0  0  0  0
 27 25  1  0  0  0  0
 28 27  2  0  0  0  0
 29 27  1  0  0  0  0
M  END
>  <MODEL>
2

>  <REMARK>
 VINA RESULT:      -8.6      1.151      1.695
  Name = 
  7 active torsions:
  status: ('A' for Active; 'I' for Inactive)
    1  A    between atoms: C_2  and  C_10
    2  A    between atoms: C_3  and  C_8
    3  A    between atoms: C_3  and  C_24
    4  A    between atoms: P_7  and  C_8
    5  A    between atoms: N_9  and  C_18
    6  A    between atoms: C_18  and  C_24
    7  A    between atoms: C_19  and  C_29
                            x       y       z     vdW  Elec       q    Type
                         _______ _______ _______ _____ _____    ______ ____

>  <TORSDO>
F 7

$$$$
=
 OpenBabel10222415533D

 29 31  0  0  1  0  0  0  0  0999 V2000
  187.3260  177.2510  146.5730 C   0  0  0  0  0  3  0  0  0  0  0  0
  188.2000  177.2150  144.3430 N   0  0  0  0  0  0  0  0  0  0  0  0
  189.2210  177.0000  145.2970 C   0  0  0  0  0  0  0  0  0  0  0  0
  188.7650  177.0380  146.6270 N   0  0  0  0  0  0  0  0  0  0  0  0
  190.4180  176.7550  144.9940 O   0  0  0  0  0  0  0  0  0  0  0  0
  186.9470  177.3750  145.0770 C   0  0  2  0  0  3  0  0  0  0  0  0
  185.8470  178.8040  143.3440 C   0  0  0  0  0  3  0  0  0  0  0  0
  184.5610  178.6950  142.9680 C   0  0  0  0  0  0  0  0  0  0  0  0
  186.3050  178.7430  144.7830 C   0  0  1  0  0  3  0  0  0  0  0  0
  185.1570  179.0190  145.7260 C   0  0  0  0  0  0  0  0  0  0  0  0
  185.3830  179.4160  146.8990 O   0  0  0  0  0  0  0  0  0  0  0  0
  183.4990  178.6250  143.9990 C   0  0  0  0  0  3  0  0  0  0  0  0
  183.7730  178.7920  145.2920 C   0  0  0  0  0  3  0  0  0  0  0  0
  184.1970  178.6900  141.5310 C   0  0  0  0  0  0  0  0  0  0  0  0
  185.1440  179.0310  140.5550 C   0  0  0  0  0  3  0  0  0  0  0  0
  183.5570  178.6970  138.8200 C   0  0  0  0  0  3  0  0  0  0  0  0
  182.5790  178.3500  139.7530 C   0  0  0  0  0  3  0  0  0  0  0  0
  184.8080  179.0290  139.2360 N   0  0  0  0  0  0  0  0  0  0  0  0
  182.9040  178.3460  141.1090 C   0  0  0  0  0  3  0  0  0  0  0  0
  188.2520  176.6860  142.9840 C   0  0  0  0  0  2  0  0  0  0  0  0
  189.3240  178.7230  142.5050 O   0  0  0  0  0  0  0  0  0  0  0  0
  188.9120  177.6610  142.0640 C   0  0  0  0  0  0  0  0  0  0  0  0
  189.0700  177.3200  140.6120 C   0  0  2  0  0  3  0  0  0  0  0  0
  190.4110  176.6750  140.3030 C   0  0  0  0  0  1  0  0  0  0  0  0
  188.7150  178.4610  139.6540 C   0  0  0  0  0  2  0  0  0  0  0  0
  187.7730  176.3990  137.8670 O   0  0  0  0  0  1  0  0  0  0  0  0
  188.4450  177.9490  137.9210 P   0  0  0  0  0  0  0  0  0  0  0  0
  189.7770  177.9280  137.2080 O   0  0  0  0  0  1  0  0  0  0  0  0
  187.4150  179.0370  137.1350 O   0  0  0  0  0  0  0  0  0  0  0  0
  1  4  2  0  0  0  0
  2  6  1  0  0  0  0
  2  3  1  0  0  0  0
  3  4  1  0  0  0  0
  5  3  2  0  0  0  0
  6  1  1  1  0  0  0
  8  7  2  0  0  0  0
  8 12  1  0  0  0  0
  9  7  1  6  0  0  0
  9  6  1  0  0  0  0
  9 10  1  0  0  0  0
 10 11  2  0  0  0  0
 12 13  2  0  0  0  0
 13 10  1  0  0  0  0
 14  8  1  0  0  0  0
 15 14  2  0  0  0  0
 16 18  2  0  0  0  0
 16 17  1  0  0  0  0
 17 19  2  0  0  0  0
 18 15  1  0  0  0  0
 19 14  1  0  0  0  0
 20  2  1  0  0  0  0
 22 21  2  0  0  0  0
 22 20  1  0  0  0  0
 23 24  1  1  0  0  0
 23 22  1  0  0  0  0
 25 23  1  0  0  0  0
 26 27  1  0  0  0  0
 27 25  1  0  0  0  0
 28 27  1  0  0  0  0
 29 27  2  0  0  0  0
M  END
>  <MODEL>
3

>  <REMARK>
 VINA RESULT:      -8.5      1.939      5.309
  Name = 
  7 active torsions:
  status: ('A' for Active; 'I' for Inactive)
    1  A    between atoms: C_2  and  C_10
    2  A    between atoms: C_3  and  C_8
    3  A    between atoms: C_3  and  C_24
    4  A    between atoms: P_7  and  C_8
    5  A    between atoms: N_9  and  C_18
    6  A    between atoms: C_18  and  C_24
    7  A    between atoms: C_19  and  C_29
                            x       y       z     vdW  Elec       q    Type
                         _______ _______ _______ _____ _____    ______ ____

>  <TORSDO>
F 7

$$$$
=
 OpenBabel10222415533D

 29 31  0  0  1  0  0  0  0  0999 V2000
  190.4580  176.4940  146.2580 C   0  0  0  0  0  3  0  0  0  0  0  0
  189.8090  176.8460  143.9790 N   0  0  0  0  0  0  0  0  0  0  0  0
  191.1950  176.5830  144.0830 C   0  0  0  0  0  0  0  0  0  0  0  0
  191.6340  176.3960  145.4060 N   0  0  0  0  0  0  0  0  0  0  0  0
  191.9620  176.4850  143.0900 O   0  0  0  0  0  0  0  0  0  0  0  0
  189.2560  176.7960  145.3300 C   0  0  2  0  0  3  0  0  0  0  0  0
  187.3840  178.3770  144.8310 C   0  0  0  0  0  3  0  0  0  0  0  0
  186.1170  178.2190  145.2540 C   0  0  0  0  0  0  0  0  0  0  0  0
  188.5930  178.1330  145.7060 C   0  0  1  0  0  3  0  0  0  0  0  0
  188.2150  178.1620  147.1690 C   0  0  0  0  0  0  0  0  0  0  0  0
  189.0900  178.3890  148.0440 O   0  0  0  0  0  0  0  0  0  0  0  0
  185.8530  177.9000  146.6760 C   0  0  0  0  0  3  0  0  0  0  0  0
  186.8320  177.8870  147.5800 C   0  0  0  0  0  3  0  0  0  0  0  0
  184.9850  178.4060  144.3160 C   0  0  0  0  0  0  0  0  0  0  0  0
  185.1510  178.1730  142.9430 C   0  0  0  0  0  3  0  0  0  0  0  0
  182.8870  178.7490  142.5170 C   0  0  0  0  0  3  0  0  0  0  0  0
  182.6710  178.9930  143.8730 C   0  0  0  0  0  3  0  0  0  0  0  0
  184.1110  178.3480  142.0820 N   0  0  0  0  0  0  0  0  0  0  0  0
  183.7240  178.8190  144.7710 C   0  0  0  0  0  3  0  0  0  0  0  0
  189.0220  176.5190  142.7950 C   0  0  0  0  0  2  0  0  0  0  0  0
  189.0650  178.7820  142.1560 O   0  0  0  0  0  0  0  0  0  0  0  0
  189.1070  177.6190  141.7860 C   0  0  0  0  0  0  0  0  0  0  0  0
  189.2560  177.2810  140.3330 C   0  0  2  0  0  3  0  0  0  0  0  0
  190.5710  176.5850  140.0230 C   0  0  0  0  0  1  0  0  0  0  0  0
  188.9490  178.4410  139.3810 C   0  0  0  0  0  2  0  0  0  0  0  0
  186.0750  178.4990  139.1230 O   0  0  0  0  0  1  0  0  0  0  0  0
  187.5090  178.1750  138.2890 P   0  0  0  0  0  0  0  0  0  0  0  0
  187.4980  176.7310  137.8430 O   0  0  0  0  0  1  0  0  0  0  0  0
  187.6050  179.1730  136.9270 O   0  0  0  0  0  0  0  0  0  0  0  0
  2  3  1  0  0  0  0
  2  6  1  0  0  0  0
  3  4  1  0  0  0  0
  4  1  2  0  0  0  0
  5  3  2  0  0  0  0
  6  9  1  0  0  0  0
  6  1  1  1  0  0  0
  7  8  2  0  0  0  0
  8 12  1  0  0  0  0
  9  7  1  6  0  0  0
  9 10  1  0  0  0  0
 10 13  1  0  0  0  0
 10 11  2  0  0  0  0
 12 13  2  0  0  0  0
 14 19  1  0  0  0  0
 14  8  1  0  0  0  0
 15 14  2  0  0  0  0
 16 17  1  0  0  0  0
 17 19  2  0  0  0  0
 18 16  2  0  0  0  0
 18 15  1  0  0  0  0
 20  2  1  0  0  0  0
 22 21  2  0  0  0  0
 22 20  1  0  0  0  0
 23 24  1  1  0  0  0
 23 22  1  0  0  0  0
 25 23  1  0  0  0  0
 27 26  1  0  0  0  0
 27 25  1  0  0  0  0
 28 27  1  0  0  0  0
 29 27  2  0  0  0  0
M  END
>  <MODEL>
4

>  <REMARK>
 VINA RESULT:      -8.4      2.435      5.199
  Name = 
  7 active torsions:
  status: ('A' for Active; 'I' for Inactive)
    1  A    between atoms: C_2  and  C_10
    2  A    between atoms: C_3  and  C_8
    3  A    between atoms: C_3  and  C_24
    4  A    between atoms: P_7  and  C_8
    5  A    between atoms: N_9  and  C_18
    6  A    between atoms: C_18  and  C_24
    7  A    between atoms: C_19  and  C_29
                            x       y       z     vdW  Elec       q    Type
                         _______ _______ _______ _____ _____    ______ ____

>  <TORSDO>
F 7

$$$$
=
 OpenBabel10222415533D

 29 31  0  0  1  0  0  0  0  0999 V2000
  188.8030  176.6470  147.4430 C   0  0  0  0  0  3  0  0  0  0  0  0
  189.4850  177.0140  145.1760 N   0  0  0  0  0  0  0  0  0  0  0  0
  190.5850  176.6640  145.9930 C   0  0  0  0  0  0  0  0  0  0  0  0
  190.2430  176.4630  147.3420 N   0  0  0  0  0  0  0  0  0  0  0  0
  191.7550  176.5040  145.5550 O   0  0  0  0  0  0  0  0  0  0  0  0
  188.2970  177.0160  146.0270 C   0  0  2  0  0  3  0  0  0  0  0  0
  186.6630  178.5070  144.8620 C   0  0  0  0  0  3  0  0  0  0  0  0
  185.3270  178.4210  144.9870 C   0  0  0  0  0  0  0  0  0  0  0  0
  187.6190  178.3980  146.0280 C   0  0  1  0  0  3  0  0  0  0  0  0
  186.9060  178.6550  147.3360 C   0  0  0  0  0  0  0  0  0  0  0  0
  187.5580  179.0130  148.3510 O   0  0  0  0  0  0  0  0  0  0  0  0
  184.7200  178.3280  146.3350 C   0  0  0  0  0  3  0  0  0  0  0  0
  185.4560  178.4530  147.4390 C   0  0  0  0  0  3  0  0  0  0  0  0
  184.4580  178.4630  143.7870 C   0  0  0  0  0  0  0  0  0  0  0  0
  183.1150  178.8550  143.8910 C   0  0  0  0  0  3  0  0  0  0  0  0
  182.7880  178.5530  141.5590 C   0  0  0  0  0  3  0  0  0  0  0  0
  184.1160  178.1570  141.4020 C   0  0  0  0  0  3  0  0  0  0  0  0
  182.3180  178.8910  142.7890 N   0  0  0  0  0  0  0  0  0  0  0  0
  184.9490  178.1140  142.5200 C   0  0  0  0  0  3  0  0  0  0  0  0
  189.4270  176.7260  143.7480 C   0  0  0  0  0  2  0  0  0  0  0  0
  190.3030  178.8950  143.5090 O   0  0  0  0  0  0  0  0  0  0  0  0
  189.7910  177.9370  142.9510 C   0  0  0  0  0  0  0  0  0  0  0  0
  189.5330  177.9580  141.4740 C   0  0  2  0  0  3  0  0  0  0  0  0
  188.1990  178.5940  141.1200 C   0  0  0  0  0  1  0  0  0  0  0  0
  189.7640  176.6150  140.7750 C   0  0  0  0  0  2  0  0  0  0  0  0
  190.8320  175.1930  138.5010 O   0  0  0  0  0  1  0  0  0  0  0  0
  190.7440  176.7120  139.2360 P   0  0  0  0  0  0  0  0  0  0  0  0
  192.1430  177.1690  139.5800 O   0  0  0  0  0  1  0  0  0  0  0  0
  190.0510  177.8180  138.1610 O   0  0  0  0  0  0  0  0  0  0  0  0
  2  3  1  0  0  0  0
  2  6  1  0  0  0  0
  3  4  1  0  0  0  0
  4  1  2  0  0  0  0
  5  3  2  0  0  0  0
  6  9  1  0  0  0  0
  6  1  1  1  0  0  0
  7  8  2  0  0  0  0
  8 12  1  0  0  0  0
  9  7  1  6  0  0  0
  9 10  1  0  0  0  0
 10 13  1  0  0  0  0
 10 11  2  0  0  0  0
 12 13  2  0  0  0  0
 14 15  1  0  0  0  0
 14  8  1  0  0  0  0
 16 18  1  0  0  0  0
 17 16  2  0  0  0  0
 17 19  1  0  0  0  0
 18 15  2  0  0  0  0
 19 14  2  0  0  0  0
 20  2  1  0  0  0  0
 22 21  2  0  0  0  0
 22 20  1  0  0  0  0
 23 24  1  1  0  0  0
 23 22  1  0  0  0  0
 25 23  1  0  0  0  0
 26 27  1  0  0  0  0
 27 28  1  0  0  0  0
 27 25  1  0  0  0  0
 29 27  2  0  0  0  0
M  END
>  <MODEL>
5

>  <REMARK>
 VINA RESULT:      -8.3      2.305      5.205
  Name = 
  7 active torsions:
  status: ('A' for Active; 'I' for Inactive)
    1  A    between atoms: C_2  and  C_10
    2  A    between atoms: C_3  and  C_8
    3  A    between atoms: C_3  and  C_24
    4  A    between atoms: P_7  and  C_8
    5  A    between atoms: N_9  and  C_18
    6  A    between atoms: C_18  and  C_24
    7  A    between atoms: C_19  and  C_29
                            x       y       z     vdW  Elec       q    Type
                         _______ _______ _______ _____ _____    ______ ____

>  <TORSDO>
F 7

$$$$
=
 OpenBabel10222415533D

 29 31  0  0  1  0  0  0  0  0999 V2000
  191.6110  176.3760  144.0110 C   0  0  0  0  0  3  0  0  0  0  0  0
  189.8860  177.1830  142.5580 N   0  0  0  0  0  0  0  0  0  0  0  0
  191.1320  177.1260  141.8920 C   0  0  0  0  0  0  0  0  0  0  0  0
  192.1880  176.6840  142.7100 N   0  0  0  0  0  0  0  0  0  0  0  0
  191.2850  177.4040  140.6740 O   0  0  0  0  0  0  0  0  0  0  0  0
  190.1010  176.7070  143.9220 C   0  0  2  0  0  3  0  0  0  0  0  0
  188.2800  178.2170  144.7340 C   0  0  0  0  0  3  0  0  0  0  0  0
  187.2600  177.8290  145.5190 C   0  0  0  0  0  0  0  0  0  0  0  0
  189.7120  177.7840  144.9510 C   0  0  1  0  0  3  0  0  0  0  0  0
  189.9170  177.2870  146.3640 C   0  0  0  0  0  0  0  0  0  0  0  0
  191.0700  177.2710  146.8670 O   0  0  0  0  0  0  0  0  0  0  0  0
  187.5330  177.0290  146.7350 C   0  0  0  0  0  3  0  0  0  0  0  0
  188.7780  176.7850  147.1430 C   0  0  0  0  0  3  0  0  0  0  0  0
  185.8710  178.2360  145.1980 C   0  0  0  0  0  0  0  0  0  0  0  0
  184.9810  178.6020  146.2180 C   0  0  0  0  0  3  0  0  0  0  0  0
  183.2520  179.0020  144.6410 C   0  0  0  0  0  3  0  0  0  0  0  0
  184.0980  178.6470  143.5900 C   0  0  0  0  0  3  0  0  0  0  0  0
  183.7050  178.9720  145.9220 N   0  0  0  0  0  0  0  0  0  0  0  0
  185.4090  178.2650  143.8730 C   0  0  0  0  0  3  0  0  0  0  0  0
  188.6070  177.0450  141.8700 C   0  0  0  0  0  2  0  0  0  0  0  0
  188.3330  179.3790  141.8510 O   0  0  0  0  0  0  0  0  0  0  0  0
  188.2110  178.3360  141.2300 C   0  0  0  0  0  0  0  0  0  0  0  0
  187.6790  178.3350  139.8270 C   0  0  2  0  0  3  0  0  0  0  0  0
  186.1600  178.3670  139.7760 C   0  0  0  0  0  1  0  0  0  0  0  0
  188.2910  177.2620  138.9220 C   0  0  0  0  0  2  0  0  0  0  0  0
  187.8970  177.4120  136.0660 O   0  0  0  0  0  0  0  0  0  0  0  0
  188.9250  177.8800  137.3240 P   0  0  0  0  0  0  0  0  0  0  0  0
  190.2930  177.2860  137.0820 O   0  0  0  0  0  1  0  0  0  0  0  0
  189.0510  179.5670  137.3490 O   0  0  0  0  0  1  0  0  0  0  0  0
  2  6  1  0  0  0  0
  3  2  1  0  0  0  0
  3  4  1  0  0  0  0
  4  1  2  0  0  0  0
  5  3  2  0  0  0  0
  6  1  1  6  0  0  0
  6  9  1  0  0  0  0
  7  8  2  0  0  0  0
  8 12  1  0  0  0  0
  9  7  1  1  0  0  0
  9 10  1  0  0  0  0
 10 11  2  0  0  0  0
 10 13  1  0  0  0  0
 12 13  2  0  0  0  0
 14  8  1  0  0  0  0
 14 15  1  0  0  0  0
 16 18  1  0  0  0  0
 17 19  1  0  0  0  0
 17 16  2  0  0  0  0
 18 15  2  0  0  0  0
 19 14  2  0  0  0  0
 20  2  1  0  0  0  0
 22 21  2  0  0  0  0
 22 20  1  0  0  0  0
 23 24  1  1  0  0  0
 23 22  1  0  0  0  0
 25 23  1  0  0  0  0
 26 27  2  0  0  0  0
 27 29  1  0  0  0  0
 27 25  1  0  0  0  0
 28 27  1  0  0  0  0
M  END
>  <MODEL>
6

>  <REMARK>
 VINA RESULT:      -8.2      2.403      4.803
  Name = 
  7 active torsions:
  status: ('A' for Active; 'I' for Inactive)
    1  A    between atoms: C_2  and  C_10
    2  A    between atoms: C_3  and  C_8
    3  A    between atoms: C_3  and  C_24
    4  A    between atoms: P_7  and  C_8
    5  A    between atoms: N_9  and  C_18
    6  A    between atoms: C_18  and  C_24
    7  A    between atoms: C_19  and  C_29
                            x       y       z     vdW  Elec       q    Type
                         _______ _______ _______ _____ _____    ______ ____

>  <TORSDO>
F 7

$$$$
=
 OpenBabel10222415533D

 29 31  0  0  1  0  0  0  0  0999 V2000
  184.9570  179.0700  139.8130 C   0  0  0  0  0  3  0  0  0  0  0  0
  187.0030  178.4490  140.8930 N   0  0  0  0  0  0  0  0  0  0  0  0
  187.0790  178.2490  139.4950 C   0  0  0  0  0  0  0  0  0  0  0  0
  185.8910  178.5730  138.8150 N   0  0  0  0  0  0  0  0  0  0  0  0
  188.1190  177.8570  138.9030 O   0  0  0  0  0  0  0  0  0  0  0  0
  185.6760  178.9860  141.1820 C   0  0  2  0  0  3  0  0  0  0  0  0
  185.7080  177.8660  143.4170 C   0  0  0  0  0  3  0  0  0  0  0  0
  185.4260  178.4760  144.5820 C   0  0  0  0  0  0  0  0  0  0  0  0
  184.9080  178.0700  142.1520 C   0  0  1  0  0  3  0  0  0  0  0  0
  183.5390  178.6320  142.4640 C   0  0  0  0  0  0  0  0  0  0  0  0
  182.5970  178.4940  141.6420 O   0  0  0  0  0  0  0  0  0  0  0  0
  184.2070  179.3090  144.6960 C   0  0  0  0  0  3  0  0  0  0  0  0
  183.3120  179.3730  143.7110 C   0  0  0  0  0  3  0  0  0  0  0  0
  186.3020  178.2830  145.7610 C   0  0  0  0  0  0  0  0  0  0  0  0
  186.0840  179.0100  146.9400 C   0  0  0  0  0  3  0  0  0  0  0  0
  187.9270  177.9540  148.0000 C   0  0  0  0  0  3  0  0  0  0  0  0
  188.1870  177.2060  146.8520 C   0  0  0  0  0  3  0  0  0  0  0  0
  186.8910  178.8340  148.0210 N   0  0  0  0  0  0  0  0  0  0  0  0
  187.3700  177.3730  145.7330 C   0  0  0  0  0  3  0  0  0  0  0  0
  188.1670  178.7430  141.7210 C   0  0  0  0  0  2  0  0  0  0  0  0
  188.4570  176.4540  142.1760 O   0  0  0  0  0  0  0  0  0  0  0  0
  188.9990  177.5160  141.9130 C   0  0  0  0  0  0  0  0  0  0  0  0
  190.4900  177.6030  141.7710 C   0  0  2  0  0  3  0  0  0  0  0  0
  190.9730  177.1860  140.3910 C   0  0  0  0  0  1  0  0  0  0  0  0
  191.2720  176.9400  142.9090 C   0  0  0  0  0  2  0  0  0  0  0  0
  191.5390  176.8990  145.7830 O   0  0  0  0  0  1  0  0  0  0  0  0
  191.3610  177.9210  144.4480 P   0  0  0  0  0  0  0  0  0  0  0  0
  190.0770  178.7020  144.6000 O   0  0  0  0  0  1  0  0  0  0  0  0
  192.6610  179.0010  144.3880 O   0  0  0  0  0  0  0  0  0  0  0  0
  2  6  1  0  0  0  0
  2 20  1  0  0  0  0
  3  2  1  0  0  0  0
  4  3  1  0  0  0  0
  4  1  2  0  0  0  0
  5  3  2  0  0  0  0
  6  1  1  6  0  0  0
  6  9  1  0  0  0  0
  7  8  2  0  0  0  0
  8 12  1  0  0  0  0
  8 14  1  0  0  0  0
  9 10  1  0  0  0  0
  9  7  1  1  0  0  0
 10 13  1  0  0  0  0
 11 10  2  0  0  0  0
 13 12  2  0  0  0  0
 14 15  1  0  0  0  0
 15 18  2  0  0  0  0
 16 18  1  0  0  0  0
 17 16  2  0  0  0  0
 19 14  2  0  0  0  0
 19 17  1  0  0  0  0
 20 22  1  0  0  0  0
 22 21  2  0  0  0  0
 23 24  1  6  0  0  0
 23 22  1  0  0  0  0
 23 25  1  0  0  0  0
 25 27  1  0  0  0  0
 27 28  1  0  0  0  0
 27 26  1  0  0  0  0
 29 27  2  0  0  0  0
M  END
>  <MODEL>
7

>  <REMARK>
 VINA RESULT:      -8.2      2.085      2.994
  Name = 
  7 active torsions:
  status: ('A' for Active; 'I' for Inactive)
    1  A    between atoms: C_2  and  C_10
    2  A    between atoms: C_3  and  C_8
    3  A    between atoms: C_3  and  C_24
    4  A    between atoms: P_7  and  C_8
    5  A    between atoms: N_9  and  C_18
    6  A    between atoms: C_18  and  C_24
    7  A    between atoms: C_19  and  C_29
                            x       y       z     vdW  Elec       q    Type
                         _______ _______ _______ _____ _____    ______ ____

>  <TORSDO>
F 7

$$$$
=
 OpenBabel10222415533D

 29 31  0  0  1  0  0  0  0  0999 V2000
  190.0550  178.3760  144.6370 C   0  0  0  0  0  3  0  0  0  0  0  0
  188.0610  177.0540  144.7520 N   0  0  0  0  0  0  0  0  0  0  0  0
  188.5140  177.4120  146.0430 C   0  0  0  0  0  0  0  0  0  0  0  0
  189.7010  178.1680  146.0330 N   0  0  0  0  0  0  0  0  0  0  0  0
  187.9000  177.1210  147.1030 O   0  0  0  0  0  0  0  0  0  0  0  0
  188.9880  177.6420  143.7890 C   0  0  2  0  0  3  0  0  0  0  0  0
  189.3330  176.8210  141.4520 C   0  0  0  0  0  3  0  0  0  0  0  0
  190.2290  177.3290  140.5880 C   0  0  0  0  0  0  0  0  0  0  0  0
  189.6350  176.5570  142.9100 C   0  0  1  0  0  3  0  0  0  0  0  0
  191.1260  176.4810  143.1460 C   0  0  0  0  0  0  0  0  0  0  0  0
  191.5770  175.8820  144.1560 O   0  0  0  0  0  0  0  0  0  0  0  0
  191.6270  177.5480  141.0250 C   0  0  0  0  0  3  0  0  0  0  0  0
  192.0560  177.1380  142.2180 C   0  0  0  0  0  3  0  0  0  0  0  0
  189.8350  177.6300  139.1910 C   0  0  0  0  0  0  0  0  0  0  0  0
  189.0410  178.7480  138.8980 C   0  0  0  0  0  3  0  0  0  0  0  0
  189.0690  178.2300  136.5810 C   0  0  0  0  0  3  0  0  0  0  0  0
  189.8600  177.1060  136.8190 C   0  0  0  0  0  3  0  0  0  0  0  0
  188.6780  179.0210  137.6150 N   0  0  0  0  0  0  0  0  0  0  0  0
  190.2420  176.8090  138.1280 C   0  0  0  0  0  3  0  0  0  0  0  0
  186.6590  176.8020  144.4400 C   0  0  0  0  0  2  0  0  0  0  0  0
  185.8680  178.9820  144.8270 O   0  0  0  0  0  0  0  0  0  0  0  0
  185.9760  178.0660  144.0270 C   0  0  0  0  0  0  0  0  0  0  0  0
  185.4420  178.1990  142.6320 C   0  0  2  0  0  3  0  0  0  0  0  0
  186.4150  178.8970  141.6950 C   0  0  0  0  0  1  0  0  0  0  0  0
  184.0200  178.7610  142.5520 C   0  0  0  0  0  2  0  0  0  0  0  0
  181.5740  178.9290  141.0290 O   0  0  0  0  0  1  0  0  0  0  0  0
  183.2290  178.6090  140.9120 P   0  0  0  0  0  0  0  0  0  0  0  0
  183.4190  177.1970  140.4110 O   0  0  0  0  0  1  0  0  0  0  0  0
  183.9340  179.6840  139.8120 O   0  0  0  0  0  0  0  0  0  0  0  0
  1  4  2  0  0  0  0
  2  3  1  0  0  0  0
  3  5  2  0  0  0  0
  4  3  1  0  0  0  0
  6  1  1  1  0  0  0
  6  2  1  0  0  0  0
  8 12  1  0  0  0  0
  8  7  2  0  0  0  0
  9  7  1  6  0  0  0
  9 10  1  0  0  0  0
  9  6  1  0  0  0  0
 10 11  2  0  0  0  0
 12 13  2  0  0  0  0
 13 10  1  0  0  0  0
 14  8  1  0  0  0  0
 15 14  1  0  0  0  0
 16 17  2  0  0  0  0
 16 18  1  0  0  0  0
 17 19  1  0  0  0  0
 18 15  2  0  0  0  0
 19 14  2  0  0  0  0
 20  2  1  0  0  0  0
 22 20  1  0  0  0  0
 22 21  2  0  0  0  0
 23 24  1  6  0  0  0
 23 22  1  0  0  0  0
 25 23  1  0  0  0  0
 27 26  1  0  0  0  0
 27 25  1  0  0  0  0
 28 27  1  0  0  0  0
 29 27  2  0  0  0  0
M  END
>  <MODEL>
8

>  <REMARK>
 VINA RESULT:      -7.9      3.249      7.408
  Name = 
  7 active torsions:
  status: ('A' for Active; 'I' for Inactive)
    1  A    between atoms: C_2  and  C_10
    2  A    between atoms: C_3  and  C_8
    3  A    between atoms: C_3  and  C_24
    4  A    between atoms: P_7  and  C_8
    5  A    between atoms: N_9  and  C_18
    6  A    between atoms: C_18  and  C_24
    7  A    between atoms: C_19  and  C_29
                            x       y       z     vdW  Elec       q    Type
                         _______ _______ _______ _____ _____    ______ ____

>  <TORSDO>
F 7

$$$$
=
 OpenBabel10222415533D

 29 31  0  0  1  0  0  0  0  0999 V2000
  184.0600  179.8840  144.6280 C   0  0  0  0  0  3  0  0  0  0  0  0
  184.1310  178.3470  142.7930 N   0  0  0  0  0  0  0  0  0  0  0  0
  182.8810  179.0040  142.8630 C   0  0  0  0  0  0  0  0  0  0  0  0
  182.7760  179.9000  143.9420 N   0  0  0  0  0  0  0  0  0  0  0  0
  181.9590  178.8400  142.0210 O   0  0  0  0  0  0  0  0  0  0  0  0
  184.9540  178.8620  143.8840 C   0  0  2  0  0  3  0  0  0  0  0  0
  186.7560  177.2140  144.4190 C   0  0  0  0  0  3  0  0  0  0  0  0
  187.8900  177.5090  145.0780 C   0  0  0  0  0  0  0  0  0  0  0  0
  185.3950  177.7280  144.8270 C   0  0  1  0  0  3  0  0  0  0  0  0
  185.4020  178.1890  146.2670 C   0  0  0  0  0  0  0  0  0  0  0  0
  184.3240  178.2600  146.9130 O   0  0  0  0  0  0  0  0  0  0  0  0
  187.8250  178.2820  146.3390 C   0  0  0  0  0  3  0  0  0  0  0  0
  186.6600  178.5900  146.9080 C   0  0  0  0  0  3  0  0  0  0  0  0
  189.1980  177.0270  144.5730 C   0  0  0  0  0  0  0  0  0  0  0  0
  190.3560  177.1560  145.3540 C   0  0  0  0  0  3  0  0  0  0  0  0
  191.6760  176.1380  143.6630 C   0  0  0  0  0  3  0  0  0  0  0  0
  190.5540  175.9870  142.8480 C   0  0  0  0  0  3  0  0  0  0  0  0
  191.5560  176.7150  144.8880 N   0  0  0  0  0  0  0  0  0  0  0  0
  189.3150  176.4320  143.3080 C   0  0  0  0  0  3  0  0  0  0  0  0
  184.7030  177.8500  141.5460 C   0  0  0  0  0  2  0  0  0  0  0  0
  186.0560  179.7530  141.2780 O   0  0  0  0  0  0  0  0  0  0  0  0
  185.2810  178.9720  140.7470 C   0  0  0  0  0  0  0  0  0  0  0  0
  184.9120  179.1200  139.3010 C   0  0  2  0  0  3  0  0  0  0  0  0
  183.5430  179.7520  139.1070 C   0  0  0  0  0  1  0  0  0  0  0  0
  185.1150  177.8530  138.4660 C   0  0  0  0  0  2  0  0  0  0  0  0
  187.8920  178.6410  138.4930 O   0  0  0  0  0  1  0  0  0  0  0  0
  186.7460  177.7270  137.6520 P   0  0  0  0  0  0  0  0  0  0  0  0
  186.6300  178.2640  136.2450 O   0  0  0  0  0  0  0  0  0  0  0  0
  187.2520  176.1140  137.5860 O   0  0  0  0  0  1  0  0  0  0  0  0
  2  3  1  0  0  0  0
  2  6  1  0  0  0  0
  3  4  1  0  0  0  0
  4  1  2  0  0  0  0
  5  3  2  0  0  0  0
  6  1  1  1  0  0  0
  6  9  1  0  0  0  0
  7  8  2  0  0  0  0
  8 12  1  0  0  0  0
  9  7  1  6  0  0  0
  9 10  1  0  0  0  0
 10 13  1  0  0  0  0
 10 11  2  0  0  0  0
 12 13  2  0  0  0  0
 14  8  1  0  0  0  0
 14 15  1  0  0  0  0
 16 18  1  0  0  0  0
 17 19  1  0  0  0  0
 17 16  2  0  0  0  0
 18 15  2  0  0  0  0
 19 14  2  0  0  0  0
 20  2  1  0  0  0  0
 22 21  2  0  0  0  0
 22 20  1  0  0  0  0
 23 24  1  1  0  0  0
 23 22  1  0  0  0  0
 25 23  1  0  0  0  0
 27 25  1  0  0  0  0
 27 26  1  0  0  0  0
 28 27  2  0  0  0  0
 29 27  1  0  0  0  0
M  END
>  <MODEL>
9

>  <REMARK>
 VINA RESULT:      -7.8      2.634      4.432
  Name = 
  7 active torsions:
  status: ('A' for Active; 'I' for Inactive)
    1  A    between atoms: C_2  and  C_10
    2  A    between atoms: C_3  and  C_8
    3  A    between atoms: C_3  and  C_24
    4  A    between atoms: P_7  and  C_8
    5  A    between atoms: N_9  and  C_18
    6  A    between atoms: C_18  and  C_24
    7  A    between atoms: C_19  and  C_29
                            x       y       z     vdW  Elec       q    Type
                         _______ _______ _______ _____ _____    ______ ____

>  <TORSDO>
F 7

$$$$
