=
 OpenBabel10222418513D

 33 36  0  0  1  0  0  0  0  0999 V2000
  184.5070  178.4800  143.9450 C   0  0  2  0  0  3  0  0  0  0  0  0
  185.7670  178.6120  146.0950 C   0  0  1  0  0  3  0  0  0  0  0  0
  185.9950  179.4900  147.3070 C   0  0  0  0  0  1  0  0  0  0  0  0
  185.9100  178.9040  141.9690 C   0  0  0  0  0  3  0  0  0  0  0  0
  188.5370  175.8290  143.2550 O   0  0  0  0  0  1  0  0  0  0  0  0
  186.4040  176.8590  143.3630 C   0  0  2  0  0  3  0  0  0  0  0  0
  187.9030  177.0370  143.5260 C   0  0  1  0  0  3  0  0  0  0  0  0
  184.9490  179.3940  145.0750 C   0  0  0  0  0  2  0  0  0  0  0  0
  185.6590  178.1340  143.0410 C   0  0  0  0  0  0  0  0  0  0  0  0
  187.0520  176.8780  144.7640 C   0  0  1  0  0  3  0  0  0  0  0  0
  187.1140  178.2170  145.5070 C   0  0  0  0  0  2  0  0  0  0  0  0
  186.4830  178.2730  139.5150 C   0  0  0  0  0  0  0  0  0  0  0  0
  188.1930  178.6120  140.9750 C   0  0  0  0  0  3  0  0  0  0  0  0
  185.3160  178.4820  138.9670 C   0  0  0  0  0  0  0  0  0  0  0  0
  184.2120  178.6850  138.4470 O   0  0  0  0  0  0  0  0  0  0  0  0
  187.7290  178.0880  138.7930 C   0  0  0  0  0  0  0  0  0  0  0  0
  188.7280  178.2580  139.6550 C   0  0  0  0  0  0  0  0  0  0  0  0
  186.8650  178.6470  140.8740 C   0  0  0  0  0  0  0  0  0  0  0  0
  190.9130  177.1940  140.0290 C   0  0  0  0  0  1  0  0  0  0  0  0
  190.0810  178.1210  139.3460 O   0  0  0  0  0  0  0  0  0  0  0  0
  187.8220  177.7780  137.4300 O   0  0  0  0  0  0  0  0  0  0  0  0
  187.7930  176.4510  136.9290 C   0  0  0  0  0  1  0  0  0  0  0  0
  183.4430  179.0460  143.2310 O   0  0  0  0  0  0  0  0  0  0  0  0
  182.3300  178.9610  144.0800 C   0  0  0  0  0  2  0  0  0  0  0  0
  179.8960  178.4650  144.2360 C   0  0  0  0  0  1  0  0  0  0  0  0
  181.0780  178.5890  143.2960 C   0  0  1  0  0  3  0  0  0  0  0  0
  180.8640  179.2820  140.8820 C   0  0  0  0  0  0  0  0  0  0  0  0
  180.8040  179.5870  142.2760 N   0  0  0  0  0  2  0  0  0  0  0  0
  180.4320  178.1020  138.3490 S   0  0  0  0  0  0  0  0  0  0  0  0
  180.8270  179.8100  138.6570 C   0  0  0  0  0  0  0  0  0  0  0  0
  181.2770  180.6080  137.7000 C   0  0  0  0  0  2  0  0  0  0  0  0
  181.1920  177.6150  140.2860 S   0  0  0  0  0  0  0  0  0  0  0  0
  180.8010  180.2320  140.0100 N   0  0  0  0  0  0  0  0  0  0  0  0
  1 23  1  6  0  0  0
  1  8  1  0  0  0  0
  2  3  1  1  0  0  0
  4  9  2  0  0  0  0
  6  9  1  1  0  0  0
  6  7  1  0  0  0  0
  6 10  1  0  0  0  0
  7  5  1  6  0  0  0
  7 10  1  0  0  0  0
  8  2  1  0  0  0  0
  9  1  1  0  0  0  0
 10 11  1  1  0  0  0
 11  2  1  0  0  0  0
 12 18  1  0  0  0  0
 14 12  2  0  0  0  0
 15 14  2  0  0  0  0
 16 12  1  0  0  0  0
 16 17  2  0  0  0  0
 17 13  1  0  0  0  0
 18 13  2  0  0  0  0
 18  4  1  0  0  0  0
 20 17  1  0  0  0  0
 20 19  1  0  0  0  0
 21 16  1  0  0  0  0
 22 21  1  0  0  0  0
 23 24  1  0  0  0  0
 26 24  1  0  0  0  0
 26 25  1  1  0  0  0
 27 28  1  0  0  0  0
 28 26  1  0  0  0  0
 29 30  1  0  0  0  0
 29 32  1  0  0  0  0
 30 33  1  0  0  0  0
 31 30  2  0  0  0  0
 32 27  1  0  0  0  0
 33 27  2  0  0  0  0
M  END
>  <MODEL>
1

>  <REMARK>
 VINA RESULT:      -7.6      0.000      0.000
  Name = 
  7 active torsions:
  status: ('A' for Active; 'I' for Inactive)
    1  A    between atoms: C_1  and  O_15
    2  A    between atoms: N_8  and  C_29
    3  A    between atoms: C_9  and  O_15
    4  A    between atoms: C_9  and  C_29
    5  A    between atoms: C_10  and  C_32
    6  A    between atoms: O_18  and  C_26
    7  A    between atoms: C_27  and  O_33
                            x       y       z     vdW  Elec       q    Type
                         _______ _______ _______ _____ _____    ______ ____

>  <TORSDO>
F 7

$$$$
=
 OpenBabel10222418513D

 33 36  0  0  1  0  0  0  0  0999 V2000
  188.1120  178.5910  140.7670 C   0  0  2  0  0  3  0  0  0  0  0  0
  189.6040  177.1880  139.3430 C   0  0  1  0  0  3  0  0  0  0  0  0
  189.5950  176.1810  138.2120 C   0  0  0  0  0  1  0  0  0  0  0  0
  187.8480  177.7190  143.0520 C   0  0  0  0  0  3  0  0  0  0  0  0
  192.0700  177.7390  143.4780 O   0  0  0  0  0  1  0  0  0  0  0  0
  190.1370  178.4980  142.3320 C   0  0  2  0  0  3  0  0  0  0  0  0
  190.9510  177.2970  142.7800 C   0  0  1  0  0  3  0  0  0  0  0  0
  188.1690  177.4260  139.7930 C   0  0  0  0  0  2  0  0  0  0  0  0
  188.6710  178.2070  142.1090 C   0  0  0  0  0  0  0  0  0  0  0  0
  191.0570  177.7510  141.3440 C   0  0  1  0  0  3  0  0  0  0  0  0
  190.4380  176.6370  140.4900 C   0  0  0  0  0  2  0  0  0  0  0  0
  187.3490  177.9210  145.5940 C   0  0  0  0  0  0  0  0  0  0  0  0
  189.2420  176.8410  144.9420 C   0  0  0  0  0  3  0  0  0  0  0  0
  186.0960  178.2850  145.5330 C   0  0  0  0  0  0  0  0  0  0  0  0
  184.9080  178.6250  145.4760 O   0  0  0  0  0  0  0  0  0  0  0  0
  188.0320  177.4590  146.7880 C   0  0  0  0  0  0  0  0  0  0  0  0
  189.1540  176.8520  146.4080 C   0  0  0  0  0  0  0  0  0  0  0  0
  188.1540  177.4490  144.4700 C   0  0  0  0  0  0  0  0  0  0  0  0
  191.4960  176.4680  147.0510 C   0  0  0  0  0  1  0  0  0  0  0  0
  190.1020  176.3090  147.2740 O   0  0  0  0  0  0  0  0  0  0  0  0
  187.5650  177.6440  148.0960 O   0  0  0  0  0  0  0  0  0  0  0  0
  188.3070  178.3180  149.1000 C   0  0  0  0  0  1  0  0  0  0  0  0
  186.8060  179.0880  140.8760 O   0  0  0  0  0  0  0  0  0  0  0  0
  186.0960  178.5220  139.8070 C   0  0  0  0  0  2  0  0  0  0  0  0
  184.3590  178.3270  141.5790 C   0  0  0  0  0  1  0  0  0  0  0  0
  184.6000  178.5150  140.0950 C   0  0  1  0  0  3  0  0  0  0  0  0
  182.7130  179.7840  139.0060 C   0  0  0  0  0  0  0  0  0  0  0  0
  183.9920  179.7550  139.6420 N   0  0  0  0  0  2  0  0  0  0  0  0
  179.9600  179.4590  138.4500 S   0  0  0  0  0  0  0  0  0  0  0  0
  180.9930  180.7950  137.8890 C   0  0  0  0  0  0  0  0  0  0  0  0
  180.6350  181.5840  136.8870 C   0  0  0  0  0  2  0  0  0  0  0  0
  181.7180  178.2960  138.8030 S   0  0  0  0  0  0  0  0  0  0  0  0
  182.2920  180.8710  138.4520 N   0  0  0  0  0  0  0  0  0  0  0  0
  1 23  1  1  0  0  0
  1  9  1  0  0  0  0
  2  3  1  6  0  0  0
  2  8  1  0  0  0  0
  2 11  1  0  0  0  0
  4 18  1  0  0  0  0
  6  9  1  6  0  0  0
  6  7  1  0  0  0  0
  7  5  1  1  0  0  0
  8  1  1  0  0  0  0
  9  4  2  0  0  0  0
 10 11  1  6  0  0  0
 10  6  1  0  0  0  0
 10  7  1  0  0  0  0
 12 16  1  0  0  0  0
 13 17  1  0  0  0  0
 14 12  2  0  0  0  0
 15 14  2  0  0  0  0
 16 21  1  0  0  0  0
 17 16  2  0  0  0  0
 17 20  1  0  0  0  0
 18 13  2  0  0  0  0
 18 12  1  0  0  0  0
 19 20  1  0  0  0  0
 21 22  1  0  0  0  0
 24 26  1  0  0  0  0
 24 23  1  0  0  0  0
 26 25  1  1  0  0  0
 27 28  1  0  0  0  0
 28 26  1  0  0  0  0
 29 32  1  0  0  0  0
 30 29  1  0  0  0  0
 30 33  1  0  0  0  0
 31 30  2  0  0  0  0
 32 27  1  0  0  0  0
 33 27  2  0  0  0  0
M  END
>  <MODEL>
2

>  <REMARK>
 VINA RESULT:      -7.3      2.398      5.930
  Name = 
  7 active torsions:
  status: ('A' for Active; 'I' for Inactive)
    1  A    between atoms: C_1  and  O_15
    2  A    between atoms: N_8  and  C_29
    3  A    between atoms: C_9  and  O_15
    4  A    between atoms: C_9  and  C_29
    5  A    between atoms: C_10  and  C_32
    6  A    between atoms: O_18  and  C_26
    7  A    between atoms: C_27  and  O_33
                            x       y       z     vdW  Elec       q    Type
                         _______ _______ _______ _____ _____    ______ ____

>  <TORSDO>
F 7

$$$$
=
 OpenBabel10222418513D

 33 36  0  0  1  0  0  0  0  0999 V2000
  188.3080  178.3120  140.4290 C   0  0  2  0  0  3  0  0  0  0  0  0
  190.1090  177.0200  139.2840 C   0  0  1  0  0  3  0  0  0  0  0  0
  190.3490  175.9600  138.2310 C   0  0  0  0  0  1  0  0  0  0  0  0
  187.8640  177.5390  142.7220 C   0  0  0  0  0  3  0  0  0  0  0  0
  191.9750  178.0810  143.6290 O   0  0  0  0  0  1  0  0  0  0  0  0
  190.1240  178.5440  142.2200 C   0  0  2  0  0  3  0  0  0  0  0  0
  191.0050  177.4730  142.8390 C   0  0  1  0  0  3  0  0  0  0  0  0
  188.6110  177.1120  139.5490 C   0  0  0  0  0  2  0  0  0  0  0  0
  188.7380  178.0700  141.8500 C   0  0  0  0  0  0  0  0  0  0  0  0
  191.2350  177.8580  141.3970 C   0  0  1  0  0  3  0  0  0  0  0  0
  190.8520  176.6350  140.5550 C   0  0  0  0  0  2  0  0  0  0  0  0
  187.1080  177.9380  145.1760 C   0  0  0  0  0  0  0  0  0  0  0  0
  189.0550  176.8220  144.8090 C   0  0  0  0  0  3  0  0  0  0  0  0
  185.8690  178.2880  144.9580 C   0  0  0  0  0  0  0  0  0  0  0  0
  184.6930  178.6160  144.7530 O   0  0  0  0  0  0  0  0  0  0  0  0
  187.6640  177.5760  146.4670 C   0  0  0  0  0  0  0  0  0  0  0  0
  188.8170  176.9490  146.2520 C   0  0  0  0  0  0  0  0  0  0  0  0
  188.0230  177.3850  144.1820 C   0  0  0  0  0  0  0  0  0  0  0  0
  191.0830  176.5150  147.1040 C   0  0  0  0  0  1  0  0  0  0  0  0
  189.6710  176.4810  147.2520 O   0  0  0  0  0  0  0  0  0  0  0  0
  187.0660  177.8610  147.7010 O   0  0  0  0  0  0  0  0  0  0  0  0
  187.7880  178.3350  148.8260 C   0  0  0  0  0  1  0  0  0  0  0  0
  186.9510  178.6570  140.3530 O   0  0  0  0  0  0  0  0  0  0  0  0
  186.5770  178.4260  139.0220 C   0  0  0  0  0  2  0  0  0  0  0  0
  184.6080  177.5170  137.8000 C   0  0  0  0  0  1  0  0  0  0  0  0
  185.0630  178.4940  138.8650 C   0  0  1  0  0  3  0  0  0  0  0  0
  183.0990  178.6760  140.4360 C   0  0  0  0  0  0  0  0  0  0  0  0
  184.4100  178.1970  140.1290 N   0  0  0  0  0  2  0  0  0  0  0  0
  180.3270  179.2230  140.3380 S   0  0  0  0  0  0  0  0  0  0  0  0
  181.3060  179.0230  141.8110 C   0  0  0  0  0  0  0  0  0  0  0  0
  180.8820  179.4390  142.9950 C   0  0  0  0  0  2  0  0  0  0  0  0
  182.1220  179.6040  139.2420 S   0  0  0  0  0  0  0  0  0  0  0  0
  182.6310  178.5520  141.6320 N   0  0  0  0  0  0  0  0  0  0  0  0
  1 23  1  1  0  0  0
  1  9  1  0  0  0  0
  2  3  1  6  0  0  0
  2  8  1  0  0  0  0
  2 11  1  0  0  0  0
  4 18  1  0  0  0  0
  6  9  1  6  0  0  0
  6  7  1  0  0  0  0
  7  5  1  1  0  0  0
  8  1  1  0  0  0  0
  9  4  2  0  0  0  0
 10 11  1  6  0  0  0
 10  6  1  0  0  0  0
 10  7  1  0  0  0  0
 12 16  1  0  0  0  0
 13 17  1  0  0  0  0
 14 12  2  0  0  0  0
 15 14  2  0  0  0  0
 16 21  1  0  0  0  0
 17 16  2  0  0  0  0
 17 20  1  0  0  0  0
 18 13  2  0  0  0  0
 18 12  1  0  0  0  0
 19 20  1  0  0  0  0
 21 22  1  0  0  0  0
 24 23  1  0  0  0  0
 26 25  1  6  0  0  0
 26 24  1  0  0  0  0
 26 28  1  0  0  0  0
 27 33  2  0  0  0  0
 28 27  1  0  0  0  0
 29 30  1  0  0  0  0
 30 31  2  0  0  0  0
 32 29  1  0  0  0  0
 32 27  1  0  0  0  0
 33 30  1  0  0  0  0
M  END
>  <MODEL>
3

>  <REMARK>
 VINA RESULT:      -7.1      2.357      6.164
  Name = 
  7 active torsions:
  status: ('A' for Active; 'I' for Inactive)
    1  A    between atoms: C_1  and  O_15
    2  A    between atoms: N_8  and  C_29
    3  A    between atoms: C_9  and  O_15
    4  A    between atoms: C_9  and  C_29
    5  A    between atoms: C_10  and  C_32
    6  A    between atoms: O_18  and  C_26
    7  A    between atoms: C_27  and  O_33
                            x       y       z     vdW  Elec       q    Type
                         _______ _______ _______ _____ _____    ______ ____

>  <TORSDO>
F 7

$$$$
=
 OpenBabel10222418513D

 33 36  0  0  1  0  0  0  0  0999 V2000
  190.4200  177.4220  142.5580 C   0  0  2  0  0  3  0  0  0  0  0  0
  191.5680  175.9460  144.2100 C   0  0  1  0  0  3  0  0  0  0  0  0
  192.2170  174.5870  144.3670 C   0  0  0  0  0  1  0  0  0  0  0  0
  187.9870  177.5510  142.8960 C   0  0  0  0  0  3  0  0  0  0  0  0
  188.6740  178.7410  146.9120 O   0  0  0  0  0  1  0  0  0  0  0  0
  189.4900  178.4720  144.7020 C   0  0  2  0  0  3  0  0  0  0  0  0
  188.8590  177.7970  145.9070 C   0  0  1  0  0  3  0  0  0  0  0  0
  190.8880  176.0060  142.8480 C   0  0  0  0  0  2  0  0  0  0  0  0
  189.2160  177.7780  143.3870 C   0  0  0  0  0  0  0  0  0  0  0  0
  190.3400  177.6190  145.6680 C   0  0  1  0  0  3  0  0  0  0  0  0
  190.5480  176.1400  145.3230 C   0  0  0  0  0  2  0  0  0  0  0  0
  185.7050  178.7840  142.7470 C   0  0  0  0  0  0  0  0  0  0  0  0
  186.2790  177.7990  144.7150 C   0  0  0  0  0  3  0  0  0  0  0  0
  185.6190  178.9080  141.4500 C   0  0  0  0  0  0  0  0  0  0  0  0
  185.5340  179.0220  140.2210 O   0  0  0  0  0  0  0  0  0  0  0  0
  184.6180  178.9960  143.6850 C   0  0  0  0  0  0  0  0  0  0  0  0
  184.9660  178.4440  144.8450 C   0  0  0  0  0  0  0  0  0  0  0  0
  186.6930  177.9810  143.4620 C   0  0  0  0  0  0  0  0  0  0  0  0
  184.7720  178.2600  147.2890 C   0  0  0  0  0  1  0  0  0  0  0  0
  184.1970  178.4750  146.0080 O   0  0  0  0  0  0  0  0  0  0  0  0
  183.4280  179.6740  143.3880 O   0  0  0  0  0  0  0  0  0  0  0  0
  182.1990  179.0140  143.1300 C   0  0  0  0  0  1  0  0  0  0  0  0
  190.1740  177.5970  141.1900 O   0  0  0  0  0  0  0  0  0  0  0  0
  191.3200  177.1220  140.5360 C   0  0  0  0  0  2  0  0  0  0  0  0
  192.2920  176.4260  138.3530 C   0  0  0  0  0  1  0  0  0  0  0  0
  191.1100  177.0920  139.0270 C   0  0  1  0  0  3  0  0  0  0  0  0
  188.8220  176.9990  137.9710 C   0  0  0  0  0  0  0  0  0  0  0  0
  189.8840  176.3820  138.7020 N   0  0  0  0  0  2  0  0  0  0  0  0
  187.3330  178.3400  135.9770 S   0  0  0  0  0  0  0  0  0  0  0  0
  186.7170  177.0890  137.0830 C   0  0  0  0  0  0  0  0  0  0  0  0
  185.4200  176.9120  137.2870 C   0  0  0  0  0  2  0  0  0  0  0  0
  188.9640  178.6720  137.3190 S   0  0  0  0  0  0  0  0  0  0  0  0
  187.6810  176.4050  137.8660 N   0  0  0  0  0  0  0  0  0  0  0  0
  1 23  1  6  0  0  0
  1  8  1  0  0  0  0
  1  9  1  0  0  0  0
  2  3  1  1  0  0  0
  2 11  1  0  0  0  0
  4  9  2  0  0  0  0
  4 18  1  0  0  0  0
  6  9  1  6  0  0  0
  6 10  1  0  0  0  0
  6  7  1  0  0  0  0
  7  5  1  1  0  0  0
  8  2  1  0  0  0  0
 10 11  1  6  0  0  0
 10  7  1  0  0  0  0
 12 18  1  0  0  0  0
 12 16  1  0  0  0  0
 13 17  1  0  0  0  0
 14 12  2  0  0  0  0
 15 14  2  0  0  0  0
 16 17  2  0  0  0  0
 17 20  1  0  0  0  0
 18 13  2  0  0  0  0
 20 19  1  0  0  0  0
 21 16  1  0  0  0  0
 22 21  1  0  0  0  0
 24 23  1  0  0  0  0
 26 25  1  6  0  0  0
 26 24  1  0  0  0  0
 27 28  1  0  0  0  0
 28 26  1  0  0  0  0
 29 30  1  0  0  0  0
 29 32  1  0  0  0  0
 30 31  2  0  0  0  0
 30 33  1  0  0  0  0
 32 27  1  0  0  0  0
 33 27  2  0  0  0  0
M  END
>  <MODEL>
4

>  <REMARK>
 VINA RESULT:      -7.1      3.668      7.041
  Name = 
  7 active torsions:
  status: ('A' for Active; 'I' for Inactive)
    1  A    between atoms: C_1  and  O_15
    2  A    between atoms: N_8  and  C_29
    3  A    between atoms: C_9  and  O_15
    4  A    between atoms: C_9  and  C_29
    5  A    between atoms: C_10  and  C_32
    6  A    between atoms: O_18  and  C_26
    7  A    between atoms: C_27  and  O_33
                            x       y       z     vdW  Elec       q    Type
                         _______ _______ _______ _____ _____    ______ ____

>  <TORSDO>
F 7

$$$$
=
 OpenBabel10222418513D

 33 36  0  0  1  0  0  0  0  0999 V2000
  187.2000  178.7570  141.5760 C   0  0  2  0  0  3  0  0  0  0  0  0
  187.5490  177.8100  143.8570 C   0  0  1  0  0  3  0  0  0  0  0  0
  188.3420  176.7730  144.6250 C   0  0  0  0  0  1  0  0  0  0  0  0
  185.1010  178.0180  140.5270 C   0  0  0  0  0  3  0  0  0  0  0  0
  182.9830  179.4330  143.9220 O   0  0  0  0  0  1  0  0  0  0  0  0
  184.9560  179.4400  142.6070 C   0  0  2  0  0  3  0  0  0  0  0  0
  183.9700  178.6030  143.4020 C   0  0  1  0  0  3  0  0  0  0  0  0
  187.7930  177.6050  142.3680 C   0  0  0  0  0  2  0  0  0  0  0  0
  185.6980  178.6750  141.5360 C   0  0  0  0  0  0  0  0  0  0  0  0
  185.2950  178.9590  144.0340 C   0  0  1  0  0  3  0  0  0  0  0  0
  186.0710  177.6450  144.1820 C   0  0  0  0  0  2  0  0  0  0  0  0
  182.8780  179.1080  139.7380 C   0  0  0  0  0  0  0  0  0  0  0  0
  182.8460  176.9300  140.3920 C   0  0  0  0  0  3  0  0  0  0  0  0
  183.3610  180.1820  139.1740 C   0  0  0  0  0  0  0  0  0  0  0  0
  183.8180  181.1980  138.6360 O   0  0  0  0  0  0  0  0  0  0  0  0
  181.5210  178.6170  139.5860 C   0  0  0  0  0  0  0  0  0  0  0  0
  181.4970  177.3510  139.9960 C   0  0  0  0  0  0  0  0  0  0  0  0
  183.6610  177.9680  140.2070 C   0  0  0  0  0  0  0  0  0  0  0  0
  180.3350  175.2530  139.4560 C   0  0  0  0  0  1  0  0  0  0  0  0
  180.3580  176.5470  140.0400 O   0  0  0  0  0  0  0  0  0  0  0  0
  180.4490  179.3750  139.0970 O   0  0  0  0  0  0  0  0  0  0  0  0
  179.7320  180.3110  139.8870 C   0  0  0  0  0  1  0  0  0  0  0  0
  187.7480  178.8130  140.2870 O   0  0  0  0  0  0  0  0  0  0  0  0
  188.9300  178.0610  140.3470 C   0  0  0  0  0  2  0  0  0  0  0  0
  190.6440  176.8220  139.0340 C   0  0  0  0  0  1  0  0  0  0  0  0
  189.3100  177.5380  138.9670 C   0  0  1  0  0  3  0  0  0  0  0  0
  187.4330  176.9920  137.3750 C   0  0  0  0  0  0  0  0  0  0  0  0
  188.2830  176.6390  138.4670 N   0  0  0  0  0  2  0  0  0  0  0  0
  186.4810  177.7960  134.8370 S   0  0  0  0  0  0  0  0  0  0  0  0
  185.6690  176.6750  135.9560 C   0  0  0  0  0  0  0  0  0  0  0  0
  184.3840  176.3750  135.8350 C   0  0  0  0  0  2  0  0  0  0  0  0
  187.6320  178.5400  136.4770 S   0  0  0  0  0  0  0  0  0  0  0  0
  186.4160  176.2530  137.0830 N   0  0  0  0  0  0  0  0  0  0  0  0
  1 23  1  6  0  0  0
  1  8  1  0  0  0  0
  2 11  1  0  0  0  0
  2  3  1  1  0  0  0
  4  9  2  0  0  0  0
  6  9  1  6  0  0  0
  6  7  1  0  0  0  0
  6 10  1  0  0  0  0
  7  5  1  1  0  0  0
  7 10  1  0  0  0  0
  8  2  1  0  0  0  0
  9  1  1  0  0  0  0
 10 11  1  6  0  0  0
 12 18  1  0  0  0  0
 14 12  2  0  0  0  0
 15 14  2  0  0  0  0
 16 12  1  0  0  0  0
 16 17  2  0  0  0  0
 17 20  1  0  0  0  0
 17 13  1  0  0  0  0
 18 13  2  0  0  0  0
 18  4  1  0  0  0  0
 19 20  1  0  0  0  0
 21 16  1  0  0  0  0
 21 22  1  0  0  0  0
 23 24  1  0  0  0  0
 26 25  1  1  0  0  0
 26 24  1  0  0  0  0
 27 28  1  0  0  0  0
 28 26  1  0  0  0  0
 29 30  1  0  0  0  0
 29 32  1  0  0  0  0
 30 33  1  0  0  0  0
 31 30  2  0  0  0  0
 32 27  1  0  0  0  0
 33 27  2  0  0  0  0
M  END
>  <MODEL>
5

>  <REMARK>
 VINA RESULT:      -7.0      3.359      6.432
  Name = 
  7 active torsions:
  status: ('A' for Active; 'I' for Inactive)
    1  A    between atoms: C_1  and  O_15
    2  A    between atoms: N_8  and  C_29
    3  A    between atoms: C_9  and  O_15
    4  A    between atoms: C_9  and  C_29
    5  A    between atoms: C_10  and  C_32
    6  A    between atoms: O_18  and  C_26
    7  A    between atoms: C_27  and  O_33
                            x       y       z     vdW  Elec       q    Type
                         _______ _______ _______ _____ _____    ______ ____

>  <TORSDO>
F 7

$$$$
=
 OpenBabel10222418513D

 33 36  0  0  1  0  0  0  0  0999 V2000
  186.7930  178.8360  141.7210 C   0  0  2  0  0  3  0  0  0  0  0  0
  187.7170  177.6680  143.7210 C   0  0  1  0  0  3  0  0  0  0  0  0
  188.6420  176.5450  144.1420 C   0  0  0  0  0  1  0  0  0  0  0  0
  184.4520  178.2460  141.2460 C   0  0  0  0  0  3  0  0  0  0  0  0
  183.4320  179.3740  145.2080 O   0  0  0  0  0  1  0  0  0  0  0  0
  184.9600  179.4650  143.3960 C   0  0  2  0  0  3  0  0  0  0  0  0
  184.1950  178.5770  144.3620 C   0  0  1  0  0  3  0  0  0  0  0  0
  187.5270  177.6010  142.2110 C   0  0  0  0  0  2  0  0  0  0  0  0
  185.3370  178.7900  142.0980 C   0  0  0  0  0  0  0  0  0  0  0  0
  185.6590  178.8420  144.6240 C   0  0  1  0  0  3  0  0  0  0  0  0
  186.3830  177.5040  144.4340 C   0  0  0  0  0  2  0  0  0  0  0  0
  182.0870  177.5310  140.4430 C   0  0  0  0  0  0  0  0  0  0  0  0
  182.2470  178.9980  142.1730 C   0  0  0  0  0  3  0  0  0  0  0  0
  182.4170  176.5010  139.7110 C   0  0  0  0  0  0  0  0  0  0  0  0
  182.7290  175.5210  139.0220 O   0  0  0  0  0  0  0  0  0  0  0  0
  180.7410  177.8540  140.8780 C   0  0  0  0  0  0  0  0  0  0  0  0
  180.8340  178.7350  141.8720 C   0  0  0  0  0  0  0  0  0  0  0  0
  182.9790  178.2580  141.3410 C   0  0  0  0  0  0  0  0  0  0  0  0
  179.4380  179.0040  143.8780 C   0  0  0  0  0  1  0  0  0  0  0  0
  179.7500  179.3180  142.5280 O   0  0  0  0  0  0  0  0  0  0  0  0
  179.5720  177.3190  140.3220 O   0  0  0  0  0  0  0  0  0  0  0  0
  179.0340  176.0620  140.6990 C   0  0  0  0  0  1  0  0  0  0  0  0
  186.9620  179.0030  140.3390 O   0  0  0  0  0  0  0  0  0  0  0  0
  187.9680  178.0980  139.9710 C   0  0  0  0  0  2  0  0  0  0  0  0
  189.4300  178.6320  138.0280 C   0  0  0  0  0  1  0  0  0  0  0  0
  188.1060  178.0310  138.4540 C   0  0  1  0  0  3  0  0  0  0  0  0
  186.8100  176.1230  137.4360 C   0  0  0  0  0  0  0  0  0  0  0  0
  188.0110  176.6550  137.9980 N   0  0  0  0  0  2  0  0  0  0  0  0
  184.5360  175.7130  135.8080 S   0  0  0  0  0  0  0  0  0  0  0  0
  185.4870  174.4470  136.6200 C   0  0  0  0  0  0  0  0  0  0  0  0
  185.0140  173.2220  136.7980 C   0  0  0  0  0  2  0  0  0  0  0  0
  185.3530  177.1470  137.1660 S   0  0  0  0  0  0  0  0  0  0  0  0
  186.7050  174.8560  137.2180 N   0  0  0  0  0  0  0  0  0  0  0  0
  1 23  1  6  0  0  0
  1  9  1  0  0  0  0
  1  8  1  0  0  0  0
  2  3  1  1  0  0  0
  2 11  1  0  0  0  0
  4 18  1  0  0  0  0
  4  9  2  0  0  0  0
  6  9  1  6  0  0  0
  6  7  1  0  0  0  0
  6 10  1  0  0  0  0
  7 10  1  0  0  0  0
  7  5  1  1  0  0  0
  8  2  1  0  0  0  0
 10 11  1  6  0  0  0
 12 16  1  0  0  0  0
 12 18  1  0  0  0  0
 14 12  2  0  0  0  0
 15 14  2  0  0  0  0
 16 17  2  0  0  0  0
 17 13  1  0  0  0  0
 17 20  1  0  0  0  0
 18 13  2  0  0  0  0
 20 19  1  0  0  0  0
 21 22  1  0  0  0  0
 21 16  1  0  0  0  0
 24 23  1  0  0  0  0
 26 25  1  1  0  0  0
 26 24  1  0  0  0  0
 27 28  1  0  0  0  0
 28 26  1  0  0  0  0
 29 30  1  0  0  0  0
 29 32  1  0  0  0  0
 30 31  2  0  0  0  0
 30 33  1  0  0  0  0
 32 27  1  0  0  0  0
 33 27  2  0  0  0  0
M  END
>  <MODEL>
6

>  <REMARK>
 VINA RESULT:      -6.9      3.263      6.653
  Name = 
  7 active torsions:
  status: ('A' for Active; 'I' for Inactive)
    1  A    between atoms: C_1  and  O_15
    2  A    between atoms: N_8  and  C_29
    3  A    between atoms: C_9  and  O_15
    4  A    between atoms: C_9  and  C_29
    5  A    between atoms: C_10  and  C_32
    6  A    between atoms: O_18  and  C_26
    7  A    between atoms: C_27  and  O_33
                            x       y       z     vdW  Elec       q    Type
                         _______ _______ _______ _____ _____    ______ ____

>  <TORSDO>
F 7

$$$$
=
 OpenBabel10222418513D

 33 36  0  0  1  0  0  0  0  0999 V2000
  186.2110  178.8330  142.8670 C   0  0  2  0  0  3  0  0  0  0  0  0
  185.6780  178.3610  145.2570 C   0  0  1  0  0  3  0  0  0  0  0  0
  186.0860  177.5060  146.4380 C   0  0  0  0  0  1  0  0  0  0  0  0
  184.5730  177.8770  141.2990 C   0  0  0  0  0  3  0  0  0  0  0  0
  181.4880  179.9150  143.3830 O   0  0  0  0  0  1  0  0  0  0  0  0
  183.7940  179.6830  142.8810 C   0  0  2  0  0  3  0  0  0  0  0  0
  182.5430  179.0090  143.4160 C   0  0  1  0  0  3  0  0  0  0  0  0
  186.4170  177.8670  144.0200 C   0  0  0  0  0  2  0  0  0  0  0  0
  184.8170  178.7280  142.3100 C   0  0  0  0  0  0  0  0  0  0  0  0
  183.5800  179.4980  144.3990 C   0  0  1  0  0  3  0  0  0  0  0  0
  184.1730  178.2480  145.0600 C   0  0  0  0  0  2  0  0  0  0  0  0
  182.7840  178.8050  139.6590 C   0  0  0  0  0  0  0  0  0  0  0  0
  182.4960  176.7160  140.5100 C   0  0  0  0  0  3  0  0  0  0  0  0
  183.4480  179.8210  139.1780 C   0  0  0  0  0  0  0  0  0  0  0  0
  184.0790  180.7820  138.7190 O   0  0  0  0  0  0  0  0  0  0  0  0
  181.5600  178.2610  139.0990 C   0  0  0  0  0  0  0  0  0  0  0  0
  181.3770  177.0500  139.6200 C   0  0  0  0  0  0  0  0  0  0  0  0
  183.3370  177.7490  140.5030 C   0  0  0  0  0  0  0  0  0  0  0  0
  180.2070  175.4450  138.1700 C   0  0  0  0  0  1  0  0  0  0  0  0
  180.2850  176.2240  139.3550 O   0  0  0  0  0  0  0  0  0  0  0  0
  180.7390  178.9270  138.1800 O   0  0  0  0  0  0  0  0  0  0  0  0
  179.9210  180.0330  138.5250 C   0  0  0  0  0  1  0  0  0  0  0  0
  187.1790  178.6370  141.8720 O   0  0  0  0  0  0  0  0  0  0  0  0
  188.1100  177.7450  142.4220 C   0  0  0  0  0  2  0  0  0  0  0  0
  190.2730  178.4670  143.4200 C   0  0  0  0  0  1  0  0  0  0  0  0
  189.5350  178.1980  142.1250 C   0  0  1  0  0  3  0  0  0  0  0  0
  190.0190  177.0250  139.9470 C   0  0  0  0  0  0  0  0  0  0  0  0
  190.2350  177.1880  141.3490 N   0  0  0  0  0  2  0  0  0  0  0  0
  189.8090  177.5030  137.1680 S   0  0  0  0  0  0  0  0  0  0  0  0
  190.2730  175.9660  137.9360 C   0  0  0  0  0  0  0  0  0  0  0  0
  190.2420  174.8170  137.2770 C   0  0  0  0  0  2  0  0  0  0  0  0
  188.9330  178.1200  139.0180 S   0  0  0  0  0  0  0  0  0  0  0  0
  190.5140  176.0030  139.3320 N   0  0  0  0  0  0  0  0  0  0  0  0
  1 23  1  6  0  0  0
  1  8  1  0  0  0  0
  2  3  1  1  0  0  0
  4  9  2  0  0  0  0
  6  9  1  6  0  0  0
  6  7  1  0  0  0  0
  6 10  1  0  0  0  0
  7  5  1  1  0  0  0
  7 10  1  0  0  0  0
  8  2  1  0  0  0  0
  9  1  1  0  0  0  0
 10 11  1  6  0  0  0
 11  2  1  0  0  0  0
 12 18  1  0  0  0  0
 14 12  2  0  0  0  0
 15 14  2  0  0  0  0
 16 17  2  0  0  0  0
 16 12  1  0  0  0  0
 17 13  1  0  0  0  0
 18 13  2  0  0  0  0
 18  4  1  0  0  0  0
 19 20  1  0  0  0  0
 20 17  1  0  0  0  0
 21 22  1  0  0  0  0
 21 16  1  0  0  0  0
 23 24  1  0  0  0  0
 26 24  1  0  0  0  0
 26 25  1  1  0  0  0
 27 28  1  0  0  0  0
 28 26  1  0  0  0  0
 29 30  1  0  0  0  0
 29 32  1  0  0  0  0
 30 33  1  0  0  0  0
 31 30  2  0  0  0  0
 32 27  1  0  0  0  0
 33 27  2  0  0  0  0
M  END
>  <MODEL>
7

>  <REMARK>
 VINA RESULT:      -6.9      3.937      6.925
  Name = 
  7 active torsions:
  status: ('A' for Active; 'I' for Inactive)
    1  A    between atoms: C_1  and  O_15
    2  A    between atoms: N_8  and  C_29
    3  A    between atoms: C_9  and  O_15
    4  A    between atoms: C_9  and  C_29
    5  A    between atoms: C_10  and  C_32
    6  A    between atoms: O_18  and  C_26
    7  A    between atoms: C_27  and  O_33
                            x       y       z     vdW  Elec       q    Type
                         _______ _______ _______ _____ _____    ______ ____

>  <TORSDO>
F 7

$$$$
=
 OpenBabel10222418513D

 33 36  0  0  1  0  0  0  0  0999 V2000
  187.1830  178.7270  141.6170 C   0  0  2  0  0  3  0  0  0  0  0  0
  187.5100  177.8370  143.9240 C   0  0  1  0  0  3  0  0  0  0  0  0
  188.2870  176.8120  144.7230 C   0  0  0  0  0  1  0  0  0  0  0  0
  185.0800  177.9840  140.5780 C   0  0  0  0  0  3  0  0  0  0  0  0
  182.9630  179.5150  143.9230 O   0  0  0  0  0  1  0  0  0  0  0  0
  184.9430  179.4630  142.6180 C   0  0  2  0  0  3  0  0  0  0  0  0
  183.9430  178.6590  143.4300 C   0  0  1  0  0  3  0  0  0  0  0  0
  187.7590  177.5890  142.4420 C   0  0  0  0  0  2  0  0  0  0  0  0
  185.6800  178.6610  141.5710 C   0  0  0  0  0  0  0  0  0  0  0  0
  185.2690  179.0170  144.0590 C   0  0  1  0  0  3  0  0  0  0  0  0
  186.0290  177.6980  144.2460 C   0  0  0  0  0  2  0  0  0  0  0  0
  182.8680  179.0850  139.7760 C   0  0  0  0  0  0  0  0  0  0  0  0
  182.8190  176.9100  140.4380 C   0  0  0  0  0  3  0  0  0  0  0  0
  183.3600  180.1540  139.2100 C   0  0  0  0  0  0  0  0  0  0  0  0
  183.8250  181.1650  138.6690 O   0  0  0  0  0  0  0  0  0  0  0  0
  181.5070  178.6030  139.6200 C   0  0  0  0  0  0  0  0  0  0  0  0
  181.4730  177.3390  140.0340 C   0  0  0  0  0  0  0  0  0  0  0  0
  183.6410  177.9420  140.2520 C   0  0  0  0  0  0  0  0  0  0  0  0
  180.3210  175.2190  139.5620 C   0  0  0  0  0  1  0  0  0  0  0  0
  180.3290  176.5430  140.0770 O   0  0  0  0  0  0  0  0  0  0  0  0
  180.4420  179.3670  139.1240 O   0  0  0  0  0  0  0  0  0  0  0  0
  179.8540  180.4410  139.8390 C   0  0  0  0  0  1  0  0  0  0  0  0
  187.7370  178.7410  140.3290 O   0  0  0  0  0  0  0  0  0  0  0  0
  188.8590  177.9020  140.3930 C   0  0  0  0  0  2  0  0  0  0  0  0
  188.8350  178.5510  137.9890 C   0  0  0  0  0  1  0  0  0  0  0  0
  189.3400  177.5350  138.9940 C   0  0  1  0  0  3  0  0  0  0  0  0
  191.4890  176.4470  138.2490 C   0  0  0  0  0  0  0  0  0  0  0  0
  190.7910  177.4730  138.9580 N   0  0  0  0  0  2  0  0  0  0  0  0
  192.4140  174.7120  136.2170 S   0  0  0  0  0  0  0  0  0  0  0  0
  193.3570  175.2940  137.6100 C   0  0  0  0  0  0  0  0  0  0  0  0
  194.4780  174.7010  137.9930 C   0  0  0  0  0  2  0  0  0  0  0  0
  190.6210  175.2100  137.2700 S   0  0  0  0  0  0  0  0  0  0  0  0
  192.7640  176.3160  138.3940 N   0  0  0  0  0  0  0  0  0  0  0  0
  1 23  1  6  0  0  0
  1  8  1  0  0  0  0
  2 11  1  0  0  0  0
  2  3  1  1  0  0  0
  4  9  2  0  0  0  0
  6  9  1  6  0  0  0
  6  7  1  0  0  0  0
  6 10  1  0  0  0  0
  7  5  1  1  0  0  0
  7 10  1  0  0  0  0
  8  2  1  0  0  0  0
  9  1  1  0  0  0  0
 10 11  1  6  0  0  0
 12 18  1  0  0  0  0
 14 12  2  0  0  0  0
 15 14  2  0  0  0  0
 16 12  1  0  0  0  0
 16 17  2  0  0  0  0
 17 20  1  0  0  0  0
 17 13  1  0  0  0  0
 18 13  2  0  0  0  0
 18  4  1  0  0  0  0
 19 20  1  0  0  0  0
 21 16  1  0  0  0  0
 21 22  1  0  0  0  0
 23 24  1  0  0  0  0
 26 25  1  6  0  0  0
 26 24  1  0  0  0  0
 27 33  2  0  0  0  0
 27 28  1  0  0  0  0
 28 26  1  0  0  0  0
 29 32  1  0  0  0  0
 29 30  1  0  0  0  0
 30 31  2  0  0  0  0
 30 33  1  0  0  0  0
 32 27  1  0  0  0  0
M  END
>  <MODEL>
8

>  <REMARK>
 VINA RESULT:      -6.9      4.573      7.823
  Name = 
  7 active torsions:
  status: ('A' for Active; 'I' for Inactive)
    1  A    between atoms: C_1  and  O_15
    2  A    between atoms: N_8  and  C_29
    3  A    between atoms: C_9  and  O_15
    4  A    between atoms: C_9  and  C_29
    5  A    between atoms: C_10  and  C_32
    6  A    between atoms: O_18  and  C_26
    7  A    between atoms: C_27  and  O_33
                            x       y       z     vdW  Elec       q    Type
                         _______ _______ _______ _____ _____    ______ ____

>  <TORSDO>
F 7

$$$$
=
 OpenBabel10222418513D

 33 36  0  0  1  0  0  0  0  0999 V2000
  182.7030  179.0160  142.6080 C   0  0  2  0  0  3  0  0  0  0  0  0
  180.3150  179.3240  143.2580 C   0  0  1  0  0  3  0  0  0  0  0  0
  179.3090  179.0030  144.3430 C   0  0  0  0  0  1  0  0  0  0  0  0
  183.0210  177.3370  140.8380 C   0  0  0  0  0  3  0  0  0  0  0  0
  180.2650  179.4670  138.4140 O   0  0  0  0  0  1  0  0  0  0  0  0
  181.7370  179.4350  140.2730 C   0  0  2  0  0  3  0  0  0  0  0  0
  180.5270  178.8030  139.6070 C   0  0  1  0  0  3  0  0  0  0  0  0
  181.5980  178.5530  143.5410 C   0  0  0  0  0  2  0  0  0  0  0  0
  182.4830  178.5110  141.2080 C   0  0  0  0  0  0  0  0  0  0  0  0
  180.3070  179.7550  140.7580 C   0  0  1  0  0  3  0  0  0  0  0  0
  179.7360  178.9190  141.9100 C   0  0  0  0  0  2  0  0  0  0  0  0
  183.7960  177.3390  138.3580 C   0  0  0  0  0  0  0  0  0  0  0  0
  182.4030  175.6830  139.0590 C   0  0  0  0  0  3  0  0  0  0  0  0
  184.7780  178.1950  138.4470 C   0  0  0  0  0  0  0  0  0  0  0  0
  185.7110  179.0030  138.5300 O   0  0  0  0  0  0  0  0  0  0  0  0
  183.5480  176.4590  137.2310 C   0  0  0  0  0  0  0  0  0  0  0  0
  182.7100  175.5070  137.6340 C   0  0  0  0  0  0  0  0  0  0  0  0
  183.0740  176.7520  139.4840 C   0  0  0  0  0  0  0  0  0  0  0  0
  182.7570  173.1860  136.8230 C   0  0  0  0  0  1  0  0  0  0  0  0
  182.2020  174.4930  136.8210 O   0  0  0  0  0  0  0  0  0  0  0  0
  184.1050  176.6200  135.9560 O   0  0  0  0  0  0  0  0  0  0  0  0
  185.1760  175.8290  135.4680 C   0  0  0  0  0  1  0  0  0  0  0  0
  183.9610  178.6410  143.1000 O   0  0  0  0  0  0  0  0  0  0  0  0
  184.3390  179.6580  143.9870 C   0  0  0  0  0  2  0  0  0  0  0  0
  184.1690  178.2540  146.0350 C   0  0  0  0  0  1  0  0  0  0  0  0
  185.1010  179.0850  145.1760 C   0  0  1  0  0  3  0  0  0  0  0  0
  187.3310  177.9750  145.5610 C   0  0  0  0  0  0  0  0  0  0  0  0
  186.2170  178.2750  144.7190 N   0  0  0  0  0  2  0  0  0  0  0  0
  188.9330  177.0860  147.7140 S   0  0  0  0  0  0  0  0  0  0  0  0
  189.4090  177.1270  146.0000 C   0  0  0  0  0  0  0  0  0  0  0  0
  190.6770  177.0500  145.6230 C   0  0  0  0  0  2  0  0  0  0  0  0
  187.3910  178.5020  147.2820 S   0  0  0  0  0  0  0  0  0  0  0  0
  188.3830  177.4160  145.0650 N   0  0  0  0  0  0  0  0  0  0  0  0
  1 23  1  1  0  0  0
  1  8  1  0  0  0  0
  2  8  1  0  0  0  0
  2  3  1  1  0  0  0
  4  9  2  0  0  0  0
  6 10  1  0  0  0  0
  6  9  1  1  0  0  0
  7  5  1  6  0  0  0
  7  6  1  0  0  0  0
  7 10  1  0  0  0  0
  9  1  1  0  0  0  0
 10 11  1  1  0  0  0
 11  2  1  0  0  0  0
 12 14  2  0  0  0  0
 12 18  1  0  0  0  0
 13 18  2  0  0  0  0
 14 15  2  0  0  0  0
 16 17  2  0  0  0  0
 16 12  1  0  0  0  0
 17 13  1  0  0  0  0
 18  4  1  0  0  0  0
 20 19  1  0  0  0  0
 20 17  1  0  0  0  0
 21 16  1  0  0  0  0
 22 21  1  0  0  0  0
 23 24  1  0  0  0  0
 24 26  1  0  0  0  0
 26 25  1  6  0  0  0
 27 32  1  0  0  0  0
 28 26  1  0  0  0  0
 28 27  1  0  0  0  0
 30 29  1  0  0  0  0
 31 30  2  0  0  0  0
 32 29  1  0  0  0  0
 33 27  2  0  0  0  0
 33 30  1  0  0  0  0
M  END
>  <MODEL>
9

>  <REMARK>
 VINA RESULT:      -6.7      3.951      7.024
  Name = 
  7 active torsions:
  status: ('A' for Active; 'I' for Inactive)
    1  A    between atoms: C_1  and  O_15
    2  A    between atoms: N_8  and  C_29
    3  A    between atoms: C_9  and  O_15
    4  A    between atoms: C_9  and  C_29
    5  A    between atoms: C_10  and  C_32
    6  A    between atoms: O_18  and  C_26
    7  A    between atoms: C_27  and  O_33
                            x       y       z     vdW  Elec       q    Type
                         _______ _______ _______ _____ _____    ______ ____

>  <TORSDO>
F 7

$$$$
