=
 OpenBabel10222415483D

 31 34  0  0  1  0  0  0  0  0999 V2000
  187.2910  178.4020  140.9880 C   0  0  0  0  0  0  0  0  0  0  0  0
  191.0290  177.0070  137.3620 O   0  0  0  0  0  0  0  0  0  0  0  0
  188.2000  178.1540  139.9010 C   0  0  0  0  0  0  0  0  0  0  0  0
  187.5460  177.6270  141.9980 N   0  0  0  0  0  0  0  0  0  0  0  0
  188.6930  176.7550  141.6830 C   0  0  1  0  0  3  0  0  0  0  0  0
  190.0550  176.7300  139.4330 C   0  0  0  0  0  3  0  0  0  0  0  0
  189.2520  178.3440  137.8450 N   0  0  0  0  0  2  0  0  0  0  0  0
  188.2930  178.7450  138.6890 N   0  0  0  0  0  0  0  0  0  0  0  0
  189.0510  177.1690  140.2890 C   0  0  0  0  0  0  0  0  0  0  0  0
  186.2680  179.3990  140.9890 N   0  0  0  0  0  2  0  0  0  0  0  0
  190.1380  177.3530  138.1780 C   0  0  0  0  0  0  0  0  0  0  0  0
  189.8280  177.0130  142.6310 C   0  0  0  0  0  0  0  0  0  0  0  0
  191.3830  179.9230  144.3660 N   0  0  0  0  0  1  0  0  0  0  0  0
  191.6240  176.2200  144.0620 C   0  0  0  0  0  3  0  0  0  0  0  0
  190.0910  178.3260  143.0400 C   0  0  0  0  0  3  0  0  0  0  0  0
  191.8850  177.5340  144.4620 C   0  0  0  0  0  3  0  0  0  0  0  0
  191.1190  178.5860  143.9530 C   0  0  0  0  0  0  0  0  0  0  0  0
  190.5960  175.9590  143.1530 C   0  0  0  0  0  3  0  0  0  0  0  0
  185.4120  179.6540  142.1410 C   0  0  0  0  0  2  0  0  0  0  0  0
  184.2940  178.6230  142.2260 C   0  0  0  0  0  2  0  0  0  0  0  0
  183.5550  178.7080  143.5560 C   0  0  0  0  0  2  0  0  0  0  0  0
  184.3110  179.4270  144.4840 O   0  0  0  0  0  0  0  0  0  0  0  0
  184.2710  178.6560  145.6460 C   0  0  0  0  0  2  0  0  0  0  0  0
  185.6500  178.2480  146.0360 C   0  0  0  0  0  0  0  0  0  0  0  0
  187.7290  177.1250  145.4990 C   0  0  0  0  0  3  0  0  0  0  0  0
  187.9090  178.4570  148.9480 O   0  0  0  0  0  1  0  0  0  0  0  0
  188.2280  177.4300  146.7690 C   0  0  0  0  0  0  0  0  0  0  0  0
  187.4310  178.1430  147.6810 C   0  0  0  0  0  0  0  0  0  0  0  0
  186.1430  178.5450  147.3130 C   0  0  0  0  0  3  0  0  0  0  0  0
  189.6030  176.9910  147.1350 C   0  0  0  0  0  1  0  0  0  0  0  0
  186.4430  177.5310  145.1330 C   0  0  0  0  0  3  0  0  0  0  0  0
  1 10  1  0  0  0  0
  1  4  2  0  0  0  0
  2 11  2  0  0  0  0
  3  9  1  0  0  0  0
  3  1  1  0  0  0  0
  5  4  1  0  0  0  0
  5 12  1  1  0  0  0
  6  9  2  0  0  0  0
  7 11  1  0  0  0  0
  7  8  1  0  0  0  0
  8  3  2  0  0  0  0
  9  5  1  0  0  0  0
 10 19  1  0  0  0  0
 11  6  1  0  0  0  0
 12 15  2  0  0  0  0
 12 18  1  0  0  0  0
 14 16  1  0  0  0  0
 15 17  1  0  0  0  0
 17 13  1  0  0  0  0
 17 16  2  0  0  0  0
 18 14  2  0  0  0  0
 19 20  1  0  0  0  0
 20 21  1  0  0  0  0
 21 22  1  0  0  0  0
 22 23  1  0  0  0  0
 23 24  1  0  0  0  0
 24 29  1  0  0  0  0
 25 27  2  0  0  0  0
 27 30  1  0  0  0  0
 27 28  1  0  0  0  0
 28 26  1  0  0  0  0
 29 28  2  0  0  0  0
 31 25  1  0  0  0  0
 31 24  2  0  0  0  0
M  END
>  <MODEL>
1

>  <REMARK>
 VINA RESULT:      -9.1      0.000      0.000
  Name = 
  7 active torsions:
  status: ('A' for Active; 'I' for Inactive)
    1  A    between atoms: C_1  and  C_24
    2  A    between atoms: C_3  and  C_17
    3  A    between atoms: C_13  and  C_15
    4  A    between atoms: C_13  and  N_29
    5  A    between atoms: C_15  and  C_20
    6  A    between atoms: C_20  and  O_23
    7  A    between atoms: O_23  and  C_24
                            x       y       z     vdW  Elec       q    Type
                         _______ _______ _______ _____ _____    ______ ____

>  <TORSDO>
F 7

$$$$
=
 OpenBabel10222415483D

 31 34  0  0  1  0  0  0  0  0999 V2000
  185.7620  178.5840  139.8810 C   0  0  0  0  0  0  0  0  0  0  0  0
  180.6470  177.9340  141.4580 O   0  0  0  0  0  0  0  0  0  0  0  0
  184.3650  178.3360  140.1260 C   0  0  0  0  0  0  0  0  0  0  0  0
  186.3120  179.1960  140.8850 N   0  0  0  0  0  0  0  0  0  0  0  0
  185.3090  179.4250  141.9430 C   0  0  1  0  0  3  0  0  0  0  0  0
  182.7770  178.7200  141.8620 C   0  0  0  0  0  3  0  0  0  0  0  0
  182.1920  177.5920  139.8230 N   0  0  0  0  0  2  0  0  0  0  0  0
  183.4410  177.7170  139.3580 N   0  0  0  0  0  0  0  0  0  0  0  0
  184.0660  178.8320  141.3550 C   0  0  0  0  0  0  0  0  0  0  0  0
  186.4730  178.1740  138.7130 N   0  0  0  0  0  2  0  0  0  0  0  0
  181.8280  178.0740  141.0530 C   0  0  0  0  0  0  0  0  0  0  0  0
  185.7030  178.7130  143.2040 C   0  0  0  0  0  0  0  0  0  0  0  0
  184.8260  178.8030  146.8260 N   0  0  0  0  0  1  0  0  0  0  0  0
  186.9400  176.9750  144.3670 C   0  0  0  0  0  3  0  0  0  0  0  0
  185.1090  179.0910  144.4150 C   0  0  0  0  0  3  0  0  0  0  0  0
  186.3480  177.3600  145.5730 C   0  0  0  0  0  3  0  0  0  0  0  0
  185.4320  178.4160  145.5980 C   0  0  0  0  0  0  0  0  0  0  0  0
  186.6160  177.6460  143.1850 C   0  0  0  0  0  3  0  0  0  0  0  0
  187.9030  178.3940  138.5390 C   0  0  0  0  0  2  0  0  0  0  0  0
  188.6850  177.1100  138.7890 C   0  0  0  0  0  2  0  0  0  0  0  0
  189.8200  177.3310  139.7820 C   0  0  0  0  0  2  0  0  0  0  0  0
  189.4060  176.9970  141.0720 O   0  0  0  0  0  0  0  0  0  0  0  0
  189.8660  178.0420  141.8740 C   0  0  0  0  0  2  0  0  0  0  0  0
  190.4110  177.5040  143.1520 C   0  0  0  0  0  0  0  0  0  0  0  0
  190.7910  177.7530  145.5320 C   0  0  0  0  0  3  0  0  0  0  0  0
  192.3000  174.5780  144.3740 O   0  0  0  0  0  1  0  0  0  0  0  0
  191.4710  176.5320  145.5570 C   0  0  0  0  0  0  0  0  0  0  0  0
  191.6280  175.7940  144.3710 C   0  0  0  0  0  0  0  0  0  0  0  0
  191.1020  176.2860  143.1720 C   0  0  0  0  0  3  0  0  0  0  0  0
  192.0210  176.0310  146.8470 C   0  0  0  0  0  1  0  0  0  0  0  0
  190.2640  178.2400  144.3330 C   0  0  0  0  0  3  0  0  0  0  0  0
  1  3  1  0  0  0  0
  1  4  2  0  0  0  0
  3  9  1  0  0  0  0
  4  5  1  0  0  0  0
  5 12  1  1  0  0  0
  7 11  1  0  0  0  0
  8  7  1  0  0  0  0
  8  3  2  0  0  0  0
  9  6  2  0  0  0  0
  9  5  1  0  0  0  0
 10  1  1  0  0  0  0
 11  2  2  0  0  0  0
 11  6  1  0  0  0  0
 12 15  1  0  0  0  0
 14 16  2  0  0  0  0
 15 17  2  0  0  0  0
 16 17  1  0  0  0  0
 17 13  1  0  0  0  0
 18 12  2  0  0  0  0
 18 14  1  0  0  0  0
 19 10  1  0  0  0  0
 19 20  1  0  0  0  0
 20 21  1  0  0  0  0
 21 22  1  0  0  0  0
 22 23  1  0  0  0  0
 23 24  1  0  0  0  0
 24 29  2  0  0  0  0
 24 31  1  0  0  0  0
 25 27  1  0  0  0  0
 27 30  1  0  0  0  0
 28 26  1  0  0  0  0
 28 27  2  0  0  0  0
 29 28  1  0  0  0  0
 31 25  2  0  0  0  0
M  END
>  <MODEL>
2

>  <REMARK>
 VINA RESULT:      -8.4      2.643      5.795
  Name = 
  7 active torsions:
  status: ('A' for Active; 'I' for Inactive)
    1  A    between atoms: C_1  and  C_24
    2  A    between atoms: C_3  and  C_17
    3  A    between atoms: C_13  and  C_15
    4  A    between atoms: C_13  and  N_29
    5  A    between atoms: C_15  and  C_20
    6  A    between atoms: C_20  and  O_23
    7  A    between atoms: O_23  and  C_24
                            x       y       z     vdW  Elec       q    Type
                         _______ _______ _______ _____ _____    ______ ____

>  <TORSDO>
F 7

$$$$
=
 OpenBabel10222415483D

 31 34  0  0  1  0  0  0  0  0999 V2000
  189.6710  177.1650  142.3040 C   0  0  0  0  0  0  0  0  0  0  0  0
  190.9010  177.1350  147.5540 O   0  0  0  0  0  0  0  0  0  0  0  0
  190.1800  177.2000  143.6500 C   0  0  0  0  0  0  0  0  0  0  0  0
  188.4240  176.8040  142.2840 N   0  0  0  0  0  0  0  0  0  0  0  0
  187.9520  176.5560  143.6600 C   0  0  1  0  0  3  0  0  0  0  0  0
  189.3760  176.7940  145.8580 C   0  0  0  0  0  3  0  0  0  0  0  0
  191.6300  177.5060  145.4310 N   0  0  0  0  0  2  0  0  0  0  0  0
  191.4050  177.5350  144.1110 N   0  0  0  0  0  0  0  0  0  0  0  0
  189.1700  176.8370  144.4840 C   0  0  0  0  0  0  0  0  0  0  0  0
  190.4140  177.5240  141.1390 N   0  0  0  0  0  2  0  0  0  0  0  0
  190.6540  177.1460  146.3210 C   0  0  0  0  0  0  0  0  0  0  0  0
  186.8350  177.4950  144.0110 C   0  0  0  0  0  0  0  0  0  0  0  0
  185.3350  178.9970  147.0750 N   0  0  0  0  0  1  0  0  0  0  0  0
  185.0520  179.0130  143.3630 C   0  0  0  0  0  3  0  0  0  0  0  0
  186.5910  177.7940  145.3570 C   0  0  0  0  0  3  0  0  0  0  0  0
  184.8100  179.3040  144.7090 C   0  0  0  0  0  3  0  0  0  0  0  0
  185.5790  178.6960  145.7060 C   0  0  0  0  0  0  0  0  0  0  0  0
  186.0640  178.1150  143.0140 C   0  0  0  0  0  3  0  0  0  0  0  0
  189.8340  177.5330  139.8020 C   0  0  0  0  0  2  0  0  0  0  0  0
  190.4510  176.4440  138.9340 C   0  0  0  0  0  2  0  0  0  0  0  0
  189.6630  176.2430  137.6450 C   0  0  0  0  0  2  0  0  0  0  0  0
  188.3040  176.0960  137.9270 O   0  0  0  0  0  0  0  0  0  0  0  0
  187.6540  176.7950  136.9090 C   0  0  0  0  0  2  0  0  0  0  0  0
  186.3190  177.2610  137.3800 C   0  0  0  0  0  0  0  0  0  0  0  0
  183.9030  177.1880  137.2180 C   0  0  0  0  0  3  0  0  0  0  0  0
  184.8860  179.6520  139.7990 O   0  0  0  0  0  1  0  0  0  0  0  0
  183.8010  178.1580  138.2190 C   0  0  0  0  0  0  0  0  0  0  0  0
  184.9650  178.6870  138.8020 C   0  0  0  0  0  0  0  0  0  0  0  0
  186.2200  178.2410  138.3760 C   0  0  0  0  0  3  0  0  0  0  0  0
  182.4520  178.6150  138.6550 C   0  0  0  0  0  1  0  0  0  0  0  0
  185.1580  176.7410  136.7980 C   0  0  0  0  0  3  0  0  0  0  0  0
  1  3  1  0  0  0  0
  3  8  2  0  0  0  0
  3  9  1  0  0  0  0
  4  1  2  0  0  0  0
  4  5  1  0  0  0  0
  5 12  1  1  0  0  0
  5  9  1  0  0  0  0
  6 11  1  0  0  0  0
  7 11  1  0  0  0  0
  8  7  1  0  0  0  0
  9  6  2  0  0  0  0
 10  1  1  0  0  0  0
 11  2  2  0  0  0  0
 12 15  1  0  0  0  0
 14 16  2  0  0  0  0
 15 17  2  0  0  0  0
 16 17  1  0  0  0  0
 17 13  1  0  0  0  0
 18 14  1  0  0  0  0
 18 12  2  0  0  0  0
 19 10  1  0  0  0  0
 20 19  1  0  0  0  0
 21 22  1  0  0  0  0
 21 20  1  0  0  0  0
 23 24  1  0  0  0  0
 23 22  1  0  0  0  0
 24 29  1  0  0  0  0
 25 27  2  0  0  0  0
 27 30  1  0  0  0  0
 27 28  1  0  0  0  0
 28 26  1  0  0  0  0
 29 28  2  0  0  0  0
 31 25  1  0  0  0  0
 31 24  2  0  0  0  0
M  END
>  <MODEL>
3

>  <REMARK>
 VINA RESULT:      -8.2      2.775      7.315
  Name = 
  7 active torsions:
  status: ('A' for Active; 'I' for Inactive)
    1  A    between atoms: C_1  and  C_24
    2  A    between atoms: C_3  and  C_17
    3  A    between atoms: C_13  and  C_15
    4  A    between atoms: C_13  and  N_29
    5  A    between atoms: C_15  and  C_20
    6  A    between atoms: C_20  and  O_23
    7  A    between atoms: O_23  and  C_24
                            x       y       z     vdW  Elec       q    Type
                         _______ _______ _______ _____ _____    ______ ____

>  <TORSDO>
F 7

$$$$
=
 OpenBabel10222415483D

 31 34  0  0  1  0  0  0  0  0999 V2000
  188.9050  177.5890  142.1390 C   0  0  0  0  0  0  0  0  0  0  0  0
  191.7700  177.1550  146.6860 O   0  0  0  0  0  0  0  0  0  0  0  0
  189.8200  177.5370  143.2490 C   0  0  0  0  0  0  0  0  0  0  0  0
  187.7400  177.1220  142.4700 N   0  0  0  0  0  0  0  0  0  0  0  0
  187.7530  176.6990  143.8840 C   0  0  1  0  0  3  0  0  0  0  0  0
  189.7980  176.8470  145.5310 C   0  0  0  0  0  3  0  0  0  0  0  0
  191.7510  177.7960  144.5030 N   0  0  0  0  0  2  0  0  0  0  0  0
  191.1090  177.9340  143.3360 N   0  0  0  0  0  0  0  0  0  0  0  0
  189.1560  177.0060  144.3080 C   0  0  0  0  0  0  0  0  0  0  0  0
  189.2100  178.1260  140.8510 N   0  0  0  0  0  2  0  0  0  0  0  0
  191.1370  177.2640  145.6060 C   0  0  0  0  0  0  0  0  0  0  0  0
  186.7620  177.4960  144.6810 C   0  0  0  0  0  0  0  0  0  0  0  0
  183.7100  179.5440  144.0590 N   0  0  0  0  0  1  0  0  0  0  0  0
  185.8740  178.2690  146.8070 C   0  0  0  0  0  3  0  0  0  0  0  0
  185.7220  178.1570  144.0150 C   0  0  0  0  0  3  0  0  0  0  0  0
  184.8420  178.9300  146.1360 C   0  0  0  0  0  3  0  0  0  0  0  0
  184.7650  178.8740  144.7410 C   0  0  0  0  0  0  0  0  0  0  0  0
  186.8290  177.5500  146.0830 C   0  0  0  0  0  3  0  0  0  0  0  0
  188.2280  178.2140  139.7780 C   0  0  0  0  0  2  0  0  0  0  0  0
  188.9030  178.1300  138.4150 C   0  0  0  0  0  2  0  0  0  0  0  0
  187.8800  178.0600  137.2870 C   0  0  0  0  0  2  0  0  0  0  0  0
  186.7100  178.7270  137.6540 O   0  0  0  0  0  0  0  0  0  0  0  0
  185.6840  177.8260  137.3660 C   0  0  0  0  0  2  0  0  0  0  0  0
  184.5980  177.9470  138.3790 C   0  0  0  0  0  0  0  0  0  0  0  0
  183.5580  179.1700  140.1940 C   0  0  0  0  0  3  0  0  0  0  0  0
  181.6780  176.0400  139.5890 O   0  0  0  0  0  1  0  0  0  0  0  0
  182.5910  178.1690  140.3220 C   0  0  0  0  0  0  0  0  0  0  0  0
  182.6300  177.0460  139.4780 C   0  0  0  0  0  0  0  0  0  0  0  0
  183.6370  176.9370  138.5130 C   0  0  0  0  0  3  0  0  0  0  0  0
  181.5300  178.3110  141.3580 C   0  0  0  0  0  1  0  0  0  0  0  0
  184.5600  179.0600  139.2260 C   0  0  0  0  0  3  0  0  0  0  0  0
  1  4  2  0  0  0  0
  1  3  1  0  0  0  0
  3  8  2  0  0  0  0
  3  9  1  0  0  0  0
  4  5  1  0  0  0  0
  5  9  1  0  0  0  0
  5 12  1  1  0  0  0
  6 11  1  0  0  0  0
  7 11  1  0  0  0  0
  8  7  1  0  0  0  0
  9  6  2  0  0  0  0
 10  1  1  0  0  0  0
 11  2  2  0  0  0  0
 12 18  1  0  0  0  0
 13 17  1  0  0  0  0
 15 12  2  0  0  0  0
 15 17  1  0  0  0  0
 16 14  1  0  0  0  0
 17 16  2  0  0  0  0
 18 14  2  0  0  0  0
 19 10  1  0  0  0  0
 20 19  1  0  0  0  0
 21 22  1  0  0  0  0
 21 20  1  0  0  0  0
 23 22  1  0  0  0  0
 23 24  1  0  0  0  0
 24 29  2  0  0  0  0
 24 31  1  0  0  0  0
 25 27  1  0  0  0  0
 27 30  1  0  0  0  0
 28 26  1  0  0  0  0
 28 27  2  0  0  0  0
 29 28  1  0  0  0  0
 31 25  2  0  0  0  0
M  END
>  <MODEL>
4

>  <REMARK>
 VINA RESULT:      -8.2      2.720      6.818
  Name = 
  7 active torsions:
  status: ('A' for Active; 'I' for Inactive)
    1  A    between atoms: C_1  and  C_24
    2  A    between atoms: C_3  and  C_17
    3  A    between atoms: C_13  and  C_15
    4  A    between atoms: C_13  and  N_29
    5  A    between atoms: C_15  and  C_20
    6  A    between atoms: C_20  and  O_23
    7  A    between atoms: O_23  and  C_24
                            x       y       z     vdW  Elec       q    Type
                         _______ _______ _______ _____ _____    ______ ____

>  <TORSDO>
F 7

$$$$
=
 OpenBabel10222415483D

 31 34  0  0  1  0  0  0  0  0999 V2000
  190.2900  177.0400  139.9660 C   0  0  0  0  0  0  0  0  0  0  0  0
  186.9410  178.3400  135.9460 O   0  0  0  0  0  0  0  0  0  0  0  0
  189.3270  177.5250  139.0120 C   0  0  0  0  0  0  0  0  0  0  0  0
  190.9160  175.9980  139.5130 N   0  0  0  0  0  0  0  0  0  0  0  0
  190.4250  175.6670  138.1610 C   0  0  1  0  0  3  0  0  0  0  0  0
  188.5660  176.9600  136.8240 C   0  0  0  0  0  3  0  0  0  0  0  0
  187.6910  178.8420  138.0340 N   0  0  0  0  0  2  0  0  0  0  0  0
  188.4900  178.5830  139.0770 N   0  0  0  0  0  0  0  0  0  0  0  0
  189.3860  176.7180  137.9200 C   0  0  0  0  0  0  0  0  0  0  0  0
  190.5650  177.6470  141.2300 N   0  0  0  0  0  2  0  0  0  0  0  0
  187.7010  178.0630  136.9080 C   0  0  0  0  0  0  0  0  0  0  0  0
  191.5370  175.7670  137.1580 C   0  0  0  0  0  0  0  0  0  0  0  0
  195.2580  175.5570  137.1140 N   0  0  0  0  0  1  0  0  0  0  0  0
  192.3200  175.9920  134.8700 C   0  0  0  0  0  3  0  0  0  0  0  0
  192.8620  175.6380  137.5910 C   0  0  0  0  0  3  0  0  0  0  0  0
  193.6410  175.8670  135.3090 C   0  0  0  0  0  3  0  0  0  0  0  0
  193.9130  175.6890  136.6690 C   0  0  0  0  0  0  0  0  0  0  0  0
  191.2700  175.9380  135.7890 C   0  0  0  0  0  3  0  0  0  0  0  0
  191.5950  177.1540  142.1360 C   0  0  0  0  0  2  0  0  0  0  0  0
  190.9750  176.5710  143.3990 C   0  0  0  0  0  2  0  0  0  0  0  0
  191.2930  177.4220  144.6230 C   0  0  0  0  0  2  0  0  0  0  0  0
  190.1480  178.0930  145.0550 O   0  0  0  0  0  0  0  0  0  0  0  0
  189.2510  177.0790  145.3950 C   0  0  0  0  0  2  0  0  0  0  0  0
  187.8520  177.5340  145.1560 C   0  0  0  0  0  0  0  0  0  0  0  0
  186.0460  178.0190  143.6160 C   0  0  0  0  0  3  0  0  0  0  0  0
  184.9600  178.8020  147.0670 O   0  0  0  0  0  1  0  0  0  0  0  0
  185.2400  178.4300  144.6820 C   0  0  0  0  0  0  0  0  0  0  0  0
  185.7450  178.3980  145.9930 C   0  0  0  0  0  0  0  0  0  0  0  0
  187.0510  177.9550  146.2250 C   0  0  0  0  0  3  0  0  0  0  0  0
  183.8530  178.8970  144.4080 C   0  0  0  0  0  1  0  0  0  0  0  0
  187.3490  177.5730  143.8520 C   0  0  0  0  0  3  0  0  0  0  0  0
  1 10  1  0  0  0  0
  2 11  2  0  0  0  0
  3  8  2  0  0  0  0
  3  1  1  0  0  0  0
  4  1  2  0  0  0  0
  5 12  1  6  0  0  0
  5  4  1  0  0  0  0
  6 11  1  0  0  0  0
  6  9  2  0  0  0  0
  7  8  1  0  0  0  0
  9  5  1  0  0  0  0
  9  3  1  0  0  0  0
 10 19  1  0  0  0  0
 11  7  1  0  0  0  0
 12 15  1  0  0  0  0
 14 16  2  0  0  0  0
 14 18  1  0  0  0  0
 16 17  1  0  0  0  0
 17 13  1  0  0  0  0
 17 15  2  0  0  0  0
 18 12  2  0  0  0  0
 19 20  1  0  0  0  0
 20 21  1  0  0  0  0
 21 22  1  0  0  0  0
 22 23  1  0  0  0  0
 24 23  1  0  0  0  0
 24 29  1  0  0  0  0
 25 31  1  0  0  0  0
 25 27  2  0  0  0  0
 27 28  1  0  0  0  0
 28 29  2  0  0  0  0
 28 26  1  0  0  0  0
 30 27  1  0  0  0  0
 31 24  2  0  0  0  0
M  END
>  <MODEL>
5

>  <REMARK>
 VINA RESULT:      -7.9      2.748      5.385
  Name = 
  7 active torsions:
  status: ('A' for Active; 'I' for Inactive)
    1  A    between atoms: C_1  and  C_24
    2  A    between atoms: C_3  and  C_17
    3  A    between atoms: C_13  and  C_15
    4  A    between atoms: C_13  and  N_29
    5  A    between atoms: C_15  and  C_20
    6  A    between atoms: C_20  and  O_23
    7  A    between atoms: O_23  and  C_24
                            x       y       z     vdW  Elec       q    Type
                         _______ _______ _______ _____ _____    ______ ____

>  <TORSDO>
F 7

$$$$
=
 OpenBabel10222415483D

 31 34  0  0  1  0  0  0  0  0999 V2000
  187.6130  178.3000  139.9390 C   0  0  0  0  0  0  0  0  0  0  0  0
  192.3280  176.1480  138.4520 O   0  0  0  0  0  0  0  0  0  0  0  0
  188.9110  177.7140  139.7320 C   0  0  0  0  0  0  0  0  0  0  0  0
  187.0520  178.6070  138.8100 N   0  0  0  0  0  0  0  0  0  0  0  0
  187.9430  178.2430  137.6920 C   0  0  1  0  0  3  0  0  0  0  0  0
  190.3190  177.1350  137.8970 C   0  0  0  0  0  3  0  0  0  0  0  0
  190.9570  176.7210  140.1760 N   0  0  0  0  0  2  0  0  0  0  0  0
  189.8100  177.2440  140.6260 N   0  0  0  0  0  0  0  0  0  0  0  0
  189.1360  177.6690  138.3930 C   0  0  0  0  0  0  0  0  0  0  0  0
  186.9910  178.4810  141.2130 N   0  0  0  0  0  2  0  0  0  0  0  0
  191.2420  176.6510  138.8380 C   0  0  0  0  0  0  0  0  0  0  0  0
  187.2900  177.2180  136.8110 C   0  0  0  0  0  0  0  0  0  0  0  0
  186.0200  173.7250  137.0930 N   0  0  0  0  0  1  0  0  0  0  0  0
  186.3050  176.5550  134.6920 C   0  0  0  0  0  3  0  0  0  0  0  0
  186.9780  175.9600  137.3410 C   0  0  0  0  0  3  0  0  0  0  0  0
  186.0000  175.3000  135.2250 C   0  0  0  0  0  3  0  0  0  0  0  0
  186.3350  175.0020  136.5490 C   0  0  0  0  0  0  0  0  0  0  0  0
  186.9440  177.5140  135.4820 C   0  0  0  0  0  3  0  0  0  0  0  0
  185.6470  179.0220  141.3660 C   0  0  0  0  0  2  0  0  0  0  0  0
  184.8560  178.2290  142.4000 C   0  0  0  0  0  2  0  0  0  0  0  0
  184.2040  179.1450  143.4280 C   0  0  0  0  0  2  0  0  0  0  0  0
  185.1460  179.5680  144.3660 O   0  0  0  0  0  0  0  0  0  0  0  0
  185.0310  178.6580  145.4190 C   0  0  0  0  0  2  0  0  0  0  0  0
  186.3830  178.2250  145.8710 C   0  0  0  0  0  0  0  0  0  0  0  0
  188.5700  177.3200  145.3530 C   0  0  0  0  0  3  0  0  0  0  0  0
  188.3060  177.8810  149.0020 O   0  0  0  0  0  1  0  0  0  0  0  0
  188.9130  177.3610  146.7080 C   0  0  0  0  0  0  0  0  0  0  0  0
  187.9840  177.8310  147.6510 C   0  0  0  0  0  0  0  0  0  0  0  0
  186.7200  178.2560  147.2300 C   0  0  0  0  0  3  0  0  0  0  0  0
  190.2660  176.9030  147.1290 C   0  0  0  0  0  1  0  0  0  0  0  0
  187.3080  177.7490  144.9350 C   0  0  0  0  0  3  0  0  0  0  0  0
  1 10  1  0  0  0  0
  2 11  2  0  0  0  0
  3  1  1  0  0  0  0
  3  8  2  0  0  0  0
  4  1  2  0  0  0  0
  5 12  1  6  0  0  0
  5  9  1  0  0  0  0
  5  4  1  0  0  0  0
  6  9  2  0  0  0  0
  6 11  1  0  0  0  0
  7  8  1  0  0  0  0
  9  3  1  0  0  0  0
 10 19  1  0  0  0  0
 11  7  1  0  0  0  0
 12 15  1  0  0  0  0
 14 16  2  0  0  0  0
 14 18  1  0  0  0  0
 16 17  1  0  0  0  0
 17 13  1  0  0  0  0
 17 15  2  0  0  0  0
 18 12  2  0  0  0  0
 19 20  1  0  0  0  0
 20 21  1  0  0  0  0
 21 22  1  0  0  0  0
 22 23  1  0  0  0  0
 23 24  1  0  0  0  0
 24 29  1  0  0  0  0
 25 27  2  0  0  0  0
 27 30  1  0  0  0  0
 27 28  1  0  0  0  0
 28 26  1  0  0  0  0
 29 28  2  0  0  0  0
 31 25  1  0  0  0  0
 31 24  2  0  0  0  0
M  END
>  <MODEL>
6

>  <REMARK>
 VINA RESULT:      -7.9      2.504      4.709
  Name = 
  7 active torsions:
  status: ('A' for Active; 'I' for Inactive)
    1  A    between atoms: C_1  and  C_24
    2  A    between atoms: C_3  and  C_17
    3  A    between atoms: C_13  and  C_15
    4  A    between atoms: C_13  and  N_29
    5  A    between atoms: C_15  and  C_20
    6  A    between atoms: C_20  and  O_23
    7  A    between atoms: O_23  and  C_24
                            x       y       z     vdW  Elec       q    Type
                         _______ _______ _______ _____ _____    ______ ____

>  <TORSDO>
F 7

$$$$
=
 OpenBabel10222415483D

 31 34  0  0  1  0  0  0  0  0999 V2000
  188.9530  177.5790  142.1980 C   0  0  0  0  0  0  0  0  0  0  0  0
  191.6980  177.1100  146.8150 O   0  0  0  0  0  0  0  0  0  0  0  0
  189.8400  177.5150  143.3300 C   0  0  0  0  0  0  0  0  0  0  0  0
  187.7730  177.1320  142.5010 N   0  0  0  0  0  0  0  0  0  0  0  0
  187.7450  176.7120  143.9150 C   0  0  1  0  0  3  0  0  0  0  0  0
  189.7510  176.8310  145.6120 C   0  0  0  0  0  3  0  0  0  0  0  0
  191.7430  177.7460  144.6310 N   0  0  0  0  0  2  0  0  0  0  0  0
  191.1320  177.8920  143.4480 N   0  0  0  0  0  0  0  0  0  0  0  0
  189.1420  176.9970  144.3730 C   0  0  0  0  0  0  0  0  0  0  0  0
  189.2990  178.1090  140.9170 N   0  0  0  0  0  2  0  0  0  0  0  0
  191.0940  177.2270  145.7190 C   0  0  0  0  0  0  0  0  0  0  0  0
  186.7470  177.5260  144.6870 C   0  0  0  0  0  0  0  0  0  0  0  0
  183.5880  179.3920  144.0260 N   0  0  0  0  0  1  0  0  0  0  0  0
  185.8990  178.4240  146.7790 C   0  0  0  0  0  3  0  0  0  0  0  0
  185.6580  178.0900  144.0120 C   0  0  0  0  0  3  0  0  0  0  0  0
  184.8170  178.9880  146.0990 C   0  0  0  0  0  3  0  0  0  0  0  0
  184.6950  178.8210  144.7160 C   0  0  0  0  0  0  0  0  0  0  0  0
  186.8600  177.6910  146.0770 C   0  0  0  0  0  3  0  0  0  0  0  0
  188.3450  178.2100  139.8190 C   0  0  0  0  0  2  0  0  0  0  0  0
  189.0440  178.6070  138.5250 C   0  0  0  0  0  2  0  0  0  0  0  0
  188.8530  177.5540  137.4400 C   0  0  0  0  0  2  0  0  0  0  0  0
  189.6360  176.4310  137.7130 O   0  0  0  0  0  0  0  0  0  0  0  0
  190.9390  176.9230  137.8100 C   0  0  0  0  0  2  0  0  0  0  0  0
  191.9190  175.8190  137.6060 C   0  0  0  0  0  0  0  0  0  0  0  0
  192.4080  173.5730  136.8420 C   0  0  0  0  0  3  0  0  0  0  0  0
  195.4710  175.0760  138.2760 O   0  0  0  0  0  1  0  0  0  0  0  0
  193.7350  173.7150  137.2580 C   0  0  0  0  0  0  0  0  0  0  0  0
  194.1560  174.9140  137.8570 C   0  0  0  0  0  0  0  0  0  0  0  0
  193.2450  175.9600  138.0340 C   0  0  0  0  0  3  0  0  0  0  0  0
  194.6850  172.5860  137.0560 C   0  0  0  0  0  1  0  0  0  0  0  0
  191.5010  174.6210  137.0160 C   0  0  0  0  0  3  0  0  0  0  0  0
  1  4  2  0  0  0  0
  1  3  1  0  0  0  0
  3  8  2  0  0  0  0
  3  9  1  0  0  0  0
  4  5  1  0  0  0  0
  5  9  1  0  0  0  0
  5 12  1  1  0  0  0
  6 11  1  0  0  0  0
  7 11  1  0  0  0  0
  8  7  1  0  0  0  0
  9  6  2  0  0  0  0
 10  1  1  0  0  0  0
 11  2  2  0  0  0  0
 12 18  1  0  0  0  0
 13 17  1  0  0  0  0
 15 12  2  0  0  0  0
 15 17  1  0  0  0  0
 16 14  1  0  0  0  0
 17 16  2  0  0  0  0
 18 14  2  0  0  0  0
 19 10  1  0  0  0  0
 20 19  1  0  0  0  0
 21 22  1  0  0  0  0
 21 20  1  0  0  0  0
 22 23  1  0  0  0  0
 24 23  1  0  0  0  0
 24 29  1  0  0  0  0
 25 31  1  0  0  0  0
 25 27  2  0  0  0  0
 27 28  1  0  0  0  0
 28 29  2  0  0  0  0
 28 26  1  0  0  0  0
 30 27  1  0  0  0  0
 31 24  2  0  0  0  0
M  END
>  <MODEL>
7

>  <REMARK>
 VINA RESULT:      -7.8      2.815      7.998
  Name = 
  7 active torsions:
  status: ('A' for Active; 'I' for Inactive)
    1  A    between atoms: C_1  and  C_24
    2  A    between atoms: C_3  and  C_17
    3  A    between atoms: C_13  and  C_15
    4  A    between atoms: C_13  and  N_29
    5  A    between atoms: C_15  and  C_20
    6  A    between atoms: C_20  and  O_23
    7  A    between atoms: O_23  and  C_24
                            x       y       z     vdW  Elec       q    Type
                         _______ _______ _______ _____ _____    ______ ____

>  <TORSDO>
F 7

$$$$
=
 OpenBabel10222415483D

 31 34  0  0  1  0  0  0  0  0999 V2000
  189.7810  176.9940  142.3410 C   0  0  0  0  0  0  0  0  0  0  0  0
  190.9010  177.1640  147.6120 O   0  0  0  0  0  0  0  0  0  0  0  0
  190.2620  177.0800  143.6950 C   0  0  0  0  0  0  0  0  0  0  0  0
  188.5340  176.6360  142.3080 N   0  0  0  0  0  0  0  0  0  0  0  0
  188.0320  176.4420  143.6820 C   0  0  1  0  0  3  0  0  0  0  0  0
  189.4110  176.7620  145.8990 C   0  0  0  0  0  3  0  0  0  0  0  0
  191.6760  177.4510  145.4920 N   0  0  0  0  0  2  0  0  0  0  0  0
  191.4780  177.4300  144.1680 N   0  0  0  0  0  0  0  0  0  0  0  0
  189.2340  176.7520  144.5200 C   0  0  0  0  0  0  0  0  0  0  0  0
  190.5500  177.3070  141.1780 N   0  0  0  0  0  2  0  0  0  0  0  0
  190.6800  177.1280  146.3750 C   0  0  0  0  0  0  0  0  0  0  0  0
  186.9110  177.3960  143.9730 C   0  0  0  0  0  0  0  0  0  0  0  0
  185.3110  178.9680  146.9510 N   0  0  0  0  0  1  0  0  0  0  0  0
  185.1670  178.9160  143.2310 C   0  0  0  0  0  3  0  0  0  0  0  0
  186.6200  177.7230  145.3030 C   0  0  0  0  0  3  0  0  0  0  0  0
  184.8770  179.2340  144.5610 C   0  0  0  0  0  3  0  0  0  0  0  0
  185.6030  178.6390  145.5970 C   0  0  0  0  0  0  0  0  0  0  0  0
  186.1830  178.0040  142.9370 C   0  0  0  0  0  3  0  0  0  0  0  0
  189.9970  177.2650  139.8300 C   0  0  0  0  0  2  0  0  0  0  0  0
  189.0690  178.4490  139.5860 C   0  0  0  0  0  2  0  0  0  0  0  0
  189.0270  178.8310  138.1110 C   0  0  0  0  0  2  0  0  0  0  0  0
  187.7370  178.6620  137.6050 O   0  0  0  0  0  0  0  0  0  0  0  0
  187.8870  177.7670  136.5450 C   0  0  0  0  0  2  0  0  0  0  0  0
  187.0890  176.5340  136.7990 C   0  0  0  0  0  0  0  0  0  0  0  0
  186.9790  174.1250  137.0270 C   0  0  0  0  0  3  0  0  0  0  0  0
  183.5840  175.5490  137.4080 O   0  0  0  0  0  1  0  0  0  0  0  0
  185.5980  174.2010  137.2280 C   0  0  0  0  0  0  0  0  0  0  0  0
  184.9560  175.4520  137.2090 C   0  0  0  0  0  0  0  0  0  0  0  0
  185.7040  176.6130  136.9890 C   0  0  0  0  0  3  0  0  0  0  0  0
  184.8260  172.9490  137.4610 C   0  0  0  0  0  1  0  0  0  0  0  0
  187.7230  175.2870  136.8120 C   0  0  0  0  0  3  0  0  0  0  0  0
  1  3  1  0  0  0  0
  3  8  2  0  0  0  0
  3  9  1  0  0  0  0
  4  1  2  0  0  0  0
  4  5  1  0  0  0  0
  5 12  1  1  0  0  0
  5  9  1  0  0  0  0
  6 11  1  0  0  0  0
  7 11  1  0  0  0  0
  8  7  1  0  0  0  0
  9  6  2  0  0  0  0
 10  1  1  0  0  0  0
 11  2  2  0  0  0  0
 12 15  1  0  0  0  0
 14 16  2  0  0  0  0
 15 17  2  0  0  0  0
 16 17  1  0  0  0  0
 17 13  1  0  0  0  0
 18 14  1  0  0  0  0
 18 12  2  0  0  0  0
 19 10  1  0  0  0  0
 20 19  1  0  0  0  0
 21 20  1  0  0  0  0
 22 21  1  0  0  0  0
 23 24  1  0  0  0  0
 23 22  1  0  0  0  0
 24 31  2  0  0  0  0
 24 29  1  0  0  0  0
 25 27  2  0  0  0  0
 27 30  1  0  0  0  0
 28 27  1  0  0  0  0
 28 26  1  0  0  0  0
 29 28  2  0  0  0  0
 31 25  1  0  0  0  0
M  END
>  <MODEL>
8

>  <REMARK>
 VINA RESULT:      -7.8      3.291      7.600
  Name = 
  7 active torsions:
  status: ('A' for Active; 'I' for Inactive)
    1  A    between atoms: C_1  and  C_24
    2  A    between atoms: C_3  and  C_17
    3  A    between atoms: C_13  and  C_15
    4  A    between atoms: C_13  and  N_29
    5  A    between atoms: C_15  and  C_20
    6  A    between atoms: C_20  and  O_23
    7  A    between atoms: O_23  and  C_24
                            x       y       z     vdW  Elec       q    Type
                         _______ _______ _______ _____ _____    ______ ____

>  <TORSDO>
F 7

$$$$
=
 OpenBabel10222415483D

 31 34  0  0  1  0  0  0  0  0999 V2000
  187.5380  178.2530  140.3230 C   0  0  0  0  0  0  0  0  0  0  0  0
  192.2440  176.2960  138.5640 O   0  0  0  0  0  0  0  0  0  0  0  0
  188.8410  177.7110  140.0410 C   0  0  0  0  0  0  0  0  0  0  0  0
  186.9280  178.6010  139.2320 N   0  0  0  0  0  0  0  0  0  0  0  0
  187.7860  178.3150  138.0660 C   0  0  1  0  0  3  0  0  0  0  0  0
  190.1940  177.2590  138.1310 C   0  0  0  0  0  3  0  0  0  0  0  0
  190.9240  176.7490  140.3620 N   0  0  0  0  0  2  0  0  0  0  0  0
  189.7820  177.2200  140.8780 N   0  0  0  0  0  0  0  0  0  0  0  0
  189.0170  177.7380  138.6950 C   0  0  0  0  0  0  0  0  0  0  0  0
  186.9590  178.3550  141.6250 N   0  0  0  0  0  2  0  0  0  0  0  0
  191.1620  176.7520  139.0130 C   0  0  0  0  0  0  0  0  0  0  0  0
  187.1260  177.3190  137.1580 C   0  0  0  0  0  0  0  0  0  0  0  0
  186.1650  173.7180  137.2250 N   0  0  0  0  0  1  0  0  0  0  0  0
  185.9790  176.7630  135.0900 C   0  0  0  0  0  3  0  0  0  0  0  0
  186.9690  175.9970  137.5920 C   0  0  0  0  0  3  0  0  0  0  0  0
  185.8290  175.4430  135.5270 C   0  0  0  0  0  3  0  0  0  0  0  0
  186.3230  175.0610  136.7780 C   0  0  0  0  0  0  0  0  0  0  0  0
  186.6210  177.6990  135.9030 C   0  0  0  0  0  3  0  0  0  0  0  0
  185.6080  178.8540  141.8530 C   0  0  0  0  0  2  0  0  0  0  0  0
  185.0130  178.2530  143.1210 C   0  0  0  0  0  2  0  0  0  0  0  0
  184.6010  179.3340  144.1120 C   0  0  0  0  0  2  0  0  0  0  0  0
  185.5730  179.4770  145.1040 O   0  0  0  0  0  0  0  0  0  0  0  0
  185.5580  178.2630  145.7920 C   0  0  0  0  0  2  0  0  0  0  0  0
  186.9480  177.8550  146.1400 C   0  0  0  0  0  0  0  0  0  0  0  0
  188.6680  177.5040  147.8100 C   0  0  0  0  0  3  0  0  0  0  0  0
  190.0480  176.7710  144.4550 O   0  0  0  0  0  1  0  0  0  0  0  0
  189.5720  177.1370  146.8100 C   0  0  0  0  0  0  0  0  0  0  0  0
  189.1640  177.1340  145.4650 C   0  0  0  0  0  0  0  0  0  0  0  0
  187.8550  177.4980  145.1350 C   0  0  0  0  0  3  0  0  0  0  0  0
  190.9600  176.7530  147.1890 C   0  0  0  0  0  1  0  0  0  0  0  0
  187.3590  177.8640  147.4780 C   0  0  0  0  0  3  0  0  0  0  0  0
  1 10  1  0  0  0  0
  2 11  2  0  0  0  0
  3  1  1  0  0  0  0
  3  8  2  0  0  0  0
  4  1  2  0  0  0  0
  5 12  1  6  0  0  0
  5  9  1  0  0  0  0
  5  4  1  0  0  0  0
  6  9  2  0  0  0  0
  6 11  1  0  0  0  0
  7  8  1  0  0  0  0
  9  3  1  0  0  0  0
 10 19  1  0  0  0  0
 11  7  1  0  0  0  0
 12 15  1  0  0  0  0
 14 16  2  0  0  0  0
 14 18  1  0  0  0  0
 16 17  1  0  0  0  0
 17 13  1  0  0  0  0
 17 15  2  0  0  0  0
 18 12  2  0  0  0  0
 19 20  1  0  0  0  0
 20 21  1  0  0  0  0
 21 22  1  0  0  0  0
 22 23  1  0  0  0  0
 23 24  1  0  0  0  0
 24 31  1  0  0  0  0
 26 28  1  0  0  0  0
 27 30  1  0  0  0  0
 27 25  1  0  0  0  0
 28 27  2  0  0  0  0
 29 28  1  0  0  0  0
 29 24  2  0  0  0  0
 31 25  2  0  0  0  0
M  END
>  <MODEL>
9

>  <REMARK>
 VINA RESULT:      -7.7      2.671      4.827
  Name = 
  7 active torsions:
  status: ('A' for Active; 'I' for Inactive)
    1  A    between atoms: C_1  and  C_24
    2  A    between atoms: C_3  and  C_17
    3  A    between atoms: C_13  and  C_15
    4  A    between atoms: C_13  and  N_29
    5  A    between atoms: C_15  and  C_20
    6  A    between atoms: C_20  and  O_23
    7  A    between atoms: O_23  and  C_24
                            x       y       z     vdW  Elec       q    Type
                         _______ _______ _______ _____ _____    ______ ____

>  <TORSDO>
F 7

$$$$
