=
 OpenBabel10222419593D

 36 39  0  0  1  0  0  0  0  0999 V2000
  184.8310  178.6810  144.7560 C   0  0  0  0  0  0  0  0  0  0  0  0
  187.6740  178.2100  141.7050 C   0  0  0  0  0  3  0  0  0  0  0  0
  186.0270  178.6000  140.0290 N   0  0  0  0  0  0  0  0  0  0  0  0
  185.3620  178.6790  142.3300 C   0  0  0  0  0  0  0  0  0  0  0  0
  187.3160  178.3250  140.3600 C   0  0  0  0  0  0  0  0  0  0  0  0
  187.0950  178.2270  144.0720 N   0  0  0  0  0  0  0  0  0  0  0  0
  185.1100  178.4790  146.9230 N   0  0  0  0  0  0  0  0  0  0  0  0
  186.2030  178.3830  144.9950 C   0  0  0  0  0  0  0  0  0  0  0  0
  184.2770  178.8780  143.3840 C   0  0  0  0  0  2  0  0  0  0  0  0
  186.7070  178.3750  142.6950 C   0  0  0  0  0  0  0  0  0  0  0  0
  184.1950  178.7370  145.8790 N   0  0  0  0  0  0  0  0  0  0  0  0
  185.0510  178.8000  140.9620 C   0  0  0  0  0  0  0  0  0  0  0  0
  186.2930  178.2650  146.4290 C   0  0  0  0  0  0  0  0  0  0  0  0
  182.7740  178.0090  140.5650 N   0  0  0  0  0  2  0  0  0  0  0  0
  183.6520  179.7370  139.1060 C   0  0  0  0  0  2  0  0  0  0  0  0
  183.6590  179.1730  140.5170 C   0  0  2  0  0  3  0  0  0  0  0  0
  183.0750  178.6330  138.2610 C   0  0  0  0  0  2  0  0  0  0  0  0
  182.2380  177.8140  139.2170 C   0  0  2  0  0  3  0  0  0  0  0  0
  180.2000  178.2330  140.4820 N   0  0  0  0  0  1  0  0  0  0  0  0
  180.7910  178.2830  139.1560 C   0  0  0  0  0  2  0  0  0  0  0  0
  187.4880  177.9640  147.2280 C   0  0  0  0  0  0  0  0  0  0  0  0
  188.5370  177.1630  146.6760 N   0  0  0  0  0  2  0  0  0  0  0  0
  187.5810  178.4090  148.4040 O   0  0  0  0  0  0  0  0  0  0  0  0
  189.7790  176.8990  147.3920 C   0  0  0  0  0  2  0  0  0  0  0  0
  192.0560  176.6290  146.8360 O   0  0  0  0  0  0  0  0  0  0  0  0
  190.7150  177.2220  145.0010 C   0  0  0  0  0  1  0  0  0  0  0  0
  190.9340  176.9050  146.4400 C   0  0  0  0  0  0  0  0  0  0  0  0
  188.1690  178.8150  138.1590 N   0  0  0  0  0  0  0  0  0  0  0  0
  188.3100  178.2050  139.2910 C   0  0  0  0  0  3  0  0  0  0  0  0
  189.1570  178.6670  137.0990 C   0  0  0  0  0  2  0  0  0  0  0  0
  188.9120  177.3910  136.3000 C   0  0  0  0  0  2  0  0  0  0  0  0
  185.1570  176.4530  136.0200 C   0  0  0  0  0  1  0  0  0  0  0  0
  187.0510  175.1990  137.0660 C   0  0  0  0  0  1  0  0  0  0  0  0
  187.1260  178.1600  134.9290 O   0  0  0  0  0  0  0  0  0  0  0  0
  187.4960  177.3320  135.8050 C   0  0  0  0  0  0  0  0  0  0  0  0
  186.5810  176.3410  136.2950 N   0  0  0  0  0  0  0  0  0  0  0  0
  1  8  1  0  0  0  0
  1 11  2  0  0  0  0
  2 10  1  0  0  0  0
  3  5  1  0  0  0  0
  3 12  2  0  0  0  0
  4 10  2  0  0  0  0
  4  9  1  0  0  0  0
  5  2  2  0  0  0  0
  6  8  2  0  0  0  0
  8 13  1  0  0  0  0
  9  1  1  0  0  0  0
 10  6  1  0  0  0  0
 11  7  1  0  0  0  0
 12  4  1  0  0  0  0
 13  7  2  0  0  0  0
 13 21  1  0  0  0  0
 15 16  1  0  0  0  0
 16 14  1  0  0  0  0
 16 12  1  6  0  0  0
 17 15  1  0  0  0  0
 17 18  1  0  0  0  0
 18 20  1  1  0  0  0
 18 14  1  0  0  0  0
 20 19  1  0  0  0  0
 21 23  2  0  0  0  0
 22 21  1  0  0  0  0
 22 24  1  0  0  0  0
 26 27  1  0  0  0  0
 27 25  2  0  0  0  0
 27 24  1  0  0  0  0
 28 29  2  0  0  0  0
 29  5  1  0  0  0  0
 30 28  1  0  0  0  0
 31 30  1  0  0  0  0
 32 36  1  0  0  0  0
 34 35  2  0  0  0  0
 35 36  1  0  0  0  0
 35 31  1  0  0  0  0
 36 33  1  0  0  0  0
M  END
>  <MODEL>
1

>  <REMARK>
 VINA RESULT:      -8.5      0.000      0.000
  Name = 
  9 active torsions:
  status: ('A' for Active; 'I' for Inactive)
    1  A    between atoms: N_6  and  C_30
    2  A    between atoms: C_9  and  C_10
    3  A    between atoms: C_11  and  C_20
    4  A    between atoms: C_11  and  N_27
    5  A    between atoms: C_12  and  C_32
    6  A    between atoms: C_15  and  C_35
    7  A    between atoms: C_24  and  C_29
    8  A    between atoms: C_24  and  C_30
    9  A    between atoms: C_31  and  C_33
                            x       y       z     vdW  Elec       q    Type
                         _______ _______ _______ _____ _____    ______ ____

>  <TORSDO>
F 9

$$$$
=
 OpenBabel10222419593D

 36 39  0  0  1  0  0  0  0  0999 V2000
  185.1310  178.5760  144.8040 C   0  0  0  0  0  0  0  0  0  0  0  0
  187.9910  178.0910  141.7720 C   0  0  0  0  0  3  0  0  0  0  0  0
  186.3730  178.5610  140.0890 N   0  0  0  0  0  0  0  0  0  0  0  0
  185.6870  178.6110  142.3840 C   0  0  0  0  0  0  0  0  0  0  0  0
  187.6500  178.2440  140.4270 C   0  0  0  0  0  0  0  0  0  0  0  0
  187.3880  178.0730  144.1330 N   0  0  0  0  0  0  0  0  0  0  0  0
  185.3810  178.3210  146.9690 N   0  0  0  0  0  0  0  0  0  0  0  0
  186.4920  178.2340  145.0500 C   0  0  0  0  0  0  0  0  0  0  0  0
  184.5960  178.8170  143.4310 C   0  0  0  0  0  2  0  0  0  0  0  0
  187.0190  178.2610  142.7550 C   0  0  0  0  0  0  0  0  0  0  0  0
  184.4850  178.6260  145.9210 N   0  0  0  0  0  0  0  0  0  0  0  0
  185.3940  178.7690  141.0160 C   0  0  0  0  0  0  0  0  0  0  0  0
  186.5630  178.0840  146.4820 C   0  0  0  0  0  0  0  0  0  0  0  0
  183.0670  178.0870  140.7120 N   0  0  0  0  0  2  0  0  0  0  0  0
  184.0160  179.6500  139.1170 C   0  0  0  0  0  2  0  0  0  0  0  0
  184.0170  179.1900  140.5650 C   0  0  2  0  0  3  0  0  0  0  0  0
  183.3600  178.5230  138.3640 C   0  0  0  0  0  2  0  0  0  0  0  0
  182.4960  177.8270  139.3900 C   0  0  2  0  0  3  0  0  0  0  0  0
  180.4760  178.3660  140.6390 N   0  0  0  0  0  1  0  0  0  0  0  0
  181.0770  178.3740  139.3160 C   0  0  0  0  0  2  0  0  0  0  0  0
  187.7410  177.7330  147.2860 C   0  0  0  0  0  0  0  0  0  0  0  0
  188.9610  177.3530  146.6430 N   0  0  0  0  0  2  0  0  0  0  0  0
  187.6680  177.7620  148.5450 O   0  0  0  0  0  0  0  0  0  0  0  0
  190.1830  177.0720  147.3880 C   0  0  0  0  0  2  0  0  0  0  0  0
  192.3220  176.2200  146.8740 O   0  0  0  0  0  0  0  0  0  0  0  0
  191.1180  176.9120  144.9800 C   0  0  0  0  0  1  0  0  0  0  0  0
  191.2880  176.7070  146.4460 C   0  0  0  0  0  0  0  0  0  0  0  0
  188.7110  177.0750  138.6040 N   0  0  0  0  0  0  0  0  0  0  0  0
  188.6520  178.1200  139.3650 C   0  0  0  0  0  3  0  0  0  0  0  0
  189.7280  176.9590  137.5670 C   0  0  0  0  0  2  0  0  0  0  0  0
  191.0930  176.6530  138.1760 C   0  0  0  0  0  2  0  0  0  0  0  0
  193.4250  173.7690  137.0350 C   0  0  0  0  0  1  0  0  0  0  0  0
  193.6520  176.2390  136.7150 C   0  0  0  0  0  1  0  0  0  0  0  0
  190.7970  174.3060  137.9190 O   0  0  0  0  0  0  0  0  0  0  0  0
  191.5690  175.2900  137.7640 C   0  0  0  0  0  0  0  0  0  0  0  0
  192.8680  175.1050  137.1820 N   0  0  0  0  0  0  0  0  0  0  0  0
  1  8  1  0  0  0  0
  1 11  2  0  0  0  0
  2 10  1  0  0  0  0
  3  5  1  0  0  0  0
  3 12  2  0  0  0  0
  4 10  2  0  0  0  0
  4  9  1  0  0  0  0
  5  2  2  0  0  0  0
  6  8  2  0  0  0  0
  8 13  1  0  0  0  0
  9  1  1  0  0  0  0
 10  6  1  0  0  0  0
 11  7  1  0  0  0  0
 12  4  1  0  0  0  0
 13  7  2  0  0  0  0
 13 21  1  0  0  0  0
 15 16  1  0  0  0  0
 16 14  1  0  0  0  0
 16 12  1  6  0  0  0
 17 15  1  0  0  0  0
 17 18  1  0  0  0  0
 18 20  1  1  0  0  0
 18 14  1  0  0  0  0
 20 19  1  0  0  0  0
 21 23  2  0  0  0  0
 22 21  1  0  0  0  0
 22 24  1  0  0  0  0
 26 27  1  0  0  0  0
 27 25  2  0  0  0  0
 27 24  1  0  0  0  0
 28 29  2  0  0  0  0
 29  5  1  0  0  0  0
 30 31  1  0  0  0  0
 30 28  1  0  0  0  0
 32 36  1  0  0  0  0
 33 36  1  0  0  0  0
 35 34  2  0  0  0  0
 35 31  1  0  0  0  0
 36 35  1  0  0  0  0
M  END
>  <MODEL>
2

>  <REMARK>
 VINA RESULT:      -8.3      2.138      2.608
  Name = 
  9 active torsions:
  status: ('A' for Active; 'I' for Inactive)
    1  A    between atoms: N_6  and  C_30
    2  A    between atoms: C_9  and  C_10
    3  A    between atoms: C_11  and  C_20
    4  A    between atoms: C_11  and  N_27
    5  A    between atoms: C_12  and  C_32
    6  A    between atoms: C_15  and  C_35
    7  A    between atoms: C_24  and  C_29
    8  A    between atoms: C_24  and  C_30
    9  A    between atoms: C_31  and  C_33
                            x       y       z     vdW  Elec       q    Type
                         _______ _______ _______ _____ _____    ______ ____

>  <TORSDO>
F 9

$$$$
=
 OpenBabel10222419593D

 36 39  0  0  1  0  0  0  0  0999 V2000
  185.9440  178.4790  145.6210 C   0  0  0  0  0  0  0  0  0  0  0  0
  188.4100  177.4040  142.3990 C   0  0  0  0  0  3  0  0  0  0  0  0
  190.3010  177.2140  143.8340 N   0  0  0  0  0  0  0  0  0  0  0  0
  188.1910  177.8180  144.7950 C   0  0  0  0  0  0  0  0  0  0  0  0
  189.7670  177.1340  142.5880 C   0  0  0  0  0  0  0  0  0  0  0  0
  186.2270  178.0540  143.2670 N   0  0  0  0  0  0  0  0  0  0  0  0
  183.8190  179.0220  145.5900 N   0  0  0  0  0  0  0  0  0  0  0  0
  185.4860  178.3760  144.2760 C   0  0  0  0  0  0  0  0  0  0  0  0
  187.3550  178.1890  146.0160 C   0  0  0  0  0  2  0  0  0  0  0  0
  187.6170  177.7560  143.4900 C   0  0  0  0  0  0  0  0  0  0  0  0
  184.9740  178.8550  146.3850 N   0  0  0  0  0  0  0  0  0  0  0  0
  189.5610  177.5230  144.9380 C   0  0  0  0  0  0  0  0  0  0  0  0
  184.0960  178.7510  144.3490 C   0  0  0  0  0  0  0  0  0  0  0  0
  191.6470  177.2650  146.1830 N   0  0  0  0  0  2  0  0  0  0  0  0
  189.5990  176.4720  147.2120 C   0  0  0  0  0  2  0  0  0  0  0  0
  190.2110  177.5200  146.2990 C   0  0  2  0  0  3  0  0  0  0  0  0
  190.6320  175.3790  147.2800 C   0  0  0  0  0  2  0  0  0  0  0  0
  191.9420  176.0700  146.9750 C   0  0  2  0  0  3  0  0  0  0  0  0
  193.2400  175.2910  148.8830 N   0  0  0  0  0  1  0  0  0  0  0  0
  192.6270  176.4610  148.2770 C   0  0  0  0  0  2  0  0  0  0  0  0
  183.1310  178.8210  143.2450 C   0  0  0  0  0  0  0  0  0  0  0  0
  183.5760  178.6800  141.8920 N   0  0  0  0  0  2  0  0  0  0  0  0
  181.9090  179.0130  143.4950 O   0  0  0  0  0  0  0  0  0  0  0  0
  182.6530  178.6610  140.7630 C   0  0  0  0  0  2  0  0  0  0  0  0
  184.3760  179.8070  139.6300 O   0  0  0  0  0  0  0  0  0  0  0  0
  182.3100  179.8990  138.5160 C   0  0  0  0  0  1  0  0  0  0  0  0
  183.1970  179.4880  139.6400 C   0  0  0  0  0  0  0  0  0  0  0  0
  190.4020  177.1020  140.2620 N   0  0  0  0  0  0  0  0  0  0  0  0
  190.6250  176.7160  141.4760 C   0  0  0  0  0  3  0  0  0  0  0  0
  191.2530  176.6590  139.1660 C   0  0  0  0  0  2  0  0  0  0  0  0
  190.5310  176.7930  137.8280 C   0  0  0  0  0  2  0  0  0  0  0  0
  187.2340  174.8980  137.0610 C   0  0  0  0  0  1  0  0  0  0  0  0
  187.5910  177.2470  137.8410 C   0  0  0  0  0  1  0  0  0  0  0  0
  189.9750  174.4910  137.6060 O   0  0  0  0  0  0  0  0  0  0  0  0
  189.5480  175.6760  137.6360 C   0  0  0  0  0  0  0  0  0  0  0  0
  188.1420  175.9400  137.5110 N   0  0  0  0  0  0  0  0  0  0  0  0
  1  9  1  0  0  0  0
  1 11  2  0  0  0  0
  2  5  2  0  0  0  0
  2 10  1  0  0  0  0
  3 12  2  0  0  0  0
  4 12  1  0  0  0  0
  4  9  1  0  0  0  0
  5  3  1  0  0  0  0
  6 10  1  0  0  0  0
  6  8  2  0  0  0  0
  7 11  1  0  0  0  0
  8 13  1  0  0  0  0
  8  1  1  0  0  0  0
 10  4  2  0  0  0  0
 13  7  2  0  0  0  0
 14 16  1  0  0  0  0
 14 18  1  0  0  0  0
 15 17  1  0  0  0  0
 16 12  1  6  0  0  0
 16 15  1  0  0  0  0
 18 17  1  0  0  0  0
 18 20  1  1  0  0  0
 20 19  1  0  0  0  0
 21 23  2  0  0  0  0
 21 13  1  0  0  0  0
 22 21  1  0  0  0  0
 24 22  1  0  0  0  0
 25 27  2  0  0  0  0
 26 27  1  0  0  0  0
 27 24  1  0  0  0  0
 28 29  2  0  0  0  0
 29  5  1  0  0  0  0
 30 28  1  0  0  0  0
 31 30  1  0  0  0  0
 32 36  1  0  0  0  0
 34 35  2  0  0  0  0
 35 31  1  0  0  0  0
 36 35  1  0  0  0  0
 36 33  1  0  0  0  0
M  END
>  <MODEL>
3

>  <REMARK>
 VINA RESULT:      -7.9      2.858      7.293
  Name = 
  9 active torsions:
  status: ('A' for Active; 'I' for Inactive)
    1  A    between atoms: N_6  and  C_30
    2  A    between atoms: C_9  and  C_10
    3  A    between atoms: C_11  and  C_20
    4  A    between atoms: C_11  and  N_27
    5  A    between atoms: C_12  and  C_32
    6  A    between atoms: C_15  and  C_35
    7  A    between atoms: C_24  and  C_29
    8  A    between atoms: C_24  and  C_30
    9  A    between atoms: C_31  and  C_33
                            x       y       z     vdW  Elec       q    Type
                         _______ _______ _______ _____ _____    ______ ____

>  <TORSDO>
F 9

$$$$
=
 OpenBabel10222419593D

 36 39  0  0  1  0  0  0  0  0999 V2000
  190.3980  177.4170  141.7610 C   0  0  0  0  0  0  0  0  0  0  0  0
  186.3500  178.3550  142.3490 C   0  0  0  0  0  3  0  0  0  0  0  0
  186.0000  178.5780  140.0040 N   0  0  0  0  0  0  0  0  0  0  0  0
  188.1860  177.9830  140.7850 C   0  0  0  0  0  0  0  0  0  0  0  0
  185.5070  178.6240  141.2690 C   0  0  0  0  0  0  0  0  0  0  0  0
  188.5440  177.7940  143.2500 N   0  0  0  0  0  0  0  0  0  0  0  0
  191.9420  177.0290  143.2700 N   0  0  0  0  0  0  0  0  0  0  0  0
  189.7860  177.5010  143.0440 C   0  0  2  0  0  3  0  0  0  0  0  0
  189.6420  177.6350  140.4910 C   0  0  0  0  0  3  0  0  0  0  0  0
  187.6890  178.0440  142.1200 C   0  0  0  0  0  0  0  0  0  0  0  0
  191.6530  177.1420  141.8930 N   0  0  0  0  0  0  0  0  0  0  0  0
  187.2950  178.2470  139.7270 C   0  0  0  0  0  0  0  0  0  0  0  0
  190.8630  177.2390  143.9660 C   0  0  0  0  0  0  0  0  0  0  0  0
  186.7990  178.8150  137.4020 N   0  0  0  0  0  2  0  0  0  0  0  0
  187.8990  176.7000  137.8510 C   0  0  0  0  0  2  0  0  0  0  0  0
  187.7490  178.1460  138.2910 C   0  0  2  0  0  3  0  0  0  0  0  0
  186.7120  176.4520  136.9580 C   0  0  0  0  0  2  0  0  0  0  0  0
  186.3310  177.8190  136.4380 C   0  0  2  0  0  3  0  0  0  0  0  0
  187.7450  176.8720  134.6960 N   0  0  0  0  0  1  0  0  0  0  0  0
  186.9890  178.0500  135.0850 C   0  0  0  0  0  2  0  0  0  0  0  0
  190.7950  177.2010  145.4320 C   0  0  0  0  0  0  0  0  0  0  0  0
  189.5280  177.2420  146.0930 N   0  0  0  0  0  2  0  0  0  0  0  0
  191.8610  177.1400  146.1050 O   0  0  0  0  0  0  0  0  0  0  0  0
  189.3960  177.1280  147.5410 C   0  0  0  0  0  2  0  0  0  0  0  0
  187.9890  178.1130  149.1580 O   0  0  0  0  0  0  0  0  0  0  0  0
  187.0180  178.0080  147.0210 C   0  0  0  0  0  1  0  0  0  0  0  0
  188.1200  177.7670  147.9940 C   0  0  0  0  0  0  0  0  0  0  0  0
  183.4950  178.6990  142.5960 N   0  0  0  0  0  0  0  0  0  0  0  0
  184.0830  178.9100  141.4630 C   0  0  0  0  0  3  0  0  0  0  0  0
  182.0740  178.9680  142.7640 C   0  0  0  0  0  2  0  0  0  0  0  0
  181.3370  178.8570  141.4330 C   0  0  0  0  0  2  0  0  0  0  0  0
  179.4780  181.6800  139.5270 C   0  0  0  0  0  1  0  0  0  0  0  0
  181.3590  180.2090  138.7830 C   0  0  0  0  0  1  0  0  0  0  0  0
  179.9440  180.6590  142.1200 O   0  0  0  0  0  0  0  0  0  0  0  0
  180.5350  180.0960  141.1590 C   0  0  0  0  0  0  0  0  0  0  0  0
  180.4580  180.6500  139.8380 N   0  0  0  0  0  0  0  0  0  0  0  0
  1 11  2  0  0  0  0
  3  5  1  0  0  0  0
  4 10  1  0  0  0  0
  5 29  1  0  0  0  0
  5  2  2  0  0  0  0
  7 13  2  0  0  0  0
  8  1  1  1  0  0  0
  8  6  1  0  0  0  0
  8 13  1  0  0  0  0
  9  4  2  0  0  0  0
  9  1  1  0  0  0  0
 10  2  1  0  0  0  0
 10  6  2  0  0  0  0
 11  7  1  0  0  0  0
 12  3  2  0  0  0  0
 12  4  1  0  0  0  0
 13 21  1  0  0  0  0
 14 16  1  0  0  0  0
 15 16  1  0  0  0  0
 16 12  1  1  0  0  0
 17 15  1  0  0  0  0
 18 20  1  6  0  0  0
 18 17  1  0  0  0  0
 18 14  1  0  0  0  0
 19 20  1  0  0  0  0
 21 22  1  0  0  0  0
 21 23  2  0  0  0  0
 22 24  1  0  0  0  0
 24 27  1  0  0  0  0
 26 27  1  0  0  0  0
 27 25  2  0  0  0  0
 28 30  1  0  0  0  0
 29 28  2  0  0  0  0
 31 30  1  0  0  0  0
 32 36  1  0  0  0  0
 33 36  1  0  0  0  0
 35 31  1  0  0  0  0
 35 34  2  0  0  0  0
 36 35  1  0  0  0  0
M  END
>  <MODEL>
4

>  <REMARK>
 VINA RESULT:      -7.7      2.610      5.971
  Name = 
  9 active torsions:
  status: ('A' for Active; 'I' for Inactive)
    1  A    between atoms: N_6  and  C_30
    2  A    between atoms: C_9  and  C_10
    3  A    between atoms: C_11  and  C_20
    4  A    between atoms: C_11  and  N_27
    5  A    between atoms: C_12  and  C_32
    6  A    between atoms: C_15  and  C_35
    7  A    between atoms: C_24  and  C_29
    8  A    between atoms: C_24  and  C_30
    9  A    between atoms: C_31  and  C_33
                            x       y       z     vdW  Elec       q    Type
                         _______ _______ _______ _____ _____    ______ ____

>  <TORSDO>
F 9

$$$$
=
 OpenBabel10222419593D

 36 39  0  0  1  0  0  0  0  0999 V2000
  185.6050  178.5220  145.7110 C   0  0  0  0  0  0  0  0  0  0  0  0
  187.9040  177.3840  142.3900 C   0  0  0  0  0  3  0  0  0  0  0  0
  189.8840  177.3100  143.7110 N   0  0  0  0  0  0  0  0  0  0  0  0
  187.8170  177.8930  144.7750 C   0  0  0  0  0  0  0  0  0  0  0  0
  189.2770  177.1620  142.5040 C   0  0  0  0  0  0  0  0  0  0  0  0
  185.7580  178.0060  143.3640 N   0  0  0  0  0  0  0  0  0  0  0  0
  183.4660  179.0010  145.7900 N   0  0  0  0  0  0  0  0  0  0  0  0
  185.0690  178.3490  144.4030 C   0  0  0  0  0  0  0  0  0  0  0  0
  187.0460  178.2900  146.0300 C   0  0  0  0  0  2  0  0  0  0  0  0
  187.1680  177.7580  143.5120 C   0  0  0  0  0  0  0  0  0  0  0  0
  184.6710  178.9020  146.5190 N   0  0  0  0  0  0  0  0  0  0  0  0
  189.2020  177.6440  144.8450 C   0  0  0  0  0  0  0  0  0  0  0  0
  183.6750  178.6860  144.5460 C   0  0  0  0  0  0  0  0  0  0  0  0
  191.3550  177.4240  145.9790 N   0  0  0  0  0  2  0  0  0  0  0  0
  189.3590  176.7470  147.1790 C   0  0  0  0  0  2  0  0  0  0  0  0
  189.9340  177.7180  146.1620 C   0  0  2  0  0  3  0  0  0  0  0  0
  190.3750  175.6390  147.2600 C   0  0  0  0  0  2  0  0  0  0  0  0
  191.6760  176.2790  146.8310 C   0  0  2  0  0  3  0  0  0  0  0  0
  193.0580  175.5990  148.7170 N   0  0  0  0  0  1  0  0  0  0  0  0
  192.4450  176.7410  148.0610 C   0  0  0  0  0  2  0  0  0  0  0  0
  182.6430  178.6810  143.5020 C   0  0  0  0  0  0  0  0  0  0  0  0
  181.3010  178.3020  143.8220 N   0  0  0  0  0  2  0  0  0  0  0  0
  182.9470  179.0050  142.3220 O   0  0  0  0  0  0  0  0  0  0  0  0
  180.2190  178.3560  142.8450 C   0  0  0  0  0  2  0  0  0  0  0  0
  179.0730  180.1290  143.8980 O   0  0  0  0  0  0  0  0  0  0  0  0
  179.5590  180.5480  141.6380 C   0  0  0  0  0  1  0  0  0  0  0  0
  179.5720  179.7050  142.8660 C   0  0  0  0  0  0  0  0  0  0  0  0
  190.0580  177.3550  140.2310 N   0  0  0  0  0  0  0  0  0  0  0  0
  190.0790  176.7220  141.3590 C   0  0  0  0  0  3  0  0  0  0  0  0
  190.8450  176.8900  139.0970 C   0  0  0  0  0  2  0  0  0  0  0  0
  190.2240  177.3460  137.7800 C   0  0  0  0  0  2  0  0  0  0  0  0
  186.4880  178.1740  138.4250 C   0  0  0  0  0  1  0  0  0  0  0  0
  187.5250  176.1760  137.3360 C   0  0  0  0  0  1  0  0  0  0  0  0
  189.0520  179.3530  138.2910 O   0  0  0  0  0  0  0  0  0  0  0  0
  188.9640  178.1240  138.0230 C   0  0  0  0  0  0  0  0  0  0  0  0
  187.6770  177.4950  137.9320 N   0  0  0  0  0  0  0  0  0  0  0  0
  1  9  1  0  0  0  0
  1 11  2  0  0  0  0
  2  5  2  0  0  0  0
  2 10  1  0  0  0  0
  3 12  2  0  0  0  0
  4 12  1  0  0  0  0
  4  9  1  0  0  0  0
  5  3  1  0  0  0  0
  6 10  1  0  0  0  0
  6  8  2  0  0  0  0
  7 11  1  0  0  0  0
  8 13  1  0  0  0  0
  8  1  1  0  0  0  0
 10  4  2  0  0  0  0
 13  7  2  0  0  0  0
 14 16  1  0  0  0  0
 14 18  1  0  0  0  0
 15 17  1  0  0  0  0
 16 12  1  6  0  0  0
 16 15  1  0  0  0  0
 18 17  1  0  0  0  0
 18 20  1  1  0  0  0
 20 19  1  0  0  0  0
 21 22  1  0  0  0  0
 21 13  1  0  0  0  0
 23 21  2  0  0  0  0
 24 27  1  0  0  0  0
 24 22  1  0  0  0  0
 26 27  1  0  0  0  0
 27 25  2  0  0  0  0
 28 29  2  0  0  0  0
 29  5  1  0  0  0  0
 30 28  1  0  0  0  0
 31 35  1  0  0  0  0
 31 30  1  0  0  0  0
 33 36  1  0  0  0  0
 35 34  2  0  0  0  0
 36 35  1  0  0  0  0
 36 32  1  0  0  0  0
M  END
>  <MODEL>
5

>  <REMARK>
 VINA RESULT:      -7.6      3.080      7.438
  Name = 
  9 active torsions:
  status: ('A' for Active; 'I' for Inactive)
    1  A    between atoms: N_6  and  C_30
    2  A    between atoms: C_9  and  C_10
    3  A    between atoms: C_11  and  C_20
    4  A    between atoms: C_11  and  N_27
    5  A    between atoms: C_12  and  C_32
    6  A    between atoms: C_15  and  C_35
    7  A    between atoms: C_24  and  C_29
    8  A    between atoms: C_24  and  C_30
    9  A    between atoms: C_31  and  C_33
                            x       y       z     vdW  Elec       q    Type
                         _______ _______ _______ _____ _____    ______ ____

>  <TORSDO>
F 9

$$$$
=
 OpenBabel10222419593D

 36 39  0  0  1  0  0  0  0  0999 V2000
  187.4510  177.5750  137.4180 C   0  0  0  0  0  0  0  0  0  0  0  0
  189.5560  177.6540  141.0480 C   0  0  0  0  0  3  0  0  0  0  0  0
  191.4850  176.7120  140.0170 N   0  0  0  0  0  0  0  0  0  0  0  0
  189.5510  177.1260  138.6650 C   0  0  0  0  0  0  0  0  0  0  0  0
  190.8700  177.1920  141.1300 C   0  0  1  0  0  3  0  0  0  0  0  0
  187.5220  178.0760  139.7720 N   0  0  0  0  0  0  0  0  0  0  0  0
  185.3740  178.1650  137.0320 N   0  0  0  0  0  0  0  0  0  0  0  0
  186.8960  178.0480  138.6410 C   0  0  0  0  0  0  0  0  0  0  0  0
  188.8550  177.0790  137.3080 C   0  0  0  0  0  3  0  0  0  0  0  0
  188.8850  177.6170  139.8270 C   0  0  0  0  0  0  0  0  0  0  0  0
  186.5640  177.6430  136.4810 N   0  0  0  0  0  0  0  0  0  0  0  0
  190.8820  176.6840  138.7940 C   0  0  0  0  0  0  0  0  0  0  0  0
  185.5430  178.4070  138.2980 C   0  0  0  0  0  0  0  0  0  0  0  0
  191.5640  174.7490  137.4670 N   0  0  0  0  0  2  0  0  0  0  0  0
  193.1210  176.5990  137.6710 C   0  0  0  0  0  2  0  0  0  0  0  0
  191.6560  176.2040  137.5910 C   0  0  2  0  0  3  0  0  0  0  0  0
  193.8390  175.3190  138.0060 C   0  0  0  0  0  2  0  0  0  0  0  0
  192.9300  174.2240  137.4970 C   0  0  2  0  0  3  0  0  0  0  0  0
  192.2120  173.3470  135.3410 N   0  0  0  0  0  1  0  0  0  0  0  0
  193.3630  173.8130  136.0960 C   0  0  0  0  0  2  0  0  0  0  0  0
  184.5110  178.9540  139.1880 C   0  0  0  0  0  0  0  0  0  0  0  0
  183.8280  178.0980  140.1070 N   0  0  0  0  0  2  0  0  0  0  0  0
  184.2260  180.1820  139.1320 O   0  0  0  0  0  0  0  0  0  0  0  0
  182.8530  178.6000  141.0690 C   0  0  0  0  0  2  0  0  0  0  0  0
  184.6350  178.3750  142.5980 O   0  0  0  0  0  0  0  0  0  0  0  0
  182.6110  179.0030  143.6140 C   0  0  0  0  0  1  0  0  0  0  0  0
  183.4510  178.6320  142.4400 C   0  0  0  0  0  0  0  0  0  0  0  0
  191.0360  177.3300  143.5320 N   0  0  0  0  0  0  0  0  0  0  0  0
  191.6270  177.2570  142.3830 C   0  0  0  0  0  3  0  0  0  0  0  0
  191.8040  177.4160  144.7660 C   0  0  0  0  0  2  0  0  0  0  0  0
  191.3080  176.3960  145.7880 C   0  0  0  0  0  2  0  0  0  0  0  0
  188.9120  177.8810  148.4530 C   0  0  0  0  0  1  0  0  0  0  0  0
  188.5460  177.4770  146.0130 C   0  0  0  0  0  1  0  0  0  0  0  0
  191.6360  177.3250  147.9540 O   0  0  0  0  0  0  0  0  0  0  0  0
  190.8140  177.0790  147.0290 C   0  0  0  0  0  0  0  0  0  0  0  0
  189.4400  177.4700  147.1620 N   0  0  0  0  0  0  0  0  0  0  0  0
  1  8  1  0  0  0  0
  2  5  1  0  0  0  0
  3  5  1  0  0  0  0
  4 12  1  0  0  0  0
  4 10  1  0  0  0  0
  5 29  1  6  0  0  0
  6 10  1  0  0  0  0
  7 13  2  0  0  0  0
  8  6  2  0  0  0  0
  9  1  1  0  0  0  0
  9  4  2  0  0  0  0
 10  2  2  0  0  0  0
 11  7  1  0  0  0  0
 11  1  2  0  0  0  0
 12  3  2  0  0  0  0
 13  8  1  0  0  0  0
 13 21  1  0  0  0  0
 14 18  1  0  0  0  0
 14 16  1  0  0  0  0
 15 17  1  0  0  0  0
 16 15  1  0  0  0  0
 16 12  1  1  0  0  0
 18 20  1  6  0  0  0
 18 17  1  0  0  0  0
 19 20  1  0  0  0  0
 21 22  1  0  0  0  0
 22 24  1  0  0  0  0
 23 21  2  0  0  0  0
 24 27  1  0  0  0  0
 27 25  2  0  0  0  0
 27 26  1  0  0  0  0
 28 30  1  0  0  0  0
 29 28  2  0  0  0  0
 30 31  1  0  0  0  0
 31 35  1  0  0  0  0
 33 36  1  0  0  0  0
 35 36  1  0  0  0  0
 35 34  2  0  0  0  0
 36 32  1  0  0  0  0
M  END
>  <MODEL>
6

>  <REMARK>
 VINA RESULT:      -7.6      3.240      9.123
  Name = 
  9 active torsions:
  status: ('A' for Active; 'I' for Inactive)
    1  A    between atoms: N_6  and  C_30
    2  A    between atoms: C_9  and  C_10
    3  A    between atoms: C_11  and  C_20
    4  A    between atoms: C_11  and  N_27
    5  A    between atoms: C_12  and  C_32
    6  A    between atoms: C_15  and  C_35
    7  A    between atoms: C_24  and  C_29
    8  A    between atoms: C_24  and  C_30
    9  A    between atoms: C_31  and  C_33
                            x       y       z     vdW  Elec       q    Type
                         _______ _______ _______ _____ _____    ______ ____

>  <TORSDO>
F 9

$$$$
=
 OpenBabel10222419593D

 36 39  0  0  1  0  0  0  0  0999 V2000
  190.5970  177.4670  141.3550 C   0  0  0  0  0  0  0  0  0  0  0  0
  186.6340  177.9260  142.6550 C   0  0  0  0  0  3  0  0  0  0  0  0
  187.3300  178.0270  144.9300 N   0  0  0  0  0  0  0  0  0  0  0  0
  189.0010  177.7730  143.2310 C   0  0  0  0  0  0  0  0  0  0  0  0
  186.3290  178.0500  144.0120 C   0  0  1  0  0  3  0  0  0  0  0  0
  188.2470  177.6270  140.8530 N   0  0  0  0  0  0  0  0  0  0  0  0
  191.3370  177.1790  139.3090 N   0  0  0  0  0  0  0  0  0  0  0  0
  189.4770  177.4930  140.4760 C   0  0  0  0  0  0  0  0  0  0  0  0
  190.4660  177.6240  142.8340 C   0  0  0  0  0  3  0  0  0  0  0  0
  187.9600  177.7780  142.2550 C   0  0  0  0  0  0  0  0  0  0  0  0
  191.6810  177.2840  140.6750 N   0  0  0  0  0  0  0  0  0  0  0  0
  188.6460  177.9160  144.5870 C   0  0  0  0  0  0  0  0  0  0  0  0
  190.0500  177.2950  139.1680 C   0  0  0  0  0  0  0  0  0  0  0  0
  190.5140  176.7530  145.6490 N   0  0  0  0  0  2  0  0  0  0  0  0
  189.0970  178.1460  147.0410 C   0  0  0  0  0  2  0  0  0  0  0  0
  189.7050  177.9720  145.6600 C   0  0  2  0  0  3  0  0  0  0  0  0
  189.2370  176.7940  147.6890 C   0  0  0  0  0  2  0  0  0  0  0  0
  190.4030  176.1460  146.9760 C   0  0  2  0  0  3  0  0  0  0  0  0
  192.7430  175.5360  147.2610 N   0  0  0  0  0  1  0  0  0  0  0  0
  191.6800  176.3860  147.7700 C   0  0  0  0  0  2  0  0  0  0  0  0
  189.3430  177.2350  137.8830 C   0  0  0  0  0  0  0  0  0  0  0  0
  188.1380  176.4740  137.7620 N   0  0  0  0  0  2  0  0  0  0  0  0
  189.8080  177.8510  136.8850 O   0  0  0  0  0  0  0  0  0  0  0  0
  187.3520  176.4420  136.5330 C   0  0  0  0  0  2  0  0  0  0  0  0
  185.0890  176.8580  136.0140 O   0  0  0  0  0  0  0  0  0  0  0  0
  185.8490  178.0600  137.8840 C   0  0  0  0  0  1  0  0  0  0  0  0
  186.0300  177.1090  136.7510 C   0  0  0  0  0  0  0  0  0  0  0  0
  184.2190  179.2170  144.0150 N   0  0  0  0  0  0  0  0  0  0  0  0
  184.9530  178.2540  144.4710 C   0  0  0  0  0  3  0  0  0  0  0  0
  182.8600  179.4190  144.4980 C   0  0  0  0  0  2  0  0  0  0  0  0
  181.8690  178.5700  143.7080 C   0  0  0  0  0  2  0  0  0  0  0  0
  180.7090  179.7010  140.1820 C   0  0  0  0  0  1  0  0  0  0  0  0
  182.6410  178.2620  140.8510 C   0  0  0  0  0  1  0  0  0  0  0  0
  180.4390  180.3040  142.9290 O   0  0  0  0  0  0  0  0  0  0  0  0
  181.2290  179.3730  142.6140 C   0  0  0  0  0  0  0  0  0  0  0  0
  181.5220  179.1110  141.2340 N   0  0  0  0  0  0  0  0  0  0  0  0
  1  9  1  0  0  0  0
  2  5  1  0  0  0  0
  4 12  1  0  0  0  0
  5 29  1  6  0  0  0
  5  3  1  0  0  0  0
  6 10  1  0  0  0  0
  7 11  1  0  0  0  0
  8  6  2  0  0  0  0
  8  1  1  0  0  0  0
  9  4  2  0  0  0  0
 10  2  2  0  0  0  0
 10  4  1  0  0  0  0
 11  1  2  0  0  0  0
 12  3  2  0  0  0  0
 13  7  2  0  0  0  0
 13  8  1  0  0  0  0
 14 16  1  0  0  0  0
 14 18  1  0  0  0  0
 15 17  1  0  0  0  0
 16 12  1  6  0  0  0
 16 15  1  0  0  0  0
 18 17  1  0  0  0  0
 18 20  1  1  0  0  0
 19 20  1  0  0  0  0
 21 13  1  0  0  0  0
 22 21  1  0  0  0  0
 23 21  2  0  0  0  0
 24 27  1  0  0  0  0
 24 22  1  0  0  0  0
 25 27  2  0  0  0  0
 27 26  1  0  0  0  0
 28 29  2  0  0  0  0
 28 30  1  0  0  0  0
 31 30  1  0  0  0  0
 32 36  1  0  0  0  0
 33 36  1  0  0  0  0
 35 34  2  0  0  0  0
 35 31  1  0  0  0  0
 36 35  1  0  0  0  0
M  END
>  <MODEL>
7

>  <REMARK>
 VINA RESULT:      -7.5      2.900      8.842
  Name = 
  9 active torsions:
  status: ('A' for Active; 'I' for Inactive)
    1  A    between atoms: N_6  and  C_30
    2  A    between atoms: C_9  and  C_10
    3  A    between atoms: C_11  and  C_20
    4  A    between atoms: C_11  and  N_27
    5  A    between atoms: C_12  and  C_32
    6  A    between atoms: C_15  and  C_35
    7  A    between atoms: C_24  and  C_29
    8  A    between atoms: C_24  and  C_30
    9  A    between atoms: C_31  and  C_33
                            x       y       z     vdW  Elec       q    Type
                         _______ _______ _______ _____ _____    ______ ____

>  <TORSDO>
F 9

$$$$
=
 OpenBabel10222419593D

 36 39  0  0  1  0  0  0  0  0999 V2000
  184.4160  178.2760  144.1240 C   0  0  0  0  0  0  0  0  0  0  0  0
  186.6020  178.6270  140.5590 C   0  0  0  0  0  3  0  0  0  0  0  0
  188.5990  177.9150  141.6440 N   0  0  0  0  0  0  0  0  0  0  0  0
  186.5800  178.0440  142.9290 C   0  0  0  0  0  0  0  0  0  0  0  0
  187.9660  178.3300  140.5160 C   0  0  0  0  0  0  0  0  0  0  0  0
  184.5040  178.8330  141.7830 N   0  0  0  0  0  0  0  0  0  0  0  0
  182.3030  178.7450  144.4800 N   0  0  0  0  0  0  0  0  0  0  0  0
  183.8500  178.7110  142.8910 C   0  0  0  0  0  0  0  0  0  0  0  0
  185.8490  177.8790  144.2580 C   0  0  0  0  0  2  0  0  0  0  0  0
  185.9040  178.4980  141.7580 C   0  0  0  0  0  0  0  0  0  0  0  0
  183.5150  178.2960  145.0490 N   0  0  0  0  0  0  0  0  0  0  0  0
  187.9530  177.7430  142.8330 C   0  0  0  0  0  0  0  0  0  0  0  0
  182.4760  178.9980  143.2170 C   0  0  0  0  0  0  0  0  0  0  0  0
  189.5820  178.2410  144.5850 N   0  0  0  0  0  2  0  0  0  0  0  0
  189.5540  176.0000  143.6570 C   0  0  0  0  0  2  0  0  0  0  0  0
  188.7100  177.2090  144.0240 C   0  0  2  0  0  3  0  0  0  0  0  0
  190.9670  176.5190  143.6350 C   0  0  0  0  0  2  0  0  0  0  0  0
  190.9490  177.7210  144.5510 C   0  0  2  0  0  3  0  0  0  0  0  0
  192.0550  176.0150  145.8910 N   0  0  0  0  0  1  0  0  0  0  0  0
  191.3850  177.3030  145.9490 C   0  0  0  0  0  2  0  0  0  0  0  0
  181.4270  179.4850  142.3120 C   0  0  0  0  0  0  0  0  0  0  0  0
  181.3930  179.0470  140.9510 N   0  0  0  0  0  2  0  0  0  0  0  0
  180.5600  180.2960  142.7410 O   0  0  0  0  0  0  0  0  0  0  0  0
  180.3290  179.4340  140.0310 C   0  0  0  0  0  2  0  0  0  0  0  0
  180.0480  181.6940  139.4140 O   0  0  0  0  0  0  0  0  0  0  0  0
  181.9290  180.6890  138.4290 C   0  0  0  0  0  1  0  0  0  0  0  0
  180.7150  180.6780  139.2920 C   0  0  0  0  0  0  0  0  0  0  0  0
  188.1560  178.6870  138.1390 N   0  0  0  0  0  0  0  0  0  0  0  0
  188.7260  178.4080  139.2660 C   0  0  0  0  0  3  0  0  0  0  0  0
  188.9240  178.7380  136.9020 C   0  0  0  0  0  2  0  0  0  0  0  0
  188.5320  177.5970  135.9690 C   0  0  0  0  0  2  0  0  0  0  0  0
  189.3020  173.8950  136.8430 C   0  0  0  0  0  1  0  0  0  0  0  0
  187.2180  175.2290  137.2030 C   0  0  0  0  0  1  0  0  0  0  0  0
  190.5450  176.3470  136.1920 O   0  0  0  0  0  0  0  0  0  0  0  0
  189.2890  176.3460  136.3070 C   0  0  0  0  0  0  0  0  0  0  0  0
  188.6080  175.1720  136.7750 N   0  0  0  0  0  0  0  0  0  0  0  0
  1  9  1  0  0  0  0
  1 11  2  0  0  0  0
  2 10  1  0  0  0  0
  3 12  2  0  0  0  0
  4  9  1  0  0  0  0
  5  2  2  0  0  0  0
  5  3  1  0  0  0  0
  6  8  2  0  0  0  0
  7 11  1  0  0  0  0
  8 13  1  0  0  0  0
  8  1  1  0  0  0  0
 10  6  1  0  0  0  0
 10  4  2  0  0  0  0
 12  4  1  0  0  0  0
 13  7  2  0  0  0  0
 15 16  1  0  0  0  0
 16 12  1  6  0  0  0
 16 14  1  0  0  0  0
 17 15  1  0  0  0  0
 17 18  1  0  0  0  0
 18 14  1  0  0  0  0
 18 20  1  1  0  0  0
 19 20  1  0  0  0  0
 21 23  2  0  0  0  0
 21 13  1  0  0  0  0
 22 21  1  0  0  0  0
 24 22  1  0  0  0  0
 26 27  1  0  0  0  0
 27 25  2  0  0  0  0
 27 24  1  0  0  0  0
 28 29  2  0  0  0  0
 29  5  1  0  0  0  0
 30 28  1  0  0  0  0
 31 35  1  0  0  0  0
 31 30  1  0  0  0  0
 34 35  2  0  0  0  0
 35 36  1  0  0  0  0
 36 32  1  0  0  0  0
 36 33  1  0  0  0  0
M  END
>  <MODEL>
8

>  <REMARK>
 VINA RESULT:      -7.5      2.968      7.011
  Name = 
  9 active torsions:
  status: ('A' for Active; 'I' for Inactive)
    1  A    between atoms: N_6  and  C_30
    2  A    between atoms: C_9  and  C_10
    3  A    between atoms: C_11  and  C_20
    4  A    between atoms: C_11  and  N_27
    5  A    between atoms: C_12  and  C_32
    6  A    between atoms: C_15  and  C_35
    7  A    between atoms: C_24  and  C_29
    8  A    between atoms: C_24  and  C_30
    9  A    between atoms: C_31  and  C_33
                            x       y       z     vdW  Elec       q    Type
                         _______ _______ _______ _____ _____    ______ ____

>  <TORSDO>
F 9

$$$$
=
 OpenBabel10222419593D

 36 39  0  0  1  0  0  0  0  0999 V2000
  185.6720  178.1650  142.4510 C   0  0  0  0  0  0  0  0  0  0  0  0
  189.0430  178.0470  139.9540 C   0  0  0  0  0  3  0  0  0  0  0  0
  190.3730  177.1160  141.6960 N   0  0  0  0  0  0  0  0  0  0  0  0
  188.0650  177.5820  142.1410 C   0  0  0  0  0  0  0  0  0  0  0  0
  190.2670  177.5620  140.4170 C   0  0  0  0  0  0  0  0  0  0  0  0
  186.6960  178.5970  140.3150 N   0  0  0  0  0  0  0  0  0  0  0  0
  183.6680  178.9380  142.0020 N   0  0  0  0  0  0  0  0  0  0  0  0
  185.6690  178.6170  141.1000 C   0  0  0  0  0  0  0  0  0  0  0  0
  186.8810  177.5800  143.1030 C   0  0  0  0  0  2  0  0  0  0  0  0
  187.9410  178.0700  140.8070 C   0  0  0  0  0  0  0  0  0  0  0  0
  184.5060  178.3520  142.9760 N   0  0  0  0  0  0  0  0  0  0  0  0
  189.3170  177.0890  142.5590 C   0  0  0  0  0  0  0  0  0  0  0  0
  184.3290  179.1070  140.8950 C   0  0  0  0  0  0  0  0  0  0  0  0
  189.2050  177.5160  144.9620 N   0  0  0  0  0  2  0  0  0  0  0  0
  190.9080  175.9910  144.1530 C   0  0  0  0  0  2  0  0  0  0  0  0
  189.4960  176.5110  143.9410 C   0  0  2  0  0  3  0  0  0  0  0  0
  191.5550  177.0110  145.0520 C   0  0  0  0  0  2  0  0  0  0  0  0
  190.4050  177.6590  145.7870 C   0  0  2  0  0  3  0  0  0  0  0  0
  188.7850  176.8760  147.4290 N   0  0  0  0  0  1  0  0  0  0  0  0
  190.2040  176.9670  147.1280 C   0  0  0  0  0  2  0  0  0  0  0  0
  183.7690  179.6920  139.6710 C   0  0  0  0  0  0  0  0  0  0  0  0
  182.4120  179.4290  139.3050 N   0  0  0  0  0  2  0  0  0  0  0  0
  184.4940  180.4230  138.9410 O   0  0  0  0  0  0  0  0  0  0  0  0
  181.7800  180.0470  138.1450 C   0  0  0  0  0  2  0  0  0  0  0  0
  181.6880  182.4040  138.1330 O   0  0  0  0  0  0  0  0  0  0  0  0
  179.9490  181.4120  139.3620 C   0  0  0  0  0  1  0  0  0  0  0  0
  181.1810  181.3650  138.5260 C   0  0  0  0  0  0  0  0  0  0  0  0
  191.5320  176.5740  138.6180 N   0  0  0  0  0  0  0  0  0  0  0  0
  191.4370  177.4770  139.5390 C   0  0  0  0  0  3  0  0  0  0  0  0
  192.7120  176.4900  137.7680 C   0  0  0  0  0  2  0  0  0  0  0  0
  193.4330  175.1600  137.9660 C   0  0  0  0  0  2  0  0  0  0  0  0
  196.7060  173.8540  136.3430 C   0  0  0  0  0  1  0  0  0  0  0  0
  195.4580  173.0130  138.3400 C   0  0  0  0  0  1  0  0  0  0  0  0
  195.0060  176.1070  136.4540 O   0  0  0  0  0  0  0  0  0  0  0  0
  194.7150  175.1240  137.1880 C   0  0  0  0  0  0  0  0  0  0  0  0
  195.6110  174.0080  137.2880 N   0  0  0  0  0  0  0  0  0  0  0  0
  1 11  2  0  0  0  0
  1  9  1  0  0  0  0
  2  5  2  0  0  0  0
  2 10  1  0  0  0  0
  3 12  2  0  0  0  0
  4 12  1  0  0  0  0
  4  9  1  0  0  0  0
  5  3  1  0  0  0  0
  6 10  1  0  0  0  0
  6  8  2  0  0  0  0
  7 11  1  0  0  0  0
  8  1  1  0  0  0  0
 10  4  2  0  0  0  0
 13  8  1  0  0  0  0
 13  7  2  0  0  0  0
 14 18  1  0  0  0  0
 15 17  1  0  0  0  0
 16 12  1  6  0  0  0
 16 15  1  0  0  0  0
 16 14  1  0  0  0  0
 17 18  1  0  0  0  0
 18 20  1  1  0  0  0
 20 19  1  0  0  0  0
 21 13  1  0  0  0  0
 22 21  1  0  0  0  0
 23 21  2  0  0  0  0
 24 27  1  0  0  0  0
 24 22  1  0  0  0  0
 25 27  2  0  0  0  0
 27 26  1  0  0  0  0
 28 29  2  0  0  0  0
 29  5  1  0  0  0  0
 30 31  1  0  0  0  0
 30 28  1  0  0  0  0
 32 36  1  0  0  0  0
 34 35  2  0  0  0  0
 35 36  1  0  0  0  0
 35 31  1  0  0  0  0
 36 33  1  0  0  0  0
M  END
>  <MODEL>
9

>  <REMARK>
 VINA RESULT:      -7.4      3.976      8.171
  Name = 
  9 active torsions:
  status: ('A' for Active; 'I' for Inactive)
    1  A    between atoms: N_6  and  C_30
    2  A    between atoms: C_9  and  C_10
    3  A    between atoms: C_11  and  C_20
    4  A    between atoms: C_11  and  N_27
    5  A    between atoms: C_12  and  C_32
    6  A    between atoms: C_15  and  C_35
    7  A    between atoms: C_24  and  C_29
    8  A    between atoms: C_24  and  C_30
    9  A    between atoms: C_31  and  C_33
                            x       y       z     vdW  Elec       q    Type
                         _______ _______ _______ _____ _____    ______ ____

>  <TORSDO>
F 9

$$$$
