=
 OpenBabel10222420313D

 37 43  0  0  1  0  0  0  0  0999 V2000
  190.9240  177.2820  140.8090 N   0  0  2  0  0  0  0  0  0  0  0  0
  190.0120  176.9790  139.7070 C   0  0  1  0  0  3  0  0  0  0  0  0
  186.9830  177.9110  143.7370 N   0  0  0  0  0  0  0  0  0  0  0  0
  190.4710  176.5610  142.0010 C   0  0  2  0  0  3  0  0  0  0  0  0
  187.8190  178.4220  141.1420 C   0  0  0  0  0  0  0  0  0  0  0  0
  188.7460  178.0070  142.1190 C   0  0  0  0  0  0  0  0  0  0  0  0
  188.1660  178.6130  139.7630 N   0  0  0  0  0  2  0  0  0  0  0  0
  188.2960  177.7240  143.4370 C   0  0  0  0  0  0  0  0  0  0  0  0
  190.2220  177.9980  141.8980 C   0  0  2  0  0  3  0  0  0  0  0  0
  186.0760  178.3460  142.8210 C   0  0  0  0  0  0  0  0  0  0  0  0
  186.4840  178.5930  141.5070 C   0  0  0  0  0  3  0  0  0  0  0  0
  191.3320  176.5600  143.2340 C   0  0  0  0  0  2  0  0  0  0  0  0
  189.4420  178.2940  139.1270 C   0  0  2  0  0  3  0  0  0  0  0  0
  189.1800  177.1880  144.5260 C   0  0  0  0  0  3  0  0  0  0  0  0
  190.4410  176.6900  144.4580 C   0  0  0  0  0  3  0  0  0  0  0  0
  184.8190  179.1230  145.5500 O   0  0  0  0  0  0  0  0  0  0  0  0
  182.7430  178.9630  144.4240 N   0  0  0  0  0  0  0  0  0  0  0  0
  184.1540  178.8970  144.5060 C   0  0  0  0  0  0  0  0  0  0  0  0
  183.6680  178.3890  142.4050 N   0  0  0  0  0  0  0  0  0  0  0  0
  184.6690  178.5320  143.2080 C   0  0  0  0  0  0  0  0  0  0  0  0
  182.4920  178.6620  143.1850 C   0  0  0  0  0  3  0  0  0  0  0  0
  190.7130  176.1030  138.7070 C   0  0  0  0  0  0  0  0  0  0  0  0
  192.0730  176.3070  138.4550 C   0  0  0  0  0  3  0  0  0  0  0  0
  190.7060  174.2660  137.1230 C   0  0  0  0  0  3  0  0  0  0  0  0
  190.0310  175.0770  138.0380 C   0  0  0  0  0  3  0  0  0  0  0  0
  192.7470  175.4960  137.5400 C   0  0  0  0  0  3  0  0  0  0  0  0
  192.0710  174.4660  136.8630 C   0  0  0  0  0  0  0  0  0  0  0  0
  194.0570  174.0230  135.3700 C   0  0  0  0  0  1  0  0  0  0  0  0
  192.2090  172.3600  135.4800 C   0  0  0  0  0  1  0  0  0  0  0  0
  192.7670  173.6300  135.9200 N   0  0  0  0  0  0  0  0  0  0  0  0
  189.2370  178.2730  137.6110 C   0  0  0  0  0  2  0  0  0  0  0  0
  186.1190  176.7900  135.3060 C   0  0  0  0  0  2  0  0  0  0  0  0
  187.7620  178.1830  137.2600 C   0  0  1  0  0  3  0  0  0  0  0  0
  187.5060  178.7580  135.8870 C   0  0  0  0  0  3  0  0  0  0  0  0
  186.7120  178.1420  135.0010 C   0  0  0  0  0  3  0  0  0  0  0  0
  185.9750  176.5930  136.7490 N   0  0  0  0  0  2  0  0  0  0  0  0
  187.2990  176.7280  137.3530 C   0  0  0  0  0  2  0  0  0  0  0  0
  1  9  1  0  0  0  0
  1  4  1  0  0  0  0
  2  1  1  0  0  0  0
  4 12  1  0  0  0  0
  5 11  2  0  0  0  0
  5  6  1  0  0  0  0
  6  8  2  0  0  0  0
  7  5  1  0  0  0  0
  8  3  1  0  0  0  0
  8 14  1  0  0  0  0
  9  4  1  0  0  0  0
  9  6  1  0  0  0  0
 10 20  1  0  0  0  0
 10  3  2  0  0  0  0
 11 10  1  0  0  0  0
 12 15  1  0  0  0  0
 13  2  1  0  0  0  0
 13  7  1  0  0  0  0
 15 14  2  0  0  0  0
 17 18  1  0  0  0  0
 18 16  2  0  0  0  0
 19 21  1  0  0  0  0
 19 20  2  0  0  0  0
 20 18  1  0  0  0  0
 21 17  2  0  0  0  0
 22  2  1  0  0  0  0
 23 22  1  0  0  0  0
 24 25  1  0  0  0  0
 25 22  2  0  0  0  0
 26 23  2  0  0  0  0
 27 24  2  0  0  0  0
 27 26  1  0  0  0  0
 28 30  1  0  0  0  0
 29 30  1  0  0  0  0
 30 27  1  0  0  0  0
 31 13  1  0  0  0  0
 32 36  1  0  0  0  0
 33 37  1  0  0  0  0
 33 31  1  0  0  0  0
 34 33  1  0  0  0  0
 35 32  1  0  0  0  0
 35 34  2  0  0  0  0
 36 37  1  0  0  0  0
M  END
>  <MODEL>
1

>  <REMARK>
 VINA RESULT:      -8.9      0.000      0.000
  Name = 
  5 active torsions:
  status: ('A' for Active; 'I' for Inactive)
    1  A    between atoms: C_4  and  C_13
    2  A    between atoms: C_14  and  C_24
    3  A    between atoms: C_16  and  C_22
    4  A    between atoms: C_16  and  C_29
    5  A    between atoms: N_26  and  C_37
                            x       y       z     vdW  Elec       q    Type
                         _______ _______ _______ _____ _____    ______ ____

>  <TORSDO>
F 5

$$$$
=
 OpenBabel10222420313D

 37 43  0  0  1  0  0  0  0  0999 V2000
  186.1100  178.9990  143.3440 N   0  0  2  0  0  0  0  0  0  0  0  0
  186.8100  178.1260  142.4020 C   0  0  1  0  0  3  0  0  0  0  0  0
  181.9240  178.1300  140.8490 N   0  0  0  0  0  0  0  0  0  0  0  0
  184.8580  178.3480  143.7390 C   0  0  2  0  0  3  0  0  0  0  0  0
  184.6280  178.5560  140.4020 C   0  0  0  0  0  0  0  0  0  0  0  0
  184.0720  178.7950  141.6740 C   0  0  0  0  0  0  0  0  0  0  0  0
  186.0310  178.6670  140.1260 N   0  0  0  0  0  2  0  0  0  0  0  0
  182.6900  178.5450  141.8930 C   0  0  0  0  0  0  0  0  0  0  0  0
  184.8180  179.4560  142.7850 C   0  0  2  0  0  3  0  0  0  0  0  0
  182.4300  177.9270  139.6040 C   0  0  0  0  0  0  0  0  0  0  0  0
  183.7940  178.1260  139.3700 C   0  0  0  0  0  3  0  0  0  0  0  0
  184.0270  178.9550  144.8360 C   0  0  0  0  0  2  0  0  0  0  0  0
  187.1000  178.8980  141.0950 C   0  0  2  0  0  3  0  0  0  0  0  0
  182.0170  178.6780  143.2300 C   0  0  0  0  0  3  0  0  0  0  0  0
  182.5580  178.8370  144.4640 C   0  0  0  0  0  3  0  0  0  0  0  0
  180.9450  175.2340  139.1870 O   0  0  0  0  0  0  0  0  0  0  0  0
  180.1410  176.2050  137.1840 N   0  0  0  0  0  0  0  0  0  0  0  0
  180.8870  176.2030  138.3850 C   0  0  0  0  0  0  0  0  0  0  0  0
  181.2370  178.1980  137.4870 N   0  0  0  0  0  0  0  0  0  0  0  0
  181.5480  177.4790  138.5140 C   0  0  0  0  0  0  0  0  0  0  0  0
  180.3660  177.3840  136.6840 C   0  0  0  0  0  3  0  0  0  0  0  0
  188.0240  177.5440  143.0710 C   0  0  0  0  0  0  0  0  0  0  0  0
  188.5350  178.1610  144.2160 C   0  0  0  0  0  3  0  0  0  0  0  0
  189.7580  175.8540  143.2190 C   0  0  0  0  0  3  0  0  0  0  0  0
  188.6380  176.3850  142.5750 C   0  0  0  0  0  3  0  0  0  0  0  0
  189.6540  177.6290  144.8600 C   0  0  0  0  0  3  0  0  0  0  0  0
  190.2790  176.4690  144.3690 C   0  0  0  0  0  0  0  0  0  0  0  0
  191.8570  176.4140  146.3370 C   0  0  0  0  0  1  0  0  0  0  0  0
  192.2160  174.8540  144.4310 C   0  0  0  0  0  1  0  0  0  0  0  0
  191.4320  175.9210  145.0350 N   0  0  0  0  0  0  0  0  0  0  0  0
  188.4350  178.5420  140.4390 C   0  0  0  0  0  2  0  0  0  0  0  0
  189.8760  177.0900  136.8260 C   0  0  0  0  0  2  0  0  0  0  0  0
  188.2230  177.9130  139.0730 C   0  0  1  0  0  3  0  0  0  0  0  0
  188.6070  178.8790  137.9770 C   0  0  0  0  0  3  0  0  0  0  0  0
  189.3300  178.4930  136.9180 C   0  0  0  0  0  3  0  0  0  0  0  0
  189.0490  176.1540  137.5870 N   0  0  0  0  0  2  0  0  0  0  0  0
  189.0190  176.6110  138.9750 C   0  0  0  0  0  2  0  0  0  0  0  0
  1  4  1  0  0  0  0
  2 22  1  0  0  0  0
  2  1  1  0  0  0  0
  3  8  1  0  0  0  0
  4 12  1  0  0  0  0
  5  6  1  0  0  0  0
  6  8  2  0  0  0  0
  6  9  1  0  0  0  0
  7  5  1  0  0  0  0
  7 13  1  0  0  0  0
  8 14  1  0  0  0  0
  9  1  1  0  0  0  0
  9  4  1  0  0  0  0
 10  3  2  0  0  0  0
 11 10  1  0  0  0  0
 11  5  2  0  0  0  0
 13  2  1  0  0  0  0
 14 15  2  0  0  0  0
 15 12  1  0  0  0  0
 17 18  1  0  0  0  0
 18 20  1  0  0  0  0
 18 16  2  0  0  0  0
 19 20  2  0  0  0  0
 20 10  1  0  0  0  0
 21 17  2  0  0  0  0
 21 19  1  0  0  0  0
 22 23  1  0  0  0  0
 23 26  2  0  0  0  0
 24 27  2  0  0  0  0
 25 22  2  0  0  0  0
 25 24  1  0  0  0  0
 27 26  1  0  0  0  0
 27 30  1  0  0  0  0
 29 30  1  0  0  0  0
 30 28  1  0  0  0  0
 31 13  1  0  0  0  0
 32 35  1  0  0  0  0
 32 36  1  0  0  0  0
 33 31  1  0  0  0  0
 34 33  1  0  0  0  0
 35 34  2  0  0  0  0
 36 37  1  0  0  0  0
 37 33  1  0  0  0  0
M  END
>  <MODEL>
2

>  <REMARK>
 VINA RESULT:      -8.5      2.984      6.158
  Name = 
  5 active torsions:
  status: ('A' for Active; 'I' for Inactive)
    1  A    between atoms: C_4  and  C_13
    2  A    between atoms: C_14  and  C_24
    3  A    between atoms: C_16  and  C_22
    4  A    between atoms: C_16  and  C_29
    5  A    between atoms: N_26  and  C_37
                            x       y       z     vdW  Elec       q    Type
                         _______ _______ _______ _____ _____    ______ ____

>  <TORSDO>
F 5

$$$$
=
 OpenBabel10222420313D

 37 43  0  0  1  0  0  0  0  0999 V2000
  190.2790  177.3900  140.8400 N   0  0  2  0  0  0  0  0  0  0  0  0
  189.5000  177.0940  139.6390 C   0  0  1  0  0  3  0  0  0  0  0  0
  186.0250  178.0070  143.2950 N   0  0  0  0  0  0  0  0  0  0  0  0
  189.6900  176.6620  141.9680 C   0  0  2  0  0  3  0  0  0  0  0  0
  187.1570  178.5320  140.8180 C   0  0  0  0  0  0  0  0  0  0  0  0
  187.9640  178.1100  141.8930 C   0  0  0  0  0  0  0  0  0  0  0  0
  187.6610  178.7300  139.4900 N   0  0  0  0  0  2  0  0  0  0  0  0
  187.3640  177.8200  143.1490 C   0  0  0  0  0  0  0  0  0  0  0  0
  189.4550  178.1010  141.8450 C   0  0  2  0  0  3  0  0  0  0  0  0
  185.2310  178.4490  142.2840 C   0  0  0  0  0  0  0  0  0  0  0  0
  185.7890  178.7020  141.0270 C   0  0  0  0  0  3  0  0  0  0  0  0
  190.4030  176.6530  143.2920 C   0  0  0  0  0  2  0  0  0  0  0  0
  189.0020  178.4130  139.0040 C   0  0  2  0  0  3  0  0  0  0  0  0
  188.1160  177.2770  144.3300 C   0  0  0  0  0  3  0  0  0  0  0  0
  189.3760  176.7780  144.4050 C   0  0  0  0  0  3  0  0  0  0  0  0
  182.8520  178.3520  140.2930 O   0  0  0  0  0  0  0  0  0  0  0  0
  181.5000  178.8120  142.1810 N   0  0  0  0  0  0  0  0  0  0  0  0
  182.7310  178.5740  141.5260 C   0  0  0  0  0  0  0  0  0  0  0  0
  183.2560  178.8850  143.6560 N   0  0  0  0  0  0  0  0  0  0  0  0
  183.7880  178.6340  142.5060 C   0  0  0  0  0  0  0  0  0  0  0  0
  181.8410  178.9890  143.4220 C   0  0  0  0  0  3  0  0  0  0  0  0
  190.3120  176.2230  138.7210 C   0  0  0  0  0  0  0  0  0  0  0  0
  191.6980  176.3970  138.6630 C   0  0  0  0  0  3  0  0  0  0  0  0
  190.4800  174.4240  137.1030 C   0  0  0  0  0  3  0  0  0  0  0  0
  189.7050  175.2310  137.9390 C   0  0  0  0  0  3  0  0  0  0  0  0
  192.4720  175.5890  137.8280 C   0  0  0  0  0  3  0  0  0  0  0  0
  191.8730  174.5930  137.0380 C   0  0  0  0  0  0  0  0  0  0  0  0
  192.1030  172.6020  135.5060 C   0  0  0  0  0  1  0  0  0  0  0  0
  194.0810  174.0470  135.9470 C   0  0  0  0  0  1  0  0  0  0  0  0
  192.6730  173.7610  136.1780 N   0  0  0  0  0  0  0  0  0  0  0  0
  188.9740  178.4020  137.4750 C   0  0  0  0  0  2  0  0  0  0  0  0
  185.9810  176.8340  135.0620 C   0  0  0  0  0  2  0  0  0  0  0  0
  187.5470  178.3920  136.9540 C   0  0  1  0  0  3  0  0  0  0  0  0
  187.5150  178.7320  135.4830 C   0  0  0  0  0  3  0  0  0  0  0  0
  186.7590  178.0450  134.6160 C   0  0  0  0  0  3  0  0  0  0  0  0
  185.6540  176.9140  136.4860 N   0  0  0  0  0  2  0  0  0  0  0  0
  186.9090  177.0280  137.2270 C   0  0  0  0  0  2  0  0  0  0  0  0
  1  9  1  0  0  0  0
  1  4  1  0  0  0  0
  2  1  1  0  0  0  0
  4 12  1  0  0  0  0
  5 11  2  0  0  0  0
  5  6  1  0  0  0  0
  6  8  2  0  0  0  0
  7  5  1  0  0  0  0
  8  3  1  0  0  0  0
  8 14  1  0  0  0  0
  9  6  1  0  0  0  0
  9  4  1  0  0  0  0
 10 20  1  0  0  0  0
 10  3  2  0  0  0  0
 11 10  1  0  0  0  0
 12 15  1  0  0  0  0
 13  7  1  0  0  0  0
 13  2  1  0  0  0  0
 14 15  2  0  0  0  0
 16 18  2  0  0  0  0
 17 21  2  0  0  0  0
 18 17  1  0  0  0  0
 18 20  1  0  0  0  0
 20 19  2  0  0  0  0
 21 19  1  0  0  0  0
 22  2  1  0  0  0  0
 23 22  1  0  0  0  0
 24 25  1  0  0  0  0
 25 22  2  0  0  0  0
 26 23  2  0  0  0  0
 27 24  2  0  0  0  0
 27 26  1  0  0  0  0
 28 30  1  0  0  0  0
 29 30  1  0  0  0  0
 30 27  1  0  0  0  0
 31 13  1  0  0  0  0
 32 36  1  0  0  0  0
 33 37  1  0  0  0  0
 33 31  1  0  0  0  0
 34 33  1  0  0  0  0
 35 32  1  0  0  0  0
 35 34  2  0  0  0  0
 36 37  1  0  0  0  0
M  END
>  <MODEL>
3

>  <REMARK>
 VINA RESULT:      -8.4      1.217      1.460
  Name = 
  5 active torsions:
  status: ('A' for Active; 'I' for Inactive)
    1  A    between atoms: C_4  and  C_13
    2  A    between atoms: C_14  and  C_24
    3  A    between atoms: C_16  and  C_22
    4  A    between atoms: C_16  and  C_29
    5  A    between atoms: N_26  and  C_37
                            x       y       z     vdW  Elec       q    Type
                         _______ _______ _______ _____ _____    ______ ____

>  <TORSDO>
F 5

$$$$
=
 OpenBabel10222420313D

 37 43  0  0  1  0  0  0  0  0999 V2000
  187.5080  178.6280  139.2770 N   0  0  2  0  0  0  0  0  0  0  0  0
  188.0180  178.0000  140.4950 C   0  0  1  0  0  3  0  0  0  0  0  0
  190.3250  175.5220  136.6460 N   0  0  0  0  0  0  0  0  0  0  0  0
  187.1630  177.5740  138.3190 C   0  0  2  0  0  3  0  0  0  0  0  0
  190.4030  177.0200  138.9780 C   0  0  0  0  0  0  0  0  0  0  0  0
  189.3720  177.2210  138.0390 C   0  0  0  0  0  0  0  0  0  0  0  0
  190.4520  177.6930  140.2450 N   0  0  0  0  0  2  0  0  0  0  0  0
  189.3320  176.4260  136.8620 C   0  0  0  0  0  0  0  0  0  0  0  0
  188.3920  178.3430  138.1240 C   0  0  2  0  0  3  0  0  0  0  0  0
  191.3500  175.3360  137.5200 C   0  0  0  0  0  0  0  0  0  0  0  0
  191.3910  176.0760  138.7050 C   0  0  0  0  0  3  0  0  0  0  0  0
  186.4530  177.9400  137.0460 C   0  0  0  0  0  2  0  0  0  0  0  0
  189.4230  178.5570  140.8190 C   0  0  2  0  0  3  0  0  0  0  0  0
  188.2310  176.4940  135.8430 C   0  0  0  0  0  3  0  0  0  0  0  0
  187.0230  177.1090  135.9070 C   0  0  0  0  0  3  0  0  0  0  0  0
  194.3640  175.3030  138.2580 O   0  0  0  0  0  0  0  0  0  0  0  0
  194.4260  173.2300  137.1170 N   0  0  0  0  0  0  0  0  0  0  0  0
  193.7880  174.3930  137.6060 C   0  0  0  0  0  0  0  0  0  0  0  0
  192.1990  173.2500  136.5680 N   0  0  0  0  0  0  0  0  0  0  0  0
  192.3960  174.3430  137.2280 C   0  0  0  0  0  0  0  0  0  0  0  0
  193.4720  172.5840  136.5170 C   0  0  0  0  0  3  0  0  0  0  0  0
  187.0090  178.1610  141.5980 C   0  0  0  0  0  0  0  0  0  0  0  0
  185.9110  179.0030  141.4010 C   0  0  0  0  0  3  0  0  0  0  0  0
  186.1870  177.6230  143.8160 C   0  0  0  0  0  3  0  0  0  0  0  0
  187.1440  177.4690  142.8100 C   0  0  0  0  0  3  0  0  0  0  0  0
  184.9550  179.1560  142.4080 C   0  0  0  0  0  3  0  0  0  0  0  0
  185.0820  178.4690  143.6270 C   0  0  0  0  0  0  0  0  0  0  0  0
  184.4700  178.6280  146.0700 C   0  0  0  0  0  1  0  0  0  0  0  0
  182.6850  178.7940  144.3430 C   0  0  0  0  0  1  0  0  0  0  0  0
  184.0950  178.6280  144.6630 N   0  0  0  0  0  0  0  0  0  0  0  0
  189.7050  178.7190  142.3140 C   0  0  0  0  0  2  0  0  0  0  0  0
  191.4930  176.0840  144.9780 C   0  0  0  0  0  2  0  0  0  0  0  0
  190.8680  177.8450  142.7490 C   0  0  1  0  0  3  0  0  0  0  0  0
  191.4800  178.3700  144.0260 C   0  0  0  0  0  3  0  0  0  0  0  0
  191.8120  177.5560  145.0360 C   0  0  0  0  0  3  0  0  0  0  0  0
  191.4210  175.6160  143.5940 N   0  0  0  0  0  2  0  0  0  0  0  0
  190.3940  176.3990  142.9090 C   0  0  0  0  0  2  0  0  0  0  0  0
  1  2  1  0  0  0  0
  2 13  1  0  0  0  0
  2 22  1  0  0  0  0
  3  8  2  0  0  0  0
  3 10  1  0  0  0  0
  4  1  1  0  0  0  0
  5  7  1  0  0  0  0
  6  9  1  0  0  0  0
  6  5  2  0  0  0  0
  7 13  1  0  0  0  0
  8  6  1  0  0  0  0
  9  4  1  0  0  0  0
  9  1  1  0  0  0  0
 10 11  2  0  0  0  0
 11  5  1  0  0  0  0
 12  4  1  0  0  0  0
 13 31  1  0  0  0  0
 14 15  2  0  0  0  0
 14  8  1  0  0  0  0
 15 12  1  0  0  0  0
 17 18  1  0  0  0  0
 18 16  2  0  0  0  0
 19 20  2  0  0  0  0
 20 10  1  0  0  0  0
 20 18  1  0  0  0  0
 21 19  1  0  0  0  0
 21 17  2  0  0  0  0
 22 25  1  0  0  0  0
 23 22  2  0  0  0  0
 23 26  1  0  0  0  0
 25 24  2  0  0  0  0
 26 27  2  0  0  0  0
 27 24  1  0  0  0  0
 27 30  1  0  0  0  0
 29 30  1  0  0  0  0
 30 28  1  0  0  0  0
 31 33  1  0  0  0  0
 32 35  1  0  0  0  0
 33 37  1  0  0  0  0
 33 34  1  0  0  0  0
 34 35  2  0  0  0  0
 36 32  1  0  0  0  0
 37 36  1  0  0  0  0
M  END
>  <MODEL>
4

>  <REMARK>
 VINA RESULT:      -8.1      2.524      9.105
  Name = 
  5 active torsions:
  status: ('A' for Active; 'I' for Inactive)
    1  A    between atoms: C_4  and  C_13
    2  A    between atoms: C_14  and  C_24
    3  A    between atoms: C_16  and  C_22
    4  A    between atoms: C_16  and  C_29
    5  A    between atoms: N_26  and  C_37
                            x       y       z     vdW  Elec       q    Type
                         _______ _______ _______ _____ _____    ______ ____

>  <TORSDO>
F 5

$$$$
=
 OpenBabel10222420313D

 37 43  0  0  1  0  0  0  0  0999 V2000
  184.3510  179.2080  142.9300 N   0  0  2  0  0  0  0  0  0  0  0  0
  185.5000  178.3750  142.5770 C   0  0  1  0  0  3  0  0  0  0  0  0
  181.9680  177.3730  138.9980 N   0  0  0  0  0  0  0  0  0  0  0  0
  183.1360  178.3960  142.8190 C   0  0  2  0  0  3  0  0  0  0  0  0
  184.4990  178.2110  139.7630 C   0  0  0  0  0  0  0  0  0  0  0  0
  183.3840  178.4820  140.5800 C   0  0  0  0  0  0  0  0  0  0  0  0
  185.8450  178.5330  140.1410 N   0  0  0  0  0  2  0  0  0  0  0  0
  182.0980  178.0220  140.1860 C   0  0  0  0  0  0  0  0  0  0  0  0
  183.4400  179.3740  141.7740 C   0  0  2  0  0  3  0  0  0  0  0  0
  183.0230  177.1320  138.1750 C   0  0  0  0  0  0  0  0  0  0  0  0
  184.3060  177.5370  138.5570 C   0  0  0  0  0  3  0  0  0  0  0  0
  181.8260  178.9620  143.2940 C   0  0  0  0  0  2  0  0  0  0  0  0
  186.2950  179.0450  141.4330 C   0  0  2  0  0  3  0  0  0  0  0  0
  180.8620  178.1750  141.0250 C   0  0  0  0  0  3  0  0  0  0  0  0
  180.7310  178.5540  142.3220 C   0  0  0  0  0  3  0  0  0  0  0  0
  183.7170  174.2230  137.3420 O   0  0  0  0  0  0  0  0  0  0  0  0
  182.7870  174.8040  135.2440 N   0  0  0  0  0  0  0  0  0  0  0  0
  183.1670  175.0630  136.5820 C   0  0  0  0  0  0  0  0  0  0  0  0
  182.2730  176.9550  135.8550 N   0  0  0  0  0  0  0  0  0  0  0  0
  182.8170  176.4260  136.9000 C   0  0  0  0  0  0  0  0  0  0  0  0
  182.2690  175.9280  134.8490 C   0  0  0  0  0  3  0  0  0  0  0  0
  186.3030  178.0850  143.8140 C   0  0  0  0  0  0  0  0  0  0  0  0
  185.9940  178.7530  145.0020 C   0  0  0  0  0  3  0  0  0  0  0  0
  188.0670  176.8800  144.9630 C   0  0  0  0  0  3  0  0  0  0  0  0
  187.3420  177.1440  143.7980 C   0  0  0  0  0  3  0  0  0  0  0  0
  186.7190  178.4880  146.1650 C   0  0  0  0  0  3  0  0  0  0  0  0
  187.7640  177.5490  146.1600 C   0  0  0  0  0  0  0  0  0  0  0  0
  189.8660  176.7480  147.3040 C   0  0  0  0  0  1  0  0  0  0  0  0
  187.9370  177.5180  148.6760 C   0  0  0  0  0  1  0  0  0  0  0  0
  188.5100  177.2760  147.3600 N   0  0  0  0  0  0  0  0  0  0  0  0
  187.8100  178.8580  141.5290 C   0  0  0  0  0  2  0  0  0  0  0  0
  190.7530  177.3300  139.0310 C   0  0  0  0  0  2  0  0  0  0  0  0
  188.3020  177.8460  140.5080 C   0  0  1  0  0  3  0  0  0  0  0  0
  188.5870  178.5200  139.1860 C   0  0  0  0  0  3  0  0  0  0  0  0
  189.6930  178.2500  138.4810 C   0  0  0  0  0  3  0  0  0  0  0  0
  190.1790  176.3710  139.9750 N   0  0  0  0  0  2  0  0  0  0  0  0
  189.5400  177.1280  141.0490 C   0  0  0  0  0  2  0  0  0  0  0  0
  2  1  1  0  0  0  0
  2 22  1  0  0  0  0
  3  8  1  0  0  0  0
  4  1  1  0  0  0  0
  4 12  1  0  0  0  0
  5  7  1  0  0  0  0
  5  6  1  0  0  0  0
  6  9  1  0  0  0  0
  7 13  1  0  0  0  0
  8  6  2  0  0  0  0
  8 14  1  0  0  0  0
  9  4  1  0  0  0  0
  9  1  1  0  0  0  0
 10 11  1  0  0  0  0
 10  3  2  0  0  0  0
 11  5  2  0  0  0  0
 13 31  1  0  0  0  0
 13  2  1  0  0  0  0
 14 15  2  0  0  0  0
 15 12  1  0  0  0  0
 17 18  1  0  0  0  0
 18 20  1  0  0  0  0
 18 16  2  0  0  0  0
 19 20  2  0  0  0  0
 20 10  1  0  0  0  0
 21 17  2  0  0  0  0
 21 19  1  0  0  0  0
 22 23  1  0  0  0  0
 23 26  2  0  0  0  0
 24 27  2  0  0  0  0
 25 22  2  0  0  0  0
 25 24  1  0  0  0  0
 27 26  1  0  0  0  0
 27 30  1  0  0  0  0
 28 30  1  0  0  0  0
 30 29  1  0  0  0  0
 32 36  1  0  0  0  0
 33 37  1  0  0  0  0
 33 31  1  0  0  0  0
 34 33  1  0  0  0  0
 35 32  1  0  0  0  0
 35 34  2  0  0  0  0
 36 37  1  0  0  0  0
M  END
>  <MODEL>
5

>  <REMARK>
 VINA RESULT:      -7.9      3.175      7.893
  Name = 
  5 active torsions:
  status: ('A' for Active; 'I' for Inactive)
    1  A    between atoms: C_4  and  C_13
    2  A    between atoms: C_14  and  C_24
    3  A    between atoms: C_16  and  C_22
    4  A    between atoms: C_16  and  C_29
    5  A    between atoms: N_26  and  C_37
                            x       y       z     vdW  Elec       q    Type
                         _______ _______ _______ _____ _____    ______ ____

>  <TORSDO>
F 5

$$$$
=
 OpenBabel10222420313D

 37 43  0  0  1  0  0  0  0  0999 V2000
  186.4440  177.7570  136.8320 N   0  0  2  0  0  0  0  0  0  0  0  0
  185.4850  177.3680  137.8650 C   0  0  1  0  0  3  0  0  0  0  0  0
  190.0380  177.4130  140.2180 N   0  0  0  0  0  0  0  0  0  0  0  0
  187.6120  176.8770  136.9270 C   0  0  2  0  0  3  0  0  0  0  0  0
  187.4090  178.2620  139.9730 C   0  0  0  0  0  0  0  0  0  0  0  0
  188.1680  177.9590  138.8250 C   0  0  0  0  0  0  0  0  0  0  0  0
  186.0200  178.6150  139.9230 N   0  0  0  0  0  2  0  0  0  0  0  0
  189.5060  177.5000  138.9700 C   0  0  0  0  0  0  0  0  0  0  0  0
  187.7050  178.2450  137.4360 C   0  0  2  0  0  3  0  0  0  0  0  0
  189.3380  177.7350  141.3380 C   0  0  0  0  0  0  0  0  0  0  0  0
  188.0080  178.1500  141.2270 C   0  0  0  0  0  3  0  0  0  0  0  0
  188.6770  176.9490  135.8670 C   0  0  0  0  0  2  0  0  0  0  0  0
  185.1490  178.5910  138.7500 C   0  0  2  0  0  3  0  0  0  0  0  0
  190.3690  177.0630  137.8220 C   0  0  0  0  0  3  0  0  0  0  0  0
  190.0400  176.8180  136.5280 C   0  0  0  0  0  3  0  0  0  0  0  0
  190.4440  175.2560  142.8440 O   0  0  0  0  0  0  0  0  0  0  0  0
  190.9960  176.7840  144.5650 N   0  0  0  0  0  0  0  0  0  0  0  0
  190.4670  176.4280  143.3020 C   0  0  0  0  0  0  0  0  0  0  0  0
  190.1800  178.6190  143.4570 N   0  0  0  0  0  0  0  0  0  0  0  0
  189.9720  177.6220  142.6620 C   0  0  0  0  0  0  0  0  0  0  0  0
  190.8140  178.0690  144.6230 C   0  0  0  0  0  3  0  0  0  0  0  0
  184.2940  176.7170  137.2170 C   0  0  0  0  0  0  0  0  0  0  0  0
  183.9410  177.0800  135.9150 C   0  0  0  0  0  3  0  0  0  0  0  0
  182.4530  175.1380  137.2670 C   0  0  0  0  0  3  0  0  0  0  0  0
  183.5470  175.7410  137.8920 C   0  0  0  0  0  3  0  0  0  0  0  0
  182.8460  176.4770  135.2910 C   0  0  0  0  0  3  0  0  0  0  0  0
  182.0900  175.4990  135.9590 C   0  0  0  0  0  0  0  0  0  0  0  0
  179.8860  175.6750  134.7430 C   0  0  0  0  0  1  0  0  0  0  0  0
  180.8570  173.4310  135.2070 C   0  0  0  0  0  1  0  0  0  0  0  0
  180.9630  174.8780  135.3140 N   0  0  0  0  0  0  0  0  0  0  0  0
  183.6960  178.6430  139.2220 C   0  0  0  0  0  2  0  0  0  0  0  0
  180.3600  181.0210  138.5480 C   0  0  0  0  0  2  0  0  0  0  0  0
  182.8680  179.5630  138.3420 C   0  0  1  0  0  3  0  0  0  0  0  0
  181.5470  178.9190  137.9930 C   0  0  0  0  0  3  0  0  0  0  0  0
  180.3950  179.6010  138.0430 C   0  0  0  0  0  3  0  0  0  0  0  0
  181.6480  181.6840  138.3430 N   0  0  0  0  0  2  0  0  0  0  0  0
  182.6670  180.9070  139.0450 C   0  0  0  0  0  2  0  0  0  0  0  0
  1  4  1  0  0  0  0
  1  9  1  0  0  0  0
  1  2  1  0  0  0  0
  2 13  1  0  0  0  0
  3 10  1  0  0  0  0
  4  9  1  0  0  0  0
  5 11  1  0  0  0  0
  6  8  1  0  0  0  0
  6  5  2  0  0  0  0
  7  5  1  0  0  0  0
  8  3  2  0  0  0  0
  9  6  1  0  0  0  0
 10 20  1  0  0  0  0
 11 10  2  0  0  0  0
 12 15  1  0  0  0  0
 12  4  1  0  0  0  0
 13 31  1  0  0  0  0
 13  7  1  0  0  0  0
 14  8  1  0  0  0  0
 15 14  2  0  0  0  0
 16 18  2  0  0  0  0
 17 21  2  0  0  0  0
 18 17  1  0  0  0  0
 19 21  1  0  0  0  0
 20 18  1  0  0  0  0
 20 19  2  0  0  0  0
 22  2  1  0  0  0  0
 22 25  1  0  0  0  0
 23 22  2  0  0  0  0
 24 25  2  0  0  0  0
 26 23  1  0  0  0  0
 26 27  2  0  0  0  0
 27 24  1  0  0  0  0
 28 30  1  0  0  0  0
 29 30  1  0  0  0  0
 30 27  1  0  0  0  0
 33 37  1  0  0  0  0
 33 31  1  0  0  0  0
 34 35  2  0  0  0  0
 34 33  1  0  0  0  0
 35 32  1  0  0  0  0
 36 32  1  0  0  0  0
 36 37  1  0  0  0  0
M  END
>  <MODEL>
6

>  <REMARK>
 VINA RESULT:      -7.5      3.618      7.198
  Name = 
  5 active torsions:
  status: ('A' for Active; 'I' for Inactive)
    1  A    between atoms: C_4  and  C_13
    2  A    between atoms: C_14  and  C_24
    3  A    between atoms: C_16  and  C_22
    4  A    between atoms: C_16  and  C_29
    5  A    between atoms: N_26  and  C_37
                            x       y       z     vdW  Elec       q    Type
                         _______ _______ _______ _____ _____    ______ ____

>  <TORSDO>
F 5

$$$$
=
 OpenBabel10222420313D

 37 43  0  0  1  0  0  0  0  0999 V2000
  180.5110  179.1140  140.3730 N   0  0  2  0  0  0  0  0  0  0  0  0
  181.7160  179.7580  139.8510 C   0  0  1  0  0  3  0  0  0  0  0  0
  182.8050  178.6390  144.7330 N   0  0  0  0  0  0  0  0  0  0  0  0
  180.2180  179.6770  141.6940 C   0  0  2  0  0  3  0  0  0  0  0  0
  183.3280  178.4680  142.0150 C   0  0  0  0  0  0  0  0  0  0  0  0
  182.0000  178.5410  142.4800 C   0  0  0  0  0  0  0  0  0  0  0  0
  183.6730  178.4720  140.6220 N   0  0  0  0  0  2  0  0  0  0  0  0
  181.7500  178.6550  143.8740 C   0  0  0  0  0  0  0  0  0  0  0  0
  180.8110  178.3430  141.6010 C   0  0  2  0  0  3  0  0  0  0  0  0
  184.0930  178.5320  144.3120 C   0  0  0  0  0  0  0  0  0  0  0  0
  184.3690  178.4600  142.9430 C   0  0  0  0  0  3  0  0  0  0  0  0
  178.9310  179.3130  142.3800 C   0  0  0  0  0  2  0  0  0  0  0  0
  182.7680  178.6820  139.4950 C   0  0  2  0  0  3  0  0  0  0  0  0
  180.3820  178.8310  144.4680 C   0  0  0  0  0  3  0  0  0  0  0  0
  179.2010  179.1160  143.8630 C   0  0  0  0  0  3  0  0  0  0  0  0
  186.8160  177.0430  144.2720 O   0  0  0  0  0  0  0  0  0  0  0  0
  187.1940  178.0730  146.3690 N   0  0  0  0  0  0  0  0  0  0  0  0
  186.4380  177.7960  145.2060 C   0  0  0  0  0  0  0  0  0  0  0  0
  185.1830  179.1750  146.4030 N   0  0  0  0  0  0  0  0  0  0  0  0
  185.1910  178.5170  145.2920 C   0  0  0  0  0  0  0  0  0  0  0  0
  186.4340  178.8800  147.0460 C   0  0  0  0  0  3  0  0  0  0  0  0
  181.3410  180.6690  138.7150 C   0  0  0  0  0  0  0  0  0  0  0  0
  180.5190  180.1850  137.6940 C   0  0  0  0  0  3  0  0  0  0  0  0
  181.4170  182.8310  137.6170 C   0  0  0  0  0  3  0  0  0  0  0  0
  181.7880  181.9970  138.6750 C   0  0  0  0  0  3  0  0  0  0  0  0
  180.1480  181.0190  136.6370 C   0  0  0  0  0  3  0  0  0  0  0  0
  180.5920  182.3520  136.5860 C   0  0  0  0  0  0  0  0  0  0  0  0
  179.1250  182.8470  134.5930 C   0  0  0  0  0  1  0  0  0  0  0  0
  180.8880  184.4740  135.2550 C   0  0  0  0  0  1  0  0  0  0  0  0
  180.2080  183.2100  135.4960 N   0  0  0  0  0  0  0  0  0  0  0  0
  183.6030  179.0070  138.2560 C   0  0  0  0  0  2  0  0  0  0  0  0
  186.3160  177.1530  135.7190 C   0  0  0  0  0  2  0  0  0  0  0  0
  184.5250  177.8540  137.9000 C   0  0  1  0  0  3  0  0  0  0  0  0
  184.0290  177.1360  136.6680 C   0  0  0  0  0  3  0  0  0  0  0  0
  184.8590  176.7710  135.6820 C   0  0  0  0  0  3  0  0  0  0  0  0
  186.7770  177.3360  137.0950 N   0  0  0  0  0  2  0  0  0  0  0  0
  185.9510  178.3740  137.7080 C   0  0  0  0  0  2  0  0  0  0  0  0
  1  9  1  0  0  0  0
  1  4  1  0  0  0  0
  2  1  1  0  0  0  0
  4 12  1  0  0  0  0
  5  6  2  0  0  0  0
  5 11  1  0  0  0  0
  6  8  1  0  0  0  0
  7  5  1  0  0  0  0
  8 14  1  0  0  0  0
  8  3  2  0  0  0  0
  9  4  1  0  0  0  0
  9  6  1  0  0  0  0
 10  3  1  0  0  0  0
 10 20  1  0  0  0  0
 11 10  2  0  0  0  0
 12 15  1  0  0  0  0
 13  2  1  0  0  0  0
 13  7  1  0  0  0  0
 15 14  2  0  0  0  0
 16 18  2  0  0  0  0
 17 21  2  0  0  0  0
 18 20  1  0  0  0  0
 18 17  1  0  0  0  0
 19 21  1  0  0  0  0
 20 19  2  0  0  0  0
 22  2  1  0  0  0  0
 23 22  2  0  0  0  0
 24 25  2  0  0  0  0
 25 22  1  0  0  0  0
 26 23  1  0  0  0  0
 27 26  2  0  0  0  0
 27 24  1  0  0  0  0
 28 30  1  0  0  0  0
 29 30  1  0  0  0  0
 30 27  1  0  0  0  0
 31 13  1  0  0  0  0
 32 36  1  0  0  0  0
 33 31  1  0  0  0  0
 34 33  1  0  0  0  0
 35 32  1  0  0  0  0
 35 34  2  0  0  0  0
 36 37  1  0  0  0  0
 37 33  1  0  0  0  0
M  END
>  <MODEL>
7

>  <REMARK>
 VINA RESULT:      -7.1      4.259      8.831
  Name = 
  5 active torsions:
  status: ('A' for Active; 'I' for Inactive)
    1  A    between atoms: C_4  and  C_13
    2  A    between atoms: C_14  and  C_24
    3  A    between atoms: C_16  and  C_22
    4  A    between atoms: C_16  and  C_29
    5  A    between atoms: N_26  and  C_37
                            x       y       z     vdW  Elec       q    Type
                         _______ _______ _______ _____ _____    ______ ____

>  <TORSDO>
F 5

$$$$
=
 OpenBabel10222420313D

 37 43  0  0  1  0  0  0  0  0999 V2000
  180.6400  178.9700  140.3650 N   0  0  2  0  0  0  0  0  0  0  0  0
  181.7900  179.5470  139.6700 C   0  0  1  0  0  3  0  0  0  0  0  0
  183.4960  178.4200  144.3710 N   0  0  0  0  0  0  0  0  0  0  0  0
  180.5630  179.5590  141.7050 C   0  0  2  0  0  3  0  0  0  0  0  0
  183.6250  178.1970  141.6090 C   0  0  0  0  0  0  0  0  0  0  0  0
  182.3800  178.3420  142.2530 C   0  0  0  0  0  0  0  0  0  0  0  0
  183.7710  178.1710  140.1820 N   0  0  0  0  0  2  0  0  0  0  0  0
  182.3340  178.4820  143.6670 C   0  0  0  0  0  0  0  0  0  0  0  0
  181.0710  178.1960  141.5520 C   0  0  2  0  0  3  0  0  0  0  0  0
  184.7060  178.2440  143.7750 C   0  0  0  0  0  0  0  0  0  0  0  0
  184.7830  178.1450  142.3830 C   0  0  0  0  0  3  0  0  0  0  0  0
  179.3680  179.2680  142.5700 C   0  0  0  0  0  2  0  0  0  0  0  0
  182.7280  178.4160  139.1890 C   0  0  2  0  0  3  0  0  0  0  0  0
  181.0730  178.7330  144.4420 C   0  0  0  0  0  3  0  0  0  0  0  0
  179.8340  179.0720  144.0040 C   0  0  0  0  0  3  0  0  0  0  0  0
  185.3170  179.4140  146.5840 O   0  0  0  0  0  0  0  0  0  0  0  0
  187.4610  178.4510  146.3100 N   0  0  0  0  0  0  0  0  0  0  0  0
  186.1420  178.7540  145.9000 C   0  0  0  0  0  0  0  0  0  0  0  0
  187.0150  177.5840  144.2340 N   0  0  0  0  0  0  0  0  0  0  0  0
  185.9280  178.1830  144.5930 C   0  0  0  0  0  0  0  0  0  0  0  0
  187.9430  177.7670  145.3160 C   0  0  0  0  0  3  0  0  0  0  0  0
  181.3050  180.4650  138.5830 C   0  0  0  0  0  0  0  0  0  0  0  0
  181.7320  181.7960  138.5710 C   0  0  0  0  0  3  0  0  0  0  0  0
  180.0190  180.8710  136.5660 C   0  0  0  0  0  3  0  0  0  0  0  0
  180.4470  180.0040  137.5750 C   0  0  0  0  0  3  0  0  0  0  0  0
  181.3040  182.6620  137.5630 C   0  0  0  0  0  3  0  0  0  0  0  0
  180.4420  182.2100  136.5480 C   0  0  0  0  0  0  0  0  0  0  0  0
  180.6120  184.4140  135.3320 C   0  0  0  0  0  1  0  0  0  0  0  0
  178.9320  182.7310  134.5970 C   0  0  0  0  0  1  0  0  0  0  0  0
  180.0020  183.1030  135.5090 N   0  0  0  0  0  0  0  0  0  0  0  0
  183.3960  178.6860  137.8400 C   0  0  0  0  0  2  0  0  0  0  0  0
  181.1880  176.1990  135.3550 C   0  0  0  0  0  2  0  0  0  0  0  0
  183.2760  177.4840  136.9190 C   0  0  1  0  0  3  0  0  0  0  0  0
  182.3630  176.4420  137.5210 C   0  0  0  0  0  3  0  0  0  0  0  0
  181.4310  175.8150  136.7920 C   0  0  0  0  0  3  0  0  0  0  0  0
  182.3920  176.7700  134.7530 N   0  0  0  0  0  2  0  0  0  0  0  0
  182.7790  177.9360  135.5440 C   0  0  0  0  0  2  0  0  0  0  0  0
  1  9  1  0  0  0  0
  1  4  1  0  0  0  0
  2  1  1  0  0  0  0
  4 12  1  0  0  0  0
  5  6  2  0  0  0  0
  5 11  1  0  0  0  0
  6  8  1  0  0  0  0
  7  5  1  0  0  0  0
  8  3  2  0  0  0  0
  8 14  1  0  0  0  0
  9  4  1  0  0  0  0
  9  6  1  0  0  0  0
 10  3  1  0  0  0  0
 10 20  1  0  0  0  0
 11 10  2  0  0  0  0
 12 15  1  0  0  0  0
 13  2  1  0  0  0  0
 13  7  1  0  0  0  0
 15 14  2  0  0  0  0
 18 17  1  0  0  0  0
 18 16  2  0  0  0  0
 19 20  2  0  0  0  0
 19 21  1  0  0  0  0
 20 18  1  0  0  0  0
 21 17  2  0  0  0  0
 22  2  1  0  0  0  0
 23 22  1  0  0  0  0
 24 25  1  0  0  0  0
 25 22  2  0  0  0  0
 26 23  2  0  0  0  0
 27 24  2  0  0  0  0
 27 26  1  0  0  0  0
 28 30  1  0  0  0  0
 29 30  1  0  0  0  0
 30 27  1  0  0  0  0
 31 13  1  0  0  0  0
 32 35  1  0  0  0  0
 33 34  1  0  0  0  0
 33 31  1  0  0  0  0
 35 34  2  0  0  0  0
 36 32  1  0  0  0  0
 36 37  1  0  0  0  0
 37 33  1  0  0  0  0
M  END
>  <MODEL>
8

>  <REMARK>
 VINA RESULT:      -7.1      5.509      8.843
  Name = 
  5 active torsions:
  status: ('A' for Active; 'I' for Inactive)
    1  A    between atoms: C_4  and  C_13
    2  A    between atoms: C_14  and  C_24
    3  A    between atoms: C_16  and  C_22
    4  A    between atoms: C_16  and  C_29
    5  A    between atoms: N_26  and  C_37
                            x       y       z     vdW  Elec       q    Type
                         _______ _______ _______ _____ _____    ______ ____

>  <TORSDO>
F 5

$$$$
=
 OpenBabel10222420313D

 37 43  0  0  1  0  0  0  0  0999 V2000
  183.9830  177.3160  137.8480 N   0  0  2  0  0  0  0  0  0  0  0  0
  184.8460  178.3290  138.4560 C   0  0  1  0  0  3  0  0  0  0  0  0
  180.8040  180.9170  136.6540 N   0  0  0  0  0  0  0  0  0  0  0  0
  183.5200  177.8160  136.5510 C   0  0  2  0  0  3  0  0  0  0  0  0
  182.4920  180.1570  138.7190 C   0  0  0  0  0  0  0  0  0  0  0  0
  182.2010  179.2590  137.6720 C   0  0  0  0  0  0  0  0  0  0  0  0
  183.4280  179.8630  139.7660 N   0  0  0  0  0  2  0  0  0  0  0  0
  181.3550  179.6750  136.6080 C   0  0  0  0  0  0  0  0  0  0  0  0
  182.6010  177.8220  137.6880 C   0  0  2  0  0  3  0  0  0  0  0  0
  181.0410  181.7870  137.6710 C   0  0  0  0  0  0  0  0  0  0  0  0
  181.9010  181.4200  138.7100 C   0  0  0  0  0  3  0  0  0  0  0  0
  182.7560  176.8980  135.6380 C   0  0  0  0  0  2  0  0  0  0  0  0
  184.3060  178.6990  139.8570 C   0  0  2  0  0  3  0  0  0  0  0  0
  181.0550  178.8330  135.4010 C   0  0  0  0  0  3  0  0  0  0  0  0
  181.6340  177.6820  134.9760 C   0  0  0  0  0  3  0  0  0  0  0  0
  182.3050  184.6180  137.5250 O   0  0  0  0  0  0  0  0  0  0  0  0
  180.0770  185.4110  137.6140 N   0  0  0  0  0  0  0  0  0  0  0  0
  181.0670  184.4010  137.5930 C   0  0  0  0  0  0  0  0  0  0  0  0
  179.1370  183.3210  137.7230 N   0  0  0  0  0  0  0  0  0  0  0  0
  180.4120  183.1180  137.6650 C   0  0  0  0  0  0  0  0  0  0  0  0
  178.9630  184.7470  137.6900 C   0  0  0  0  0  3  0  0  0  0  0  0
  186.2690  177.8460  138.4380 C   0  0  0  0  0  0  0  0  0  0  0  0
  186.6110  176.7570  137.6330 C   0  0  0  0  0  3  0  0  0  0  0  0
  188.5780  178.0240  139.1610 C   0  0  0  0  0  3  0  0  0  0  0  0
  187.2580  178.4810  139.2020 C   0  0  0  0  0  3  0  0  0  0  0  0
  187.9300  176.3000  137.5920 C   0  0  0  0  0  3  0  0  0  0  0  0
  188.9290  176.9280  138.3560 C   0  0  0  0  0  0  0  0  0  0  0  0
  190.7790  175.6670  137.1920 C   0  0  0  0  0  1  0  0  0  0  0  0
  191.2250  176.7540  139.3860 C   0  0  0  0  0  1  0  0  0  0  0  0
  190.2890  176.4570  138.3120 N   0  0  0  0  0  0  0  0  0  0  0  0
  185.3940  178.9910  140.8910 C   0  0  0  0  0  2  0  0  0  0  0  0
  185.6030  178.7350  145.0290 C   0  0  0  0  0  2  0  0  0  0  0  0
  185.1100  178.2750  142.2000 C   0  0  1  0  0  3  0  0  0  0  0  0
  186.3980  177.8430  142.8600 C   0  0  0  0  0  3  0  0  0  0  0  0
  186.6090  178.0110  144.1720 C   0  0  0  0  0  3  0  0  0  0  0  0
  184.2570  178.6250  144.4660 N   0  0  0  0  0  2  0  0  0  0  0  0
  184.2900  179.1850  143.1170 C   0  0  0  0  0  2  0  0  0  0  0  0
  1  2  1  0  0  0  0
  2 13  1  0  0  0  0
  3 10  1  0  0  0  0
  4  9  1  0  0  0  0
  4  1  1  0  0  0  0
  5  7  1  0  0  0  0
  6  9  1  0  0  0  0
  6  5  2  0  0  0  0
  7 13  1  0  0  0  0
  8  3  2  0  0  0  0
  8  6  1  0  0  0  0
  9  1  1  0  0  0  0
 10 11  2  0  0  0  0
 11  5  1  0  0  0  0
 12  4  1  0  0  0  0
 13 31  1  0  0  0  0
 14  8  1  0  0  0  0
 15 14  2  0  0  0  0
 15 12  1  0  0  0  0
 16 18  2  0  0  0  0
 17 21  2  0  0  0  0
 18 17  1  0  0  0  0
 18 20  1  0  0  0  0
 20 10  1  0  0  0  0
 20 19  2  0  0  0  0
 21 19  1  0  0  0  0
 22  2  1  0  0  0  0
 22 25  1  0  0  0  0
 23 22  2  0  0  0  0
 24 25  2  0  0  0  0
 26 23  1  0  0  0  0
 26 27  2  0  0  0  0
 27 24  1  0  0  0  0
 28 30  1  0  0  0  0
 30 27  1  0  0  0  0
 30 29  1  0  0  0  0
 31 33  1  0  0  0  0
 33 34  1  0  0  0  0
 33 37  1  0  0  0  0
 34 35  2  0  0  0  0
 35 32  1  0  0  0  0
 36 32  1  0  0  0  0
 37 36  1  0  0  0  0
M  END
>  <MODEL>
9

>  <REMARK>
 VINA RESULT:      -6.9      4.670      7.816
  Name = 
  5 active torsions:
  status: ('A' for Active; 'I' for Inactive)
    1  A    between atoms: C_4  and  C_13
    2  A    between atoms: C_14  and  C_24
    3  A    between atoms: C_16  and  C_22
    4  A    between atoms: C_16  and  C_29
    5  A    between atoms: N_26  and  C_37
                            x       y       z     vdW  Elec       q    Type
                         _______ _______ _______ _____ _____    ______ ____

>  <TORSDO>
F 5

$$$$
