=
 OpenBabel10222418223D

 34 38  0  0  1  0  0  0  0  0999 V2000
  190.0540  174.6160  136.8780 C   0  0  1  0  0  0  0  0  0  0  0  0
  191.1780  176.0280  138.7000 C   0  0  0  0  0  3  0  0  0  0  0  0
  188.1920  174.2330  135.3520 C   0  0  0  0  0  2  0  0  0  0  0  0
  188.9050  174.7590  137.6910 O   0  0  0  0  0  0  0  0  0  0  0  0
  190.2220  173.2220  136.2600 C   0  0  1  0  0  3  0  0  0  0  0  0
  188.8010  175.1930  136.3520 C   0  0  1  0  0  0  0  0  0  0  0  0
  190.5680  177.1230  139.1720 C   0  0  0  0  0  0  0  0  0  0  0  0
  187.8670  177.2160  136.8140 C   0  0  0  0  0  2  0  0  0  0  0  0
  188.8860  176.5730  136.0930 O   0  0  0  0  0  0  0  0  0  0  0  0
  191.2000  175.5950  137.2600 C   0  0  1  0  0  3  0  0  0  0  0  0
  188.1310  172.0820  136.3760 O   0  0  0  0  0  1  0  0  0  0  0  0
  189.7780  178.0200  138.2630 C   0  0  0  0  0  2  0  0  0  0  0  0
  188.9060  172.9040  135.5580 C   0  0  1  0  0  3  0  0  0  0  0  0
  188.3220  177.5710  138.2310 C   0  0  0  0  0  2  0  0  0  0  0  0
  191.2320  173.2270  135.2960 O   0  0  0  0  0  1  0  0  0  0  0  0
  194.4650  175.0100  135.3330 C   0  0  0  0  0  3  0  0  0  0  0  0
  195.1670  174.2310  136.2570 C   0  0  0  0  0  0  0  0  0  0  0  0
  193.1790  175.4720  135.6240 C   0  0  0  0  0  0  0  0  0  0  0  0
  194.5780  173.9090  137.4870 C   0  0  0  0  0  0  0  0  0  0  0  0
  196.4440  173.7830  135.9420 O   0  0  0  0  0  1  0  0  0  0  0  0
  192.5810  175.1480  136.8650 C   0  0  0  0  0  0  0  0  0  0  0  0
  193.2920  174.3680  137.7830 C   0  0  0  0  0  3  0  0  0  0  0  0
  195.3040  173.0810  138.4900 C   0  0  0  0  0  1  0  0  0  0  0  0
  192.4830  176.3070  134.6020 C   0  0  0  0  0  1  0  0  0  0  0  0
  190.6090  177.4330  140.6260 C   0  0  0  0  0  0  0  0  0  0  0  0
  191.7130  177.7690  141.1360 O   0  0  0  0  0  0  0  0  0  0  0  0
  185.9290  179.3650  141.9210 Cl  0  0  0  0  0  0  0  0  0  0  0  0
  189.2870  176.3490  142.4910 C   0  0  0  0  0  0  0  0  0  0  0  0
  187.2170  178.2000  142.1390 C   0  0  0  0  0  0  0  0  0  0  0  0
  190.3020  175.4210  142.7010 O   0  0  0  0  0  1  0  0  0  0  0  0
  188.1400  176.2850  143.2890 C   0  0  0  0  0  3  0  0  0  0  0  0
  188.3570  178.2660  141.3370 C   0  0  0  0  0  3  0  0  0  0  0  0
  189.4100  177.3510  141.5040 C   0  0  0  0  0  0  0  0  0  0  0  0
  187.1070  177.2090  143.1140 C   0  0  0  0  0  3  0  0  0  0  0  0
  1 10  1  0  0  0  0
  1  4  1  1  0  0  0
  2  7  2  0  0  0  0
  3 13  1  0  0  0  0
  5 15  1  6  0  0  0
  5  1  1  0  0  0  0
  6  3  1  6  0  0  0
  6  1  1  0  0  0  0
  6  4  1  0  0  0  0
  7 25  1  0  0  0  0
  8 14  1  0  0  0  0
  9  6  1  0  0  0  0
  9  8  1  0  0  0  0
 10 21  1  1  0  0  0
 10  2  1  0  0  0  0
 12  7  1  0  0  0  0
 13  5  1  0  0  0  0
 13 11  1  1  0  0  0
 14 12  1  0  0  0  0
 16 18  2  0  0  0  0
 16 17  1  0  0  0  0
 17 19  2  0  0  0  0
 18 21  1  0  0  0  0
 19 22  1  0  0  0  0
 19 23  1  0  0  0  0
 20 17  1  0  0  0  0
 21 22  2  0  0  0  0
 24 18  1  0  0  0  0
 25 26  2  0  0  0  0
 25 33  1  0  0  0  0
 27 29  1  0  0  0  0
 28 30  1  0  0  0  0
 28 31  1  0  0  0  0
 29 34  1  0  0  0  0
 32 33  1  0  0  0  0
 32 29  2  0  0  0  0
 33 28  2  0  0  0  0
 34 31  2  0  0  0  0
M  END
>  <MODEL>
1

>  <REMARK>
 VINA RESULT:      -7.6      0.000      0.000
  Name = 
  3 active torsions:
  status: ('A' for Active; 'I' for Inactive)
    1  A    between atoms: C_8  and  C_24
    2  A    between atoms: C_19  and  C_27
    3  A    between atoms: C_24  and  C_30
                            x       y       z     vdW  Elec       q    Type
                         _______ _______ _______ _____ _____    ______ ____

>  <TORSDO>
F 3

$$$$
=
 OpenBabel10222418223D

 34 38  0  0  1  0  0  0  0  0999 V2000
  181.3240  175.6460  138.6420 C   0  0  1  0  0  0  0  0  0  0  0  0
  183.3070  177.2690  138.5330 C   0  0  0  0  0  3  0  0  0  0  0  0
  178.9310  175.2500  138.8840 C   0  0  0  0  0  2  0  0  0  0  0  0
  180.9600  176.4080  139.7760 O   0  0  0  0  0  0  0  0  0  0  0  0
  181.1030  174.1360  138.7980 C   0  0  1  0  0  3  0  0  0  0  0  0
  180.0070  176.3060  138.7400 C   0  0  1  0  0  0  0  0  0  0  0  0
  183.1050  178.5860  138.6770 C   0  0  0  0  0  0  0  0  0  0  0  0
  179.5190  178.5250  138.6230 C   0  0  0  0  0  2  0  0  0  0  0  0
  179.8600  177.3950  137.8630 O   0  0  0  0  0  0  0  0  0  0  0  0
  182.4140  176.3290  137.7690 C   0  0  1  0  0  3  0  0  0  0  0  0
  179.6130  173.7690  140.6230 O   0  0  0  0  0  1  0  0  0  0  0  0
  181.8870  179.2480  138.1020 C   0  0  0  0  0  2  0  0  0  0  0  0
  179.6550  173.9590  139.2410 C   0  0  1  0  0  3  0  0  0  0  0  0
  180.7650  179.2530  139.1330 C   0  0  0  0  0  2  0  0  0  0  0  0
  181.2600  173.4850  137.5730 O   0  0  0  0  0  1  0  0  0  0  0  0
  183.8260  174.3150  134.8250 C   0  0  0  0  0  3  0  0  0  0  0  0
  184.8390  173.6010  135.4710 C   0  0  0  0  0  0  0  0  0  0  0  0
  183.0220  175.2090  135.5370 C   0  0  0  0  0  0  0  0  0  0  0  0
  185.0540  173.7830  136.8440 C   0  0  0  0  0  0  0  0  0  0  0  0
  185.6240  172.7170  134.7400 O   0  0  0  0  0  1  0  0  0  0  0  0
  183.2360  175.3940  136.9240 C   0  0  0  0  0  0  0  0  0  0  0  0
  184.2530  174.6750  137.5600 C   0  0  0  0  0  3  0  0  0  0  0  0
  186.1270  173.0360  137.5570 C   0  0  0  0  0  1  0  0  0  0  0  0
  181.9620  175.9480  134.7920 C   0  0  0  0  0  1  0  0  0  0  0  0
  184.0590  179.4040  139.4720 C   0  0  0  0  0  0  0  0  0  0  0  0
  184.5220  180.4570  138.9530 O   0  0  0  0  0  0  0  0  0  0  0  0
  182.7710  178.6450  144.4800 Cl  0  0  0  0  0  0  0  0  0  0  0  0
  185.8330  178.6620  141.1150 C   0  0  0  0  0  0  0  0  0  0  0  0
  183.9500  178.6450  143.1870 C   0  0  0  0  0  0  0  0  0  0  0  0
  186.7970  178.6700  140.1130 O   0  0  0  0  0  1  0  0  0  0  0  0
  186.2110  178.2950  142.4110 C   0  0  0  0  0  3  0  0  0  0  0  0
  183.5650  179.0070  141.8950 C   0  0  0  0  0  3  0  0  0  0  0  0
  184.4960  179.0290  140.8440 C   0  0  0  0  0  0  0  0  0  0  0  0
  185.2730  178.2880  143.4450 C   0  0  0  0  0  3  0  0  0  0  0  0
  1  6  1  0  0  0  0
  1  5  1  0  0  0  0
  1  4  1  1  0  0  0
  2  7  2  0  0  0  0
  3 13  1  0  0  0  0
  5 15  1  6  0  0  0
  5 13  1  0  0  0  0
  6  3  1  1  0  0  0
  6  4  1  0  0  0  0
  7 25  1  0  0  0  0
  8 14  1  0  0  0  0
  9  8  1  0  0  0  0
  9  6  1  0  0  0  0
 10 21  1  1  0  0  0
 10  2  1  0  0  0  0
 10  1  1  0  0  0  0
 12  7  1  0  0  0  0
 12 14  1  0  0  0  0
 13 11  1  1  0  0  0
 16 17  2  0  0  0  0
 16 18  1  0  0  0  0
 17 19  1  0  0  0  0
 18 21  2  0  0  0  0
 19 23  1  0  0  0  0
 19 22  2  0  0  0  0
 20 17  1  0  0  0  0
 21 22  1  0  0  0  0
 24 18  1  0  0  0  0
 25 33  1  0  0  0  0
 26 25  2  0  0  0  0
 28 31  1  0  0  0  0
 29 34  1  0  0  0  0
 29 27  1  0  0  0  0
 30 28  1  0  0  0  0
 31 34  2  0  0  0  0
 32 29  2  0  0  0  0
 33 28  2  0  0  0  0
 33 32  1  0  0  0  0
M  END
>  <MODEL>
2

>  <REMARK>
 VINA RESULT:      -7.4      5.977      8.335
  Name = 
  3 active torsions:
  status: ('A' for Active; 'I' for Inactive)
    1  A    between atoms: C_8  and  C_24
    2  A    between atoms: C_19  and  C_27
    3  A    between atoms: C_24  and  C_30
                            x       y       z     vdW  Elec       q    Type
                         _______ _______ _______ _____ _____    ______ ____

>  <TORSDO>
F 3

$$$$
=
 OpenBabel10222418223D

 34 38  0  0  1  0  0  0  0  0999 V2000
  181.2470  175.9120  138.8630 C   0  0  1  0  0  0  0  0  0  0  0  0
  182.9640  177.4360  140.0060 C   0  0  0  0  0  3  0  0  0  0  0  0
  178.9330  175.2330  138.5070 C   0  0  0  0  0  2  0  0  0  0  0  0
  180.7190  175.7840  140.1690 O   0  0  0  0  0  0  0  0  0  0  0  0
  181.2510  174.6090  138.0520 C   0  0  1  0  0  3  0  0  0  0  0  0
  179.8430  176.2490  139.1660 C   0  0  1  0  0  0  0  0  0  0  0  0
  182.5580  178.3650  140.8830 C   0  0  0  0  0  0  0  0  0  0  0  0
  179.0290  178.0200  140.3400 C   0  0  0  0  0  2  0  0  0  0  0  0
  179.5730  177.6280  139.1070 O   0  0  0  0  0  0  0  0  0  0  0  0
  182.2610  177.0830  138.7240 C   0  0  1  0  0  3  0  0  0  0  0  0
  179.7510  173.0680  139.0820 O   0  0  0  0  0  1  0  0  0  0  0  0
  181.2820  179.1250  140.6680 C   0  0  0  0  0  2  0  0  0  0  0  0
  179.8280  174.0660  138.1090 C   0  0  1  0  0  3  0  0  0  0  0  0
  180.1250  178.3950  141.3400 C   0  0  0  0  0  2  0  0  0  0  0  0
  181.5610  174.8610  136.7140 O   0  0  0  0  0  1  0  0  0  0  0  0
  184.0150  177.2920  135.3190 C   0  0  0  0  0  3  0  0  0  0  0  0
  185.1880  176.5850  135.5950 C   0  0  0  0  0  0  0  0  0  0  0  0
  183.0450  177.4760  136.3080 C   0  0  0  0  0  0  0  0  0  0  0  0
  185.3970  176.0540  136.8760 C   0  0  0  0  0  0  0  0  0  0  0  0
  186.1360  176.4150  134.5940 O   0  0  0  0  0  1  0  0  0  0  0  0
  183.2530  176.9400  137.6010 C   0  0  0  0  0  0  0  0  0  0  0  0
  184.4300  176.2340  137.8680 C   0  0  0  0  0  3  0  0  0  0  0  0
  186.6380  175.2970  137.1980 C   0  0  0  0  0  1  0  0  0  0  0  0
  181.8180  178.2460  135.9550 C   0  0  0  0  0  1  0  0  0  0  0  0
  183.3380  178.6100  142.1240 C   0  0  0  0  0  0  0  0  0  0  0  0
  182.7150  178.9580  143.1650 O   0  0  0  0  0  0  0  0  0  0  0  0
  187.5170  176.8620  144.7320 Cl  0  0  0  0  0  0  0  0  0  0  0  0
  185.6490  178.9630  141.1550 C   0  0  0  0  0  0  0  0  0  0  0  0
  186.8010  177.6660  143.3520 C   0  0  0  0  0  0  0  0  0  0  0  0
  185.1100  179.6230  140.0550 O   0  0  0  0  0  1  0  0  0  0  0  0
  187.0360  178.8030  141.2330 C   0  0  0  0  0  3  0  0  0  0  0  0
  185.4150  177.8180  143.2780 C   0  0  0  0  0  3  0  0  0  0  0  0
  184.8190  178.4730  142.1880 C   0  0  0  0  0  0  0  0  0  0  0  0
  187.6110  178.1570  142.3290 C   0  0  0  0  0  3  0  0  0  0  0  0
  1  6  1  0  0  0  0
  1  4  1  1  0  0  0
  2  7  2  0  0  0  0
  5 15  1  6  0  0  0
  5 13  1  0  0  0  0
  5  1  1  0  0  0  0
  6  3  1  6  0  0  0
  6  4  1  0  0  0  0
  7 25  1  0  0  0  0
  8 14  1  0  0  0  0
  9  6  1  0  0  0  0
  9  8  1  0  0  0  0
 10 21  1  6  0  0  0
 10  1  1  0  0  0  0
 10  2  1  0  0  0  0
 12  7  1  0  0  0  0
 12 14  1  0  0  0  0
 13  3  1  0  0  0  0
 13 11  1  1  0  0  0
 16 17  2  0  0  0  0
 16 18  1  0  0  0  0
 17 19  1  0  0  0  0
 18 21  2  0  0  0  0
 19 23  1  0  0  0  0
 19 22  2  0  0  0  0
 20 17  1  0  0  0  0
 21 22  1  0  0  0  0
 24 18  1  0  0  0  0
 25 33  1  0  0  0  0
 25 26  2  0  0  0  0
 28 31  2  0  0  0  0
 28 33  1  0  0  0  0
 29 27  1  0  0  0  0
 30 28  1  0  0  0  0
 31 34  1  0  0  0  0
 32 29  1  0  0  0  0
 33 32  2  0  0  0  0
 34 29  2  0  0  0  0
M  END
>  <MODEL>
3

>  <REMARK>
 VINA RESULT:      -7.0      5.882      8.496
  Name = 
  3 active torsions:
  status: ('A' for Active; 'I' for Inactive)
    1  A    between atoms: C_8  and  C_24
    2  A    between atoms: C_19  and  C_27
    3  A    between atoms: C_24  and  C_30
                            x       y       z     vdW  Elec       q    Type
                         _______ _______ _______ _____ _____    ______ ____

>  <TORSDO>
F 3

$$$$
=
 OpenBabel10222418223D

 34 38  0  0  1  0  0  0  0  0999 V2000
  184.8580  176.1220  137.2430 C   0  0  1  0  0  0  0  0  0  0  0  0
  186.1210  177.6650  138.8560 C   0  0  0  0  0  3  0  0  0  0  0  0
  182.7890  175.4650  136.1350 C   0  0  0  0  0  2  0  0  0  0  0  0
  183.9100  176.0560  138.2900 O   0  0  0  0  0  0  0  0  0  0  0  0
  185.1030  174.7870  136.5270 C   0  0  1  0  0  3  0  0  0  0  0  0
  183.4450  176.4930  137.0320 C   0  0  1  0  0  0  0  0  0  0  0  0
  185.4650  178.6350  139.5070 C   0  0  0  0  0  0  0  0  0  0  0  0
  182.3290  178.3230  137.7940 C   0  0  0  0  0  2  0  0  0  0  0  0
  183.2520  177.8720  136.8370 O   0  0  0  0  0  0  0  0  0  0  0  0
  185.8910  177.2700  137.4220 C   0  0  1  0  0  3  0  0  0  0  0  0
  183.2960  173.3140  137.0270 O   0  0  0  0  0  1  0  0  0  0  0  0
  184.3630  179.4050  138.8410 C   0  0  0  0  0  2  0  0  0  0  0  0
  183.7320  174.2690  136.1080 C   0  0  1  0  0  3  0  0  0  0  0  0
  183.0250  178.7220  139.0970 C   0  0  0  0  0  2  0  0  0  0  0  0
  185.8610  174.9780  135.3700 O   0  0  0  0  0  1  0  0  0  0  0  0
  188.7020  177.2800  134.8120 C   0  0  0  0  0  3  0  0  0  0  0  0
  189.7010  176.6020  135.5150 C   0  0  0  0  0  0  0  0  0  0  0  0
  187.4560  177.5170  135.3990 C   0  0  0  0  0  0  0  0  0  0  0  0
  189.4550  176.1550  136.8210 C   0  0  0  0  0  0  0  0  0  0  0  0
  190.9310  176.3780  134.9090 O   0  0  0  0  0  1  0  0  0  0  0  0
  187.2040  177.0660  136.7160 C   0  0  0  0  0  0  0  0  0  0  0  0
  188.2110  176.3890  137.4110 C   0  0  0  0  0  3  0  0  0  0  0  0
  190.5020  175.4300  137.5920 C   0  0  0  0  0  1  0  0  0  0  0  0
  186.4320  178.2530  134.6010 C   0  0  0  0  0  1  0  0  0  0  0  0
  185.7780  178.9190  140.9330 C   0  0  0  0  0  0  0  0  0  0  0  0
  185.0590  179.7530  141.5500 O   0  0  0  0  0  0  0  0  0  0  0  0
  190.7850  177.4220  140.8980 Cl  0  0  0  0  0  0  0  0  0  0  0  0
  186.7550  177.7930  142.9770 C   0  0  0  0  0  0  0  0  0  0  0  0
  189.2380  177.5680  141.7020 C   0  0  0  0  0  0  0  0  0  0  0  0
  185.5330  177.8780  143.6350 O   0  0  0  0  0  1  0  0  0  0  0  0
  187.8390  177.2070  143.6390 C   0  0  0  0  0  3  0  0  0  0  0  0
  188.1610  178.1580  141.0370 C   0  0  0  0  0  3  0  0  0  0  0  0
  186.9060  178.2730  141.6570 C   0  0  0  0  0  0  0  0  0  0  0  0
  189.0770  177.0940  143.0030 C   0  0  0  0  0  3  0  0  0  0  0  0
  1 10  1  0  0  0  0
  1  4  1  1  0  0  0
  2  7  2  0  0  0  0
  5 15  1  6  0  0  0
  5  1  1  0  0  0  0
  6  3  1  6  0  0  0
  6  1  1  0  0  0  0
  6  4  1  0  0  0  0
  7 25  1  0  0  0  0
  8 14  1  0  0  0  0
  9  6  1  0  0  0  0
  9  8  1  0  0  0  0
 10 21  1  1  0  0  0
 10  2  1  0  0  0  0
 12 14  1  0  0  0  0
 12  7  1  0  0  0  0
 13  3  1  0  0  0  0
 13  5  1  0  0  0  0
 13 11  1  1  0  0  0
 16 18  2  0  0  0  0
 16 17  1  0  0  0  0
 17 19  2  0  0  0  0
 18 21  1  0  0  0  0
 19 22  1  0  0  0  0
 19 23  1  0  0  0  0
 20 17  1  0  0  0  0
 21 22  2  0  0  0  0
 24 18  1  0  0  0  0
 25 26  2  0  0  0  0
 25 33  1  0  0  0  0
 27 29  1  0  0  0  0
 28 30  1  0  0  0  0
 28 31  1  0  0  0  0
 29 34  1  0  0  0  0
 32 33  1  0  0  0  0
 32 29  2  0  0  0  0
 33 28  2  0  0  0  0
 34 31  2  0  0  0  0
M  END
>  <MODEL>
4

>  <REMARK>
 VINA RESULT:      -6.8      3.554      5.206
  Name = 
  3 active torsions:
  status: ('A' for Active; 'I' for Inactive)
    1  A    between atoms: C_8  and  C_24
    2  A    between atoms: C_19  and  C_27
    3  A    between atoms: C_24  and  C_30
                            x       y       z     vdW  Elec       q    Type
                         _______ _______ _______ _____ _____    ______ ____

>  <TORSDO>
F 3

$$$$
=
 OpenBabel10222418223D

 34 38  0  0  1  0  0  0  0  0999 V2000
  189.4860  177.2860  138.2460 C   0  0  1  0  0  0  0  0  0  0  0  0
  191.8610  176.3520  138.4980 C   0  0  0  0  0  3  0  0  0  0  0  0
  187.3210  177.2760  137.1260 C   0  0  0  0  0  2  0  0  0  0  0  0
  189.8080  177.3160  136.8690 O   0  0  0  0  0  0  0  0  0  0  0  0
  188.6890  178.5030  138.7350 C   0  0  1  0  0  3  0  0  0  0  0  0
  188.6620  176.5830  137.2440 C   0  0  1  0  0  0  0  0  0  0  0  0
  192.2920  175.3850  137.6770 C   0  0  0  0  0  0  0  0  0  0  0  0
  189.1640  174.7060  136.0590 C   0  0  0  0  0  2  0  0  0  0  0  0
  188.7650  175.1820  137.3180 O   0  0  0  0  0  0  0  0  0  0  0  0
  190.4810  176.4410  139.0900 C   0  0  1  0  0  3  0  0  0  0  0  0
  187.7450  179.6040  136.8440 O   0  0  0  0  0  1  0  0  0  0  0  0
  191.3710  174.2900  137.2220 C   0  0  0  0  0  2  0  0  0  0  0  0
  187.4870  178.6280  137.8060 C   0  0  1  0  0  3  0  0  0  0  0  0
  190.6870  174.6950  135.9220 C   0  0  0  0  0  2  0  0  0  0  0  0
  188.2110  178.2920  140.0300 O   0  0  0  0  0  1  0  0  0  0  0  0
  191.6580  177.7700  142.4910 C   0  0  0  0  0  3  0  0  0  0  0  0
  190.5670  177.4190  143.2900 C   0  0  0  0  0  0  0  0  0  0  0  0
  191.6640  177.4710  141.1250 C   0  0  0  0  0  0  0  0  0  0  0  0
  189.4670  176.7630  142.7200 C   0  0  0  0  0  0  0  0  0  0  0  0
  190.5860  177.7270  144.6450 O   0  0  0  0  0  1  0  0  0  0  0  0
  190.5560  176.8080  140.5470 C   0  0  0  0  0  0  0  0  0  0  0  0
  189.4690  176.4610  141.3560 C   0  0  0  0  0  3  0  0  0  0  0  0
  188.2910  176.3780  143.5490 C   0  0  0  0  0  1  0  0  0  0  0  0
  192.8540  177.8780  140.3220 C   0  0  0  0  0  1  0  0  0  0  0  0
  193.6810  175.4200  137.1470 C   0  0  0  0  0  0  0  0  0  0  0  0
  194.0850  176.4810  136.5960 O   0  0  0  0  0  0  0  0  0  0  0  0
  195.4510  171.0080  134.9770 Cl  0  0  0  0  0  0  0  0  0  0  0  0
  195.5110  174.1110  138.3030 C   0  0  0  0  0  0  0  0  0  0  0  0
  195.4800  172.2020  136.2550 C   0  0  0  0  0  0  0  0  0  0  0  0
  195.5440  175.0330  139.3430 O   0  0  0  0  0  1  0  0  0  0  0  0
  196.3820  173.0170  138.3430 C   0  0  0  0  0  3  0  0  0  0  0  0
  194.6110  173.2940  136.2070 C   0  0  0  0  0  3  0  0  0  0  0  0
  194.6060  174.2570  137.2280 C   0  0  0  0  0  0  0  0  0  0  0  0
  196.3670  172.0650  137.3230 C   0  0  0  0  0  3  0  0  0  0  0  0
  1  4  1  6  0  0  0
  1  5  1  0  0  0  0
  1 10  1  0  0  0  0
  2 10  1  0  0  0  0
  3 13  1  0  0  0  0
  4  6  1  0  0  0  0
  5 15  1  1  0  0  0
  6  3  1  6  0  0  0
  6  9  1  0  0  0  0
  6  1  1  0  0  0  0
  7  2  2  0  0  0  0
  8  9  1  0  0  0  0
 10 21  1  1  0  0  0
 12  7  1  0  0  0  0
 13 11  1  6  0  0  0
 13  5  1  0  0  0  0
 14  8  1  0  0  0  0
 14 12  1  0  0  0  0
 16 17  1  0  0  0  0
 17 20  1  0  0  0  0
 18 16  2  0  0  0  0
 19 17  2  0  0  0  0
 19 23  1  0  0  0  0
 21 18  1  0  0  0  0
 21 22  2  0  0  0  0
 22 19  1  0  0  0  0
 24 18  1  0  0  0  0
 25 33  1  0  0  0  0
 25  7  1  0  0  0  0
 26 25  2  0  0  0  0
 27 29  1  0  0  0  0
 28 31  1  0  0  0  0
 28 30  1  0  0  0  0
 29 34  1  0  0  0  0
 32 29  2  0  0  0  0
 32 33  1  0  0  0  0
 33 28  2  0  0  0  0
 34 31  2  0  0  0  0
M  END
>  <MODEL>
5

>  <REMARK>
 VINA RESULT:      -6.8      3.068      7.124
  Name = 
  3 active torsions:
  status: ('A' for Active; 'I' for Inactive)
    1  A    between atoms: C_8  and  C_24
    2  A    between atoms: C_19  and  C_27
    3  A    between atoms: C_24  and  C_30
                            x       y       z     vdW  Elec       q    Type
                         _______ _______ _______ _____ _____    ______ ____

>  <TORSDO>
F 3

$$$$
=
 OpenBabel10222418223D

 34 38  0  0  1  0  0  0  0  0999 V2000
  181.0750  179.1550  139.0110 C   0  0  1  0  0  0  0  0  0  0  0  0
  182.8030  177.2650  139.1420 C   0  0  0  0  0  3  0  0  0  0  0  0
  179.0240  180.0790  138.0700 C   0  0  0  0  0  2  0  0  0  0  0  0
  181.2310  178.9940  137.6140 O   0  0  0  0  0  0  0  0  0  0  0  0
  180.9540  180.6140  139.4690 C   0  0  1  0  0  3  0  0  0  0  0  0
  179.9250  178.8630  138.1320 C   0  0  1  0  0  0  0  0  0  0  0  0
  182.6740  176.1820  138.3630 C   0  0  0  0  0  0  0  0  0  0  0  0
  179.4180  176.9240  137.0540 C   0  0  0  0  0  2  0  0  0  0  0  0
  179.4050  177.5680  138.3020 O   0  0  0  0  0  0  0  0  0  0  0  0
  181.6750  177.9800  139.8330 C   0  0  1  0  0  3  0  0  0  0  0  0
  180.4030  181.9620  137.5820 O   0  0  0  0  0  1  0  0  0  0  0  0
  181.3220  175.6010  138.0660 C   0  0  0  0  0  2  0  0  0  0  0  0
  179.8420  181.2350  138.6320 C   0  0  1  0  0  3  0  0  0  0  0  0
  180.7560  176.2280  136.7980 C   0  0  0  0  0  2  0  0  0  0  0  0
  180.5700  180.6800  140.8100 O   0  0  0  0  0  1  0  0  0  0  0  0
  181.5740  178.6430  143.6110 C   0  0  0  0  0  3  0  0  0  0  0  0
  182.9070  178.9910  143.8410 C   0  0  0  0  0  0  0  0  0  0  0  0
  181.1390  178.3080  142.3260 C   0  0  0  0  0  0  0  0  0  0  0  0
  183.8190  179.0030  142.7770 C   0  0  0  0  0  0  0  0  0  0  0  0
  183.3140  179.3220  145.1280 O   0  0  0  0  0  1  0  0  0  0  0  0
  182.0570  178.3200  141.2490 C   0  0  0  0  0  0  0  0  0  0  0  0
  183.3890  178.6690  141.4900 C   0  0  0  0  0  3  0  0  0  0  0  0
  185.2460  179.3700  142.9950 C   0  0  0  0  0  1  0  0  0  0  0  0
  179.7050  177.9380  142.1430 C   0  0  0  0  0  1  0  0  0  0  0  0
  183.8710  175.5750  137.7240 C   0  0  0  0  0  0  0  0  0  0  0  0
  184.1330  174.3660  137.9680 O   0  0  0  0  0  0  0  0  0  0  0  0
  188.0820  178.6280  137.2160 Cl  0  0  0  0  0  0  0  0  0  0  0  0
  184.5820  176.3450  135.4200 C   0  0  0  0  0  0  0  0  0  0  0  0
  186.7400  177.7460  136.5220 C   0  0  0  0  0  0  0  0  0  0  0  0
  183.5130  175.6690  134.8410 O   0  0  0  0  0  1  0  0  0  0  0  0
  185.4600  177.0520  134.5940 C   0  0  0  0  0  3  0  0  0  0  0  0
  185.8690  177.0380  137.3520 C   0  0  0  0  0  3  0  0  0  0  0  0
  184.7760  176.3350  136.8190 C   0  0  0  0  0  0  0  0  0  0  0  0
  186.5360  177.7530  135.1420 C   0  0  0  0  0  3  0  0  0  0  0  0
  1  4  1  6  0  0  0
  1  5  1  0  0  0  0
  1 10  1  0  0  0  0
  2 10  1  0  0  0  0
  3 13  1  0  0  0  0
  4  6  1  0  0  0  0
  5 15  1  1  0  0  0
  6  3  1  6  0  0  0
  6  9  1  0  0  0  0
  6  1  1  0  0  0  0
  7  2  2  0  0  0  0
  8  9  1  0  0  0  0
 10 21  1  1  0  0  0
 12  7  1  0  0  0  0
 13 11  1  6  0  0  0
 13  5  1  0  0  0  0
 14  8  1  0  0  0  0
 14 12  1  0  0  0  0
 16 17  1  0  0  0  0
 17 20  1  0  0  0  0
 18 16  2  0  0  0  0
 19 23  1  0  0  0  0
 19 17  2  0  0  0  0
 21 22  2  0  0  0  0
 21 18  1  0  0  0  0
 22 19  1  0  0  0  0
 24 18  1  0  0  0  0
 25 26  2  0  0  0  0
 25  7  1  0  0  0  0
 28 33  1  0  0  0  0
 29 27  1  0  0  0  0
 29 32  1  0  0  0  0
 30 28  1  0  0  0  0
 31 34  1  0  0  0  0
 31 28  2  0  0  0  0
 33 32  2  0  0  0  0
 33 25  1  0  0  0  0
 34 29  2  0  0  0  0
M  END
>  <MODEL>
6

>  <REMARK>
 VINA RESULT:      -6.7      6.409     10.843
  Name = 
  3 active torsions:
  status: ('A' for Active; 'I' for Inactive)
    1  A    between atoms: C_8  and  C_24
    2  A    between atoms: C_19  and  C_27
    3  A    between atoms: C_24  and  C_30
                            x       y       z     vdW  Elec       q    Type
                         _______ _______ _______ _____ _____    ______ ____

>  <TORSDO>
F 3

$$$$
=
 OpenBabel10222418223D

 34 38  0  0  1  0  0  0  0  0999 V2000
  185.3670  175.3400  137.2030 C   0  0  1  0  0  0  0  0  0  0  0  0
  185.5750  177.5950  138.4060 C   0  0  0  0  0  3  0  0  0  0  0  0
  184.0770  173.7870  135.8380 C   0  0  0  0  0  2  0  0  0  0  0  0
  184.1020  175.2940  137.8330 O   0  0  0  0  0  0  0  0  0  0  0  0
  186.1090  173.9970  137.1770 C   0  0  1  0  0  3  0  0  0  0  0  0
  184.1220  175.1810  136.4270 C   0  0  1  0  0  0  0  0  0  0  0  0
  184.5530  178.4620  138.3870 C   0  0  0  0  0  0  0  0  0  0  0  0
  182.4940  176.7190  136.0250 C   0  0  0  0  0  2  0  0  0  0  0  0
  183.7890  176.3150  135.6650 O   0  0  0  0  0  0  0  0  0  0  0  0
  186.0210  176.7500  137.2450 C   0  0  1  0  0  3  0  0  0  0  0  0
  184.5410  172.2530  137.6030 O   0  0  0  0  0  1  0  0  0  0  0  0
  183.7030  178.6280  137.1620 C   0  0  0  0  0  2  0  0  0  0  0  0
  185.1400  172.9850  136.5770 C   0  0  1  0  0  3  0  0  0  0  0  0
  182.5180  177.6730  137.2210 C   0  0  0  0  0  2  0  0  0  0  0  0
  187.2270  174.0670  136.3440 O   0  0  0  0  0  1  0  0  0  0  0  0
  189.6040  176.8510  135.8770 C   0  0  0  0  0  3  0  0  0  0  0  0
  190.3310  176.7610  137.0670 C   0  0  0  0  0  0  0  0  0  0  0  0
  188.2060  176.8530  135.8960 C   0  0  0  0  0  0  0  0  0  0  0  0
  189.6550  176.6730  138.2920 C   0  0  0  0  0  0  0  0  0  0  0  0
  191.7200  176.7610  137.0200 O   0  0  0  0  0  1  0  0  0  0  0  0
  187.5220  176.7630  137.1310 C   0  0  0  0  0  0  0  0  0  0  0  0
  188.2590  176.6740  138.3160 C   0  0  0  0  0  3  0  0  0  0  0  0
  190.4050  176.5770  139.5750 C   0  0  0  0  0  1  0  0  0  0  0  0
  187.4860  176.9590  134.5940 C   0  0  0  0  0  1  0  0  0  0  0  0
  184.2040  179.2310  139.6120 C   0  0  0  0  0  0  0  0  0  0  0  0
  183.4980  180.2690  139.4860 O   0  0  0  0  0  0  0  0  0  0  0  0
  188.1970  178.1440  142.8040 Cl  0  0  0  0  0  0  0  0  0  0  0  0
  183.7410  178.6240  142.0240 C   0  0  0  0  0  0  0  0  0  0  0  0
  186.4820  178.3330  142.5090 C   0  0  0  0  0  0  0  0  0  0  0  0
  182.3710  178.7480  141.8150 O   0  0  0  0  0  1  0  0  0  0  0  0
  184.1990  178.2700  143.2970 C   0  0  0  0  0  3  0  0  0  0  0  0
  186.0310  178.6910  141.2370 C   0  0  0  0  0  3  0  0  0  0  0  0
  184.6600  178.8340  140.9720 C   0  0  0  0  0  0  0  0  0  0  0  0
  185.5670  178.1240  143.5390 C   0  0  0  0  0  3  0  0  0  0  0  0
  1 10  1  0  0  0  0
  1  4  1  1  0  0  0
  3 13  1  0  0  0  0
  5 15  1  6  0  0  0
  5  1  1  0  0  0  0
  6  3  1  6  0  0  0
  6  1  1  0  0  0  0
  6  4  1  0  0  0  0
  7  2  2  0  0  0  0
  7 25  1  0  0  0  0
  8 14  1  0  0  0  0
  9  8  1  0  0  0  0
  9  6  1  0  0  0  0
 10 21  1  1  0  0  0
 10  2  1  0  0  0  0
 12 14  1  0  0  0  0
 12  7  1  0  0  0  0
 13  5  1  0  0  0  0
 13 11  1  1  0  0  0
 16 18  2  0  0  0  0
 16 17  1  0  0  0  0
 17 19  2  0  0  0  0
 18 21  1  0  0  0  0
 19 22  1  0  0  0  0
 19 23  1  0  0  0  0
 20 17  1  0  0  0  0
 21 22  2  0  0  0  0
 24 18  1  0  0  0  0
 25 33  1  0  0  0  0
 26 25  2  0  0  0  0
 28 31  1  0  0  0  0
 29 27  1  0  0  0  0
 29 34  1  0  0  0  0
 30 28  1  0  0  0  0
 31 34  2  0  0  0  0
 32 29  2  0  0  0  0
 33 32  1  0  0  0  0
 33 28  2  0  0  0  0
M  END
>  <MODEL>
7

>  <REMARK>
 VINA RESULT:      -6.5      3.651      5.276
  Name = 
  3 active torsions:
  status: ('A' for Active; 'I' for Inactive)
    1  A    between atoms: C_8  and  C_24
    2  A    between atoms: C_19  and  C_27
    3  A    between atoms: C_24  and  C_30
                            x       y       z     vdW  Elec       q    Type
                         _______ _______ _______ _____ _____    ______ ____

>  <TORSDO>
F 3

$$$$
=
 OpenBabel10222418223D

 34 38  0  0  1  0  0  0  0  0999 V2000
  181.6720  179.2150  138.8830 C   0  0  1  0  0  0  0  0  0  0  0  0
  182.1120  176.6960  138.6980 C   0  0  0  0  0  3  0  0  0  0  0  0
  180.2200  181.0620  139.5340 C   0  0  0  0  0  2  0  0  0  0  0  0
  180.4150  178.8810  138.3270 O   0  0  0  0  0  0  0  0  0  0  0  0
  182.2790  180.5150  138.3380 C   0  0  1  0  0  3  0  0  0  0  0  0
  180.4080  179.5600  139.5640 C   0  0  1  0  0  0  0  0  0  0  0  0
  181.1800  175.8200  139.0990 C   0  0  0  0  0  0  0  0  0  0  0  0
  178.9330  178.1750  140.6050 C   0  0  0  0  0  2  0  0  0  0  0  0
  180.1790  178.8110  140.7310 O   0  0  0  0  0  0  0  0  0  0  0  0
  182.4610  177.9800  139.4010 C   0  0  1  0  0  3  0  0  0  0  0  0
  180.5530  181.7770  137.2850 O   0  0  0  0  0  1  0  0  0  0  0  0
  180.3360  176.0910  140.3100 C   0  0  0  0  0  2  0  0  0  0  0  0
  181.2080  181.5880  138.5020 C   0  0  1  0  0  3  0  0  0  0  0  0
  179.0640  176.8230  139.9010 C   0  0  0  0  0  2  0  0  0  0  0  0
  183.3890  180.8970  139.0940 O   0  0  0  0  0  1  0  0  0  0  0  0
  186.0360  178.6280  140.6300 C   0  0  0  0  0  3  0  0  0  0  0  0
  186.7460  178.4680  139.4370 C   0  0  0  0  0  0  0  0  0  0  0  0
  184.6470  178.4760  140.6570 C   0  0  0  0  0  0  0  0  0  0  0  0
  186.0620  178.1500  138.2560 C   0  0  0  0  0  0  0  0  0  0  0  0
  188.1260  178.6270  139.4370 O   0  0  0  0  0  1  0  0  0  0  0  0
  183.9540  178.1550  139.4660 C   0  0  0  0  0  0  0  0  0  0  0  0
  184.6740  177.9960  138.2770 C   0  0  0  0  0  3  0  0  0  0  0  0
  186.7940  177.9720  136.9710 C   0  0  0  0  0  1  0  0  0  0  0  0
  183.9460  178.6520  141.9620 C   0  0  0  0  0  1  0  0  0  0  0  0
  180.9220  174.5900  138.3050 C   0  0  0  0  0  0  0  0  0  0  0  0
  180.0020  173.8150  138.6840 O   0  0  0  0  0  0  0  0  0  0  0  0
  185.0440  172.1000  136.2750 Cl  0  0  0  0  0  0  0  0  0  0  0  0
  181.3050  174.6470  135.8050 C   0  0  0  0  0  0  0  0  0  0  0  0
  183.6030  173.0750  136.0900 C   0  0  0  0  0  0  0  0  0  0  0  0
  180.1750  175.4390  135.6280 O   0  0  0  0  0  1  0  0  0  0  0  0
  182.0520  174.2790  134.6820 C   0  0  0  0  0  3  0  0  0  0  0  0
  182.8590  173.4360  137.2150 C   0  0  0  0  0  3  0  0  0  0  0  0
  181.7070  174.2310  137.0930 C   0  0  0  0  0  0  0  0  0  0  0  0
  183.1990  173.4950  134.8240 C   0  0  0  0  0  3  0  0  0  0  0  0
  1  4  1  6  0  0  0
  1 10  1  0  0  0  0
  1  6  1  0  0  0  0
  2  7  2  0  0  0  0
  2 10  1  0  0  0  0
  4  6  1  0  0  0  0
  5 13  1  0  0  0  0
  5  1  1  0  0  0  0
  5 15  1  1  0  0  0
  6  3  1  1  0  0  0
  6  9  1  0  0  0  0
  7 12  1  0  0  0  0
  8  9  1  0  0  0  0
 10 21  1  6  0  0  0
 13 11  1  6  0  0  0
 13  3  1  0  0  0  0
 14 12  1  0  0  0  0
 14  8  1  0  0  0  0
 16 18  1  0  0  0  0
 17 16  2  0  0  0  0
 18 24  1  0  0  0  0
 19 22  2  0  0  0  0
 19 17  1  0  0  0  0
 20 17  1  0  0  0  0
 21 18  2  0  0  0  0
 22 21  1  0  0  0  0
 23 19  1  0  0  0  0
 25 26  2  0  0  0  0
 25  7  1  0  0  0  0
 28 33  1  0  0  0  0
 29 27  1  0  0  0  0
 29 32  1  0  0  0  0
 30 28  1  0  0  0  0
 31 34  1  0  0  0  0
 31 28  2  0  0  0  0
 33 32  2  0  0  0  0
 33 25  1  0  0  0  0
 34 29  2  0  0  0  0
M  END
>  <MODEL>
8

>  <REMARK>
 VINA RESULT:      -6.4      6.666     10.280
  Name = 
  3 active torsions:
  status: ('A' for Active; 'I' for Inactive)
    1  A    between atoms: C_8  and  C_24
    2  A    between atoms: C_19  and  C_27
    3  A    between atoms: C_24  and  C_30
                            x       y       z     vdW  Elec       q    Type
                         _______ _______ _______ _____ _____    ______ ____

>  <TORSDO>
F 3

$$$$
=
 OpenBabel10222418223D

 34 38  0  0  1  0  0  0  0  0999 V2000
  189.0180  176.8350  137.0220 C   0  0  1  0  0  0  0  0  0  0  0  0
  187.5960  177.4860  139.0550 C   0  0  0  0  0  3  0  0  0  0  0  0
  191.1650  176.1850  136.0690 C   0  0  0  0  0  2  0  0  0  0  0  0
  189.9310  177.7770  137.5520 O   0  0  0  0  0  0  0  0  0  0  0  0
  188.8910  176.8690  135.4940 C   0  0  1  0  0  3  0  0  0  0  0  0
  190.4080  176.4640  137.3510 C   0  0  1  0  0  0  0  0  0  0  0  0
  188.1600  177.5750  140.2680 C   0  0  0  0  0  0  0  0  0  0  0  0
  191.3680  176.2250  139.4000 C   0  0  0  0  0  2  0  0  0  0  0  0
  190.5120  175.6160  138.4680 O   0  0  0  0  0  0  0  0  0  0  0  0
  187.9020  176.4310  138.0280 C   0  0  1  0  0  3  0  0  0  0  0  0
  190.7760  178.0210  134.5990 O   0  0  0  0  0  1  0  0  0  0  0  0
  189.2290  176.6120  140.6950 C   0  0  0  0  0  2  0  0  0  0  0  0
  190.3080  176.7530  134.9450 C   0  0  1  0  0  3  0  0  0  0  0  0
  190.6010  177.1670  140.3310 C   0  0  0  0  0  2  0  0  0  0  0  0
  188.1620  175.7700  135.0340 O   0  0  0  0  0  1  0  0  0  0  0  0
  185.2200  174.1750  136.4690 C   0  0  0  0  0  3  0  0  0  0  0  0
  184.2110  175.1120  136.2280 C   0  0  0  0  0  0  0  0  0  0  0  0
  186.4280  174.5650  137.0530 C   0  0  0  0  0  0  0  0  0  0  0  0
  184.4100  176.4550  136.5750 C   0  0  0  0  0  0  0  0  0  0  0  0
  183.0200  174.6980  135.6460 O   0  0  0  0  0  1  0  0  0  0  0  0
  186.6320  175.9210  137.4030 C   0  0  0  0  0  0  0  0  0  0  0  0
  185.6160  176.8510  137.1580 C   0  0  0  0  0  3  0  0  0  0  0  0
  183.3520  177.4740  136.3300 C   0  0  0  0  0  1  0  0  0  0  0  0
  187.4640  173.5190  137.2920 C   0  0  0  0  0  1  0  0  0  0  0  0
  187.7790  178.6790  141.1890 C   0  0  0  0  0  0  0  0  0  0  0  0
  188.4870  179.7230  141.1980 O   0  0  0  0  0  0  0  0  0  0  0  0
  185.9420  177.4810  145.9320 Cl  0  0  0  0  0  0  0  0  0  0  0  0
  185.3200  179.0020  141.6900 C   0  0  0  0  0  0  0  0  0  0  0  0
  185.7000  178.0720  144.3030 C   0  0  0  0  0  0  0  0  0  0  0  0
  185.0940  179.4570  140.3950 O   0  0  0  0  0  1  0  0  0  0  0  0
  184.2430  178.9330  142.5790 C   0  0  0  0  0  3  0  0  0  0  0  0
  186.7810  178.1420  143.4220 C   0  0  0  0  0  3  0  0  0  0  0  0
  186.6090  178.5980  142.1050 C   0  0  0  0  0  0  0  0  0  0  0  0
  184.4320  178.4680  143.8820 C   0  0  0  0  0  3  0  0  0  0  0  0
  1  6  1  0  0  0  0
  1  4  1  1  0  0  0
  1 10  1  0  0  0  0
  2  7  2  0  0  0  0
  5 15  1  6  0  0  0
  5  1  1  0  0  0  0
  6  3  1  6  0  0  0
  6  4  1  0  0  0  0
  6  9  1  0  0  0  0
  7 12  1  0  0  0  0
  7 25  1  0  0  0  0
  8 14  1  0  0  0  0
  9  8  1  0  0  0  0
 10 21  1  6  0  0  0
 10  2  1  0  0  0  0
 13 11  1  1  0  0  0
 13  5  1  0  0  0  0
 13  3  1  0  0  0  0
 14 12  1  0  0  0  0
 16 18  1  0  0  0  0
 17 16  2  0  0  0  0
 17 19  1  0  0  0  0
 18 24  1  0  0  0  0
 18 21  2  0  0  0  0
 19 22  2  0  0  0  0
 20 17  1  0  0  0  0
 22 21  1  0  0  0  0
 23 19  1  0  0  0  0
 25 26  2  0  0  0  0
 25 33  1  0  0  0  0
 28 33  2  0  0  0  0
 28 31  1  0  0  0  0
 29 27  1  0  0  0  0
 30 28  1  0  0  0  0
 31 34  2  0  0  0  0
 32 29  2  0  0  0  0
 33 32  1  0  0  0  0
 34 29  1  0  0  0  0
M  END
>  <MODEL>
9

>  <REMARK>
 VINA RESULT:      -6.2      2.874      6.037
  Name = 
  3 active torsions:
  status: ('A' for Active; 'I' for Inactive)
    1  A    between atoms: C_8  and  C_24
    2  A    between atoms: C_19  and  C_27
    3  A    between atoms: C_24  and  C_30
                            x       y       z     vdW  Elec       q    Type
                         _______ _______ _______ _____ _____    ______ ____

>  <TORSDO>
F 3

$$$$
