=
 OpenBabel10222416143D

 44 49  0  0  1  0  0  0  0  0999 V2000
  190.5330  176.7920  137.8510 C   0  0  1  0  0  3  0  0  0  0  0  0
  189.2860  176.4760  137.1260 N   0  0  0  0  0  0  0  0  0  0  0  0
  189.0020  177.5420  139.7370 C   0  0  0  0  0  0  0  0  0  0  0  0
  188.8170  177.9200  141.0760 C   0  0  0  0  0  0  0  0  0  0  0  0
  191.1600  177.6360  141.4270 N   0  0  0  0  0  0  0  0  0  0  0  0
  191.5280  178.0570  145.0730 C   0  0  0  0  0  3  0  0  0  0  0  0
  187.6350  177.4860  143.8070 N   0  0  0  0  0  0  0  0  0  0  0  0
  187.5010  178.2900  141.5230 N   0  0  0  0  0  0  0  0  0  0  0  0
  189.9410  177.9920  141.9150 C   0  0  0  0  0  0  0  0  0  0  0  0
  188.2870  177.5200  137.3550 C   0  0  0  0  0  2  0  0  0  0  0  0
  188.8940  177.5950  144.1050 C   0  0  0  0  0  0  0  0  0  0  0  0
  186.9670  178.1120  142.6990 C   0  0  0  0  0  3  0  0  0  0  0  0
  187.8270  177.4660  138.8030 C   0  0  0  0  0  2  0  0  0  0  0  0
  190.6580  177.0490  145.7000 C   0  0  0  0  0  0  0  0  0  0  0  0
  189.4150  176.8480  145.2610 C   0  0  0  0  0  3  0  0  0  0  0  0
  190.2810  177.1570  139.3000 C   0  0  0  0  0  0  0  0  0  0  0  0
  191.1570  176.2790  146.8680 C   0  0  0  0  0  1  0  0  0  0  0  0
  189.8040  178.5010  143.3190 C   0  0  0  0  0  0  0  0  0  0  0  0
  191.3240  177.2340  140.1670 N   0  0  0  0  0  0  0  0  0  0  0  0
  191.1370  178.7380  143.9920 C   0  0  0  0  0  2  0  0  0  0  0  0
  189.5320  176.3820  135.6790 C   0  0  0  0  0  2  0  0  0  0  0  0
  188.9520  175.1160  135.0500 C   0  0  0  0  0  2  0  0  0  0  0  0
  187.4630  175.2940  134.8450 C   0  0  0  0  0  2  0  0  0  0  0  0
  186.5510  174.1970  135.9680 S   0  0  0  0  0  0  0  0  0  0  0  0
  184.9350  174.8870  135.4990 C   0  0  0  0  0  2  0  0  0  0  0  0
  182.6620  177.6390  140.3280 C   0  0  0  0  0  3  0  0  0  0  0  0
  184.2760  178.6790  138.7220 C   0  0  0  0  0  2  0  0  0  0  0  0
  184.0030  177.4920  137.9190 N   0  0  0  0  0  0  0  0  0  0  0  0
  182.7120  176.3600  139.5860 C   0  0  0  0  0  3  0  0  0  0  0  0
  184.4030  175.7320  136.6010 C   0  0  0  0  0  0  0  0  0  0  0  0
  183.5770  175.2480  137.6160 O   0  0  0  0  0  0  0  0  0  0  0  0
  183.3580  178.7160  139.9250 C   0  0  0  0  0  3  0  0  0  0  0  0
  184.6880  177.0280  136.7640 C   0  0  0  0  0  3  0  0  0  0  0  0
  183.3710  176.3400  138.4340 C   0  0  0  0  0  0  0  0  0  0  0  0
  191.5050  175.6220  137.7510 C   0  0  0  0  0  2  0  0  0  0  0  0
  193.0700  176.1910  137.0250 S   0  0  0  0  0  0  0  0  0  0  0  0
  193.9880  174.7350  137.6110 C   0  0  0  0  0  2  0  0  0  0  0  0
  195.3340  175.1070  138.0260 N   0  0  0  0  0  2  0  0  0  0  0  0
  196.1910  174.2360  138.7680 C   0  0  0  0  0  0  0  0  0  0  0  0
  195.7910  173.0980  139.1330 O   0  0  0  0  0  0  0  0  0  0  0  0
  197.5760  174.6720  139.0950 C   0  0  0  0  0  2  0  0  0  0  0  0
  196.7020  176.3480  140.7180 O   0  0  0  0  0  0  0  0  0  0  0  0
  198.4250  174.9540  141.3050 O   0  0  0  0  0  1  0  0  0  0  0  0
  197.6060  175.3350  140.4270 C   0  0  0  0  0  0  0  0  0  0  0  0
  1 35  1  1  0  0  0
  1 16  1  0  0  0  0
  2 10  1  0  0  0  0
  2  1  1  0  0  0  0
  3  4  1  0  0  0  0
  4  8  2  0  0  0  0
  4  9  1  0  0  0  0
  5  9  1  0  0  0  0
  6 14  2  0  0  0  0
  7 11  1  0  0  0  0
  8 12  1  0  0  0  0
  9 18  2  0  0  0  0
 10 13  1  0  0  0  0
 11 15  2  0  0  0  0
 12  7  2  0  0  0  0
 13  3  1  0  0  0  0
 14 17  1  0  0  0  0
 15 14  1  0  0  0  0
 16  3  2  0  0  0  0
 16 19  1  0  0  0  0
 18 20  1  0  0  0  0
 18 11  1  0  0  0  0
 19  5  2  0  0  0  0
 20  6  1  0  0  0  0
 21  2  1  0  0  0  0
 22 21  1  0  0  0  0
 23 22  1  0  0  0  0
 23 24  1  0  0  0  0
 25 24  1  0  0  0  0
 25 30  1  0  0  0  0
 27 32  1  0  0  0  0
 28 34  1  0  0  0  0
 28 27  1  0  0  0  0
 29 26  1  0  0  0  0
 30 33  2  0  0  0  0
 30 31  1  0  0  0  0
 31 34  1  0  0  0  0
 32 26  2  0  0  0  0
 33 28  1  0  0  0  0
 34 29  2  0  0  0  0
 36 37  1  0  0  0  0
 36 35  1  0  0  0  0
 37 38  1  0  0  0  0
 38 39  1  0  0  0  0
 39 41  1  0  0  0  0
 39 40  2  0  0  0  0
 41 44  1  0  0  0  0
 44 42  2  0  0  0  0
 44 43  1  0  0  0  0
M  END
>  <MODEL>
1

>  <REMARK>
 VINA RESULT:      -8.1      0.000      0.000
  Name = 
  12 active torsions:
  status: ('A' for Active; 'I' for Inactive)
    1  A    between atoms: C_1  and  C_25
    2  A    between atoms: C_1  and  C_34
    3  A    between atoms: S_2  and  C_34
    4  A    between atoms: S_2  and  C_41
    5  A    between atoms: C_3  and  S_8
    6  A    between atoms: C_3  and  N_27
    7  A    between atoms: C_4  and  C_36
    8  A    between atoms: N_5  and  C_25
    9  A    between atoms: S_8  and  C_36
   10  A    between atoms: C_12  and  C_22
   11  A    between atoms: C_12  and  C_31
   12  A    between atoms: C_35  and  C_41
                            x       y       z     vdW  Elec       q    Type
                         _______ _______ _______ _____ _____    ______ ____

>  <TORSDO>
F 12

$$$$
=
 OpenBabel10222416143D

 44 49  0  0  1  0  0  0  0  0999 V2000
  184.5420  178.7300  141.1230 C   0  0  1  0  0  3  0  0  0  0  0  0
  184.6210  178.2830  142.5290 N   0  0  0  0  0  0  0  0  0  0  0  0
  187.0290  178.2090  141.0360 C   0  0  0  0  0  0  0  0  0  0  0  0
  188.2050  178.0110  140.2970 C   0  0  0  0  0  0  0  0  0  0  0  0
  186.9620  178.4340  138.3040 N   0  0  0  0  0  0  0  0  0  0  0  0
  189.3710  177.6570  135.6210 C   0  0  0  0  0  3  0  0  0  0  0  0
  190.4780  176.2800  139.3570 N   0  0  0  0  0  0  0  0  0  0  0  0
  189.4320  177.7330  140.9940 N   0  0  0  0  0  0  0  0  0  0  0  0
  188.1540  178.1620  138.9010 C   0  0  0  0  0  0  0  0  0  0  0  0
  185.8490  178.7780  143.1500 C   0  0  0  0  0  2  0  0  0  0  0  0
  190.0100  176.6980  138.2210 C   0  0  0  0  0  0  0  0  0  0  0  0
  190.4290  176.9860  140.6080 C   0  0  0  0  0  3  0  0  0  0  0  0
  187.0440  178.0700  142.5330 C   0  0  0  0  0  2  0  0  0  0  0  0
  189.7940  176.2630  135.8300 C   0  0  0  0  0  0  0  0  0  0  0  0
  190.1150  175.8190  137.0460 C   0  0  0  0  0  3  0  0  0  0  0  0
  185.8220  178.4580  140.3600 C   0  0  2  0  0  3  0  0  0  0  0  0
  189.9090  175.3530  134.6630 C   0  0  0  0  0  1  0  0  0  0  0  0
  189.4080  178.0720  138.0850 C   0  0  0  0  0  0  0  0  0  0  0  0
  185.8390  178.5780  139.0070 N   0  0  0  0  0  0  0  0  0  0  0  0
  189.2090  178.4970  136.6480 C   0  0  0  0  0  3  0  0  0  0  0  0
  183.4760  178.7880  143.3030 C   0  0  0  0  0  2  0  0  0  0  0  0
  183.8870  179.6360  144.5040 C   0  0  0  0  0  2  0  0  0  0  0  0
  184.3350  178.7280  145.6300 C   0  0  0  0  0  2  0  0  0  0  0  0
  185.6990  179.5050  146.5430 S   0  0  0  0  0  0  0  0  0  0  0  0
  186.1630  177.9560  147.3750 C   0  0  0  0  0  2  0  0  0  0  0  0
  191.5110  176.6620  144.9700 C   0  0  0  0  0  3  0  0  0  0  0  0
  190.9870  176.5690  147.4160 C   0  0  0  0  0  2  0  0  0  0  0  0
  189.6090  176.7450  146.9700 N   0  0  0  0  0  0  0  0  0  0  0  0
  190.1430  177.1440  144.6720 C   0  0  0  0  0  3  0  0  0  0  0  0
  187.5160  177.5250  146.9330 C   0  0  0  0  0  0  0  0  0  0  0  0
  187.9650  177.6210  145.6150 O   0  0  0  0  0  0  0  0  0  0  0  0
  191.8990  176.3730  146.2230 C   0  0  0  0  0  3  0  0  0  0  0  0
  188.4580  177.0420  147.7480 C   0  0  0  0  0  3  0  0  0  0  0  0
  189.2670  177.1670  145.6680 C   0  0  0  0  0  0  0  0  0  0  0  0
  183.3530  178.0710  140.4320 C   0  0  0  0  0  2  0  0  0  0  0  0
  182.3510  179.3410  139.6040 S   0  0  0  0  0  0  0  0  0  0  0  0
  181.9530  178.2540  138.2010 C   0  0  0  0  0  2  0  0  0  0  0  0
  183.1260  177.4950  137.7890 N   0  0  0  0  0  2  0  0  0  0  0  0
  183.3950  177.1530  136.4270 C   0  0  0  0  0  0  0  0  0  0  0  0
  182.5890  177.4710  135.5130 O   0  0  0  0  0  0  0  0  0  0  0  0
  184.6520  176.4300  136.0860 C   0  0  0  0  0  2  0  0  0  0  0  0
  183.3170  174.3970  136.6240 O   0  0  0  0  0  1  0  0  0  0  0  0
  185.1060  174.2660  135.1960 O   0  0  0  0  0  0  0  0  0  0  0  0
  184.3870  174.9720  135.9500 C   0  0  0  0  0  0  0  0  0  0  0  0
  1 35  1  6  0  0  0
  1  2  1  0  0  0  0
  2 10  1  0  0  0  0
  2 21  1  0  0  0  0
  3 13  1  0  0  0  0
  4  8  1  0  0  0  0
  4  3  2  0  0  0  0
  5  9  1  0  0  0  0
  5 19  2  0  0  0  0
  6 14  1  0  0  0  0
  6 20  2  0  0  0  0
  7 12  1  0  0  0  0
  9  4  1  0  0  0  0
 11  7  2  0  0  0  0
 12  8  2  0  0  0  0
 13 10  1  0  0  0  0
 14 15  2  0  0  0  0
 15 11  1  0  0  0  0
 16 19  1  6  0  0  0
 16  3  1  0  0  0  0
 16  1  1  0  0  0  0
 17 14  1  0  0  0  0
 18 11  1  0  0  0  0
 18  9  2  0  0  0  0
 20 18  1  0  0  0  0
 21 22  1  0  0  0  0
 22 23  1  0  0  0  0
 23 24  1  0  0  0  0
 24 25  1  0  0  0  0
 26 32  2  0  0  0  0
 28 27  1  0  0  0  0
 28 33  1  0  0  0  0
 29 26  1  0  0  0  0
 29 34  2  0  0  0  0
 30 25  1  0  0  0  0
 30 33  2  0  0  0  0
 31 34  1  0  0  0  0
 31 30  1  0  0  0  0
 32 27  1  0  0  0  0
 34 28  1  0  0  0  0
 36 35  1  0  0  0  0
 37 36  1  0  0  0  0
 38 37  1  0  0  0  0
 39 38  1  0  0  0  0
 40 39  2  0  0  0  0
 41 39  1  0  0  0  0
 43 44  2  0  0  0  0
 44 41  1  0  0  0  0
 44 42  1  0  0  0  0
M  END
>  <MODEL>
2

>  <REMARK>
 VINA RESULT:      -7.8      4.338      9.752
  Name = 
  12 active torsions:
  status: ('A' for Active; 'I' for Inactive)
    1  A    between atoms: C_1  and  C_25
    2  A    between atoms: C_1  and  C_34
    3  A    between atoms: S_2  and  C_34
    4  A    between atoms: S_2  and  C_41
    5  A    between atoms: C_3  and  S_8
    6  A    between atoms: C_3  and  N_27
    7  A    between atoms: C_4  and  C_36
    8  A    between atoms: N_5  and  C_25
    9  A    between atoms: S_8  and  C_36
   10  A    between atoms: C_12  and  C_22
   11  A    between atoms: C_12  and  C_31
   12  A    between atoms: C_35  and  C_41
                            x       y       z     vdW  Elec       q    Type
                         _______ _______ _______ _____ _____    ______ ____

>  <TORSDO>
F 12

$$$$
=
 OpenBabel10222416143D

 44 49  0  0  1  0  0  0  0  0999 V2000
  188.0530  178.0080  138.4350 C   0  0  1  0  0  3  0  0  0  0  0  0
  188.5280  178.5660  139.7170 N   0  0  0  0  0  0  0  0  0  0  0  0
  185.7210  178.3210  139.4010 C   0  0  0  0  0  0  0  0  0  0  0  0
  184.3300  178.3610  139.2300 C   0  0  0  0  0  0  0  0  0  0  0  0
  184.6510  177.8690  136.9170 N   0  0  0  0  0  0  0  0  0  0  0  0
  181.2650  178.2190  135.4970 C   0  0  0  0  0  3  0  0  0  0  0  0
  181.7000  179.8190  139.2830 N   0  0  0  0  0  0  0  0  0  0  0  0
  183.4900  178.5990  140.3730 N   0  0  0  0  0  0  0  0  0  0  0  0
  183.8010  178.0950  137.9550 C   0  0  0  0  0  0  0  0  0  0  0  0
  187.7390  178.0300  140.8260 C   0  0  0  0  0  2  0  0  0  0  0  0
  181.6860  179.3440  138.0750 C   0  0  0  0  0  0  0  0  0  0  0  0
  182.3490  179.2290  140.4210 C   0  0  0  0  0  3  0  0  0  0  0  0
  186.3260  178.5860  140.7520 C   0  0  0  0  0  2  0  0  0  0  0  0
  180.8220  179.5890  135.8060 C   0  0  0  0  0  0  0  0  0  0  0  0
  180.9990  180.1080  137.0220 C   0  0  0  0  0  2  0  0  0  0  0  0
  186.5480  178.1110  138.2830 C   0  0  0  0  0  0  0  0  0  0  0  0
  180.1260  180.3840  134.7630 C   0  0  0  0  0  1  0  0  0  0  0  0
  182.3180  178.0160  137.7540 C   0  0  0  0  0  0  0  0  0  0  0  0
  185.9740  177.8750  137.0750 N   0  0  0  0  0  0  0  0  0  0  0  0
  181.9360  177.4870  136.3900 C   0  0  0  0  0  3  0  0  0  0  0  0
  189.9390  178.2210  139.9460 C   0  0  0  0  0  2  0  0  0  0  0  0
  190.1250  176.8940  140.6780 C   0  0  0  0  0  2  0  0  0  0  0  0
  190.9880  177.1130  141.9030 C   0  0  0  0  0  2  0  0  0  0  0  0
  190.7340  175.7580  143.0850 S   0  0  0  0  0  0  0  0  0  0  0  0
  190.9060  176.8470  144.5300 C   0  0  0  0  0  2  0  0  0  0  0  0
  185.2290  178.4450  145.6640 C   0  0  0  0  0  3  0  0  0  0  0  0
  187.0060  178.1640  147.4050 C   0  0  0  0  0  2  0  0  0  0  0  0
  187.9000  178.0730  146.2560 N   0  0  0  0  0  0  0  0  0  0  0  0
  186.1720  178.0290  144.6020 C   0  0  0  0  0  3  0  0  0  0  0  0
  189.5680  177.3280  144.9680 C   0  0  0  0  0  0  0  0  0  0  0  0
  188.4680  177.4320  144.1160 O   0  0  0  0  0  0  0  0  0  0  0  0
  185.6110  178.5330  146.9500 C   0  0  0  0  0  3  0  0  0  0  0  0
  189.2630  177.6700  146.2240 C   0  0  0  0  0  3  0  0  0  0  0  0
  187.4440  177.8600  144.9370 C   0  0  0  0  0  0  0  0  0  0  0  0
  188.7580  178.6980  137.2720 C   0  0  0  0  0  2  0  0  0  0  0  0
  188.9230  177.5350  135.8850 S   0  0  0  0  0  0  0  0  0  0  0  0
  189.3740  176.1480  136.9710 C   0  0  0  0  0  2  0  0  0  0  0  0
  190.8210  175.9900  137.0310 N   0  0  0  0  0  2  0  0  0  0  0  0
  191.4570  174.7680  137.4150 C   0  0  0  0  0  0  0  0  0  0  0  0
  190.7740  173.7680  137.7610 O   0  0  0  0  0  0  0  0  0  0  0  0
  192.9430  174.6740  137.3870 C   0  0  0  0  0  2  0  0  0  0  0  0
  194.1940  176.6950  136.6410 O   0  0  0  0  0  0  0  0  0  0  0  0
  193.4450  176.5250  138.8020 O   0  0  0  0  0  1  0  0  0  0  0  0
  193.5490  176.0060  137.6600 C   0  0  0  0  0  0  0  0  0  0  0  0
  1 35  1  6  0  0  0
  1  2  1  0  0  0  0
  2 21  1  0  0  0  0
  2 10  1  0  0  0  0
  3 13  1  0  0  0  0
  4  3  1  0  0  0  0
  4  8  1  0  0  0  0
  5 19  2  0  0  0  0
  5  9  1  0  0  0  0
  6 14  2  0  0  0  0
  6 20  1  0  0  0  0
  7 12  1  0  0  0  0
  8 12  2  0  0  0  0
  9  4  2  0  0  0  0
 11  7  2  0  0  0  0
 13 10  1  0  0  0  0
 14 15  1  0  0  0  0
 15 11  1  0  0  0  0
 16  1  1  0  0  0  0
 16  3  2  0  0  0  0
 17 14  1  0  0  0  0
 18  9  1  0  0  0  0
 18 11  1  0  0  0  0
 19 16  1  0  0  0  0
 20 18  2  0  0  0  0
 21 22  1  0  0  0  0
 22 23  1  0  0  0  0
 23 24  1  0  0  0  0
 24 25  1  0  0  0  0
 25 30  1  0  0  0  0
 26 32  2  0  0  0  0
 28 27  1  0  0  0  0
 29 34  2  0  0  0  0
 29 26  1  0  0  0  0
 30 33  2  0  0  0  0
 31 34  1  0  0  0  0
 31 30  1  0  0  0  0
 32 27  1  0  0  0  0
 33 28  1  0  0  0  0
 34 28  1  0  0  0  0
 36 37  1  0  0  0  0
 36 35  1  0  0  0  0
 37 38  1  0  0  0  0
 38 39  1  0  0  0  0
 39 40  2  0  0  0  0
 41 39  1  0  0  0  0
 41 44  1  0  0  0  0
 42 44  2  0  0  0  0
 44 43  1  0  0  0  0
M  END
>  <MODEL>
3

>  <REMARK>
 VINA RESULT:      -7.8      3.091      7.838
  Name = 
  12 active torsions:
  status: ('A' for Active; 'I' for Inactive)
    1  A    between atoms: C_1  and  C_25
    2  A    between atoms: C_1  and  C_34
    3  A    between atoms: S_2  and  C_34
    4  A    between atoms: S_2  and  C_41
    5  A    between atoms: C_3  and  S_8
    6  A    between atoms: C_3  and  N_27
    7  A    between atoms: C_4  and  C_36
    8  A    between atoms: N_5  and  C_25
    9  A    between atoms: S_8  and  C_36
   10  A    between atoms: C_12  and  C_22
   11  A    between atoms: C_12  and  C_31
   12  A    between atoms: C_35  and  C_41
                            x       y       z     vdW  Elec       q    Type
                         _______ _______ _______ _____ _____    ______ ____

>  <TORSDO>
F 12

$$$$
=
 OpenBabel10222416143D

 44 49  0  0  1  0  0  0  0  0999 V2000
  185.4500  178.3150  142.6900 C   0  0  1  0  0  3  0  0  0  0  0  0
  185.4190  178.6820  144.1200 N   0  0  0  0  0  0  0  0  0  0  0  0
  182.9840  178.9330  142.6910 C   0  0  0  0  0  0  0  0  0  0  0  0
  181.8010  179.2170  141.9920 C   0  0  0  0  0  0  0  0  0  0  0  0
  182.9840  178.8630  139.9500 N   0  0  0  0  0  0  0  0  0  0  0  0
  180.5500  179.8830  137.3730 C   0  0  0  0  0  3  0  0  0  0  0  0
  179.5770  181.0830  141.2060 N   0  0  0  0  0  0  0  0  0  0  0  0
  180.6010  179.5000  142.7320 N   0  0  0  0  0  0  0  0  0  0  0  0
  181.8160  179.1450  140.5890 C   0  0  0  0  0  0  0  0  0  0  0  0
  184.1860  178.1990  144.7410 C   0  0  0  0  0  2  0  0  0  0  0  0
  180.0040  180.7140  140.0370 C   0  0  0  0  0  0  0  0  0  0  0  0
  179.6250  180.3040  142.4130 C   0  0  0  0  0  3  0  0  0  0  0  0
  183.0060  178.9850  144.1940 C   0  0  0  0  0  2  0  0  0  0  0  0
  180.1860  181.2780  137.6710 C   0  0  0  0  0  0  0  0  0  0  0  0
  179.9080  181.6630  138.9170 C   0  0  0  0  0  2  0  0  0  0  0  0
  184.1650  178.6780  141.9730 C   0  0  0  0  0  0  0  0  0  0  0  0
  180.0810  182.2580  136.5600 C   0  0  0  0  0  1  0  0  0  0  0  0
  180.5490  179.3290  139.8090 C   0  0  0  0  0  0  0  0  0  0  0  0
  184.1150  178.6370  140.6170 N   0  0  0  0  0  0  0  0  0  0  0  0
  180.7020  178.9800  138.3460 C   0  0  0  0  0  3  0  0  0  0  0  0
  186.5600  178.0910  144.8370 C   0  0  0  0  0  2  0  0  0  0  0  0
  186.1800  177.5050  146.1960 C   0  0  0  0  0  2  0  0  0  0  0  0
  186.8250  178.3250  147.2930 C   0  0  0  0  0  2  0  0  0  0  0  0
  187.7570  177.2360  148.4080 S   0  0  0  0  0  0  0  0  0  0  0  0
  189.3220  178.1190  148.1310 C   0  0  0  0  0  2  0  0  0  0  0  0
  191.4320  177.7740  142.5190 C   0  0  0  0  0  3  0  0  0  0  0  0
  191.6250  175.9560  144.2290 C   0  0  0  0  0  2  0  0  0  0  0  0
  190.7060  176.7910  144.9950 N   0  0  0  0  0  0  0  0  0  0  0  0
  190.7700  178.6610  143.5020 C   0  0  0  0  0  3  0  0  0  0  0  0
  189.8260  177.8440  146.7590 C   0  0  0  0  0  0  0  0  0  0  0  0
  189.8670  178.8020  145.7450 O   0  0  0  0  0  0  0  0  0  0  0  0
  191.8060  176.5240  142.8380 C   0  0  0  0  0  3  0  0  0  0  0  0
  190.3290  176.6720  146.3600 C   0  0  0  0  0  3  0  0  0  0  0  0
  190.4430  178.1410  144.6790 C   0  0  0  0  0  0  0  0  0  0  0  0
  186.6490  178.9680  142.0100 C   0  0  0  0  0  2  0  0  0  0  0  0
  187.8410  177.6880  141.5200 S   0  0  0  0  0  0  0  0  0  0  0  0
  187.7590  178.1430  139.7610 C   0  0  0  0  0  2  0  0  0  0  0  0
  188.6360  177.2930  138.9670 N   0  0  0  0  0  2  0  0  0  0  0  0
  189.4180  177.7820  137.8750 C   0  0  0  0  0  0  0  0  0  0  0  0
  189.3490  178.9900  137.5240 O   0  0  0  0  0  0  0  0  0  0  0  0
  190.3370  176.8560  137.1570 C   0  0  0  0  0  2  0  0  0  0  0  0
  191.1790  174.7260  138.1360 O   0  0  0  0  0  0  0  0  0  0  0  0
  191.9360  176.7420  138.9220 O   0  0  0  0  0  1  0  0  0  0  0  0
  191.1850  176.1140  138.1300 C   0  0  0  0  0  0  0  0  0  0  0  0
  1 35  1  6  0  0  0
  1  2  1  0  0  0  0
  2 10  1  0  0  0  0
  2 21  1  0  0  0  0
  3 13  1  0  0  0  0
  4  3  1  0  0  0  0
  4  8  1  0  0  0  0
  5  9  1  0  0  0  0
  5 19  2  0  0  0  0
  6 14  2  0  0  0  0
  6 20  1  0  0  0  0
  7 12  1  0  0  0  0
  9  4  2  0  0  0  0
 11  7  2  0  0  0  0
 12  8  2  0  0  0  0
 13 10  1  0  0  0  0
 14 15  1  0  0  0  0
 15 11  1  0  0  0  0
 16  1  1  0  0  0  0
 16  3  2  0  0  0  0
 17 14  1  0  0  0  0
 18 11  1  0  0  0  0
 18  9  1  0  0  0  0
 19 16  1  0  0  0  0
 20 18  2  0  0  0  0
 21 22  1  0  0  0  0
 22 23  1  0  0  0  0
 23 24  1  0  0  0  0
 25 24  1  0  0  0  0
 26 32  2  0  0  0  0
 26 29  1  0  0  0  0
 27 28  1  0  0  0  0
 28 33  1  0  0  0  0
 29 34  2  0  0  0  0
 30 25  1  0  0  0  0
 31 30  1  0  0  0  0
 32 27  1  0  0  0  0
 33 30  2  0  0  0  0
 34 28  1  0  0  0  0
 34 31  1  0  0  0  0
 36 35  1  0  0  0  0
 37 36  1  0  0  0  0
 38 37  1  0  0  0  0
 39 38  1  0  0  0  0
 40 39  2  0  0  0  0
 41 39  1  0  0  0  0
 41 44  1  0  0  0  0
 44 42  2  0  0  0  0
 44 43  1  0  0  0  0
M  END
>  <MODEL>
4

>  <REMARK>
 VINA RESULT:      -7.8      4.157      9.685
  Name = 
  12 active torsions:
  status: ('A' for Active; 'I' for Inactive)
    1  A    between atoms: C_1  and  C_25
    2  A    between atoms: C_1  and  C_34
    3  A    between atoms: S_2  and  C_34
    4  A    between atoms: S_2  and  C_41
    5  A    between atoms: C_3  and  S_8
    6  A    between atoms: C_3  and  N_27
    7  A    between atoms: C_4  and  C_36
    8  A    between atoms: N_5  and  C_25
    9  A    between atoms: S_8  and  C_36
   10  A    between atoms: C_12  and  C_22
   11  A    between atoms: C_12  and  C_31
   12  A    between atoms: C_35  and  C_41
                            x       y       z     vdW  Elec       q    Type
                         _______ _______ _______ _____ _____    ______ ____

>  <TORSDO>
F 12

$$$$
=
 OpenBabel10222416143D

 44 49  0  0  1  0  0  0  0  0999 V2000
  184.2310  178.8000  142.5960 C   0  0  1  0  0  3  0  0  0  0  0  0
  183.0540  178.5410  143.4490 N   0  0  0  0  0  0  0  0  0  0  0  0
  185.5800  178.5320  144.7360 C   0  0  0  0  0  0  0  0  0  0  0  0
  186.8130  178.3660  145.3820 C   0  0  0  0  0  0  0  0  0  0  0  0
  187.8800  178.4090  143.2480 N   0  0  0  0  0  0  0  0  0  0  0  0
  191.3820  177.5580  144.0340 C   0  0  0  0  0  3  0  0  0  0  0  0
  188.7110  176.7760  147.0890 N   0  0  0  0  0  0  0  0  0  0  0  0
  186.8480  178.3040  146.8190 N   0  0  0  0  0  0  0  0  0  0  0  0
  187.9820  178.3370  144.6030 C   0  0  0  0  0  0  0  0  0  0  0  0
  183.1930  179.2330  144.7300 C   0  0  0  0  0  2  0  0  0  0  0  0
  189.4550  176.9990  146.0490 C   0  0  0  0  0  0  0  0  0  0  0  0
  187.6590  177.6230  147.5800 C   0  0  0  0  0  3  0  0  0  0  0  0
  184.3070  178.5810  145.5340 C   0  0  0  0  0  2  0  0  0  0  0  0
  191.3530  176.2520  144.7110 C   0  0  0  0  0  0  0  0  0  0  0  0
  190.4640  175.9970  145.6720 C   0  0  0  0  0  3  0  0  0  0  0  0
  185.5370  178.5690  143.3310 C   0  0  0  0  0  0  0  0  0  0  0  0
  192.3590  175.2210  144.3510 C   0  0  0  0  0  1  0  0  0  0  0  0
  189.3280  178.2760  145.2610 C   0  0  1  0  0  3  0  0  0  0  0  0
  186.7030  178.5220  142.6350 N   0  0  0  0  0  0  0  0  0  0  0  0
  190.4680  178.4970  144.2930 C   0  0  0  0  0  3  0  0  0  0  0  0
  181.8230  179.0170  142.7990 C   0  0  0  0  0  2  0  0  0  0  0  0
  180.5500  178.5330  143.4900 C   0  0  0  0  0  2  0  0  0  0  0  0
  179.3890  178.6230  142.5230 C   0  0  0  0  0  2  0  0  0  0  0  0
  180.0090  178.9230  140.8430 S   0  0  0  0  0  0  0  0  0  0  0  0
  179.7860  177.1910  140.3390 C   0  0  0  0  0  2  0  0  0  0  0  0
  183.6340  176.5880  135.7670 C   0  0  0  0  0  3  0  0  0  0  0  0
  183.4130  174.9740  137.6690 C   0  0  0  0  0  2  0  0  0  0  0  0
  182.2260  175.7570  137.9930 N   0  0  0  0  0  0  0  0  0  0  0  0
  182.6130  177.4740  136.3710 C   0  0  0  0  0  3  0  0  0  0  0  0
  180.7320  176.8540  139.2410 C   0  0  0  0  0  0  0  0  0  0  0  0
  181.0190  177.7110  138.1780 O   0  0  0  0  0  0  0  0  0  0  0  0
  183.9890  175.4270  136.3440 C   0  0  0  0  0  3  0  0  0  0  0  0
  181.4360  175.7200  139.1740 C   0  0  0  0  0  3  0  0  0  0  0  0
  181.9660  177.0300  137.4410 C   0  0  0  0  0  0  0  0  0  0  0  0
  184.1630  177.9420  141.3380 C   0  0  0  0  0  2  0  0  0  0  0  0
  183.9400  179.0090  139.8850 S   0  0  0  0  0  0  0  0  0  0  0  0
  185.2100  178.1330  138.9220 C   0  0  0  0  0  2  0  0  0  0  0  0
  186.5420  178.6110  139.2710 N   0  0  0  0  0  2  0  0  0  0  0  0
  187.7410  178.0140  138.7710 C   0  0  0  0  0  0  0  0  0  0  0  0
  187.6920  177.0040  138.0200 O   0  0  0  0  0  0  0  0  0  0  0  0
  189.0600  178.6050  139.1280 C   0  0  0  0  0  2  0  0  0  0  0  0
  189.7540  176.9720  140.8770 O   0  0  0  0  0  1  0  0  0  0  0  0
  190.9360  177.1500  138.9200 O   0  0  0  0  0  0  0  0  0  0  0  0
  189.9790  177.5490  139.6340 C   0  0  0  0  0  0  0  0  0  0  0  0
  1 35  1  6  0  0  0
  1 16  1  0  0  0  0
  1  2  1  0  0  0  0
  2 10  1  0  0  0  0
  3  4  1  0  0  0  0
  3 13  1  0  0  0  0
  4  8  1  0  0  0  0
  5  9  1  0  0  0  0
  6 20  2  0  0  0  0
  6 14  1  0  0  0  0
  7 12  1  0  0  0  0
  8 12  2  0  0  0  0
  9 18  1  0  0  0  0
  9  4  2  0  0  0  0
 10 13  1  0  0  0  0
 11  7  2  0  0  0  0
 14 15  2  0  0  0  0
 15 11  1  0  0  0  0
 16  3  2  0  0  0  0
 17 14  1  0  0  0  0
 18 20  1  6  0  0  0
 18 11  1  0  0  0  0
 19  5  2  0  0  0  0
 19 16  1  0  0  0  0
 21  2  1  0  0  0  0
 21 22  1  0  0  0  0
 23 22  1  0  0  0  0
 24 23  1  0  0  0  0
 25 24  1  0  0  0  0
 26 32  2  0  0  0  0
 26 29  1  0  0  0  0
 27 28  1  0  0  0  0
 28 33  1  0  0  0  0
 29 34  2  0  0  0  0
 30 25  1  0  0  0  0
 31 30  1  0  0  0  0
 32 27  1  0  0  0  0
 33 30  2  0  0  0  0
 34 28  1  0  0  0  0
 34 31  1  0  0  0  0
 36 35  1  0  0  0  0
 37 38  1  0  0  0  0
 37 36  1  0  0  0  0
 39 41  1  0  0  0  0
 39 38  1  0  0  0  0
 40 39  2  0  0  0  0
 41 44  1  0  0  0  0
 43 44  2  0  0  0  0
 44 42  1  0  0  0  0
M  END
>  <MODEL>
5

>  <REMARK>
 VINA RESULT:      -7.5      4.095      6.760
  Name = 
  12 active torsions:
  status: ('A' for Active; 'I' for Inactive)
    1  A    between atoms: C_1  and  C_25
    2  A    between atoms: C_1  and  C_34
    3  A    between atoms: S_2  and  C_34
    4  A    between atoms: S_2  and  C_41
    5  A    between atoms: C_3  and  S_8
    6  A    between atoms: C_3  and  N_27
    7  A    between atoms: C_4  and  C_36
    8  A    between atoms: N_5  and  C_25
    9  A    between atoms: S_8  and  C_36
   10  A    between atoms: C_12  and  C_22
   11  A    between atoms: C_12  and  C_31
   12  A    between atoms: C_35  and  C_41
                            x       y       z     vdW  Elec       q    Type
                         _______ _______ _______ _____ _____    ______ ____

>  <TORSDO>
F 12

$$$$
=
 OpenBabel10222416143D

 44 49  0  0  1  0  0  0  0  0999 V2000
  184.0440  178.8110  142.0590 C   0  0  1  0  0  3  0  0  0  0  0  0
  182.8280  178.5810  142.8650 N   0  0  0  0  0  0  0  0  0  0  0  0
  185.2920  178.6050  144.2650 C   0  0  0  0  0  0  0  0  0  0  0  0
  186.4940  178.4560  144.9730 C   0  0  0  0  0  0  0  0  0  0  0  0
  187.6580  178.4330  142.8900 N   0  0  0  0  0  0  0  0  0  0  0  0
  191.1180  177.6000  143.8610 C   0  0  0  0  0  3  0  0  0  0  0  0
  188.3070  176.9160  146.8130 N   0  0  0  0  0  0  0  0  0  0  0  0
  186.4630  178.4390  146.4110 N   0  0  0  0  0  0  0  0  0  0  0  0
  187.6980  178.4020  144.2500 C   0  0  0  0  0  0  0  0  0  0  0  0
  182.9110  179.3100  144.1290 C   0  0  0  0  0  2  0  0  0  0  0  0
  189.0980  177.1060  145.8010 C   0  0  0  0  0  0  0  0  0  0  0  0
  187.2360  177.7790  147.2280 C   0  0  0  0  0  3  0  0  0  0  0  0
  183.9840  178.6820  145.0030 C   0  0  0  0  0  2  0  0  0  0  0  0
  191.0530  176.3150  144.5750 C   0  0  0  0  0  0  0  0  0  0  0  0
  190.1200  176.0910  145.5010 C   0  0  0  0  0  3  0  0  0  0  0  0
  185.3140  178.6000  142.8590 C   0  0  0  0  0  0  0  0  0  0  0  0
  192.0710  175.2710  144.2930 C   0  0  0  0  0  1  0  0  0  0  0  0
  189.0110  178.3590  144.9700 C   0  0  1  0  0  3  0  0  0  0  0  0
  186.5100  178.5290  142.2200 N   0  0  0  0  0  0  0  0  0  0  0  0
  190.1960  178.5480  144.0490 C   0  0  0  0  0  3  0  0  0  0  0  0
  181.6300  179.0390  142.1440 C   0  0  0  0  0  2  0  0  0  0  0  0
  180.3250  178.6720  142.8490 C   0  0  0  0  0  2  0  0  0  0  0  0
  179.1540  179.0610  141.9720 C   0  0  0  0  0  2  0  0  0  0  0  0
  179.7410  179.4470  140.2970 S   0  0  0  0  0  0  0  0  0  0  0  0
  178.9500  181.0830  140.2840 C   0  0  0  0  0  2  0  0  0  0  0  0
  180.8130  184.6130  135.7960 C   0  0  0  0  0  3  0  0  0  0  0  0
  180.4670  182.1400  135.6170 C   0  0  0  0  0  2  0  0  0  0  0  0
  179.8470  182.2870  136.9280 N   0  0  0  0  0  0  0  0  0  0  0  0
  180.4550  184.5810  137.2320 C   0  0  0  0  0  3  0  0  0  0  0  0
  179.3370  181.8260  139.0550 C   0  0  0  0  0  0  0  0  0  0  0  0
  179.6540  183.1850  139.0410 O   0  0  0  0  0  0  0  0  0  0  0  0
  180.7980  183.5010  135.0420 C   0  0  0  0  0  3  0  0  0  0  0  0
  179.4630  181.2710  137.8450 C   0  0  0  0  0  3  0  0  0  0  0  0
  179.9970  183.4390  137.7290 C   0  0  0  0  0  0  0  0  0  0  0  0
  184.0310  177.9150  140.8260 C   0  0  0  0  0  2  0  0  0  0  0  0
  183.8630  178.9380  139.3330 S   0  0  0  0  0  0  0  0  0  0  0  0
  185.1180  177.9880  138.4210 C   0  0  0  0  0  2  0  0  0  0  0  0
  186.4390  178.5720  138.6040 N   0  0  0  0  0  2  0  0  0  0  0  0
  187.6510  177.8590  138.3420 C   0  0  0  0  0  0  0  0  0  0  0  0
  187.6210  176.6560  137.9700 O   0  0  0  0  0  0  0  0  0  0  0  0
  188.9590  178.5530  138.4950 C   0  0  0  0  0  2  0  0  0  0  0  0
  189.7930  177.3270  140.4970 O   0  0  0  0  0  1  0  0  0  0  0  0
  190.8950  177.1620  138.4920 O   0  0  0  0  0  0  0  0  0  0  0  0
  189.9450  177.6560  139.1560 C   0  0  0  0  0  0  0  0  0  0  0  0
  1 35  1  6  0  0  0
  1 16  1  0  0  0  0
  1  2  1  0  0  0  0
  2 10  1  0  0  0  0
  3  4  1  0  0  0  0
  3 13  1  0  0  0  0
  4  8  1  0  0  0  0
  5  9  1  0  0  0  0
  6 20  2  0  0  0  0
  6 14  1  0  0  0  0
  7 12  1  0  0  0  0
  8 12  2  0  0  0  0
  9 18  1  0  0  0  0
  9  4  2  0  0  0  0
 10 13  1  0  0  0  0
 11  7  2  0  0  0  0
 14 15  2  0  0  0  0
 15 11  1  0  0  0  0
 16  3  2  0  0  0  0
 17 14  1  0  0  0  0
 18 20  1  6  0  0  0
 18 11  1  0  0  0  0
 19 16  1  0  0  0  0
 19  5  2  0  0  0  0
 21 22  1  0  0  0  0
 21  2  1  0  0  0  0
 23 22  1  0  0  0  0
 24 23  1  0  0  0  0
 25 24  1  0  0  0  0
 26 29  1  0  0  0  0
 27 28  1  0  0  0  0
 28 34  1  0  0  0  0
 28 33  1  0  0  0  0
 29 34  2  0  0  0  0
 30 25  1  0  0  0  0
 31 30  1  0  0  0  0
 32 27  1  0  0  0  0
 32 26  2  0  0  0  0
 33 30  2  0  0  0  0
 34 31  1  0  0  0  0
 36 35  1  0  0  0  0
 37 38  1  0  0  0  0
 37 36  1  0  0  0  0
 39 41  1  0  0  0  0
 39 38  1  0  0  0  0
 40 39  2  0  0  0  0
 41 44  1  0  0  0  0
 43 44  2  0  0  0  0
 44 42  1  0  0  0  0
M  END
>  <MODEL>
6

>  <REMARK>
 VINA RESULT:      -7.5      4.374      7.409
  Name = 
  12 active torsions:
  status: ('A' for Active; 'I' for Inactive)
    1  A    between atoms: C_1  and  C_25
    2  A    between atoms: C_1  and  C_34
    3  A    between atoms: S_2  and  C_34
    4  A    between atoms: S_2  and  C_41
    5  A    between atoms: C_3  and  S_8
    6  A    between atoms: C_3  and  N_27
    7  A    between atoms: C_4  and  C_36
    8  A    between atoms: N_5  and  C_25
    9  A    between atoms: S_8  and  C_36
   10  A    between atoms: C_12  and  C_22
   11  A    between atoms: C_12  and  C_31
   12  A    between atoms: C_35  and  C_41
                            x       y       z     vdW  Elec       q    Type
                         _______ _______ _______ _____ _____    ______ ____

>  <TORSDO>
F 12

$$$$
=
 OpenBabel10222416143D

 44 49  0  0  1  0  0  0  0  0999 V2000
  184.8400  178.4830  139.5290 C   0  0  1  0  0  3  0  0  0  0  0  0
  184.8470  178.5960  141.0020 N   0  0  0  0  0  0  0  0  0  0  0  0
  187.3510  178.1510  139.7510 C   0  0  0  0  0  0  0  0  0  0  0  0
  188.5830  177.7800  139.1910 C   0  0  0  0  0  0  0  0  0  0  0  0
  187.4570  177.3420  137.1330 N   0  0  0  0  0  0  0  0  0  0  0  0
  190.0790  175.8050  135.0430 C   0  0  0  0  0  3  0  0  0  0  0  0
  191.0010  175.9970  139.0670 N   0  0  0  0  0  0  0  0  0  0  0  0
  189.7730  177.8710  139.9930 N   0  0  0  0  0  0  0  0  0  0  0  0
  188.6190  177.3990  137.8390 C   0  0  0  0  0  0  0  0  0  0  0  0
  186.0030  179.3750  141.4450 C   0  0  0  0  0  2  0  0  0  0  0  0
  190.5900  175.9270  137.8380 C   0  0  0  0  0  0  0  0  0  0  0  0
  190.8320  177.1110  139.9590 C   0  0  0  0  0  3  0  0  0  0  0  0
  187.2730  178.5790  141.1900 C   0  0  0  0  0  2  0  0  0  0  0  0
  190.5590  174.6220  135.7770 C   0  0  0  0  0  0  0  0  0  0  0  0
  190.8200  174.6850  137.0830 C   0  0  0  0  0  2  0  0  0  0  0  0
  186.1820  178.0420  138.9790 C   0  0  0  0  0  0  0  0  0  0  0  0
  190.7990  173.3550  135.0410 C   0  0  0  0  0  1  0  0  0  0  0  0
  189.9280  177.1050  137.1710 C   0  0  0  0  0  0  0  0  0  0  0  0
  186.2830  177.6520  137.6810 N   0  0  0  0  0  0  0  0  0  0  0  0
  189.8040  176.9500  135.6720 C   0  0  0  0  0  3  0  0  0  0  0  0
  183.6280  179.2660  141.4800 C   0  0  0  0  0  2  0  0  0  0  0  0
  182.7710  178.3840  142.3860 C   0  0  0  0  0  2  0  0  0  0  0  0
  182.6430  179.0380  143.7460 C   0  0  0  0  0  2  0  0  0  0  0  0
  184.2420  179.7390  144.2460 S   0  0  0  0  0  0  0  0  0  0  0  0
  184.4000  178.6290  145.6770 C   0  0  0  0  0  2  0  0  0  0  0  0
  190.2060  177.0990  145.5590 C   0  0  0  0  0  3  0  0  0  0  0  0
  188.9150  177.6400  147.6350 C   0  0  0  0  0  2  0  0  0  0  0  0
  187.7610  177.5930  146.7440 N   0  0  0  0  0  0  0  0  0  0  0  0
  189.0210  177.3870  144.7200 C   0  0  0  0  0  3  0  0  0  0  0  0
  185.8130  178.1880  145.8270 C   0  0  0  0  0  0  0  0  0  0  0  0
  186.6670  177.9520  144.7480 O   0  0  0  0  0  0  0  0  0  0  0  0
  190.1590  177.1890  146.8990 C   0  0  0  0  0  3  0  0  0  0  0  0
  186.4270  178.0100  147.0000 C   0  0  0  0  0  3  0  0  0  0  0  0
  187.8700  177.6200  145.3370 C   0  0  0  0  0  0  0  0  0  0  0  0
  183.7370  177.5290  139.0840 C   0  0  0  0  0  2  0  0  0  0  0  0
  182.7140  178.3320  137.8160 S   0  0  0  0  0  0  0  0  0  0  0  0
  182.8010  176.9010  136.6970 C   0  0  0  0  0  2  0  0  0  0  0  0
  183.3280  175.7350  137.3930 N   0  0  0  0  0  2  0  0  0  0  0  0
  184.2380  174.8120  136.7900 C   0  0  0  0  0  0  0  0  0  0  0  0
  184.6000  174.9540  135.5920 O   0  0  0  0  0  0  0  0  0  0  0  0
  184.7780  173.6810  137.5950 C   0  0  0  0  0  2  0  0  0  0  0  0
  185.9900  172.0680  136.1340 O   0  0  0  0  0  0  0  0  0  0  0  0
  187.1280  173.7460  137.2040 O   0  0  0  0  0  1  0  0  0  0  0  0
  186.0330  173.1660  136.9830 C   0  0  0  0  0  0  0  0  0  0  0  0
  1 35  1  1  0  0  0
  1  2  1  0  0  0  0
  2 10  1  0  0  0  0
  2 21  1  0  0  0  0
  3 13  1  0  0  0  0
  4  3  1  0  0  0  0
  4  8  1  0  0  0  0
  5 19  2  0  0  0  0
  5  9  1  0  0  0  0
  6 20  1  0  0  0  0
  6 14  2  0  0  0  0
  7 12  1  0  0  0  0
  9  4  2  0  0  0  0
 11  7  2  0  0  0  0
 12  8  2  0  0  0  0
 13 10  1  0  0  0  0
 14 15  1  0  0  0  0
 15 11  1  0  0  0  0
 16  1  1  0  0  0  0
 16  3  2  0  0  0  0
 17 14  1  0  0  0  0
 18 11  1  0  0  0  0
 18  9  1  0  0  0  0
 19 16  1  0  0  0  0
 20 18  2  0  0  0  0
 21 22  1  0  0  0  0
 22 23  1  0  0  0  0
 23 24  1  0  0  0  0
 24 25  1  0  0  0  0
 25 30  1  0  0  0  0
 26 32  2  0  0  0  0
 28 33  1  0  0  0  0
 28 27  1  0  0  0  0
 29 34  2  0  0  0  0
 29 26  1  0  0  0  0
 30 33  2  0  0  0  0
 31 34  1  0  0  0  0
 31 30  1  0  0  0  0
 32 27  1  0  0  0  0
 34 28  1  0  0  0  0
 36 35  1  0  0  0  0
 37 38  1  0  0  0  0
 37 36  1  0  0  0  0
 39 38  1  0  0  0  0
 39 41  1  0  0  0  0
 40 39  2  0  0  0  0
 42 44  2  0  0  0  0
 44 43  1  0  0  0  0
 44 41  1  0  0  0  0
M  END
>  <MODEL>
7

>  <REMARK>
 VINA RESULT:      -7.3      4.098      8.967
  Name = 
  12 active torsions:
  status: ('A' for Active; 'I' for Inactive)
    1  A    between atoms: C_1  and  C_25
    2  A    between atoms: C_1  and  C_34
    3  A    between atoms: S_2  and  C_34
    4  A    between atoms: S_2  and  C_41
    5  A    between atoms: C_3  and  S_8
    6  A    between atoms: C_3  and  N_27
    7  A    between atoms: C_4  and  C_36
    8  A    between atoms: N_5  and  C_25
    9  A    between atoms: S_8  and  C_36
   10  A    between atoms: C_12  and  C_22
   11  A    between atoms: C_12  and  C_31
   12  A    between atoms: C_35  and  C_41
                            x       y       z     vdW  Elec       q    Type
                         _______ _______ _______ _____ _____    ______ ____

>  <TORSDO>
F 12

$$$$
=
 OpenBabel10222416143D

 44 49  0  0  1  0  0  0  0  0999 V2000
  184.4960  178.6380  140.1750 C   0  0  1  0  0  3  0  0  0  0  0  0
  184.5900  178.6410  141.6490 N   0  0  0  0  0  0  0  0  0  0  0  0
  187.0140  178.2820  140.2240 C   0  0  0  0  0  0  0  0  0  0  0  0
  188.2070  177.9490  139.5660 C   0  0  0  0  0  0  0  0  0  0  0  0
  186.9600  177.6710  137.5510 N   0  0  0  0  0  0  0  0  0  0  0  0
  189.4420  176.2850  135.2010 C   0  0  0  0  0  3  0  0  0  0  0  0
  190.6000  176.1710  139.1670 N   0  0  0  0  0  0  0  0  0  0  0  0
  189.4430  177.9750  140.3020 N   0  0  0  0  0  0  0  0  0  0  0  0
  188.1610  177.6700  138.1890 C   0  0  0  0  0  0  0  0  0  0  0  0
  185.7770  179.3790  142.0810 C   0  0  0  0  0  2  0  0  0  0  0  0
  190.1170  176.1960  137.9620 C   0  0  0  0  0  0  0  0  0  0  0  0
  190.4910  177.2150  140.1480 C   0  0  0  0  0  3  0  0  0  0  0  0
  187.0230  178.6000  141.6930 C   0  0  0  0  0  2  0  0  0  0  0  0
  189.9550  175.0500  135.8140 C   0  0  0  0  0  0  0  0  0  0  0  0
  190.2920  175.0130  137.1040 C   0  0  0  0  0  2  0  0  0  0  0  0
  185.8000  178.2350  139.5150 C   0  0  0  0  0  0  0  0  0  0  0  0
  190.1420  173.8400  134.9730 C   0  0  0  0  0  1  0  0  0  0  0  0
  189.4270  177.4220  137.4260 C   0  0  0  0  0  0  0  0  0  0  0  0
  185.8220  177.9440  138.1890 N   0  0  0  0  0  0  0  0  0  0  0  0
  189.2140  177.3820  135.9290 C   0  0  0  0  0  3  0  0  0  0  0  0
  183.4070  179.2770  142.2470 C   0  0  0  0  0  2  0  0  0  0  0  0
  183.2660  179.0050  143.7440 C   0  0  0  0  0  2  0  0  0  0  0  0
  184.5050  178.2910  144.2420 C   0  0  0  0  0  2  0  0  0  0  0  0
  185.3040  179.2770  145.5400 S   0  0  0  0  0  0  0  0  0  0  0  0
  185.8180  177.8110  146.4840 C   0  0  0  0  0  2  0  0  0  0  0  0
  191.6890  176.5430  146.4780 C   0  0  0  0  0  3  0  0  0  0  0  0
  190.2900  176.8320  144.4220 C   0  0  0  0  0  2  0  0  0  0  0  0
  189.2830  177.3130  145.3620 N   0  0  0  0  0  0  0  0  0  0  0  0
  190.5030  176.7460  147.3410 C   0  0  0  0  0  3  0  0  0  0  0  0
  187.2780  177.5790  146.3100 C   0  0  0  0  0  0  0  0  0  0  0  0
  188.1470  177.3070  147.3670 O   0  0  0  0  0  0  0  0  0  0  0  0
  191.6040  176.6050  145.1390 C   0  0  0  0  0  3  0  0  0  0  0  0
  187.9040  177.5660  145.1300 C   0  0  0  0  0  3  0  0  0  0  0  0
  189.3700  177.1130  146.7560 C   0  0  0  0  0  0  0  0  0  0  0  0
  183.3610  177.7250  139.7260 C   0  0  0  0  0  2  0  0  0  0  0  0
  182.5860  178.4080  138.2320 S   0  0  0  0  0  0  0  0  0  0  0  0
  182.5900  180.1060  138.8850 C   0  0  0  0  0  2  0  0  0  0  0  0
  181.9210  181.0140  137.9640 N   0  0  0  0  0  2  0  0  0  0  0  0
  180.7520  181.7590  138.3130 C   0  0  0  0  0  0  0  0  0  0  0  0
  180.2210  181.6280  139.4480 O   0  0  0  0  0  0  0  0  0  0  0  0
  180.1690  182.7140  137.3310 C   0  0  0  0  0  2  0  0  0  0  0  0
  179.9170  185.1030  137.9910 O   0  0  0  0  0  1  0  0  0  0  0  0
  181.9590  184.2890  137.3400 O   0  0  0  0  0  0  0  0  0  0  0  0
  180.7340  184.0760  137.5380 C   0  0  0  0  0  0  0  0  0  0  0  0
  1 35  1  1  0  0  0
  1  2  1  0  0  0  0
  2 10  1  0  0  0  0
  2 21  1  0  0  0  0
  3 13  1  0  0  0  0
  4  3  1  0  0  0  0
  4  8  1  0  0  0  0
  5  9  1  0  0  0  0
  5 19  2  0  0  0  0
  6 14  2  0  0  0  0
  6 20  1  0  0  0  0
  7 12  1  0  0  0  0
  9  4  2  0  0  0  0
 11  7  2  0  0  0  0
 12  8  2  0  0  0  0
 13 10  1  0  0  0  0
 14 15  1  0  0  0  0
 15 11  1  0  0  0  0
 16  1  1  0  0  0  0
 16  3  2  0  0  0  0
 17 14  1  0  0  0  0
 18 11  1  0  0  0  0
 18  9  1  0  0  0  0
 19 16  1  0  0  0  0
 20 18  2  0  0  0  0
 21 22  1  0  0  0  0
 22 23  1  0  0  0  0
 23 24  1  0  0  0  0
 24 25  1  0  0  0  0
 26 29  1  0  0  0  0
 27 32  1  0  0  0  0
 27 28  1  0  0  0  0
 28 34  1  0  0  0  0
 30 25  1  0  0  0  0
 30 31  1  0  0  0  0
 32 26  2  0  0  0  0
 33 28  1  0  0  0  0
 33 30  2  0  0  0  0
 34 29  2  0  0  0  0
 34 31  1  0  0  0  0
 36 37  1  0  0  0  0
 36 35  1  0  0  0  0
 38 39  1  0  0  0  0
 38 37  1  0  0  0  0
 39 40  2  0  0  0  0
 41 44  1  0  0  0  0
 41 39  1  0  0  0  0
 43 44  2  0  0  0  0
 44 42  1  0  0  0  0
M  END
>  <MODEL>
8

>  <REMARK>
 VINA RESULT:      -7.3      4.597     10.673
  Name = 
  12 active torsions:
  status: ('A' for Active; 'I' for Inactive)
    1  A    between atoms: C_1  and  C_25
    2  A    between atoms: C_1  and  C_34
    3  A    between atoms: S_2  and  C_34
    4  A    between atoms: S_2  and  C_41
    5  A    between atoms: C_3  and  S_8
    6  A    between atoms: C_3  and  N_27
    7  A    between atoms: C_4  and  C_36
    8  A    between atoms: N_5  and  C_25
    9  A    between atoms: S_8  and  C_36
   10  A    between atoms: C_12  and  C_22
   11  A    between atoms: C_12  and  C_31
   12  A    between atoms: C_35  and  C_41
                            x       y       z     vdW  Elec       q    Type
                         _______ _______ _______ _____ _____    ______ ____

>  <TORSDO>
F 12

$$$$
=
 OpenBabel10222416143D

 44 49  0  0  1  0  0  0  0  0999 V2000
  189.2160  178.1660  138.9110 C   0  0  1  0  0  3  0  0  0  0  0  0
  190.2280  177.1890  139.3600 N   0  0  0  0  0  0  0  0  0  0  0  0
  188.1990  176.2140  137.6370 C   0  0  0  0  0  0  0  0  0  0  0  0
  187.1340  175.6570  136.9150 C   0  0  0  0  0  0  0  0  0  0  0  0
  185.9450  177.7080  137.1820 N   0  0  0  0  0  0  0  0  0  0  0  0
  182.6010  176.9340  135.8330 C   0  0  0  0  0  3  0  0  0  0  0  0
  184.9520  173.6160  136.5730 N   0  0  0  0  0  0  0  0  0  0  0  0
  187.2640  174.3230  136.3920 N   0  0  0  0  0  0  0  0  0  0  0  0
  186.0020  176.4510  136.6660 C   0  0  0  0  0  0  0  0  0  0  0  0
  190.6060  176.3060  138.2570 C   0  0  0  0  0  2  0  0  0  0  0  0
  184.2740  174.7150  136.4360 C   0  0  0  0  0  0  0  0  0  0  0  0
  186.3350  173.4220  136.2350 C   0  0  0  0  0  3  0  0  0  0  0  0
  189.4340  175.4020  137.9120 C   0  0  0  0  0  2  0  0  0  0  0  0
  182.0920  175.7910  136.6080 C   0  0  0  0  0  0  0  0  0  0  0  0
  182.8700  174.7400  136.8720 C   0  0  0  0  0  3  0  0  0  0  0  0
  188.0690  177.5090  138.1700 C   0  0  2  0  0  3  0  0  0  0  0  0
  180.6780  175.7890  137.0630 C   0  0  0  0  0  1  0  0  0  0  0  0
  184.8910  175.9340  135.8020 C   0  0  0  0  0  0  0  0  0  0  0  0
  186.9410  178.2180  137.9060 N   0  0  0  0  0  0  0  0  0  0  0  0
  183.8780  176.9980  135.4450 C   0  0  0  0  0  3  0  0  0  0  0  0
  191.4380  177.8740  139.8400 C   0  0  0  0  0  2  0  0  0  0  0  0
  192.1470  177.1250  140.9670 C   0  0  0  0  0  2  0  0  0  0  0  0
  191.1690  176.8750  142.0960 C   0  0  0  0  0  2  0  0  0  0  0  0
  191.6610  177.8290  143.5600 S   0  0  0  0  0  0  0  0  0  0  0  0
  190.8980  176.6500  144.7140 C   0  0  0  0  0  2  0  0  0  0  0  0
  185.3160  178.4020  146.0730 C   0  0  0  0  0  3  0  0  0  0  0  0
  187.2000  178.2410  147.7140 C   0  0  0  0  0  2  0  0  0  0  0  0
  188.0180  178.0470  146.5220 N   0  0  0  0  0  0  0  0  0  0  0  0
  186.1850  177.8890  144.9910 C   0  0  0  0  0  3  0  0  0  0  0  0
  189.5940  177.1810  145.1960 C   0  0  0  0  0  0  0  0  0  0  0  0
  188.4420  177.2290  144.4100 O   0  0  0  0  0  0  0  0  0  0  0  0
  185.7800  178.5890  147.3200 C   0  0  0  0  0  3  0  0  0  0  0  0
  189.3730  177.6270  146.4360 C   0  0  0  0  0  3  0  0  0  0  0  0
  187.4760  177.7340  145.2570 C   0  0  0  0  0  0  0  0  0  0  0  0
  188.6990  178.9660  140.1010 C   0  0  0  0  0  2  0  0  0  0  0  0
  187.8370  177.8560  141.2530 S   0  0  0  0  0  0  0  0  0  0  0  0
  186.5130  179.0590  141.5800 C   0  0  0  0  0  2  0  0  0  0  0  0
  185.2050  178.4550  141.3650 N   0  0  0  0  0  2  0  0  0  0  0  0
  184.3340  178.8390  140.2980 C   0  0  0  0  0  0  0  0  0  0  0  0
  184.6580  179.7630  139.5050 O   0  0  0  0  0  0  0  0  0  0  0  0
  183.0410  178.1260  140.1130 C   0  0  0  0  0  2  0  0  0  0  0  0
  181.6140  178.6250  142.0930 O   0  0  0  0  0  1  0  0  0  0  0  0
  181.3220  179.7770  140.1320 O   0  0  0  0  0  0  0  0  0  0  0  0
  181.9370  178.8810  140.7670 C   0  0  0  0  0  0  0  0  0  0  0  0
  1  2  1  0  0  0  0
  1 35  1  1  0  0  0
  2 21  1  0  0  0  0
  3 13  1  0  0  0  0
  4  3  2  0  0  0  0
  5 19  2  0  0  0  0
  6 14  1  0  0  0  0
  8  4  1  0  0  0  0
  9  4  1  0  0  0  0
  9  5  1  0  0  0  0
 10  2  1  0  0  0  0
 11  7  2  0  0  0  0
 11 15  1  0  0  0  0
 12  8  2  0  0  0  0
 12  7  1  0  0  0  0
 13 10  1  0  0  0  0
 14 15  2  0  0  0  0
 14 17  1  0  0  0  0
 16  3  1  6  0  0  0
 16  1  1  0  0  0  0
 18 11  1  0  0  0  0
 18  9  2  0  0  0  0
 19 16  1  0  0  0  0
 20 18  1  0  0  0  0
 20  6  2  0  0  0  0
 21 22  1  0  0  0  0
 22 23  1  0  0  0  0
 23 24  1  0  0  0  0
 24 25  1  0  0  0  0
 25 30  1  0  0  0  0
 26 32  2  0  0  0  0
 28 27  1  0  0  0  0
 29 34  2  0  0  0  0
 29 26  1  0  0  0  0
 30 33  2  0  0  0  0
 31 30  1  0  0  0  0
 31 34  1  0  0  0  0
 32 27  1  0  0  0  0
 33 28  1  0  0  0  0
 34 28  1  0  0  0  0
 35 36  1  0  0  0  0
 36 37  1  0  0  0  0
 38 37  1  0  0  0  0
 39 38  1  0  0  0  0
 40 39  2  0  0  0  0
 41 39  1  0  0  0  0
 41 44  1  0  0  0  0
 43 44  2  0  0  0  0
 44 42  1  0  0  0  0
M  END
>  <MODEL>
9

>  <REMARK>
 VINA RESULT:      -7.3      3.869      9.550
  Name = 
  12 active torsions:
  status: ('A' for Active; 'I' for Inactive)
    1  A    between atoms: C_1  and  C_25
    2  A    between atoms: C_1  and  C_34
    3  A    between atoms: S_2  and  C_34
    4  A    between atoms: S_2  and  C_41
    5  A    between atoms: C_3  and  S_8
    6  A    between atoms: C_3  and  N_27
    7  A    between atoms: C_4  and  C_36
    8  A    between atoms: N_5  and  C_25
    9  A    between atoms: S_8  and  C_36
   10  A    between atoms: C_12  and  C_22
   11  A    between atoms: C_12  and  C_31
   12  A    between atoms: C_35  and  C_41
                            x       y       z     vdW  Elec       q    Type
                         _______ _______ _______ _____ _____    ______ ____

>  <TORSDO>
F 12

$$$$
