=
 OpenBabel10222417203D

 46 51  0  0  1  0  0  0  0  0999 V2000
  186.5700  175.9580  134.5940 O   0  0  0  0  0  1  0  0  0  0  0  0
  186.5610  176.5650  135.8440 C   0  0  0  0  0  0  0  0  0  0  0  0
  190.1000  177.5170  137.8440 C   0  0  0  0  0  2  0  0  0  0  0  0
  186.5220  177.8380  138.2950 N   0  0  0  0  0  0  0  0  0  0  0  0
  187.6550  177.2000  137.8990 C   0  0  0  0  0  0  0  0  0  0  0  0
  188.9180  174.3130  136.8610 C   0  0  1  0  0  3  0  0  0  0  0  0
  188.8850  177.2710  138.7410 C   0  0  1  0  0  3  0  0  0  0  0  0
  185.4120  177.2250  136.2750 C   0  0  0  0  0  3  0  0  0  0  0  0
  185.4030  177.8760  137.5190 C   0  0  0  0  0  0  0  0  0  0  0  0
  190.1540  173.4860  136.4620 C   0  0  0  0  0  2  0  0  0  0  0  0
  189.0450  176.0910  139.4690 O   0  0  0  0  0  1  0  0  0  0  0  0
  190.2400  176.5080  136.6830 C   0  0  1  0  0  3  0  0  0  0  0  0
  191.4360  175.5860  136.9540 C   0  0  1  0  0  3  0  0  0  0  0  0
  187.6930  176.5250  136.6700 C   0  0  0  0  0  0  0  0  0  0  0  0
  188.9320  175.7500  136.2830 C   0  0  2  0  0  3  0  0  0  0  0  0
  191.3670  174.3370  136.0850 C   0  0  0  0  0  2  0  0  0  0  0  0
  186.4290  173.9410  137.0840 C   0  0  0  0  0  3  0  0  0  0  0  0
  186.5720  171.6980  135.4660 C   0  0  0  0  0  0  0  0  0  0  0  0
  187.6650  173.5500  136.5520 C   0  0  0  0  0  0  0  0  0  0  0  0
  185.3840  172.0940  135.9960 N   0  0  0  0  0  0  0  0  0  0  0  0
  185.2840  173.1890  136.7970 C   0  0  0  0  0  0  0  0  0  0  0  0
  187.7360  172.4170  135.7400 C   0  0  0  0  0  3  0  0  0  0  0  0
  186.6310  170.5460  134.6330 N   0  0  0  0  0  1  0  0  0  0  0  0
  181.4730  173.3090  137.3770 C   0  0  0  0  0  1  0  0  0  0  0  0
  183.9160  174.4210  138.2900 O   0  0  0  0  0  0  0  0  0  0  0  0
  183.9810  173.5710  137.3600 C   0  0  0  0  0  0  0  0  0  0  0  0
  182.7860  172.9690  136.8550 N   0  0  0  0  0  2  0  0  0  0  0  0
  183.3090  178.2740  140.2890 N   0  0  0  0  0  0  0  0  0  0  0  0
  183.0240  177.5670  138.1270 C   0  0  0  0  0  3  0  0  0  0  0  0
  185.0490  179.8240  139.9440 O   0  0  0  0  0  0  0  0  0  0  0  0
  184.2600  178.9520  139.4920 C   0  0  0  0  0  0  0  0  0  0  0  0
  184.1620  178.5530  138.0510 C   0  0  1  0  0  3  0  0  0  0  0  0
  182.6020  177.4380  139.3810 C   0  0  0  0  0  0  0  0  0  0  0  0
  183.3460  178.1800  141.7400 C   0  0  0  0  0  1  0  0  0  0  0  0
  180.2130  177.0430  140.1560 C   0  0  0  0  0  1  0  0  0  0  0  0
  181.5210  176.5700  139.7360 N   0  0  0  0  0  2  0  0  0  0  0  0
  192.6800  176.3000  136.6960 N   0  0  0  0  0  2  0  0  0  0  0  0
  194.2560  174.9470  137.9770 C   0  0  0  0  0  3  0  0  0  0  0  0
  195.7870  173.5960  139.2570 O   0  0  0  0  0  1  0  0  0  0  0  0
  197.1330  175.3880  134.9180 C   0  0  0  0  0  1  0  0  0  0  0  0
  197.5870  173.9350  137.2220 O   0  0  0  0  0  0  0  0  0  0  0  0
  194.9460  175.8210  135.8440 C   0  0  0  0  0  3  0  0  0  0  0  0
  196.1600  175.2220  135.9870 N   0  0  0  0  0  0  0  0  0  0  0  0
  193.9670  175.6960  136.8370 C   0  0  0  0  0  0  0  0  0  0  0  0
  195.5030  174.3390  138.1170 C   0  0  0  0  0  0  0  0  0  0  0  0
  196.4570  174.4850  137.1000 C   0  0  0  0  0  0  0  0  0  0  0  0
  1  2  1  0  0  0  0
  2  8  2  0  0  0  0
  2 14  1  0  0  0  0
  3  7  1  0  0  0  0
  5  4  1  0  0  0  0
  5  7  1  0  0  0  0
  6 19  1  6  0  0  0
  7 11  1  6  0  0  0
  8  9  1  0  0  0  0
  9  4  2  0  0  0  0
 10  6  1  0  0  0  0
 12 13  1  0  0  0  0
 12  3  1  1  0  0  0
 13 37  1  6  0  0  0
 14  5  2  0  0  0  0
 15 14  1  1  0  0  0
 15 12  1  0  0  0  0
 15  6  1  0  0  0  0
 16 10  1  0  0  0  0
 16 13  1  0  0  0  0
 18 22  2  0  0  0  0
 18 20  1  0  0  0  0
 19 17  2  0  0  0  0
 20 21  2  0  0  0  0
 21 17  1  0  0  0  0
 21 26  1  0  0  0  0
 22 19  1  0  0  0  0
 23 18  1  0  0  0  0
 26 25  2  0  0  0  0
 27 26  1  0  0  0  0
 27 24  1  0  0  0  0
 28 34  1  0  0  0  0
 29 33  2  0  0  0  0
 31 30  2  0  0  0  0
 31 28  1  0  0  0  0
 32  9  1  1  0  0  0
 32 29  1  0  0  0  0
 32 31  1  0  0  0  0
 33 36  1  0  0  0  0
 33 28  1  0  0  0  0
 36 35  1  0  0  0  0
 37 44  1  0  0  0  0
 38 45  2  0  0  0  0
 40 43  1  0  0  0  0
 42 43  1  0  0  0  0
 42 44  2  0  0  0  0
 43 46  1  0  0  0  0
 44 38  1  0  0  0  0
 45 39  1  0  0  0  0
 46 41  2  0  0  0  0
 46 45  1  0  0  0  0
M  END
>  <MODEL>
1

>  <REMARK>
 VINA RESULT:      -6.9      0.000      0.000
  Name = 
  6 active torsions:
  status: ('A' for Active; 'I' for Inactive)
    1  A    between atoms: C_10  and  C_23
    2  A    between atoms: N_17  and  C_38
    3  A    between atoms: N_17  and  C_39
    4  A    between atoms: C_18  and  C_20
    5  A    between atoms: C_28  and  C_33
    6  A    between atoms: C_36  and  N_43
                            x       y       z     vdW  Elec       q    Type
                         _______ _______ _______ _____ _____    ______ ____

>  <TORSDO>
F 6

$$$$
=
 OpenBabel10222417203D

 46 51  0  0  1  0  0  0  0  0999 V2000
  189.1950  174.5600  137.8550 O   0  0  0  0  0  1  0  0  0  0  0  0
  190.4880  175.0650  137.9240 C   0  0  0  0  0  0  0  0  0  0  0  0
  192.0000  176.7450  141.4340 C   0  0  0  0  0  2  0  0  0  0  0  0
  193.0850  175.9940  138.0630 N   0  0  0  0  0  0  0  0  0  0  0  0
  192.1870  176.3980  139.0000 C   0  0  0  0  0  0  0  0  0  0  0  0
  189.2360  177.8320  139.4850 C   0  0  1  0  0  3  0  0  0  0  0  0
  192.6310  177.2560  140.1370 C   0  0  1  0  0  3  0  0  0  0  0  0
  191.4280  174.6680  136.9750 C   0  0  0  0  0  3  0  0  0  0  0  0
  192.7480  175.1390  137.0570 C   0  0  0  0  0  0  0  0  0  0  0  0
  188.1870  178.3820  140.4690 C   0  0  0  0  0  2  0  0  0  0  0  0
  192.2740  178.5860  139.9100 O   0  0  0  0  0  1  0  0  0  0  0  0
  190.4650  176.5980  141.3720 C   0  0  1  0  0  3  0  0  0  0  0  0
  189.8160  177.6820  142.2430 C   0  0  1  0  0  3  0  0  0  0  0  0
  190.8560  175.9600  138.9380 C   0  0  0  0  0  0  0  0  0  0  0  0
  189.8510  176.4860  139.9380 C   0  0  2  0  0  3  0  0  0  0  0  0
  188.3440  177.8510  141.8930 C   0  0  0  0  0  2  0  0  0  0  0  0
  187.3020  177.6280  137.8700 C   0  0  0  0  0  3  0  0  0  0  0  0
  189.0190  177.8790  135.7110 C   0  0  0  0  0  0  0  0  0  0  0  0
  188.6740  177.8010  138.0950 C   0  0  0  0  0  0  0  0  0  0  0  0
  187.6840  177.7070  135.5170 N   0  0  0  0  0  0  0  0  0  0  0  0
  186.8170  177.5770  136.5590 C   0  0  0  0  0  0  0  0  0  0  0  0
  189.5390  177.9240  137.0060 C   0  0  0  0  0  3  0  0  0  0  0  0
  189.8880  178.0100  134.5940 N   0  0  0  0  0  1  0  0  0  0  0  0
  183.0240  177.2700  137.1850 C   0  0  0  0  0  1  0  0  0  0  0  0
  184.9760  177.1440  135.1310 O   0  0  0  0  0  0  0  0  0  0  0  0
  185.3840  177.3780  136.3010 C   0  0  0  0  0  0  0  0  0  0  0  0
  184.4510  177.4580  137.3830 N   0  0  0  0  0  2  0  0  0  0  0  0
  196.1650  174.8140  136.3970 N   0  0  0  0  0  0  0  0  0  0  0  0
  194.4450  176.0300  135.4920 C   0  0  0  0  0  2  0  0  0  0  0  0
  194.9520  172.9160  137.0860 O   0  0  0  0  0  0  0  0  0  0  0  0
  194.9770  174.0660  136.5730 C   0  0  0  0  0  0  0  0  0  0  0  0
  193.7830  174.7810  136.0170 C   0  0  1  0  0  3  0  0  0  0  0  0
  195.7500  176.0060  135.7400 C   0  0  0  0  0  0  0  0  0  0  0  0
  197.4190  174.5730  137.0930 C   0  0  0  0  0  1  0  0  0  0  0  0
  196.1800  178.2390  134.6000 C   0  0  0  0  0  1  0  0  0  0  0  0
  196.6230  177.0670  135.3370 N   0  0  0  0  0  0  0  0  0  0  0  0
  189.9540  177.3340  143.6510 N   0  0  0  0  0  2  0  0  0  0  0  0
  187.6100  177.7290  144.2060 C   0  0  0  0  0  3  0  0  0  0  0  0
  185.2870  178.1030  144.7270 O   0  0  0  0  0  1  0  0  0  0  0  0
  188.6160  177.9960  148.2990 C   0  0  0  0  0  1  0  0  0  0  0  0
  186.0330  178.2580  147.3570 O   0  0  0  0  0  0  0  0  0  0  0  0
  189.2300  177.6850  145.9850 C   0  0  0  0  0  3  0  0  0  0  0  0
  188.2430  177.9100  146.8950 N   0  0  0  0  0  0  0  0  0  0  0  0
  188.9340  177.5900  144.6200 C   0  0  0  0  0  0  0  0  0  0  0  0
  186.6050  177.9620  145.1450 C   0  0  0  0  0  0  0  0  0  0  0  0
  186.9400  178.0490  146.5030 C   0  0  0  0  0  0  0  0  0  0  0  0
  1  2  1  0  0  0  0
  2 14  1  0  0  0  0
  4  5  1  0  0  0  0
  5  7  1  0  0  0  0
  6 19  1  6  0  0  0
  6 15  1  0  0  0  0
  6 10  1  0  0  0  0
  7 11  1  6  0  0  0
  7  3  1  0  0  0  0
  8  9  1  0  0  0  0
  8  2  2  0  0  0  0
  9  4  2  0  0  0  0
 10 16  1  0  0  0  0
 12  3  1  6  0  0  0
 12 13  1  0  0  0  0
 13 37  1  1  0  0  0
 14  5  2  0  0  0  0
 15 14  1  6  0  0  0
 15 12  1  0  0  0  0
 16 13  1  0  0  0  0
 17 19  1  0  0  0  0
 18 22  1  0  0  0  0
 20 18  2  0  0  0  0
 20 21  1  0  0  0  0
 21 17  2  0  0  0  0
 22 19  2  0  0  0  0
 23 18  1  0  0  0  0
 24 27  1  0  0  0  0
 25 26  2  0  0  0  0
 26 21  1  0  0  0  0
 26 27  1  0  0  0  0
 28 31  1  0  0  0  0
 28 34  1  0  0  0  0
 29 33  1  0  0  0  0
 29 32  1  0  0  0  0
 31 30  2  0  0  0  0
 32 31  1  0  0  0  0
 32  9  1  1  0  0  0
 33 28  1  0  0  0  0
 35 36  1  0  0  0  0
 36 33  2  0  0  0  0
 37 44  1  0  0  0  0
 38 44  1  0  0  0  0
 38 45  2  0  0  0  0
 39 45  1  0  0  0  0
 42 43  1  0  0  0  0
 43 40  1  0  0  0  0
 44 42  2  0  0  0  0
 45 46  1  0  0  0  0
 46 43  1  0  0  0  0
 46 41  2  0  0  0  0
M  END
>  <MODEL>
2

>  <REMARK>
 VINA RESULT:      -6.7      3.646      9.396
  Name = 
  6 active torsions:
  status: ('A' for Active; 'I' for Inactive)
    1  A    between atoms: C_10  and  C_23
    2  A    between atoms: N_17  and  C_38
    3  A    between atoms: N_17  and  C_39
    4  A    between atoms: C_18  and  C_20
    5  A    between atoms: C_28  and  C_33
    6  A    between atoms: C_36  and  N_43
                            x       y       z     vdW  Elec       q    Type
                         _______ _______ _______ _____ _____    ______ ____

>  <TORSDO>
F 6

$$$$
=
 OpenBabel10222417203D

 46 51  0  0  1  0  0  0  0  0999 V2000
  189.1780  174.5450  137.9060 O   0  0  0  0  0  1  0  0  0  0  0  0
  190.4860  175.0130  137.9490 C   0  0  0  0  0  0  0  0  0  0  0  0
  192.1040  176.6890  141.4140 C   0  0  0  0  0  2  0  0  0  0  0  0
  193.1110  175.8690  138.0340 N   0  0  0  0  0  0  0  0  0  0  0  0
  192.2410  176.3090  138.9810 C   0  0  0  0  0  0  0  0  0  0  0  0
  189.3390  177.8320  139.4960 C   0  0  1  0  0  3  0  0  0  0  0  0
  192.7270  177.1670  140.1010 C   0  0  1  0  0  3  0  0  0  0  0  0
  191.3990  174.5790  136.9890 C   0  0  0  0  0  3  0  0  0  0  0  0
  192.7330  175.0130  137.0440 C   0  0  0  0  0  0  0  0  0  0  0  0
  188.3230  178.4230  140.4900 C   0  0  0  0  0  2  0  0  0  0  0  0
  192.4040  178.5050  139.8640 O   0  0  0  0  0  1  0  0  0  0  0  0
  190.5640  176.5850  141.3780 C   0  0  1  0  0  3  0  0  0  0  0  0
  189.9610  177.6970  142.2460 C   0  0  1  0  0  3  0  0  0  0  0  0
  190.8970  175.9080  138.9460 C   0  0  0  0  0  0  0  0  0  0  0  0
  189.9240  176.4740  139.9560 C   0  0  2  0  0  3  0  0  0  0  0  0
  188.4880  177.9050  141.9180 C   0  0  0  0  0  2  0  0  0  0  0  0
  187.3790  177.6320  137.9150 C   0  0  0  0  0  3  0  0  0  0  0  0
  189.0590  177.8770  135.7270 C   0  0  0  0  0  0  0  0  0  0  0  0
  188.7540  177.8020  138.1160 C   0  0  0  0  0  0  0  0  0  0  0  0
  187.7200  177.7080  135.5550 N   0  0  0  0  0  0  0  0  0  0  0  0
  186.8710  177.5820  136.6110 C   0  0  0  0  0  0  0  0  0  0  0  0
  189.6010  177.9210  137.0120 C   0  0  0  0  0  3  0  0  0  0  0  0
  189.9100  178.0050  134.5940 N   0  0  0  0  0  1  0  0  0  0  0  0
  183.0970  177.2060  137.3120 C   0  0  0  0  0  1  0  0  0  0  0  0
  184.9970  177.2180  135.2070 O   0  0  0  0  0  0  0  0  0  0  0  0
  185.4330  177.3850  136.3790 C   0  0  0  0  0  0  0  0  0  0  0  0
  184.5280  177.3940  137.4860 N   0  0  0  0  0  2  0  0  0  0  0  0
  195.8320  173.5060  136.4580 N   0  0  0  0  0  0  0  0  0  0  0  0
  194.9150  175.5590  136.0120 C   0  0  0  0  0  3  0  0  0  0  0  0
  193.8820  172.1930  136.3170 O   0  0  0  0  0  0  0  0  0  0  0  0
  194.4410  173.3210  136.2830 C   0  0  0  0  0  0  0  0  0  0  0  0
  193.7410  174.6130  135.9920 C   0  0  1  0  0  3  0  0  0  0  0  0
  196.0370  174.9040  136.2890 C   0  0  0  0  0  0  0  0  0  0  0  0
  196.7370  172.5410  137.0620 C   0  0  0  0  0  1  0  0  0  0  0  0
  198.3760  175.3540  135.3980 C   0  0  0  0  0  1  0  0  0  0  0  0
  197.3070  175.5620  136.3590 N   0  0  0  0  0  2  0  0  0  0  0  0
  190.1110  177.3610  143.6560 N   0  0  0  0  0  2  0  0  0  0  0  0
  189.3950  177.5580  145.9810 C   0  0  0  0  0  3  0  0  0  0  0  0
  188.7180  177.7620  148.2850 O   0  0  0  0  0  1  0  0  0  0  0  0
  185.4410  178.3200  144.7060 C   0  0  0  0  0  1  0  0  0  0  0  0
  186.1850  178.2490  147.3650 O   0  0  0  0  0  0  0  0  0  0  0  0
  187.7590  177.8340  144.2370 C   0  0  0  0  0  3  0  0  0  0  0  0
  186.7950  178.0580  145.1710 N   0  0  0  0  0  0  0  0  0  0  0  0
  189.0810  177.5790  144.6230 C   0  0  0  0  0  0  0  0  0  0  0  0
  188.4000  177.7870  146.9320 C   0  0  0  0  0  0  0  0  0  0  0  0
  187.0890  178.0410  146.5080 C   0  0  0  0  0  0  0  0  0  0  0  0
  1  2  1  0  0  0  0
  2 14  1  0  0  0  0
  4  5  1  0  0  0  0
  5  7  1  0  0  0  0
  6 19  1  6  0  0  0
  6 15  1  0  0  0  0
  6 10  1  0  0  0  0
  7 11  1  6  0  0  0
  7  3  1  0  0  0  0
  8  9  1  0  0  0  0
  8  2  2  0  0  0  0
  9  4  2  0  0  0  0
 10 16  1  0  0  0  0
 12  3  1  6  0  0  0
 12 13  1  0  0  0  0
 13 37  1  1  0  0  0
 14  5  2  0  0  0  0
 15 14  1  6  0  0  0
 15 12  1  0  0  0  0
 16 13  1  0  0  0  0
 17 19  1  0  0  0  0
 18 22  1  0  0  0  0
 20 18  2  0  0  0  0
 20 21  1  0  0  0  0
 21 17  2  0  0  0  0
 22 19  2  0  0  0  0
 23 18  1  0  0  0  0
 24 27  1  0  0  0  0
 25 26  2  0  0  0  0
 26 21  1  0  0  0  0
 26 27  1  0  0  0  0
 28 34  1  0  0  0  0
 29 33  2  0  0  0  0
 31 30  2  0  0  0  0
 31 28  1  0  0  0  0
 32 29  1  0  0  0  0
 32 31  1  0  0  0  0
 32  9  1  1  0  0  0
 33 36  1  0  0  0  0
 33 28  1  0  0  0  0
 35 36  1  0  0  0  0
 37 44  1  0  0  0  0
 38 45  2  0  0  0  0
 40 43  1  0  0  0  0
 42 44  2  0  0  0  0
 42 43  1  0  0  0  0
 43 46  1  0  0  0  0
 44 38  1  0  0  0  0
 45 39  1  0  0  0  0
 46 45  1  0  0  0  0
 46 41  2  0  0  0  0
M  END
>  <MODEL>
3

>  <REMARK>
 VINA RESULT:      -6.4      3.672      9.449
  Name = 
  6 active torsions:
  status: ('A' for Active; 'I' for Inactive)
    1  A    between atoms: C_10  and  C_23
    2  A    between atoms: N_17  and  C_38
    3  A    between atoms: N_17  and  C_39
    4  A    between atoms: C_18  and  C_20
    5  A    between atoms: C_28  and  C_33
    6  A    between atoms: C_36  and  N_43
                            x       y       z     vdW  Elec       q    Type
                         _______ _______ _______ _____ _____    ______ ____

>  <TORSDO>
F 6

$$$$
=
 OpenBabel10222417203D

 46 51  0  0  1  0  0  0  0  0999 V2000
  185.2460  176.6420  134.7000 O   0  0  0  0  0  1  0  0  0  0  0  0
  185.6580  177.1380  135.9320 C   0  0  0  0  0  0  0  0  0  0  0  0
  189.7000  177.4350  136.9330 C   0  0  0  0  0  2  0  0  0  0  0  0
  186.4580  178.1960  138.3550 N   0  0  0  0  0  0  0  0  0  0  0  0
  187.3370  177.4460  137.6370 C   0  0  0  0  0  0  0  0  0  0  0  0
  187.8290  174.5130  136.1680 C   0  0  1  0  0  3  0  0  0  0  0  0
  188.7410  177.2810  138.1150 C   0  0  1  0  0  3  0  0  0  0  0  0
  184.7760  177.9090  136.6880 C   0  0  0  0  0  3  0  0  0  0  0  0
  185.1930  178.4480  137.9150 C   0  0  0  0  0  0  0  0  0  0  0  0
  188.7760  173.5640  135.4120 C   0  0  0  0  0  2  0  0  0  0  0  0
  188.9050  176.0330  138.7190 O   0  0  0  0  0  1  0  0  0  0  0  0
  189.3750  176.5170  135.7350 C   0  0  1  0  0  3  0  0  0  0  0  0
  190.4450  175.4230  135.6280 C   0  0  1  0  0  3  0  0  0  0  0  0
  186.9470  176.8780  136.4150 C   0  0  0  0  0  0  0  0  0  0  0  0
  187.9090  175.9770  135.6720 C   0  0  2  0  0  3  0  0  0  0  0  0
  189.9610  174.2720  134.7570 C   0  0  0  0  0  2  0  0  0  0  0  0
  185.4390  174.5090  136.9900 C   0  0  0  0  0  3  0  0  0  0  0  0
  184.8480  172.3160  135.4060 C   0  0  0  0  0  0  0  0  0  0  0  0
  186.4370  173.9540  136.1790 C   0  0  0  0  0  0  0  0  0  0  0  0
  183.8960  172.8690  136.2040 N   0  0  0  0  0  0  0  0  0  0  0  0
  184.1580  173.9450  136.9950 C   0  0  0  0  0  0  0  0  0  0  0  0
  186.1390  172.8460  135.3830 C   0  0  0  0  0  3  0  0  0  0  0  0
  184.5300  171.1920  134.5940 N   0  0  0  0  0  1  0  0  0  0  0  0
  180.6510  174.6980  138.4110 C   0  0  0  0  0  1  0  0  0  0  0  0
  183.4020  175.2520  138.8220 O   0  0  0  0  0  0  0  0  0  0  0  0
  183.1030  174.5000  137.8540 C   0  0  0  0  0  0  0  0  0  0  0  0
  181.7340  174.1780  137.5940 N   0  0  0  0  0  2  0  0  0  0  0  0
  183.6260  178.6090  141.0350 N   0  0  0  0  0  0  0  0  0  0  0  0
  182.9080  178.5630  138.8580 C   0  0  0  0  0  3  0  0  0  0  0  0
  185.6680  179.7420  140.7250 O   0  0  0  0  0  0  0  0  0  0  0  0
  184.6250  179.2240  140.2450 C   0  0  0  0  0  0  0  0  0  0  0  0
  184.2540  179.2400  138.7940 C   0  0  1  0  0  3  0  0  0  0  0  0
  182.6180  178.2210  140.1090 C   0  0  0  0  0  0  0  0  0  0  0  0
  183.8060  178.1430  142.4010 C   0  0  0  0  0  1  0  0  0  0  0  0
  180.0920  178.2190  140.4050 C   0  0  0  0  0  1  0  0  0  0  0  0
  181.3910  177.5700  140.4570 N   0  0  0  0  0  2  0  0  0  0  0  0
  191.6710  175.9820  135.0740 N   0  0  0  0  0  2  0  0  0  0  0  0
  194.0600  176.4630  135.2120 C   0  0  0  0  0  3  0  0  0  0  0  0
  196.4120  176.9680  135.3410 O   0  0  0  0  0  1  0  0  0  0  0  0
  194.5480  173.2860  137.9510 C   0  0  0  0  0  1  0  0  0  0  0  0
  196.6320  174.8910  137.1110 O   0  0  0  0  0  0  0  0  0  0  0  0
  193.1680  174.6400  136.5060 C   0  0  0  0  0  3  0  0  0  0  0  0
  194.4070  174.3850  137.0080 N   0  0  0  0  0  0  0  0  0  0  0  0
  192.9680  175.6850  135.5960 C   0  0  0  0  0  0  0  0  0  0  0  0
  195.3270  176.1930  135.7290 C   0  0  0  0  0  0  0  0  0  0  0  0
  195.4880  175.1390  136.6400 C   0  0  0  0  0  0  0  0  0  0  0  0
  1  2  1  0  0  0  0
  2 14  2  0  0  0  0
  2  8  1  0  0  0  0
  3  7  1  0  0  0  0
  5  7  1  0  0  0  0
  5  4  2  0  0  0  0
  6 19  1  6  0  0  0
  7 11  1  6  0  0  0
  8  9  2  0  0  0  0
  9  4  1  0  0  0  0
 10  6  1  0  0  0  0
 12  3  1  1  0  0  0
 13 37  1  6  0  0  0
 13 12  1  0  0  0  0
 14  5  1  0  0  0  0
 15 12  1  0  0  0  0
 15  6  1  0  0  0  0
 15 14  1  1  0  0  0
 16 10  1  0  0  0  0
 16 13  1  0  0  0  0
 17 21  1  0  0  0  0
 18 20  1  0  0  0  0
 19 17  2  0  0  0  0
 20 21  2  0  0  0  0
 21 26  1  0  0  0  0
 22 18  2  0  0  0  0
 22 19  1  0  0  0  0
 23 18  1  0  0  0  0
 26 25  2  0  0  0  0
 27 26  1  0  0  0  0
 27 24  1  0  0  0  0
 28 34  1  0  0  0  0
 29 33  2  0  0  0  0
 31 30  2  0  0  0  0
 31 28  1  0  0  0  0
 32  9  1  6  0  0  0
 32 29  1  0  0  0  0
 32 31  1  0  0  0  0
 33 36  1  0  0  0  0
 33 28  1  0  0  0  0
 35 36  1  0  0  0  0
 37 44  1  0  0  0  0
 38 44  1  0  0  0  0
 38 45  2  0  0  0  0
 39 45  1  0  0  0  0
 42 43  1  0  0  0  0
 43 40  1  0  0  0  0
 44 42  2  0  0  0  0
 45 46  1  0  0  0  0
 46 43  1  0  0  0  0
 46 41  2  0  0  0  0
M  END
>  <MODEL>
4

>  <REMARK>
 VINA RESULT:      -6.1      1.354      1.789
  Name = 
  6 active torsions:
  status: ('A' for Active; 'I' for Inactive)
    1  A    between atoms: C_10  and  C_23
    2  A    between atoms: N_17  and  C_38
    3  A    between atoms: N_17  and  C_39
    4  A    between atoms: C_18  and  C_20
    5  A    between atoms: C_28  and  C_33
    6  A    between atoms: C_36  and  N_43
                            x       y       z     vdW  Elec       q    Type
                         _______ _______ _______ _____ _____    ______ ____

>  <TORSDO>
F 6

$$$$
=
 OpenBabel10222417203D

 46 51  0  0  1  0  0  0  0  0999 V2000
  188.1280  178.7800  136.3690 O   0  0  0  0  0  1  0  0  0  0  0  0
  188.6200  178.4030  137.6130 C   0  0  0  0  0  0  0  0  0  0  0  0
  192.4060  176.6970  138.0490 C   0  0  0  0  0  2  0  0  0  0  0  0
  189.6090  177.7300  140.1040 N   0  0  0  0  0  0  0  0  0  0  0  0
  190.1820  177.1900  138.9960 C   0  0  0  0  0  0  0  0  0  0  0  0
  189.6220  175.4460  136.2300 C   0  0  1  0  0  3  0  0  0  0  0  0
  191.3880  176.3200  139.1290 C   0  0  1  0  0  3  0  0  0  0  0  0
  188.0490  178.9410  138.7660 C   0  0  0  0  0  3  0  0  0  0  0  0
  188.5620  178.6000  140.0270 C   0  0  0  0  0  0  0  0  0  0  0  0
  190.1860  174.7440  134.9820 C   0  0  0  0  0  2  0  0  0  0  0  0
  191.0310  174.9750  139.0170 O   0  0  0  0  0  1  0  0  0  0  0  0
  191.8330  176.6940  136.6150 C   0  0  1  0  0  3  0  0  0  0  0  0
  192.4160  175.5060  135.8390 C   0  0  1  0  0  3  0  0  0  0  0  0
  189.6840  177.4960  137.7210 C   0  0  0  0  0  0  0  0  0  0  0  0
  190.2780  176.8210  136.5060 C   0  0  2  0  0  3  0  0  0  0  0  0
  191.5890  175.2100  134.5950 C   0  0  0  0  0  2  0  0  0  0  0  0
  187.3390  174.5150  136.7830 C   0  0  0  0  0  3  0  0  0  0  0  0
  186.1120  176.5590  135.3740 C   0  0  0  0  0  0  0  0  0  0  0  0
  188.1240  175.4950  136.1630 C   0  0  0  0  0  0  0  0  0  0  0  0
  185.3690  175.5950  135.9810 N   0  0  0  0  0  0  0  0  0  0  0  0
  185.9440  174.5770  136.6770 C   0  0  0  0  0  0  0  0  0  0  0  0
  187.5050  176.5230  135.4500 C   0  0  0  0  0  3  0  0  0  0  0  0
  185.4680  177.6060  134.6570 N   0  0  0  0  0  1  0  0  0  0  0  0
  182.9500  172.2350  137.3260 C   0  0  0  0  0  1  0  0  0  0  0  0
  185.5120  172.9280  138.3240 O   0  0  0  0  0  0  0  0  0  0  0  0
  185.1030  173.5470  137.3040 C   0  0  0  0  0  0  0  0  0  0  0  0
  183.8210  173.2430  136.7470 N   0  0  0  0  0  2  0  0  0  0  0  0
  186.9670  177.7100  143.0070 N   0  0  0  0  0  0  0  0  0  0  0  0
  186.4350  179.0360  141.2130 C   0  0  0  0  0  3  0  0  0  0  0  0
  189.3020  178.0170  143.0120 O   0  0  0  0  0  0  0  0  0  0  0  0
  188.1760  178.2320  142.4910 C   0  0  0  0  0  0  0  0  0  0  0  0
  187.9380  179.1130  141.3030 C   0  0  1  0  0  3  0  0  0  0  0  0
  185.9520  178.2390  142.1620 C   0  0  0  0  0  0  0  0  0  0  0  0
  186.8620  176.5880  143.9270 C   0  0  0  0  0  1  0  0  0  0  0  0
  183.5880  178.1270  141.2300 C   0  0  0  0  0  1  0  0  0  0  0  0
  184.5490  177.9970  142.3120 N   0  0  0  0  0  2  0  0  0  0  0  0
  193.7940  175.7910  135.4610 N   0  0  0  0  0  2  0  0  0  0  0  0
  194.7300  174.4780  137.2930 C   0  0  0  0  0  3  0  0  0  0  0  0
  195.6260  173.1670  139.1060 O   0  0  0  0  0  1  0  0  0  0  0  0
  198.5860  174.8720  135.6150 C   0  0  0  0  0  1  0  0  0  0  0  0
  198.0860  173.4740  137.9440 O   0  0  0  0  0  0  0  0  0  0  0  0
  196.2120  175.3090  135.5880 C   0  0  0  0  0  3  0  0  0  0  0  0
  197.2680  174.7220  136.2150 N   0  0  0  0  0  0  0  0  0  0  0  0
  194.9190  175.2000  136.1150 C   0  0  0  0  0  0  0  0  0  0  0  0
  195.8190  173.8830  137.9300 C   0  0  0  0  0  0  0  0  0  0  0  0
  197.0980  174.0120  137.3720 C   0  0  0  0  0  0  0  0  0  0  0  0
  1  2  1  0  0  0  0
  2 14  2  0  0  0  0
  2  8  1  0  0  0  0
  3  7  1  0  0  0  0
  5  7  1  0  0  0  0
  5  4  2  0  0  0  0
  6 19  1  6  0  0  0
  6 15  1  0  0  0  0
  7 11  1  6  0  0  0
  8  9  2  0  0  0  0
  9  4  1  0  0  0  0
 10  6  1  0  0  0  0
 12  3  1  1  0  0  0
 13 37  1  6  0  0  0
 13 12  1  0  0  0  0
 14  5  1  0  0  0  0
 15 12  1  0  0  0  0
 15 14  1  1  0  0  0
 16 10  1  0  0  0  0
 16 13  1  0  0  0  0
 18 22  2  0  0  0  0
 18 20  1  0  0  0  0
 19 17  2  0  0  0  0
 20 21  2  0  0  0  0
 21 17  1  0  0  0  0
 21 26  1  0  0  0  0
 22 19  1  0  0  0  0
 23 18  1  0  0  0  0
 26 25  2  0  0  0  0
 27 26  1  0  0  0  0
 27 24  1  0  0  0  0
 28 34  1  0  0  0  0
 29 32  1  0  0  0  0
 29 33  2  0  0  0  0
 31 28  1  0  0  0  0
 31 30  2  0  0  0  0
 32  9  1  6  0  0  0
 32 31  1  0  0  0  0
 33 36  1  0  0  0  0
 33 28  1  0  0  0  0
 35 36  1  0  0  0  0
 37 44  1  0  0  0  0
 38 45  2  0  0  0  0
 40 43  1  0  0  0  0
 42 44  2  0  0  0  0
 42 43  1  0  0  0  0
 43 46  1  0  0  0  0
 44 38  1  0  0  0  0
 45 39  1  0  0  0  0
 46 45  1  0  0  0  0
 46 41  2  0  0  0  0
M  END
>  <MODEL>
5

>  <REMARK>
 VINA RESULT:      -6.0      2.172      3.134
  Name = 
  6 active torsions:
  status: ('A' for Active; 'I' for Inactive)
    1  A    between atoms: C_10  and  C_23
    2  A    between atoms: N_17  and  C_38
    3  A    between atoms: N_17  and  C_39
    4  A    between atoms: C_18  and  C_20
    5  A    between atoms: C_28  and  C_33
    6  A    between atoms: C_36  and  N_43
                            x       y       z     vdW  Elec       q    Type
                         _______ _______ _______ _____ _____    ______ ____

>  <TORSDO>
F 6

$$$$
=
 OpenBabel10222417203D

 46 51  0  0  1  0  0  0  0  0999 V2000
  187.7340  178.1200  136.3840 O   0  0  0  0  0  1  0  0  0  0  0  0
  188.4060  177.9370  137.5860 C   0  0  0  0  0  0  0  0  0  0  0  0
  192.3440  176.5560  137.7090 C   0  0  0  0  0  2  0  0  0  0  0  0
  189.7490  177.6530  139.9840 N   0  0  0  0  0  0  0  0  0  0  0  0
  190.2230  177.0160  138.8800 C   0  0  0  0  0  0  0  0  0  0  0  0
  189.4670  174.9020  136.4370 C   0  0  1  0  0  3  0  0  0  0  0  0
  191.5030  176.2520  138.9510 C   0  0  1  0  0  3  0  0  0  0  0  0
  187.9410  178.5780  138.7340 C   0  0  0  0  0  3  0  0  0  0  0  0
  188.6330  178.4340  139.9460 C   0  0  0  0  0  0  0  0  0  0  0  0
  189.9270  174.0860  135.2160 C   0  0  0  0  0  2  0  0  0  0  0  0
  191.2470  174.8830  139.0470 O   0  0  0  0  0  1  0  0  0  0  0  0
  191.5990  176.3320  136.3750 C   0  0  1  0  0  3  0  0  0  0  0  0
  192.1770  175.0980  135.6720 C   0  0  1  0  0  3  0  0  0  0  0  0
  189.5460  177.1240  137.6560 C   0  0  0  0  0  0  0  0  0  0  0  0
  190.0380  176.3410  136.4600 C   0  0  2  0  0  3  0  0  0  0  0  0
  191.2280  174.5920  134.5940 C   0  0  0  0  0  2  0  0  0  0  0  0
  187.1530  175.7730  135.9170 C   0  0  0  0  0  3  0  0  0  0  0  0
  186.0080  173.8100  137.5000 C   0  0  0  0  0  0  0  0  0  0  0  0
  187.9740  174.8420  136.5660 C   0  0  0  0  0  0  0  0  0  0  0  0
  185.2300  174.7260  136.8630 N   0  0  0  0  0  0  0  0  0  0  0  0
  185.7650  175.7040  136.0820 C   0  0  0  0  0  0  0  0  0  0  0  0
  187.3960  173.8560  137.3670 C   0  0  0  0  0  3  0  0  0  0  0  0
  185.4060  172.8050  138.3070 N   0  0  0  0  0  1  0  0  0  0  0  0
  182.5770  177.6470  135.1130 C   0  0  0  0  0  1  0  0  0  0  0  0
  185.3630  177.5080  134.5980 O   0  0  0  0  0  0  0  0  0  0  0  0
  184.8860  176.6820  135.4240 C   0  0  0  0  0  0  0  0  0  0  0  0
  183.4900  176.7010  135.7320 N   0  0  0  0  0  2  0  0  0  0  0  0
  187.4050  177.8220  143.1610 N   0  0  0  0  0  0  0  0  0  0  0  0
  186.6330  178.9380  141.3130 C   0  0  0  0  0  3  0  0  0  0  0  0
  189.7140  178.1870  142.8730 O   0  0  0  0  0  0  0  0  0  0  0  0
  188.5300  178.3170  142.4620 C   0  0  0  0  0  0  0  0  0  0  0  0
  188.1330  179.0630  141.2250 C   0  0  1  0  0  3  0  0  0  0  0  0
  186.2850  178.2340  142.3850 C   0  0  0  0  0  0  0  0  0  0  0  0
  187.4420  176.8010  144.1950 C   0  0  0  0  0  1  0  0  0  0  0  0
  183.7910  178.5390  141.9920 C   0  0  0  0  0  1  0  0  0  0  0  0
  184.9170  177.9730  142.7150 N   0  0  0  0  0  2  0  0  0  0  0  0
  193.4690  175.4230  135.0820 N   0  0  0  0  0  2  0  0  0  0  0  0
  195.8940  175.5420  135.3320 C   0  0  0  0  0  3  0  0  0  0  0  0
  198.2870  175.6920  135.5770 O   0  0  0  0  0  1  0  0  0  0  0  0
  195.8760  171.8350  137.3550 C   0  0  0  0  0  1  0  0  0  0  0  0
  198.1770  173.2860  136.8790 O   0  0  0  0  0  0  0  0  0  0  0  0
  194.7310  173.6280  136.2130 C   0  0  0  0  0  3  0  0  0  0  0  0
  195.9090  173.1130  136.6600 N   0  0  0  0  0  0  0  0  0  0  0  0
  194.6990  174.8550  135.5390 C   0  0  0  0  0  0  0  0  0  0  0  0
  197.0970  175.0050  135.7900 C   0  0  0  0  0  0  0  0  0  0  0  0
  197.0900  173.7750  136.4620 C   0  0  0  0  0  0  0  0  0  0  0  0
  1  2  1  0  0  0  0
  2 14  2  0  0  0  0
  2  8  1  0  0  0  0
  3  7  1  0  0  0  0
  5  7  1  0  0  0  0
  5  4  2  0  0  0  0
  6 15  1  0  0  0  0
  6 19  1  6  0  0  0
  7 11  1  6  0  0  0
  8  9  2  0  0  0  0
  9  4  1  0  0  0  0
 10  6  1  0  0  0  0
 12 15  1  0  0  0  0
 12  3  1  1  0  0  0
 13 37  1  6  0  0  0
 13 12  1  0  0  0  0
 14  5  1  0  0  0  0
 15 14  1  1  0  0  0
 16 10  1  0  0  0  0
 16 13  1  0  0  0  0
 17 21  2  0  0  0  0
 17 19  1  0  0  0  0
 18 23  1  0  0  0  0
 19 22  2  0  0  0  0
 20 18  2  0  0  0  0
 21 20  1  0  0  0  0
 22 18  1  0  0  0  0
 24 27  1  0  0  0  0
 25 26  2  0  0  0  0
 26 27  1  0  0  0  0
 26 21  1  0  0  0  0
 28 34  1  0  0  0  0
 29 33  2  0  0  0  0
 31 30  2  0  0  0  0
 31 28  1  0  0  0  0
 32  9  1  6  0  0  0
 32 29  1  0  0  0  0
 32 31  1  0  0  0  0
 33 36  1  0  0  0  0
 33 28  1  0  0  0  0
 35 36  1  0  0  0  0
 37 44  1  0  0  0  0
 38 44  1  0  0  0  0
 38 45  2  0  0  0  0
 39 45  1  0  0  0  0
 42 43  1  0  0  0  0
 43 40  1  0  0  0  0
 44 42  2  0  0  0  0
 45 46  1  0  0  0  0
 46 43  1  0  0  0  0
 46 41  2  0  0  0  0
M  END
>  <MODEL>
6

>  <REMARK>
 VINA RESULT:      -5.9      2.504      3.455
  Name = 
  6 active torsions:
  status: ('A' for Active; 'I' for Inactive)
    1  A    between atoms: C_10  and  C_23
    2  A    between atoms: N_17  and  C_38
    3  A    between atoms: N_17  and  C_39
    4  A    between atoms: C_18  and  C_20
    5  A    between atoms: C_28  and  C_33
    6  A    between atoms: C_36  and  N_43
                            x       y       z     vdW  Elec       q    Type
                         _______ _______ _______ _____ _____    ______ ____

>  <TORSDO>
F 6

$$$$
=
 OpenBabel10222417203D

 46 51  0  0  1  0  0  0  0  0999 V2000
  188.4490  174.2960  138.5230 O   0  0  0  0  0  1  0  0  0  0  0  0
  188.2130  175.0180  137.3580 C   0  0  0  0  0  0  0  0  0  0  0  0
  191.2540  175.7830  134.6020 C   0  0  0  0  0  2  0  0  0  0  0  0
  187.7090  176.3890  135.0140 N   0  0  0  0  0  0  0  0  0  0  0  0
  188.9910  176.2730  135.4500 C   0  0  0  0  0  0  0  0  0  0  0  0
  191.0470  176.8120  137.9970 C   0  0  1  0  0  3  0  0  0  0  0  0
  190.1120  176.8010  134.6180 C   0  0  1  0  0  3  0  0  0  0  0  0
  186.9080  175.1530  136.8900 C   0  0  0  0  0  3  0  0  0  0  0  0
  186.6600  175.8440  135.6940 C   0  0  0  0  0  0  0  0  0  0  0  0
  192.4800  176.7840  138.5580 C   0  0  0  0  0  2  0  0  0  0  0  0
  190.5550  178.0260  135.1220 O   0  0  0  0  0  1  0  0  0  0  0  0
  191.7210  175.3380  136.0050 C   0  0  1  0  0  3  0  0  0  0  0  0
  193.1100  175.9250  136.2870 C   0  0  1  0  0  3  0  0  0  0  0  0
  189.2720  175.6020  136.6490 C   0  0  0  0  0  0  0  0  0  0  0  0
  190.6930  175.5570  137.1630 C   0  0  2  0  0  3  0  0  0  0  0  0
  193.4290  175.8770  137.7750 C   0  0  0  0  0  2  0  0  0  0  0  0
  190.3350  176.7390  140.4200 C   0  0  0  0  0  3  0  0  0  0  0  0
  187.9400  177.9850  139.8020 C   0  0  0  0  0  0  0  0  0  0  0  0
  190.0680  177.1040  139.0940 C   0  0  0  0  0  0  0  0  0  0  0  0
  188.2190  177.6190  141.0820 N   0  0  0  0  0  0  0  0  0  0  0  0
  189.3860  177.0030  141.4150 C   0  0  0  0  0  0  0  0  0  0  0  0
  188.8590  177.7290  138.7830 C   0  0  0  0  0  3  0  0  0  0  0  0
  186.7080  178.6280  139.4990 N   0  0  0  0  0  1  0  0  0  0  0  0
  189.4700  177.1430  145.2670 C   0  0  0  0  0  1  0  0  0  0  0  0
  190.1930  175.5080  143.0670 O   0  0  0  0  0  0  0  0  0  0  0  0
  189.6390  176.6110  142.8080 C   0  0  0  0  0  0  0  0  0  0  0  0
  189.2450  177.4820  143.8720 N   0  0  0  0  0  2  0  0  0  0  0  0
  183.2550  175.4590  136.3800 N   0  0  0  0  0  0  0  0  0  0  0  0
  184.6640  174.7590  134.7130 C   0  0  0  0  0  3  0  0  0  0  0  0
  184.3010  177.5010  136.9140 O   0  0  0  0  0  0  0  0  0  0  0  0
  184.2720  176.4320  136.2480 C   0  0  0  0  0  0  0  0  0  0  0  0
  185.2570  176.0650  135.1800 C   0  0  1  0  0  3  0  0  0  0  0  0
  183.5750  174.4640  135.4150 C   0  0  0  0  0  0  0  0  0  0  0  0
  182.3490  175.3410  137.5120 C   0  0  0  0  0  1  0  0  0  0  0  0
  183.3390  171.9340  135.2970 C   0  0  0  0  0  1  0  0  0  0  0  0
  182.8070  173.2810  135.1700 N   0  0  0  0  0  2  0  0  0  0  0  0
  194.1210  175.1870  135.5400 N   0  0  0  0  0  2  0  0  0  0  0  0
  194.2240  172.8420  136.2090 C   0  0  0  0  0  3  0  0  0  0  0  0
  194.3040  170.5200  136.8480 O   0  0  0  0  0  1  0  0  0  0  0  0
  198.2430  173.3530  137.4040 C   0  0  0  0  0  1  0  0  0  0  0  0
  196.9040  170.9450  137.5940 O   0  0  0  0  0  0  0  0  0  0  0  0
  196.1790  174.2170  136.4980 C   0  0  0  0  0  3  0  0  0  0  0  0
  196.8590  173.1510  137.0010 N   0  0  0  0  0  0  0  0  0  0  0  0
  194.8450  174.0850  136.0910 C   0  0  0  0  0  0  0  0  0  0  0  0
  194.9280  171.7560  136.7290 C   0  0  0  0  0  0  0  0  0  0  0  0
  196.2620  171.9260  137.1240 C   0  0  0  0  0  0  0  0  0  0  0  0
  2  1  1  0  0  0  0
  3  7  1  0  0  0  0
  4  5  2  0  0  0  0
  4  9  1  0  0  0  0
  5 14  1  0  0  0  0
  6 10  1  0  0  0  0
  6 19  1  1  0  0  0
  7 11  1  1  0  0  0
  7  5  1  0  0  0  0
  8  2  1  0  0  0  0
  9  8  2  0  0  0  0
 12  3  1  6  0  0  0
 12 13  1  0  0  0  0
 12 15  1  0  0  0  0
 13 37  1  6  0  0  0
 13 16  1  0  0  0  0
 14  2  2  0  0  0  0
 15 14  1  6  0  0  0
 15  6  1  0  0  0  0
 16 10  1  0  0  0  0
 17 21  1  0  0  0  0
 18 20  1  0  0  0  0
 19 17  2  0  0  0  0
 20 21  2  0  0  0  0
 21 26  1  0  0  0  0
 22 19  1  0  0  0  0
 22 18  2  0  0  0  0
 23 18  1  0  0  0  0
 26 25  2  0  0  0  0
 26 27  1  0  0  0  0
 27 24  1  0  0  0  0
 28 34  1  0  0  0  0
 29 32  1  0  0  0  0
 29 33  2  0  0  0  0
 31 28  1  0  0  0  0
 31 30  2  0  0  0  0
 32  9  1  1  0  0  0
 32 31  1  0  0  0  0
 33 28  1  0  0  0  0
 36 35  1  0  0  0  0
 36 33  1  0  0  0  0
 37 44  1  0  0  0  0
 38 45  2  0  0  0  0
 42 43  1  0  0  0  0
 43 46  1  0  0  0  0
 43 40  1  0  0  0  0
 44 38  1  0  0  0  0
 44 42  2  0  0  0  0
 45 39  1  0  0  0  0
 45 46  1  0  0  0  0
 46 41  2  0  0  0  0
M  END
>  <MODEL>
7

>  <REMARK>
 VINA RESULT:      -5.5      2.656      5.219
  Name = 
  6 active torsions:
  status: ('A' for Active; 'I' for Inactive)
    1  A    between atoms: C_10  and  C_23
    2  A    between atoms: N_17  and  C_38
    3  A    between atoms: N_17  and  C_39
    4  A    between atoms: C_18  and  C_20
    5  A    between atoms: C_28  and  C_33
    6  A    between atoms: C_36  and  N_43
                            x       y       z     vdW  Elec       q    Type
                         _______ _______ _______ _____ _____    ______ ____

>  <TORSDO>
F 6

$$$$
=
 OpenBabel10222417203D

 46 51  0  0  1  0  0  0  0  0999 V2000
  188.5070  175.9120  143.0630 O   0  0  0  0  0  1  0  0  0  0  0  0
  187.9270  176.9570  142.3540 C   0  0  0  0  0  0  0  0  0  0  0  0
  188.3720  177.3130  138.2180 C   0  0  0  0  0  2  0  0  0  0  0  0
  186.7050  179.0010  140.9540 N   0  0  0  0  0  0  0  0  0  0  0  0
  187.7320  178.3230  140.3750 C   0  0  0  0  0  0  0  0  0  0  0  0
  190.8950  177.3830  140.7200 C   0  0  1  0  0  3  0  0  0  0  0  0
  188.1250  178.6250  138.9670 C   0  0  1  0  0  3  0  0  0  0  0  0
  186.8730  177.6690  142.9250 C   0  0  0  0  0  3  0  0  0  0  0  0
  186.2530  178.7010  142.2040 C   0  0  0  0  0  0  0  0  0  0  0  0
  192.1350  176.6970  140.1200 C   0  0  0  0  0  2  0  0  0  0  0  0
  189.2680  179.4260  138.9420 O   0  0  0  0  0  1  0  0  0  0  0  0
  189.3720  176.3670  138.9190 C   0  0  1  0  0  3  0  0  0  0  0  0
  190.6770  176.3230  138.1130 C   0  0  1  0  0  3  0  0  0  0  0  0
  188.3850  177.2980  141.0740 C   0  0  0  0  0  0  0  0  0  0  0  0
  189.5800  176.6130  140.4490 C   0  0  2  0  0  3  0  0  0  0  0  0
  191.8160  175.7620  138.9540 C   0  0  0  0  0  2  0  0  0  0  0  0
  191.5000  176.6910  143.0740 C   0  0  0  0  0  3  0  0  0  0  0  0
  191.1390  179.2840  143.9780 C   0  0  0  0  0  0  0  0  0  0  0  0
  191.1260  177.6930  142.1690 C   0  0  0  0  0  0  0  0  0  0  0  0
  191.4990  178.2950  144.8400 N   0  0  0  0  0  0  0  0  0  0  0  0
  191.6800  177.0110  144.4240 C   0  0  0  0  0  0  0  0  0  0  0  0
  190.9410  178.9990  142.6270 C   0  0  0  0  0  3  0  0  0  0  0  0
  190.9620  180.6120  144.4560 N   0  0  0  0  0  1  0  0  0  0  0  0
  192.4150  175.2810  147.7920 C   0  0  0  0  0  1  0  0  0  0  0  0
  192.3650  174.8150  144.9950 O   0  0  0  0  0  0  0  0  0  0  0  0
  192.0540  175.9710  145.3930 C   0  0  0  0  0  0  0  0  0  0  0  0
  192.0550  176.2720  146.7910 N   0  0  0  0  0  2  0  0  0  0  0  0
  183.7550  178.8330  144.6460 N   0  0  0  0  0  0  0  0  0  0  0  0
  183.8040  179.0150  142.3610 C   0  0  0  0  0  3  0  0  0  0  0  0
  185.8740  179.7400  145.1320 O   0  0  0  0  0  0  0  0  0  0  0  0
  185.0100  179.3800  144.2890 C   0  0  0  0  0  0  0  0  0  0  0  0
  185.1470  179.5350  142.8050 C   0  0  1  0  0  3  0  0  0  0  0  0
  183.0840  178.6270  143.4080 C   0  0  0  0  0  0  0  0  0  0  0  0
  183.4280  178.2590  145.9410 C   0  0  0  0  0  1  0  0  0  0  0  0
  180.6190  178.8910  142.8370 C   0  0  0  0  0  1  0  0  0  0  0  0
  181.7590  178.1010  143.2710 N   0  0  0  0  0  2  0  0  0  0  0  0
  190.4950  175.5080  136.9200 N   0  0  0  0  0  2  0  0  0  0  0  0
  191.3870  173.3760  136.1340 C   0  0  0  0  0  3  0  0  0  0  0  0
  192.2380  171.2610  135.3530 O   0  0  0  0  0  1  0  0  0  0  0  0
  194.9450  175.3030  134.9250 C   0  0  0  0  0  1  0  0  0  0  0  0
  194.5070  172.5960  134.6000 O   0  0  0  0  0  0  0  0  0  0  0  0
  192.7440  175.3520  135.9150 C   0  0  0  0  0  3  0  0  0  0  0  0
  193.7300  174.6150  135.3340 N   0  0  0  0  0  0  0  0  0  0  0  0
  191.5500  174.7470  136.3270 C   0  0  0  0  0  0  0  0  0  0  0  0
  192.4040  172.6280  135.5410 C   0  0  0  0  0  0  0  0  0  0  0  0
  193.5840  173.2690  135.1390 C   0  0  0  0  0  0  0  0  0  0  0  0
  2  8  1  0  0  0  0
  2  1  1  0  0  0  0
  3  7  1  0  0  0  0
  4  9  1  0  0  0  0
  5  4  2  0  0  0  0
  5 14  1  0  0  0  0
  6 19  1  1  0  0  0
  7 11  1  1  0  0  0
  7  5  1  0  0  0  0
  9  8  2  0  0  0  0
 10  6  1  0  0  0  0
 12  3  1  6  0  0  0
 12 15  1  0  0  0  0
 13 37  1  6  0  0  0
 13 12  1  0  0  0  0
 13 16  1  0  0  0  0
 14  2  2  0  0  0  0
 15  6  1  0  0  0  0
 15 14  1  6  0  0  0
 16 10  1  0  0  0  0
 17 21  1  0  0  0  0
 18 23  1  0  0  0  0
 18 20  1  0  0  0  0
 19 22  1  0  0  0  0
 19 17  2  0  0  0  0
 21 20  2  0  0  0  0
 21 26  1  0  0  0  0
 22 18  2  0  0  0  0
 25 26  2  0  0  0  0
 26 27  1  0  0  0  0
 27 24  1  0  0  0  0
 28 34  1  0  0  0  0
 29 32  1  0  0  0  0
 29 33  2  0  0  0  0
 31 28  1  0  0  0  0
 31 30  2  0  0  0  0
 32  9  1  6  0  0  0
 32 31  1  0  0  0  0
 33 28  1  0  0  0  0
 35 36  1  0  0  0  0
 36 33  1  0  0  0  0
 38 44  1  0  0  0  0
 39 45  1  0  0  0  0
 40 43  1  0  0  0  0
 41 46  2  0  0  0  0
 42 44  2  0  0  0  0
 43 42  1  0  0  0  0
 44 37  1  0  0  0  0
 45 38  2  0  0  0  0
 46 43  1  0  0  0  0
 46 45  1  0  0  0  0
M  END
>  <MODEL>
8

>  <REMARK>
 VINA RESULT:      -5.5      4.356      6.894
  Name = 
  6 active torsions:
  status: ('A' for Active; 'I' for Inactive)
    1  A    between atoms: C_10  and  C_23
    2  A    between atoms: N_17  and  C_38
    3  A    between atoms: N_17  and  C_39
    4  A    between atoms: C_18  and  C_20
    5  A    between atoms: C_28  and  C_33
    6  A    between atoms: C_36  and  N_43
                            x       y       z     vdW  Elec       q    Type
                         _______ _______ _______ _____ _____    ______ ____

>  <TORSDO>
F 6

$$$$
=
 OpenBabel10222417203D

 46 51  0  0  1  0  0  0  0  0999 V2000
  189.1200  179.3710  137.4600 O   0  0  0  0  0  1  0  0  0  0  0  0
  188.6810  178.1850  136.8830 C   0  0  0  0  0  0  0  0  0  0  0  0
  184.6190  177.3580  136.3910 C   0  0  0  0  0  2  0  0  0  0  0  0
  187.8320  175.8550  135.6660 N   0  0  0  0  0  0  0  0  0  0  0  0
  186.9540  176.5640  136.4230 C   0  0  0  0  0  0  0  0  0  0  0  0
  186.4090  177.8910  139.4140 C   0  0  1  0  0  3  0  0  0  0  0  0
  185.5280  176.1330  136.5130 C   0  0  1  0  0  3  0  0  0  0  0  0
  189.5620  177.4380  136.1030 C   0  0  0  0  0  3  0  0  0  0  0  0
  189.1210  176.2590  135.4820 C   0  0  0  0  0  0  0  0  0  0  0  0
  185.4560  178.6310  140.3710 C   0  0  0  0  0  2  0  0  0  0  0  0
  185.2960  175.4690  137.7190 O   0  0  0  0  0  1  0  0  0  0  0  0
  184.9540  178.4910  137.3850 C   0  0  1  0  0  3  0  0  0  0  0  0
  183.8490  178.5800  138.4450 C   0  0  1  0  0  3  0  0  0  0  0  0
  187.3660  177.7380  137.0710 C   0  0  0  0  0  0  0  0  0  0  0  0
  186.4010  178.4680  137.9770 C   0  0  2  0  0  3  0  0  0  0  0  0
  184.3220  179.3680  139.6590 C   0  0  0  0  0  2  0  0  0  0  0  0
  188.8240  177.1500  139.3490 C   0  0  0  0  0  3  0  0  0  0  0  0
  189.2750  178.2400  141.8540 C   0  0  0  0  0  0  0  0  0  0  0  0
  187.7780  177.7970  140.0190 C   0  0  0  0  0  0  0  0  0  0  0  0
  190.2750  177.6050  141.1860 N   0  0  0  0  0  0  0  0  0  0  0  0
  190.0820  177.0570  139.9550 C   0  0  0  0  0  0  0  0  0  0  0  0
  188.0050  178.3430  141.2840 C   0  0  0  0  0  3  0  0  0  0  0  0
  189.5220  178.7990  143.1390 N   0  0  0  0  0  1  0  0  0  0  0  0
  193.6390  176.2620  138.6960 C   0  0  0  0  0  1  0  0  0  0  0  0
  190.9730  175.2980  138.6420 O   0  0  0  0  0  0  0  0  0  0  0  0
  191.1870  176.3660  139.2770 C   0  0  0  0  0  0  0  0  0  0  0  0
  192.5100  176.9050  139.3470 N   0  0  0  0  0  2  0  0  0  0  0  0
  191.7790  173.9930  135.6250 N   0  0  0  0  0  0  0  0  0  0  0  0
  191.4240  176.0180  134.6100 C   0  0  0  0  0  3  0  0  0  0  0  0
  189.5750  173.1630  135.5710 O   0  0  0  0  0  0  0  0  0  0  0  0
  190.3970  174.0890  135.3400 C   0  0  0  0  0  0  0  0  0  0  0  0
  190.0560  175.3880  134.6760 C   0  0  1  0  0  3  0  0  0  0  0  0
  192.3320  175.2180  135.1600 C   0  0  0  0  0  0  0  0  0  0  0  0
  192.3820  173.0350  136.5380 C   0  0  0  0  0  1  0  0  0  0  0  0
  194.7760  174.7840  134.6050 C   0  0  0  0  0  1  0  0  0  0  0  0
  193.7190  175.5680  135.2210 N   0  0  0  0  0  2  0  0  0  0  0  0
  182.6650  179.2100  137.8760 N   0  0  0  0  0  2  0  0  0  0  0  0
  181.3030  179.3330  139.8970 C   0  0  0  0  0  3  0  0  0  0  0  0
  179.9810  179.4370  141.9090 O   0  0  0  0  0  1  0  0  0  0  0  0
  179.6000  182.9510  138.5390 C   0  0  0  0  0  1  0  0  0  0  0  0
  178.9330  181.7770  140.9480 O   0  0  0  0  0  0  0  0  0  0  0  0
  181.0930  181.0760  138.2510 C   0  0  0  0  0  3  0  0  0  0  0  0
  180.1700  181.7050  139.0290 N   0  0  0  0  0  0  0  0  0  0  0  0
  181.6790  179.8750  138.6690 C   0  0  0  0  0  0  0  0  0  0  0  0
  180.3550  179.9830  140.6870 C   0  0  0  0  0  0  0  0  0  0  0  0
  179.7910  181.1840  140.2360 C   0  0  0  0  0  0  0  0  0  0  0  0
  2 14  1  0  0  0  0
  2  1  1  0  0  0  0
  3  7  1  0  0  0  0
  4  5  1  0  0  0  0
  5  7  1  0  0  0  0
  5 14  2  0  0  0  0
  6 19  1  1  0  0  0
  6 10  1  0  0  0  0
  7 11  1  1  0  0  0
  8  2  2  0  0  0  0
  9  4  2  0  0  0  0
  9  8  1  0  0  0  0
 12  3  1  1  0  0  0
 12 15  1  0  0  0  0
 12 13  1  0  0  0  0
 13 37  1  6  0  0  0
 13 16  1  0  0  0  0
 15 14  1  6  0  0  0
 15  6  1  0  0  0  0
 16 10  1  0  0  0  0
 17 21  2  0  0  0  0
 17 19  1  0  0  0  0
 18 23  1  0  0  0  0
 19 22  2  0  0  0  0
 20 18  2  0  0  0  0
 21 20  1  0  0  0  0
 22 18  1  0  0  0  0
 24 27  1  0  0  0  0
 25 26  2  0  0  0  0
 26 27  1  0  0  0  0
 26 21  1  0  0  0  0
 28 34  1  0  0  0  0
 29 32  1  0  0  0  0
 29 33  2  0  0  0  0
 31 30  2  0  0  0  0
 31 28  1  0  0  0  0
 32 31  1  0  0  0  0
 32  9  1  1  0  0  0
 33 36  1  0  0  0  0
 33 28  1  0  0  0  0
 35 36  1  0  0  0  0
 37 44  1  0  0  0  0
 38 45  2  0  0  0  0
 40 43  1  0  0  0  0
 42 44  2  0  0  0  0
 42 43  1  0  0  0  0
 43 46  1  0  0  0  0
 44 38  1  0  0  0  0
 45 39  1  0  0  0  0
 46 45  1  0  0  0  0
 46 41  2  0  0  0  0
M  END
>  <MODEL>
9

>  <REMARK>
 VINA RESULT:      -5.3      2.974     10.541
  Name = 
  6 active torsions:
  status: ('A' for Active; 'I' for Inactive)
    1  A    between atoms: C_10  and  C_23
    2  A    between atoms: N_17  and  C_38
    3  A    between atoms: N_17  and  C_39
    4  A    between atoms: C_18  and  C_20
    5  A    between atoms: C_28  and  C_33
    6  A    between atoms: C_36  and  N_43
                            x       y       z     vdW  Elec       q    Type
                         _______ _______ _______ _____ _____    ______ ____

>  <TORSDO>
F 6

$$$$
