=
 OpenBabel10222420313D

 37 39  0  0  1  0  0  0  0  0999 V2000
  186.3180  177.9040  143.7100 C   0  0  0  0  0  2  0  0  0  0  0  0
  185.9330  178.9150  146.3730 C   0  0  0  0  0  0  0  0  0  0  0  0
  187.0690  177.2630  144.8740 C   0  0  0  0  0  2  0  0  0  0  0  0
  184.9830  178.4580  144.1490 C   0  0  0  0  0  0  0  0  0  0  0  0
  185.8190  179.6020  147.4620 N   0  0  0  0  0  2  0  0  0  0  0  0
  184.8450  178.9670  145.3830 C   0  0  0  0  0  3  0  0  0  0  0  0
  187.2500  178.2690  146.0110 C   0  0  2  0  0  3  0  0  0  0  0  0
  183.2650  179.0280  140.7770 C   0  0  1  0  0  3  0  0  0  0  0  0
  181.0890  178.6360  141.7800 N   0  0  0  0  0  0  0  0  0  0  0  0
  183.8610  178.5340  143.1820 C   0  0  0  0  0  0  0  0  0  0  0  0
  181.3420  178.8170  143.0440 C   0  0  0  0  0  0  0  0  0  0  0  0
  182.6500  178.7060  143.6450 N   0  0  0  0  0  0  0  0  0  0  0  0
  181.9990  178.2180  140.7300 C   0  0  0  0  0  2  0  0  0  0  0  0
  184.1930  178.3260  141.7320 C   0  0  0  0  0  2  0  0  0  0  0  0
  180.2590  179.1770  143.8920 N   0  0  0  0  0  1  0  0  0  0  0  0
  184.0240  179.1590  139.1180 S   0  0  0  0  0  0  0  0  0  0  0  0
  180.6580  178.3410  136.8830 C   0  0  0  0  0  2  0  0  0  0  0  0
  180.5360  179.7260  137.1970 O   0  0  0  0  0  0  0  0  0  0  0  0
  182.4960  179.0650  138.2180 N   0  0  0  0  0  0  0  0  0  0  0  0
  181.9820  177.8850  137.5360 C   0  0  2  0  0  3  0  0  0  0  0  0
  181.7750  181.3730  138.3900 C   0  0  0  0  0  2  0  0  0  0  0  0
  181.6030  180.1290  137.9630 C   0  0  0  0  0  0  0  0  0  0  0  0
  182.9690  177.3630  136.4910 C   0  0  0  0  0  2  0  0  0  0  0  0
  183.1070  175.5600  138.1830 C   0  0  0  0  0  1  0  0  0  0  0  0
  183.3720  175.9170  136.7370 C   0  0  0  0  0  2  0  0  0  0  0  0
  187.8940  177.5960  147.1900 C   0  0  0  0  0  0  0  0  0  0  0  0
  187.2430  176.8570  147.9150 O   0  0  0  0  0  0  0  0  0  0  0  0
  189.3320  177.8590  147.5000 C   0  0  0  0  0  2  0  0  0  0  0  0
  190.7290  177.3890  145.5930 N   0  0  0  0  0  0  0  0  0  0  0  0
  190.2190  176.9700  146.6920 C   0  0  0  0  0  3  0  0  0  0  0  0
  191.5760  176.5270  144.8150 C   0  0  0  0  0  2  0  0  0  0  0  0
  191.5410  176.9320  143.4190 N   0  0  0  0  0  2  0  0  0  0  0  0
  189.6060  175.7280  142.9150 O   0  0  0  0  0  0  0  0  0  0  0  0
  190.5150  176.5060  142.5170 C   0  0  0  0  0  0  0  0  0  0  0  0
  191.7850  177.4110  140.4740 C   0  0  0  0  0  1  0  0  0  0  0  0
  190.5200  176.9710  141.1240 C   0  0  0  0  0  0  0  0  0  0  0  0
  189.4480  177.0010  140.4640 O   0  0  0  0  0  0  0  0  0  0  0  0
  1  4  1  0  0  0  0
  1  3  1  0  0  0  0
  2  5  2  0  0  0  0
  3  7  1  0  0  0  0
  4  6  2  0  0  0  0
  6  2  1  0  0  0  0
  7  2  1  0  0  0  0
  7 26  1  1  0  0  0
  8 16  1  6  0  0  0
  8 14  1  0  0  0  0
  9 11  2  0  0  0  0
 10 12  2  0  0  0  0
 10  4  1  0  0  0  0
 11 12  1  0  0  0  0
 11 15  1  0  0  0  0
 13  8  1  0  0  0  0
 13  9  1  0  0  0  0
 14 10  1  0  0  0  0
 17 18  1  0  0  0  0
 17 20  1  0  0  0  0
 18 22  1  0  0  0  0
 19 16  1  0  0  0  0
 20 23  1  6  0  0  0
 20 19  1  0  0  0  0
 22 19  1  0  0  0  0
 22 21  2  0  0  0  0
 23 25  1  0  0  0  0
 25 24  1  0  0  0  0
 26 28  1  0  0  0  0
 26 27  2  0  0  0  0
 29 30  2  0  0  0  0
 30 28  1  0  0  0  0
 31 29  1  0  0  0  0
 32 31  1  0  0  0  0
 34 33  2  0  0  0  0
 34 32  1  0  0  0  0
 35 36  1  0  0  0  0
 36 34  1  0  0  0  0
 37 36  2  0  0  0  0
M  END
>  <MODEL>
1

>  <REMARK>
 VINA RESULT:      -7.9      0.000      0.000
  Name = 
  11 active torsions:
  status: ('A' for Active; 'I' for Inactive)
    1  A    between atoms: C_2  and  C_7
    2  A    between atoms: C_2  and  C_33
    3  A    between atoms: C_3  and  S_37
    4  A    between atoms: N_6  and  C_16
    5  A    between atoms: C_7  and  C_24
    6  A    between atoms: C_8  and  C_27
    7  A    between atoms: C_10  and  C_25
    8  A    between atoms: C_12  and  C_28
    9  A    between atoms: C_16  and  N_18
   10  A    between atoms: N_26  and  S_37
   11  A    between atoms: C_27  and  C_31
                            x       y       z     vdW  Elec       q    Type
                         _______ _______ _______ _____ _____    ______ ____

>  <TORSDO>
F 11

$$$$
=
 OpenBabel10222420313D

 37 39  0  0  1  0  0  0  0  0999 V2000
  185.4560  178.1980  142.9870 C   0  0  0  0  0  2  0  0  0  0  0  0
  185.4870  178.8820  145.7790 C   0  0  0  0  0  0  0  0  0  0  0  0
  186.4750  177.5360  143.9120 C   0  0  0  0  0  2  0  0  0  0  0  0
  184.1820  178.5430  143.7200 C   0  0  0  0  0  0  0  0  0  0  0  0
  185.5160  179.4360  146.9450 N   0  0  0  0  0  2  0  0  0  0  0  0
  184.2320  178.9040  145.0110 C   0  0  0  0  0  3  0  0  0  0  0  0
  186.7680  178.4370  145.1130 C   0  0  2  0  0  3  0  0  0  0  0  0
  181.7950  179.2950  140.8250 C   0  0  1  0  0  3  0  0  0  0  0  0
  179.9120  178.4670  142.1150 N   0  0  0  0  0  0  0  0  0  0  0  0
  182.8940  178.5820  142.9850 C   0  0  0  0  0  0  0  0  0  0  0  0
  180.3800  178.5160  143.3290 C   0  0  0  0  0  0  0  0  0  0  0  0
  181.7830  178.5160  143.6710 N   0  0  0  0  0  0  0  0  0  0  0  0
  180.6470  178.3250  140.8720 C   0  0  0  0  0  2  0  0  0  0  0  0
  182.9640  178.6150  141.4850 C   0  0  0  0  0  2  0  0  0  0  0  0
  179.4440  178.6030  144.3970 N   0  0  0  0  0  1  0  0  0  0  0  0
  182.2020  179.7490  139.1010 S   0  0  0  0  0  0  0  0  0  0  0  0
  183.3300  175.9330  138.0220 C   0  0  0  0  0  2  0  0  0  0  0  0
  182.0480  176.0960  137.4210 O   0  0  0  0  0  0  0  0  0  0  0  0
  182.4330  178.0830  138.5300 N   0  0  0  0  0  0  0  0  0  0  0  0
  183.6190  177.2660  138.7470 C   0  0  2  0  0  3  0  0  0  0  0  0
  180.3770  177.7870  137.2800 C   0  0  0  0  0  2  0  0  0  0  0  0
  181.5450  177.3410  137.7200 C   0  0  0  0  0  0  0  0  0  0  0  0
  184.8770  177.9400  138.1970 C   0  0  0  0  0  2  0  0  0  0  0  0
  186.9150  177.7270  136.8070 C   0  0  0  0  0  1  0  0  0  0  0  0
  185.5840  177.0940  137.1490 C   0  0  0  0  0  2  0  0  0  0  0  0
  187.6880  177.7290  146.0670 C   0  0  0  0  0  0  0  0  0  0  0  0
  187.2360  177.0080  146.9450 O   0  0  0  0  0  0  0  0  0  0  0  0
  189.1640  177.9360  145.9660 C   0  0  0  0  0  2  0  0  0  0  0  0
  190.8920  177.0100  144.5630 N   0  0  0  0  0  0  0  0  0  0  0  0
  189.6830  177.4230  144.6620 C   0  0  0  0  0  3  0  0  0  0  0  0
  191.3880  176.5250  143.3040 C   0  0  0  0  0  2  0  0  0  0  0  0
  190.3610  176.6660  142.2840 N   0  0  0  0  0  2  0  0  0  0  0  0
  191.8090  177.5270  140.6670 O   0  0  0  0  0  0  0  0  0  0  0  0
  190.6400  177.1650  140.9720 C   0  0  0  0  0  0  0  0  0  0  0  0
  188.3580  178.0950  140.2400 C   0  0  0  0  0  1  0  0  0  0  0  0
  189.5640  177.2610  139.9770 C   0  0  0  0  0  0  0  0  0  0  0  0
  189.6530  176.6360  138.8880 O   0  0  0  0  0  0  0  0  0  0  0  0
  1  4  1  0  0  0  0
  1  3  1  0  0  0  0
  2  5  2  0  0  0  0
  3  7  1  0  0  0  0
  4  6  2  0  0  0  0
  6  2  1  0  0  0  0
  7  2  1  0  0  0  0
  7 26  1  1  0  0  0
  8 16  1  6  0  0  0
  8 13  1  0  0  0  0
  8 14  1  0  0  0  0
  9 11  2  0  0  0  0
 10 12  2  0  0  0  0
 10  4  1  0  0  0  0
 11 12  1  0  0  0  0
 11 15  1  0  0  0  0
 13  9  1  0  0  0  0
 14 10  1  0  0  0  0
 17 20  1  0  0  0  0
 18 22  1  0  0  0  0
 18 17  1  0  0  0  0
 19 20  1  0  0  0  0
 19 16  1  0  0  0  0
 20 23  1  6  0  0  0
 21 22  2  0  0  0  0
 22 19  1  0  0  0  0
 24 25  1  0  0  0  0
 25 23  1  0  0  0  0
 26 27  2  0  0  0  0
 28 26  1  0  0  0  0
 29 30  2  0  0  0  0
 30 28  1  0  0  0  0
 31 29  1  0  0  0  0
 32 31  1  0  0  0  0
 33 34  2  0  0  0  0
 34 32  1  0  0  0  0
 36 35  1  0  0  0  0
 36 34  1  0  0  0  0
 37 36  2  0  0  0  0
M  END
>  <MODEL>
2

>  <REMARK>
 VINA RESULT:      -7.7      1.639      2.102
  Name = 
  11 active torsions:
  status: ('A' for Active; 'I' for Inactive)
    1  A    between atoms: C_2  and  C_7
    2  A    between atoms: C_2  and  C_33
    3  A    between atoms: C_3  and  S_37
    4  A    between atoms: N_6  and  C_16
    5  A    between atoms: C_7  and  C_24
    6  A    between atoms: C_8  and  C_27
    7  A    between atoms: C_10  and  C_25
    8  A    between atoms: C_12  and  C_28
    9  A    between atoms: C_16  and  N_18
   10  A    between atoms: N_26  and  S_37
   11  A    between atoms: C_27  and  C_31
                            x       y       z     vdW  Elec       q    Type
                         _______ _______ _______ _____ _____    ______ ____

>  <TORSDO>
F 11

$$$$
=
 OpenBabel10222420313D

 37 39  0  0  1  0  0  0  0  0999 V2000
  188.6380  177.6820  141.0530 C   0  0  0  0  0  2  0  0  0  0  0  0
  191.0150  176.9320  142.4840 C   0  0  0  0  0  0  0  0  0  0  0  0
  189.1080  178.5350  142.2290 C   0  0  0  0  0  2  0  0  0  0  0  0
  189.7980  177.0210  140.3470 C   0  0  0  0  0  0  0  0  0  0  0  0
  191.9640  176.3620  143.1490 N   0  0  0  0  0  2  0  0  0  0  0  0
  190.8760  176.6390  141.0490 C   0  0  0  0  0  3  0  0  0  0  0  0
  189.9250  177.6900  143.2070 C   0  0  2  0  0  3  0  0  0  0  0  0
  188.3390  177.1010  136.8100 C   0  0  1  0  0  3  0  0  0  0  0  0
  190.0190  175.5240  136.0430 N   0  0  0  0  0  0  0  0  0  0  0  0
  189.6990  176.7030  138.9020 C   0  0  0  0  0  0  0  0  0  0  0  0
  190.4220  174.9990  137.1640 C   0  0  0  0  0  0  0  0  0  0  0  0
  190.2880  175.6220  138.4600 N   0  0  0  0  0  0  0  0  0  0  0  0
  189.4400  176.8360  135.8200 C   0  0  0  0  0  2  0  0  0  0  0  0
  188.9880  177.6980  138.0300 C   0  0  0  0  0  2  0  0  0  0  0  0
  191.0120  173.7050  137.1160 N   0  0  0  0  0  1  0  0  0  0  0  0
  187.0930  178.2450  136.1160 S   0  0  0  0  0  0  0  0  0  0  0  0
  183.7340  176.6620  137.9090 C   0  0  0  0  0  2  0  0  0  0  0  0
  184.1840  175.6250  137.0420 O   0  0  0  0  0  0  0  0  0  0  0  0
  185.6800  177.3510  136.7140 N   0  0  0  0  0  0  0  0  0  0  0  0
  184.7410  177.8200  137.7250 C   0  0  2  0  0  3  0  0  0  0  0  0
  185.9650  175.2720  135.5010 C   0  0  0  0  0  2  0  0  0  0  0  0
  185.3070  176.0350  136.3630 C   0  0  0  0  0  0  0  0  0  0  0  0
  185.4490  178.1600  139.0380 C   0  0  0  0  0  2  0  0  0  0  0  0
  183.6420  179.8530  139.0570 C   0  0  0  0  0  1  0  0  0  0  0  0
  184.6360  179.1000  139.9150 C   0  0  0  0  0  2  0  0  0  0  0  0
  190.4710  178.5630  144.3010 C   0  0  0  0  0  0  0  0  0  0  0  0
  190.9050  179.6770  144.0470 O   0  0  0  0  0  0  0  0  0  0  0  0
  190.5170  178.0510  145.7040 C   0  0  0  0  0  2  0  0  0  0  0  0
  188.7060  177.9350  147.2910 N   0  0  0  0  0  0  0  0  0  0  0  0
  189.1660  177.5910  146.1450 C   0  0  0  0  0  3  0  0  0  0  0  0
  187.4080  177.4830  147.7130 C   0  0  0  0  0  2  0  0  0  0  0  0
  186.4640  177.6070  146.6140 N   0  0  0  0  0  2  0  0  0  0  0  0
  185.6540  179.6910  147.2860 O   0  0  0  0  0  0  0  0  0  0  0  0
  185.6180  178.7490  146.4480 C   0  0  0  0  0  0  0  0  0  0  0  0
  185.1850  178.5470  143.9230 C   0  0  0  0  0  1  0  0  0  0  0  0
  184.7020  178.8270  145.3030 C   0  0  0  0  0  0  0  0  0  0  0  0
  183.4940  179.1340  145.4800 O   0  0  0  0  0  0  0  0  0  0  0  0
  1  3  1  0  0  0  0
  2  5  2  0  0  0  0
  2  7  1  0  0  0  0
  3  7  1  0  0  0  0
  4  6  2  0  0  0  0
  4  1  1  0  0  0  0
  6  2  1  0  0  0  0
  7 26  1  1  0  0  0
  8 16  1  6  0  0  0
  8 14  1  0  0  0  0
  9 11  2  0  0  0  0
 10  4  1  0  0  0  0
 11 12  1  0  0  0  0
 12 10  2  0  0  0  0
 13  9  1  0  0  0  0
 13  8  1  0  0  0  0
 14 10  1  0  0  0  0
 15 11  1  0  0  0  0
 16 19  1  0  0  0  0
 18 17  1  0  0  0  0
 19 20  1  0  0  0  0
 20 17  1  0  0  0  0
 20 23  1  1  0  0  0
 21 22  2  0  0  0  0
 22 19  1  0  0  0  0
 22 18  1  0  0  0  0
 23 25  1  0  0  0  0
 24 25  1  0  0  0  0
 26 28  1  0  0  0  0
 27 26  2  0  0  0  0
 28 30  1  0  0  0  0
 29 31  1  0  0  0  0
 30 29  2  0  0  0  0
 32 31  1  0  0  0  0
 34 32  1  0  0  0  0
 34 33  2  0  0  0  0
 35 36  1  0  0  0  0
 36 37  2  0  0  0  0
 36 34  1  0  0  0  0
M  END
>  <MODEL>
3

>  <REMARK>
 VINA RESULT:      -7.7      3.350      6.677
  Name = 
  11 active torsions:
  status: ('A' for Active; 'I' for Inactive)
    1  A    between atoms: C_2  and  C_7
    2  A    between atoms: C_2  and  C_33
    3  A    between atoms: C_3  and  S_37
    4  A    between atoms: N_6  and  C_16
    5  A    between atoms: C_7  and  C_24
    6  A    between atoms: C_8  and  C_27
    7  A    between atoms: C_10  and  C_25
    8  A    between atoms: C_12  and  C_28
    9  A    between atoms: C_16  and  N_18
   10  A    between atoms: N_26  and  S_37
   11  A    between atoms: C_27  and  C_31
                            x       y       z     vdW  Elec       q    Type
                         _______ _______ _______ _____ _____    ______ ____

>  <TORSDO>
F 11

$$$$
=
 OpenBabel10222420313D

 37 39  0  0  1  0  0  0  0  0999 V2000
  183.3000  178.6430  142.3480 C   0  0  0  0  0  2  0  0  0  0  0  0
  184.5360  178.9930  139.7770 C   0  0  0  0  0  0  0  0  0  0  0  0
  182.5430  178.2310  141.0880 C   0  0  0  0  0  2  0  0  0  0  0  0
  184.7930  178.4950  142.1730 C   0  0  0  0  0  0  0  0  0  0  0  0
  185.1270  179.3970  138.7010 N   0  0  0  0  0  2  0  0  0  0  0  0
  185.3480  178.7100  140.9710 C   0  0  0  0  0  3  0  0  0  0  0  0
  183.0300  179.0410  139.8850 C   0  0  2  0  0  3  0  0  0  0  0  0
  187.6080  176.8490  144.1750 C   0  0  1  0  0  3  0  0  0  0  0  0
  186.9150  178.0240  146.1840 N   0  0  0  0  0  0  0  0  0  0  0  0
  185.6500  178.2160  143.3510 C   0  0  0  0  0  0  0  0  0  0  0  0
  185.6940  178.3640  145.8850 C   0  0  0  0  0  0  0  0  0  0  0  0
  185.1790  178.4840  144.5420 N   0  0  0  0  0  0  0  0  0  0  0  0
  188.0260  177.7750  145.2850 C   0  0  0  0  0  2  0  0  0  0  0  0
  187.0390  177.7130  143.0820 C   0  0  0  0  0  2  0  0  0  0  0  0
  184.7920  178.6080  146.9580 N   0  0  0  0  0  1  0  0  0  0  0  0
  189.0310  175.8800  143.5580 S   0  0  0  0  0  0  0  0  0  0  0  0
  191.7160  179.0060  143.6990 C   0  0  0  0  0  2  0  0  0  0  0  0
  191.9730  178.2760  144.8960 O   0  0  0  0  0  0  0  0  0  0  0  0
  190.2480  177.1340  143.8730 N   0  0  0  0  0  0  0  0  0  0  0  0
  190.5800  178.2400  142.9840 C   0  0  2  0  0  3  0  0  0  0  0  0
  191.1420  176.3220  145.9750 C   0  0  0  0  0  2  0  0  0  0  0  0
  191.1220  177.1990  144.9800 C   0  0  0  0  0  0  0  0  0  0  0  0
  191.0230  177.7440  141.6070 C   0  0  0  0  0  2  0  0  0  0  0  0
  190.1270  176.7060  139.5440 C   0  0  0  0  0  1  0  0  0  0  0  0
  189.9000  177.7840  140.5810 C   0  0  0  0  0  2  0  0  0  0  0  0
  182.3560  178.5510  138.6350 C   0  0  0  0  0  0  0  0  0  0  0  0
  181.8950  179.3440  137.8270 O   0  0  0  0  0  0  0  0  0  0  0  0
  182.2140  177.0820  138.3950 C   0  0  0  0  0  2  0  0  0  0  0  0
  184.2510  175.9770  137.7300 N   0  0  0  0  0  0  0  0  0  0  0  0
  183.1980  176.6150  137.3730 C   0  0  0  0  0  3  0  0  0  0  0  0
  185.1980  175.5370  136.7430 C   0  0  0  0  0  2  0  0  0  0  0  0
  186.4690  176.2140  136.9450 N   0  0  0  0  0  2  0  0  0  0  0  0
  186.0590  177.8790  135.3620 O   0  0  0  0  0  0  0  0  0  0  0  0
  186.8370  177.3960  136.2280 C   0  0  0  0  0  0  0  0  0  0  0  0
  189.3960  177.4570  135.9930 C   0  0  0  0  0  1  0  0  0  0  0  0
  188.1260  178.0480  136.4960 C   0  0  0  0  0  0  0  0  0  0  0  0
  188.1660  179.1190  137.1570 O   0  0  0  0  0  0  0  0  0  0  0  0
  2  7  1  0  0  0  0
  2  6  1  0  0  0  0
  3  1  1  0  0  0  0
  4  1  1  0  0  0  0
  4 10  1  0  0  0  0
  5  2  2  0  0  0  0
  6  4  2  0  0  0  0
  7 26  1  6  0  0  0
  7  3  1  0  0  0  0
  8 16  1  6  0  0  0
  8 13  1  0  0  0  0
 10 12  2  0  0  0  0
 11  9  2  0  0  0  0
 11 15  1  0  0  0  0
 12 11  1  0  0  0  0
 13  9  1  0  0  0  0
 14 10  1  0  0  0  0
 14  8  1  0  0  0  0
 16 19  1  0  0  0  0
 17 18  1  0  0  0  0
 18 22  1  0  0  0  0
 19 22  1  0  0  0  0
 20 23  1  6  0  0  0
 20 17  1  0  0  0  0
 20 19  1  0  0  0  0
 22 21  2  0  0  0  0
 24 25  1  0  0  0  0
 25 23  1  0  0  0  0
 27 26  2  0  0  0  0
 28 26  1  0  0  0  0
 30 29  2  0  0  0  0
 30 28  1  0  0  0  0
 31 32  1  0  0  0  0
 31 29  1  0  0  0  0
 33 34  2  0  0  0  0
 34 36  1  0  0  0  0
 34 32  1  0  0  0  0
 35 36  1  0  0  0  0
 36 37  2  0  0  0  0
M  END
>  <MODEL>
4

>  <REMARK>
 VINA RESULT:      -7.6      2.827      8.393
  Name = 
  11 active torsions:
  status: ('A' for Active; 'I' for Inactive)
    1  A    between atoms: C_2  and  C_7
    2  A    between atoms: C_2  and  C_33
    3  A    between atoms: C_3  and  S_37
    4  A    between atoms: N_6  and  C_16
    5  A    between atoms: C_7  and  C_24
    6  A    between atoms: C_8  and  C_27
    7  A    between atoms: C_10  and  C_25
    8  A    between atoms: C_12  and  C_28
    9  A    between atoms: C_16  and  N_18
   10  A    between atoms: N_26  and  S_37
   11  A    between atoms: C_27  and  C_31
                            x       y       z     vdW  Elec       q    Type
                         _______ _______ _______ _____ _____    ______ ____

>  <TORSDO>
F 11

$$$$
=
 OpenBabel10222420313D

 37 39  0  0  1  0  0  0  0  0999 V2000
  187.5650  177.5720  143.0860 C   0  0  0  0  0  2  0  0  0  0  0  0
  190.2520  177.4960  142.0680 C   0  0  0  0  0  0  0  0  0  0  0  0
  188.7310  177.8980  144.0160 C   0  0  0  0  0  2  0  0  0  0  0  0
  187.8700  177.9560  141.6570 C   0  0  0  0  0  0  0  0  0  0  0  0
  191.3940  177.2200  141.5300 N   0  0  0  0  0  2  0  0  0  0  0  0
  189.1260  177.8660  141.1950 C   0  0  0  0  0  3  0  0  0  0  0  0
  190.0080  177.2100  143.5310 C   0  0  2  0  0  3  0  0  0  0  0  0
  184.2540  178.5350  140.5440 C   0  0  1  0  0  3  0  0  0  0  0  0
  184.9980  179.1110  138.3050 N   0  0  0  0  0  0  0  0  0  0  0  0
  186.7650  178.3320  140.7420 C   0  0  0  0  0  0  0  0  0  0  0  0
  186.1940  178.5970  138.2820 C   0  0  0  0  0  0  0  0  0  0  0  0
  186.9860  178.3030  139.4530 N   0  0  0  0  0  0  0  0  0  0  0  0
  184.2370  179.5700  139.4530 C   0  0  0  0  0  2  0  0  0  0  0  0
  185.4830  178.7980  141.3720 C   0  0  0  0  0  2  0  0  0  0  0  0
  186.7520  178.2740  137.0140 N   0  0  0  0  0  1  0  0  0  0  0  0
  182.7470  178.6420  141.5740 S   0  0  0  0  0  0  0  0  0  0  0  0
  180.4000  176.8170  138.7170 C   0  0  0  0  0  2  0  0  0  0  0  0
  180.0990  178.2030  138.5780 O   0  0  0  0  0  0  0  0  0  0  0  0
  181.6270  178.1070  140.3040 N   0  0  0  0  0  0  0  0  0  0  0  0
  181.4450  176.7340  139.8530 C   0  0  2  0  0  3  0  0  0  0  0  0
  180.7600  180.2550  139.5890 C   0  0  0  0  0  2  0  0  0  0  0  0
  180.8160  178.9340  139.4960 C   0  0  0  0  0  0  0  0  0  0  0  0
  182.7580  176.1240  139.3600 C   0  0  0  0  0  2  0  0  0  0  0  0
  184.2110  175.5500  137.4390 C   0  0  0  0  0  1  0  0  0  0  0  0
  182.9190  176.2220  137.8510 C   0  0  0  0  0  2  0  0  0  0  0  0
  191.1680  177.6260  144.3910 C   0  0  0  0  0  0  0  0  0  0  0  0
  191.7010  178.7130  144.2310 O   0  0  0  0  0  0  0  0  0  0  0  0
  191.6960  176.6870  145.4270 C   0  0  0  0  0  2  0  0  0  0  0  0
  190.2220  177.7190  147.0310 N   0  0  0  0  0  0  0  0  0  0  0  0
  190.7940  176.6490  146.6180 C   0  0  0  0  0  3  0  0  0  0  0  0
  189.3610  177.6790  148.1810 C   0  0  0  0  0  2  0  0  0  0  0  0
  188.1880  178.5050  147.9460 N   0  0  0  0  0  2  0  0  0  0  0  0
  187.0860  176.9140  146.6410 O   0  0  0  0  0  0  0  0  0  0  0  0
  187.0710  178.0570  147.1720 C   0  0  0  0  0  0  0  0  0  0  0  0
  184.8850  178.6290  145.9470 C   0  0  0  0  0  1  0  0  0  0  0  0
  185.9030  178.9290  146.9910 C   0  0  0  0  0  0  0  0  0  0  0  0
  185.7530  179.9440  147.7220 O   0  0  0  0  0  0  0  0  0  0  0  0
  1  3  1  0  0  0  0
  2  7  1  0  0  0  0
  4  1  1  0  0  0  0
  5  2  2  0  0  0  0
  6  4  2  0  0  0  0
  6  2  1  0  0  0  0
  7  3  1  0  0  0  0
  7 26  1  1  0  0  0
  8 14  1  0  0  0  0
  8 16  1  1  0  0  0
  9 13  1  0  0  0  0
 10 14  1  0  0  0  0
 10  4  1  0  0  0  0
 11  9  2  0  0  0  0
 11 12  1  0  0  0  0
 12 10  2  0  0  0  0
 13  8  1  0  0  0  0
 15 11  1  0  0  0  0
 17 20  1  0  0  0  0
 18 17  1  0  0  0  0
 18 22  1  0  0  0  0
 19 16  1  0  0  0  0
 20 23  1  6  0  0  0
 20 19  1  0  0  0  0
 22 21  2  0  0  0  0
 22 19  1  0  0  0  0
 24 25  1  0  0  0  0
 25 23  1  0  0  0  0
 26 28  1  0  0  0  0
 27 26  2  0  0  0  0
 28 30  1  0  0  0  0
 29 31  1  0  0  0  0
 30 29  2  0  0  0  0
 32 31  1  0  0  0  0
 33 34  2  0  0  0  0
 34 32  1  0  0  0  0
 35 36  1  0  0  0  0
 36 34  1  0  0  0  0
 36 37  2  0  0  0  0
M  END
>  <MODEL>
5

>  <REMARK>
 VINA RESULT:      -7.3      2.182      4.809
  Name = 
  11 active torsions:
  status: ('A' for Active; 'I' for Inactive)
    1  A    between atoms: C_2  and  C_7
    2  A    between atoms: C_2  and  C_33
    3  A    between atoms: C_3  and  S_37
    4  A    between atoms: N_6  and  C_16
    5  A    between atoms: C_7  and  C_24
    6  A    between atoms: C_8  and  C_27
    7  A    between atoms: C_10  and  C_25
    8  A    between atoms: C_12  and  C_28
    9  A    between atoms: C_16  and  N_18
   10  A    between atoms: N_26  and  S_37
   11  A    between atoms: C_27  and  C_31
                            x       y       z     vdW  Elec       q    Type
                         _______ _______ _______ _____ _____    ______ ____

>  <TORSDO>
F 11

$$$$
=
 OpenBabel10222420313D

 37 39  0  0  1  0  0  0  0  0999 V2000
  188.1720  178.5010  142.7860 C   0  0  0  0  0  2  0  0  0  0  0  0
  190.0990  176.3700  142.8900 C   0  0  0  0  0  0  0  0  0  0  0  0
  189.3720  178.6170  143.7230 C   0  0  0  0  0  2  0  0  0  0  0  0
  188.5040  177.6880  141.5570 C   0  0  0  0  0  0  0  0  0  0  0  0
  190.7550  175.2610  142.9790 N   0  0  0  0  0  2  0  0  0  0  0  0
  189.3720  176.6690  141.6450 C   0  0  0  0  0  3  0  0  0  0  0  0
  189.8790  177.2280  144.1140 C   0  0  2  0  0  3  0  0  0  0  0  0
  188.0980  178.2350  137.7910 C   0  0  1  0  0  3  0  0  0  0  0  0
  185.7270  178.6750  138.0750 N   0  0  0  0  0  0  0  0  0  0  0  0
  187.7920  177.9520  140.2830 C   0  0  0  0  0  0  0  0  0  0  0  0
  185.6590  178.9590  139.3440 C   0  0  0  0  0  0  0  0  0  0  0  0
  186.6290  178.5490  140.3310 N   0  0  0  0  0  0  0  0  0  0  0  0
  186.7020  177.8480  137.3880 C   0  0  0  0  0  2  0  0  0  0  0  0
  188.4290  177.4370  139.0240 C   0  0  0  0  0  2  0  0  0  0  0  0
  184.5660  179.7530  139.7880 N   0  0  0  0  0  1  0  0  0  0  0  0
  189.2910  177.8780  136.4520 S   0  0  0  0  0  0  0  0  0  0  0  0
  189.1300  173.7780  136.8520 C   0  0  0  0  0  2  0  0  0  0  0  0
  188.2350  174.0550  135.7790 O   0  0  0  0  0  0  0  0  0  0  0  0
  189.0190  176.1240  136.4360 N   0  0  0  0  0  0  0  0  0  0  0  0
  189.6890  175.1510  137.2890 C   0  0  2  0  0  3  0  0  0  0  0  0
  187.4520  175.9670  134.5940 C   0  0  0  0  0  2  0  0  0  0  0  0
  188.1840  175.4100  135.5490 C   0  0  0  0  0  0  0  0  0  0  0  0
  191.2090  175.2120  137.1290 C   0  0  0  0  0  2  0  0  0  0  0  0
  193.1550  176.5510  137.8720 C   0  0  0  0  0  1  0  0  0  0  0  0
  191.8990  175.8410  138.3290 C   0  0  0  0  0  2  0  0  0  0  0  0
  191.1230  177.3560  144.9470 C   0  0  0  0  0  0  0  0  0  0  0  0
  192.1260  177.8840  144.4880 O   0  0  0  0  0  0  0  0  0  0  0  0
  191.1460  176.8030  146.3350 C   0  0  0  0  0  2  0  0  0  0  0  0
  188.7550  177.0750  146.4700 N   0  0  0  0  0  0  0  0  0  0  0  0
  189.8880  177.1470  147.0640 C   0  0  0  0  0  3  0  0  0  0  0  0
  187.5480  177.4160  147.1740 C   0  0  0  0  0  2  0  0  0  0  0  0
  186.4450  177.5220  146.2330 N   0  0  0  0  0  2  0  0  0  0  0  0
  185.6840  179.5710  147.0550 O   0  0  0  0  0  0  0  0  0  0  0  0
  185.5490  178.6380  146.2170 C   0  0  0  0  0  0  0  0  0  0  0  0
  184.7140  178.3170  143.8070 C   0  0  0  0  0  1  0  0  0  0  0  0
  184.4670  178.7000  145.2250 C   0  0  0  0  0  0  0  0  0  0  0  0
  183.3170  179.0800  145.5680 O   0  0  0  0  0  0  0  0  0  0  0  0
  1  3  1  0  0  0  0
  2  5  2  0  0  0  0
  2  7  1  0  0  0  0
  3  7  1  0  0  0  0
  4  6  2  0  0  0  0
  4  1  1  0  0  0  0
  6  2  1  0  0  0  0
  7 26  1  6  0  0  0
  8 16  1  6  0  0  0
  8 14  1  0  0  0  0
  9 11  2  0  0  0  0
 10 12  2  0  0  0  0
 10  4  1  0  0  0  0
 11 15  1  0  0  0  0
 11 12  1  0  0  0  0
 13  8  1  0  0  0  0
 13  9  1  0  0  0  0
 14 10  1  0  0  0  0
 17 20  1  0  0  0  0
 18 17  1  0  0  0  0
 19 16  1  0  0  0  0
 19 20  1  0  0  0  0
 20 23  1  6  0  0  0
 21 22  2  0  0  0  0
 22 18  1  0  0  0  0
 22 19  1  0  0  0  0
 23 25  1  0  0  0  0
 24 25  1  0  0  0  0
 26 28  1  0  0  0  0
 27 26  2  0  0  0  0
 28 30  1  0  0  0  0
 29 30  2  0  0  0  0
 29 31  1  0  0  0  0
 32 31  1  0  0  0  0
 34 32  1  0  0  0  0
 34 33  2  0  0  0  0
 35 36  1  0  0  0  0
 36 37  2  0  0  0  0
 36 34  1  0  0  0  0
M  END
>  <MODEL>
6

>  <REMARK>
 VINA RESULT:      -7.3      3.532      6.509
  Name = 
  11 active torsions:
  status: ('A' for Active; 'I' for Inactive)
    1  A    between atoms: C_2  and  C_7
    2  A    between atoms: C_2  and  C_33
    3  A    between atoms: C_3  and  S_37
    4  A    between atoms: N_6  and  C_16
    5  A    between atoms: C_7  and  C_24
    6  A    between atoms: C_8  and  C_27
    7  A    between atoms: C_10  and  C_25
    8  A    between atoms: C_12  and  C_28
    9  A    between atoms: C_16  and  N_18
   10  A    between atoms: N_26  and  S_37
   11  A    between atoms: C_27  and  C_31
                            x       y       z     vdW  Elec       q    Type
                         _______ _______ _______ _____ _____    ______ ____

>  <TORSDO>
F 11

$$$$
=
 OpenBabel10222420313D

 37 39  0  0  1  0  0  0  0  0999 V2000
  187.9490  178.2590  141.3220 C   0  0  0  0  0  2  0  0  0  0  0  0
  185.2770  179.0140  140.5780 C   0  0  0  0  0  0  0  0  0  0  0  0
  186.8150  178.1020  142.3320 C   0  0  0  0  0  2  0  0  0  0  0  0
  187.4570  178.0920  139.9040 C   0  0  0  0  0  0  0  0  0  0  0  0
  184.1880  179.5810  140.1780 N   0  0  0  0  0  2  0  0  0  0  0  0
  186.2210  178.4960  139.5750 C   0  0  0  0  0  3  0  0  0  0  0  0
  185.6910  179.0940  142.0290 C   0  0  2  0  0  3  0  0  0  0  0  0
  188.4900  176.2790  136.6960 C   0  0  1  0  0  3  0  0  0  0  0  0
  190.8340  176.7020  137.1690 N   0  0  0  0  0  0  0  0  0  0  0  0
  188.3770  177.5790  138.8590 C   0  0  0  0  0  0  0  0  0  0  0  0
  190.8040  176.9630  138.4440 C   0  0  0  0  0  0  0  0  0  0  0  0
  189.6380  177.4170  139.1650 N   0  0  0  0  0  0  0  0  0  0  0  0
  189.7760  176.8730  136.1900 C   0  0  0  0  0  2  0  0  0  0  0  0
  187.8000  177.3550  137.4900 C   0  0  0  0  0  2  0  0  0  0  0  0
  191.9990  176.7610  139.1900 N   0  0  0  0  0  1  0  0  0  0  0  0
  187.4340  175.7230  135.3100 S   0  0  0  0  0  0  0  0  0  0  0  0
  184.8950  173.2410  137.4070 C   0  0  0  0  0  2  0  0  0  0  0  0
  186.1730  172.6260  137.5480 O   0  0  0  0  0  0  0  0  0  0  0  0
  186.5600  174.4870  136.2390 N   0  0  0  0  0  0  0  0  0  0  0  0
  185.1380  174.5080  136.5550 C   0  0  2  0  0  3  0  0  0  0  0  0
  188.4100  173.0410  136.8430 C   0  0  0  0  0  2  0  0  0  0  0  0
  187.1220  173.3570  136.8730 C   0  0  0  0  0  0  0  0  0  0  0  0
  184.7470  175.7760  137.3160 C   0  0  0  0  0  2  0  0  0  0  0  0
  183.2150  177.7200  137.3730 C   0  0  0  0  0  1  0  0  0  0  0  0
  183.9260  176.7360  136.4700 C   0  0  0  0  0  2  0  0  0  0  0  0
  184.5380  178.8570  142.9620 C   0  0  0  0  0  0  0  0  0  0  0  0
  183.7310  177.9670  142.7370 O   0  0  0  0  0  0  0  0  0  0  0  0
  184.3550  179.7390  144.1550 C   0  0  0  0  0  2  0  0  0  0  0  0
  185.0900  178.5830  146.1380 N   0  0  0  0  0  0  0  0  0  0  0  0
  185.3650  179.4210  145.2080 C   0  0  0  0  0  3  0  0  0  0  0  0
  186.0640  178.2860  147.1540 C   0  0  0  0  0  2  0  0  0  0  0  0
  187.2820  177.7870  146.5360 N   0  0  0  0  0  2  0  0  0  0  0  0
  188.6240  178.1750  148.4060 O   0  0  0  0  0  0  0  0  0  0  0  0
  188.5360  177.7460  147.2240 C   0  0  0  0  0  0  0  0  0  0  0  0
  190.8370  176.6070  147.3440 C   0  0  0  0  0  1  0  0  0  0  0  0
  189.7260  177.2060  146.5530 C   0  0  0  0  0  0  0  0  0  0  0  0
  189.8170  177.2460  145.2980 O   0  0  0  0  0  0  0  0  0  0  0  0
  1  3  1  0  0  0  0
  2  7  1  0  0  0  0
  4  1  1  0  0  0  0
  5  2  2  0  0  0  0
  6  4  2  0  0  0  0
  6  2  1  0  0  0  0
  7  3  1  0  0  0  0
  7 26  1  1  0  0  0
  8 16  1  6  0  0  0
  8 14  1  0  0  0  0
  9 11  2  0  0  0  0
 10 12  2  0  0  0  0
 10  4  1  0  0  0  0
 11 12  1  0  0  0  0
 11 15  1  0  0  0  0
 13  8  1  0  0  0  0
 13  9  1  0  0  0  0
 14 10  1  0  0  0  0
 16 19  1  0  0  0  0
 17 18  1  0  0  0  0
 19 20  1  0  0  0  0
 19 22  1  0  0  0  0
 20 23  1  1  0  0  0
 20 17  1  0  0  0  0
 21 22  2  0  0  0  0
 22 18  1  0  0  0  0
 25 23  1  0  0  0  0
 25 24  1  0  0  0  0
 26 28  1  0  0  0  0
 27 26  2  0  0  0  0
 28 30  1  0  0  0  0
 29 31  1  0  0  0  0
 30 29  2  0  0  0  0
 32 31  1  0  0  0  0
 32 34  1  0  0  0  0
 34 33  2  0  0  0  0
 36 34  1  0  0  0  0
 36 35  1  0  0  0  0
 37 36  2  0  0  0  0
M  END
>  <MODEL>
7

>  <REMARK>
 VINA RESULT:      -7.1      3.540      6.791
  Name = 
  11 active torsions:
  status: ('A' for Active; 'I' for Inactive)
    1  A    between atoms: C_2  and  C_7
    2  A    between atoms: C_2  and  C_33
    3  A    between atoms: C_3  and  S_37
    4  A    between atoms: N_6  and  C_16
    5  A    between atoms: C_7  and  C_24
    6  A    between atoms: C_8  and  C_27
    7  A    between atoms: C_10  and  C_25
    8  A    between atoms: C_12  and  C_28
    9  A    between atoms: C_16  and  N_18
   10  A    between atoms: N_26  and  S_37
   11  A    between atoms: C_27  and  C_31
                            x       y       z     vdW  Elec       q    Type
                         _______ _______ _______ _____ _____    ______ ____

>  <TORSDO>
F 11

$$$$
=
 OpenBabel10222420313D

 37 39  0  0  1  0  0  0  0  0999 V2000
  188.0500  178.3150  141.2920 C   0  0  0  0  0  2  0  0  0  0  0  0
  185.3110  178.9780  140.7280 C   0  0  0  0  0  0  0  0  0  0  0  0
  186.9950  178.1430  142.3820 C   0  0  0  0  0  2  0  0  0  0  0  0
  187.4650  178.1090  139.9150 C   0  0  0  0  0  0  0  0  0  0  0  0
  184.1790  179.5060  140.3970 N   0  0  0  0  0  2  0  0  0  0  0  0
  186.1970  178.4710  139.6680 C   0  0  0  0  0  3  0  0  0  0  0  0
  185.8230  179.0960  142.1450 C   0  0  2  0  0  3  0  0  0  0  0  0
  188.3120  176.3400  136.6290 C   0  0  1  0  0  3  0  0  0  0  0  0
  190.6810  176.7350  136.9860 N   0  0  0  0  0  0  0  0  0  0  0  0
  188.3240  177.6050  138.8160 C   0  0  0  0  0  0  0  0  0  0  0  0
  190.7200  176.9760  138.2650 C   0  0  0  0  0  0  0  0  0  0  0  0
  189.5980  177.4280  139.0520 N   0  0  0  0  0  0  0  0  0  0  0  0
  189.5750  176.9300  136.0660 C   0  0  0  0  0  2  0  0  0  0  0  0
  187.6740  177.4080  137.4760 C   0  0  0  0  0  2  0  0  0  0  0  0
  191.9500  176.7530  138.9440 N   0  0  0  0  0  1  0  0  0  0  0  0
  187.1800  175.8140  135.2920 S   0  0  0  0  0  0  0  0  0  0  0  0
  185.2050  173.0220  137.5950 C   0  0  0  0  0  2  0  0  0  0  0  0
  184.3050  174.1250  137.5440 O   0  0  0  0  0  0  0  0  0  0  0  0
  186.1410  174.8100  136.3250 N   0  0  0  0  0  0  0  0  0  0  0  0
  186.4320  173.4510  136.7600 C   0  0  2  0  0  3  0  0  0  0  0  0
  184.2410  176.2960  136.5650 C   0  0  0  0  0  2  0  0  0  0  0  0
  184.8570  175.1460  136.8060 C   0  0  0  0  0  0  0  0  0  0  0  0
  186.6540  172.5140  135.5710 C   0  0  0  0  0  2  0  0  0  0  0  0
  189.0980  172.6270  135.9510 C   0  0  0  0  0  1  0  0  0  0  0  0
  187.9310  171.6980  135.6990 C   0  0  0  0  0  2  0  0  0  0  0  0
  184.7460  178.8410  143.1610 C   0  0  0  0  0  0  0  0  0  0  0  0
  183.9650  177.9110  143.0170 O   0  0  0  0  0  0  0  0  0  0  0  0
  184.6050  179.7520  144.3370 C   0  0  0  0  0  2  0  0  0  0  0  0
  185.9050  178.1540  145.5880 N   0  0  0  0  0  0  0  0  0  0  0  0
  185.5700  179.3790  145.4150 C   0  0  0  0  0  3  0  0  0  0  0  0
  186.8280  177.7990  146.6320 C   0  0  0  0  0  2  0  0  0  0  0  0
  188.1300  177.5050  146.0570 N   0  0  0  0  0  2  0  0  0  0  0  0
  189.2840  177.6950  148.0770 O   0  0  0  0  0  0  0  0  0  0  0  0
  189.3270  177.4550  146.8400 C   0  0  0  0  0  0  0  0  0  0  0  0
  190.7120  176.9870  144.7260 C   0  0  0  0  0  1  0  0  0  0  0  0
  190.6100  177.1270  146.2050 C   0  0  0  0  0  0  0  0  0  0  0  0
  191.6400  176.9600  146.9100 O   0  0  0  0  0  0  0  0  0  0  0  0
  1  3  1  0  0  0  0
  2  7  1  0  0  0  0
  4  1  1  0  0  0  0
  5  2  2  0  0  0  0
  6  4  2  0  0  0  0
  6  2  1  0  0  0  0
  7  3  1  0  0  0  0
  7 26  1  1  0  0  0
  8 16  1  6  0  0  0
  8 14  1  0  0  0  0
  9 11  2  0  0  0  0
 10 12  2  0  0  0  0
 10  4  1  0  0  0  0
 11 15  1  0  0  0  0
 11 12  1  0  0  0  0
 13  8  1  0  0  0  0
 13  9  1  0  0  0  0
 14 10  1  0  0  0  0
 16 19  1  0  0  0  0
 18 17  1  0  0  0  0
 19 20  1  0  0  0  0
 19 22  1  0  0  0  0
 20 23  1  6  0  0  0
 20 17  1  0  0  0  0
 21 22  2  0  0  0  0
 22 18  1  0  0  0  0
 23 25  1  0  0  0  0
 25 24  1  0  0  0  0
 26 28  1  0  0  0  0
 27 26  2  0  0  0  0
 28 30  1  0  0  0  0
 29 31  1  0  0  0  0
 30 29  2  0  0  0  0
 32 31  1  0  0  0  0
 32 34  1  0  0  0  0
 34 33  2  0  0  0  0
 35 36  1  0  0  0  0
 36 34  1  0  0  0  0
 36 37  2  0  0  0  0
M  END
>  <MODEL>
8

>  <REMARK>
 VINA RESULT:      -7.1      3.852      6.570
  Name = 
  11 active torsions:
  status: ('A' for Active; 'I' for Inactive)
    1  A    between atoms: C_2  and  C_7
    2  A    between atoms: C_2  and  C_33
    3  A    between atoms: C_3  and  S_37
    4  A    between atoms: N_6  and  C_16
    5  A    between atoms: C_7  and  C_24
    6  A    between atoms: C_8  and  C_27
    7  A    between atoms: C_10  and  C_25
    8  A    between atoms: C_12  and  C_28
    9  A    between atoms: C_16  and  N_18
   10  A    between atoms: N_26  and  S_37
   11  A    between atoms: C_27  and  C_31
                            x       y       z     vdW  Elec       q    Type
                         _______ _______ _______ _____ _____    ______ ____

>  <TORSDO>
F 11

$$$$
=
 OpenBabel10222420313D

 37 39  0  0  1  0  0  0  0  0999 V2000
  185.6320  175.2540  135.7030 C   0  0  0  0  0  2  0  0  0  0  0  0
  187.0030  177.4480  136.9560 C   0  0  0  0  0  0  0  0  0  0  0  0
  187.1520  175.2140  135.8360 C   0  0  0  0  0  2  0  0  0  0  0  0
  184.9960  176.0290  136.8330 C   0  0  0  0  0  0  0  0  0  0  0  0
  187.4870  178.5810  137.3450 N   0  0  0  0  0  2  0  0  0  0  0  0
  185.6390  177.0780  137.3670 C   0  0  0  0  0  3  0  0  0  0  0  0
  187.7200  176.6320  135.9060 C   0  0  2  0  0  3  0  0  0  0  0  0
  181.7840  176.3220  138.8920 C   0  0  1  0  0  3  0  0  0  0  0  0
  180.8520  174.3740  137.7800 N   0  0  0  0  0  0  0  0  0  0  0  0
  183.6210  175.6930  137.2760 C   0  0  0  0  0  0  0  0  0  0  0  0
  181.9200  173.8090  137.2950 C   0  0  0  0  0  0  0  0  0  0  0  0
  183.1660  174.4910  137.0360 N   0  0  0  0  0  0  0  0  0  0  0  0
  180.6360  175.7760  138.0880 C   0  0  0  0  0  2  0  0  0  0  0  0
  182.8170  176.7950  137.9050 C   0  0  0  0  0  2  0  0  0  0  0  0
  181.8670  172.4140  137.0250 N   0  0  0  0  0  1  0  0  0  0  0  0
  181.2380  177.6990  139.9650 S   0  0  0  0  0  0  0  0  0  0  0  0
  185.0420  179.1730  140.5630 C   0  0  0  0  0  2  0  0  0  0  0  0
  184.4620  180.0820  139.6310 O   0  0  0  0  0  0  0  0  0  0  0  0
  182.8150  178.5140  140.0210 N   0  0  0  0  0  0  0  0  0  0  0  0
  183.9430  178.1280  140.8590 C   0  0  2  0  0  3  0  0  0  0  0  0
  182.3800  180.3570  138.5090 C   0  0  0  0  0  2  0  0  0  0  0  0
  183.1790  179.6910  139.3310 C   0  0  0  0  0  0  0  0  0  0  0  0
  183.5670  178.1180  142.3410 C   0  0  0  0  0  2  0  0  0  0  0  0
  183.9930  179.2660  144.4930 C   0  0  0  0  0  1  0  0  0  0  0  0
  184.6320  178.7550  143.2200 C   0  0  0  0  0  2  0  0  0  0  0  0
  189.2020  176.5760  136.1450 C   0  0  0  0  0  0  0  0  0  0  0  0
  189.9710  177.1950  135.4240 O   0  0  0  0  0  0  0  0  0  0  0  0
  189.7430  175.7290  137.2510 C   0  0  0  0  0  2  0  0  0  0  0  0
  190.3480  176.2140  139.5340 N   0  0  0  0  0  0  0  0  0  0  0  0
  190.3790  176.5760  138.3050 C   0  0  0  0  0  3  0  0  0  0  0  0
  190.9550  177.0370  140.5440 C   0  0  0  0  0  2  0  0  0  0  0  0
  189.9820  177.3340  141.5840 N   0  0  0  0  0  2  0  0  0  0  0  0
  190.3520  175.3560  142.7680 O   0  0  0  0  0  0  0  0  0  0  0  0
  189.7350  176.4520  142.6840 C   0  0  0  0  0  0  0  0  0  0  0  0
  189.1160  177.7850  144.7920 C   0  0  0  0  0  1  0  0  0  0  0  0
  188.7570  176.8200  143.7170 C   0  0  0  0  0  0  0  0  0  0  0  0
  187.6030  176.3180  143.7020 O   0  0  0  0  0  0  0  0  0  0  0  0
  1  3  1  0  0  0  0
  1  4  1  0  0  0  0
  2  5  2  0  0  0  0
  2  6  1  0  0  0  0
  3  7  1  0  0  0  0
  4 10  1  0  0  0  0
  4  6  2  0  0  0  0
  7 26  1  1  0  0  0
  7  2  1  0  0  0  0
  8 16  1  6  0  0  0
  9 13  1  0  0  0  0
 10 14  1  0  0  0  0
 11  9  2  0  0  0  0
 12 10  2  0  0  0  0
 12 11  1  0  0  0  0
 13  8  1  0  0  0  0
 14  8  1  0  0  0  0
 15 11  1  0  0  0  0
 16 19  1  0  0  0  0
 17 20  1  0  0  0  0
 18 17  1  0  0  0  0
 19 20  1  0  0  0  0
 20 23  1  1  0  0  0
 21 22  2  0  0  0  0
 22 18  1  0  0  0  0
 22 19  1  0  0  0  0
 23 25  1  0  0  0  0
 25 24  1  0  0  0  0
 26 28  1  0  0  0  0
 27 26  2  0  0  0  0
 28 30  1  0  0  0  0
 29 31  1  0  0  0  0
 30 29  2  0  0  0  0
 31 32  1  0  0  0  0
 32 34  1  0  0  0  0
 34 33  2  0  0  0  0
 34 36  1  0  0  0  0
 36 35  1  0  0  0  0
 37 36  2  0  0  0  0
M  END
>  <MODEL>
9

>  <REMARK>
 VINA RESULT:      -7.1      3.138      6.863
  Name = 
  11 active torsions:
  status: ('A' for Active; 'I' for Inactive)
    1  A    between atoms: C_2  and  C_7
    2  A    between atoms: C_2  and  C_33
    3  A    between atoms: C_3  and  S_37
    4  A    between atoms: N_6  and  C_16
    5  A    between atoms: C_7  and  C_24
    6  A    between atoms: C_8  and  C_27
    7  A    between atoms: C_10  and  C_25
    8  A    between atoms: C_12  and  C_28
    9  A    between atoms: C_16  and  N_18
   10  A    between atoms: N_26  and  S_37
   11  A    between atoms: C_27  and  C_31
                            x       y       z     vdW  Elec       q    Type
                         _______ _______ _______ _____ _____    ______ ____

>  <TORSDO>
F 11

$$$$
