=
 OpenBabel10222417213D

 46 50  0  0  1  0  0  0  0  0999 V2000
  185.4060  178.6320  145.5020 C   0  0  0  0  0  0  0  0  0  0  0  0
  187.6150  177.7540  145.9700 C   0  0  0  0  0  3  0  0  0  0  0  0
  186.4210  177.7220  143.7510 C   0  0  0  0  0  0  0  0  0  0  0  0
  185.1580  178.1910  143.3930 C   0  0  0  0  0  0  0  0  0  0  0  0
  186.2810  178.8040  147.7300 C   0  0  0  0  0  3  0  0  0  0  0  0
  186.5610  178.0100  145.0930 C   0  0  0  0  0  0  0  0  0  0  0  0
  185.2330  179.0470  146.8240 C   0  0  0  0  0  3  0  0  0  0  0  0
  184.5470  178.7450  144.4660 N   0  0  0  0  0  0  0  0  0  0  0  0
  187.4620  178.1560  147.3100 C   0  0  0  0  0  0  0  0  0  0  0  0
  189.6820  177.4210  147.6180 O   0  0  0  0  0  1  0  0  0  0  0  0
  188.5640  177.9240  148.2810 C   0  0  0  0  0  2  0  0  0  0  0  0
  183.2520  179.2940  144.4590 N   0  0  0  0  0  2  0  0  0  0  0  0
  182.0620  178.5350  144.1030 C   0  0  0  0  0  2  0  0  0  0  0  0
  181.1580  179.3640  143.2040 C   0  0  0  0  0  2  0  0  0  0  0  0
  180.0420  178.5350  142.6520 C   0  0  0  0  0  0  0  0  0  0  0  0
  179.7100  177.5030  143.2140 O   0  0  0  0  0  0  0  0  0  0  0  0
  179.3710  178.9490  141.3740 C   0  0  0  0  0  2  0  0  0  0  0  0
  179.0670  179.0890  137.9890 O   0  0  0  0  0  0  0  0  0  0  0  0
  181.6110  179.7260  138.2620 C   0  0  0  0  0  2  0  0  0  0  0  0
  181.1880  177.5360  140.4160 C   0  0  0  0  0  1  0  0  0  0  0  0
  180.1670  181.1780  139.6910 C   0  0  0  0  0  1  0  0  0  0  0  0
  179.2510  178.1210  138.9840 C   0  0  0  0  0  2  0  0  0  0  0  0
  180.4840  178.9850  137.0100 S   0  0  0  0  0  0  0  0  0  0  0  0
  180.1810  178.6330  140.1000 C   0  0  1  0  0  0  0  0  0  0  0  0
  180.9780  179.8870  139.6500 C   0  0  1  0  0  3  0  0  0  0  0  0
  184.5230  178.0480  142.0460 C   0  0  0  0  0  2  0  0  0  0  0  0
  184.8740  178.8670  139.7130 C   0  0  0  0  0  1  0  0  0  0  0  0
  186.0270  179.8260  141.5550 O   0  0  0  0  0  1  0  0  0  0  0  0
  184.8080  179.2650  141.1780 C   0  0  2  0  0  3  0  0  0  0  0  0
  187.4080  177.0160  142.8800 C   0  0  0  0  0  2  0  0  0  0  0  0
  188.5410  177.9540  142.5080 C   0  0  0  0  0  2  0  0  0  0  0  0
  190.8530  176.2470  140.1290 N   0  0  0  0  0  0  0  0  0  0  0  0
  190.2850  176.9890  139.0150 C   0  0  2  0  0  3  0  0  0  0  0  0
  188.9290  178.0370  139.6600 S   0  0  0  0  0  0  0  0  0  0  0  0
  190.7380  175.9440  142.6400 C   0  0  0  0  0  1  0  0  0  0  0  0
  190.2490  176.5530  141.3720 C   0  0  0  0  0  0  0  0  0  0  0  0
  189.2680  177.4370  141.3110 C   0  0  1  0  0  3  0  0  0  0  0  0
  190.6700  175.2590  137.1840 N   0  0  0  0  0  0  0  0  0  0  0  0
  193.1590  172.2680  135.7630 C   0  0  0  0  0  1  0  0  0  0  0  0
  192.1120  175.4920  137.2560 C   0  0  0  0  0  2  0  0  0  0  0  0
  190.1550  174.4100  136.1100 C   0  0  0  0  0  2  0  0  0  0  0  0
  189.7650  176.0520  137.9680 C   0  0  0  0  0  0  0  0  0  0  0  0
  192.4180  173.5120  135.8550 N   0  0  0  0  0  0  0  0  0  0  0  0
  191.0090  173.1500  136.0030 C   0  0  0  0  0  2  0  0  0  0  0  0
  192.8550  174.1700  137.0840 C   0  0  0  0  0  2  0  0  0  0  0  0
  188.5220  175.9780  137.7640 O   0  0  0  0  0  0  0  0  0  0  0  0
  1  7  1  0  0  0  0
  2  9  2  0  0  0  0
  3  6  1  0  0  0  0
  4  3  2  0  0  0  0
  4  8  1  0  0  0  0
  6  1  2  0  0  0  0
  6  2  1  0  0  0  0
  7  5  2  0  0  0  0
  8  1  1  0  0  0  0
  9  5  1  0  0  0  0
  9 11  1  0  0  0  0
 10 11  1  0  0  0  0
 12  8  1  0  0  0  0
 13 12  1  0  0  0  0
 14 13  1  0  0  0  0
 15 14  1  0  0  0  0
 15 16  2  0  0  0  0
 17 15  1  0  0  0  0
 18 22  1  0  0  0  0
 19 25  1  0  0  0  0
 22 24  1  0  0  0  0
 23 18  1  0  0  0  0
 23 19  1  0  0  0  0
 24 20  1  1  0  0  0
 24 17  1  0  0  0  0
 25 21  1  6  0  0  0
 25 24  1  0  0  0  0
 26  4  1  0  0  0  0
 29 27  1  6  0  0  0
 29 28  1  0  0  0  0
 29 26  1  0  0  0  0
 30  3  1  0  0  0  0
 31 30  1  0  0  0  0
 32 36  2  0  0  0  0
 33 42  1  6  0  0  0
 33 34  1  0  0  0  0
 33 32  1  0  0  0  0
 34 37  1  0  0  0  0
 36 35  1  0  0  0  0
 37 36  1  0  0  0  0
 37 31  1  1  0  0  0
 38 40  1  0  0  0  0
 38 42  1  0  0  0  0
 39 43  1  0  0  0  0
 41 38  1  0  0  0  0
 43 44  1  0  0  0  0
 43 45  1  0  0  0  0
 44 41  1  0  0  0  0
 45 40  1  0  0  0  0
 46 42  2  0  0  0  0
M  END
>  <MODEL>
1

>  <REMARK>
 VINA RESULT:      -8.4      0.000      0.000
  Name = 
  13 active torsions:
  status: ('A' for Active; 'I' for Inactive)
    1  A    between atoms: N_9  and  N_34
    2  A    between atoms: N_9  and  C_36
    3  A    between atoms: C_10  and  C_29
    4  A    between atoms: C_12  and  C_40
    5  A    between atoms: C_15  and  C_17
    6  A    between atoms: C_15  and  C_32
    7  A    between atoms: C_23  and  C_27
    8  A    between atoms: C_23  and  C_36
    9  A    between atoms: C_24  and  C_38
   10  A    between atoms: C_27  and  C_45
   11  A    between atoms: C_39  and  C_43
   12  A    between atoms: C_40  and  C_43
   13  A    between atoms: C_44  and  C_45
                            x       y       z     vdW  Elec       q    Type
                         _______ _______ _______ _____ _____    ______ ____

>  <TORSDO>
F 13

$$$$
=
 OpenBabel10222417213D

 46 50  0  0  1  0  0  0  0  0999 V2000
  185.6850  178.2870  145.2880 C   0  0  0  0  0  0  0  0  0  0  0  0
  188.0090  177.6220  145.4430 C   0  0  0  0  0  3  0  0  0  0  0  0
  186.5860  177.6460  143.3640 C   0  0  0  0  0  0  0  0  0  0  0  0
  185.2500  178.0010  143.1830 C   0  0  0  0  0  0  0  0  0  0  0  0
  186.7800  178.3650  147.4230 C   0  0  0  0  0  3  0  0  0  0  0  0
  186.8450  177.8320  144.7070 C   0  0  0  0  0  0  0  0  0  0  0  0
  185.6190  178.5670  146.6550 C   0  0  0  0  0  3  0  0  0  0  0  0
  184.7090  178.3910  144.3610 N   0  0  0  0  0  0  0  0  0  0  0  0
  187.9670  177.8890  146.8240 C   0  0  0  0  0  0  0  0  0  0  0  0
  189.0810  178.4360  148.8300 O   0  0  0  0  0  1  0  0  0  0  0  0
  189.1880  177.6980  147.6520 C   0  0  0  0  0  2  0  0  0  0  0  0
  183.3730  178.7930  144.5380 N   0  0  0  0  0  2  0  0  0  0  0  0
  182.5550  179.3480  143.4700 C   0  0  0  0  0  2  0  0  0  0  0  0
  181.2000  178.6570  143.4290 C   0  0  0  0  0  2  0  0  0  0  0  0
  180.5320  178.8630  142.1070 C   0  0  0  0  0  0  0  0  0  0  0  0
  180.7010  179.9030  141.4900 O   0  0  0  0  0  0  0  0  0  0  0  0
  179.6070  177.8070  141.5720 C   0  0  0  0  0  2  0  0  0  0  0  0
  181.9420  176.0500  139.8300 O   0  0  0  0  0  0  0  0  0  0  0  0
  179.7580  175.3560  138.5260 C   0  0  0  0  0  2  0  0  0  0  0  0
  179.2890  178.3540  139.1610 C   0  0  0  0  0  1  0  0  0  0  0  0
  179.4970  174.9660  140.9790 C   0  0  0  0  0  1  0  0  0  0  0  0
  181.4390  177.3560  139.8830 C   0  0  0  0  0  2  0  0  0  0  0  0
  181.5690  175.5010  138.2370 S   0  0  0  0  0  0  0  0  0  0  0  0
  179.9190  177.3630  140.1280 C   0  0  1  0  0  0  0  0  0  0  0  0
  179.2890  175.9720  139.8510 C   0  0  1  0  0  3  0  0  0  0  0  0
  184.4870  177.9040  141.8990 C   0  0  0  0  0  2  0  0  0  0  0  0
  185.0830  178.7130  139.6140 C   0  0  0  0  0  1  0  0  0  0  0  0
  185.7730  179.8780  141.5650 O   0  0  0  0  0  1  0  0  0  0  0  0
  184.7250  179.1290  141.0300 C   0  0  2  0  0  3  0  0  0  0  0  0
  187.5350  177.1290  142.3340 C   0  0  0  0  0  2  0  0  0  0  0  0
  188.6310  178.1470  142.0770 C   0  0  0  0  0  2  0  0  0  0  0  0
  191.4120  177.0130  139.8630 N   0  0  0  0  0  0  0  0  0  0  0  0
  190.5730  177.1860  138.6890 C   0  0  2  0  0  3  0  0  0  0  0  0
  188.9120  177.7180  139.2480 S   0  0  0  0  0  0  0  0  0  0  0  0
  191.4670  177.2790  142.3810 C   0  0  0  0  0  1  0  0  0  0  0  0
  190.7520  177.3300  141.0750 C   0  0  0  0  0  0  0  0  0  0  0  0
  189.4920  177.7040  140.9400 C   0  0  1  0  0  3  0  0  0  0  0  0
  191.6140  175.3930  137.2070 N   0  0  0  0  0  0  0  0  0  0  0  0
  195.1030  173.4380  136.1290 C   0  0  0  0  0  1  0  0  0  0  0  0
  192.8220  176.2030  137.0610 C   0  0  0  0  0  2  0  0  0  0  0  0
  191.4830  174.1850  136.3920 C   0  0  0  0  0  2  0  0  0  0  0  0
  190.4760  175.9040  137.9180 C   0  0  0  0  0  0  0  0  0  0  0  0
  193.9070  174.2560  136.0570 N   0  0  0  0  0  0  0  0  0  0  0  0
  192.7880  173.3960  136.4390 C   0  0  0  0  0  2  0  0  0  0  0  0
  194.0520  175.2980  137.0700 C   0  0  0  0  0  2  0  0  0  0  0  0
  189.3780  175.2850  137.8810 O   0  0  0  0  0  0  0  0  0  0  0  0
  1  7  1  0  0  0  0
  2  9  2  0  0  0  0
  3  6  1  0  0  0  0
  4  3  2  0  0  0  0
  4  8  1  0  0  0  0
  6  1  2  0  0  0  0
  6  2  1  0  0  0  0
  7  5  2  0  0  0  0
  8 12  1  0  0  0  0
  8  1  1  0  0  0  0
  9  5  1  0  0  0  0
  9 11  1  0  0  0  0
 11 10  1  0  0  0  0
 13 12  1  0  0  0  0
 14 13  1  0  0  0  0
 15 14  1  0  0  0  0
 16 15  2  0  0  0  0
 17 15  1  0  0  0  0
 18 22  1  0  0  0  0
 19 25  1  0  0  0  0
 22 24  1  0  0  0  0
 23 19  1  0  0  0  0
 23 18  1  0  0  0  0
 24 20  1  6  0  0  0
 24 17  1  0  0  0  0
 25 24  1  0  0  0  0
 25 21  1  1  0  0  0
 26  4  1  0  0  0  0
 29 27  1  6  0  0  0
 29 28  1  0  0  0  0
 29 26  1  0  0  0  0
 30  3  1  0  0  0  0
 31 30  1  0  0  0  0
 32 36  2  0  0  0  0
 33 42  1  1  0  0  0
 33 34  1  0  0  0  0
 33 32  1  0  0  0  0
 34 37  1  0  0  0  0
 36 35  1  0  0  0  0
 37 36  1  0  0  0  0
 37 31  1  6  0  0  0
 38 42  1  0  0  0  0
 40 45  1  0  0  0  0
 40 38  1  0  0  0  0
 41 44  1  0  0  0  0
 41 38  1  0  0  0  0
 43 39  1  0  0  0  0
 43 44  1  0  0  0  0
 43 45  1  0  0  0  0
 46 42  2  0  0  0  0
M  END
>  <MODEL>
2

>  <REMARK>
 VINA RESULT:      -8.0      1.490      1.962
  Name = 
  13 active torsions:
  status: ('A' for Active; 'I' for Inactive)
    1  A    between atoms: N_9  and  N_34
    2  A    between atoms: N_9  and  C_36
    3  A    between atoms: C_10  and  C_29
    4  A    between atoms: C_12  and  C_40
    5  A    between atoms: C_15  and  C_17
    6  A    between atoms: C_15  and  C_32
    7  A    between atoms: C_23  and  C_27
    8  A    between atoms: C_23  and  C_36
    9  A    between atoms: C_24  and  C_38
   10  A    between atoms: C_27  and  C_45
   11  A    between atoms: C_39  and  C_43
   12  A    between atoms: C_40  and  C_43
   13  A    between atoms: C_44  and  C_45
                            x       y       z     vdW  Elec       q    Type
                         _______ _______ _______ _____ _____    ______ ____

>  <TORSDO>
F 13

$$$$
=
 OpenBabel10222417213D

 46 50  0  0  1  0  0  0  0  0999 V2000
  188.1250  178.2180  140.0340 C   0  0  0  0  0  0  0  0  0  0  0  0
  185.7220  178.4670  139.8470 C   0  0  0  0  0  3  0  0  0  0  0  0
  187.3240  177.8860  137.9910 C   0  0  0  0  0  0  0  0  0  0  0  0
  188.7090  177.7310  138.0030 C   0  0  0  0  0  0  0  0  0  0  0  0
  186.8560  178.7860  141.9900 C   0  0  0  0  0  3  0  0  0  0  0  0
  186.9700  178.1950  139.2880 C   0  0  0  0  0  0  0  0  0  0  0  0
  188.1020  178.5100  141.3990 C   0  0  0  0  0  3  0  0  0  0  0  0
  189.1890  177.9340  139.2520 N   0  0  0  0  0  0  0  0  0  0  0  0
  185.6730  178.7710  141.2200 C   0  0  0  0  0  0  0  0  0  0  0  0
  184.3350  178.4790  143.1390 O   0  0  0  0  0  1  0  0  0  0  0  0
  184.3640  179.0510  141.8690 C   0  0  0  0  0  2  0  0  0  0  0  0
  190.5480  177.8780  139.6110 N   0  0  0  0  0  2  0  0  0  0  0  0
  191.1300  176.7820  140.3710 C   0  0  0  0  0  2  0  0  0  0  0  0
  191.5260  177.2580  141.7610 C   0  0  0  0  0  2  0  0  0  0  0  0
  190.8930  176.4100  142.8190 C   0  0  0  0  0  0  0  0  0  0  0  0
  190.0400  175.5900  142.5180 O   0  0  0  0  0  0  0  0  0  0  0  0
  191.2730  176.6140  144.2580 C   0  0  0  0  0  2  0  0  0  0  0  0
  188.2370  176.5300  145.7900 O   0  0  0  0  0  0  0  0  0  0  0  0
  189.5470  178.1320  147.4240 C   0  0  0  0  0  2  0  0  0  0  0  0
  190.5690  178.9780  144.6220 C   0  0  0  0  0  1  0  0  0  0  0  0
  190.8040  176.0050  147.0580 C   0  0  0  0  0  1  0  0  0  0  0  0
  188.8520  177.1930  144.7210 C   0  0  0  0  0  2  0  0  0  0  0  0
  187.8180  177.7820  146.9000 S   0  0  0  0  0  0  0  0  0  0  0  0
  190.3190  177.5370  145.0420 C   0  0  1  0  0  0  0  0  0  0  0  0
  190.6100  177.4350  146.5640 C   0  0  1  0  0  3  0  0  0  0  0  0
  189.5680  177.4530  136.8090 C   0  0  0  0  0  2  0  0  0  0  0  0
  191.2070  175.5700  136.7650 C   0  0  0  0  0  1  0  0  0  0  0  0
  189.3220  175.6130  135.3200 O   0  0  0  0  0  1  0  0  0  0  0  0
  189.7470  175.9560  136.6030 C   0  0  2  0  0  3  0  0  0  0  0  0
  186.4090  177.7820  136.8150 C   0  0  0  0  0  2  0  0  0  0  0  0
  185.8220  176.3850  136.7320 C   0  0  0  0  0  2  0  0  0  0  0  0
  182.4330  175.5000  138.0180 N   0  0  0  0  0  2  0  0  0  0  0  0
  181.9940  176.8770  137.8610 C   0  0  2  0  0  3  0  0  0  0  0  0
  183.4150  177.8650  137.2630 S   0  0  0  0  0  0  0  0  0  0  0  0
  184.3970  173.9400  137.6690 C   0  0  0  0  0  1  0  0  0  0  0  0
  183.7830  175.2960  137.6420 C   0  0  0  0  0  0  0  0  0  0  0  0
  184.4170  176.3830  137.2370 C   0  0  0  0  0  0  0  0  0  0  0  0
  181.1080  178.7990  139.2810 N   0  0  0  0  0  0  0  0  0  0  0  0
  179.0190  182.3760  139.2880 C   0  0  0  0  0  1  0  0  0  0  0  0
  181.3770  179.7370  138.1930 C   0  0  0  0  0  2  0  0  0  0  0  0
  180.7000  179.3360  140.5790 C   0  0  0  0  0  2  0  0  0  0  0  0
  181.4940  177.4200  139.1640 C   0  0  0  0  0  0  0  0  0  0  0  0
  180.0930  181.4110  139.4290 N   0  0  0  0  0  0  0  0  0  0  0  0
  179.6240  180.3980  140.3740 C   0  0  0  0  0  2  0  0  0  0  0  0
  180.2610  180.7770  138.1240 C   0  0  0  0  0  2  0  0  0  0  0  0
  181.4330  176.6610  140.1700 O   0  0  0  0  0  0  0  0  0  0  0  0
  1  7  1  0  0  0  0
  2  9  2  0  0  0  0
  3  4  2  0  0  0  0
  3  6  1  0  0  0  0
  4  8  1  0  0  0  0
  6  2  1  0  0  0  0
  6  1  2  0  0  0  0
  7  5  2  0  0  0  0
  8 12  1  0  0  0  0
  8  1  1  0  0  0  0
  9 11  1  0  0  0  0
  9  5  1  0  0  0  0
 11 10  1  0  0  0  0
 12 13  1  0  0  0  0
 13 14  1  0  0  0  0
 14 15  1  0  0  0  0
 15 17  1  0  0  0  0
 16 15  2  0  0  0  0
 17 24  1  0  0  0  0
 18 23  1  0  0  0  0
 22 24  1  0  0  0  0
 22 18  1  0  0  0  0
 23 19  1  0  0  0  0
 24 20  1  6  0  0  0
 24 25  1  0  0  0  0
 25 21  1  1  0  0  0
 25 19  1  0  0  0  0
 26  4  1  0  0  0  0
 28 29  1  0  0  0  0
 29 27  1  6  0  0  0
 29 26  1  0  0  0  0
 30  3  1  0  0  0  0
 31 30  1  0  0  0  0
 31 37  1  0  0  0  0
 33 32  1  0  0  0  0
 33 42  1  1  0  0  0
 34 33  1  0  0  0  0
 36 35  1  0  0  0  0
 36 32  1  0  0  0  0
 37 34  1  0  0  0  0
 37 36  2  0  0  0  0
 38 41  1  0  0  0  0
 39 43  1  0  0  0  0
 40 38  1  0  0  0  0
 42 38  1  0  0  0  0
 42 46  2  0  0  0  0
 43 44  1  0  0  0  0
 44 41  1  0  0  0  0
 45 40  1  0  0  0  0
 45 43  1  0  0  0  0
M  END
>  <MODEL>
3

>  <REMARK>
 VINA RESULT:      -7.1      3.122      9.798
  Name = 
  13 active torsions:
  status: ('A' for Active; 'I' for Inactive)
    1  A    between atoms: N_9  and  N_34
    2  A    between atoms: N_9  and  C_36
    3  A    between atoms: C_10  and  C_29
    4  A    between atoms: C_12  and  C_40
    5  A    between atoms: C_15  and  C_17
    6  A    between atoms: C_15  and  C_32
    7  A    between atoms: C_23  and  C_27
    8  A    between atoms: C_23  and  C_36
    9  A    between atoms: C_24  and  C_38
   10  A    between atoms: C_27  and  C_45
   11  A    between atoms: C_39  and  C_43
   12  A    between atoms: C_40  and  C_43
   13  A    between atoms: C_44  and  C_45
                            x       y       z     vdW  Elec       q    Type
                         _______ _______ _______ _____ _____    ______ ____

>  <TORSDO>
F 13

$$$$
=
 OpenBabel10222417213D

 46 50  0  0  1  0  0  0  0  0999 V2000
  189.4640  177.5430  141.7480 C   0  0  0  0  0  0  0  0  0  0  0  0
  187.9850  177.9050  143.6320 C   0  0  0  0  0  3  0  0  0  0  0  0
  187.4820  178.3850  141.2110 C   0  0  0  0  0  0  0  0  0  0  0  0
  188.2670  178.2190  140.0710 C   0  0  0  0  0  0  0  0  0  0  0  0
  190.2310  176.9910  143.9540 C   0  0  0  0  0  3  0  0  0  0  0  0
  188.2580  177.9520  142.2660 C   0  0  0  0  0  0  0  0  0  0  0  0
  190.4790  177.0520  142.5710 C   0  0  0  0  0  3  0  0  0  0  0  0
  189.4730  177.7050  140.4070 N   0  0  0  0  0  0  0  0  0  0  0  0
  188.9950  177.4210  144.4840 C   0  0  0  0  0  0  0  0  0  0  0  0
  189.8690  176.8070  146.5870 O   0  0  0  0  0  1  0  0  0  0  0  0
  188.7480  177.3330  145.9490 C   0  0  0  0  0  2  0  0  0  0  0  0
  190.5130  177.4340  139.5000 N   0  0  0  0  0  2  0  0  0  0  0  0
  190.9670  176.0890  139.1800 C   0  0  0  0  0  2  0  0  0  0  0  0
  190.9640  175.8770  137.6730 C   0  0  0  0  0  2  0  0  0  0  0  0
  192.3540  175.9270  137.1220 C   0  0  0  0  0  0  0  0  0  0  0  0
  192.5400  176.2390  135.9560 O   0  0  0  0  0  0  0  0  0  0  0  0
  193.5130  175.5370  137.9950 C   0  0  0  0  0  2  0  0  0  0  0  0
  196.6560  175.1060  136.7690 O   0  0  0  0  0  0  0  0  0  0  0  0
  196.3080  172.8000  138.0000 C   0  0  0  0  0  2  0  0  0  0  0  0
  193.5270  173.3730  136.7560 C   0  0  0  0  0  1  0  0  0  0  0  0
  195.8330  174.7130  139.5330 C   0  0  0  0  0  1  0  0  0  0  0  0
  195.3350  175.0110  136.3170 C   0  0  0  0  0  2  0  0  0  0  0  0
  197.2890  173.5080  136.6130 S   0  0  0  0  0  0  0  0  0  0  0  0
  194.4090  174.4310  137.4030 C   0  0  1  0  0  0  0  0  0  0  0  0
  195.2180  173.7400  138.5330 C   0  0  1  0  0  3  0  0  0  0  0  0
  187.8800  178.6120  138.6790 C   0  0  0  0  0  2  0  0  0  0  0  0
  187.6870  177.2310  136.6080 C   0  0  0  0  0  1  0  0  0  0  0  0
  185.7740  177.8580  137.8680 O   0  0  0  0  0  1  0  0  0  0  0  0
  187.1140  177.4930  137.9900 C   0  0  2  0  0  3  0  0  0  0  0  0
  186.1030  178.9530  141.2880 C   0  0  0  0  0  2  0  0  0  0  0  0
  185.3110  178.2530  142.3770 C   0  0  0  0  0  2  0  0  0  0  0  0
  181.6610  178.8960  142.8060 N   0  0  0  0  0  2  0  0  0  0  0  0
  181.4380  178.6890  141.3850 C   0  0  2  0  0  3  0  0  0  0  0  0
  183.0590  178.3720  140.5930 S   0  0  0  0  0  0  0  0  0  0  0  0
  183.4380  178.8760  144.6100 C   0  0  0  0  0  1  0  0  0  0  0  0
  183.0190  178.7640  143.1860 C   0  0  0  0  0  0  0  0  0  0  0  0
  183.8500  178.4980  142.1920 C   0  0  0  0  0  0  0  0  0  0  0  0
  180.9030  180.1490  139.3660 N   0  0  0  0  0  0  0  0  0  0  0  0
  180.3400  180.2530  135.2630 C   0  0  0  0  0  1  0  0  0  0  0  0
  181.8140  179.3560  138.5410 C   0  0  0  0  0  2  0  0  0  0  0  0
  180.3330  181.3700  138.7960 C   0  0  0  0  0  2  0  0  0  0  0  0
  180.7870  179.8920  140.7730 C   0  0  0  0  0  0  0  0  0  0  0  0
  180.8970  180.4940  136.5810 N   0  0  0  0  0  0  0  0  0  0  0  0
  179.8280  181.0850  137.3850 C   0  0  0  0  0  2  0  0  0  0  0  0
  181.2240  179.1860  137.1430 C   0  0  0  0  0  2  0  0  0  0  0  0
  180.1490  180.6930  141.5110 O   0  0  0  0  0  0  0  0  0  0  0  0
  1  6  2  0  0  0  0
  1  7  1  0  0  0  0
  2  9  2  0  0  0  0
  3 30  1  0  0  0  0
  3  6  1  0  0  0  0
  4  8  1  0  0  0  0
  4  3  2  0  0  0  0
  5  9  1  0  0  0  0
  6  2  1  0  0  0  0
  7  5  2  0  0  0  0
  8  1  1  0  0  0  0
  9 11  1  0  0  0  0
 11 10  1  0  0  0  0
 12  8  1  0  0  0  0
 13 12  1  0  0  0  0
 14 13  1  0  0  0  0
 15 14  1  0  0  0  0
 15 17  1  0  0  0  0
 16 15  2  0  0  0  0
 19 25  1  0  0  0  0
 22 18  1  0  0  0  0
 22 24  1  0  0  0  0
 23 18  1  0  0  0  0
 23 19  1  0  0  0  0
 24 20  1  6  0  0  0
 24 17  1  0  0  0  0
 24 25  1  0  0  0  0
 25 21  1  6  0  0  0
 26  4  1  0  0  0  0
 28 29  1  0  0  0  0
 29 27  1  6  0  0  0
 29 26  1  0  0  0  0
 30 31  1  0  0  0  0
 32 36  1  0  0  0  0
 33 42  1  6  0  0  0
 33 32  1  0  0  0  0
 34 33  1  0  0  0  0
 34 37  1  0  0  0  0
 36 35  1  0  0  0  0
 37 31  1  0  0  0  0
 37 36  2  0  0  0  0
 38 42  1  0  0  0  0
 39 43  1  0  0  0  0
 40 38  1  0  0  0  0
 41 38  1  0  0  0  0
 42 46  2  0  0  0  0
 43 45  1  0  0  0  0
 43 44  1  0  0  0  0
 44 41  1  0  0  0  0
 45 40  1  0  0  0  0
M  END
>  <MODEL>
4

>  <REMARK>
 VINA RESULT:      -6.9      3.208     10.574
  Name = 
  13 active torsions:
  status: ('A' for Active; 'I' for Inactive)
    1  A    between atoms: N_9  and  N_34
    2  A    between atoms: N_9  and  C_36
    3  A    between atoms: C_10  and  C_29
    4  A    between atoms: C_12  and  C_40
    5  A    between atoms: C_15  and  C_17
    6  A    between atoms: C_15  and  C_32
    7  A    between atoms: C_23  and  C_27
    8  A    between atoms: C_23  and  C_36
    9  A    between atoms: C_24  and  C_38
   10  A    between atoms: C_27  and  C_45
   11  A    between atoms: C_39  and  C_43
   12  A    between atoms: C_40  and  C_43
   13  A    between atoms: C_44  and  C_45
                            x       y       z     vdW  Elec       q    Type
                         _______ _______ _______ _____ _____    ______ ____

>  <TORSDO>
F 13

$$$$
=
 OpenBabel10222417213D

 46 50  0  0  1  0  0  0  0  0999 V2000
  189.0640  177.7200  140.3560 C   0  0  0  0  0  0  0  0  0  0  0  0
  186.9700  178.2510  139.2580 C   0  0  0  0  0  3  0  0  0  0  0  0
  189.0890  177.4500  138.1540 C   0  0  0  0  0  0  0  0  0  0  0  0
  190.3320  177.1310  138.6990 C   0  0  0  0  0  0  0  0  0  0  0  0
  187.2090  178.4700  141.6820 C   0  0  0  0  0  3  0  0  0  0  0  0
  188.2960  177.8220  139.2200 C   0  0  0  0  0  0  0  0  0  0  0  0
  188.5450  178.0370  141.6140 C   0  0  0  0  0  3  0  0  0  0  0  0
  190.3070  177.2980  140.0410 N   0  0  0  0  0  0  0  0  0  0  0  0
  186.4270  178.5830  140.5120 C   0  0  0  0  0  0  0  0  0  0  0  0
  184.7820  180.0770  139.7220 O   0  0  0  0  0  1  0  0  0  0  0  0
  185.0100  179.0280  140.6100 C   0  0  0  0  0  2  0  0  0  0  0  0
  191.4020  177.0860  140.8980 N   0  0  0  0  0  2  0  0  0  0  0  0
  191.4510  177.5680  142.2700 C   0  0  0  0  0  2  0  0  0  0  0  0
  191.7110  176.4130  143.2260 C   0  0  0  0  0  2  0  0  0  0  0  0
  191.1810  176.7160  144.5910 C   0  0  0  0  0  0  0  0  0  0  0  0
  191.9230  177.1610  145.4520 O   0  0  0  0  0  0  0  0  0  0  0  0
  189.7440  176.4160  144.9120 C   0  0  0  0  0  2  0  0  0  0  0  0
  186.6900  177.1310  146.2260 O   0  0  0  0  0  0  0  0  0  0  0  0
  188.2300  178.5990  147.7830 C   0  0  0  0  0  2  0  0  0  0  0  0
  189.5430  178.8990  144.9900 C   0  0  0  0  0  1  0  0  0  0  0  0
  189.0220  176.2310  147.7180 C   0  0  0  0  0  1  0  0  0  0  0  0
  187.4830  177.5300  145.1440 C   0  0  0  0  0  2  0  0  0  0  0  0
  186.4940  178.5580  147.1760 S   0  0  0  0  0  0  0  0  0  0  0  0
  188.9720  177.5970  145.5320 C   0  0  1  0  0  0  0  0  0  0  0  0
  189.1600  177.6060  147.0730 C   0  0  1  0  0  3  0  0  0  0  0  0
  191.5480  176.7320  137.9240 C   0  0  0  0  0  2  0  0  0  0  0  0
  193.1260  174.8770  137.3730 C   0  0  0  0  0  1  0  0  0  0  0  0
  190.8410  174.4600  137.8710 O   0  0  0  0  0  1  0  0  0  0  0  0
  191.9180  175.2820  138.2000 C   0  0  2  0  0  3  0  0  0  0  0  0
  188.6990  177.4350  136.7120 C   0  0  0  0  0  2  0  0  0  0  0  0
  188.3380  176.0250  136.2830 C   0  0  0  0  0  2  0  0  0  0  0  0
  184.8660  174.6810  136.5360 N   0  0  0  0  0  2  0  0  0  0  0  0
  184.3180  175.9800  136.1800 C   0  0  2  0  0  3  0  0  0  0  0  0
  185.7100  177.1530  135.9850 S   0  0  0  0  0  0  0  0  0  0  0  0
  187.0310  173.4130  136.8800 C   0  0  0  0  0  1  0  0  0  0  0  0
  186.2810  174.6680  136.5960 C   0  0  0  0  0  0  0  0  0  0  0  0
  186.8590  175.8290  136.3410 C   0  0  0  0  0  0  0  0  0  0  0  0
  182.0860  175.8530  137.4040 N   0  0  0  0  0  0  0  0  0  0  0  0
  178.9310  173.4180  138.5360 C   0  0  0  0  0  1  0  0  0  0  0  0
  181.5930  174.8890  136.4210 C   0  0  0  0  0  2  0  0  0  0  0  0
  181.1450  176.3860  138.3880 C   0  0  0  0  0  2  0  0  0  0  0  0
  183.3760  176.4610  137.2420 C   0  0  0  0  0  0  0  0  0  0  0  0
  179.6900  174.4790  137.9010 N   0  0  0  0  0  0  0  0  0  0  0  0
  180.3200  175.2450  138.9750 C   0  0  0  0  0  2  0  0  0  0  0  0
  180.7420  173.8310  137.1210 C   0  0  0  0  0  2  0  0  0  0  0  0
  183.7170  177.4250  137.9820 O   0  0  0  0  0  0  0  0  0  0  0  0
  1  7  1  0  0  0  0
  2  9  2  0  0  0  0
  3  4  2  0  0  0  0
  3  6  1  0  0  0  0
  4  8  1  0  0  0  0
  6  2  1  0  0  0  0
  6  1  2  0  0  0  0
  7  5  2  0  0  0  0
  8  1  1  0  0  0  0
  8 12  1  0  0  0  0
  9 11  1  0  0  0  0
  9  5  1  0  0  0  0
 10 11  1  0  0  0  0
 12 13  1  0  0  0  0
 13 14  1  0  0  0  0
 14 15  1  0  0  0  0
 15 17  1  0  0  0  0
 15 16  2  0  0  0  0
 17 24  1  0  0  0  0
 18 23  1  0  0  0  0
 22 24  1  0  0  0  0
 22 18  1  0  0  0  0
 23 19  1  0  0  0  0
 24 20  1  6  0  0  0
 24 25  1  0  0  0  0
 25 21  1  1  0  0  0
 25 19  1  0  0  0  0
 26 29  1  0  0  0  0
 26  4  1  0  0  0  0
 28 29  1  0  0  0  0
 29 27  1  6  0  0  0
 30  3  1  0  0  0  0
 31 37  1  0  0  0  0
 31 30  1  0  0  0  0
 32 36  1  0  0  0  0
 33 32  1  0  0  0  0
 33 42  1  1  0  0  0
 34 33  1  0  0  0  0
 34 37  1  0  0  0  0
 36 35  1  0  0  0  0
 37 36  2  0  0  0  0
 38 41  1  0  0  0  0
 40 45  1  0  0  0  0
 40 38  1  0  0  0  0
 41 44  1  0  0  0  0
 42 38  1  0  0  0  0
 42 46  2  0  0  0  0
 43 39  1  0  0  0  0
 43 44  1  0  0  0  0
 45 43  1  0  0  0  0
M  END
>  <MODEL>
5

>  <REMARK>
 VINA RESULT:      -6.9      3.455      9.205
  Name = 
  13 active torsions:
  status: ('A' for Active; 'I' for Inactive)
    1  A    between atoms: N_9  and  N_34
    2  A    between atoms: N_9  and  C_36
    3  A    between atoms: C_10  and  C_29
    4  A    between atoms: C_12  and  C_40
    5  A    between atoms: C_15  and  C_17
    6  A    between atoms: C_15  and  C_32
    7  A    between atoms: C_23  and  C_27
    8  A    between atoms: C_23  and  C_36
    9  A    between atoms: C_24  and  C_38
   10  A    between atoms: C_27  and  C_45
   11  A    between atoms: C_39  and  C_43
   12  A    between atoms: C_40  and  C_43
   13  A    between atoms: C_44  and  C_45
                            x       y       z     vdW  Elec       q    Type
                         _______ _______ _______ _____ _____    ______ ____

>  <TORSDO>
F 13

$$$$
=
 OpenBabel10222417213D

 46 50  0  0  1  0  0  0  0  0999 V2000
  184.9550  178.5950  142.5530 C   0  0  0  0  0  0  0  0  0  0  0  0
  186.7720  177.8810  141.1190 C   0  0  0  0  0  3  0  0  0  0  0  0
  186.6140  177.5730  143.6140 C   0  0  0  0  0  0  0  0  0  0  0  0
  185.6210  177.9540  144.5150 C   0  0  0  0  0  0  0  0  0  0  0  0
  184.8230  179.0380  140.1980 C   0  0  0  0  0  3  0  0  0  0  0  0
  186.1750  177.9880  142.3740 C   0  0  0  0  0  0  0  0  0  0  0  0
  184.2460  179.1330  141.4770 C   0  0  0  0  0  3  0  0  0  0  0  0
  184.6130  178.5760  143.8600 N   0  0  0  0  0  0  0  0  0  0  0  0
  186.0810  178.4220  140.0190 C   0  0  0  0  0  0  0  0  0  0  0  0
  185.9470  177.3910  137.9020 O   0  0  0  0  0  1  0  0  0  0  0  0
  186.6650  178.3180  138.6550 C   0  0  0  0  0  2  0  0  0  0  0  0
  183.4640  179.1080  144.4720 N   0  0  0  0  0  2  0  0  0  0  0  0
  182.1420  178.5100  144.3500 C   0  0  0  0  0  2  0  0  0  0  0  0
  181.2260  179.4190  143.5440 C   0  0  0  0  0  2  0  0  0  0  0  0
  180.3060  178.6200  142.6760 C   0  0  0  0  0  0  0  0  0  0  0  0
  179.2240  178.2530  143.1050 O   0  0  0  0  0  0  0  0  0  0  0  0
  180.7470  178.2240  141.2950 C   0  0  0  0  0  2  0  0  0  0  0  0
  181.6540  179.5040  138.2770 O   0  0  0  0  0  0  0  0  0  0  0  0
  179.1010  179.0130  137.8350 C   0  0  0  0  0  2  0  0  0  0  0  0
  179.1340  180.0480  140.7570 C   0  0  0  0  0  1  0  0  0  0  0  0
  180.2630  176.9840  138.7150 C   0  0  0  0  0  1  0  0  0  0  0  0
  181.2960  179.9710  139.5470 C   0  0  0  0  0  2  0  0  0  0  0  0
  180.4360  180.1220  137.2230 S   0  0  0  0  0  0  0  0  0  0  0  0
  180.1800  179.1110  140.1690 C   0  0  1  0  0  0  0  0  0  0  0  0
  179.4750  178.2320  139.1020 C   0  0  1  0  0  3  0  0  0  0  0  0
  185.6740  177.7780  146.0000 C   0  0  0  0  0  2  0  0  0  0  0  0
  187.5080  178.2600  147.6250 C   0  0  0  0  0  1  0  0  0  0  0  0
  185.6810  179.7490  147.3330 O   0  0  0  0  0  1  0  0  0  0  0  0
  186.5160  178.8670  146.6480 C   0  0  2  0  0  3  0  0  0  0  0  0
  187.9070  176.8930  143.9230 C   0  0  0  0  0  2  0  0  0  0  0  0
  189.0570  177.8750  143.7950 C   0  0  0  0  0  2  0  0  0  0  0  0
  191.6720  176.5280  141.4990 N   0  0  0  0  0  0  0  0  0  0  0  0
  191.1590  177.3420  140.4080 C   0  0  2  0  0  3  0  0  0  0  0  0
  189.6890  178.2490  141.0150 S   0  0  0  0  0  0  0  0  0  0  0  0
  191.3540  175.9810  143.9510 C   0  0  0  0  0  1  0  0  0  0  0  0
  190.9430  176.6820  142.7030 C   0  0  0  0  0  0  0  0  0  0  0  0
  189.9180  177.5140  142.6290 C   0  0  1  0  0  3  0  0  0  0  0  0
  191.8080  175.9830  138.3520 N   0  0  0  0  0  0  0  0  0  0  0  0
  194.7600  173.7180  136.5320 C   0  0  0  0  0  1  0  0  0  0  0  0
  193.1850  176.4590  138.4620 C   0  0  0  0  0  2  0  0  0  0  0  0
  191.4300  175.2130  137.1670 C   0  0  0  0  0  2  0  0  0  0  0  0
  190.7930  176.4810  139.2370 C   0  0  0  0  0  0  0  0  0  0  0  0
  193.8110  174.7820  136.7960 N   0  0  0  0  0  0  0  0  0  0  0  0
  192.4930  174.1560  136.8860 C   0  0  0  0  0  2  0  0  0  0  0  0
  194.1500  175.3300  138.1070 C   0  0  0  0  0  2  0  0  0  0  0  0
  189.5790  176.2140  139.0200 O   0  0  0  0  0  0  0  0  0  0  0  0
  1  8  1  0  0  0  0
  2  6  2  0  0  0  0
  3 30  1  0  0  0  0
  3  4  2  0  0  0  0
  4 26  1  0  0  0  0
  5  7  1  0  0  0  0
  6  1  1  0  0  0  0
  6  3  1  0  0  0  0
  7  1  2  0  0  0  0
  8 12  1  0  0  0  0
  8  4  1  0  0  0  0
  9  5  2  0  0  0  0
  9  2  1  0  0  0  0
 10 11  1  0  0  0  0
 11  9  1  0  0  0  0
 13 12  1  0  0  0  0
 14 13  1  0  0  0  0
 15 16  2  0  0  0  0
 15 14  1  0  0  0  0
 17 15  1  0  0  0  0
 18 22  1  0  0  0  0
 19 25  1  0  0  0  0
 22 24  1  0  0  0  0
 23 19  1  0  0  0  0
 23 18  1  0  0  0  0
 24 20  1  1  0  0  0
 24 17  1  0  0  0  0
 25 21  1  6  0  0  0
 25 24  1  0  0  0  0
 26 29  1  0  0  0  0
 29 28  1  0  0  0  0
 29 27  1  1  0  0  0
 31 30  1  0  0  0  0
 32 36  2  0  0  0  0
 33 42  1  6  0  0  0
 33 34  1  0  0  0  0
 33 32  1  0  0  0  0
 34 37  1  0  0  0  0
 36 35  1  0  0  0  0
 37 36  1  0  0  0  0
 37 31  1  1  0  0  0
 38 40  1  0  0  0  0
 38 42  1  0  0  0  0
 39 43  1  0  0  0  0
 41 38  1  0  0  0  0
 43 44  1  0  0  0  0
 43 45  1  0  0  0  0
 44 41  1  0  0  0  0
 45 40  1  0  0  0  0
 46 42  2  0  0  0  0
M  END
>  <MODEL>
6

>  <REMARK>
 VINA RESULT:      -6.6      1.557      3.780
  Name = 
  13 active torsions:
  status: ('A' for Active; 'I' for Inactive)
    1  A    between atoms: N_9  and  N_34
    2  A    between atoms: N_9  and  C_36
    3  A    between atoms: C_10  and  C_29
    4  A    between atoms: C_12  and  C_40
    5  A    between atoms: C_15  and  C_17
    6  A    between atoms: C_15  and  C_32
    7  A    between atoms: C_23  and  C_27
    8  A    between atoms: C_23  and  C_36
    9  A    between atoms: C_24  and  C_38
   10  A    between atoms: C_27  and  C_45
   11  A    between atoms: C_39  and  C_43
   12  A    between atoms: C_40  and  C_43
   13  A    between atoms: C_44  and  C_45
                            x       y       z     vdW  Elec       q    Type
                         _______ _______ _______ _____ _____    ______ ____

>  <TORSDO>
F 13

$$$$
=
 OpenBabel10222417213D

 46 50  0  0  1  0  0  0  0  0999 V2000
  186.5630  178.4100  141.7660 C   0  0  0  0  0  0  0  0  0  0  0  0
  188.8480  177.8810  142.3700 C   0  0  0  0  0  3  0  0  0  0  0  0
  187.9540  178.2510  140.0440 C   0  0  0  0  0  0  0  0  0  0  0  0
  186.6650  178.5490  139.6040 C   0  0  0  0  0  0  0  0  0  0  0  0
  187.1150  178.1060  144.0820 C   0  0  0  0  0  3  0  0  0  0  0  0
  187.8700  178.1660  141.4180 C   0  0  0  0  0  0  0  0  0  0  0  0
  186.1490  178.3890  143.1000 C   0  0  0  0  0  3  0  0  0  0  0  0
  185.8240  178.6440  140.6600 N   0  0  0  0  0  0  0  0  0  0  0  0
  188.4550  177.8470  143.7210 C   0  0  0  0  0  0  0  0  0  0  0  0
  188.8310  177.0700  145.9160 O   0  0  0  0  0  1  0  0  0  0  0  0
  189.4640  177.5650  144.7770 C   0  0  0  0  0  2  0  0  0  0  0  0
  184.4460  178.9110  140.5690 N   0  0  0  0  0  2  0  0  0  0  0  0
  183.4190  177.9050  140.7940 C   0  0  0  0  0  2  0  0  0  0  0  0
  182.2200  178.5240  141.4990 C   0  0  0  0  0  2  0  0  0  0  0  0
  181.1260  178.8320  140.5260 C   0  0  0  0  0  0  0  0  0  0  0  0
  180.2510  179.6310  140.8210 O   0  0  0  0  0  0  0  0  0  0  0  0
  181.0790  178.1090  139.2100 C   0  0  0  0  0  2  0  0  0  0  0  0
  179.8530  175.8170  137.0160 O   0  0  0  0  0  0  0  0  0  0  0  0
  179.7950  174.4140  139.2490 C   0  0  0  0  0  2  0  0  0  0  0  0
  178.9420  177.2510  140.1640 C   0  0  0  0  0  1  0  0  0  0  0  0
  182.0590  175.3970  138.8690 C   0  0  0  0  0  1  0  0  0  0  0  0
  179.3900  176.9150  137.7500 C   0  0  0  0  0  2  0  0  0  0  0  0
  178.9480  174.4760  137.6160 S   0  0  0  0  0  0  0  0  0  0  0  0
  180.0380  176.9740  139.1460 C   0  0  1  0  0  0  0  0  0  0  0  0
  180.7000  175.6220  139.5250 C   0  0  1  0  0  3  0  0  0  0  0  0
  186.2370  178.6750  138.1750 C   0  0  0  0  0  2  0  0  0  0  0  0
  186.8670  176.9550  136.4790 C   0  0  0  0  0  1  0  0  0  0  0  0
  184.6000  177.3520  137.0660 O   0  0  0  0  0  1  0  0  0  0  0  0
  185.8930  177.3150  137.5870 C   0  0  2  0  0  3  0  0  0  0  0  0
  189.1690  178.0280  139.2060 C   0  0  0  0  0  2  0  0  0  0  0  0
  189.7260  176.6370  139.4530 C   0  0  0  0  0  2  0  0  0  0  0  0
  193.3940  176.7670  138.7840 N   0  0  0  0  0  0  0  0  0  0  0  0
  193.1840  176.2650  137.4360 C   0  0  2  0  0  3  0  0  0  0  0  0
  191.3960  175.9340  137.2220 S   0  0  0  0  0  0  0  0  0  0  0  0
  192.1970  177.4560  140.9060 C   0  0  0  0  0  1  0  0  0  0  0  0
  192.1950  176.8960  139.5270 C   0  0  0  0  0  0  0  0  0  0  0  0
  191.1010  176.5220  138.8850 C   0  0  1  0  0  3  0  0  0  0  0  0
  195.0890  175.0040  136.3050 N   0  0  0  0  0  0  0  0  0  0  0  0
  198.8510  175.2910  134.5950 C   0  0  0  0  0  1  0  0  0  0  0  0
  195.3500  176.1550  135.4430 C   0  0  0  0  0  2  0  0  0  0  0  0
  195.8010  173.7550  136.0340 C   0  0  0  0  0  2  0  0  0  0  0  0
  193.9760  175.0120  137.2120 C   0  0  0  0  0  0  0  0  0  0  0  0
  197.4270  175.0640  134.7550 N   0  0  0  0  0  0  0  0  0  0  0  0
  197.2790  174.0530  135.8000 C   0  0  0  0  0  2  0  0  0  0  0  0
  196.8550  176.3160  135.2430 C   0  0  0  0  0  2  0  0  0  0  0  0
  193.6430  173.9540  137.8130 O   0  0  0  0  0  0  0  0  0  0  0  0
  1  7  1  0  0  0  0
  2  9  2  0  0  0  0
  3  6  1  0  0  0  0
  4  3  2  0  0  0  0
  4  8  1  0  0  0  0
  6  1  2  0  0  0  0
  6  2  1  0  0  0  0
  7  5  2  0  0  0  0
  8  1  1  0  0  0  0
  9  5  1  0  0  0  0
  9 11  1  0  0  0  0
 11 10  1  0  0  0  0
 12  8  1  0  0  0  0
 12 13  1  0  0  0  0
 13 14  1  0  0  0  0
 15 16  2  0  0  0  0
 15 14  1  0  0  0  0
 17 15  1  0  0  0  0
 18 23  1  0  0  0  0
 18 22  1  0  0  0  0
 19 25  1  0  0  0  0
 22 24  1  0  0  0  0
 23 19  1  0  0  0  0
 24 17  1  0  0  0  0
 24 25  1  0  0  0  0
 24 20  1  1  0  0  0
 25 21  1  6  0  0  0
 26  4  1  0  0  0  0
 28 29  1  0  0  0  0
 29 27  1  6  0  0  0
 29 26  1  0  0  0  0
 30 31  1  0  0  0  0
 30  3  1  0  0  0  0
 32 36  2  0  0  0  0
 33 42  1  1  0  0  0
 33 32  1  0  0  0  0
 34 33  1  0  0  0  0
 34 37  1  0  0  0  0
 36 35  1  0  0  0  0
 37 31  1  6  0  0  0
 37 36  1  0  0  0  0
 38 42  1  0  0  0  0
 39 43  1  0  0  0  0
 40 38  1  0  0  0  0
 41 38  1  0  0  0  0
 42 46  2  0  0  0  0
 43 45  1  0  0  0  0
 43 44  1  0  0  0  0
 44 41  1  0  0  0  0
 45 40  1  0  0  0  0
M  END
>  <MODEL>
7

>  <REMARK>
 VINA RESULT:      -6.6      2.961      4.107
  Name = 
  13 active torsions:
  status: ('A' for Active; 'I' for Inactive)
    1  A    between atoms: N_9  and  N_34
    2  A    between atoms: N_9  and  C_36
    3  A    between atoms: C_10  and  C_29
    4  A    between atoms: C_12  and  C_40
    5  A    between atoms: C_15  and  C_17
    6  A    between atoms: C_15  and  C_32
    7  A    between atoms: C_23  and  C_27
    8  A    between atoms: C_23  and  C_36
    9  A    between atoms: C_24  and  C_38
   10  A    between atoms: C_27  and  C_45
   11  A    between atoms: C_39  and  C_43
   12  A    between atoms: C_40  and  C_43
   13  A    between atoms: C_44  and  C_45
                            x       y       z     vdW  Elec       q    Type
                         _______ _______ _______ _____ _____    ______ ____

>  <TORSDO>
F 13

$$$$
=
 OpenBabel10222417213D

 46 50  0  0  1  0  0  0  0  0999 V2000
  190.0460  175.0120  137.2330 C   0  0  0  0  0  0  0  0  0  0  0  0
  192.1230  175.6760  138.2900 C   0  0  0  0  0  3  0  0  0  0  0  0
  189.8930  176.8290  138.4970 C   0  0  0  0  0  0  0  0  0  0  0  0
  188.6580  176.5270  137.9250 C   0  0  0  0  0  0  0  0  0  0  0  0
  192.0230  173.7090  136.8390 C   0  0  0  0  0  3  0  0  0  0  0  0
  190.7620  175.8580  138.0470 C   0  0  0  0  0  0  0  0  0  0  0  0
  190.6520  173.9180  136.6100 C   0  0  0  0  0  3  0  0  0  0  0  0
  188.7610  175.4180  137.1570 N   0  0  0  0  0  0  0  0  0  0  0  0
  192.7580  174.5850  137.6680 C   0  0  0  0  0  0  0  0  0  0  0  0
  194.9440  175.4610  137.5530 O   0  0  0  0  0  1  0  0  0  0  0  0
  194.2040  174.3350  137.9090 C   0  0  0  0  0  2  0  0  0  0  0  0
  187.7070  174.8510  136.4170 N   0  0  0  0  0  2  0  0  0  0  0  0
  186.4490  174.4250  137.0120 C   0  0  0  0  0  2  0  0  0  0  0  0
  185.2760  175.0240  136.2510 C   0  0  0  0  0  2  0  0  0  0  0  0
  184.0210  174.9600  137.0620 C   0  0  0  0  0  0  0  0  0  0  0  0
  183.9050  174.1290  137.9480 O   0  0  0  0  0  0  0  0  0  0  0  0
  182.8840  175.8880  136.7410 C   0  0  0  0  0  2  0  0  0  0  0  0
  180.4720  178.1230  137.6140 O   0  0  0  0  0  0  0  0  0  0  0  0
  181.1730  177.2300  139.9940 C   0  0  0  0  0  2  0  0  0  0  0  0
  183.8680  177.3920  138.4690 C   0  0  0  0  0  1  0  0  0  0  0  0
  180.6090  175.3410  138.4610 C   0  0  0  0  0  1  0  0  0  0  0  0
  181.8290  178.1290  137.2680 C   0  0  0  0  0  2  0  0  0  0  0  0
  180.4290  178.7290  139.2290 S   0  0  0  0  0  0  0  0  0  0  0  0
  182.5640  176.9080  137.8520 C   0  0  1  0  0  0  0  0  0  0  0  0
  181.7370  176.2280  138.9770 C   0  0  1  0  0  3  0  0  0  0  0  0
  187.4080  177.3370  138.0670 C   0  0  0  0  0  2  0  0  0  0  0  0
  187.7260  177.8750  135.6490 C   0  0  0  0  0  1  0  0  0  0  0  0
  188.2290  179.4530  137.3510 O   0  0  0  0  0  1  0  0  0  0  0  0
  187.3450  178.4300  137.0110 C   0  0  2  0  0  3  0  0  0  0  0  0
  190.2240  177.9860  139.3820 C   0  0  0  0  0  2  0  0  0  0  0  0
  190.8230  177.4910  140.6860 C   0  0  0  0  0  2  0  0  0  0  0  0
  188.7260  176.1040  143.4420 N   0  0  0  0  0  2  0  0  0  0  0  0
  187.5630  176.8200  142.9430 C   0  0  2  0  0  3  0  0  0  0  0  0
  188.0830  177.8130  141.4950 S   0  0  0  0  0  0  0  0  0  0  0  0
  191.1730  175.6350  142.9910 C   0  0  0  0  0  1  0  0  0  0  0  0
  189.8950  176.3320  142.6770 C   0  0  0  0  0  0  0  0  0  0  0  0
  189.7410  177.1640  141.6610 C   0  0  0  0  0  0  0  0  0  0  0  0
  185.7240  178.3490  143.8240 N   0  0  0  0  0  0  0  0  0  0  0  0
  181.6820  179.2510  143.7350 C   0  0  0  0  0  1  0  0  0  0  0  0
  185.0520  178.3010  142.5260 C   0  0  0  0  0  2  0  0  0  0  0  0
  185.2200  179.2790  144.8340 C   0  0  0  0  0  2  0  0  0  0  0  0
  186.9960  177.7090  144.0070 C   0  0  0  0  0  0  0  0  0  0  0  0
  183.1200  179.3650  143.5800 N   0  0  0  0  0  0  0  0  0  0  0  0
  183.7000  179.1750  144.9080 C   0  0  0  0  0  2  0  0  0  0  0  0
  183.5400  178.2520  142.7320 C   0  0  0  0  0  2  0  0  0  0  0  0
  187.6570  177.9110  145.0630 O   0  0  0  0  0  0  0  0  0  0  0  0
  1  6  1  0  0  0  0
  3 30  1  0  0  0  0
  4 26  1  0  0  0  0
  4  3  2  0  0  0  0
  5  9  2  0  0  0  0
  6  2  2  0  0  0  0
  6  3  1  0  0  0  0
  7  5  1  0  0  0  0
  7  1  2  0  0  0  0
  8  1  1  0  0  0  0
  8  4  1  0  0  0  0
  9 11  1  0  0  0  0
  9  2  1  0  0  0  0
 10 11  1  0  0  0  0
 12 13  1  0  0  0  0
 12  8  1  0  0  0  0
 14 13  1  0  0  0  0
 14 15  1  0  0  0  0
 15 16  2  0  0  0  0
 17 15  1  0  0  0  0
 17 24  1  0  0  0  0
 18 23  1  0  0  0  0
 22 18  1  0  0  0  0
 22 24  1  0  0  0  0
 23 19  1  0  0  0  0
 24 20  1  1  0  0  0
 24 25  1  0  0  0  0
 25 21  1  6  0  0  0
 25 19  1  0  0  0  0
 29 27  1  6  0  0  0
 29 28  1  0  0  0  0
 29 26  1  0  0  0  0
 30 31  1  0  0  0  0
 31 37  1  0  0  0  0
 33 32  1  0  0  0  0
 33 42  1  1  0  0  0
 34 37  1  0  0  0  0
 34 33  1  0  0  0  0
 36 35  1  0  0  0  0
 36 32  1  0  0  0  0
 37 36  2  0  0  0  0
 38 42  1  0  0  0  0
 38 41  1  0  0  0  0
 40 45  1  0  0  0  0
 40 38  1  0  0  0  0
 41 44  1  0  0  0  0
 42 46  2  0  0  0  0
 43 39  1  0  0  0  0
 43 44  1  0  0  0  0
 45 43  1  0  0  0  0
M  END
>  <MODEL>
8

>  <REMARK>
 VINA RESULT:      -6.6      2.550      8.093
  Name = 
  13 active torsions:
  status: ('A' for Active; 'I' for Inactive)
    1  A    between atoms: N_9  and  N_34
    2  A    between atoms: N_9  and  C_36
    3  A    between atoms: C_10  and  C_29
    4  A    between atoms: C_12  and  C_40
    5  A    between atoms: C_15  and  C_17
    6  A    between atoms: C_15  and  C_32
    7  A    between atoms: C_23  and  C_27
    8  A    between atoms: C_23  and  C_36
    9  A    between atoms: C_24  and  C_38
   10  A    between atoms: C_27  and  C_45
   11  A    between atoms: C_39  and  C_43
   12  A    between atoms: C_40  and  C_43
   13  A    between atoms: C_44  and  C_45
                            x       y       z     vdW  Elec       q    Type
                         _______ _______ _______ _____ _____    ______ ____

>  <TORSDO>
F 13

$$$$
=
 OpenBabel10222417213D

 46 50  0  0  1  0  0  0  0  0999 V2000
  183.4190  176.4890  137.3280 C   0  0  0  0  0  0  0  0  0  0  0  0
  182.1290  177.8230  138.8850 C   0  0  0  0  0  3  0  0  0  0  0  0
  184.6140  177.9520  138.4920 C   0  0  0  0  0  0  0  0  0  0  0  0
  185.4360  177.2260  137.6320 C   0  0  0  0  0  0  0  0  0  0  0  0
  181.0510  176.1310  137.4850 C   0  0  0  0  0  3  0  0  0  0  0  0
  183.3370  177.4710  138.2870 C   0  0  0  0  0  0  0  0  0  0  0  0
  182.2850  175.7950  136.9000 C   0  0  0  0  0  3  0  0  0  0  0  0
  184.6990  176.3370  136.9260 N   0  0  0  0  0  0  0  0  0  0  0  0
  180.9720  177.1340  138.4760 C   0  0  0  0  0  0  0  0  0  0  0  0
  179.5890  178.8570  139.3000 O   0  0  0  0  0  1  0  0  0  0  0  0
  179.6540  177.4840  139.0700 C   0  0  0  0  0  2  0  0  0  0  0  0
  185.2190  175.4300  135.9850 N   0  0  0  0  0  2  0  0  0  0  0  0
  185.9770  174.2430  136.3510 C   0  0  0  0  0  2  0  0  0  0  0  0
  187.1630  174.0650  135.4130 C   0  0  0  0  0  2  0  0  0  0  0  0
  188.3140  173.4240  136.1200 C   0  0  0  0  0  0  0  0  0  0  0  0
  188.1270  172.7870  137.1450 O   0  0  0  0  0  0  0  0  0  0  0  0
  189.7080  173.6150  135.5910 C   0  0  0  0  0  2  0  0  0  0  0  0
  190.8990  175.0870  138.4170 O   0  0  0  0  0  0  0  0  0  0  0  0
  192.6710  175.9350  136.6580 C   0  0  0  0  0  2  0  0  0  0  0  0
  189.9990  176.0390  135.0880 C   0  0  0  0  0  1  0  0  0  0  0  0
  192.4380  173.4500  136.5650 C   0  0  0  0  0  1  0  0  0  0  0  0
  189.9060  175.3150  137.4570 C   0  0  0  0  0  2  0  0  0  0  0  0
  191.9620  176.4400  138.2790 S   0  0  0  0  0  0  0  0  0  0  0  0
  190.3860  174.9220  136.0470 C   0  0  1  0  0  0  0  0  0  0  0  0
  191.9300  174.7690  135.9910 C   0  0  1  0  0  3  0  0  0  0  0  0
  186.9250  177.3450  137.5390 C   0  0  0  0  0  2  0  0  0  0  0  0
  187.1410  178.2830  135.2350 C   0  0  0  0  0  1  0  0  0  0  0  0
  188.6620  178.8660  136.9640 O   0  0  0  0  0  1  0  0  0  0  0  0
  187.3240  178.5610  136.7170 C   0  0  2  0  0  3  0  0  0  0  0  0
  185.0260  179.0060  139.4670 C   0  0  0  0  0  2  0  0  0  0  0  0
  184.8150  178.5140  140.8870 C   0  0  0  0  0  2  0  0  0  0  0  0
  187.5550  178.3170  143.4120 N   0  0  0  0  0  2  0  0  0  0  0  0
  188.5510  178.5310  142.3750 C   0  0  2  0  0  3  0  0  0  0  0  0
  187.6850  178.6410  140.7650 S   0  0  0  0  0  0  0  0  0  0  0  0
  185.0640  178.1480  143.8350 C   0  0  0  0  0  1  0  0  0  0  0  0
  186.2290  178.2900  142.9180 C   0  0  0  0  0  0  0  0  0  0  0  0
  186.1210  178.4430  141.6090 C   0  0  0  0  0  0  0  0  0  0  0  0
  190.4190  177.1880  143.4720 N   0  0  0  0  0  0  0  0  0  0  0  0
  192.1000  175.9440  147.0480 C   0  0  0  0  0  1  0  0  0  0  0  0
  190.4960  178.1660  144.5560 C   0  0  0  0  0  2  0  0  0  0  0  0
  191.4360  176.1400  143.4080 C   0  0  0  0  0  2  0  0  0  0  0  0
  189.5420  177.4070  142.3570 C   0  0  0  0  0  0  0  0  0  0  0  0
  191.9280  176.5940  145.7630 N   0  0  0  0  0  0  0  0  0  0  0  0
  191.6350  175.5370  144.7950 C   0  0  0  0  0  2  0  0  0  0  0  0
  190.7480  177.4480  145.8800 C   0  0  0  0  0  2  0  0  0  0  0  0
  189.6160  176.6630  141.3400 O   0  0  0  0  0  0  0  0  0  0  0  0
  1  6  1  0  0  0  0
  3 30  1  0  0  0  0
  4  3  2  0  0  0  0
  5  9  2  0  0  0  0
  6  3  1  0  0  0  0
  6  2  2  0  0  0  0
  7  1  2  0  0  0  0
  7  5  1  0  0  0  0
  8  1  1  0  0  0  0
  8  4  1  0  0  0  0
  9  2  1  0  0  0  0
  9 11  1  0  0  0  0
 11 10  1  0  0  0  0
 12 13  1  0  0  0  0
 12  8  1  0  0  0  0
 14 15  1  0  0  0  0
 14 13  1  0  0  0  0
 15 16  2  0  0  0  0
 17 24  1  0  0  0  0
 17 15  1  0  0  0  0
 19 23  1  0  0  0  0
 22 18  1  0  0  0  0
 23 18  1  0  0  0  0
 24 20  1  6  0  0  0
 24 22  1  0  0  0  0
 25 24  1  0  0  0  0
 25 21  1  1  0  0  0
 25 19  1  0  0  0  0
 26  4  1  0  0  0  0
 29 27  1  6  0  0  0
 29 28  1  0  0  0  0
 29 26  1  0  0  0  0
 30 31  1  0  0  0  0
 31 37  1  0  0  0  0
 33 42  1  6  0  0  0
 33 32  1  0  0  0  0
 34 37  1  0  0  0  0
 34 33  1  0  0  0  0
 36 32  1  0  0  0  0
 36 35  1  0  0  0  0
 37 36  2  0  0  0  0
 38 40  1  0  0  0  0
 40 45  1  0  0  0  0
 41 38  1  0  0  0  0
 41 44  1  0  0  0  0
 42 38  1  0  0  0  0
 43 45  1  0  0  0  0
 43 39  1  0  0  0  0
 44 43  1  0  0  0  0
 46 42  2  0  0  0  0
M  END
>  <MODEL>
9

>  <REMARK>
 VINA RESULT:      -6.6      3.161      9.174
  Name = 
  13 active torsions:
  status: ('A' for Active; 'I' for Inactive)
    1  A    between atoms: N_9  and  N_34
    2  A    between atoms: N_9  and  C_36
    3  A    between atoms: C_10  and  C_29
    4  A    between atoms: C_12  and  C_40
    5  A    between atoms: C_15  and  C_17
    6  A    between atoms: C_15  and  C_32
    7  A    between atoms: C_23  and  C_27
    8  A    between atoms: C_23  and  C_36
    9  A    between atoms: C_24  and  C_38
   10  A    between atoms: C_27  and  C_45
   11  A    between atoms: C_39  and  C_43
   12  A    between atoms: C_40  and  C_43
   13  A    between atoms: C_44  and  C_45
                            x       y       z     vdW  Elec       q    Type
                         _______ _______ _______ _____ _____    ______ ____

>  <TORSDO>
F 13

$$$$
