=
 OpenBabel10222417593D

 33 36  0  0  1  0  0  0  0  0999 V2000
  190.2160  177.0090  140.7110 C   0  0  0  0  0  0  0  0  0  0  0  0
  191.7280  176.7270  139.2290 N   0  0  0  0  0  0  0  0  0  0  0  0
  190.4270  176.5980  139.4500 N   0  0  0  0  0  0  0  0  0  0  0  0
  190.1760  178.3120  143.2420 C   0  0  0  0  0  2  0  0  0  0  0  0
  188.8900  177.1110  141.3950 C   0  0  0  0  0  2  0  0  0  0  0  0
  192.3700  177.2230  140.3130 C   0  0  0  0  0  3  0  0  0  0  0  0
  191.3960  177.4340  141.2670 C   0  0  0  0  0  0  0  0  0  0  0  0
  189.0910  177.2710  142.9120 C   0  0  2  0  0  3  0  0  0  0  0  0
  191.5430  177.8910  142.6820 C   0  0  0  0  0  2  0  0  0  0  0  0
  183.0720  178.7360  142.7370 C   0  0  0  0  0  0  0  0  0  0  0  0
  185.3210  178.3350  144.7960 C   0  0  0  0  0  2  0  0  0  0  0  0
  182.4560  178.7370  140.3050 C   0  0  0  0  0  1  0  0  0  0  0  0
  187.8320  177.6270  143.5540 N   0  0  0  0  0  0  0  0  0  0  0  0
  180.7250  179.2700  142.0230 C   0  0  0  0  0  1  0  0  0  0  0  0
  188.9650  177.5350  146.1040 S   0  0  0  0  0  0  0  0  0  0  0  0
  187.9560  177.8780  147.4150 C   0  0  0  0  0  0  0  0  0  0  0  0
  188.3880  177.8740  148.8370 C   0  0  0  0  0  1  0  0  0  0  0  0
  186.6760  177.8550  142.7800 N   0  0  0  0  0  0  0  0  0  0  0  0
  184.4200  178.3830  142.3930 N   0  0  0  0  0  2  0  0  0  0  0  0
  187.7450  177.7520  144.9700 C   0  0  0  0  0  0  0  0  0  0  0  0
  182.0960  178.9110  141.7010 N   0  0  0  0  0  0  0  0  0  0  0  0
  185.5180  178.1780  143.2930 C   0  0  0  0  0  0  0  0  0  0  0  0
  186.5660  178.0860  145.5860 C   0  0  0  0  0  0  0  0  0  0  0  0
  182.7390  178.8950  143.9430 O   0  0  0  0  0  0  0  0  0  0  0  0
  186.6640  178.1640  146.9790 C   0  0  0  0  0  3  0  0  0  0  0  0
  192.3160  176.3790  138.0310 O   0  0  0  0  0  0  0  0  0  0  0  0
  192.4660  175.0210  137.6370 C   0  0  0  0  0  2  0  0  0  0  0  0
  193.9340  174.7050  137.4290 C   0  0  0  0  0  2  0  0  0  0  0  0
  194.6940  175.3090  138.4310 O   0  0  0  0  0  0  0  0  0  0  0  0
  195.6380  174.3440  138.7860 C   0  0  0  0  0  2  0  0  0  0  0  0
  196.8530  174.4520  137.8840 C   0  0  0  0  0  2  0  0  0  0  0  0
  198.1120  174.6000  138.7160 C   0  0  0  0  0  2  0  0  0  0  0  0
  197.6820  175.2500  140.3530 S   0  0  0  0  0  1  0  0  0  0  0  0
  1  7  1  0  0  0  0
  1  5  1  0  0  0  0
  2  3  1  0  0  0  0
  2  6  1  0  0  0  0
  3  1  2  0  0  0  0
  6  7  2  0  0  0  0
  7  9  1  0  0  0  0
  8  5  1  6  0  0  0
  8  4  1  0  0  0  0
  8 13  1  0  0  0  0
  9  4  1  0  0  0  0
 10 24  2  0  0  0  0
 11 23  1  0  0  0  0
 12 21  1  0  0  0  0
 13 20  1  0  0  0  0
 15 16  1  0  0  0  0
 16 17  1  0  0  0  0
 18 22  2  0  0  0  0
 18 13  1  0  0  0  0
 19 10  1  0  0  0  0
 19 22  1  0  0  0  0
 20 23  2  0  0  0  0
 20 15  1  0  0  0  0
 21 14  1  0  0  0  0
 21 10  1  0  0  0  0
 22 11  1  0  0  0  0
 23 25  1  0  0  0  0
 25 16  2  0  0  0  0
 26  2  1  0  0  0  0
 27 26  1  0  0  0  0
 28 27  1  0  0  0  0
 28 29  1  0  0  0  0
 29 30  1  0  0  0  0
 31 32  1  0  0  0  0
 31 30  1  0  0  0  0
 32 33  1  0  0  0  0
M  END
>  <MODEL>
1

>  <REMARK>
 VINA RESULT:      -8.6      0.000      0.000
  Name = 
  8 active torsions:
  status: ('A' for Active; 'I' for Inactive)
    1  A    between atoms: C_3  and  C_6
    2  A    between atoms: C_3  and  O_23
    3  A    between atoms: N_5  and  C_26
    4  A    between atoms: C_6  and  O_8
    5  A    between atoms: O_8  and  C_15
    6  A    between atoms: N_9  and  O_23
    7  A    between atoms: C_12  and  C_30
    8  A    between atoms: C_15  and  C_30
                            x       y       z     vdW  Elec       q    Type
                         _______ _______ _______ _____ _____    ______ ____

>  <TORSDO>
F 8

$$$$
=
 OpenBabel10222417593D

 33 36  0  0  1  0  0  0  0  0999 V2000
  190.0350  177.1030  140.7410 C   0  0  0  0  0  0  0  0  0  0  0  0
  191.5340  176.8350  139.2430 N   0  0  0  0  0  0  0  0  0  0  0  0
  190.2340  176.7110  139.4720 N   0  0  0  0  0  0  0  0  0  0  0  0
  190.0230  178.3620  143.2940 C   0  0  0  0  0  2  0  0  0  0  0  0
  188.7150  177.2010  141.4370 C   0  0  0  0  0  2  0  0  0  0  0  0
  192.1870  177.3100  140.3310 C   0  0  0  0  0  3  0  0  0  0  0  0
  191.2220  177.5100  141.2950 C   0  0  0  0  0  0  0  0  0  0  0  0
  188.9280  177.3340  142.9550 C   0  0  2  0  0  3  0  0  0  0  0  0
  191.3820  177.9430  142.7170 C   0  0  0  0  0  2  0  0  0  0  0  0
  182.9040  178.7850  142.8530 C   0  0  0  0  0  0  0  0  0  0  0  0
  185.1790  178.3900  144.8840 C   0  0  0  0  0  2  0  0  0  0  0  0
  182.2580  178.7830  140.4290 C   0  0  0  0  0  1  0  0  0  0  0  0
  187.6760  177.6880  143.6110 N   0  0  0  0  0  0  0  0  0  0  0  0
  180.5470  179.3120  142.1680 C   0  0  0  0  0  1  0  0  0  0  0  0
  188.8400  177.5990  146.1480 S   0  0  0  0  0  0  0  0  0  0  0  0
  187.8470  177.9400  147.4710 C   0  0  0  0  0  0  0  0  0  0  0  0
  188.2970  177.9390  148.8870 C   0  0  0  0  0  1  0  0  0  0  0  0
  186.5110  177.9130  142.8520 N   0  0  0  0  0  0  0  0  0  0  0  0
  184.2480  178.4350  142.4930 N   0  0  0  0  0  2  0  0  0  0  0  0
  187.6060  177.8130  145.0290 C   0  0  0  0  0  0  0  0  0  0  0  0
  181.9150  178.9570  141.8290 N   0  0  0  0  0  0  0  0  0  0  0  0
  185.3580  178.2330  143.3800 C   0  0  0  0  0  0  0  0  0  0  0  0
  186.4340  178.1450  145.6590 C   0  0  0  0  0  0  0  0  0  0  0  0
  182.5850  178.9430  144.0630 O   0  0  0  0  0  0  0  0  0  0  0  0
  186.5490  178.2230  147.0510 C   0  0  0  0  0  3  0  0  0  0  0  0
  192.1110  176.5040  138.0350 O   0  0  0  0  0  0  0  0  0  0  0  0
  192.7250  175.2390  137.8210 C   0  0  0  0  0  2  0  0  0  0  0  0
  191.8450  174.3870  136.9270 C   0  0  0  0  0  2  0  0  0  0  0  0
  190.7300  173.9460  137.6420 O   0  0  0  0  0  0  0  0  0  0  0  0
  189.7380  173.7760  136.6750 C   0  0  0  0  0  2  0  0  0  0  0  0
  189.0590  175.1040  136.3930 C   0  0  0  0  0  2  0  0  0  0  0  0
  187.7850  175.2250  137.2060 C   0  0  0  0  0  2  0  0  0  0  0  0
  187.0450  176.8570  136.9320 S   0  0  0  0  0  1  0  0  0  0  0  0
  1  7  1  0  0  0  0
  1  5  1  0  0  0  0
  2  3  1  0  0  0  0
  2  6  1  0  0  0  0
  3  1  2  0  0  0  0
  6  7  2  0  0  0  0
  7  9  1  0  0  0  0
  8  5  1  6  0  0  0
  8  4  1  0  0  0  0
  8 13  1  0  0  0  0
  9  4  1  0  0  0  0
 10 24  2  0  0  0  0
 11 23  1  0  0  0  0
 12 21  1  0  0  0  0
 13 20  1  0  0  0  0
 15 16  1  0  0  0  0
 16 17  1  0  0  0  0
 18 22  2  0  0  0  0
 18 13  1  0  0  0  0
 19 10  1  0  0  0  0
 19 22  1  0  0  0  0
 20 23  2  0  0  0  0
 20 15  1  0  0  0  0
 21 14  1  0  0  0  0
 21 10  1  0  0  0  0
 22 11  1  0  0  0  0
 23 25  1  0  0  0  0
 25 16  2  0  0  0  0
 26  2  1  0  0  0  0
 27 26  1  0  0  0  0
 28 29  1  0  0  0  0
 28 27  1  0  0  0  0
 30 29  1  0  0  0  0
 31 30  1  0  0  0  0
 31 32  1  0  0  0  0
 33 32  1  0  0  0  0
M  END
>  <MODEL>
2

>  <REMARK>
 VINA RESULT:      -8.6      2.378      3.320
  Name = 
  8 active torsions:
  status: ('A' for Active; 'I' for Inactive)
    1  A    between atoms: C_3  and  C_6
    2  A    between atoms: C_3  and  O_23
    3  A    between atoms: N_5  and  C_26
    4  A    between atoms: C_6  and  O_8
    5  A    between atoms: O_8  and  C_15
    6  A    between atoms: N_9  and  O_23
    7  A    between atoms: C_12  and  C_30
    8  A    between atoms: C_15  and  C_30
                            x       y       z     vdW  Elec       q    Type
                         _______ _______ _______ _____ _____    ______ ____

>  <TORSDO>
F 8

$$$$
=
 OpenBabel10222417593D

 33 36  0  0  1  0  0  0  0  0999 V2000
  190.0000  177.0510  140.7080 C   0  0  0  0  0  0  0  0  0  0  0  0
  191.4630  176.7620  139.1790 N   0  0  0  0  0  0  0  0  0  0  0  0
  190.1680  176.6490  139.4380 N   0  0  0  0  0  0  0  0  0  0  0  0
  190.0540  178.3300  143.2510 C   0  0  0  0  0  2  0  0  0  0  0  0
  188.6970  177.1640  141.4330 C   0  0  0  0  0  2  0  0  0  0  0  0
  192.1440  177.2400  140.2480 C   0  0  0  0  0  3  0  0  0  0  0  0
  191.2020  177.4540  141.2320 C   0  0  0  0  0  0  0  0  0  0  0  0
  188.9450  177.3070  142.9440 C   0  0  2  0  0  3  0  0  0  0  0  0
  191.3980  177.8960  142.6460 C   0  0  0  0  0  2  0  0  0  0  0  0
  182.9310  178.8010  142.9680 C   0  0  0  0  0  0  0  0  0  0  0  0
  185.2490  178.4040  144.9500 C   0  0  0  0  0  2  0  0  0  0  0  0
  182.2310  178.7860  140.5590 C   0  0  0  0  0  1  0  0  0  0  0  0
  187.7110  177.6740  143.6270 N   0  0  0  0  0  0  0  0  0  0  0  0
  180.5630  179.3410  142.3320 C   0  0  0  0  0  1  0  0  0  0  0  0
  188.9320  177.5950  146.1370 S   0  0  0  0  0  0  0  0  0  0  0  0
  187.9710  177.9530  147.4800 C   0  0  0  0  0  0  0  0  0  0  0  0
  188.4530  177.9580  148.8850 C   0  0  0  0  0  1  0  0  0  0  0  0
  186.5310  177.9030  142.8920 N   0  0  0  0  0  0  0  0  0  0  0  0
  184.2650  178.4390  142.5800 N   0  0  0  0  0  2  0  0  0  0  0  0
  187.6740  177.8100  145.0440 C   0  0  0  0  0  0  0  0  0  0  0  0
  181.9210  178.9730  141.9650 N   0  0  0  0  0  0  0  0  0  0  0  0
  185.3920  178.2350  143.4430 C   0  0  0  0  0  0  0  0  0  0  0  0
  186.5190  178.1550  145.6990 C   0  0  0  0  0  0  0  0  0  0  0  0
  182.6410  178.9700  144.1840 O   0  0  0  0  0  0  0  0  0  0  0  0
  186.6660  178.2420  147.0870 C   0  0  0  0  0  3  0  0  0  0  0  0
  192.0110  176.4180  137.9610 O   0  0  0  0  0  0  0  0  0  0  0  0
  193.4150  176.4420  137.7380 C   0  0  0  0  0  2  0  0  0  0  0  0
  193.9630  175.0280  137.7540 C   0  0  0  0  0  2  0  0  0  0  0  0
  194.3360  174.6510  136.4640 O   0  0  0  0  0  0  0  0  0  0  0  0
  194.0450  173.2870  136.4000 C   0  0  0  0  0  2  0  0  0  0  0  0
  192.5560  173.0860  136.1920 C   0  0  0  0  0  2  0  0  0  0  0  0
  192.3080  171.8940  135.2880 C   0  0  0  0  0  2  0  0  0  0  0  0
  193.5500  170.6150  135.6190 S   0  0  0  0  0  1  0  0  0  0  0  0
  1  7  1  0  0  0  0
  1  5  1  0  0  0  0
  2  3  1  0  0  0  0
  2  6  1  0  0  0  0
  3  1  2  0  0  0  0
  6  7  2  0  0  0  0
  7  9  1  0  0  0  0
  8  5  1  6  0  0  0
  8  4  1  0  0  0  0
  8 13  1  0  0  0  0
  9  4  1  0  0  0  0
 10 24  2  0  0  0  0
 11 23  1  0  0  0  0
 12 21  1  0  0  0  0
 13 20  1  0  0  0  0
 15 16  1  0  0  0  0
 16 17  1  0  0  0  0
 18 22  2  0  0  0  0
 18 13  1  0  0  0  0
 19 10  1  0  0  0  0
 19 22  1  0  0  0  0
 20 23  2  0  0  0  0
 20 15  1  0  0  0  0
 21 14  1  0  0  0  0
 21 10  1  0  0  0  0
 22 11  1  0  0  0  0
 23 25  1  0  0  0  0
 25 16  2  0  0  0  0
 26  2  1  0  0  0  0
 27 28  1  0  0  0  0
 27 26  1  0  0  0  0
 29 28  1  0  0  0  0
 30 29  1  0  0  0  0
 31 30  1  0  0  0  0
 32 33  1  0  0  0  0
 32 31  1  0  0  0  0
M  END
>  <MODEL>
3

>  <REMARK>
 VINA RESULT:      -8.1      1.745      2.168
  Name = 
  8 active torsions:
  status: ('A' for Active; 'I' for Inactive)
    1  A    between atoms: C_3  and  C_6
    2  A    between atoms: C_3  and  O_23
    3  A    between atoms: N_5  and  C_26
    4  A    between atoms: C_6  and  O_8
    5  A    between atoms: O_8  and  C_15
    6  A    between atoms: N_9  and  O_23
    7  A    between atoms: C_12  and  C_30
    8  A    between atoms: C_15  and  C_30
                            x       y       z     vdW  Elec       q    Type
                         _______ _______ _______ _____ _____    ______ ____

>  <TORSDO>
F 8

$$$$
=
 OpenBabel10222417593D

 33 36  0  0  1  0  0  0  0  0999 V2000
  188.9490  177.3410  143.1990 C   0  0  0  0  0  0  0  0  0  0  0  0
  188.0490  177.4020  145.1340 N   0  0  0  0  0  0  0  0  0  0  0  0
  187.8200  177.0710  143.8710 N   0  0  0  0  0  0  0  0  0  0  0  0
  191.6180  177.6910  142.2700 C   0  0  0  0  0  2  0  0  0  0  0  0
  189.1990  177.0720  141.7490 C   0  0  0  0  0  2  0  0  0  0  0  0
  189.3080  177.8720  145.3040 C   0  0  0  0  0  3  0  0  0  0  0  0
  189.9050  177.8120  144.0630 C   0  0  0  0  0  0  0  0  0  0  0  0
  190.4490  177.8360  141.2790 C   0  0  2  0  0  3  0  0  0  0  0  0
  191.2620  178.2790  143.6440 C   0  0  0  0  0  2  0  0  0  0  0  0
  194.4260  175.1170  137.3810 C   0  0  0  0  0  0  0  0  0  0  0  0
  191.6680  176.4760  137.3350 C   0  0  0  0  0  2  0  0  0  0  0  0
  196.3880  174.4440  138.7930 C   0  0  0  0  0  1  0  0  0  0  0  0
  190.8480  177.3840  139.9520 N   0  0  0  0  0  0  0  0  0  0  0  0
  196.3940  173.9520  136.3440 C   0  0  0  0  0  1  0  0  0  0  0  0
  188.4920  178.3280  138.7880 S   0  0  0  0  0  0  0  0  0  0  0  0
  188.3030  178.1020  137.1240 C   0  0  0  0  0  0  0  0  0  0  0  0
  187.1170  178.5390  136.3430 C   0  0  0  0  0  1  0  0  0  0  0  0
  192.0840  176.7350  139.7610 N   0  0  0  0  0  0  0  0  0  0  0  0
  193.7820  175.6620  138.5420 N   0  0  0  0  0  2  0  0  0  0  0  0
  190.0000  177.5880  138.8260 C   0  0  0  0  0  0  0  0  0  0  0  0
  195.7200  174.5110  137.5050 N   0  0  0  0  0  0  0  0  0  0  0  0
  192.5010  176.3060  138.5990 C   0  0  0  0  0  0  0  0  0  0  0  0
  190.3630  177.1680  137.5720 C   0  0  0  0  0  0  0  0  0  0  0  0
  193.8640  175.1660  136.2530 O   0  0  0  0  0  0  0  0  0  0  0  0
  189.4110  177.4510  136.5880 C   0  0  0  0  0  3  0  0  0  0  0  0
  187.0940  177.2750  146.1220 O   0  0  0  0  0  0  0  0  0  0  0  0
  186.6260  178.3980  146.8580 C   0  0  0  0  0  2  0  0  0  0  0  0
  185.6170  179.1700  146.0300 C   0  0  0  0  0  2  0  0  0  0  0  0
  184.3550  178.5890  146.1610 O   0  0  0  0  0  0  0  0  0  0  0  0
  183.6470  179.0330  145.0420 C   0  0  0  0  0  2  0  0  0  0  0  0
  184.6130  179.3950  143.9290 C   0  0  0  0  0  2  0  0  0  0  0  0
  184.4550  178.4370  142.7650 C   0  0  0  0  0  2  0  0  0  0  0  0
  185.5680  178.9290  141.4210 S   0  0  0  0  0  1  0  0  0  0  0  0
  1  3  2  0  0  0  0
  1  7  1  0  0  0  0
  2  6  1  0  0  0  0
  2 26  1  0  0  0  0
  3  2  1  0  0  0  0
  4  9  1  0  0  0  0
  5  1  1  0  0  0  0
  7  6  2  0  0  0  0
  8 13  1  6  0  0  0
  8  5  1  0  0  0  0
  8  4  1  0  0  0  0
  9  7  1  0  0  0  0
 10 21  1  0  0  0  0
 10 19  1  0  0  0  0
 11 23  1  0  0  0  0
 11 22  1  0  0  0  0
 14 21  1  0  0  0  0
 15 20  1  0  0  0  0
 16 15  1  0  0  0  0
 17 16  1  0  0  0  0
 18 13  1  0  0  0  0
 19 22  1  0  0  0  0
 20 13  1  0  0  0  0
 21 12  1  0  0  0  0
 22 18  2  0  0  0  0
 23 20  2  0  0  0  0
 24 10  2  0  0  0  0
 25 16  2  0  0  0  0
 25 23  1  0  0  0  0
 26 27  1  0  0  0  0
 28 29  1  0  0  0  0
 28 27  1  0  0  0  0
 30 29  1  0  0  0  0
 31 30  1  0  0  0  0
 32 31  1  0  0  0  0
 33 32  1  0  0  0  0
M  END
>  <MODEL>
4

>  <REMARK>
 VINA RESULT:      -8.0      2.878     10.314
  Name = 
  8 active torsions:
  status: ('A' for Active; 'I' for Inactive)
    1  A    between atoms: C_3  and  C_6
    2  A    between atoms: C_3  and  O_23
    3  A    between atoms: N_5  and  C_26
    4  A    between atoms: C_6  and  O_8
    5  A    between atoms: O_8  and  C_15
    6  A    between atoms: N_9  and  O_23
    7  A    between atoms: C_12  and  C_30
    8  A    between atoms: C_15  and  C_30
                            x       y       z     vdW  Elec       q    Type
                         _______ _______ _______ _____ _____    ______ ____

>  <TORSDO>
F 8

$$$$
=
 OpenBabel10222417593D

 33 36  0  0  1  0  0  0  0  0999 V2000
  182.9080  178.6360  142.2350 C   0  0  0  0  0  0  0  0  0  0  0  0
  180.8180  178.8640  141.8590 N   0  0  0  0  0  0  0  0  0  0  0  0
  181.9790  178.6210  141.2660 N   0  0  0  0  0  0  0  0  0  0  0  0
  184.4510  178.3770  144.6140 C   0  0  0  0  0  2  0  0  0  0  0  0
  184.3650  178.3460  142.0640 C   0  0  0  0  0  2  0  0  0  0  0  0
  180.9660  179.0260  143.1950 C   0  0  0  0  0  3  0  0  0  0  0  0
  182.3100  178.8540  143.4500 C   0  0  0  0  0  0  0  0  0  0  0  0
  185.1430  178.8090  143.3080 C   0  0  2  0  0  3  0  0  0  0  0  0
  183.0540  179.0030  144.7390 C   0  0  0  0  0  2  0  0  0  0  0  0
  190.2630  177.0990  140.2630 C   0  0  0  0  0  0  0  0  0  0  0  0
  189.2180  177.3050  143.1480 C   0  0  0  0  0  2  0  0  0  0  0  0
  189.7320  177.4220  137.8320 C   0  0  0  0  0  1  0  0  0  0  0  0
  186.5090  178.3040  143.2660 N   0  0  0  0  0  0  0  0  0  0  0  0
  191.9770  176.5640  138.5090 C   0  0  0  0  0  1  0  0  0  0  0  0
  186.6430  178.0800  146.0460 S   0  0  0  0  0  0  0  0  0  0  0  0
  188.0850  177.5030  146.7100 C   0  0  0  0  0  0  0  0  0  0  0  0
  188.3310  177.3210  148.1650 C   0  0  0  0  0  1  0  0  0  0  0  0
  187.1700  178.1350  142.0320 N   0  0  0  0  0  0  0  0  0  0  0  0
  188.9490  177.5620  140.6090 N   0  0  0  0  0  2  0  0  0  0  0  0
  187.2020  177.9710  144.4650 C   0  0  0  0  0  0  0  0  0  0  0  0
  190.6530  177.0300  138.8850 N   0  0  0  0  0  0  0  0  0  0  0  0
  188.3940  177.6870  141.9260 C   0  0  0  0  0  0  0  0  0  0  0  0
  188.4880  177.4950  144.4400 C   0  0  0  0  0  0  0  0  0  0  0  0
  191.0770  176.7520  141.1620 O   0  0  0  0  0  0  0  0  0  0  0  0
  189.0100  177.2220  145.7080 C   0  0  0  0  0  3  0  0  0  0  0  0
  179.6290  178.9420  141.1630 O   0  0  0  0  0  0  0  0  0  0  0  0
  179.4920  179.7550  140.0040 C   0  0  0  0  0  2  0  0  0  0  0  0
  179.5550  181.2190  140.3950 C   0  0  0  0  0  2  0  0  0  0  0  0
  179.6610  182.0100  139.2500 O   0  0  0  0  0  0  0  0  0  0  0  0
  180.8360  181.5770  138.6330 C   0  0  0  0  0  2  0  0  0  0  0  0
  180.8050  181.9290  137.1570 C   0  0  0  0  0  2  0  0  0  0  0  0
  180.0500  183.2270  136.9430 C   0  0  0  0  0  2  0  0  0  0  0  0
  181.1810  184.6270  137.1570 S   0  0  0  0  0  1  0  0  0  0  0  0
  1  7  1  0  0  0  0
  2  6  1  0  0  0  0
  3  2  1  0  0  0  0
  3  1  2  0  0  0  0
  4  9  1  0  0  0  0
  5  1  1  0  0  0  0
  6  7  2  0  0  0  0
  7  9  1  0  0  0  0
  8  5  1  6  0  0  0
  8  4  1  0  0  0  0
 10 19  1  0  0  0  0
 10 24  2  0  0  0  0
 11 23  1  0  0  0  0
 12 21  1  0  0  0  0
 13  8  1  0  0  0  0
 13 20  1  0  0  0  0
 14 21  1  0  0  0  0
 15 16  1  0  0  0  0
 16 17  1  0  0  0  0
 18 13  1  0  0  0  0
 19 22  1  0  0  0  0
 20 15  1  0  0  0  0
 21 10  1  0  0  0  0
 22 18  2  0  0  0  0
 22 11  1  0  0  0  0
 23 20  2  0  0  0  0
 23 25  1  0  0  0  0
 25 16  2  0  0  0  0
 26  2  1  0  0  0  0
 27 28  1  0  0  0  0
 27 26  1  0  0  0  0
 29 28  1  0  0  0  0
 30 29  1  0  0  0  0
 31 30  1  0  0  0  0
 32 33  1  0  0  0  0
 32 31  1  0  0  0  0
M  END
>  <MODEL>
5

>  <REMARK>
 VINA RESULT:      -7.8      3.444     10.190
  Name = 
  8 active torsions:
  status: ('A' for Active; 'I' for Inactive)
    1  A    between atoms: C_3  and  C_6
    2  A    between atoms: C_3  and  O_23
    3  A    between atoms: N_5  and  C_26
    4  A    between atoms: C_6  and  O_8
    5  A    between atoms: O_8  and  C_15
    6  A    between atoms: N_9  and  O_23
    7  A    between atoms: C_12  and  C_30
    8  A    between atoms: C_15  and  C_30
                            x       y       z     vdW  Elec       q    Type
                         _______ _______ _______ _____ _____    ______ ____

>  <TORSDO>
F 8

$$$$
=
 OpenBabel10222417593D

 33 36  0  0  1  0  0  0  0  0999 V2000
  184.5540  178.5990  143.0560 C   0  0  0  0  0  0  0  0  0  0  0  0
  182.5080  179.0520  143.4700 N   0  0  0  0  0  0  0  0  0  0  0  0
  183.3840  178.9240  142.4840 N   0  0  0  0  0  0  0  0  0  0  0  0
  186.6870  177.5630  144.6330 C   0  0  0  0  0  2  0  0  0  0  0  0
  185.8300  178.2860  142.3410 C   0  0  0  0  0  2  0  0  0  0  0  0
  183.0770  178.8060  144.6750 C   0  0  0  0  0  3  0  0  0  0  0  0
  184.3930  178.4870  144.4140 C   0  0  0  0  0  0  0  0  0  0  0  0
  187.0090  178.3160  143.3290 C   0  0  2  0  0  3  0  0  0  0  0  0
  185.5050  178.2070  145.3730 C   0  0  0  0  0  2  0  0  0  0  0  0
  190.3070  176.5890  138.3760 C   0  0  0  0  0  0  0  0  0  0  0  0
  190.5630  176.6770  141.4390 C   0  0  0  0  0  2  0  0  0  0  0  0
  188.8360  177.0610  136.3980 C   0  0  0  0  0  1  0  0  0  0  0  0
  188.2050  177.7660  142.7060 N   0  0  0  0  0  0  0  0  0  0  0  0
  191.1090  176.0870  136.0500 C   0  0  0  0  0  1  0  0  0  0  0  0
  189.4640  177.3880  145.1690 S   0  0  0  0  0  0  0  0  0  0  0  0
  191.0170  176.7240  145.1540 C   0  0  0  0  0  0  0  0  0  0  0  0
  191.8330  176.4560  146.3670 C   0  0  0  0  0  1  0  0  0  0  0  0
  188.2850  177.6390  141.3050 N   0  0  0  0  0  0  0  0  0  0  0  0
  189.2810  177.0800  139.2520 N   0  0  0  0  0  2  0  0  0  0  0  0
  189.3120  177.3440  143.4970 C   0  0  0  0  0  0  0  0  0  0  0  0
  190.0870  176.5800  136.9590 N   0  0  0  0  0  0  0  0  0  0  0  0
  189.3290  177.1540  140.6840 C   0  0  0  0  0  0  0  0  0  0  0  0
  190.4440  176.8240  142.9230 C   0  0  0  0  0  0  0  0  0  0  0  0
  191.4000  176.1650  138.8420 O   0  0  0  0  0  0  0  0  0  0  0  0
  191.4280  176.4640  143.8490 C   0  0  0  0  0  3  0  0  0  0  0  0
  181.1910  179.4000  143.2550 O   0  0  0  0  0  0  0  0  0  0  0  0
  180.4800  178.9620  142.1040 C   0  0  0  0  0  2  0  0  0  0  0  0
  179.9460  180.1610  141.3430 C   0  0  0  0  0  2  0  0  0  0  0  0
  180.7120  180.3720  140.1970 O   0  0  0  0  0  0  0  0  0  0  0  0
  180.9060  179.0960  139.6650 C   0  0  0  0  0  2  0  0  0  0  0  0
  181.9040  179.1580  138.5230 C   0  0  0  0  0  2  0  0  0  0  0  0
  183.2180  179.7400  139.0050 C   0  0  0  0  0  2  0  0  0  0  0  0
  184.5480  178.5390  138.7290 S   0  0  0  0  0  1  0  0  0  0  0  0
  1  7  1  0  0  0  0
  2  6  1  0  0  0  0
  3  1  2  0  0  0  0
  3  2  1  0  0  0  0
  4  9  1  0  0  0  0
  5  1  1  0  0  0  0
  7  6  2  0  0  0  0
  7  9  1  0  0  0  0
  8  5  1  6  0  0  0
  8  4  1  0  0  0  0
 10 24  2  0  0  0  0
 10 19  1  0  0  0  0
 11 23  1  0  0  0  0
 12 21  1  0  0  0  0
 13  8  1  0  0  0  0
 13 20  1  0  0  0  0
 14 21  1  0  0  0  0
 16 15  1  0  0  0  0
 16 17  1  0  0  0  0
 18 13  1  0  0  0  0
 19 22  1  0  0  0  0
 20 15  1  0  0  0  0
 21 10  1  0  0  0  0
 22 18  2  0  0  0  0
 22 11  1  0  0  0  0
 23 20  2  0  0  0  0
 23 25  1  0  0  0  0
 25 16  2  0  0  0  0
 26  2  1  0  0  0  0
 27 26  1  0  0  0  0
 28 27  1  0  0  0  0
 29 28  1  0  0  0  0
 30 29  1  0  0  0  0
 31 32  1  0  0  0  0
 31 30  1  0  0  0  0
 33 32  1  0  0  0  0
M  END
>  <MODEL>
6

>  <REMARK>
 VINA RESULT:      -7.7      3.152      9.335
  Name = 
  8 active torsions:
  status: ('A' for Active; 'I' for Inactive)
    1  A    between atoms: C_3  and  C_6
    2  A    between atoms: C_3  and  O_23
    3  A    between atoms: N_5  and  C_26
    4  A    between atoms: C_6  and  O_8
    5  A    between atoms: O_8  and  C_15
    6  A    between atoms: N_9  and  O_23
    7  A    between atoms: C_12  and  C_30
    8  A    between atoms: C_15  and  C_30
                            x       y       z     vdW  Elec       q    Type
                         _______ _______ _______ _____ _____    ______ ____

>  <TORSDO>
F 8

$$$$
=
 OpenBabel10222417593D

 33 36  0  0  1  0  0  0  0  0999 V2000
  182.9200  178.7560  142.2390 C   0  0  0  0  0  0  0  0  0  0  0  0
  180.8410  179.0310  141.8340 N   0  0  0  0  0  0  0  0  0  0  0  0
  182.0100  178.8010  141.2530 N   0  0  0  0  0  0  0  0  0  0  0  0
  184.4120  178.3630  144.6320 C   0  0  0  0  0  2  0  0  0  0  0  0
  184.3770  178.4550  142.0830 C   0  0  0  0  0  2  0  0  0  0  0  0
  180.9650  179.1270  143.1790 C   0  0  0  0  0  3  0  0  0  0  0  0
  182.3020  178.9240  143.4520 C   0  0  0  0  0  0  0  0  0  0  0  0
  185.1360  178.8470  143.3620 C   0  0  2  0  0  3  0  0  0  0  0  0
  183.0210  179.0010  144.7600 C   0  0  0  0  0  2  0  0  0  0  0  0
  190.2370  177.0690  140.3260 C   0  0  0  0  0  0  0  0  0  0  0  0
  189.1930  177.2950  143.2090 C   0  0  0  0  0  2  0  0  0  0  0  0
  189.7120  177.3920  137.8930 C   0  0  0  0  0  1  0  0  0  0  0  0
  186.4960  178.3260  143.3220 N   0  0  0  0  0  0  0  0  0  0  0  0
  191.9460  176.5090  138.5740 C   0  0  0  0  0  1  0  0  0  0  0  0
  186.6250  178.1070  146.1030 S   0  0  0  0  0  0  0  0  0  0  0  0
  188.0600  177.5150  146.7700 C   0  0  0  0  0  0  0  0  0  0  0  0
  188.3030  177.3340  148.2250 C   0  0  0  0  0  1  0  0  0  0  0  0
  187.1550  178.1460  142.0900 N   0  0  0  0  0  0  0  0  0  0  0  0
  188.9280  177.5480  140.6690 N   0  0  0  0  0  2  0  0  0  0  0  0
  187.1830  177.9880  144.5230 C   0  0  0  0  0  0  0  0  0  0  0  0
  190.6270  176.9920  138.9480 N   0  0  0  0  0  0  0  0  0  0  0  0
  188.3740  177.6830  141.9850 C   0  0  0  0  0  0  0  0  0  0  0  0
  188.4640  177.4970  144.4990 C   0  0  0  0  0  0  0  0  0  0  0  0
  191.0470  176.7150  141.2250 O   0  0  0  0  0  0  0  0  0  0  0  0
  188.9820  177.2200  145.7690 C   0  0  0  0  0  3  0  0  0  0  0  0
  179.6680  179.1580  141.1200 O   0  0  0  0  0  0  0  0  0  0  0  0
  179.6330  179.0090  139.7060 C   0  0  0  0  0  2  0  0  0  0  0  0
  179.2960  177.5740  139.3480 C   0  0  0  0  0  2  0  0  0  0  0  0
  180.3570  177.0000  138.6470 O   0  0  0  0  0  0  0  0  0  0  0  0
  180.7770  175.9400  139.4520 C   0  0  0  0  0  2  0  0  0  0  0  0
  182.2880  175.8150  139.3980 C   0  0  0  0  0  2  0  0  0  0  0  0
  182.8050  176.2780  138.0500 C   0  0  0  0  0  2  0  0  0  0  0  0
  183.9700  177.6470  138.2870 S   0  0  0  0  0  1  0  0  0  0  0  0
  1  7  1  0  0  0  0
  2  6  1  0  0  0  0
  3  2  1  0  0  0  0
  3  1  2  0  0  0  0
  4  9  1  0  0  0  0
  5  1  1  0  0  0  0
  6  7  2  0  0  0  0
  7  9  1  0  0  0  0
  8  5  1  6  0  0  0
  8  4  1  0  0  0  0
 10 19  1  0  0  0  0
 10 24  2  0  0  0  0
 11 23  1  0  0  0  0
 12 21  1  0  0  0  0
 13  8  1  0  0  0  0
 13 20  1  0  0  0  0
 14 21  1  0  0  0  0
 15 16  1  0  0  0  0
 16 17  1  0  0  0  0
 18 13  1  0  0  0  0
 19 22  1  0  0  0  0
 20 15  1  0  0  0  0
 21 10  1  0  0  0  0
 22 18  2  0  0  0  0
 22 11  1  0  0  0  0
 23 20  2  0  0  0  0
 23 25  1  0  0  0  0
 25 16  2  0  0  0  0
 26  2  1  0  0  0  0
 27 26  1  0  0  0  0
 28 27  1  0  0  0  0
 29 28  1  0  0  0  0
 29 30  1  0  0  0  0
 31 30  1  0  0  0  0
 32 33  1  0  0  0  0
 32 31  1  0  0  0  0
M  END
>  <MODEL>
7

>  <REMARK>
 VINA RESULT:      -7.7      3.307      9.267
  Name = 
  8 active torsions:
  status: ('A' for Active; 'I' for Inactive)
    1  A    between atoms: C_3  and  C_6
    2  A    between atoms: C_3  and  O_23
    3  A    between atoms: N_5  and  C_26
    4  A    between atoms: C_6  and  O_8
    5  A    between atoms: O_8  and  C_15
    6  A    between atoms: N_9  and  O_23
    7  A    between atoms: C_12  and  C_30
    8  A    between atoms: C_15  and  C_30
                            x       y       z     vdW  Elec       q    Type
                         _______ _______ _______ _____ _____    ______ ____

>  <TORSDO>
F 8

$$$$
=
 OpenBabel10222417593D

 33 36  0  0  1  0  0  0  0  0999 V2000
  189.6580  177.8900  142.9340 C   0  0  0  0  0  0  0  0  0  0  0  0
  191.0240  177.5990  144.5500 N   0  0  0  0  0  0  0  0  0  0  0  0
  189.8000  178.0190  144.2630 N   0  0  0  0  0  0  0  0  0  0  0  0
  189.6650  177.0940  140.2000 C   0  0  0  0  0  2  0  0  0  0  0  0
  188.4200  178.1760  142.1470 C   0  0  0  0  0  2  0  0  0  0  0  0
  191.6810  177.1860  143.4410 C   0  0  0  0  0  3  0  0  0  0  0  0
  190.7970  177.3460  142.3950 C   0  0  0  0  0  0  0  0  0  0  0  0
  188.7550  178.2530  140.6470 C   0  0  2  0  0  3  0  0  0  0  0  0
  191.0140  177.1290  140.9320 C   0  0  0  0  0  2  0  0  0  0  0  0
  182.6070  178.7840  140.0740 C   0  0  0  0  0  0  0  0  0  0  0  0
  185.0860  178.3180  138.3160 C   0  0  0  0  0  2  0  0  0  0  0  0
  181.7480  179.1380  142.4060 C   0  0  0  0  0  1  0  0  0  0  0  0
  187.5310  178.2730  139.8560 N   0  0  0  0  0  0  0  0  0  0  0  0
  180.1480  179.0700  140.4910 C   0  0  0  0  0  1  0  0  0  0  0  0
  188.9180  177.8350  137.4730 S   0  0  0  0  0  0  0  0  0  0  0  0
  188.0110  177.7450  136.0510 C   0  0  0  0  0  0  0  0  0  0  0  0
  188.5820  177.5180  134.6980 C   0  0  0  0  0  1  0  0  0  0  0  0
  186.2820  178.4730  140.4780 N   0  0  0  0  0  0  0  0  0  0  0  0
  183.9480  178.7140  140.5820 N   0  0  0  0  0  2  0  0  0  0  0  0
  187.5720  178.0900  138.4440 C   0  0  0  0  0  0  0  0  0  0  0  0
  181.5150  178.9950  140.9790 N   0  0  0  0  0  0  0  0  0  0  0  0
  185.1490  178.5020  139.8270 C   0  0  0  0  0  0  0  0  0  0  0  0
  186.4270  178.1070  137.6880 C   0  0  0  0  0  0  0  0  0  0  0  0
  182.3810  178.6610  138.8400 O   0  0  0  0  0  0  0  0  0  0  0  0
  186.6550  177.9110  136.3220 C   0  0  0  0  0  3  0  0  0  0  0  0
  191.5290  177.6040  145.8340 O   0  0  0  0  0  0  0  0  0  0  0  0
  191.0210  176.7380  146.8410 C   0  0  0  0  0  2  0  0  0  0  0  0
  189.8980  177.4280  147.5920 C   0  0  0  0  0  2  0  0  0  0  0  0
  188.6880  176.7830  147.3300 O   0  0  0  0  0  0  0  0  0  0  0  0
  187.7510  177.8150  147.2510 C   0  0  0  0  0  2  0  0  0  0  0  0
  186.7280  177.5040  146.1740 C   0  0  0  0  0  2  0  0  0  0  0  0
  185.8270  178.7020  145.9450 C   0  0  0  0  0  2  0  0  0  0  0  0
  185.1410  178.6300  144.2690 S   0  0  0  0  0  1  0  0  0  0  0  0
  1  3  2  0  0  0  0
  2 26  1  0  0  0  0
  3  2  1  0  0  0  0
  4  8  1  0  0  0  0
  4  9  1  0  0  0  0
  5  1  1  0  0  0  0
  6  2  1  0  0  0  0
  7  1  1  0  0  0  0
  7  6  2  0  0  0  0
  8 13  1  6  0  0  0
  8  5  1  0  0  0  0
  9  7  1  0  0  0  0
 10 19  1  0  0  0  0
 10 21  1  0  0  0  0
 11 22  1  0  0  0  0
 13 18  1  0  0  0  0
 14 21  1  0  0  0  0
 15 20  1  0  0  0  0
 16 25  2  0  0  0  0
 16 15  1  0  0  0  0
 17 16  1  0  0  0  0
 20 13  1  0  0  0  0
 21 12  1  0  0  0  0
 22 18  2  0  0  0  0
 22 19  1  0  0  0  0
 23 11  1  0  0  0  0
 23 20  2  0  0  0  0
 24 10  2  0  0  0  0
 25 23  1  0  0  0  0
 26 27  1  0  0  0  0
 27 28  1  0  0  0  0
 29 28  1  0  0  0  0
 30 29  1  0  0  0  0
 31 30  1  0  0  0  0
 32 31  1  0  0  0  0
 33 32  1  0  0  0  0
M  END
>  <MODEL>
8

>  <REMARK>
 VINA RESULT:      -7.7      4.022      7.720
  Name = 
  8 active torsions:
  status: ('A' for Active; 'I' for Inactive)
    1  A    between atoms: C_3  and  C_6
    2  A    between atoms: C_3  and  O_23
    3  A    between atoms: N_5  and  C_26
    4  A    between atoms: C_6  and  O_8
    5  A    between atoms: O_8  and  C_15
    6  A    between atoms: N_9  and  O_23
    7  A    between atoms: C_12  and  C_30
    8  A    between atoms: C_15  and  C_30
                            x       y       z     vdW  Elec       q    Type
                         _______ _______ _______ _____ _____    ______ ____

>  <TORSDO>
F 8

$$$$
=
 OpenBabel10222417593D

 33 36  0  0  1  0  0  0  0  0999 V2000
  183.8540  178.7660  142.9290 C   0  0  0  0  0  0  0  0  0  0  0  0
  184.8680  178.8030  144.8090 N   0  0  0  0  0  0  0  0  0  0  0  0
  185.0640  178.6830  143.5030 N   0  0  0  0  0  0  0  0  0  0  0  0
  181.1890  179.3750  142.1320 C   0  0  0  0  0  2  0  0  0  0  0  0
  183.5700  178.7520  141.4610 C   0  0  0  0  0  2  0  0  0  0  0  0
  183.5560  178.9740  145.1000 C   0  0  0  0  0  3  0  0  0  0  0  0
  182.8970  178.9780  143.8890 C   0  0  0  0  0  0  0  0  0  0  0  0
  182.0710  178.5070  141.2160 C   0  0  2  0  0  3  0  0  0  0  0  0
  181.4290  179.0490  143.6130 C   0  0  0  0  0  2  0  0  0  0  0  0
  180.8050  182.2540  136.4450 C   0  0  0  0  0  0  0  0  0  0  0  0
  181.0900  179.2520  137.0480 C   0  0  0  0  0  2  0  0  0  0  0  0
  180.8770  184.5790  137.3860 C   0  0  0  0  0  1  0  0  0  0  0  0
  181.7420  178.7450  139.8170 N   0  0  0  0  0  0  0  0  0  0  0  0
  180.3630  184.2340  134.9670 C   0  0  0  0  0  1  0  0  0  0  0  0
  181.7430  176.0170  139.2240 S   0  0  0  0  0  0  0  0  0  0  0  0
  181.4050  175.5670  137.6310 C   0  0  0  0  0  0  0  0  0  0  0  0
  181.3640  174.1660  137.1400 C   0  0  0  0  0  1  0  0  0  0  0  0
  181.5680  180.0590  139.3390 N   0  0  0  0  0  0  0  0  0  0  0  0
  181.1220  181.7230  137.7410 N   0  0  0  0  0  2  0  0  0  0  0  0
  181.5900  177.6590  138.9080 C   0  0  0  0  0  0  0  0  0  0  0  0
  180.6840  183.6720  136.2690 N   0  0  0  0  0  0  0  0  0  0  0  0
  181.2720  180.3410  138.0970 C   0  0  0  0  0  0  0  0  0  0  0  0
  181.2810  177.8700  137.5880 C   0  0  0  0  0  0  0  0  0  0  0  0
  180.6320  181.4840  135.4620 O   0  0  0  0  0  0  0  0  0  0  0  0
  181.1700  176.6920  136.8430 C   0  0  0  0  0  3  0  0  0  0  0  0
  185.8980  178.7470  145.7240 O   0  0  0  0  0  0  0  0  0  0  0  0
  186.4220  177.5080  146.1860 C   0  0  0  0  0  2  0  0  0  0  0  0
  187.9380  177.5620  146.1920 C   0  0  0  0  0  2  0  0  0  0  0  0
  188.4210  177.1260  147.4260 O   0  0  0  0  0  0  0  0  0  0  0  0
  189.8050  177.2840  147.3360 C   0  0  0  0  0  2  0  0  0  0  0  0
  190.2500  177.1310  145.8930 C   0  0  0  0  0  2  0  0  0  0  0  0
  191.6800  176.6310  145.8360 C   0  0  0  0  0  2  0  0  0  0  0  0
  192.0530  175.6890  147.3400 S   0  0  0  0  0  1  0  0  0  0  0  0
  1  3  2  0  0  0  0
  1  7  1  0  0  0  0
  2  6  1  0  0  0  0
  2 26  1  0  0  0  0
  3  2  1  0  0  0  0
  4  9  1  0  0  0  0
  5  1  1  0  0  0  0
  7  6  2  0  0  0  0
  8 13  1  6  0  0  0
  8  5  1  0  0  0  0
  8  4  1  0  0  0  0
  9  7  1  0  0  0  0
 10 19  1  0  0  0  0
 11 23  1  0  0  0  0
 11 22  1  0  0  0  0
 14 21  1  0  0  0  0
 16 15  1  0  0  0  0
 17 16  1  0  0  0  0
 18 13  1  0  0  0  0
 19 22  1  0  0  0  0
 20 15  1  0  0  0  0
 20 13  1  0  0  0  0
 21 10  1  0  0  0  0
 21 12  1  0  0  0  0
 22 18  2  0  0  0  0
 23 20  2  0  0  0  0
 24 10  2  0  0  0  0
 25 23  1  0  0  0  0
 25 16  2  0  0  0  0
 26 27  1  0  0  0  0
 27 28  1  0  0  0  0
 28 29  1  0  0  0  0
 30 29  1  0  0  0  0
 31 30  1  0  0  0  0
 32 31  1  0  0  0  0
 32 33  1  0  0  0  0
M  END
>  <MODEL>
9

>  <REMARK>
 VINA RESULT:      -7.6      5.592      9.278
  Name = 
  8 active torsions:
  status: ('A' for Active; 'I' for Inactive)
    1  A    between atoms: C_3  and  C_6
    2  A    between atoms: C_3  and  O_23
    3  A    between atoms: N_5  and  C_26
    4  A    between atoms: C_6  and  O_8
    5  A    between atoms: O_8  and  C_15
    6  A    between atoms: N_9  and  O_23
    7  A    between atoms: C_12  and  C_30
    8  A    between atoms: C_15  and  C_30
                            x       y       z     vdW  Elec       q    Type
                         _______ _______ _______ _____ _____    ______ ____

>  <TORSDO>
F 8

$$$$
