=
 OpenBabel10222418323D

 65 71  0  0  1  0  0  0  0  0999 V2000
  190.7330  177.1200  146.6080 C   0  0  0  0  0  3  0  0  0  0  0  0
  189.3170  177.4850  144.7470 C   0  0  0  0  0  0  0  0  0  0  0  0
  188.1630  177.2490  146.8760 C   0  0  0  0  0  0  0  0  0  0  0  0
  188.2110  177.0230  148.2450 O   0  0  0  0  0  1  0  0  0  0  0  0
  190.6780  177.4970  144.1480 C   0  0  1  0  0  3  0  0  0  0  0  0
  189.3490  177.2770  146.1090 C   0  0  0  0  0  0  0  0  0  0  0  0
  186.9290  177.6860  144.8560 C   0  0  0  0  0  0  0  0  0  0  0  0
  186.5240  178.0710  142.7530 C   0  0  0  0  0  0  0  0  0  0  0  0
  187.8340  177.9330  142.8690 O   0  0  0  0  0  0  0  0  0  0  0  0
  186.9220  177.4580  146.2370 C   0  0  0  0  0  3  0  0  0  0  0  0
  185.8830  177.9220  143.9920 C   0  0  0  0  0  3  0  0  0  0  0  0
  188.0880  177.7010  144.1290 C   0  0  0  0  0  0  0  0  0  0  0  0
  191.6080  177.3590  145.3680 C   0  0  0  0  0  3  0  0  0  0  0  0
  185.8480  178.3150  141.4330 C   0  0  2  0  0  3  0  0  0  0  0  0
  186.8840  178.4940  140.3340 C   0  0  0  0  0  1  0  0  0  0  0  0
  184.9170  179.5240  141.4560 C   0  0  0  0  0  2  0  0  0  0  0  0
  183.2850  179.5940  139.5490 C   0  0  0  0  0  0  0  0  0  0  0  0
  183.6170  179.1700  140.8800 N   0  0  0  0  0  0  0  0  0  0  0  0
  182.0770  179.1380  138.9350 N   0  0  0  0  0  2  0  0  0  0  0  0
  184.0580  180.3670  138.9170 O   0  0  0  0  0  0  0  0  0  0  0  0
  182.9060  176.5680  137.4720 C   0  0  0  0  0  2  0  0  0  0  0  0
  181.9610  178.5260  136.5230 C   0  0  0  0  0  2  0  0  0  0  0  0
  182.7760  175.0690  137.7890 C   0  0  1  0  0  3  0  0  0  0  0  0
  180.2540  175.3930  137.9350 C   0  0  1  0  0  3  0  0  0  0  0  0
  181.6390  179.5670  137.6100 C   0  0  1  0  0  3  0  0  0  0  0  0
  181.6940  177.1130  136.8550 N   0  0  2  0  0  0  0  0  0  0  0  0
  179.2060  178.9220  138.1180 C   0  0  0  0  0  2  0  0  0  0  0  0
  180.5570  176.8870  137.7700 C   0  0  1  0  0  3  0  0  0  0  0  0
  180.1650  179.9860  137.5850 C   0  0  0  0  0  2  0  0  0  0  0  0
  179.3010  177.6240  137.3360 C   0  0  0  0  0  2  0  0  0  0  0  0
  181.2560  173.1940  137.8730 O   0  0  0  0  0  1  0  0  0  0  0  0
  181.3970  174.5050  137.4110 C   0  0  2  0  0  3  0  0  0  0  0  0
  179.9990  175.1260  139.2840 O   0  0  0  0  0  1  0  0  0  0  0  0
  183.8720  174.3030  137.1190 C   0  0  0  0  0  0  0  0  0  0  0  0
  185.8330  172.7250  137.2780 C   0  0  0  0  0  1  0  0  0  0  0  0
  184.7480  173.4760  137.8900 N   0  0  0  0  0  2  0  0  0  0  0  0
  184.0350  174.4200  135.8750 O   0  0  0  0  0  0  0  0  0  0  0  0
  182.3470  178.6280  142.8740 C   0  0  0  0  0  2  0  0  0  0  0  0
  182.6720  178.3720  141.6120 C   0  0  0  0  0  3  0  0  0  0  0  0
  191.7730  175.3990  143.7060 O   0  0  0  0  0  1  0  0  0  0  0  0
  190.9200  176.3530  143.1510 C   0  0  2  0  0  3  0  0  0  0  0  0
  191.4580  176.8290  141.8040 C   0  0  0  0  0  2  0  0  0  0  0  0
  190.3730  176.7840  140.7400 C   0  0  0  0  0  2  0  0  0  0  0  0
  190.9530  176.8870  139.3280 C   0  0  0  0  0  2  0  0  0  0  0  0
  189.9350  177.2680  138.2510 C   0  0  2  0  0  3  0  0  0  0  0  0
  188.6440  176.4850  138.4050 C   0  0  0  0  0  1  0  0  0  0  0  0
  190.4840  177.0910  136.9150 N   0  0  0  0  0  2  0  0  0  0  0  0
  191.7940  172.0020  135.0190 C   0  0  0  0  0  1  0  0  0  0  0  0
  188.7990  175.6960  135.3800 F   0  0  0  0  0  0  0  0  0  0  0  0
  190.7830  175.6770  136.7460 C   0  0  2  0  0  3  0  0  0  0  0  0
  191.8690  175.5110  135.8640 O   0  0  0  0  0  0  0  0  0  0  0  0
  189.5560  174.9110  136.2320 C   0  0  2  0  0  3  0  0  0  0  0  0
  189.9690  173.6380  135.4870 C   0  0  1  0  0  3  0  0  0  0  0  0
  191.3240  173.0960  135.9570 C   0  0  2  0  0  3  0  0  0  0  0  0
  188.9800  172.6660  135.6410 O   0  0  0  0  0  1  0  0  0  0  0  0
  192.4000  174.2070  136.0490 C   0  0  2  0  0  3  0  0  0  0  0  0
  196.8100  174.5590  137.3340 C   0  0  0  0  0  1  0  0  0  0  0  0
  194.8710  172.6260  136.1190 C   0  0  0  0  0  2  0  0  0  0  0  0
  194.0590  172.9370  137.3870 C   0  0  0  0  0  2  0  0  0  0  0  0
  196.8290  175.8280  135.2390 C   0  0  0  0  0  1  0  0  0  0  0  0
  195.4210  173.8250  135.3350 C   0  0  0  0  0  2  0  0  0  0  0  0
  193.1640  174.1000  137.3110 N   0  0  1  0  0  0  0  0  0  0  0  0
  195.9500  175.0020  136.1550 C   0  0  0  0  0  0  0  0  0  0  0  0
  194.7900  175.8950  136.5920 C   0  0  0  0  0  2  0  0  0  0  0  0
  193.9030  175.3100  137.6980 C   0  0  0  0  0  2  0  0  0  0  0  0
  2  6  1  0  0  0  0
  3  4  1  0  0  0  0
  5 41  1  6  0  0  0
  5  2  1  0  0  0  0
  5 13  1  0  0  0  0
  6  1  1  0  0  0  0
  6  3  2  0  0  0  0
  7 10  2  0  0  0  0
  8  9  1  0  0  0  0
  8 11  2  0  0  0  0
  9 12  1  0  0  0  0
 10  3  1  0  0  0  0
 11  7  1  0  0  0  0
 12  2  2  0  0  0  0
 12  7  1  0  0  0  0
 13  1  2  0  0  0  0
 14 15  1  6  0  0  0
 14 16  1  0  0  0  0
 14  8  1  0  0  0  0
 17 18  1  0  0  0  0
 18 16  1  0  0  0  0
 18 39  1  0  0  0  0
 19 17  1  0  0  0  0
 20 17  2  0  0  0  0
 21 23  1  0  0  0  0
 22 25  1  0  0  0  0
 23 34  1  6  0  0  0
 24 33  1  1  0  0  0
 25 19  1  1  0  0  0
 26 22  1  1  0  0  0
 26 21  1  0  0  0  0
 26 28  1  0  0  0  0
 28 30  1  6  0  0  0
 28 24  1  0  0  0  0
 29 25  1  0  0  0  0
 29 27  1  0  0  0  0
 30 27  1  0  0  0  0
 32 23  1  0  0  0  0
 32 31  1  1  0  0  0
 32 24  1  0  0  0  0
 34 36  1  0  0  0  0
 35 36  1  0  0  0  0
 37 34  2  0  0  0  0
 39 38  2  0  0  0  0
 41 40  1  1  0  0  0
 42 41  1  0  0  0  0
 43 42  1  0  0  0  0
 44 43  1  0  0  0  0
 45 46  1  6  0  0  0
 45 44  1  0  0  0  0
 47 45  1  0  0  0  0
 50 47  1  6  0  0  0
 51 50  1  0  0  0  0
 52 49  1  6  0  0  0
 52 50  1  0  0  0  0
 53 55  1  1  0  0  0
 53 54  1  0  0  0  0
 53 52  1  0  0  0  0
 54 48  1  6  0  0  0
 54 56  1  0  0  0  0
 56 51  1  1  0  0  0
 56 62  1  0  0  0  0
 58 59  1  0  0  0  0
 60 63  1  0  0  0  0
 61 58  1  0  0  0  0
 61 63  1  0  0  0  0
 62 59  1  6  0  0  0
 62 65  1  0  0  0  0
 63 64  1  0  0  0  0
 63 57  1  0  0  0  0
 64 65  1  0  0  0  0
M  END
>  <MODEL>
1

>  <REMARK>
 VINA RESULT:      -8.8      0.000      0.000
  Name = 
  14 active torsions:
  status: ('A' for Active; 'I' for Inactive)
    1  A    between atoms: C_3  and  C_17
    2  A    between atoms: N_11  and  C_24
    3  A    between atoms: N_11  and  C_50
    4  A    between atoms: N_13  and  C_43
    5  A    between atoms: N_19  and  C_65
    6  A    between atoms: C_23  and  C_31
    7  A    between atoms: C_23  and  C_36
    8  A    between atoms: C_24  and  C_25
    9  A    between atoms: C_25  and  C_42
   10  A    between atoms: C_28  and  N_45
   11  A    between atoms: C_29  and  C_35
   12  A    between atoms: C_29  and  C_36
   13  A    between atoms: C_31  and  C_32
   14  A    between atoms: C_35  and  N_45
                            x       y       z     vdW  Elec       q    Type
                         _______ _______ _______ _____ _____    ______ ____

>  <TORSDO>
F 14

$$$$
=
 OpenBabel10222418323D

 65 71  0  0  1  0  0  0  0  0999 V2000
  190.7470  176.9700  147.2660 C   0  0  0  0  0  3  0  0  0  0  0  0
  189.4080  177.3430  145.3510 C   0  0  0  0  0  0  0  0  0  0  0  0
  188.1800  177.2270  147.4480 C   0  0  0  0  0  0  0  0  0  0  0  0
  188.1750  177.0410  148.8240 O   0  0  0  0  0  1  0  0  0  0  0  0
  190.7860  177.2730  144.7960 C   0  0  1  0  0  3  0  0  0  0  0  0
  189.3880  177.1760  146.7190 C   0  0  0  0  0  0  0  0  0  0  0  0
  187.0290  177.6580  145.3780 C   0  0  0  0  0  0  0  0  0  0  0  0
  186.7080  177.9970  143.2530 C   0  0  0  0  0  0  0  0  0  0  0  0
  188.0050  177.8010  143.4150 O   0  0  0  0  0  0  0  0  0  0  0  0
  186.9700  177.4740  146.7640 C   0  0  0  0  0  3  0  0  0  0  0  0
  186.0230  177.9160  144.4740 C   0  0  0  0  0  3  0  0  0  0  0  0
  188.2100  177.5970  144.6880 C   0  0  0  0  0  0  0  0  0  0  0  0
  191.6710  177.1300  146.0490 C   0  0  0  0  0  3  0  0  0  0  0  0
  186.0850  178.2310  141.9050 C   0  0  2  0  0  3  0  0  0  0  0  0
  187.1510  178.6110  140.8890 C   0  0  0  0  0  1  0  0  0  0  0  0
  185.0000  179.3040  141.9290 C   0  0  0  0  0  2  0  0  0  0  0  0
  182.5650  178.7680  141.6300 C   0  0  0  0  0  0  0  0  0  0  0  0
  183.8810  178.9090  141.0710 N   0  0  0  0  0  0  0  0  0  0  0  0
  181.4490  178.5140  140.7730 N   0  0  0  0  0  2  0  0  0  0  0  0
  182.3910  178.8690  142.8760 O   0  0  0  0  0  0  0  0  0  0  0  0
  180.0880  180.4600  138.8250 C   0  0  0  0  0  2  0  0  0  0  0  0
  179.0640  179.1980  140.5540 C   0  0  0  0  0  2  0  0  0  0  0  0
  180.2380  180.7460  137.3210 C   0  0  1  0  0  3  0  0  0  0  0  0
  179.6860  178.3000  136.8750 C   0  0  1  0  0  3  0  0  0  0  0  0
  180.0920  178.3020  141.2660 C   0  0  1  0  0  3  0  0  0  0  0  0
  179.1960  179.3280  139.0890 N   0  0  2  0  0  0  0  0  0  0  0  0
  179.8360  176.1600  139.8720 C   0  0  0  0  0  2  0  0  0  0  0  0
  179.7300  178.1360  138.3990 C   0  0  1  0  0  3  0  0  0  0  0  0
  179.6810  176.8250  141.2390 C   0  0  0  0  0  2  0  0  0  0  0  0
  179.0150  176.8570  138.8020 C   0  0  0  0  0  2  0  0  0  0  0  0
  179.7420  179.9390  135.1000 O   0  0  0  0  0  1  0  0  0  0  0  0
  179.4420  179.7600  136.4520 C   0  0  2  0  0  3  0  0  0  0  0  0
  180.8820  177.8210  136.3310 O   0  0  0  0  0  1  0  0  0  0  0  0
  179.8500  182.1590  137.0240 C   0  0  0  0  0  0  0  0  0  0  0  0
  180.0040  184.6170  137.5700 C   0  0  0  0  0  1  0  0  0  0  0  0
  180.3660  183.2300  137.8190 N   0  0  0  0  0  2  0  0  0  0  0  0
  179.0400  182.3920  136.0870 O   0  0  0  0  0  0  0  0  0  0  0  0
  184.0810  179.6820  138.7810 C   0  0  0  0  0  2  0  0  0  0  0  0
  184.0660  178.6890  139.6620 C   0  0  0  0  0  3  0  0  0  0  0  0
  191.7680  175.1010  144.4610 O   0  0  0  0  0  1  0  0  0  0  0  0
  191.0030  176.0890  143.8410 C   0  0  2  0  0  3  0  0  0  0  0  0
  191.6330  176.4930  142.5100 C   0  0  0  0  0  2  0  0  0  0  0  0
  190.6980  177.3960  141.7210 C   0  0  0  0  0  2  0  0  0  0  0  0
  190.2040  176.7240  140.4380 C   0  0  0  0  0  2  0  0  0  0  0  0
  191.2180  176.7210  139.2930 C   0  0  2  0  0  3  0  0  0  0  0  0
  192.5000  177.4340  139.6850 C   0  0  0  0  0  1  0  0  0  0  0  0
  190.6570  177.3070  138.0840 N   0  0  0  0  0  2  0  0  0  0  0  0
  188.6080  172.5600  135.9660 C   0  0  0  0  0  1  0  0  0  0  0  0
  191.9570  174.9860  138.3430 F   0  0  0  0  0  0  0  0  0  0  0  0
  190.2050  176.2140  137.2360 C   0  0  2  0  0  3  0  0  0  0  0  0
  188.9900  175.6930  137.7210 O   0  0  0  0  0  0  0  0  0  0  0  0
  191.2640  175.1070  137.1500 C   0  0  2  0  0  3  0  0  0  0  0  0
  190.6280  173.7550  136.8150 C   0  0  1  0  0  3  0  0  0  0  0  0
  189.3130  173.9010  136.0410 C   0  0  2  0  0  3  0  0  0  0  0  0
  191.5340  172.9810  136.0890 O   0  0  0  0  0  1  0  0  0  0  0  0
  188.3720  174.9540  136.6760 C   0  0  2  0  0  3  0  0  0  0  0  0
  184.1670  176.3810  135.4470 C   0  0  0  0  0  1  0  0  0  0  0  0
  186.0400  174.0640  135.1320 C   0  0  0  0  0  2  0  0  0  0  0  0
  186.9980  175.1530  134.6210 C   0  0  0  0  0  2  0  0  0  0  0  0
  183.7780  175.7270  137.7760 C   0  0  0  0  0  1  0  0  0  0  0  0
  185.3120  174.3460  136.4540 C   0  0  0  0  0  2  0  0  0  0  0  0
  187.7970  175.8420  135.6430 N   0  0  1  0  0  0  0  0  0  0  0  0
  184.8260  175.7780  136.6840 C   0  0  0  0  0  0  0  0  0  0  0  0
  185.9760  176.6400  137.2020 C   0  0  0  0  0  2  0  0  0  0  0  0
  187.0420  176.9940  136.1580 C   0  0  0  0  0  2  0  0  0  0  0  0
  2  6  1  0  0  0  0
  3  4  1  0  0  0  0
  5 41  1  6  0  0  0
  5  2  1  0  0  0  0
  5 13  1  0  0  0  0
  6  1  1  0  0  0  0
  6  3  2  0  0  0  0
  7 10  2  0  0  0  0
  8  9  1  0  0  0  0
  8 11  2  0  0  0  0
  9 12  1  0  0  0  0
 10  3  1  0  0  0  0
 11  7  1  0  0  0  0
 12  2  2  0  0  0  0
 12  7  1  0  0  0  0
 13  1  2  0  0  0  0
 14 15  1  6  0  0  0
 14 16  1  0  0  0  0
 14  8  1  0  0  0  0
 17 20  2  0  0  0  0
 18 17  1  0  0  0  0
 18 16  1  0  0  0  0
 19 17  1  0  0  0  0
 22 25  1  0  0  0  0
 23 34  1  1  0  0  0
 23 21  1  0  0  0  0
 24 33  1  6  0  0  0
 24 28  1  0  0  0  0
 25 19  1  6  0  0  0
 26 21  1  1  0  0  0
 26 22  1  0  0  0  0
 27 29  1  0  0  0  0
 28 30  1  6  0  0  0
 28 26  1  0  0  0  0
 29 25  1  0  0  0  0
 30 27  1  0  0  0  0
 32 31  1  6  0  0  0
 32 24  1  0  0  0  0
 32 23  1  0  0  0  0
 34 36  1  0  0  0  0
 35 36  1  0  0  0  0
 37 34  2  0  0  0  0
 38 39  2  0  0  0  0
 39 18  1  0  0  0  0
 41 40  1  1  0  0  0
 42 41  1  0  0  0  0
 43 42  1  0  0  0  0
 44 43  1  0  0  0  0
 45 46  1  1  0  0  0
 45 44  1  0  0  0  0
 47 45  1  0  0  0  0
 50 51  1  0  0  0  0
 50 47  1  1  0  0  0
 52 50  1  0  0  0  0
 52 49  1  1  0  0  0
 53 55  1  6  0  0  0
 53 52  1  0  0  0  0
 54 48  1  1  0  0  0
 54 56  1  0  0  0  0
 54 53  1  0  0  0  0
 56 51  1  1  0  0  0
 57 63  1  0  0  0  0
 58 61  1  0  0  0  0
 59 58  1  0  0  0  0
 61 63  1  0  0  0  0
 62 59  1  6  0  0  0
 62 65  1  0  0  0  0
 62 56  1  0  0  0  0
 63 64  1  0  0  0  0
 63 60  1  0  0  0  0
 65 64  1  0  0  0  0
M  END
>  <MODEL>
2

>  <REMARK>
 VINA RESULT:      -8.4      2.499      5.236
  Name = 
  14 active torsions:
  status: ('A' for Active; 'I' for Inactive)
    1  A    between atoms: C_3  and  C_17
    2  A    between atoms: N_11  and  C_24
    3  A    between atoms: N_11  and  C_50
    4  A    between atoms: N_13  and  C_43
    5  A    between atoms: N_19  and  C_65
    6  A    between atoms: C_23  and  C_31
    7  A    between atoms: C_23  and  C_36
    8  A    between atoms: C_24  and  C_25
    9  A    between atoms: C_25  and  C_42
   10  A    between atoms: C_28  and  N_45
   11  A    between atoms: C_29  and  C_35
   12  A    between atoms: C_29  and  C_36
   13  A    between atoms: C_31  and  C_32
   14  A    between atoms: C_35  and  N_45
                            x       y       z     vdW  Elec       q    Type
                         _______ _______ _______ _____ _____    ______ ____

>  <TORSDO>
F 14

$$$$
=
 OpenBabel10222418323D

 65 71  0  0  1  0  0  0  0  0999 V2000
  190.7700  176.9520  147.2690 C   0  0  0  0  0  3  0  0  0  0  0  0
  189.4180  177.3700  145.3730 C   0  0  0  0  0  0  0  0  0  0  0  0
  188.2060  177.2230  147.4790 C   0  0  0  0  0  0  0  0  0  0  0  0
  188.2120  177.0120  148.8510 O   0  0  0  0  0  1  0  0  0  0  0  0
  190.7900  177.3010  144.8050 C   0  0  1  0  0  3  0  0  0  0  0  0
  189.4080  177.1770  146.7380 C   0  0  0  0  0  0  0  0  0  0  0  0
  187.0420  177.7020  145.4270 C   0  0  0  0  0  0  0  0  0  0  0  0
  186.7050  178.0820  143.3110 C   0  0  0  0  0  0  0  0  0  0  0  0
  188.0020  177.8740  143.4580 O   0  0  0  0  0  0  0  0  0  0  0  0
  186.9920  177.4920  146.8100 C   0  0  0  0  0  3  0  0  0  0  0  0
  186.0290  177.9840  144.5360 C   0  0  0  0  0  3  0  0  0  0  0  0
  188.2160  177.6450  144.7250 C   0  0  0  0  0  0  0  0  0  0  0  0
  191.6840  177.1270  146.0470 C   0  0  0  0  0  3  0  0  0  0  0  0
  186.0720  178.3460  141.9730 C   0  0  2  0  0  3  0  0  0  0  0  0
  187.0770  178.9890  141.0310 C   0  0  0  0  0  1  0  0  0  0  0  0
  184.8280  179.2250  142.0670 C   0  0  0  0  0  2  0  0  0  0  0  0
  182.4600  178.6270  141.4840 C   0  0  0  0  0  0  0  0  0  0  0  0
  183.8300  178.7930  141.0850 N   0  0  0  0  0  0  0  0  0  0  0  0
  181.4620  178.3360  140.5020 N   0  0  0  0  0  2  0  0  0  0  0  0
  182.1340  178.7390  142.6980 O   0  0  0  0  0  0  0  0  0  0  0  0
  180.3490  180.7390  138.9450 C   0  0  0  0  0  2  0  0  0  0  0  0
  179.1320  179.1860  140.2630 C   0  0  0  0  0  2  0  0  0  0  0  0
  180.6390  181.3410  137.5600 C   0  0  1  0  0  3  0  0  0  0  0  0
  180.0340  179.0890  136.5340 C   0  0  1  0  0  3  0  0  0  0  0  0
  180.0600  178.0970  140.8310 C   0  0  1  0  0  3  0  0  0  0  0  0
  179.3950  179.6280  138.8790 N   0  0  2  0  0  0  0  0  0  0  0  0
  179.8440  176.3340  138.9750 C   0  0  0  0  0  2  0  0  0  0  0  0
  179.9400  178.5910  137.9810 C   0  0  1  0  0  3  0  0  0  0  0  0
  179.5970  176.6880  140.4410 C   0  0  0  0  0  2  0  0  0  0  0  0
  179.1450  177.2970  138.0310 C   0  0  0  0  0  2  0  0  0  0  0  0
  180.3060  181.0750  135.1830 O   0  0  0  0  0  1  0  0  0  0  0  0
  179.8840  180.6180  136.4340 C   0  0  2  0  0  3  0  0  0  0  0  0
  181.2540  178.6760  135.9880 O   0  0  0  0  0  1  0  0  0  0  0  0
  180.3330  182.8050  137.5600 C   0  0  0  0  0  0  0  0  0  0  0  0
  178.9880  184.7440  138.4480 C   0  0  0  0  0  1  0  0  0  0  0  0
  179.3230  183.3290  138.4270 N   0  0  0  0  0  2  0  0  0  0  0  0
  180.9510  183.5640  136.7660 O   0  0  0  0  0  0  0  0  0  0  0  0
  184.1190  179.5100  138.7870 C   0  0  0  0  0  2  0  0  0  0  0  0
  184.1890  178.5610  139.7130 C   0  0  0  0  0  3  0  0  0  0  0  0
  191.6810  175.0930  144.4490 O   0  0  0  0  0  1  0  0  0  0  0  0
  190.9900  176.1330  143.8260 C   0  0  2  0  0  3  0  0  0  0  0  0
  191.6950  176.5420  142.5350 C   0  0  0  0  0  2  0  0  0  0  0  0
  190.8940  177.5990  141.7920 C   0  0  0  0  0  2  0  0  0  0  0  0
  191.1360  177.5420  140.2820 C   0  0  0  0  0  2  0  0  0  0  0  0
  189.8640  177.6040  139.4340 C   0  0  2  0  0  3  0  0  0  0  0  0
  188.9840  176.3880  139.6620 C   0  0  0  0  0  1  0  0  0  0  0  0
  190.1750  177.7520  138.0190 N   0  0  0  0  0  2  0  0  0  0  0  0
  190.0850  173.3390  134.5940 C   0  0  0  0  0  1  0  0  0  0  0  0
  188.0760  177.2500  136.4440 F   0  0  0  0  0  0  0  0  0  0  0  0
  190.1210  176.4280  137.4170 C   0  0  2  0  0  3  0  0  0  0  0  0
  191.0510  176.3350  136.3630 O   0  0  0  0  0  0  0  0  0  0  0  0
  188.7070  176.1090  136.9110 C   0  0  2  0  0  3  0  0  0  0  0  0
  188.7420  175.0730  135.7840 C   0  0  1  0  0  3  0  0  0  0  0  0
  189.9720  174.1620  135.8630 C   0  0  2  0  0  3  0  0  0  0  0  0
  187.5730  174.3110  135.8160 O   0  0  0  0  0  1  0  0  0  0  0  0
  191.2800  174.9600  136.0890 C   0  0  2  0  0  3  0  0  0  0  0  0
  195.7790  174.3540  136.8740 C   0  0  0  0  0  1  0  0  0  0  0  0
  193.4990  173.2070  135.3060 C   0  0  0  0  0  2  0  0  0  0  0  0
  192.8370  173.1250  136.6910 C   0  0  0  0  0  2  0  0  0  0  0  0
  195.8220  176.2840  135.3650 C   0  0  0  0  0  1  0  0  0  0  0  0
  194.1530  174.5430  134.9270 C   0  0  0  0  0  2  0  0  0  0  0  0
  192.1130  174.3250  137.1330 N   0  0  1  0  0  0  0  0  0  0  0  0
  194.9050  175.2820  136.0350 C   0  0  0  0  0  0  0  0  0  0  0  0
  193.9200  176.0750  136.8920 C   0  0  0  0  0  2  0  0  0  0  0  0
  193.0440  175.2290  137.8240 C   0  0  0  0  0  2  0  0  0  0  0  0
  2  6  1  0  0  0  0
  3  4  1  0  0  0  0
  5 41  1  6  0  0  0
  5  2  1  0  0  0  0
  5 13  1  0  0  0  0
  6  1  1  0  0  0  0
  6  3  2  0  0  0  0
  7 10  2  0  0  0  0
  8  9  1  0  0  0  0
  8 11  2  0  0  0  0
  9 12  1  0  0  0  0
 10  3  1  0  0  0  0
 11  7  1  0  0  0  0
 12  2  2  0  0  0  0
 12  7  1  0  0  0  0
 13  1  2  0  0  0  0
 14 15  1  6  0  0  0
 14 16  1  0  0  0  0
 14  8  1  0  0  0  0
 17 20  2  0  0  0  0
 18 17  1  0  0  0  0
 18 16  1  0  0  0  0
 19 17  1  0  0  0  0
 22 25  1  0  0  0  0
 23 34  1  1  0  0  0
 23 21  1  0  0  0  0
 24 33  1  1  0  0  0
 24 28  1  0  0  0  0
 25 19  1  6  0  0  0
 26 21  1  1  0  0  0
 26 22  1  0  0  0  0
 27 29  1  0  0  0  0
 28 30  1  6  0  0  0
 28 26  1  0  0  0  0
 29 25  1  0  0  0  0
 30 27  1  0  0  0  0
 32 31  1  6  0  0  0
 32 24  1  0  0  0  0
 32 23  1  0  0  0  0
 34 36  1  0  0  0  0
 36 35  1  0  0  0  0
 37 34  2  0  0  0  0
 38 39  2  0  0  0  0
 39 18  1  0  0  0  0
 41 40  1  1  0  0  0
 42 41  1  0  0  0  0
 43 42  1  0  0  0  0
 44 43  1  0  0  0  0
 45 46  1  6  0  0  0
 45 44  1  0  0  0  0
 47 45  1  0  0  0  0
 50 47  1  6  0  0  0
 51 50  1  0  0  0  0
 52 49  1  6  0  0  0
 52 50  1  0  0  0  0
 53 55  1  1  0  0  0
 53 54  1  0  0  0  0
 53 52  1  0  0  0  0
 54 48  1  6  0  0  0
 54 56  1  0  0  0  0
 56 51  1  1  0  0  0
 56 62  1  0  0  0  0
 58 59  1  0  0  0  0
 60 63  1  0  0  0  0
 61 58  1  0  0  0  0
 61 63  1  0  0  0  0
 62 59  1  6  0  0  0
 62 65  1  0  0  0  0
 63 57  1  0  0  0  0
 63 64  1  0  0  0  0
 64 65  1  0  0  0  0
M  END
>  <MODEL>
3

>  <REMARK>
 VINA RESULT:      -8.4      2.109      3.760
  Name = 
  14 active torsions:
  status: ('A' for Active; 'I' for Inactive)
    1  A    between atoms: C_3  and  C_17
    2  A    between atoms: N_11  and  C_24
    3  A    between atoms: N_11  and  C_50
    4  A    between atoms: N_13  and  C_43
    5  A    between atoms: N_19  and  C_65
    6  A    between atoms: C_23  and  C_31
    7  A    between atoms: C_23  and  C_36
    8  A    between atoms: C_24  and  C_25
    9  A    between atoms: C_25  and  C_42
   10  A    between atoms: C_28  and  N_45
   11  A    between atoms: C_29  and  C_35
   12  A    between atoms: C_29  and  C_36
   13  A    between atoms: C_31  and  C_32
   14  A    between atoms: C_35  and  N_45
                            x       y       z     vdW  Elec       q    Type
                         _______ _______ _______ _____ _____    ______ ____

>  <TORSDO>
F 14

$$$$
=
 OpenBabel10222418323D

 65 71  0  0  1  0  0  0  0  0999 V2000
  190.6890  177.4220  145.8690 C   0  0  0  0  0  3  0  0  0  0  0  0
  188.6490  177.9530  144.7940 C   0  0  0  0  0  0  0  0  0  0  0  0
  188.4590  177.5030  147.1780 C   0  0  0  0  0  0  0  0  0  0  0  0
  189.0550  177.1450  148.3790 O   0  0  0  0  0  1  0  0  0  0  0  0
  189.6450  178.0350  143.6930 C   0  0  1  0  0  3  0  0  0  0  0  0
  189.2280  177.6140  145.9980 C   0  0  0  0  0  0  0  0  0  0  0  0
  186.5210  178.1220  145.8910 C   0  0  0  0  0  0  0  0  0  0  0  0
  185.3050  178.7060  144.1840 C   0  0  0  0  0  0  0  0  0  0  0  0
  186.5420  178.5680  143.7390 O   0  0  0  0  0  0  0  0  0  0  0  0
  187.0720  177.7620  147.1260 C   0  0  0  0  0  3  0  0  0  0  0  0
  185.2210  178.4320  145.5570 C   0  0  0  0  0  3  0  0  0  0  0  0
  187.2820  178.2180  144.7570 C   0  0  0  0  0  0  0  0  0  0  0  0
  190.9880  177.7870  144.4070 C   0  0  0  0  0  3  0  0  0  0  0  0
  184.1560  179.0700  143.2850 C   0  0  2  0  0  3  0  0  0  0  0  0
  182.8600  179.1220  144.0790 C   0  0  0  0  0  1  0  0  0  0  0  0
  183.9930  178.1110  142.1090 C   0  0  0  0  0  2  0  0  0  0  0  0
  182.9230  179.2190  140.1280 C   0  0  0  0  0  0  0  0  0  0  0  0
  182.7970  178.4570  141.3380 N   0  0  0  0  0  0  0  0  0  0  0  0
  181.7750  179.4440  139.3030 N   0  0  0  0  0  2  0  0  0  0  0  0
  184.0430  179.6910  139.7870 O   0  0  0  0  0  0  0  0  0  0  0  0
  182.4540  177.1390  137.3910 C   0  0  0  0  0  2  0  0  0  0  0  0
  182.2030  179.4350  136.8490 C   0  0  0  0  0  2  0  0  0  0  0  0
  181.9530  175.6920  137.2420 C   0  0  1  0  0  3  0  0  0  0  0  0
  179.5990  176.6160  136.9340 C   0  0  1  0  0  3  0  0  0  0  0  0
  181.8070  180.2550  138.0900 C   0  0  1  0  0  3  0  0  0  0  0  0
  181.5850  178.1020  136.7090 N   0  0  2  0  0  0  0  0  0  0  0  0
  179.2500  180.1650  137.8690 C   0  0  0  0  0  2  0  0  0  0  0  0
  180.2210  177.9790  137.2610 C   0  0  1  0  0  3  0  0  0  0  0  0
  180.5060  181.0350  137.8710 C   0  0  0  0  0  2  0  0  0  0  0  0
  179.2990  179.0930  136.7940 C   0  0  0  0  0  2  0  0  0  0  0  0
  180.1320  174.3040  136.4740 O   0  0  0  0  0  1  0  0  0  0  0  0
  180.6460  175.6020  136.4380 C   0  0  2  0  0  3  0  0  0  0  0  0
  178.9410  176.1320  138.0690 O   0  0  0  0  0  1  0  0  0  0  0  0
  183.0180  174.8380  136.6330 C   0  0  0  0  0  0  0  0  0  0  0  0
  184.3370  172.6880  136.6190 C   0  0  0  0  0  1  0  0  0  0  0  0
  183.3010  173.5440  137.1740 N   0  0  0  0  0  2  0  0  0  0  0  0
  183.6850  175.2830  135.6610 O   0  0  0  0  0  0  0  0  0  0  0  0
  180.7430  177.2100  141.0130 C   0  0  0  0  0  2  0  0  0  0  0  0
  181.4920  178.0190  141.7520 C   0  0  0  0  0  3  0  0  0  0  0  0
  188.9800  175.7900  143.1330 O   0  0  0  0  0  1  0  0  0  0  0  0
  189.4210  176.9940  142.5850 C   0  0  2  0  0  3  0  0  0  0  0  0
  190.6550  176.7630  141.7150 C   0  0  0  0  0  2  0  0  0  0  0  0
  190.2930  176.8040  140.2390 C   0  0  0  0  0  2  0  0  0  0  0  0
  191.3870  177.4680  139.4010 C   0  0  0  0  0  2  0  0  0  0  0  0
  192.4950  176.5200  138.9390 C   0  0  2  0  0  3  0  0  0  0  0  0
  193.7360  176.6520  139.8040 C   0  0  0  0  0  1  0  0  0  0  0  0
  192.8240  176.7290  137.5370 N   0  0  0  0  0  2  0  0  0  0  0  0
  189.6160  172.5260  135.7320 C   0  0  0  0  0  1  0  0  0  0  0  0
  193.5590  174.1780  137.8470 F   0  0  0  0  0  0  0  0  0  0  0  0
  192.0860  175.7440  136.7600 C   0  0  2  0  0  3  0  0  0  0  0  0
  190.8100  175.5400  137.3220 O   0  0  0  0  0  0  0  0  0  0  0  0
  192.8520  174.4160  136.6810 C   0  0  2  0  0  3  0  0  0  0  0  0
  191.9010  173.2410  136.4370 C   0  0  1  0  0  3  0  0  0  0  0  0
  190.6170  173.6650  135.7140 C   0  0  2  0  0  3  0  0  0  0  0  0
  192.5610  172.2510  135.7090 O   0  0  0  0  0  1  0  0  0  0  0  0
  189.9820  174.9320  136.3400 C   0  0  2  0  0  3  0  0  0  0  0  0
  186.5700  177.9630  135.7160 C   0  0  0  0  0  1  0  0  0  0  0  0
  187.1790  175.0400  135.4780 C   0  0  0  0  0  2  0  0  0  0  0  0
  188.3310  175.5460  134.5940 C   0  0  0  0  0  2  0  0  0  0  0  0
  186.5610  177.7440  138.1560 C   0  0  0  0  0  1  0  0  0  0  0  0
  186.9980  175.7220  136.8400 C   0  0  0  0  0  2  0  0  0  0  0  0
  189.5770  175.8930  135.2920 N   0  0  1  0  0  0  0  0  0  0  0  0
  187.2180  177.2350  136.8890 C   0  0  0  0  0  0  0  0  0  0  0  0
  188.7110  177.5400  137.0020 C   0  0  0  0  0  2  0  0  0  0  0  0
  189.5200  177.2980  135.7220 C   0  0  0  0  0  2  0  0  0  0  0  0
  1  6  1  0  0  0  0
  2  6  1  0  0  0  0
  3  4  1  0  0  0  0
  5 41  1  6  0  0  0
  5 13  1  0  0  0  0
  5  2  1  0  0  0  0
  6  3  2  0  0  0  0
  7 10  2  0  0  0  0
  8 11  2  0  0  0  0
  9  8  1  0  0  0  0
  9 12  1  0  0  0  0
 10  3  1  0  0  0  0
 11  7  1  0  0  0  0
 12  2  2  0  0  0  0
 12  7  1  0  0  0  0
 13  1  2  0  0  0  0
 14 15  1  1  0  0  0
 14  8  1  0  0  0  0
 16 14  1  0  0  0  0
 17 18  1  0  0  0  0
 18 39  1  0  0  0  0
 18 16  1  0  0  0  0
 19 17  1  0  0  0  0
 20 17  2  0  0  0  0
 22 25  1  0  0  0  0
 23 34  1  6  0  0  0
 23 21  1  0  0  0  0
 24 28  1  0  0  0  0
 24 33  1  1  0  0  0
 25 19  1  1  0  0  0
 26 22  1  1  0  0  0
 26 28  1  0  0  0  0
 26 21  1  0  0  0  0
 27 29  1  0  0  0  0
 28 30  1  6  0  0  0
 29 25  1  0  0  0  0
 30 27  1  0  0  0  0
 32 31  1  1  0  0  0
 32 24  1  0  0  0  0
 32 23  1  0  0  0  0
 34 36  1  0  0  0  0
 35 36  1  0  0  0  0
 37 34  2  0  0  0  0
 38 39  2  0  0  0  0
 41 40  1  1  0  0  0
 42 41  1  0  0  0  0
 43 42  1  0  0  0  0
 44 43  1  0  0  0  0
 45 44  1  0  0  0  0
 45 46  1  1  0  0  0
 47 45  1  0  0  0  0
 50 51  1  0  0  0  0
 50 47  1  1  0  0  0
 52 50  1  0  0  0  0
 52 49  1  1  0  0  0
 53 55  1  6  0  0  0
 53 52  1  0  0  0  0
 54 48  1  1  0  0  0
 54 56  1  0  0  0  0
 54 53  1  0  0  0  0
 56 51  1  1  0  0  0
 57 63  1  0  0  0  0
 58 61  1  0  0  0  0
 59 58  1  0  0  0  0
 61 63  1  0  0  0  0
 62 59  1  1  0  0  0
 62 65  1  0  0  0  0
 62 56  1  0  0  0  0
 63 64  1  0  0  0  0
 63 60  1  0  0  0  0
 65 64  1  0  0  0  0
M  END
>  <MODEL>
4

>  <REMARK>
 VINA RESULT:      -7.8      1.850      3.580
  Name = 
  14 active torsions:
  status: ('A' for Active; 'I' for Inactive)
    1  A    between atoms: C_3  and  C_17
    2  A    between atoms: N_11  and  C_24
    3  A    between atoms: N_11  and  C_50
    4  A    between atoms: N_13  and  C_43
    5  A    between atoms: N_19  and  C_65
    6  A    between atoms: C_23  and  C_31
    7  A    between atoms: C_23  and  C_36
    8  A    between atoms: C_24  and  C_25
    9  A    between atoms: C_25  and  C_42
   10  A    between atoms: C_28  and  N_45
   11  A    between atoms: C_29  and  C_35
   12  A    between atoms: C_29  and  C_36
   13  A    between atoms: C_31  and  C_32
   14  A    between atoms: C_35  and  N_45
                            x       y       z     vdW  Elec       q    Type
                         _______ _______ _______ _____ _____    ______ ____

>  <TORSDO>
F 14

$$$$
=
 OpenBabel10222418323D

 65 71  0  0  1  0  0  0  0  0999 V2000
  188.0310  177.2920  148.1690 C   0  0  0  0  0  3  0  0  0  0  0  0
  187.8530  177.7190  145.8480 C   0  0  0  0  0  0  0  0  0  0  0  0
  190.1310  177.4770  146.6700 C   0  0  0  0  0  0  0  0  0  0  0  0
  191.0060  177.2730  147.7270 O   0  0  0  0  0  1  0  0  0  0  0  0
  186.4360  177.6820  146.2980 C   0  0  1  0  0  3  0  0  0  0  0  0
  188.7350  177.5030  146.8850 C   0  0  0  0  0  0  0  0  0  0  0  0
  189.7070  177.8570  144.3300 C   0  0  0  0  0  0  0  0  0  0  0  0
  188.6080  178.1850  142.4820 C   0  0  0  0  0  0  0  0  0  0  0  0
  187.7080  178.0840  143.4450 O   0  0  0  0  0  0  0  0  0  0  0  0
  190.6320  177.6590  145.3620 C   0  0  0  0  0  3  0  0  0  0  0  0
  189.9110  178.0510  142.9820 C   0  0  0  0  0  3  0  0  0  0  0  0
  188.3570  177.8860  144.5610 C   0  0  0  0  0  0  0  0  0  0  0  0
  186.5430  177.3070  147.7880 C   0  0  0  0  0  3  0  0  0  0  0  0
  188.2350  178.4530  141.0500 C   0  0  2  0  0  3  0  0  0  0  0  0
  187.7410  177.1780  140.3850 C   0  0  0  0  0  1  0  0  0  0  0  0
  189.3870  179.0370  140.2350 C   0  0  0  0  0  2  0  0  0  0  0  0
  189.3050  177.9380  137.9800 C   0  0  0  0  0  0  0  0  0  0  0  0
  189.8900  178.0400  139.2880 N   0  0  0  0  0  0  0  0  0  0  0  0
  189.8790  177.0600  137.0070 N   0  0  0  0  0  2  0  0  0  0  0  0
  188.2850  178.6220  137.6850 O   0  0  0  0  0  0  0  0  0  0  0  0
  192.5330  176.3680  135.6260 C   0  0  0  0  0  2  0  0  0  0  0  0
  190.3900  176.5430  134.6250 C   0  0  0  0  0  2  0  0  0  0  0  0
  193.7370  175.4890  136.0050 C   0  0  1  0  0  3  0  0  0  0  0  0
  192.1410  173.5130  136.2000 C   0  0  1  0  0  3  0  0  0  0  0  0
  189.3120  176.8570  135.6780 C   0  0  1  0  0  3  0  0  0  0  0  0
  191.4480  175.5930  135.0190 N   0  0  2  0  0  0  0  0  0  0  0  0
  188.5810  174.4670  136.2710 C   0  0  0  0  0  2  0  0  0  0  0  0
  191.0290  174.5440  135.9690 C   0  0  1  0  0  3  0  0  0  0  0  0
  188.1860  175.8160  135.6730 C   0  0  0  0  0  2  0  0  0  0  0  0
  189.7530  173.8390  135.5370 C   0  0  0  0  0  2  0  0  0  0  0  0
  194.5400  173.2190  136.2000 O   0  0  0  0  0  1  0  0  0  0  0  0
  193.5060  174.0040  135.6840 C   0  0  2  0  0  3  0  0  0  0  0  0
  192.2070  173.2130  137.5650 O   0  0  0  0  0  1  0  0  0  0  0  0
  194.9760  175.9960  135.3400 C   0  0  0  0  0  0  0  0  0  0  0  0
  197.4590  175.8120  134.9350 C   0  0  0  0  0  1  0  0  0  0  0  0
  196.2290  175.3420  135.5550 N   0  0  0  0  0  2  0  0  0  0  0  0
  194.9090  177.0250  134.6140 O   0  0  0  0  0  0  0  0  0  0  0  0
  192.2310  177.6200  139.7590 C   0  0  0  0  0  2  0  0  0  0  0  0
  190.9860  177.1770  139.6290 C   0  0  0  0  0  3  0  0  0  0  0  0
  185.8940  179.8240  147.2540 O   0  0  0  0  0  1  0  0  0  0  0  0
  185.7040  179.0220  146.1280 C   0  0  2  0  0  3  0  0  0  0  0  0
  184.2140  178.8630  145.8340 C   0  0  0  0  0  2  0  0  0  0  0  0
  183.9650  178.7610  144.3380 C   0  0  0  0  0  2  0  0  0  0  0  0
  182.4960  179.0010  143.9850 C   0  0  0  0  0  2  0  0  0  0  0  0
  182.1920  178.9790  142.4860 C   0  0  2  0  0  3  0  0  0  0  0  0
  180.8060  179.5250  142.1910 C   0  0  0  0  0  1  0  0  0  0  0  0
  182.3430  177.6410  141.9330 N   0  0  0  0  0  2  0  0  0  0  0  0
  184.2670  177.1830  136.7080 C   0  0  0  0  0  1  0  0  0  0  0  0
  184.8380  178.3560  141.2960 F   0  0  0  0  0  0  0  0  0  0  0  0
  182.6330  177.7810  140.5140 C   0  0  2  0  0  3  0  0  0  0  0  0
  182.7450  176.5120  139.9130 O   0  0  0  0  0  0  0  0  0  0  0  0
  183.9160  178.5930  140.2900 C   0  0  2  0  0  3  0  0  0  0  0  0
  184.5620  178.2500  138.9450 C   0  0  1  0  0  3  0  0  0  0  0  0
  183.5430  177.7440  137.9170 C   0  0  2  0  0  3  0  0  0  0  0  0
  185.2320  179.3700  138.4510 O   0  0  0  0  0  1  0  0  0  0  0  0
  182.5980  176.6690  138.5080 C   0  0  2  0  0  3  0  0  0  0  0  0
  179.1070  174.2670  136.7010 C   0  0  0  0  0  1  0  0  0  0  0  0
  181.5950  175.7370  135.9130 C   0  0  0  0  0  2  0  0  0  0  0  0
  180.9310  176.8890  136.6850 C   0  0  0  0  0  2  0  0  0  0  0  0
  180.4860  172.4660  137.6250 C   0  0  0  0  0  1  0  0  0  0  0  0
  181.6460  174.3720  136.6120 C   0  0  0  0  0  2  0  0  0  0  0  0
  181.1940  176.9330  138.1300 N   0  0  1  0  0  0  0  0  0  0  0  0
  180.4160  173.9650  137.4240 C   0  0  0  0  0  0  0  0  0  0  0  0
  180.4710  174.6090  138.8080 C   0  0  0  0  0  2  0  0  0  0  0  0
  180.1930  176.1170  138.8330 C   0  0  0  0  0  2  0  0  0  0  0  0
  2  5  1  0  0  0  0
  2  6  1  0  0  0  0
  3  6  2  0  0  0  0
  3  4  1  0  0  0  0
  5 41  1  1  0  0  0
  5 13  1  0  0  0  0
  6  1  1  0  0  0  0
  7 12  1  0  0  0  0
  7 10  2  0  0  0  0
  8 11  2  0  0  0  0
  8  9  1  0  0  0  0
  9 12  1  0  0  0  0
 10  3  1  0  0  0  0
 11  7  1  0  0  0  0
 12  2  2  0  0  0  0
 13  1  2  0  0  0  0
 14 15  1  6  0  0  0
 14  8  1  0  0  0  0
 16 14  1  0  0  0  0
 17 18  1  0  0  0  0
 18 39  1  0  0  0  0
 18 16  1  0  0  0  0
 19 17  1  0  0  0  0
 20 17  2  0  0  0  0
 21 23  1  0  0  0  0
 22 25  1  0  0  0  0
 23 34  1  6  0  0  0
 24 33  1  1  0  0  0
 25 19  1  1  0  0  0
 26 22  1  1  0  0  0
 26 21  1  0  0  0  0
 26 28  1  0  0  0  0
 28 30  1  6  0  0  0
 28 24  1  0  0  0  0
 29 25  1  0  0  0  0
 29 27  1  0  0  0  0
 30 27  1  0  0  0  0
 32 23  1  0  0  0  0
 32 31  1  1  0  0  0
 32 24  1  0  0  0  0
 34 36  1  0  0  0  0
 35 36  1  0  0  0  0
 37 34  2  0  0  0  0
 39 38  2  0  0  0  0
 41 40  1  1  0  0  0
 42 41  1  0  0  0  0
 43 42  1  0  0  0  0
 44 43  1  0  0  0  0
 45 46  1  1  0  0  0
 45 44  1  0  0  0  0
 47 45  1  0  0  0  0
 50 47  1  1  0  0  0
 51 50  1  0  0  0  0
 52 50  1  0  0  0  0
 52 49  1  1  0  0  0
 53 55  1  6  0  0  0
 53 52  1  0  0  0  0
 54 48  1  6  0  0  0
 54 56  1  0  0  0  0
 54 53  1  0  0  0  0
 56 51  1  1  0  0  0
 57 63  1  0  0  0  0
 58 61  1  0  0  0  0
 58 59  1  0  0  0  0
 61 63  1  0  0  0  0
 62 59  1  6  0  0  0
 62 56  1  0  0  0  0
 62 65  1  0  0  0  0
 63 60  1  0  0  0  0
 63 64  1  0  0  0  0
 64 65  1  0  0  0  0
M  END
>  <MODEL>
5

>  <REMARK>
 VINA RESULT:      -7.3      2.320      9.509
  Name = 
  14 active torsions:
  status: ('A' for Active; 'I' for Inactive)
    1  A    between atoms: C_3  and  C_17
    2  A    between atoms: N_11  and  C_24
    3  A    between atoms: N_11  and  C_50
    4  A    between atoms: N_13  and  C_43
    5  A    between atoms: N_19  and  C_65
    6  A    between atoms: C_23  and  C_31
    7  A    between atoms: C_23  and  C_36
    8  A    between atoms: C_24  and  C_25
    9  A    between atoms: C_25  and  C_42
   10  A    between atoms: C_28  and  N_45
   11  A    between atoms: C_29  and  C_35
   12  A    between atoms: C_29  and  C_36
   13  A    between atoms: C_31  and  C_32
   14  A    between atoms: C_35  and  N_45
                            x       y       z     vdW  Elec       q    Type
                         _______ _______ _______ _____ _____    ______ ____

>  <TORSDO>
F 14

$$$$
=
 OpenBabel10222418323D

 65 71  0  0  1  0  0  0  0  0999 V2000
  192.4260  175.2180  137.0910 C   0  0  0  0  0  3  0  0  0  0  0  0
  190.1350  174.6340  137.0000 C   0  0  0  0  0  0  0  0  0  0  0  0
  191.5030  173.6770  135.2290 C   0  0  0  0  0  0  0  0  0  0  0  0
  192.7390  173.5430  134.6110 O   0  0  0  0  0  1  0  0  0  0  0  0
  190.2190  175.4990  138.2060 C   0  0  1  0  0  3  0  0  0  0  0  0
  191.3580  174.4780  136.3830 C   0  0  0  0  0  0  0  0  0  0  0  0
  189.1540  173.1710  135.3700 C   0  0  0  0  0  0  0  0  0  0  0  0
  187.1060  173.1700  136.1050 C   0  0  0  0  0  0  0  0  0  0  0  0
  187.8000  173.9510  136.9150 O   0  0  0  0  0  0  0  0  0  0  0  0
  190.3760  173.0060  134.7080 C   0  0  0  0  0  3  0  0  0  0  0  0
  187.9150  172.6390  135.0900 C   0  0  0  0  0  3  0  0  0  0  0  0
  189.0320  173.9580  136.4830 C   0  0  0  0  0  0  0  0  0  0  0  0
  191.7250  175.8010  138.3270 C   0  0  0  0  0  3  0  0  0  0  0  0
  185.6280  172.9430  136.2660 C   0  0  2  0  0  3  0  0  0  0  0  0
  184.8750  173.5040  135.0700 C   0  0  0  0  0  1  0  0  0  0  0  0
  185.0700  173.5500  137.5500 C   0  0  0  0  0  2  0  0  0  0  0  0
  182.6170  173.9330  137.1740 C   0  0  0  0  0  0  0  0  0  0  0  0
  183.9560  174.4490  137.2380 N   0  0  0  0  0  0  0  0  0  0  0  0
  181.5140  174.8270  137.0040 N   0  0  0  0  0  2  0  0  0  0  0  0
  182.4100  172.6910  137.2690 O   0  0  0  0  0  0  0  0  0  0  0  0
  180.3620  176.6950  139.1520 C   0  0  0  0  0  2  0  0  0  0  0  0
  179.1960  175.0650  137.8830 C   0  0  0  0  0  2  0  0  0  0  0  0
  180.5760  178.1770  139.5060 C   0  0  1  0  0  3  0  0  0  0  0  0
  179.8510  178.7720  137.1380 C   0  0  1  0  0  3  0  0  0  0  0  0
  180.1320  174.3790  136.8720 C   0  0  1  0  0  3  0  0  0  0  0  0
  179.3790  176.5160  138.0800 N   0  0  2  0  0  0  0  0  0  0  0  0
  179.7520  175.8960  134.8340 C   0  0  0  0  0  2  0  0  0  0  0  0
  179.8390  177.2590  136.8900 C   0  0  1  0  0  3  0  0  0  0  0  0
  179.6100  174.4980  135.4350 C   0  0  0  0  0  2  0  0  0  0  0  0
  179.0170  176.9450  135.6510 C   0  0  0  0  0  2  0  0  0  0  0  0
  180.0820  180.4510  138.8610 O   0  0  0  0  0  1  0  0  0  0  0  0
  179.7310  179.1180  138.6340 C   0  0  2  0  0  3  0  0  0  0  0  0
  181.0220  179.3130  136.5980 O   0  0  0  0  0  1  0  0  0  0  0  0
  180.3060  178.4040  140.9590 C   0  0  0  0  0  0  0  0  0  0  0  0
  180.7450  179.7040  143.0750 C   0  0  0  0  0  1  0  0  0  0  0  0
  180.9710  179.4590  141.6590 N   0  0  0  0  0  2  0  0  0  0  0  0
  179.5120  177.6360  141.5660 O   0  0  0  0  0  0  0  0  0  0  0  0
  184.1140  176.7420  138.0120 C   0  0  0  0  0  2  0  0  0  0  0  0
  184.1710  175.8540  137.0270 C   0  0  0  0  0  3  0  0  0  0  0  0
  189.4920  177.2990  136.7830 O   0  0  0  0  0  1  0  0  0  0  0  0
  189.4140  176.8020  138.0840 C   0  0  2  0  0  3  0  0  0  0  0  0
  189.8370  177.8700  139.0890 C   0  0  0  0  0  2  0  0  0  0  0  0
  189.3590  177.5170  140.4890 C   0  0  0  0  0  2  0  0  0  0  0  0
  190.5270  177.2750  141.4470 C   0  0  0  0  0  2  0  0  0  0  0  0
  190.2490  177.6740  142.8980 C   0  0  2  0  0  3  0  0  0  0  0  0
  191.2100  178.7490  143.3720 C   0  0  0  0  0  1  0  0  0  0  0  0
  190.2940  176.5200  143.7840 N   0  0  0  0  0  2  0  0  0  0  0  0
  187.5410  178.9220  148.0100 C   0  0  0  0  0  1  0  0  0  0  0  0
  191.5800  177.4890  145.9170 F   0  0  0  0  0  0  0  0  0  0  0  0
  189.4760  176.8270  144.9480 C   0  0  2  0  0  3  0  0  0  0  0  0
  188.7500  178.0150  144.7310 O   0  0  0  0  0  0  0  0  0  0  0  0
  190.3380  176.9520  146.2110 C   0  0  2  0  0  3  0  0  0  0  0  0
  189.6590  177.8370  147.2610 C   0  0  1  0  0  3  0  0  0  0  0  0
  188.1320  177.8420  147.1240 C   0  0  2  0  0  3  0  0  0  0  0  0
  190.0290  177.4110  148.5370 O   0  0  0  0  0  1  0  0  0  0  0  0
  187.6750  178.0570  145.6600 C   0  0  2  0  0  3  0  0  0  0  0  0
  184.0570  178.0280  142.8080 C   0  0  0  0  0  1  0  0  0  0  0  0
  184.9000  178.9990  145.5140 C   0  0  0  0  0  2  0  0  0  0  0  0
  185.2550  177.5180  145.7250 C   0  0  0  0  0  2  0  0  0  0  0  0
  185.4560  179.7530  141.7740 C   0  0  0  0  0  1  0  0  0  0  0  0
  185.4050  179.6560  144.2220 C   0  0  0  0  0  2  0  0  0  0  0  0
  186.6000  177.1090  145.2970 N   0  0  1  0  0  0  0  0  0  0  0  0
  185.3620  178.8060  142.9520 C   0  0  0  0  0  0  0  0  0  0  0  0
  186.5860  177.8930  142.8950 C   0  0  0  0  0  2  0  0  0  0  0  0
  186.5630  176.7180  143.8800 C   0  0  0  0  0  2  0  0  0  0  0  0
  1 13  2  0  0  0  0
  2  5  1  0  0  0  0
  3  6  1  0  0  0  0
  4  3  1  0  0  0  0
  5 41  1  6  0  0  0
  5 13  1  0  0  0  0
  6  2  2  0  0  0  0
  6  1  1  0  0  0  0
  7 12  2  0  0  0  0
  8 14  1  0  0  0  0
  8  9  1  0  0  0  0
 10  3  2  0  0  0  0
 10  7  1  0  0  0  0
 11  7  1  0  0  0  0
 11  8  2  0  0  0  0
 12  9  1  0  0  0  0
 12  2  1  0  0  0  0
 14 15  1  6  0  0  0
 14 16  1  0  0  0  0
 17 18  1  0  0  0  0
 17 20  2  0  0  0  0
 18 16  1  0  0  0  0
 19 17  1  0  0  0  0
 21 23  1  0  0  0  0
 23 34  1  1  0  0  0
 24 33  1  1  0  0  0
 24 32  1  0  0  0  0
 25 19  1  6  0  0  0
 25 22  1  0  0  0  0
 26 22  1  6  0  0  0
 26 21  1  0  0  0  0
 27 29  1  0  0  0  0
 27 30  1  0  0  0  0
 28 30  1  6  0  0  0
 28 24  1  0  0  0  0
 28 26  1  0  0  0  0
 29 25  1  0  0  0  0
 32 31  1  6  0  0  0
 32 23  1  0  0  0  0
 34 37  2  0  0  0  0
 34 36  1  0  0  0  0
 36 35  1  0  0  0  0
 39 18  1  0  0  0  0
 39 38  2  0  0  0  0
 41 40  1  6  0  0  0
 41 42  1  0  0  0  0
 42 43  1  0  0  0  0
 43 44  1  0  0  0  0
 44 45  1  0  0  0  0
 45 46  1  1  0  0  0
 45 47  1  0  0  0  0
 50 47  1  6  0  0  0
 50 52  1  0  0  0  0
 51 50  1  0  0  0  0
 52 49  1  6  0  0  0
 52 53  1  0  0  0  0
 53 55  1  1  0  0  0
 54 53  1  0  0  0  0
 54 48  1  1  0  0  0
 56 51  1  6  0  0  0
 56 54  1  0  0  0  0
 57 63  1  0  0  0  0
 58 59  1  0  0  0  0
 60 63  1  0  0  0  0
 61 58  1  0  0  0  0
 62 65  1  6  0  0  0
 62 56  1  0  0  0  0
 62 59  1  0  0  0  0
 63 61  1  0  0  0  0
 64 63  1  0  0  0  0
 64 65  1  0  0  0  0
M  END
>  <MODEL>
6

>  <REMARK>
 VINA RESULT:      -6.7      2.772      8.959
  Name = 
  14 active torsions:
  status: ('A' for Active; 'I' for Inactive)
    1  A    between atoms: C_3  and  C_17
    2  A    between atoms: N_11  and  C_24
    3  A    between atoms: N_11  and  C_50
    4  A    between atoms: N_13  and  C_43
    5  A    between atoms: N_19  and  C_65
    6  A    between atoms: C_23  and  C_31
    7  A    between atoms: C_23  and  C_36
    8  A    between atoms: C_24  and  C_25
    9  A    between atoms: C_25  and  C_42
   10  A    between atoms: C_28  and  N_45
   11  A    between atoms: C_29  and  C_35
   12  A    between atoms: C_29  and  C_36
   13  A    between atoms: C_31  and  C_32
   14  A    between atoms: C_35  and  N_45
                            x       y       z     vdW  Elec       q    Type
                         _______ _______ _______ _____ _____    ______ ____

>  <TORSDO>
F 14

$$$$
=
 OpenBabel10222418323D

 65 71  0  0  1  0  0  0  0  0999 V2000
  192.0770  175.7570  137.3200 C   0  0  0  0  0  3  0  0  0  0  0  0
  189.8540  174.9840  137.0830 C   0  0  0  0  0  0  0  0  0  0  0  0
  191.5390  173.5820  136.0270 C   0  0  0  0  0  0  0  0  0  0  0  0
  192.8690  173.3440  135.7080 O   0  0  0  0  0  1  0  0  0  0  0  0
  189.6990  176.2250  137.8870 C   0  0  1  0  0  3  0  0  0  0  0  0
  191.1710  174.7260  136.7700 C   0  0  0  0  0  0  0  0  0  0  0  0
  189.2150  172.9590  135.9650 C   0  0  0  0  0  0  0  0  0  0  0  0
  187.0680  173.0430  136.3110 C   0  0  0  0  0  0  0  0  0  0  0  0
  187.5870  174.1180  136.8800 O   0  0  0  0  0  0  0  0  0  0  0  0
  190.5400  172.6750  135.6140 C   0  0  0  0  0  3  0  0  0  0  0  0
  188.0590  172.2580  135.7030 C   0  0  0  0  0  3  0  0  0  0  0  0
  188.8770  174.0770  136.6790 C   0  0  0  0  0  0  0  0  0  0  0  0
  191.1520  176.6790  138.1280 C   0  0  0  0  0  3  0  0  0  0  0  0
  185.5910  172.7620  136.3050 C   0  0  2  0  0  3  0  0  0  0  0  0
  184.9170  173.5100  135.1660 C   0  0  0  0  0  1  0  0  0  0  0  0
  184.9120  173.1230  137.6230 C   0  0  0  0  0  2  0  0  0  0  0  0
  182.6030  173.9360  137.0660 C   0  0  0  0  0  0  0  0  0  0  0  0
  183.9660  174.2220  137.4170 N   0  0  0  0  0  0  0  0  0  0  0  0
  181.6460  174.9970  136.9970 N   0  0  0  0  0  2  0  0  0  0  0  0
  182.2460  172.7500  136.8200 O   0  0  0  0  0  0  0  0  0  0  0  0
  180.4020  176.5460  139.3380 C   0  0  0  0  0  2  0  0  0  0  0  0
  179.2630  175.4000  137.6000 C   0  0  0  0  0  2  0  0  0  0  0  0
  180.7340  177.8770  140.0350 C   0  0  1  0  0  3  0  0  0  0  0  0
  180.4680  179.0390  137.7840 C   0  0  1  0  0  3  0  0  0  0  0  0
  180.2580  174.7980  136.5920 C   0  0  1  0  0  3  0  0  0  0  0  0
  179.5860  176.7370  138.1350 N   0  0  2  0  0  0  0  0  0  0  0  0
  180.3900  176.7340  134.9090 C   0  0  0  0  0  2  0  0  0  0  0  0
  180.3140  177.6260  137.2080 C   0  0  1  0  0  3  0  0  0  0  0  0
  179.9880  175.2820  135.1620 C   0  0  0  0  0  2  0  0  0  0  0  0
  179.6670  177.6960  135.8350 C   0  0  0  0  0  2  0  0  0  0  0  0
  180.6250  180.2820  139.8510 O   0  0  0  0  0  1  0  0  0  0  0  0
  180.1570  179.0910  139.2910 C   0  0  2  0  0  3  0  0  0  0  0  0
  181.7670  179.4940  137.5320 O   0  0  0  0  0  1  0  0  0  0  0  0
  180.2670  177.8450  141.4550 C   0  0  0  0  0  0  0  0  0  0  0  0
  180.5080  178.6260  143.8410 C   0  0  0  0  0  1  0  0  0  0  0  0
  180.9240  178.6380  142.4470 N   0  0  0  0  0  2  0  0  0  0  0  0
  179.3110  177.0870  141.7730 O   0  0  0  0  0  0  0  0  0  0  0  0
  184.6740  176.3820  136.5730 C   0  0  0  0  0  2  0  0  0  0  0  0
  184.3670  175.5910  137.5940 C   0  0  0  0  0  3  0  0  0  0  0  0
  189.3150  177.4380  135.8430 O   0  0  0  0  0  1  0  0  0  0  0  0
  188.9010  177.3250  137.1700 C   0  0  2  0  0  3  0  0  0  0  0  0
  188.9790  178.6810  137.8690 C   0  0  0  0  0  2  0  0  0  0  0  0
  189.4610  178.5250  139.3020 C   0  0  0  0  0  2  0  0  0  0  0  0
  188.3110  178.6240  140.3060 C   0  0  0  0  0  2  0  0  0  0  0  0
  188.6780  178.2120  141.7330 C   0  0  2  0  0  3  0  0  0  0  0  0
  190.0720  177.6120  141.7970 C   0  0  0  0  0  1  0  0  0  0  0  0
  187.6990  177.2900  142.2880 N   0  0  0  0  0  2  0  0  0  0  0  0
  185.1990  178.4070  147.1590 C   0  0  0  0  0  1  0  0  0  0  0  0
  185.0360  177.3330  142.5140 F   0  0  0  0  0  0  0  0  0  0  0  0
  187.1620  177.8950  143.4980 C   0  0  2  0  0  3  0  0  0  0  0  0
  187.3330  177.0260  144.5940 O   0  0  0  0  0  0  0  0  0  0  0  0
  185.6790  178.2520  143.3260 C   0  0  2  0  0  3  0  0  0  0  0  0
  184.9590  178.2990  144.6770 C   0  0  1  0  0  3  0  0  0  0  0  0
  185.9080  178.6270  145.8360 C   0  0  2  0  0  3  0  0  0  0  0  0
  183.9230  179.2320  144.6210 O   0  0  0  0  0  1  0  0  0  0  0  0
  187.2060  177.7840  145.7890 C   0  0  2  0  0  3  0  0  0  0  0  0
  191.3070  177.2880  147.8290 C   0  0  0  0  0  1  0  0  0  0  0  0
  188.4290  177.8350  148.4560 C   0  0  0  0  0  2  0  0  0  0  0  0
  188.6220  178.9740  147.4410 C   0  0  0  0  0  2  0  0  0  0  0  0
  190.7390  174.9550  147.3450 C   0  0  0  0  0  1  0  0  0  0  0  0
  188.9180  176.4420  148.0360 C   0  0  0  0  0  2  0  0  0  0  0  0
  188.3950  178.6290  146.0310 N   0  0  1  0  0  0  0  0  0  0  0  0
  190.2280  176.3780  147.2510 C   0  0  0  0  0  0  0  0  0  0  0  0
  189.9640  176.6650  145.7730 C   0  0  0  0  0  2  0  0  0  0  0  0
  189.6470  178.1290  145.4450 C   0  0  0  0  0  2  0  0  0  0  0  0
  1 13  2  0  0  0  0
  2  5  1  0  0  0  0
  3  6  2  0  0  0  0
  4  3  1  0  0  0  0
  5 41  1  6  0  0  0
  5 13  1  0  0  0  0
  6  2  1  0  0  0  0
  6  1  1  0  0  0  0
  7 12  1  0  0  0  0
  8  9  1  0  0  0  0
 10  7  2  0  0  0  0
 10  3  1  0  0  0  0
 11  7  1  0  0  0  0
 11  8  2  0  0  0  0
 12  9  1  0  0  0  0
 12  2  2  0  0  0  0
 14 15  1  6  0  0  0
 14  8  1  0  0  0  0
 14 16  1  0  0  0  0
 17 18  1  0  0  0  0
 18 39  1  0  0  0  0
 18 16  1  0  0  0  0
 19 17  1  0  0  0  0
 20 17  2  0  0  0  0
 21 23  1  0  0  0  0
 23 34  1  1  0  0  0
 24 33  1  1  0  0  0
 24 32  1  0  0  0  0
 25 19  1  1  0  0  0
 25 22  1  0  0  0  0
 26 22  1  6  0  0  0
 26 21  1  0  0  0  0
 27 29  1  0  0  0  0
 27 30  1  0  0  0  0
 28 30  1  6  0  0  0
 28 24  1  0  0  0  0
 28 26  1  0  0  0  0
 29 25  1  0  0  0  0
 32 31  1  1  0  0  0
 32 23  1  0  0  0  0
 34 37  2  0  0  0  0
 34 36  1  0  0  0  0
 36 35  1  0  0  0  0
 38 39  2  0  0  0  0
 41 40  1  6  0  0  0
 41 42  1  0  0  0  0
 42 43  1  0  0  0  0
 43 44  1  0  0  0  0
 44 45  1  0  0  0  0
 45 46  1  6  0  0  0
 45 47  1  0  0  0  0
 50 47  1  6  0  0  0
 50 51  1  0  0  0  0
 52 49  1  6  0  0  0
 52 50  1  0  0  0  0
 52 53  1  0  0  0  0
 53 55  1  6  0  0  0
 53 54  1  0  0  0  0
 54 48  1  1  0  0  0
 56 51  1  6  0  0  0
 56 54  1  0  0  0  0
 56 62  1  0  0  0  0
 59 58  1  0  0  0  0
 61 58  1  0  0  0  0
 62 65  1  1  0  0  0
 62 59  1  0  0  0  0
 63 60  1  0  0  0  0
 63 57  1  0  0  0  0
 63 61  1  0  0  0  0
 64 63  1  0  0  0  0
 65 64  1  0  0  0  0
M  END
>  <MODEL>
7

>  <REMARK>
 VINA RESULT:      -6.7      2.723      8.676
  Name = 
  14 active torsions:
  status: ('A' for Active; 'I' for Inactive)
    1  A    between atoms: C_3  and  C_17
    2  A    between atoms: N_11  and  C_24
    3  A    between atoms: N_11  and  C_50
    4  A    between atoms: N_13  and  C_43
    5  A    between atoms: N_19  and  C_65
    6  A    between atoms: C_23  and  C_31
    7  A    between atoms: C_23  and  C_36
    8  A    between atoms: C_24  and  C_25
    9  A    between atoms: C_25  and  C_42
   10  A    between atoms: C_28  and  N_45
   11  A    between atoms: C_29  and  C_35
   12  A    between atoms: C_29  and  C_36
   13  A    between atoms: C_31  and  C_32
   14  A    between atoms: C_35  and  N_45
                            x       y       z     vdW  Elec       q    Type
                         _______ _______ _______ _____ _____    ______ ____

>  <TORSDO>
F 14

$$$$
=
 OpenBabel10222418323D

 65 71  0  0  1  0  0  0  0  0999 V2000
  185.5810  177.9810  147.7720 C   0  0  0  0  0  3  0  0  0  0  0  0
  187.1330  177.5940  146.0290 C   0  0  0  0  0  0  0  0  0  0  0  0
  188.1280  177.9500  148.2210 C   0  0  0  0  0  0  0  0  0  0  0  0
  187.9780  178.2260  149.5730 O   0  0  0  0  0  1  0  0  0  0  0  0
  185.8180  177.5130  145.3390 C   0  0  1  0  0  3  0  0  0  0  0  0
  187.0000  177.8530  147.3760 C   0  0  0  0  0  0  0  0  0  0  0  0
  189.5140  177.4780  146.3090 C   0  0  0  0  0  0  0  0  0  0  0  0
  190.0750  177.0280  144.2560 C   0  0  0  0  0  0  0  0  0  0  0  0
  188.7570  177.1260  144.2760 O   0  0  0  0  0  0  0  0  0  0  0  0
  189.4170  177.7580  147.6770 C   0  0  0  0  0  3  0  0  0  0  0  0
  190.6240  177.2450  145.5280 C   0  0  0  0  0  3  0  0  0  0  0  0
  188.4080  177.3960  145.5050 C   0  0  0  0  0  0  0  0  0  0  0  0
  184.8020  177.6660  146.4860 C   0  0  0  0  0  3  0  0  0  0  0  0
  190.8490  176.7570  142.9950 C   0  0  2  0  0  3  0  0  0  0  0  0
  191.2120  178.0640  142.3080 C   0  0  0  0  0  1  0  0  0  0  0  0
  190.0960  175.8600  142.0170 C   0  0  0  0  0  2  0  0  0  0  0  0
  189.9530  176.8030  139.6940 C   0  0  0  0  0  0  0  0  0  0  0  0
  189.4050  176.6760  141.0160 N   0  0  0  0  0  0  0  0  0  0  0  0
  189.2150  177.4860  138.6780 N   0  0  0  0  0  2  0  0  0  0  0  0
  191.0850  176.3130  139.4270 O   0  0  0  0  0  0  0  0  0  0  0  0
  187.7430  175.1230  137.3810 C   0  0  0  0  0  2  0  0  0  0  0  0
  189.2480  176.6310  136.3380 C   0  0  0  0  0  2  0  0  0  0  0  0
  186.3150  174.5620  137.4940 C   0  0  1  0  0  3  0  0  0  0  0  0
  185.4390  176.8380  136.7610 C   0  0  1  0  0  3  0  0  0  0  0  0
  189.7260  177.7080  137.3280 C   0  0  1  0  0  3  0  0  0  0  0  0
  187.8310  176.2300  136.4240 N   0  0  2  0  0  0  0  0  0  0  0  0
  187.9640  179.5220  136.8760 C   0  0  0  0  0  2  0  0  0  0  0  0
  186.9010  177.2950  136.8500 C   0  0  1  0  0  3  0  0  0  0  0  0
  189.4380  179.1250  136.8180 C   0  0  0  0  0  2  0  0  0  0  0  0
  187.0880  178.5830  136.0650 C   0  0  0  0  0  2  0  0  0  0  0  0
  184.0080  174.8940  136.8620 O   0  0  0  0  0  1  0  0  0  0  0  0
  185.3150  175.3120  136.6010 C   0  0  2  0  0  3  0  0  0  0  0  0
  184.7560  177.2740  137.9010 O   0  0  0  0  0  1  0  0  0  0  0  0
  186.3120  173.0970  137.1930 C   0  0  0  0  0  0  0  0  0  0  0  0
  187.3980  171.0990  136.1030 C   0  0  0  0  0  1  0  0  0  0  0  0
  187.3710  172.5170  136.4270 N   0  0  0  0  0  2  0  0  0  0  0  0
  185.3510  172.3880  137.5940 O   0  0  0  0  0  0  0  0  0  0  0  0
  187.9650  178.6250  141.1040 C   0  0  0  0  0  2  0  0  0  0  0  0
  188.1620  177.3300  141.3190 C   0  0  0  0  0  3  0  0  0  0  0  0
  186.7330  179.4360  144.2160 O   0  0  0  0  0  1  0  0  0  0  0  0
  185.6110  178.6090  144.2830 C   0  0  2  0  0  3  0  0  0  0  0  0
  184.3510  179.4400  144.5130 C   0  0  0  0  0  2  0  0  0  0  0  0
  183.5450  179.5700  143.2300 C   0  0  0  0  0  2  0  0  0  0  0  0
  183.3920  178.2260  142.5140 C   0  0  0  0  0  2  0  0  0  0  0  0
  183.0170  178.3360  141.0350 C   0  0  2  0  0  3  0  0  0  0  0  0
  183.9130  179.3210  140.3060 C   0  0  0  0  0  1  0  0  0  0  0  0
  181.6170  178.6990  140.8670 N   0  0  0  0  0  2  0  0  0  0  0  0
  178.9630  177.6010  136.0750 C   0  0  0  0  0  1  0  0  0  0  0  0
  180.2740  176.4170  140.5050 F   0  0  0  0  0  0  0  0  0  0  0  0
  181.2410  178.3790  139.4980 C   0  0  2  0  0  3  0  0  0  0  0  0
  180.1620  179.1870  139.0890 O   0  0  0  0  0  0  0  0  0  0  0  0
  180.8800  176.8940  139.3560 C   0  0  2  0  0  3  0  0  0  0  0  0
  179.9360  176.6630  138.1730 C   0  0  1  0  0  3  0  0  0  0  0  0
  180.0870  177.7330  137.0850 C   0  0  2  0  0  3  0  0  0  0  0  0
  180.1620  175.3950  137.6380 O   0  0  0  0  0  1  0  0  0  0  0  0
  180.1010  179.1670  137.6700 C   0  0  2  0  0  3  0  0  0  0  0  0
  180.8580  183.6250  136.7890 C   0  0  0  0  0  1  0  0  0  0  0  0
  179.4340  181.2290  135.6910 C   0  0  0  0  0  2  0  0  0  0  0  0
  180.8320  180.5950  135.7780 C   0  0  0  0  0  2  0  0  0  0  0  0
  179.1870  183.7770  138.5740 C   0  0  0  0  0  1  0  0  0  0  0  0
  178.9310  181.9730  136.9360 C   0  0  0  0  0  2  0  0  0  0  0  0
  181.1810  179.9750  137.0640 N   0  0  1  0  0  0  0  0  0  0  0  0
  179.9570  182.8040  137.7060 C   0  0  0  0  0  0  0  0  0  0  0  0
  180.7600  181.9010  138.6430 C   0  0  0  0  0  2  0  0  0  0  0  0
  181.7760  180.9870  137.9480 C   0  0  0  0  0  2  0  0  0  0  0  0
  2  6  1  0  0  0  0
  3  4  1  0  0  0  0
  5 41  1  6  0  0  0
  5  2  1  0  0  0  0
  5 13  1  0  0  0  0
  6  1  1  0  0  0  0
  6  3  2  0  0  0  0
  7 10  2  0  0  0  0
  8  9  1  0  0  0  0
  8 11  2  0  0  0  0
  9 12  1  0  0  0  0
 10  3  1  0  0  0  0
 11  7  1  0  0  0  0
 12  2  2  0  0  0  0
 12  7  1  0  0  0  0
 13  1  2  0  0  0  0
 14 15  1  6  0  0  0
 14  8  1  0  0  0  0
 16 14  1  0  0  0  0
 17 18  1  0  0  0  0
 18 39  1  0  0  0  0
 18 16  1  0  0  0  0
 19 17  1  0  0  0  0
 20 17  2  0  0  0  0
 21 23  1  0  0  0  0
 22 25  1  0  0  0  0
 23 34  1  6  0  0  0
 24 28  1  0  0  0  0
 24 33  1  1  0  0  0
 25 19  1  1  0  0  0
 26 22  1  1  0  0  0
 26 28  1  0  0  0  0
 26 21  1  0  0  0  0
 28 30  1  6  0  0  0
 29 27  1  0  0  0  0
 29 25  1  0  0  0  0
 30 27  1  0  0  0  0
 32 24  1  0  0  0  0
 32 31  1  1  0  0  0
 32 23  1  0  0  0  0
 34 37  2  0  0  0  0
 35 36  1  0  0  0  0
 36 34  1  0  0  0  0
 38 39  2  0  0  0  0
 41 40  1  1  0  0  0
 41 42  1  0  0  0  0
 43 42  1  0  0  0  0
 44 43  1  0  0  0  0
 45 46  1  1  0  0  0
 45 44  1  0  0  0  0
 47 45  1  0  0  0  0
 50 47  1  1  0  0  0
 51 50  1  0  0  0  0
 52 50  1  0  0  0  0
 52 49  1  1  0  0  0
 53 55  1  6  0  0  0
 53 52  1  0  0  0  0
 54 48  1  6  0  0  0
 54 56  1  0  0  0  0
 54 53  1  0  0  0  0
 56 51  1  1  0  0  0
 57 63  1  0  0  0  0
 58 59  1  0  0  0  0
 58 61  1  0  0  0  0
 61 63  1  0  0  0  0
 62 59  1  6  0  0  0
 62 56  1  0  0  0  0
 62 65  1  0  0  0  0
 63 60  1  0  0  0  0
 63 64  1  0  0  0  0
 65 64  1  0  0  0  0
M  END
>  <MODEL>
8

>  <REMARK>
 VINA RESULT:      -6.5      3.329      9.047
  Name = 
  14 active torsions:
  status: ('A' for Active; 'I' for Inactive)
    1  A    between atoms: C_3  and  C_17
    2  A    between atoms: N_11  and  C_24
    3  A    between atoms: N_11  and  C_50
    4  A    between atoms: N_13  and  C_43
    5  A    between atoms: N_19  and  C_65
    6  A    between atoms: C_23  and  C_31
    7  A    between atoms: C_23  and  C_36
    8  A    between atoms: C_24  and  C_25
    9  A    between atoms: C_25  and  C_42
   10  A    between atoms: C_28  and  N_45
   11  A    between atoms: C_29  and  C_35
   12  A    between atoms: C_29  and  C_36
   13  A    between atoms: C_31  and  C_32
   14  A    between atoms: C_35  and  N_45
                            x       y       z     vdW  Elec       q    Type
                         _______ _______ _______ _____ _____    ______ ____

>  <TORSDO>
F 14

$$$$
=
 OpenBabel10222418323D

 65 71  0  0  1  0  0  0  0  0999 V2000
  190.8490  177.4000  145.4340 C   0  0  0  0  0  3  0  0  0  0  0  0
  189.0170  177.7500  143.9780 C   0  0  0  0  0  0  0  0  0  0  0  0
  188.4170  177.4320  146.3150 C   0  0  0  0  0  0  0  0  0  0  0  0
  188.7990  177.1810  147.6250 O   0  0  0  0  0  1  0  0  0  0  0  0
  190.1930  177.8230  143.0710 C   0  0  1  0  0  3  0  0  0  0  0  0
  189.3820  177.5170  145.2870 C   0  0  0  0  0  0  0  0  0  0  0  0
  186.7200  177.8630  144.6620 C   0  0  0  0  0  0  0  0  0  0  0  0
  185.8100  178.2740  142.7290 C   0  0  0  0  0  0  0  0  0  0  0  0
  187.1130  178.1810  142.5240 O   0  0  0  0  0  0  0  0  0  0  0  0
  187.0520  177.6090  145.9980 C   0  0  0  0  0  3  0  0  0  0  0  0
  185.4900  178.0790  144.0800 C   0  0  0  0  0  3  0  0  0  0  0  0
  187.6700  177.9340  143.6790 C   0  0  0  0  0  0  0  0  0  0  0  0
  191.3930  177.6950  144.0280 C   0  0  0  0  0  3  0  0  0  0  0  0
  184.8290  178.5190  141.6160 C   0  0  2  0  0  3  0  0  0  0  0  0
  183.4170  178.6220  142.1710 C   0  0  0  0  0  1  0  0  0  0  0  0
  184.8740  177.4410  140.5360 C   0  0  0  0  0  2  0  0  0  0  0  0
  182.7690  177.0410  139.2280 C   0  0  0  0  0  0  0  0  0  0  0  0
  183.9750  177.7940  139.4350 N   0  0  0  0  0  0  0  0  0  0  0  0
  181.8240  177.4640  138.2410 N   0  0  0  0  0  2  0  0  0  0  0  0
  182.5400  176.0070  139.9150 O   0  0  0  0  0  0  0  0  0  0  0  0
  180.1520  178.6110  140.5470 C   0  0  0  0  0  2  0  0  0  0  0  0
  179.4860  176.9850  138.9530 C   0  0  0  0  0  2  0  0  0  0  0  0
  179.9710  180.0190  141.1390 C   0  0  1  0  0  3  0  0  0  0  0  0
  179.2190  180.8120  138.8380 C   0  0  1  0  0  3  0  0  0  0  0  0
  180.6050  176.7250  137.9290 C   0  0  1  0  0  3  0  0  0  0  0  0
  179.2900  178.3830  139.3830 N   0  0  2  0  0  0  0  0  0  0  0  0
  179.9420  178.4260  136.1230 C   0  0  0  0  0  2  0  0  0  0  0  0
  179.5980  179.4040  138.3620 C   0  0  1  0  0  3  0  0  0  0  0  0
  180.1310  176.9540  136.4890 C   0  0  0  0  0  2  0  0  0  0  0  0
  178.9330  179.1140  137.0260 C   0  0  0  0  0  2  0  0  0  0  0  0
  178.9490  182.1830  140.8100 O   0  0  0  0  0  1  0  0  0  0  0  0
  178.9540  180.8620  140.3540 C   0  0  2  0  0  3  0  0  0  0  0  0
  180.2380  181.7020  138.4840 O   0  0  0  0  0  1  0  0  0  0  0  0
  179.5930  179.9270  142.5820 C   0  0  0  0  0  0  0  0  0  0  0  0
  179.1890  178.5240  144.6390 C   0  0  0  0  0  1  0  0  0  0  0  0
  179.5640  178.6570  143.2400 N   0  0  0  0  0  2  0  0  0  0  0  0
  179.2710  180.9760  143.2030 O   0  0  0  0  0  0  0  0  0  0  0  0
  184.0700  180.1670  138.9450 C   0  0  0  0  0  2  0  0  0  0  0  0
  184.2580  178.9070  138.5710 C   0  0  0  0  0  3  0  0  0  0  0  0
  189.9430  175.4740  142.6030 O   0  0  0  0  0  1  0  0  0  0  0  0
  190.2220  176.7080  142.0140 C   0  0  2  0  0  3  0  0  0  0  0  0
  191.5370  176.6430  141.2410 C   0  0  0  0  0  2  0  0  0  0  0  0
  191.3990  177.3080  139.8800 C   0  0  0  0  0  2  0  0  0  0  0  0
  191.3700  176.2830  138.7440 C   0  0  0  0  0  2  0  0  0  0  0  0
  192.7450  175.9400  138.1660 C   0  0  2  0  0  3  0  0  0  0  0  0
  193.8500  176.7140  138.8630 C   0  0  0  0  0  1  0  0  0  0  0  0
  192.7890  176.1670  136.7290 N   0  0  0  0  0  2  0  0  0  0  0  0
  189.2630  171.9960  135.5510 C   0  0  0  0  0  1  0  0  0  0  0  0
  193.5110  173.6080  137.0030 F   0  0  0  0  0  0  0  0  0  0  0  0
  191.9230  175.1790  136.1020 C   0  0  2  0  0  3  0  0  0  0  0  0
  190.7410  175.0220  136.8530 O   0  0  0  0  0  0  0  0  0  0  0  0
  192.6410  173.8320  135.9490 C   0  0  2  0  0  3  0  0  0  0  0  0
  191.6410  172.6740  135.8860 C   0  0  1  0  0  3  0  0  0  0  0  0
  190.2730  173.1100  135.3490 C   0  0  2  0  0  3  0  0  0  0  0  0
  192.1650  171.6480  135.0980 O   0  0  0  0  0  1  0  0  0  0  0  0
  189.7640  174.4080  136.0240 C   0  0  2  0  0  3  0  0  0  0  0  0
  186.8930  178.0110  136.0130 C   0  0  0  0  0  1  0  0  0  0  0  0
  186.8930  175.0150  135.9980 C   0  0  0  0  0  2  0  0  0  0  0  0
  187.7860  175.2110  134.7610 C   0  0  0  0  0  2  0  0  0  0  0  0
  187.5980  177.9800  138.3590 C   0  0  0  0  0  1  0  0  0  0  0  0
  187.2590  175.8200  137.2520 C   0  0  0  0  0  2  0  0  0  0  0  0
  189.2260  175.3500  135.0200 N   0  0  1  0  0  0  0  0  0  0  0  0
  187.7370  177.2570  137.0360 C   0  0  0  0  0  0  0  0  0  0  0  0
  189.2220  177.2610  136.6730 C   0  0  0  0  0  2  0  0  0  0  0  0
  189.5440  176.7660  135.2580 C   0  0  0  0  0  2  0  0  0  0  0  0
  2  6  1  0  0  0  0
  3  4  1  0  0  0  0
  5 41  1  6  0  0  0
  5  2  1  0  0  0  0
  5 13  1  0  0  0  0
  6  1  1  0  0  0  0
  6  3  2  0  0  0  0
  7 10  2  0  0  0  0
  8 11  2  0  0  0  0
  9  8  1  0  0  0  0
  9 12  1  0  0  0  0
 10  3  1  0  0  0  0
 11  7  1  0  0  0  0
 12  2  2  0  0  0  0
 12  7  1  0  0  0  0
 13  1  2  0  0  0  0
 14 15  1  1  0  0  0
 14  8  1  0  0  0  0
 16 14  1  0  0  0  0
 17 18  1  0  0  0  0
 17 20  2  0  0  0  0
 18 16  1  0  0  0  0
 19 17  1  0  0  0  0
 21 23  1  0  0  0  0
 23 34  1  1  0  0  0
 24 33  1  1  0  0  0
 24 32  1  0  0  0  0
 25 19  1  1  0  0  0
 25 22  1  0  0  0  0
 26 22  1  6  0  0  0
 26 21  1  0  0  0  0
 27 29  1  0  0  0  0
 27 30  1  0  0  0  0
 28 30  1  6  0  0  0
 28 24  1  0  0  0  0
 28 26  1  0  0  0  0
 29 25  1  0  0  0  0
 32 31  1  1  0  0  0
 32 23  1  0  0  0  0
 34 37  2  0  0  0  0
 34 36  1  0  0  0  0
 36 35  1  0  0  0  0
 39 38  2  0  0  0  0
 39 18  1  0  0  0  0
 41 40  1  1  0  0  0
 42 41  1  0  0  0  0
 43 42  1  0  0  0  0
 44 43  1  0  0  0  0
 45 44  1  0  0  0  0
 45 46  1  1  0  0  0
 47 45  1  0  0  0  0
 50 47  1  1  0  0  0
 50 51  1  0  0  0  0
 52 50  1  0  0  0  0
 52 49  1  1  0  0  0
 53 55  1  6  0  0  0
 53 52  1  0  0  0  0
 54 48  1  1  0  0  0
 54 53  1  0  0  0  0
 54 56  1  0  0  0  0
 56 51  1  6  0  0  0
 57 63  1  0  0  0  0
 58 61  1  0  0  0  0
 59 58  1  0  0  0  0
 62 59  1  1  0  0  0
 62 65  1  0  0  0  0
 62 56  1  0  0  0  0
 63 61  1  0  0  0  0
 63 60  1  0  0  0  0
 64 63  1  0  0  0  0
 65 64  1  0  0  0  0
M  END
>  <MODEL>
9

>  <REMARK>
 VINA RESULT:      -6.2      2.256      4.894
  Name = 
  14 active torsions:
  status: ('A' for Active; 'I' for Inactive)
    1  A    between atoms: C_3  and  C_17
    2  A    between atoms: N_11  and  C_24
    3  A    between atoms: N_11  and  C_50
    4  A    between atoms: N_13  and  C_43
    5  A    between atoms: N_19  and  C_65
    6  A    between atoms: C_23  and  C_31
    7  A    between atoms: C_23  and  C_36
    8  A    between atoms: C_24  and  C_25
    9  A    between atoms: C_25  and  C_42
   10  A    between atoms: C_28  and  N_45
   11  A    between atoms: C_29  and  C_35
   12  A    between atoms: C_29  and  C_36
   13  A    between atoms: C_31  and  C_32
   14  A    between atoms: C_35  and  N_45
                            x       y       z     vdW  Elec       q    Type
                         _______ _______ _______ _____ _____    ______ ____

>  <TORSDO>
F 14

$$$$
