=
 OpenBabel10222416023D

 67 73  0  0  1  0  0  0  0  0999 V2000
  184.6160  176.5700  136.8780 C   0  0  2  0  0  0  0  0  0  0  0  0
  186.1290  176.6270  134.9810 O   0  0  0  0  0  0  0  0  0  0  0  0
  184.2680  174.3060  136.8310 C   0  0  0  0  0  2  0  0  0  0  0  0
  185.4220  175.9860  135.7560 C   0  0  0  0  0  0  0  0  0  0  0  0
  185.1920  174.5450  135.6510 C   0  0  1  0  0  3  0  0  0  0  0  0
  184.2190  175.4560  137.6560 O   0  0  0  0  0  0  0  0  0  0  0  0
  182.5200  177.8340  137.2460 C   0  0  0  0  0  3  0  0  0  0  0  0
  183.0720  177.3080  134.9190 C   0  0  0  0  0  1  0  0  0  0  0  0
  183.3810  177.3010  136.3840 C   0  0  0  0  0  0  0  0  0  0  0  0
  181.3400  178.4640  136.8430 O   0  0  0  0  0  0  0  0  0  0  0  0
  180.9190  179.6580  137.4300 C   0  0  0  0  0  0  0  0  0  0  0  0
  181.1220  180.8980  136.8030 C   0  0  0  0  0  3  0  0  0  0  0  0
  180.7020  182.0810  137.4130 C   0  0  0  0  0  3  0  0  0  0  0  0
  180.0790  182.0360  138.6550 C   0  0  0  0  0  3  0  0  0  0  0  0
  180.2770  179.6200  138.6690 C   0  0  0  0  0  3  0  0  0  0  0  0
  179.8720  180.8050  139.2950 C   0  0  0  0  0  0  0  0  0  0  0  0
  179.2430  180.7370  140.5490 O   0  0  0  0  0  0  0  0  0  0  0  0
  179.8940  180.2010  141.6960 C   0  0  0  0  0  2  0  0  0  0  0  0
  178.9320  179.3430  142.5110 C   0  0  0  0  0  2  0  0  0  0  0  0
  179.4410  178.0540  142.7180 O   0  0  0  0  0  0  0  0  0  0  0  0
  180.1200  177.7610  141.5280 C   0  0  0  0  0  2  0  0  0  0  0  0
  180.2940  176.1260  139.6660 C   0  0  0  0  0  2  0  0  0  0  0  0
  180.3080  174.6140  139.7900 C   0  0  2  0  0  3  0  0  0  0  0  0
  179.4020  176.6520  140.7770 C   0  0  1  0  0  3  0  0  0  0  0  0
  180.0090  174.0260  138.5550 O   0  0  0  0  0  1  0  0  0  0  0  0
  179.6810  173.1640  141.5730 O   0  0  0  0  0  1  0  0  0  0  0  0
  179.1020  175.4730  141.6870 C   0  0  0  0  0  2  0  0  0  0  0  0
  179.2480  174.2440  140.8070 C   0  0  1  0  0  3  0  0  0  0  0  0
  186.4890  173.7640  135.8290 C   0  0  0  0  0  2  0  0  0  0  0  0
  187.5810  174.6810  136.1150 N   0  0  0  0  0  2  0  0  0  0  0  0
  188.9510  176.3890  134.7090 O   0  0  0  0  0  1  0  0  0  0  0  0
  190.0070  174.7870  136.1230 C   0  0  2  0  0  3  0  0  0  0  0  0
  188.7780  174.1150  135.5140 C   0  0  2  0  0  3  0  0  0  0  0  0
  189.5700  175.1370  134.7120 C   0  0  1  0  0  3  0  0  0  0  0  0
  191.2360  173.8840  136.0350 C   0  0  1  0  0  3  0  0  0  0  0  0
  191.5970  173.6150  134.5940 C   0  0  0  0  0  1  0  0  0  0  0  0
  193.9420  172.4260  136.8970 C   0  0  0  0  0  3  0  0  0  0  0  0
  193.7370  175.9020  138.1650 C   0  0  0  0  0  2  0  0  0  0  0  0
  194.3660  174.5590  137.9620 C   0  0  0  0  0  0  0  0  0  0  0  0
  193.5640  173.7400  137.1920 C   0  0  0  0  0  0  0  0  0  0  0  0
  196.0010  172.7970  138.1340 C   0  0  0  0  0  3  0  0  0  0  0  0
  191.5520  176.5590  137.3080 O   0  0  0  0  0  0  0  0  0  0  0  0
  192.3920  174.4170  136.7650 N   0  0  0  0  0  0  0  0  0  0  0  0
  195.1730  171.9580  137.3690 C   0  0  0  0  0  3  0  0  0  0  0  0
  192.4770  175.7090  137.3620 C   0  0  0  0  0  0  0  0  0  0  0  0
  195.5960  174.1090  138.4400 C   0  0  0  0  0  3  0  0  0  0  0  0
  185.4480  177.4880  137.7910 C   0  0  0  0  0  2  0  0  0  0  0  0
  186.7100  178.4880  136.9080 S   0  0  0  0  0  0  0  0  0  0  0  0
  188.0520  177.8980  137.9750 C   0  0  0  0  0  2  0  0  0  0  0  0
  187.8030  178.3180  139.4240 C   0  0  0  0  0  2  0  0  0  0  0  0
  189.6090  176.7520  139.8690 O   0  0  0  0  0  1  0  0  0  0  0  0
  188.9230  177.8620  140.3640 C   0  0  2  0  0  3  0  0  0  0  0  0
  188.4750  177.6870  141.8360 C   0  0  1  0  0  3  0  0  0  0  0  0
  189.3780  178.3280  142.6960 O   0  0  0  0  0  0  0  0  0  0  0  0
  190.2950  177.3650  143.1210 C   0  0  1  0  0  3  0  0  0  0  0  0
  191.6780  177.8070  142.6840 C   0  0  0  0  0  2  0  0  0  0  0  0
  191.2660  177.9530  144.1390 C   0  0  2  0  0  3  0  0  0  0  0  0
  191.4160  176.5350  146.2480 C   0  0  0  0  0  0  0  0  0  0  0  0
  192.0930  175.6900  146.8970 O   0  0  0  0  0  0  0  0  0  0  0  0
  191.8300  176.8580  144.9170 N   0  0  0  0  0  2  0  0  0  0  0  0
  190.2760  177.1760  146.8350 N   0  0  0  0  0  0  0  0  0  0  0  0
  189.3440  176.5100  147.4370 C   0  0  0  0  0  3  0  0  0  0  0  0
  188.5950  178.4730  148.7370 C   0  0  0  0  0  1  0  0  0  0  0  0
  188.1650  177.2270  147.9990 C   0  0  0  0  0  2  0  0  0  0  0  0
  187.0650  178.2200  142.0960 C   0  0  0  0  0  2  0  0  0  0  0  0
  184.8810  178.5470  143.5660 C   0  0  0  0  0  1  0  0  0  0  0  0
  186.5140  177.7640  143.7660 S   0  0  0  0  0  0  0  0  0  0  0  0
  1  6  1  0  0  0  0
  1 47  1  1  0  0  0
  2  4  2  0  0  0  0
  3  6  1  0  0  0  0
  4  1  1  0  0  0  0
  5  4  1  0  0  0  0
  5 29  1  1  0  0  0
  5  3  1  0  0  0  0
  8  9  1  0  0  0  0
  9  1  1  0  0  0  0
  9  7  2  0  0  0  0
 10  7  1  0  0  0  0
 10 11  1  0  0  0  0
 11 15  1  0  0  0  0
 12 13  1  0  0  0  0
 12 11  2  0  0  0  0
 13 14  2  0  0  0  0
 14 16  1  0  0  0  0
 15 16  2  0  0  0  0
 16 17  1  0  0  0  0
 17 18  1  0  0  0  0
 18 19  1  0  0  0  0
 19 20  1  0  0  0  0
 21 20  1  0  0  0  0
 22 23  1  0  0  0  0
 22 24  1  0  0  0  0
 23 25  1  6  0  0  0
 23 28  1  0  0  0  0
 24 21  1  1  0  0  0
 24 27  1  0  0  0  0
 28 26  1  1  0  0  0
 28 27  1  0  0  0  0
 29 30  1  0  0  0  0
 32 35  1  6  0  0  0
 33 30  1  1  0  0  0
 33 32  1  0  0  0  0
 34 31  1  1  0  0  0
 34 33  1  0  0  0  0
 34 32  1  0  0  0  0
 35 36  1  6  0  0  0
 35 43  1  0  0  0  0
 37 40  2  0  0  0  0
 37 44  1  0  0  0  0
 39 38  1  0  0  0  0
 39 46  2  0  0  0  0
 40 39  1  0  0  0  0
 41 46  1  0  0  0  0
 42 45  2  0  0  0  0
 43 40  1  0  0  0  0
 43 45  1  0  0  0  0
 44 41  2  0  0  0  0
 45 38  1  0  0  0  0
 48 47  1  0  0  0  0
 48 49  1  0  0  0  0
 49 50  1  0  0  0  0
 50 52  1  0  0  0  0
 52 51  1  6  0  0  0
 52 53  1  0  0  0  0
 53 65  1  6  0  0  0
 53 54  1  0  0  0  0
 55 54  1  6  0  0  0
 55 57  1  0  0  0  0
 56 55  1  0  0  0  0
 56 57  1  0  0  0  0
 57 60  1  1  0  0  0
 58 61  1  0  0  0  0
 58 59  2  0  0  0  0
 60 58  1  0  0  0  0
 61 62  2  0  0  0  0
 62 64  1  0  0  0  0
 64 63  1  0  0  0  0
 65 67  1  0  0  0  0
 66 67  1  0  0  0  0
M  END
>  <MODEL>
1

>  <REMARK>
 VINA RESULT:      -6.4      0.000      0.000
  Name = 
  27 active torsions:
  status: ('A' for Active; 'I' for Inactive)
    1  A    between atoms: N_1  and  C_20
    2  A    between atoms: C_2  and  C_42
    3  A    between atoms: C_2  and  S_61
    4  A    between atoms: O_3  and  C_19
    5  A    between atoms: O_3  and  C_42
    6  A    between atoms: C_6  and  C_22
    7  A    between atoms: C_6  and  C_60
    8  A    between atoms: C_7  and  O_48
    9  A    between atoms: O_11  and  C_37
   10  A    between atoms: O_11  and  C_67
   11  A    between atoms: C_14  and  O_48
   12  A    between atoms: C_15  and  S_21
   13  A    between atoms: C_15  and  C_50
   14  A    between atoms: C_17  and  C_67
   15  A    between atoms: S_21  and  C_22
   16  A    between atoms: N_26  and  C_49
   17  A    between atoms: N_26  and  C_55
   18  A    between atoms: N_28  and  C_53
   19  A    between atoms: O_32  and  C_63
   20  A    between atoms: O_32  and  C_64
   21  A    between atoms: N_35  and  C_47
   22  A    between atoms: C_37  and  C_63
   23  A    between atoms: C_39  and  C_47
   24  A    between atoms: C_40  and  C_42
   25  A    between atoms: C_40  and  C_50
   26  A    between atoms: C_45  and  C_66
   27  A    between atoms: C_49  and  C_54
                            x       y       z     vdW  Elec       q    Type
                         _______ _______ _______ _____ _____    ______ ____

>  <TORSDO>
F 27

$$$$
=
 OpenBabel10222416023D

 67 73  0  0  1  0  0  0  0  0999 V2000
  187.9880  177.6050  137.9550 C   0  0  2  0  0  0  0  0  0  0  0  0
  188.8990  175.3570  137.8850 O   0  0  0  0  0  0  0  0  0  0  0  0
  189.3950  178.4770  136.3700 C   0  0  0  0  0  2  0  0  0  0  0  0
  188.8990  176.5150  137.4740 C   0  0  0  0  0  0  0  0  0  0  0  0
  189.8540  177.0350  136.4950 C   0  0  1  0  0  3  0  0  0  0  0  0
  188.1450  178.6490  137.0120 O   0  0  0  0  0  0  0  0  0  0  0  0
  187.7260  177.6870  140.4140 C   0  0  0  0  0  3  0  0  0  0  0  0
  189.3970  179.1970  139.4540 C   0  0  0  0  0  1  0  0  0  0  0  0
  188.3710  178.1130  139.3320 C   0  0  0  0  0  0  0  0  0  0  0  0
  188.0000  178.1680  141.6970 O   0  0  0  0  0  0  0  0  0  0  0  0
  188.9350  177.5410  142.5210 C   0  0  0  0  0  0  0  0  0  0  0  0
  189.6770  176.4330  142.0840 C   0  0  0  0  0  3  0  0  0  0  0  0
  190.5990  175.8140  142.9290 C   0  0  0  0  0  3  0  0  0  0  0  0
  190.7870  176.2950  144.2200 C   0  0  0  0  0  3  0  0  0  0  0  0
  189.1420  178.0290  143.8130 C   0  0  0  0  0  3  0  0  0  0  0  0
  190.0510  177.4000  144.6730 C   0  0  0  0  0  0  0  0  0  0  0  0
  190.2250  177.9040  145.9720 O   0  0  0  0  0  0  0  0  0  0  0  0
  189.4090  177.4910  147.0620 C   0  0  0  0  0  2  0  0  0  0  0  0
  187.9790  177.2330  146.6000 C   0  0  0  0  0  2  0  0  0  0  0  0
  187.0900  178.1810  147.1240 O   0  0  0  0  0  0  0  0  0  0  0  0
  185.8420  177.7950  146.6170 C   0  0  0  0  0  2  0  0  0  0  0  0
  185.7060  178.1910  144.1690 C   0  0  0  0  0  2  0  0  0  0  0  0
  184.4390  178.3050  143.3420 C   0  0  2  0  0  3  0  0  0  0  0  0
  185.3930  178.7660  145.5390 C   0  0  1  0  0  3  0  0  0  0  0  0
  184.7180  178.9190  142.1150 O   0  0  0  0  0  1  0  0  0  0  0  0
  182.1700  178.6850  143.9620 O   0  0  0  0  0  1  0  0  0  0  0  0
  183.8900  178.9850  145.5840 C   0  0  0  0  0  2  0  0  0  0  0  0
  183.4690  179.1570  144.1340 C   0  0  1  0  0  3  0  0  0  0  0  0
  189.7190  176.3190  135.1570 C   0  0  0  0  0  2  0  0  0  0  0  0
  191.0010  175.7520  134.7700 N   0  0  0  0  0  2  0  0  0  0  0  0
  191.5510  173.3580  135.6290 O   0  0  0  0  0  1  0  0  0  0  0  0
  193.1800  175.0980  135.6200 C   0  0  2  0  0  3  0  0  0  0  0  0
  191.8340  175.7360  135.9610 C   0  0  2  0  0  3  0  0  0  0  0  0
  192.1560  174.3260  136.4340 C   0  0  1  0  0  3  0  0  0  0  0  0
  194.2790  175.5800  136.5660 C   0  0  1  0  0  3  0  0  0  0  0  0
  193.8750  175.3670  138.0050 C   0  0  0  0  0  1  0  0  0  0  0  0
  195.3060  172.6470  137.2970 C   0  0  0  0  0  3  0  0  0  0  0  0
  197.9470  174.7270  135.7360 C   0  0  0  0  0  2  0  0  0  0  0  0
  197.3700  173.4910  136.3520 C   0  0  0  0  0  0  0  0  0  0  0  0
  196.0410  173.6660  136.6820 C   0  0  0  0  0  0  0  0  0  0  0  0
  197.2800  171.2330  137.1880 C   0  0  0  0  0  3  0  0  0  0  0  0
  196.7310  176.8140  135.4070 O   0  0  0  0  0  0  0  0  0  0  0  0
  195.5790  174.9530  136.2990 N   0  0  0  0  0  0  0  0  0  0  0  0
  195.9340  171.4210  137.5440 C   0  0  0  0  0  3  0  0  0  0  0  0
  196.7220  175.6050  135.7500 C   0  0  0  0  0  0  0  0  0  0  0  0
  198.0110  172.2760  136.5900 C   0  0  0  0  0  3  0  0  0  0  0  0
  186.5050  177.1930  137.9330 C   0  0  0  0  0  2  0  0  0  0  0  0
  185.3290  178.5960  138.0730 S   0  0  0  0  0  0  0  0  0  0  0  0
  184.0740  177.7590  137.0650 C   0  0  0  0  0  2  0  0  0  0  0  0
  184.7360  176.7600  136.1160 C   0  0  0  0  0  2  0  0  0  0  0  0
  183.7120  175.1630  134.5940 O   0  0  0  0  0  1  0  0  0  0  0  0
  183.9040  175.4860  135.9390 C   0  0  2  0  0  3  0  0  0  0  0  0
  182.5890  175.4740  136.7560 C   0  0  1  0  0  3  0  0  0  0  0  0
  181.5750  174.8290  136.0330 O   0  0  0  0  0  0  0  0  0  0  0  0
  181.5290  173.5080  136.4810 C   0  0  1  0  0  3  0  0  0  0  0  0
  180.2720  172.8670  135.9250 C   0  0  0  0  0  2  0  0  0  0  0  0
  181.6210  172.5350  135.3110 C   0  0  2  0  0  3  0  0  0  0  0  0
  183.4660  170.9280  136.0130 C   0  0  0  0  0  0  0  0  0  0  0  0
  183.7690  169.7330  136.2810 O   0  0  0  0  0  0  0  0  0  0  0  0
  182.0870  171.2520  135.8200 N   0  0  0  0  0  2  0  0  0  0  0  0
  184.4800  171.9350  135.8800 N   0  0  0  0  0  0  0  0  0  0  0  0
  185.7410  171.6570  135.9540 C   0  0  0  0  0  3  0  0  0  0  0  0
  188.1420  172.2220  136.0920 C   0  0  0  0  0  1  0  0  0  0  0  0
  186.7490  172.7500  135.8430 C   0  0  0  0  0  2  0  0  0  0  0  0
  182.7430  174.7990  138.1200 C   0  0  0  0  0  2  0  0  0  0  0  0
  180.5180  175.6660  139.2760 C   0  0  0  0  0  1  0  0  0  0  0  0
  182.3080  175.9560  139.4510 S   0  0  0  0  0  0  0  0  0  0  0  0
  1 47  1  1  0  0  0
  1  9  1  0  0  0  0
  3  5  1  0  0  0  0
  3  6  1  0  0  0  0
  4  2  2  0  0  0  0
  4  1  1  0  0  0  0
  5 29  1  6  0  0  0
  5  4  1  0  0  0  0
  6  1  1  0  0  0  0
  7 10  1  0  0  0  0
  9  8  1  0  0  0  0
  9  7  2  0  0  0  0
 10 11  1  0  0  0  0
 11 15  1  0  0  0  0
 12 11  2  0  0  0  0
 12 13  1  0  0  0  0
 13 14  2  0  0  0  0
 14 16  1  0  0  0  0
 15 16  2  0  0  0  0
 16 17  1  0  0  0  0
 17 18  1  0  0  0  0
 19 18  1  0  0  0  0
 19 20  1  0  0  0  0
 21 20  1  0  0  0  0
 22 24  1  0  0  0  0
 23 25  1  6  0  0  0
 23 28  1  0  0  0  0
 23 22  1  0  0  0  0
 24 27  1  0  0  0  0
 24 21  1  1  0  0  0
 28 26  1  1  0  0  0
 28 27  1  0  0  0  0
 30 29  1  0  0  0  0
 32 33  1  0  0  0  0
 32 34  1  0  0  0  0
 32 35  1  1  0  0  0
 33 30  1  6  0  0  0
 33 34  1  0  0  0  0
 34 31  1  6  0  0  0
 35 36  1  1  0  0  0
 37 44  1  0  0  0  0
 38 45  1  0  0  0  0
 38 39  1  0  0  0  0
 39 46  2  0  0  0  0
 39 40  1  0  0  0  0
 40 37  2  0  0  0  0
 41 44  2  0  0  0  0
 42 45  2  0  0  0  0
 43 35  1  0  0  0  0
 43 40  1  0  0  0  0
 45 43  1  0  0  0  0
 46 41  1  0  0  0  0
 47 48  1  0  0  0  0
 49 48  1  0  0  0  0
 50 49  1  0  0  0  0
 52 51  1  6  0  0  0
 52 50  1  0  0  0  0
 52 53  1  0  0  0  0
 53 65  1  1  0  0  0
 54 53  1  0  0  0  0
 55 54  1  6  0  0  0
 56 55  1  0  0  0  0
 57 60  1  1  0  0  0
 57 56  1  0  0  0  0
 57 55  1  0  0  0  0
 58 59  2  0  0  0  0
 60 58  1  0  0  0  0
 61 62  2  0  0  0  0
 61 58  1  0  0  0  0
 64 62  1  0  0  0  0
 64 63  1  0  0  0  0
 65 67  1  0  0  0  0
 66 67  1  0  0  0  0
M  END
>  <MODEL>
2

>  <REMARK>
 VINA RESULT:      -6.1      3.313      8.328
  Name = 
  27 active torsions:
  status: ('A' for Active; 'I' for Inactive)
    1  A    between atoms: N_1  and  C_20
    2  A    between atoms: C_2  and  C_42
    3  A    between atoms: C_2  and  S_61
    4  A    between atoms: O_3  and  C_19
    5  A    between atoms: O_3  and  C_42
    6  A    between atoms: C_6  and  C_22
    7  A    between atoms: C_6  and  C_60
    8  A    between atoms: C_7  and  O_48
    9  A    between atoms: O_11  and  C_37
   10  A    between atoms: O_11  and  C_67
   11  A    between atoms: C_14  and  O_48
   12  A    between atoms: C_15  and  S_21
   13  A    between atoms: C_15  and  C_50
   14  A    between atoms: C_17  and  C_67
   15  A    between atoms: S_21  and  C_22
   16  A    between atoms: N_26  and  C_49
   17  A    between atoms: N_26  and  C_55
   18  A    between atoms: N_28  and  C_53
   19  A    between atoms: O_32  and  C_63
   20  A    between atoms: O_32  and  C_64
   21  A    between atoms: N_35  and  C_47
   22  A    between atoms: C_37  and  C_63
   23  A    between atoms: C_39  and  C_47
   24  A    between atoms: C_40  and  C_42
   25  A    between atoms: C_40  and  C_50
   26  A    between atoms: C_45  and  C_66
   27  A    between atoms: C_49  and  C_54
                            x       y       z     vdW  Elec       q    Type
                         _______ _______ _______ _____ _____    ______ ____

>  <TORSDO>
F 27

$$$$
=
 OpenBabel10222416023D

 67 73  0  0  1  0  0  0  0  0999 V2000
  187.9100  177.9450  138.6360 C   0  0  2  0  0  0  0  0  0  0  0  0
  188.4970  175.6040  138.3840 O   0  0  0  0  0  0  0  0  0  0  0  0
  189.3850  178.7260  137.0660 C   0  0  0  0  0  2  0  0  0  0  0  0
  188.6490  176.7780  138.0520 C   0  0  0  0  0  0  0  0  0  0  0  0
  189.6430  177.2300  137.0780 C   0  0  1  0  0  3  0  0  0  0  0  0
  188.1870  179.0220  137.7600 O   0  0  0  0  0  0  0  0  0  0  0  0
  188.2060  177.4550  141.0430 C   0  0  0  0  0  3  0  0  0  0  0  0
  188.9690  179.6550  140.2850 C   0  0  0  0  0  1  0  0  0  0  0  0
  188.3930  178.2960  140.0300 C   0  0  0  0  0  0  0  0  0  0  0  0
  188.5780  177.7580  142.3550 O   0  0  0  0  0  0  0  0  0  0  0  0
  189.5930  177.0510  143.0010 C   0  0  0  0  0  0  0  0  0  0  0  0
  190.0020  175.7820  142.5620 C   0  0  0  0  0  3  0  0  0  0  0  0
  191.0120  175.0880  143.2300 C   0  0  0  0  0  3  0  0  0  0  0  0
  191.6220  175.6550  144.3430 C   0  0  0  0  0  3  0  0  0  0  0  0
  190.2230  177.6210  144.1100 C   0  0  0  0  0  3  0  0  0  0  0  0
  191.2230  176.9210  144.7970 C   0  0  0  0  0  0  0  0  0  0  0  0
  191.8250  177.5130  145.9180 O   0  0  0  0  0  0  0  0  0  0  0  0
  191.6060  177.0340  147.2400 C   0  0  0  0  0  2  0  0  0  0  0  0
  190.1740  176.5360  147.4030 C   0  0  0  0  0  2  0  0  0  0  0  0
  189.3590  177.5040  148.0050 O   0  0  0  0  0  0  0  0  0  0  0  0
  188.0610  177.1460  147.6190 C   0  0  0  0  0  2  0  0  0  0  0  0
  187.1410  177.4870  145.3360 C   0  0  0  0  0  2  0  0  0  0  0  0
  185.7310  177.9230  144.9870 C   0  0  2  0  0  3  0  0  0  0  0  0
  187.5040  178.1690  146.6430 C   0  0  1  0  0  3  0  0  0  0  0  0
  185.6840  178.3960  143.6700 O   0  0  0  0  0  1  0  0  0  0  0  0
  184.0160  178.9370  146.2940 O   0  0  0  0  0  1  0  0  0  0  0  0
  186.2260  178.7990  147.1730 C   0  0  0  0  0  2  0  0  0  0  0  0
  185.3610  179.0350  145.9470 C   0  0  1  0  0  3  0  0  0  0  0  0
  189.3770  176.6360  135.7000 C   0  0  0  0  0  2  0  0  0  0  0  0
  190.2700  175.5120  135.4680 N   0  0  0  0  0  2  0  0  0  0  0  0
  191.0090  173.0360  135.7770 O   0  0  0  0  0  1  0  0  0  0  0  0
  188.7230  173.6400  135.4730 C   0  0  2  0  0  3  0  0  0  0  0  0
  189.5610  174.5800  134.6070 C   0  0  2  0  0  3  0  0  0  0  0  0
  189.9980  173.1380  134.8190 C   0  0  1  0  0  3  0  0  0  0  0  0
  187.5320  173.0810  134.6970 C   0  0  1  0  0  3  0  0  0  0  0  0
  187.5950  171.5730  134.6380 C   0  0  0  0  0  1  0  0  0  0  0  0
  185.0900  171.3400  135.7900 C   0  0  0  0  0  3  0  0  0  0  0  0
  184.3360  174.9680  135.7420 C   0  0  0  0  0  2  0  0  0  0  0  0
  184.0530  173.5180  135.9890 C   0  0  0  0  0  0  0  0  0  0  0  0
  185.1400  172.7320  135.6640 C   0  0  0  0  0  0  0  0  0  0  0  0
  182.8240  171.5510  136.6400 C   0  0  0  0  0  3  0  0  0  0  0  0
  186.4190  175.8420  134.8260 O   0  0  0  0  0  0  0  0  0  0  0  0
  186.2400  173.5200  135.2360 N   0  0  0  0  0  0  0  0  0  0  0  0
  183.9230  170.7510  136.2880 C   0  0  0  0  0  3  0  0  0  0  0  0
  185.7600  174.8630  135.2580 C   0  0  0  0  0  0  0  0  0  0  0  0
  182.8820  172.9490  136.4870 C   0  0  0  0  0  3  0  0  0  0  0  0
  186.3840  177.7420  138.6370 C   0  0  0  0  0  2  0  0  0  0  0  0
  185.5340  178.4020  137.1490 S   0  0  0  0  0  0  0  0  0  0  0  0
  184.0030  178.7350  138.0640 C   0  0  0  0  0  2  0  0  0  0  0  0
  183.8800  177.7860  139.2550 C   0  0  0  0  0  2  0  0  0  0  0  0
  183.4730  177.8850  141.6510 O   0  0  0  0  0  1  0  0  0  0  0  0
  183.0900  178.4050  140.4140 C   0  0  2  0  0  3  0  0  0  0  0  0
  181.5560  178.3970  140.2040 C   0  0  1  0  0  3  0  0  0  0  0  0
  181.0280  177.1420  140.5400 O   0  0  0  0  0  0  0  0  0  0  0  0
  181.0710  176.3560  139.3870 C   0  0  1  0  0  3  0  0  0  0  0  0
  180.0640  175.2350  139.5440 C   0  0  0  0  0  2  0  0  0  0  0  0
  179.7420  176.4140  138.6420 C   0  0  2  0  0  3  0  0  0  0  0  0
  179.8470  176.9530  136.1560 C   0  0  0  0  0  0  0  0  0  0  0  0
  179.8960  176.4880  134.9840 O   0  0  0  0  0  0  0  0  0  0  0  0
  179.9820  176.0450  137.2530 N   0  0  0  0  0  2  0  0  0  0  0  0
  179.6360  178.3530  136.3870 N   0  0  0  0  0  0  0  0  0  0  0  0
  180.0150  179.2560  135.5420 C   0  0  0  0  0  3  0  0  0  0  0  0
  180.6560  181.5700  134.9620 C   0  0  0  0  0  1  0  0  0  0  0  0
  179.8010  180.6980  135.8520 C   0  0  0  0  0  2  0  0  0  0  0  0
  180.8410  179.4790  141.0150 C   0  0  0  0  0  2  0  0  0  0  0  0
  179.0870  180.0650  142.9170 C   0  0  0  0  0  1  0  0  0  0  0  0
  180.4310  178.8610  142.6730 S   0  0  0  0  0  0  0  0  0  0  0  0
  1 47  1  1  0  0  0
  1  9  1  0  0  0  0
  3  5  1  0  0  0  0
  3  6  1  0  0  0  0
  4  2  2  0  0  0  0
  4  1  1  0  0  0  0
  5 29  1  6  0  0  0
  5  4  1  0  0  0  0
  6  1  1  0  0  0  0
  7 10  1  0  0  0  0
  9  8  1  0  0  0  0
  9  7  2  0  0  0  0
 10 11  1  0  0  0  0
 11 15  1  0  0  0  0
 12 11  2  0  0  0  0
 12 13  1  0  0  0  0
 13 14  2  0  0  0  0
 14 16  1  0  0  0  0
 15 16  2  0  0  0  0
 16 17  1  0  0  0  0
 17 18  1  0  0  0  0
 18 19  1  0  0  0  0
 19 20  1  0  0  0  0
 21 20  1  0  0  0  0
 22 24  1  0  0  0  0
 23 25  1  6  0  0  0
 23 22  1  0  0  0  0
 23 28  1  0  0  0  0
 24 27  1  0  0  0  0
 24 21  1  1  0  0  0
 28 26  1  1  0  0  0
 28 27  1  0  0  0  0
 30 29  1  0  0  0  0
 32 35  1  6  0  0  0
 33 34  1  0  0  0  0
 33 30  1  1  0  0  0
 33 32  1  0  0  0  0
 34 32  1  0  0  0  0
 34 31  1  1  0  0  0
 35 36  1  1  0  0  0
 35 43  1  0  0  0  0
 37 44  1  0  0  0  0
 38 39  1  0  0  0  0
 39 46  2  0  0  0  0
 40 37  2  0  0  0  0
 40 39  1  0  0  0  0
 42 45  2  0  0  0  0
 43 45  1  0  0  0  0
 43 40  1  0  0  0  0
 44 41  2  0  0  0  0
 45 38  1  0  0  0  0
 46 41  1  0  0  0  0
 48 49  1  0  0  0  0
 48 47  1  0  0  0  0
 49 50  1  0  0  0  0
 50 52  1  0  0  0  0
 52 51  1  1  0  0  0
 53 52  1  0  0  0  0
 53 54  1  0  0  0  0
 53 65  1  1  0  0  0
 55 56  1  0  0  0  0
 55 54  1  1  0  0  0
 57 60  1  6  0  0  0
 57 55  1  0  0  0  0
 57 56  1  0  0  0  0
 58 61  1  0  0  0  0
 58 60  1  0  0  0  0
 59 58  2  0  0  0  0
 62 64  1  0  0  0  0
 62 61  2  0  0  0  0
 63 64  1  0  0  0  0
 65 67  1  0  0  0  0
 67 66  1  0  0  0  0
M  END
>  <MODEL>
3

>  <REMARK>
 VINA RESULT:      -5.4      3.287      9.609
  Name = 
  27 active torsions:
  status: ('A' for Active; 'I' for Inactive)
    1  A    between atoms: N_1  and  C_20
    2  A    between atoms: C_2  and  C_42
    3  A    between atoms: C_2  and  S_61
    4  A    between atoms: O_3  and  C_19
    5  A    between atoms: O_3  and  C_42
    6  A    between atoms: C_6  and  C_22
    7  A    between atoms: C_6  and  C_60
    8  A    between atoms: C_7  and  O_48
    9  A    between atoms: O_11  and  C_37
   10  A    between atoms: O_11  and  C_67
   11  A    between atoms: C_14  and  O_48
   12  A    between atoms: C_15  and  S_21
   13  A    between atoms: C_15  and  C_50
   14  A    between atoms: C_17  and  C_67
   15  A    between atoms: S_21  and  C_22
   16  A    between atoms: N_26  and  C_49
   17  A    between atoms: N_26  and  C_55
   18  A    between atoms: N_28  and  C_53
   19  A    between atoms: O_32  and  C_63
   20  A    between atoms: O_32  and  C_64
   21  A    between atoms: N_35  and  C_47
   22  A    between atoms: C_37  and  C_63
   23  A    between atoms: C_39  and  C_47
   24  A    between atoms: C_40  and  C_42
   25  A    between atoms: C_40  and  C_50
   26  A    between atoms: C_45  and  C_66
   27  A    between atoms: C_49  and  C_54
                            x       y       z     vdW  Elec       q    Type
                         _______ _______ _______ _____ _____    ______ ____

>  <TORSDO>
F 27

$$$$
=
 OpenBabel10222416023D

 67 73  0  0  1  0  0  0  0  0999 V2000
  187.8960  177.8330  138.4900 C   0  0  2  0  0  0  0  0  0  0  0  0
  188.3170  175.4470  138.3500 O   0  0  0  0  0  0  0  0  0  0  0  0
  189.2950  178.4180  136.7720 C   0  0  0  0  0  2  0  0  0  0  0  0
  188.5150  176.5860  137.9320 C   0  0  0  0  0  0  0  0  0  0  0  0
  189.4600  176.9120  136.8630 C   0  0  1  0  0  3  0  0  0  0  0  0
  188.1720  178.8350  137.5290 O   0  0  0  0  0  0  0  0  0  0  0  0
  188.2050  177.5650  140.9300 C   0  0  0  0  0  3  0  0  0  0  0  0
  189.3410  179.4730  139.8990 C   0  0  0  0  0  1  0  0  0  0  0  0
  188.5030  178.2350  139.8210 C   0  0  0  0  0  0  0  0  0  0  0  0
  188.6910  177.9320  142.1880 O   0  0  0  0  0  0  0  0  0  0  0  0
  189.6800  177.1860  142.8290 C   0  0  0  0  0  0  0  0  0  0  0  0
  190.0410  175.9040  142.3830 C   0  0  0  0  0  3  0  0  0  0  0  0
  191.0270  175.1710  143.0460 C   0  0  0  0  0  3  0  0  0  0  0  0
  191.6590  175.7100  144.1600 C   0  0  0  0  0  3  0  0  0  0  0  0
  190.3330  177.7270  143.9380 C   0  0  0  0  0  3  0  0  0  0  0  0
  191.3090  176.9890  144.6190 C   0  0  0  0  0  0  0  0  0  0  0  0
  191.9350  177.5540  145.7410 O   0  0  0  0  0  0  0  0  0  0  0  0
  191.8010  176.9990  147.0450 C   0  0  0  0  0  2  0  0  0  0  0  0
  190.3580  176.5850  147.3100 C   0  0  0  0  0  2  0  0  0  0  0  0
  189.5770  177.6720  147.7230 O   0  0  0  0  0  0  0  0  0  0  0  0
  188.2710  177.3080  147.3740 C   0  0  0  0  0  2  0  0  0  0  0  0
  187.3560  177.5140  145.0730 C   0  0  0  0  0  2  0  0  0  0  0  0
  185.9480  177.9320  144.6950 C   0  0  2  0  0  3  0  0  0  0  0  0
  187.7190  178.2720  146.3380 C   0  0  1  0  0  3  0  0  0  0  0  0
  185.9050  178.3250  143.3530 O   0  0  0  0  0  1  0  0  0  0  0  0
  184.2330  179.0270  145.9350 O   0  0  0  0  0  1  0  0  0  0  0  0
  186.4420  178.9360  146.8260 C   0  0  0  0  0  2  0  0  0  0  0  0
  185.5790  179.1000  145.5860 C   0  0  1  0  0  3  0  0  0  0  0  0
  189.0550  176.2550  135.5490 C   0  0  0  0  0  2  0  0  0  0  0  0
  189.9760  175.1730  135.2350 N   0  0  0  0  0  2  0  0  0  0  0  0
  191.1700  172.8760  135.4950 O   0  0  0  0  0  1  0  0  0  0  0  0
  192.3550  174.9380  135.6580 C   0  0  2  0  0  3  0  0  0  0  0  0
  190.9790  175.1530  136.2870 C   0  0  2  0  0  3  0  0  0  0  0  0
  191.6750  173.8060  136.4070 C   0  0  1  0  0  3  0  0  0  0  0  0
  193.4660  175.5010  136.5440 C   0  0  1  0  0  3  0  0  0  0  0  0
  193.4780  174.8090  137.8870 C   0  0  0  0  0  1  0  0  0  0  0  0
  195.2630  172.9470  135.8840 C   0  0  0  0  0  3  0  0  0  0  0  0
  196.9790  176.1350  135.0870 C   0  0  0  0  0  2  0  0  0  0  0  0
  196.8390  174.6470  135.1830 C   0  0  0  0  0  0  0  0  0  0  0  0
  195.6030  174.2890  135.6830 C   0  0  0  0  0  0  0  0  0  0  0  0
  197.4410  172.3210  135.0060 C   0  0  0  0  0  3  0  0  0  0  0  0
  195.2770  177.7380  135.7760 O   0  0  0  0  0  0  0  0  0  0  0  0
  194.7900  175.4290  135.9170 N   0  0  0  0  0  0  0  0  0  0  0  0
  196.1910  171.9600  135.5350 C   0  0  0  0  0  3  0  0  0  0  0  0
  195.6150  176.5430  135.5820 C   0  0  0  0  0  0  0  0  0  0  0  0
  197.7750  173.6760  134.8300 C   0  0  0  0  0  3  0  0  0  0  0  0
  186.3640  177.7320  138.6120 C   0  0  0  0  0  2  0  0  0  0  0  0
  185.5000  177.4180  137.0230 S   0  0  0  0  0  0  0  0  0  0  0  0
  183.9420  178.1230  137.6300 C   0  0  0  0  0  2  0  0  0  0  0  0
  183.9540  178.1980  139.1560 C   0  0  0  0  0  2  0  0  0  0  0  0
  183.0540  179.3930  141.0740 O   0  0  0  0  0  1  0  0  0  0  0  0
  182.9250  179.1960  139.6980 C   0  0  2  0  0  3  0  0  0  0  0  0
  181.4690  178.8960  139.2650 C   0  0  1  0  0  3  0  0  0  0  0  0
  180.5930  179.0940  140.3420 O   0  0  0  0  0  0  0  0  0  0  0  0
  180.3760  177.8460  140.9300 C   0  0  1  0  0  3  0  0  0  0  0  0
  179.0590  177.9010  141.6780 C   0  0  0  0  0  2  0  0  0  0  0  0
  179.1370  177.1790  140.3440 C   0  0  2  0  0  3  0  0  0  0  0  0
  179.7200  174.8170  139.5930 C   0  0  0  0  0  0  0  0  0  0  0  0
  179.5960  173.5830  139.8250 O   0  0  0  0  0  0  0  0  0  0  0  0
  179.2410  175.7440  140.5720 N   0  0  0  0  0  2  0  0  0  0  0  0
  180.3030  175.2840  138.3680 N   0  0  0  0  0  0  0  0  0  0  0  0
  181.0300  174.5220  137.6170 C   0  0  0  0  0  3  0  0  0  0  0  0
  182.9890  174.4450  136.1140 C   0  0  0  0  0  1  0  0  0  0  0  0
  181.6390  175.0710  136.3720 C   0  0  0  0  0  2  0  0  0  0  0  0
  181.0140  179.7490  138.0810 C   0  0  0  0  0  2  0  0  0  0  0  0
  179.1600  180.4620  136.3210 C   0  0  0  0  0  1  0  0  0  0  0  0
  179.6320  178.9480  137.2160 S   0  0  0  0  0  0  0  0  0  0  0  0
  1 47  1  1  0  0  0
  1  9  1  0  0  0  0
  3  5  1  0  0  0  0
  3  6  1  0  0  0  0
  4  2  2  0  0  0  0
  4  1  1  0  0  0  0
  5 29  1  6  0  0  0
  5  4  1  0  0  0  0
  6  1  1  0  0  0  0
  7 10  1  0  0  0  0
  9  8  1  0  0  0  0
  9  7  2  0  0  0  0
 10 11  1  0  0  0  0
 11 15  1  0  0  0  0
 12 11  2  0  0  0  0
 12 13  1  0  0  0  0
 13 14  2  0  0  0  0
 14 16  1  0  0  0  0
 15 16  2  0  0  0  0
 16 17  1  0  0  0  0
 17 18  1  0  0  0  0
 18 19  1  0  0  0  0
 19 20  1  0  0  0  0
 21 20  1  0  0  0  0
 22 24  1  0  0  0  0
 23 25  1  6  0  0  0
 23 22  1  0  0  0  0
 23 28  1  0  0  0  0
 24 27  1  0  0  0  0
 24 21  1  1  0  0  0
 28 26  1  1  0  0  0
 28 27  1  0  0  0  0
 30 29  1  0  0  0  0
 32 33  1  0  0  0  0
 32 34  1  0  0  0  0
 32 35  1  1  0  0  0
 33 30  1  6  0  0  0
 33 34  1  0  0  0  0
 34 31  1  6  0  0  0
 35 36  1  1  0  0  0
 38 39  1  0  0  0  0
 38 45  1  0  0  0  0
 39 40  2  0  0  0  0
 40 37  1  0  0  0  0
 40 43  1  0  0  0  0
 41 44  1  0  0  0  0
 43 35  1  0  0  0  0
 44 37  2  0  0  0  0
 45 42  2  0  0  0  0
 45 43  1  0  0  0  0
 46 41  2  0  0  0  0
 46 39  1  0  0  0  0
 48 49  1  0  0  0  0
 48 47  1  0  0  0  0
 49 50  1  0  0  0  0
 50 52  1  0  0  0  0
 52 51  1  1  0  0  0
 53 65  1  6  0  0  0
 53 52  1  0  0  0  0
 53 54  1  0  0  0  0
 55 54  1  6  0  0  0
 55 56  1  0  0  0  0
 57 60  1  1  0  0  0
 57 55  1  0  0  0  0
 57 56  1  0  0  0  0
 58 59  2  0  0  0  0
 58 60  1  0  0  0  0
 61 58  1  0  0  0  0
 62 61  2  0  0  0  0
 63 64  1  0  0  0  0
 64 62  1  0  0  0  0
 66 67  1  0  0  0  0
 67 65  1  0  0  0  0
M  END
>  <MODEL>
4

>  <REMARK>
 VINA RESULT:      -5.4      2.854      8.729
  Name = 
  27 active torsions:
  status: ('A' for Active; 'I' for Inactive)
    1  A    between atoms: N_1  and  C_20
    2  A    between atoms: C_2  and  C_42
    3  A    between atoms: C_2  and  S_61
    4  A    between atoms: O_3  and  C_19
    5  A    between atoms: O_3  and  C_42
    6  A    between atoms: C_6  and  C_22
    7  A    between atoms: C_6  and  C_60
    8  A    between atoms: C_7  and  O_48
    9  A    between atoms: O_11  and  C_37
   10  A    between atoms: O_11  and  C_67
   11  A    between atoms: C_14  and  O_48
   12  A    between atoms: C_15  and  S_21
   13  A    between atoms: C_15  and  C_50
   14  A    between atoms: C_17  and  C_67
   15  A    between atoms: S_21  and  C_22
   16  A    between atoms: N_26  and  C_49
   17  A    between atoms: N_26  and  C_55
   18  A    between atoms: N_28  and  C_53
   19  A    between atoms: O_32  and  C_63
   20  A    between atoms: O_32  and  C_64
   21  A    between atoms: N_35  and  C_47
   22  A    between atoms: C_37  and  C_63
   23  A    between atoms: C_39  and  C_47
   24  A    between atoms: C_40  and  C_42
   25  A    between atoms: C_40  and  C_50
   26  A    between atoms: C_45  and  C_66
   27  A    between atoms: C_49  and  C_54
                            x       y       z     vdW  Elec       q    Type
                         _______ _______ _______ _____ _____    ______ ____

>  <TORSDO>
F 27

$$$$
=
 OpenBabel10222416023D

 67 73  0  0  1  0  0  0  0  0999 V2000
  184.9850  176.5190  136.6480 C   0  0  2  0  0  0  0  0  0  0  0  0
  186.3310  176.2730  134.6430 O   0  0  0  0  0  0  0  0  0  0  0  0
  184.5710  174.2830  136.9270 C   0  0  0  0  0  2  0  0  0  0  0  0
  185.6750  175.7650  135.5500 C   0  0  0  0  0  0  0  0  0  0  0  0
  185.3980  174.3320  135.6550 C   0  0  1  0  0  3  0  0  0  0  0  0
  184.6260  175.5300  137.5950 O   0  0  0  0  0  0  0  0  0  0  0  0
  182.7310  177.4790  137.0010 C   0  0  0  0  0  3  0  0  0  0  0  0
  183.5790  177.5270  134.7050 C   0  0  0  0  0  1  0  0  0  0  0  0
  183.7330  177.2270  136.1640 C   0  0  0  0  0  0  0  0  0  0  0  0
  181.5350  178.0740  136.5920 O   0  0  0  0  0  0  0  0  0  0  0  0
  180.9920  179.1580  137.2830 C   0  0  0  0  0  0  0  0  0  0  0  0
  181.1300  180.4740  136.8140 C   0  0  0  0  0  3  0  0  0  0  0  0
  180.5870  181.5450  137.5260 C   0  0  0  0  0  3  0  0  0  0  0  0
  179.9040  181.3100  138.7140 C   0  0  0  0  0  3  0  0  0  0  0  0
  180.2900  178.9300  138.4670 C   0  0  0  0  0  3  0  0  0  0  0  0
  179.7600  180.0010  139.1980 C   0  0  0  0  0  0  0  0  0  0  0  0
  179.0730  179.7410  140.3940 O   0  0  0  0  0  0  0  0  0  0  0  0
  179.7130  179.7970  141.6640 C   0  0  0  0  0  2  0  0  0  0  0  0
  179.2900  178.6190  142.5350 C   0  0  0  0  0  2  0  0  0  0  0  0
  179.9110  178.6590  143.7900 O   0  0  0  0  0  0  0  0  0  0  0  0
  181.2520  178.3560  143.5180 C   0  0  0  0  0  2  0  0  0  0  0  0
  182.9430  178.2790  145.3360 C   0  0  0  0  0  2  0  0  0  0  0  0
  184.4020  178.6800  145.2290 C   0  0  2  0  0  3  0  0  0  0  0  0
  182.1650  179.1890  144.4010 C   0  0  1  0  0  3  0  0  0  0  0  0
  184.9380  178.8930  146.5050 O   0  0  0  0  0  1  0  0  0  0  0  0
  185.5770  179.9730  143.6090 O   0  0  0  0  0  1  0  0  0  0  0  0
  183.1940  179.9440  143.5760 C   0  0  0  0  0  2  0  0  0  0  0  0
  184.4510  179.9650  144.4290 C   0  0  1  0  0  3  0  0  0  0  0  0
  186.6830  173.5310  135.8270 C   0  0  0  0  0  2  0  0  0  0  0  0
  187.7950  174.4330  136.0860 N   0  0  0  0  0  2  0  0  0  0  0  0
  189.4140  175.8220  134.5960 O   0  0  0  0  0  1  0  0  0  0  0  0
  190.2070  174.4270  136.3600 C   0  0  2  0  0  3  0  0  0  0  0  0
  189.0100  173.7220  135.7250 C   0  0  2  0  0  3  0  0  0  0  0  0
  189.9470  174.5600  134.8690 C   0  0  1  0  0  3  0  0  0  0  0  0
  191.3780  173.4660  136.5590 C   0  0  1  0  0  3  0  0  0  0  0  0
  191.3560  172.3760  135.5140 C   0  0  0  0  0  1  0  0  0  0  0  0
  194.3160  172.2180  136.5390 C   0  0  0  0  0  3  0  0  0  0  0  0
  194.3450  175.9120  136.8370 C   0  0  0  0  0  2  0  0  0  0  0  0
  194.9510  174.5460  136.7390 C   0  0  0  0  0  0  0  0  0  0  0  0
  193.9790  173.5730  136.6180 C   0  0  0  0  0  0  0  0  0  0  0  0
  196.6600  172.8510  136.6490 C   0  0  0  0  0  3  0  0  0  0  0  0
  191.9520  176.3760  136.8460 O   0  0  0  0  0  0  0  0  0  0  0  0
  192.6790  174.1430  136.5680 N   0  0  0  0  0  0  0  0  0  0  0  0
  195.6680  171.8610  136.5490 C   0  0  0  0  0  3  0  0  0  0  0  0
  192.8880  175.5460  136.7210 C   0  0  0  0  0  0  0  0  0  0  0  0
  196.3030  174.2080  136.7500 C   0  0  0  0  0  3  0  0  0  0  0  0
  185.9170  177.5140  137.3620 C   0  0  0  0  0  2  0  0  0  0  0  0
  187.3640  178.0430  136.3620 S   0  0  0  0  0  0  0  0  0  0  0  0
  188.4060  178.2690  137.8300 C   0  0  0  0  0  2  0  0  0  0  0  0
  188.4860  176.9680  138.6290 C   0  0  0  0  0  2  0  0  0  0  0  0
  190.5640  176.0810  139.5290 O   0  0  0  0  0  1  0  0  0  0  0  0
  189.5540  177.0240  139.7270 C   0  0  2  0  0  3  0  0  0  0  0  0
  188.9800  177.0000  141.1640 C   0  0  1  0  0  3  0  0  0  0  0  0
  189.6860  177.8940  141.9820 O   0  0  0  0  0  0  0  0  0  0  0  0
  190.6620  177.1540  142.6520 C   0  0  1  0  0  3  0  0  0  0  0  0
  191.8840  178.0350  142.8240 C   0  0  0  0  0  2  0  0  0  0  0  0
  190.9730  177.7720  144.0110 C   0  0  2  0  0  3  0  0  0  0  0  0
  191.2690  176.5970  146.2500 C   0  0  0  0  0  0  0  0  0  0  0  0
  191.9670  175.7940  146.9280 O   0  0  0  0  0  0  0  0  0  0  0  0
  191.5600  176.7410  144.8570 N   0  0  0  0  0  2  0  0  0  0  0  0
  190.2250  177.3670  146.8630 N   0  0  0  0  0  0  0  0  0  0  0  0
  189.7970  177.1210  148.0580 C   0  0  0  0  0  3  0  0  0  0  0  0
  187.7850  178.4550  147.5360 C   0  0  0  0  0  1  0  0  0  0  0  0
  188.6860  177.9320  148.6300 C   0  0  0  0  0  2  0  0  0  0  0  0
  187.4890  177.3390  141.2150 C   0  0  0  0  0  2  0  0  0  0  0  0
  185.4720  178.9880  140.7140 C   0  0  0  0  0  1  0  0  0  0  0  0
  187.2440  179.1360  141.1050 S   0  0  0  0  0  0  0  0  0  0  0  0
  1 47  1  1  0  0  0
  1  6  1  0  0  0  0
  2  4  2  0  0  0  0
  3  6  1  0  0  0  0
  4  5  1  0  0  0  0
  4  1  1  0  0  0  0
  5 29  1  1  0  0  0
  5  3  1  0  0  0  0
  8  9  1  0  0  0  0
  9  1  1  0  0  0  0
  9  7  2  0  0  0  0
 10  7  1  0  0  0  0
 10 11  1  0  0  0  0
 11 15  1  0  0  0  0
 12 11  2  0  0  0  0
 12 13  1  0  0  0  0
 13 14  2  0  0  0  0
 14 16  1  0  0  0  0
 15 16  2  0  0  0  0
 16 17  1  0  0  0  0
 17 18  1  0  0  0  0
 18 19  1  0  0  0  0
 19 20  1  0  0  0  0
 21 20  1  0  0  0  0
 23 22  1  0  0  0  0
 23 25  1  1  0  0  0
 24 21  1  6  0  0  0
 24 22  1  0  0  0  0
 27 24  1  0  0  0  0
 27 28  1  0  0  0  0
 28 26  1  6  0  0  0
 28 23  1  0  0  0  0
 29 30  1  0  0  0  0
 32 35  1  6  0  0  0
 33 30  1  1  0  0  0
 33 32  1  0  0  0  0
 34 31  1  1  0  0  0
 34 33  1  0  0  0  0
 34 32  1  0  0  0  0
 35 36  1  6  0  0  0
 35 43  1  0  0  0  0
 37 44  2  0  0  0  0
 37 40  1  0  0  0  0
 39 46  1  0  0  0  0
 39 38  1  0  0  0  0
 40 39  2  0  0  0  0
 41 46  2  0  0  0  0
 43 40  1  0  0  0  0
 43 45  1  0  0  0  0
 44 41  1  0  0  0  0
 45 38  1  0  0  0  0
 45 42  2  0  0  0  0
 48 47  1  0  0  0  0
 48 49  1  0  0  0  0
 49 50  1  0  0  0  0
 50 52  1  0  0  0  0
 52 51  1  1  0  0  0
 52 53  1  0  0  0  0
 53 65  1  6  0  0  0
 53 54  1  0  0  0  0
 55 54  1  6  0  0  0
 55 56  1  0  0  0  0
 55 57  1  0  0  0  0
 56 57  1  0  0  0  0
 57 60  1  1  0  0  0
 58 61  1  0  0  0  0
 58 59  2  0  0  0  0
 60 58  1  0  0  0  0
 61 62  2  0  0  0  0
 62 64  1  0  0  0  0
 63 64  1  0  0  0  0
 66 67  1  0  0  0  0
 67 65  1  0  0  0  0
M  END
>  <MODEL>
5

>  <REMARK>
 VINA RESULT:      -4.2      1.648      2.757
  Name = 
  27 active torsions:
  status: ('A' for Active; 'I' for Inactive)
    1  A    between atoms: N_1  and  C_20
    2  A    between atoms: C_2  and  C_42
    3  A    between atoms: C_2  and  S_61
    4  A    between atoms: O_3  and  C_19
    5  A    between atoms: O_3  and  C_42
    6  A    between atoms: C_6  and  C_22
    7  A    between atoms: C_6  and  C_60
    8  A    between atoms: C_7  and  O_48
    9  A    between atoms: O_11  and  C_37
   10  A    between atoms: O_11  and  C_67
   11  A    between atoms: C_14  and  O_48
   12  A    between atoms: C_15  and  S_21
   13  A    between atoms: C_15  and  C_50
   14  A    between atoms: C_17  and  C_67
   15  A    between atoms: S_21  and  C_22
   16  A    between atoms: N_26  and  C_49
   17  A    between atoms: N_26  and  C_55
   18  A    between atoms: N_28  and  C_53
   19  A    between atoms: O_32  and  C_63
   20  A    between atoms: O_32  and  C_64
   21  A    between atoms: N_35  and  C_47
   22  A    between atoms: C_37  and  C_63
   23  A    between atoms: C_39  and  C_47
   24  A    between atoms: C_40  and  C_42
   25  A    between atoms: C_40  and  C_50
   26  A    between atoms: C_45  and  C_66
   27  A    between atoms: C_49  and  C_54
                            x       y       z     vdW  Elec       q    Type
                         _______ _______ _______ _____ _____    ______ ____

>  <TORSDO>
F 27

$$$$
=
 OpenBabel10222416023D

 67 73  0  0  1  0  0  0  0  0999 V2000
  190.5940  177.5200  141.5020 C   0  0  2  0  0  0  0  0  0  0  0  0
  189.3700  179.5870  141.8450 O   0  0  0  0  0  0  0  0  0  0  0  0
  188.7940  176.2990  140.7810 C   0  0  0  0  0  2  0  0  0  0  0  0
  189.3860  178.4080  141.4960 C   0  0  0  0  0  0  0  0  0  0  0  0
  188.1960  177.6590  141.0920 C   0  0  1  0  0  3  0  0  0  0  0  0
  190.2080  176.3800  140.7570 O   0  0  0  0  0  0  0  0  0  0  0  0
  191.5490  177.9590  143.7430 C   0  0  0  0  0  3  0  0  0  0  0  0
  190.8670  175.6520  143.2910 C   0  0  0  0  0  1  0  0  0  0  0  0
  190.9910  177.0920  142.9030 C   0  0  0  0  0  0  0  0  0  0  0  0
  191.9860  177.6000  145.0200 O   0  0  0  0  0  0  0  0  0  0  0  0
  191.0800  177.2620  146.0270 C   0  0  0  0  0  0  0  0  0  0  0  0
  191.3100  176.1800  146.8920 C   0  0  0  0  0  3  0  0  0  0  0  0
  190.3850  175.8540  147.8850 C   0  0  0  0  0  3  0  0  0  0  0  0
  189.2230  176.6050  148.0230 C   0  0  0  0  0  3  0  0  0  0  0  0
  189.9190  178.0220  146.1830 C   0  0  0  0  0  3  0  0  0  0  0  0
  188.9780  177.6870  147.1650 C   0  0  0  0  0  0  0  0  0  0  0  0
  187.8120  178.4600  147.2870 O   0  0  0  0  0  0  0  0  0  0  0  0
  186.5280  177.8730  147.4670 C   0  0  0  0  0  2  0  0  0  0  0  0
  185.5900  178.2650  146.3310 C   0  0  0  0  0  2  0  0  0  0  0  0
  186.2990  178.5760  145.1630 O   0  0  0  0  0  0  0  0  0  0  0  0
  185.5850  177.9270  144.1470 C   0  0  0  0  0  2  0  0  0  0  0  0
  184.5630  178.5150  141.9610 C   0  0  0  0  0  2  0  0  0  0  0  0
  183.0820  178.5270  141.6300 C   0  0  2  0  0  3  0  0  0  0  0  0
  184.6930  178.9190  143.4190 C   0  0  1  0  0  3  0  0  0  0  0  0
  182.8520  179.2790  140.4720 O   0  0  0  0  0  1  0  0  0  0  0  0
  181.1470  178.5350  143.0210 O   0  0  0  0  0  1  0  0  0  0  0  0
  183.2870  178.9240  143.9950 C   0  0  0  0  0  2  0  0  0  0  0  0
  182.3710  179.1640  142.8070 C   0  0  1  0  0  3  0  0  0  0  0  0
  187.5650  178.2580  139.8400 C   0  0  0  0  0  2  0  0  0  0  0  0
  188.4740  178.1180  138.7140 N   0  0  0  0  0  2  0  0  0  0  0  0
  189.5810  177.2960  136.5070 O   0  0  0  0  0  1  0  0  0  0  0  0
  187.2240  177.1970  136.8480 C   0  0  2  0  0  3  0  0  0  0  0  0
  187.7270  178.4730  137.5190 C   0  0  2  0  0  3  0  0  0  0  0  0
  188.3840  177.9670  136.2440 C   0  0  1  0  0  3  0  0  0  0  0  0
  185.9780  177.4650  136.0050 C   0  0  1  0  0  3  0  0  0  0  0  0
  186.3630  177.8590  134.5980 C   0  0  0  0  0  1  0  0  0  0  0  0
  183.0980  177.1840  137.3510 C   0  0  0  0  0  3  0  0  0  0  0  0
  184.2070  174.0530  135.7070 C   0  0  0  0  0  2  0  0  0  0  0  0
  183.2710  174.9320  136.4770 C   0  0  0  0  0  0  0  0  0  0  0  0
  183.7920  176.2010  136.6380 C   0  0  0  0  0  0  0  0  0  0  0  0
  181.2980  175.5870  137.6940 C   0  0  0  0  0  3  0  0  0  0  0  0
  186.4000  174.7350  134.8890 O   0  0  0  0  0  0  0  0  0  0  0  0
  185.0450  176.3330  135.9850 N   0  0  0  0  0  0  0  0  0  0  0  0
  181.8390  176.8700  137.8760 C   0  0  0  0  0  3  0  0  0  0  0  0
  185.3130  175.0420  135.4420 C   0  0  0  0  0  0  0  0  0  0  0  0
  182.0190  174.6030  136.9920 C   0  0  0  0  0  3  0  0  0  0  0  0
  191.7970  178.1490  140.7770 C   0  0  0  0  0  2  0  0  0  0  0  0
  193.0990  176.9480  140.2930 S   0  0  0  0  0  0  0  0  0  0  0  0
  192.4680  176.8140  138.5970 C   0  0  0  0  0  2  0  0  0  0  0  0
  193.4070  175.9570  137.7480 C   0  0  0  0  0  2  0  0  0  0  0  0
  193.2380  173.5460  138.0170 O   0  0  0  0  0  1  0  0  0  0  0  0
  192.7550  174.6440  137.3030 C   0  0  2  0  0  3  0  0  0  0  0  0
  192.7690  174.4220  135.7710 C   0  0  1  0  0  3  0  0  0  0  0  0
  193.5260  173.2840  135.4540 O   0  0  0  0  0  0  0  0  0  0  0  0
  194.6050  173.7120  134.6770 C   0  0  1  0  0  3  0  0  0  0  0  0
  194.6060  175.2270  134.6690 C   0  0  0  0  0  2  0  0  0  0  0  0
  195.6120  174.4790  135.5250 C   0  0  2  0  0  3  0  0  0  0  0  0
  198.0150  173.6700  135.2970 C   0  0  0  0  0  0  0  0  0  0  0  0
  199.1350  173.8540  134.7450 O   0  0  0  0  0  0  0  0  0  0  0  0
  196.9000  174.4450  134.8460 N   0  0  0  0  0  2  0  0  0  0  0  0
  197.8660  172.7280  136.3690 N   0  0  0  0  0  0  0  0  0  0  0  0
  197.6020  171.4800  136.1570 C   0  0  0  0  0  3  0  0  0  0  0  0
  195.9760  170.5100  137.7440 C   0  0  0  0  0  1  0  0  0  0  0  0
  197.4230  170.5540  137.3110 C   0  0  0  0  0  2  0  0  0  0  0  0
  191.3670  174.2770  135.1790 C   0  0  0  0  0  2  0  0  0  0  0  0
  189.1600  172.9580  135.8350 C   0  0  0  0  0  1  0  0  0  0  0  0
  190.8300  172.5420  135.2390 S   0  0  0  0  0  0  0  0  0  0  0  0
  1 47  1  6  0  0  0
  1  9  1  0  0  0  0
  3  5  1  0  0  0  0
  4  1  1  0  0  0  0
  4  2  2  0  0  0  0
  5 29  1  6  0  0  0
  5  4  1  0  0  0  0
  6  3  1  0  0  0  0
  6  1  1  0  0  0  0
  7 10  1  0  0  0  0
  9  8  1  0  0  0  0
  9  7  2  0  0  0  0
 10 11  1  0  0  0  0
 11 15  2  0  0  0  0
 11 12  1  0  0  0  0
 12 13  2  0  0  0  0
 13 14  1  0  0  0  0
 15 16  1  0  0  0  0
 16 17  1  0  0  0  0
 16 14  2  0  0  0  0
 17 18  1  0  0  0  0
 19 18  1  0  0  0  0
 20 19  1  0  0  0  0
 21 20  1  0  0  0  0
 22 24  1  0  0  0  0
 23 25  1  6  0  0  0
 23 22  1  0  0  0  0
 23 28  1  0  0  0  0
 24 27  1  0  0  0  0
 24 21  1  1  0  0  0
 28 26  1  1  0  0  0
 28 27  1  0  0  0  0
 30 29  1  0  0  0  0
 32 35  1  6  0  0  0
 32 33  1  0  0  0  0
 33 30  1  1  0  0  0
 34 31  1  1  0  0  0
 34 32  1  0  0  0  0
 34 33  1  0  0  0  0
 35 36  1  6  0  0  0
 37 44  1  0  0  0  0
 38 39  1  0  0  0  0
 39 40  1  0  0  0  0
 39 46  2  0  0  0  0
 40 37  2  0  0  0  0
 41 44  2  0  0  0  0
 42 45  2  0  0  0  0
 43 35  1  0  0  0  0
 43 40  1  0  0  0  0
 45 38  1  0  0  0  0
 45 43  1  0  0  0  0
 46 41  1  0  0  0  0
 48 47  1  0  0  0  0
 49 48  1  0  0  0  0
 50 49  1  0  0  0  0
 52 50  1  0  0  0  0
 52 51  1  1  0  0  0
 53 65  1  1  0  0  0
 53 52  1  0  0  0  0
 54 53  1  0  0  0  0
 55 54  1  1  0  0  0
 55 57  1  0  0  0  0
 56 55  1  0  0  0  0
 56 57  1  0  0  0  0
 57 60  1  6  0  0  0
 58 61  1  0  0  0  0
 59 58  2  0  0  0  0
 60 58  1  0  0  0  0
 62 61  2  0  0  0  0
 62 64  1  0  0  0  0
 64 63  1  0  0  0  0
 65 67  1  0  0  0  0
 67 66  1  0  0  0  0
M  END
>  <MODEL>
6

>  <REMARK>
 VINA RESULT:      -4.1      3.200      9.788
  Name = 
  27 active torsions:
  status: ('A' for Active; 'I' for Inactive)
    1  A    between atoms: N_1  and  C_20
    2  A    between atoms: C_2  and  C_42
    3  A    between atoms: C_2  and  S_61
    4  A    between atoms: O_3  and  C_19
    5  A    between atoms: O_3  and  C_42
    6  A    between atoms: C_6  and  C_22
    7  A    between atoms: C_6  and  C_60
    8  A    between atoms: C_7  and  O_48
    9  A    between atoms: O_11  and  C_37
   10  A    between atoms: O_11  and  C_67
   11  A    between atoms: C_14  and  O_48
   12  A    between atoms: C_15  and  S_21
   13  A    between atoms: C_15  and  C_50
   14  A    between atoms: C_17  and  C_67
   15  A    between atoms: S_21  and  C_22
   16  A    between atoms: N_26  and  C_49
   17  A    between atoms: N_26  and  C_55
   18  A    between atoms: N_28  and  C_53
   19  A    between atoms: O_32  and  C_63
   20  A    between atoms: O_32  and  C_64
   21  A    between atoms: N_35  and  C_47
   22  A    between atoms: C_37  and  C_63
   23  A    between atoms: C_39  and  C_47
   24  A    between atoms: C_40  and  C_42
   25  A    between atoms: C_40  and  C_50
   26  A    between atoms: C_45  and  C_66
   27  A    between atoms: C_49  and  C_54
                            x       y       z     vdW  Elec       q    Type
                         _______ _______ _______ _____ _____    ______ ____

>  <TORSDO>
F 27

$$$$
=
 OpenBabel10222416023D

 67 73  0  0  1  0  0  0  0  0999 V2000
  185.5040  176.2750  136.7480 C   0  0  2  0  0  0  0  0  0  0  0  0
  186.1080  177.4620  134.7190 O   0  0  0  0  0  0  0  0  0  0  0  0
  186.3510  174.2490  136.0960 C   0  0  0  0  0  2  0  0  0  0  0  0
  186.1010  176.4250  135.3800 C   0  0  0  0  0  0  0  0  0  0  0  0
  186.6110  175.1420  134.8960 C   0  0  1  0  0  3  0  0  0  0  0  0
  185.9870  175.0310  137.2190 O   0  0  0  0  0  0  0  0  0  0  0  0
  183.3100  175.4300  137.5210 C   0  0  0  0  0  3  0  0  0  0  0  0
  183.2600  177.0450  135.6820 C   0  0  0  0  0  1  0  0  0  0  0  0
  183.9870  176.2440  136.7170 C   0  0  0  0  0  0  0  0  0  0  0  0
  181.9180  175.3210  137.4890 O   0  0  0  0  0  0  0  0  0  0  0  0
  181.1110  176.0920  138.3260 C   0  0  0  0  0  0  0  0  0  0  0  0
  179.7210  176.1690  138.1440 C   0  0  0  0  0  3  0  0  0  0  0  0
  178.9350  176.9550  138.9880 C   0  0  0  0  0  3  0  0  0  0  0  0
  179.5300  177.6730  140.0190 C   0  0  0  0  0  3  0  0  0  0  0  0
  181.6980  176.8020  139.3750 C   0  0  0  0  0  3  0  0  0  0  0  0
  180.9180  177.6090  140.2130 C   0  0  0  0  0  0  0  0  0  0  0  0
  181.5400  178.3240  141.2490 O   0  0  0  0  0  0  0  0  0  0  0  0
  181.0350  178.3250  142.5790 C   0  0  0  0  0  2  0  0  0  0  0  0
  182.1680  178.1680  143.5880 C   0  0  0  0  0  2  0  0  0  0  0  0
  182.5830  179.4080  144.0910 O   0  0  0  0  0  0  0  0  0  0  0  0
  183.6120  179.8000  143.2250 C   0  0  0  0  0  2  0  0  0  0  0  0
  184.8390  180.1060  145.3640 C   0  0  0  0  0  2  0  0  0  0  0  0
  185.4580  179.0130  146.2140 C   0  0  2  0  0  3  0  0  0  0  0  0
  184.9580  179.6620  143.9170 C   0  0  1  0  0  3  0  0  0  0  0  0
  186.3920  179.5620  147.1000 O   0  0  0  0  0  1  0  0  0  0  0  0
  186.0090  176.7460  145.7270 O   0  0  0  0  0  1  0  0  0  0  0  0
  185.4190  178.2140  143.9440 C   0  0  0  0  0  2  0  0  0  0  0  0
  186.1490  178.0530  145.2670 C   0  0  1  0  0  3  0  0  0  0  0  0
  188.1050  175.2160  134.6050 C   0  0  0  0  0  2  0  0  0  0  0  0
  188.8550  174.7010  135.7400 N   0  0  0  0  0  2  0  0  0  0  0  0
  191.0990  175.9480  135.3130 O   0  0  0  0  0  1  0  0  0  0  0  0
  191.0340  173.7460  136.2240 C   0  0  2  0  0  3  0  0  0  0  0  0
  189.9030  173.8480  135.2030 C   0  0  2  0  0  3  0  0  0  0  0  0
  191.2090  174.5960  134.9780 C   0  0  1  0  0  3  0  0  0  0  0  0
  191.8330  172.4560  136.0420 C   0  0  1  0  0  3  0  0  0  0  0  0
  191.8270  172.0260  134.5940 C   0  0  0  0  0  1  0  0  0  0  0  0
  194.3080  170.4920  135.5950 C   0  0  0  0  0  3  0  0  0  0  0  0
  195.1100  173.2840  137.8970 C   0  0  0  0  0  2  0  0  0  0  0  0
  195.3890  172.0400  137.1110 C   0  0  0  0  0  0  0  0  0  0  0  0
  194.2840  171.6470  136.3840 C   0  0  0  0  0  0  0  0  0  0  0  0
  196.6260  170.1610  136.2480 C   0  0  0  0  0  3  0  0  0  0  0  0
  192.9680  174.4460  137.9470 O   0  0  0  0  0  0  0  0  0  0  0  0
  193.2080  172.5600  136.5430 N   0  0  0  0  0  0  0  0  0  0  0  0
  195.4930  169.7500  135.5260 C   0  0  0  0  0  3  0  0  0  0  0  0
  193.6880  173.5340  137.4660 C   0  0  0  0  0  0  0  0  0  0  0  0
  196.5780  171.3140  137.0530 C   0  0  0  0  0  3  0  0  0  0  0  0
  185.9940  177.3540  137.7320 C   0  0  0  0  0  2  0  0  0  0  0  0
  187.6830  177.9820  137.3820 S   0  0  0  0  0  0  0  0  0  0  0  0
  187.9490  178.4820  139.1050 C   0  0  0  0  0  2  0  0  0  0  0  0
  188.2040  177.2550  139.9800 C   0  0  0  0  0  2  0  0  0  0  0  0
  188.3490  178.9910  141.6770 O   0  0  0  0  0  1  0  0  0  0  0  0
  188.5380  177.6300  141.4280 C   0  0  2  0  0  3  0  0  0  0  0  0
  189.9150  177.1130  141.9100 C   0  0  1  0  0  3  0  0  0  0  0  0
  189.7500  176.2380  142.9940 O   0  0  0  0  0  0  0  0  0  0  0  0
  190.9520  176.2380  143.7070 C   0  0  1  0  0  3  0  0  0  0  0  0
  191.1400  177.6150  144.3100 C   0  0  0  0  0  2  0  0  0  0  0  0
  190.7000  176.4600  145.1930 C   0  0  2  0  0  3  0  0  0  0  0  0
  192.0530  176.1660  147.3300 C   0  0  0  0  0  0  0  0  0  0  0  0
  193.1640  175.8380  147.8300 O   0  0  0  0  0  0  0  0  0  0  0  0
  191.8460  175.9460  145.9320 N   0  0  0  0  0  2  0  0  0  0  0  0
  191.0300  176.7700  148.1350 N   0  0  0  0  0  0  0  0  0  0  0  0
  190.1920  177.6290  147.6540 C   0  0  0  0  0  3  0  0  0  0  0  0
  187.9570  177.3620  148.6710 C   0  0  0  0  0  1  0  0  0  0  0  0
  189.1720  178.2500  148.5460 C   0  0  0  0  0  2  0  0  0  0  0  0
  190.7040  176.4070  140.8070 C   0  0  0  0  0  2  0  0  0  0  0  0
  191.8390  176.9660  138.4750 C   0  0  0  0  0  1  0  0  0  0  0  0
  192.0510  177.4700  140.2120 S   0  0  0  0  0  0  0  0  0  0  0  0
  1  6  1  0  0  0  0
  1 47  1  1  0  0  0
  2  4  2  0  0  0  0
  3  6  1  0  0  0  0
  4  1  1  0  0  0  0
  5 29  1  1  0  0  0
  5  4  1  0  0  0  0
  5  3  1  0  0  0  0
  8  9  1  0  0  0  0
  9  1  1  0  0  0  0
  9  7  2  0  0  0  0
 10  7  1  0  0  0  0
 10 11  1  0  0  0  0
 11 15  1  0  0  0  0
 12 11  2  0  0  0  0
 12 13  1  0  0  0  0
 13 14  2  0  0  0  0
 14 16  1  0  0  0  0
 15 16  2  0  0  0  0
 16 17  1  0  0  0  0
 17 18  1  0  0  0  0
 18 19  1  0  0  0  0
 19 20  1  0  0  0  0
 21 20  1  0  0  0  0
 22 23  1  0  0  0  0
 23 25  1  1  0  0  0
 24 21  1  1  0  0  0
 24 27  1  0  0  0  0
 24 22  1  0  0  0  0
 27 28  1  0  0  0  0
 28 26  1  1  0  0  0
 28 23  1  0  0  0  0
 29 30  1  0  0  0  0
 32 35  1  6  0  0  0
 33 30  1  1  0  0  0
 33 32  1  0  0  0  0
 34 33  1  0  0  0  0
 34 31  1  1  0  0  0
 34 32  1  0  0  0  0
 35 36  1  6  0  0  0
 35 43  1  0  0  0  0
 37 40  1  0  0  0  0
 39 38  1  0  0  0  0
 40 43  1  0  0  0  0
 40 39  2  0  0  0  0
 41 46  2  0  0  0  0
 43 45  1  0  0  0  0
 44 37  2  0  0  0  0
 44 41  1  0  0  0  0
 45 38  1  0  0  0  0
 45 42  2  0  0  0  0
 46 39  1  0  0  0  0
 48 47  1  0  0  0  0
 48 49  1  0  0  0  0
 49 50  1  0  0  0  0
 50 52  1  0  0  0  0
 52 51  1  6  0  0  0
 52 53  1  0  0  0  0
 53 65  1  6  0  0  0
 53 54  1  0  0  0  0
 55 54  1  6  0  0  0
 55 56  1  0  0  0  0
 55 57  1  0  0  0  0
 56 57  1  0  0  0  0
 57 60  1  1  0  0  0
 58 59  2  0  0  0  0
 58 61  1  0  0  0  0
 60 58  1  0  0  0  0
 62 61  2  0  0  0  0
 62 64  1  0  0  0  0
 64 63  1  0  0  0  0
 66 67  1  0  0  0  0
 67 65  1  0  0  0  0
M  END
>  <MODEL>
7

>  <REMARK>
 VINA RESULT:      -4.1      2.219      3.960
  Name = 
  27 active torsions:
  status: ('A' for Active; 'I' for Inactive)
    1  A    between atoms: N_1  and  C_20
    2  A    between atoms: C_2  and  C_42
    3  A    between atoms: C_2  and  S_61
    4  A    between atoms: O_3  and  C_19
    5  A    between atoms: O_3  and  C_42
    6  A    between atoms: C_6  and  C_22
    7  A    between atoms: C_6  and  C_60
    8  A    between atoms: C_7  and  O_48
    9  A    between atoms: O_11  and  C_37
   10  A    between atoms: O_11  and  C_67
   11  A    between atoms: C_14  and  O_48
   12  A    between atoms: C_15  and  S_21
   13  A    between atoms: C_15  and  C_50
   14  A    between atoms: C_17  and  C_67
   15  A    between atoms: S_21  and  C_22
   16  A    between atoms: N_26  and  C_49
   17  A    between atoms: N_26  and  C_55
   18  A    between atoms: N_28  and  C_53
   19  A    between atoms: O_32  and  C_63
   20  A    between atoms: O_32  and  C_64
   21  A    between atoms: N_35  and  C_47
   22  A    between atoms: C_37  and  C_63
   23  A    between atoms: C_39  and  C_47
   24  A    between atoms: C_40  and  C_42
   25  A    between atoms: C_40  and  C_50
   26  A    between atoms: C_45  and  C_66
   27  A    between atoms: C_49  and  C_54
                            x       y       z     vdW  Elec       q    Type
                         _______ _______ _______ _____ _____    ______ ____

>  <TORSDO>
F 27

$$$$
=
 OpenBabel10222416023D

 67 73  0  0  1  0  0  0  0  0999 V2000
  190.6510  177.5730  141.3880 C   0  0  2  0  0  0  0  0  0  0  0  0
  189.4140  179.6090  141.8560 O   0  0  0  0  0  0  0  0  0  0  0  0
  188.8200  176.3050  140.8520 C   0  0  0  0  0  2  0  0  0  0  0  0
  189.4250  178.4300  141.5060 C   0  0  0  0  0  0  0  0  0  0  0  0
  188.2210  177.6490  141.2230 C   0  0  1  0  0  3  0  0  0  0  0  0
  190.2210  176.4230  140.6850 O   0  0  0  0  0  0  0  0  0  0  0  0
  191.8070  178.0430  143.5250 C   0  0  0  0  0  3  0  0  0  0  0  0
  191.1640  175.7140  143.1330 C   0  0  0  0  0  1  0  0  0  0  0  0
  191.1990  177.1580  142.7410 C   0  0  0  0  0  0  0  0  0  0  0  0
  192.3800  177.6980  144.7520 O   0  0  0  0  0  0  0  0  0  0  0  0
  191.6070  177.1870  145.7950 C   0  0  0  0  0  0  0  0  0  0  0  0
  191.8610  175.9230  146.3510 C   0  0  0  0  0  3  0  0  0  0  0  0
  191.0670  175.4280  147.3870 C   0  0  0  0  0  3  0  0  0  0  0  0
  190.0120  176.1900  147.8750 C   0  0  0  0  0  3  0  0  0  0  0  0
  190.5560  177.9530  146.3030 C   0  0  0  0  0  3  0  0  0  0  0  0
  189.7430  177.4540  147.3290 C   0  0  0  0  0  0  0  0  0  0  0  0
  188.6840  178.2410  147.8080 O   0  0  0  0  0  0  0  0  0  0  0  0
  187.3440  177.7620  147.8560 C   0  0  0  0  0  2  0  0  0  0  0  0
  186.5580  178.2290  146.6360 C   0  0  0  0  0  2  0  0  0  0  0  0
  187.3420  178.1950  145.4760 O   0  0  0  0  0  0  0  0  0  0  0  0
  186.5160  177.5850  144.5230 C   0  0  0  0  0  2  0  0  0  0  0  0
  185.0650  178.1060  142.5750 C   0  0  0  0  0  2  0  0  0  0  0  0
  183.5560  178.2650  142.5900 C   0  0  2  0  0  3  0  0  0  0  0  0
  185.5760  178.6110  143.9120 C   0  0  1  0  0  3  0  0  0  0  0  0
  183.1310  178.9400  141.4390 O   0  0  0  0  0  1  0  0  0  0  0  0
  182.0170  178.6180  144.3740 O   0  0  0  0  0  1  0  0  0  0  0  0
  184.3540  178.8310  144.7890 C   0  0  0  0  0  2  0  0  0  0  0  0
  183.2100  179.0780  143.8210 C   0  0  1  0  0  3  0  0  0  0  0  0
  187.4510  178.2300  140.0430 C   0  0  0  0  0  2  0  0  0  0  0  0
  188.2570  178.1410  138.8360 N   0  0  0  0  0  2  0  0  0  0  0  0
  189.3970  177.8040  136.5220 O   0  0  0  0  0  1  0  0  0  0  0  0
  187.2020  176.9920  136.9760 C   0  0  2  0  0  3  0  0  0  0  0  0
  187.3560  178.3220  137.7110 C   0  0  2  0  0  3  0  0  0  0  0  0
  188.0410  178.1030  136.3700 C   0  0  1  0  0  3  0  0  0  0  0  0
  185.8770  176.9240  136.2200 C   0  0  1  0  0  3  0  0  0  0  0  0
  186.1160  176.7160  134.7430 C   0  0  0  0  0  1  0  0  0  0  0  0
  185.7710  173.7980  135.5830 C   0  0  0  0  0  3  0  0  0  0  0  0
  183.0250  174.8820  137.8230 C   0  0  0  0  0  2  0  0  0  0  0  0
  183.8270  173.9040  137.0230 C   0  0  0  0  0  0  0  0  0  0  0  0
  184.8990  174.5170  136.4050 C   0  0  0  0  0  0  0  0  0  0  0  0
  184.4840  171.7930  136.0640 C   0  0  0  0  0  3  0  0  0  0  0  0
  183.4970  177.2690  137.9790 O   0  0  0  0  0  0  0  0  0  0  0  0
  184.9710  175.8950  136.7430 N   0  0  0  0  0  0  0  0  0  0  0  0
  185.5600  172.4240  135.4190 C   0  0  0  0  0  3  0  0  0  0  0  0
  183.8380  176.1280  137.5760 C   0  0  0  0  0  0  0  0  0  0  0  0
  183.6030  172.5360  136.8710 C   0  0  0  0  0  3  0  0  0  0  0  0
  191.7580  178.2330  140.5460 C   0  0  0  0  0  2  0  0  0  0  0  0
  192.8940  177.0450  139.7280 S   0  0  0  0  0  0  0  0  0  0  0  0
  191.7770  176.8120  138.3180 C   0  0  0  0  0  2  0  0  0  0  0  0
  192.5110  176.1230  137.1670 C   0  0  0  0  0  2  0  0  0  0  0  0
  191.7830  173.9780  138.0530 O   0  0  0  0  0  1  0  0  0  0  0  0
  191.9650  174.7200  136.8850 C   0  0  2  0  0  3  0  0  0  0  0  0
  192.7480  173.9480  135.7950 C   0  0  1  0  0  3  0  0  0  0  0  0
  193.3640  172.8170  136.3520 O   0  0  0  0  0  0  0  0  0  0  0  0
  194.6570  172.7540  135.8270 C   0  0  1  0  0  3  0  0  0  0  0  0
  195.5430  173.6650  136.6530 C   0  0  0  0  0  2  0  0  0  0  0  0
  195.6250  172.1610  136.8440 C   0  0  2  0  0  3  0  0  0  0  0  0
  198.1340  171.9130  136.4920 C   0  0  0  0  0  0  0  0  0  0  0  0
  199.0520  171.5690  135.6970 O   0  0  0  0  0  0  0  0  0  0  0  0
  196.7800  171.6400  136.1230 N   0  0  0  0  0  2  0  0  0  0  0  0
  198.4360  172.5850  137.7230 N   0  0  0  0  0  0  0  0  0  0  0  0
  198.6800  173.8550  137.7730 C   0  0  0  0  0  3  0  0  0  0  0  0
  197.9060  175.3990  139.5390 C   0  0  0  0  0  1  0  0  0  0  0  0
  199.0230  174.4930  139.0760 C   0  0  0  0  0  2  0  0  0  0  0  0
  191.8650  173.5160  134.6230 C   0  0  0  0  0  2  0  0  0  0  0  0
  189.3900  173.7140  135.5590 C   0  0  0  0  0  1  0  0  0  0  0  0
  190.5700  172.3760  135.1910 S   0  0  0  0  0  0  0  0  0  0  0  0
  1 47  1  6  0  0  0
  1  4  1  0  0  0  0
  1  9  1  0  0  0  0
  3  5  1  0  0  0  0
  4  2  2  0  0  0  0
  5 29  1  6  0  0  0
  5  4  1  0  0  0  0
  6  3  1  0  0  0  0
  6  1  1  0  0  0  0
  7 10  1  0  0  0  0
  9  8  1  0  0  0  0
  9  7  2  0  0  0  0
 10 11  1  0  0  0  0
 11 15  2  0  0  0  0
 11 12  1  0  0  0  0
 12 13  2  0  0  0  0
 13 14  1  0  0  0  0
 15 16  1  0  0  0  0
 16 17  1  0  0  0  0
 16 14  2  0  0  0  0
 17 18  1  0  0  0  0
 19 18  1  0  0  0  0
 20 19  1  0  0  0  0
 21 20  1  0  0  0  0
 22 23  1  0  0  0  0
 22 24  1  0  0  0  0
 23 25  1  6  0  0  0
 23 28  1  0  0  0  0
 24 21  1  1  0  0  0
 24 27  1  0  0  0  0
 28 26  1  1  0  0  0
 28 27  1  0  0  0  0
 30 29  1  0  0  0  0
 32 35  1  6  0  0  0
 32 33  1  0  0  0  0
 33 30  1  1  0  0  0
 34 31  1  1  0  0  0
 34 32  1  0  0  0  0
 34 33  1  0  0  0  0
 35 36  1  6  0  0  0
 35 43  1  0  0  0  0
 37 40  1  0  0  0  0
 39 38  1  0  0  0  0
 40 43  1  0  0  0  0
 40 39  2  0  0  0  0
 41 46  2  0  0  0  0
 43 45  1  0  0  0  0
 44 37  2  0  0  0  0
 44 41  1  0  0  0  0
 45 38  1  0  0  0  0
 45 42  2  0  0  0  0
 46 39  1  0  0  0  0
 48 47  1  0  0  0  0
 49 48  1  0  0  0  0
 50 49  1  0  0  0  0
 52 50  1  0  0  0  0
 52 51  1  1  0  0  0
 53 65  1  6  0  0  0
 53 54  1  0  0  0  0
 53 52  1  0  0  0  0
 55 54  1  1  0  0  0
 55 56  1  0  0  0  0
 55 57  1  0  0  0  0
 56 57  1  0  0  0  0
 57 60  1  6  0  0  0
 58 61  1  0  0  0  0
 59 58  2  0  0  0  0
 60 58  1  0  0  0  0
 61 62  2  0  0  0  0
 62 64  1  0  0  0  0
 64 63  1  0  0  0  0
 65 67  1  0  0  0  0
 67 66  1  0  0  0  0
M  END
>  <MODEL>
8

>  <REMARK>
 VINA RESULT:      -4.1      3.485      9.585
  Name = 
  27 active torsions:
  status: ('A' for Active; 'I' for Inactive)
    1  A    between atoms: N_1  and  C_20
    2  A    between atoms: C_2  and  C_42
    3  A    between atoms: C_2  and  S_61
    4  A    between atoms: O_3  and  C_19
    5  A    between atoms: O_3  and  C_42
    6  A    between atoms: C_6  and  C_22
    7  A    between atoms: C_6  and  C_60
    8  A    between atoms: C_7  and  O_48
    9  A    between atoms: O_11  and  C_37
   10  A    between atoms: O_11  and  C_67
   11  A    between atoms: C_14  and  O_48
   12  A    between atoms: C_15  and  S_21
   13  A    between atoms: C_15  and  C_50
   14  A    between atoms: C_17  and  C_67
   15  A    between atoms: S_21  and  C_22
   16  A    between atoms: N_26  and  C_49
   17  A    between atoms: N_26  and  C_55
   18  A    between atoms: N_28  and  C_53
   19  A    between atoms: O_32  and  C_63
   20  A    between atoms: O_32  and  C_64
   21  A    between atoms: N_35  and  C_47
   22  A    between atoms: C_37  and  C_63
   23  A    between atoms: C_39  and  C_47
   24  A    between atoms: C_40  and  C_42
   25  A    between atoms: C_40  and  C_50
   26  A    between atoms: C_45  and  C_66
   27  A    between atoms: C_49  and  C_54
                            x       y       z     vdW  Elec       q    Type
                         _______ _______ _______ _____ _____    ______ ____

>  <TORSDO>
F 27

$$$$
=
 OpenBabel10222416023D

 67 73  0  0  1  0  0  0  0  0999 V2000
  189.3410  178.0400  141.5000 C   0  0  2  0  0  0  0  0  0  0  0  0
  190.3780  175.8860  141.9180 O   0  0  0  0  0  0  0  0  0  0  0  0
  189.9820  178.9960  143.4810 C   0  0  0  0  0  2  0  0  0  0  0  0
  190.1360  177.0360  142.2800 C   0  0  0  0  0  0  0  0  0  0  0  0
  190.5260  177.5830  143.5800 C   0  0  1  0  0  3  0  0  0  0  0  0
  189.5780  179.2740  142.1520 O   0  0  0  0  0  0  0  0  0  0  0  0
  187.0090  178.4610  140.7870 C   0  0  0  0  0  3  0  0  0  0  0  0
  187.3260  176.7110  142.4690 C   0  0  0  0  0  1  0  0  0  0  0  0
  187.8540  177.7410  141.5190 C   0  0  0  0  0  0  0  0  0  0  0  0
  185.6260  178.2640  140.8160 O   0  0  0  0  0  0  0  0  0  0  0  0
  184.8390  178.8010  141.8350 C   0  0  0  0  0  0  0  0  0  0  0  0
  185.3840  179.6330  142.8250 C   0  0  0  0  0  3  0  0  0  0  0  0
  184.5790  180.1510  143.8420 C   0  0  0  0  0  3  0  0  0  0  0  0
  183.2250  179.8400  143.8800 C   0  0  0  0  0  3  0  0  0  0  0  0
  183.4740  178.5070  141.8700 C   0  0  0  0  0  3  0  0  0  0  0  0
  182.6660  179.0070  142.8990 C   0  0  0  0  0  0  0  0  0  0  0  0
  181.3010  178.6810  142.9160 O   0  0  0  0  0  0  0  0  0  0  0  0
  180.3100  179.5320  142.3500 C   0  0  0  0  0  2  0  0  0  0  0  0
  179.4060  178.7520  141.4010 C   0  0  0  0  0  2  0  0  0  0  0  0
  180.1220  178.2460  140.3090 O   0  0  0  0  0  0  0  0  0  0  0  0
  179.4990  178.8230  139.1950 C   0  0  0  0  0  2  0  0  0  0  0  0
  179.9600  179.7810  136.9500 C   0  0  0  0  0  2  0  0  0  0  0  0
  180.1800  181.2460  136.6210 C   0  0  2  0  0  3  0  0  0  0  0  0
  180.5230  179.5510  138.3410 C   0  0  1  0  0  3  0  0  0  0  0  0
  180.8010  181.3720  135.3730 O   0  0  0  0  0  1  0  0  0  0  0  0
  180.7000  183.1190  137.9990 O   0  0  0  0  0  1  0  0  0  0  0  0
  180.8440  180.9220  138.9110 C   0  0  0  0  0  2  0  0  0  0  0  0
  181.0780  181.8110  137.7020 C   0  0  1  0  0  3  0  0  0  0  0  0
  192.0420  177.6080  143.7360 C   0  0  0  0  0  2  0  0  0  0  0  0
  192.4000  177.3260  145.1170 N   0  0  0  0  0  2  0  0  0  0  0  0
  193.2060  176.0520  147.2380 O   0  0  0  0  0  1  0  0  0  0  0  0
  190.9530  176.7910  146.9920 C   0  0  2  0  0  3  0  0  0  0  0  0
  191.4410  176.3530  145.6130 C   0  0  2  0  0  3  0  0  0  0  0  0
  191.9270  175.6340  146.8620 C   0  0  1  0  0  3  0  0  0  0  0  0
  189.5690  176.2220  147.3000 C   0  0  1  0  0  3  0  0  0  0  0  0
  189.6630  175.1260  148.3350 C   0  0  0  0  0  1  0  0  0  0  0  0
  186.7470  177.0080  146.0320 C   0  0  0  0  0  3  0  0  0  0  0  0
  187.7040  179.2220  148.8460 C   0  0  0  0  0  2  0  0  0  0  0  0
  186.8260  178.7210  147.7410 C   0  0  0  0  0  0  0  0  0  0  0  0
  187.3840  177.6250  147.1140 C   0  0  0  0  0  0  0  0  0  0  0  0
  184.9270  178.6010  146.2640 C   0  0  0  0  0  3  0  0  0  0  0  0
  189.8730  178.2770  149.4360 O   0  0  0  0  0  0  0  0  0  0  0  0
  188.6090  177.2480  147.7240 N   0  0  0  0  0  0  0  0  0  0  0  0
  185.5070  177.5010  145.6120 C   0  0  0  0  0  3  0  0  0  0  0  0
  188.8200  178.2140  148.7510 C   0  0  0  0  0  0  0  0  0  0  0  0
  185.5910  179.2240  147.3370 C   0  0  0  0  0  3  0  0  0  0  0  0
  189.8350  178.1920  140.0500 C   0  0  0  0  0  2  0  0  0  0  0  0
  189.0220  177.0590  138.8540 S   0  0  0  0  0  0  0  0  0  0  0  0
  190.5340  176.0860  138.6140 C   0  0  0  0  0  2  0  0  0  0  0  0
  191.2870  176.5720  137.3760 C   0  0  0  0  0  2  0  0  0  0  0  0
  190.5280  176.7360  135.0710 O   0  0  0  0  0  1  0  0  0  0  0  0
  190.8420  175.8480  136.1010 C   0  0  2  0  0  3  0  0  0  0  0  0
  189.7450  174.7810  136.3340 C   0  0  1  0  0  3  0  0  0  0  0  0
  188.5090  175.2460  135.8610 O   0  0  0  0  0  0  0  0  0  0  0  0
  187.5690  174.2450  136.1160 C   0  0  1  0  0  3  0  0  0  0  0  0
  186.6310  174.7460  137.1950 C   0  0  0  0  0  2  0  0  0  0  0  0
  186.1660  174.7140  135.7490 C   0  0  2  0  0  3  0  0  0  0  0  0
  184.0060  173.3970  136.0420 C   0  0  0  0  0  0  0  0  0  0  0  0
  183.4460  172.2700  135.9530 O   0  0  0  0  0  0  0  0  0  0  0  0
  185.3350  173.5370  135.5300 N   0  0  0  0  0  2  0  0  0  0  0  0
  183.3420  174.5060  136.6650 N   0  0  0  0  0  0  0  0  0  0  0  0
  183.0640  174.5230  137.9280 C   0  0  0  0  0  3  0  0  0  0  0  0
  183.0470  176.9800  138.1800 C   0  0  0  0  0  1  0  0  0  0  0  0
  182.3410  175.6870  138.5130 C   0  0  0  0  0  2  0  0  0  0  0  0
  190.0680  173.4420  135.6700 C   0  0  0  0  0  2  0  0  0  0  0  0
  191.8170  171.5940  134.9170 C   0  0  0  0  0  1  0  0  0  0  0  0
  191.8040  173.4020  135.1370 S   0  0  0  0  0  0  0  0  0  0  0  0
  1 47  1  6  0  0  0
  1  9  1  0  0  0  0
  1  6  1  0  0  0  0
  1  4  1  0  0  0  0
  2  4  2  0  0  0  0
  3  5  1  0  0  0  0
  4  5  1  0  0  0  0
  5 29  1  6  0  0  0
  6  3  1  0  0  0  0
  7 10  1  0  0  0  0
  7  9  2  0  0  0  0
  9  8  1  0  0  0  0
 10 11  1  0  0  0  0
 11 15  2  0  0  0  0
 11 12  1  0  0  0  0
 12 13  2  0  0  0  0
 13 14  1  0  0  0  0
 15 16  1  0  0  0  0
 16 17  1  0  0  0  0
 16 14  2  0  0  0  0
 18 17  1  0  0  0  0
 19 18  1  0  0  0  0
 20 19  1  0  0  0  0
 21 20  1  0  0  0  0
 22 24  1  0  0  0  0
 23 25  1  6  0  0  0
 23 22  1  0  0  0  0
 23 28  1  0  0  0  0
 24 27  1  0  0  0  0
 24 21  1  1  0  0  0
 28 26  1  1  0  0  0
 28 27  1  0  0  0  0
 29 30  1  0  0  0  0
 32 35  1  6  0  0  0
 33 30  1  1  0  0  0
 33 34  1  0  0  0  0
 33 32  1  0  0  0  0
 34 32  1  0  0  0  0
 34 31  1  1  0  0  0
 35 43  1  0  0  0  0
 35 36  1  1  0  0  0
 37 40  1  0  0  0  0
 39 38  1  0  0  0  0
 40 43  1  0  0  0  0
 40 39  2  0  0  0  0
 41 46  2  0  0  0  0
 43 45  1  0  0  0  0
 44 37  2  0  0  0  0
 44 41  1  0  0  0  0
 45 38  1  0  0  0  0
 45 42  2  0  0  0  0
 46 39  1  0  0  0  0
 48 47  1  0  0  0  0
 49 48  1  0  0  0  0
 50 49  1  0  0  0  0
 52 51  1  6  0  0  0
 52 53  1  0  0  0  0
 52 50  1  0  0  0  0
 53 65  1  6  0  0  0
 54 53  1  0  0  0  0
 55 54  1  6  0  0  0
 55 56  1  0  0  0  0
 57 60  1  1  0  0  0
 57 55  1  0  0  0  0
 57 56  1  0  0  0  0
 58 61  1  0  0  0  0
 59 58  2  0  0  0  0
 60 58  1  0  0  0  0
 61 62  2  0  0  0  0
 62 64  1  0  0  0  0
 63 64  1  0  0  0  0
 66 67  1  0  0  0  0
 67 65  1  0  0  0  0
M  END
>  <MODEL>
9

>  <REMARK>
 VINA RESULT:      -4.0      2.588      9.458
  Name = 
  27 active torsions:
  status: ('A' for Active; 'I' for Inactive)
    1  A    between atoms: N_1  and  C_20
    2  A    between atoms: C_2  and  C_42
    3  A    between atoms: C_2  and  S_61
    4  A    between atoms: O_3  and  C_19
    5  A    between atoms: O_3  and  C_42
    6  A    between atoms: C_6  and  C_22
    7  A    between atoms: C_6  and  C_60
    8  A    between atoms: C_7  and  O_48
    9  A    between atoms: O_11  and  C_37
   10  A    between atoms: O_11  and  C_67
   11  A    between atoms: C_14  and  O_48
   12  A    between atoms: C_15  and  S_21
   13  A    between atoms: C_15  and  C_50
   14  A    between atoms: C_17  and  C_67
   15  A    between atoms: S_21  and  C_22
   16  A    between atoms: N_26  and  C_49
   17  A    between atoms: N_26  and  C_55
   18  A    between atoms: N_28  and  C_53
   19  A    between atoms: O_32  and  C_63
   20  A    between atoms: O_32  and  C_64
   21  A    between atoms: N_35  and  C_47
   22  A    between atoms: C_37  and  C_63
   23  A    between atoms: C_39  and  C_47
   24  A    between atoms: C_40  and  C_42
   25  A    between atoms: C_40  and  C_50
   26  A    between atoms: C_45  and  C_66
   27  A    between atoms: C_49  and  C_54
                            x       y       z     vdW  Elec       q    Type
                         _______ _______ _______ _____ _____    ______ ____

>  <TORSDO>
F 27

$$$$
