=
 OpenBabel10222420383D

 41 44  0  0  1  0  0  0  0  0999 V2000
  184.7810  176.8750  136.9990 C   0  0  0  0  0  0  0  0  0  0  0  0
  184.1590  179.4760  139.0820 C   0  0  0  0  0  2  0  0  0  0  0  0
  183.5200  179.0030  137.7820 C   0  0  0  0  0  2  0  0  0  0  0  0
  183.8050  173.2860  137.4810 N   0  0  0  0  0  2  0  0  0  0  0  0
  184.4660  171.2610  136.5560 O   0  0  0  0  0  0  0  0  0  0  0  0
  183.1840  176.6760  138.8680 C   0  0  1  0  0  3  0  0  0  0  0  0
  183.0520  175.2600  138.5270 N   0  0  0  0  0  0  0  0  0  0  0  0
  183.8770  174.7040  137.6790 C   0  0  0  0  0  0  0  0  0  0  0  0
  184.5710  172.5180  136.5440 C   0  0  0  0  0  0  0  0  0  0  0  0
  183.5290  177.4790  137.6070 C   0  0  2  0  0  3  0  0  0  0  0  0
  183.3690  179.1830  140.3770 C   0  0  1  0  0  3  0  0  0  0  0  0
  184.9030  175.5420  136.9910 C   0  0  0  0  0  3  0  0  0  0  0  0
  182.0780  178.3800  140.2440 C   0  0  0  0  0  3  0  0  0  0  0  0
  181.9880  177.2160  139.5810 C   0  0  0  0  0  3  0  0  0  0  0  0
  184.2980  178.6050  141.4020 C   0  0  0  0  0  0  0  0  0  0  0  0
  184.0140  177.5110  141.9730 O   0  0  0  0  0  0  0  0  0  0  0  0
  185.5430  179.2560  141.6750 N   0  0  0  0  0  2  0  0  0  0  0  0
  186.6400  178.6120  142.4040 C   0  0  0  0  0  2  0  0  0  0  0  0
  186.5600  177.4240  146.4170 S   0  0  0  0  0  0  0  0  0  0  0  0
  188.6890  178.5840  147.6820 C   0  0  0  0  0  1  0  0  0  0  0  0
  189.1240  177.0630  145.6560 C   0  0  1  0  0  3  0  0  0  0  0  0
  188.3040  177.3120  146.9360 C   0  0  2  0  0  3  0  0  0  0  0  0
  188.3840  177.5900  144.5300 N   0  0  0  0  0  0  0  0  0  0  0  0
  187.1270  177.7710  144.7660 C   0  0  0  0  0  0  0  0  0  0  0  0
  186.2530  178.3340  143.7860 N   0  0  0  0  0  2  0  0  0  0  0  0
  190.5520  177.5950  145.6780 C   0  0  0  0  0  2  0  0  0  0  0  0
  191.8950  176.8560  147.5090 O   0  0  0  0  0  1  0  0  0  0  0  0
  191.4940  176.5310  146.2130 C   0  0  0  0  0  2  0  0  0  0  0  0
  185.4320  173.1470  135.6310 O   0  0  0  0  0  0  0  0  0  0  0  0
  186.8210  172.8280  135.5650 C   0  0  0  0  0  1  0  0  0  0  0  0
  186.1620  177.8830  136.4470 S   0  0  0  0  0  0  0  0  0  0  0  0
  187.3380  177.2470  137.6890 C   0  0  2  0  0  3  0  0  0  0  0  0
  187.3680  178.2130  138.8550 C   0  0  0  0  0  2  0  0  0  0  0  0
  188.8270  178.3870  139.1630 C   0  0  0  0  0  2  0  0  0  0  0  0
  189.5470  177.5390  138.1290 C   0  0  2  0  0  3  0  0  0  0  0  0
  188.6310  177.1490  137.1320 O   0  0  0  0  0  0  0  0  0  0  0  0
  190.1890  176.3090  138.7810 C   0  0  1  0  0  3  0  0  0  0  0  0
  191.2610  175.7150  137.8740 C   0  0  0  0  0  2  0  0  0  0  0  0
  190.9880  174.3080  137.6470 N   0  0  0  0  0  1  0  0  0  0  0  0
  191.8190  177.3420  140.1470 O   0  0  0  0  0  0  0  0  0  0  0  0
  190.7920  176.6850  140.1000 C   0  0  0  0  0  3  0  0  0  0  0  0
  1 10  1  0  0  0  0
  2 11  1  0  0  0  0
  3  2  1  0  0  0  0
  4  8  1  0  0  0  0
  6 14  1  6  0  0  0
  7  6  1  0  0  0  0
  8  7  2  0  0  0  0
  9  5  2  0  0  0  0
  9  4  1  0  0  0  0
 10  3  1  1  0  0  0
 10  6  1  0  0  0  0
 11 15  1  1  0  0  0
 12  1  2  0  0  0  0
 12  8  1  0  0  0  0
 13 11  1  0  0  0  0
 14 13  2  0  0  0  0
 15 17  1  0  0  0  0
 15 16  2  0  0  0  0
 17 18  1  0  0  0  0
 18 25  1  0  0  0  0
 19 22  1  0  0  0  0
 21 26  1  1  0  0  0
 21 22  1  0  0  0  0
 22 20  1  6  0  0  0
 23 24  2  0  0  0  0
 23 21  1  0  0  0  0
 24 19  1  0  0  0  0
 25 24  1  0  0  0  0
 26 28  1  0  0  0  0
 28 27  1  0  0  0  0
 29  9  1  0  0  0  0
 30 29  1  0  0  0  0
 31  1  1  0  0  0  0
 32 31  1  6  0  0  0
 32 33  1  0  0  0  0
 33 34  1  0  0  0  0
 35 37  1  1  0  0  0
 35 34  1  0  0  0  0
 36 32  1  0  0  0  0
 36 35  1  0  0  0  0
 37 38  1  6  0  0  0
 37 41  1  0  0  0  0
 39 38  1  0  0  0  0
 41 40  2  0  0  0  0
M  END
>  <MODEL>
1

>  <REMARK>
 VINA RESULT:      -6.8      0.000      0.000
  Name = 
  11 active torsions:
  status: ('A' for Active; 'I' for Inactive)
    1  A    between atoms: C_1  and  S_21
    2  A    between atoms: C_3  and  S_21
    3  A    between atoms: C_9  and  C_28
    4  A    between atoms: C_10  and  C_15
    5  A    between atoms: C_12  and  N_29
    6  A    between atoms: C_12  and  N_41
    7  A    between atoms: C_13  and  C_30
    8  A    between atoms: C_13  and  C_34
    9  A    between atoms: C_14  and  C_15
   10  A    between atoms: C_15  and  C_26
   11  A    between atoms: C_24  and  O_35
                            x       y       z     vdW  Elec       q    Type
                         _______ _______ _______ _____ _____    ______ ____

>  <TORSDO>
F 11

$$$$
=
 OpenBabel10222420383D

 41 44  0  0  1  0  0  0  0  0999 V2000
  183.6740  177.4490  139.4230 C   0  0  0  0  0  0  0  0  0  0  0  0
  184.9600  176.2190  136.5380 C   0  0  0  0  0  2  0  0  0  0  0  0
  184.0670  177.4110  136.8590 C   0  0  0  0  0  2  0  0  0  0  0  0
  185.4460  179.5010  142.0140 N   0  0  0  0  0  2  0  0  0  0  0  0
  185.0420  180.0590  144.2320 O   0  0  0  0  0  0  0  0  0  0  0  0
  185.8530  178.2130  138.5540 C   0  0  1  0  0  3  0  0  0  0  0  0
  186.0000  178.9970  139.7790 N   0  0  0  0  0  0  0  0  0  0  0  0
  185.1810  178.8170  140.7830 C   0  0  0  0  0  0  0  0  0  0  0  0
  184.6250  179.4860  143.1890 C   0  0  0  0  0  0  0  0  0  0  0  0
  184.3640  178.0590  138.2170 C   0  0  2  0  0  3  0  0  0  0  0  0
  186.4370  176.5390  136.2180 C   0  0  1  0  0  3  0  0  0  0  0  0
  184.0390  177.8670  140.6410 C   0  0  0  0  0  3  0  0  0  0  0  0
  186.8800  177.9950  136.3370 C   0  0  0  0  0  3  0  0  0  0  0  0
  186.6440  178.7610  137.4130 C   0  0  0  0  0  3  0  0  0  0  0  0
  187.3230  175.6080  136.9910 C   0  0  0  0  0  0  0  0  0  0  0  0
  186.9620  174.4110  137.1950 O   0  0  0  0  0  0  0  0  0  0  0  0
  188.6080  176.0570  137.4320 N   0  0  0  0  0  2  0  0  0  0  0  0
  189.6570  175.1450  137.8990 C   0  0  0  0  0  2  0  0  0  0  0  0
  191.8200  177.4860  140.6140 S   0  0  0  0  0  0  0  0  0  0  0  0
  191.4080  176.4680  143.1190 C   0  0  0  0  0  1  0  0  0  0  0  0
  189.3790  177.2300  141.7360 C   0  0  1  0  0  3  0  0  0  0  0  0
  190.8380  177.4980  142.1500 C   0  0  2  0  0  3  0  0  0  0  0  0
  189.3860  176.4990  140.4880 N   0  0  0  0  0  0  0  0  0  0  0  0
  190.4990  176.5790  139.8370 C   0  0  0  0  0  0  0  0  0  0  0  0
  190.7040  175.8790  138.6100 N   0  0  0  0  0  2  0  0  0  0  0  0
  188.5200  176.5300  142.7820 C   0  0  0  0  0  2  0  0  0  0  0  0
  188.5290  177.5670  144.9330 O   0  0  0  0  0  1  0  0  0  0  0  0
  187.8790  177.5570  143.6990 C   0  0  0  0  0  2  0  0  0  0  0  0
  183.3790  178.8370  143.1890 O   0  0  0  0  0  0  0  0  0  0  0  0
  182.5450  178.8090  144.3450 C   0  0  0  0  0  1  0  0  0  0  0  0
  182.5170  176.0830  139.2780 S   0  0  0  0  0  0  0  0  0  0  0  0
  181.0200  177.1200  139.3880 C   0  0  2  0  0  3  0  0  0  0  0  0
  180.5660  177.4550  137.9820 C   0  0  0  0  0  2  0  0  0  0  0  0
  180.2590  178.9240  138.0250 C   0  0  0  0  0  2  0  0  0  0  0  0
  180.5930  179.3500  139.4440 C   0  0  2  0  0  3  0  0  0  0  0  0
  181.3040  178.3150  140.0830 O   0  0  0  0  0  0  0  0  0  0  0  0
  179.3190  179.6900  140.2260 C   0  0  1  0  0  3  0  0  0  0  0  0
  179.4760  179.3260  141.6980 C   0  0  0  0  0  2  0  0  0  0  0  0
  179.9480  180.4780  142.4420 N   0  0  0  0  0  1  0  0  0  0  0  0
  179.7020  181.8680  139.3890 O   0  0  0  0  0  0  0  0  0  0  0  0
  179.0120  181.1510  140.0950 C   0  0  0  0  0  3  0  0  0  0  0  0
  1 12  2  0  0  0  0
  2  3  1  0  0  0  0
  4  9  1  0  0  0  0
  6 14  1  6  0  0  0
  6  7  1  0  0  0  0
  7  8  2  0  0  0  0
  8  4  1  0  0  0  0
  9  5  2  0  0  0  0
 10  3  1  6  0  0  0
 10  6  1  0  0  0  0
 10  1  1  0  0  0  0
 11 13  1  0  0  0  0
 11  2  1  0  0  0  0
 11 15  1  1  0  0  0
 12  8  1  0  0  0  0
 13 14  2  0  0  0  0
 15 16  2  0  0  0  0
 15 17  1  0  0  0  0
 17 18  1  0  0  0  0
 18 25  1  0  0  0  0
 19 22  1  0  0  0  0
 21 22  1  0  0  0  0
 21 26  1  1  0  0  0
 22 20  1  1  0  0  0
 23 21  1  0  0  0  0
 24 23  2  0  0  0  0
 24 19  1  0  0  0  0
 25 24  1  0  0  0  0
 26 28  1  0  0  0  0
 28 27  1  0  0  0  0
 29  9  1  0  0  0  0
 29 30  1  0  0  0  0
 31  1  1  0  0  0  0
 32 31  1  6  0  0  0
 32 36  1  0  0  0  0
 33 34  1  0  0  0  0
 33 32  1  0  0  0  0
 34 35  1  0  0  0  0
 35 36  1  0  0  0  0
 35 37  1  1  0  0  0
 37 41  1  1  0  0  0
 37 38  1  0  0  0  0
 38 39  1  0  0  0  0
 40 41  2  0  0  0  0
M  END
>  <MODEL>
2

>  <REMARK>
 VINA RESULT:      -6.7      3.046      7.543
  Name = 
  11 active torsions:
  status: ('A' for Active; 'I' for Inactive)
    1  A    between atoms: C_1  and  S_21
    2  A    between atoms: C_3  and  S_21
    3  A    between atoms: C_9  and  C_28
    4  A    between atoms: C_10  and  C_15
    5  A    between atoms: C_12  and  N_29
    6  A    between atoms: C_12  and  N_41
    7  A    between atoms: C_13  and  C_30
    8  A    between atoms: C_13  and  C_34
    9  A    between atoms: C_14  and  C_15
   10  A    between atoms: C_15  and  C_26
   11  A    between atoms: C_24  and  O_35
                            x       y       z     vdW  Elec       q    Type
                         _______ _______ _______ _____ _____    ______ ____

>  <TORSDO>
F 11

$$$$
=
 OpenBabel10222420383D

 41 44  0  0  1  0  0  0  0  0999 V2000
  183.4590  176.3540  136.1800 C   0  0  0  0  0  0  0  0  0  0  0  0
  182.8990  179.0730  138.1260 C   0  0  0  0  0  2  0  0  0  0  0  0
  182.0800  178.3730  137.0490 C   0  0  0  0  0  2  0  0  0  0  0  0
  183.1730  172.7480  137.1700 N   0  0  0  0  0  2  0  0  0  0  0  0
  183.9280  170.7350  136.2920 O   0  0  0  0  0  0  0  0  0  0  0  0
  182.3450  176.1630  138.3720 C   0  0  1  0  0  3  0  0  0  0  0  0
  182.3640  174.7130  138.1900 N   0  0  0  0  0  0  0  0  0  0  0  0
  183.0670  174.1760  137.2260 C   0  0  0  0  0  0  0  0  0  0  0  0
  183.8330  171.9840  136.1510 C   0  0  0  0  0  0  0  0  0  0  0  0
  182.2870  176.8530  137.0040 C   0  0  2  0  0  3  0  0  0  0  0  0
  182.4560  178.8300  139.5850 C   0  0  1  0  0  3  0  0  0  0  0  0
  183.7810  175.0570  136.2570 C   0  0  0  0  0  3  0  0  0  0  0  0
  181.3060  177.8530  139.8160 C   0  0  0  0  0  3  0  0  0  0  0  0
  181.2580  176.6200  139.2900 C   0  0  0  0  0  3  0  0  0  0  0  0
  183.6590  178.5020  140.4180 C   0  0  0  0  0  0  0  0  0  0  0  0
  183.6480  177.4920  141.1820 O   0  0  0  0  0  0  0  0  0  0  0  0
  184.8450  179.2920  140.2880 N   0  0  0  0  0  2  0  0  0  0  0  0
  186.1510  178.8660  140.8040 C   0  0  0  0  0  2  0  0  0  0  0  0
  186.8120  177.7260  144.7770 S   0  0  0  0  0  0  0  0  0  0  0  0
  189.4970  177.8970  145.2680 C   0  0  0  0  0  1  0  0  0  0  0  0
  188.6740  176.3740  143.3660 C   0  0  1  0  0  3  0  0  0  0  0  0
  188.4400  176.9060  144.7930 C   0  0  2  0  0  3  0  0  0  0  0  0
  187.9010  177.1810  142.4470 N   0  0  0  0  0  0  0  0  0  0  0  0
  186.9490  177.8500  143.0060 C   0  0  0  0  0  0  0  0  0  0  0  0
  186.1170  178.7390  142.2600 N   0  0  0  0  0  2  0  0  0  0  0  0
  190.1320  176.2830  142.9320 C   0  0  0  0  0  2  0  0  0  0  0  0
  191.4650  177.3500  141.2640 O   0  0  0  0  0  1  0  0  0  0  0  0
  190.2640  176.6720  141.4710 C   0  0  0  0  0  2  0  0  0  0  0  0
  184.3740  172.6120  135.0170 O   0  0  0  0  0  0  0  0  0  0  0  0
  185.7150  172.3730  134.5940 C   0  0  0  0  0  1  0  0  0  0  0  0
  184.5200  177.4650  135.2480 S   0  0  0  0  0  0  0  0  0  0  0  0
  186.0600  176.9730  136.0950 C   0  0  2  0  0  3  0  0  0  0  0  0
  186.2500  177.8730  137.2980 C   0  0  0  0  0  2  0  0  0  0  0  0
  187.6970  178.2710  137.2470 C   0  0  0  0  0  2  0  0  0  0  0  0
  188.2390  177.6060  135.9930 C   0  0  2  0  0  3  0  0  0  0  0  0
  187.1630  177.1190  135.2260 O   0  0  0  0  0  0  0  0  0  0  0  0
  189.2030  176.4700  136.3510 C   0  0  1  0  0  3  0  0  0  0  0  0
  190.3010  176.3430  135.3000 C   0  0  0  0  0  2  0  0  0  0  0  0
  190.3050  174.9990  134.7530 N   0  0  0  0  0  1  0  0  0  0  0  0
  191.0100  176.9480  137.8000 O   0  0  0  0  0  0  0  0  0  0  0  0
  189.8150  176.7220  137.6950 C   0  0  0  0  0  3  0  0  0  0  0  0
  1 12  2  0  0  0  0
  1 10  1  0  0  0  0
  2 11  1  0  0  0  0
  3  2  1  0  0  0  0
  4  8  1  0  0  0  0
  6 14  1  1  0  0  0
  7  6  1  0  0  0  0
  8  7  2  0  0  0  0
  9  5  2  0  0  0  0
  9  4  1  0  0  0  0
 10  3  1  1  0  0  0
 10  6  1  0  0  0  0
 11 13  1  0  0  0  0
 11 15  1  1  0  0  0
 12  8  1  0  0  0  0
 14 13  2  0  0  0  0
 15 16  2  0  0  0  0
 17 15  1  0  0  0  0
 17 18  1  0  0  0  0
 18 25  1  0  0  0  0
 19 22  1  0  0  0  0
 21 26  1  6  0  0  0
 21 22  1  0  0  0  0
 22 20  1  6  0  0  0
 23 24  2  0  0  0  0
 23 21  1  0  0  0  0
 24 19  1  0  0  0  0
 25 24  1  0  0  0  0
 27 28  1  0  0  0  0
 28 26  1  0  0  0  0
 29  9  1  0  0  0  0
 30 29  1  0  0  0  0
 31  1  1  0  0  0  0
 32 31  1  6  0  0  0
 32 33  1  0  0  0  0
 34 33  1  0  0  0  0
 35 37  1  1  0  0  0
 35 34  1  0  0  0  0
 36 35  1  0  0  0  0
 36 32  1  0  0  0  0
 37 38  1  6  0  0  0
 37 41  1  0  0  0  0
 39 38  1  0  0  0  0
 41 40  2  0  0  0  0
M  END
>  <MODEL>
3

>  <REMARK>
 VINA RESULT:      -6.5      1.823      2.230
  Name = 
  11 active torsions:
  status: ('A' for Active; 'I' for Inactive)
    1  A    between atoms: C_1  and  S_21
    2  A    between atoms: C_3  and  S_21
    3  A    between atoms: C_9  and  C_28
    4  A    between atoms: C_10  and  C_15
    5  A    between atoms: C_12  and  N_29
    6  A    between atoms: C_12  and  N_41
    7  A    between atoms: C_13  and  C_30
    8  A    between atoms: C_13  and  C_34
    9  A    between atoms: C_14  and  C_15
   10  A    between atoms: C_15  and  C_26
   11  A    between atoms: C_24  and  O_35
                            x       y       z     vdW  Elec       q    Type
                         _______ _______ _______ _____ _____    ______ ____

>  <TORSDO>
F 11

$$$$
=
 OpenBabel10222420383D

 41 44  0  0  1  0  0  0  0  0999 V2000
  184.2600  176.6650  136.6620 C   0  0  0  0  0  0  0  0  0  0  0  0
  184.1140  179.3610  138.7100 C   0  0  0  0  0  2  0  0  0  0  0  0
  183.1530  178.7790  137.6800 C   0  0  0  0  0  2  0  0  0  0  0  0
  183.6900  173.0730  137.5790 N   0  0  0  0  0  2  0  0  0  0  0  0
  184.1770  171.0260  136.5980 O   0  0  0  0  0  0  0  0  0  0  0  0
  183.2920  176.5130  138.9250 C   0  0  1  0  0  3  0  0  0  0  0  0
  183.1540  175.0740  138.7060 N   0  0  0  0  0  0  0  0  0  0  0  0
  183.7300  174.5030  137.6790 C   0  0  0  0  0  0  0  0  0  0  0  0
  184.1960  172.2830  136.4960 C   0  0  0  0  0  0  0  0  0  0  0  0
  183.2050  177.2490  137.5820 C   0  0  2  0  0  3  0  0  0  0  0  0
  183.7540  179.1160  140.1930 C   0  0  1  0  0  3  0  0  0  0  0  0
  184.4570  175.3410  136.6820 C   0  0  0  0  0  3  0  0  0  0  0  0
  182.5320  178.2490  140.4830 C   0  0  0  0  0  3  0  0  0  0  0  0
  182.3250  177.0430  139.9320 C   0  0  0  0  0  3  0  0  0  0  0  0
  184.9750  178.6470  140.9250 C   0  0  0  0  0  0  0  0  0  0  0  0
  186.1230  178.8070  140.4150 O   0  0  0  0  0  0  0  0  0  0  0  0
  184.8420  178.0860  142.2350 N   0  0  0  0  0  2  0  0  0  0  0  0
  185.9780  177.9020  143.1450 C   0  0  0  0  0  2  0  0  0  0  0  0
  189.9820  177.5420  141.9790 S   0  0  0  0  0  0  0  0  0  0  0  0
  191.1880  175.7430  143.6490 C   0  0  0  0  0  1  0  0  0  0  0  0
  190.0820  177.8320  144.6600 C   0  0  1  0  0  3  0  0  0  0  0  0
  190.9190  177.2380  143.5130 C   0  0  2  0  0  3  0  0  0  0  0  0
  188.6940  177.8490  144.2510 N   0  0  0  0  0  0  0  0  0  0  0  0
  188.5210  177.7540  142.9750 C   0  0  0  0  0  0  0  0  0  0  0  0
  187.2170  177.7020  142.3950 N   0  0  0  0  0  2  0  0  0  0  0  0
  190.2510  177.1540  146.0140 C   0  0  0  0  0  2  0  0  0  0  0  0
  189.4690  177.9080  148.1410 O   0  0  0  0  0  1  0  0  0  0  0  0
  189.0490  177.4440  146.8950 C   0  0  0  0  0  2  0  0  0  0  0  0
  184.7140  172.8910  135.3410 O   0  0  0  0  0  0  0  0  0  0  0  0
  186.0300  172.6100  134.8690 C   0  0  0  0  0  1  0  0  0  0  0  0
  185.3570  177.6970  135.6810 S   0  0  0  0  0  0  0  0  0  0  0  0
  186.8420  177.3640  136.6870 C   0  0  2  0  0  3  0  0  0  0  0  0
  187.5160  178.6850  136.9940 C   0  0  0  0  0  2  0  0  0  0  0  0
  188.9730  178.4350  136.7350 C   0  0  0  0  0  2  0  0  0  0  0  0
  189.0420  176.9950  136.2570 C   0  0  2  0  0  3  0  0  0  0  0  0
  187.7390  176.5390  135.9750 O   0  0  0  0  0  0  0  0  0  0  0  0
  189.7090  176.1010  137.3090 C   0  0  1  0  0  3  0  0  0  0  0  0
  190.4200  174.9260  136.6460 C   0  0  0  0  0  2  0  0  0  0  0  0
  190.2050  173.7200  137.4230 N   0  0  0  0  0  1  0  0  0  0  0  0
  191.8860  176.6690  138.0370 O   0  0  0  0  0  0  0  0  0  0  0  0
  190.6900  176.9000  138.1120 C   0  0  0  0  0  3  0  0  0  0  0  0
  1 12  2  0  0  0  0
  1 10  1  0  0  0  0
  2 11  1  0  0  0  0
  3  2  1  0  0  0  0
  4  8  1  0  0  0  0
  6 14  1  1  0  0  0
  7  6  1  0  0  0  0
  8  7  2  0  0  0  0
  9  5  2  0  0  0  0
  9  4  1  0  0  0  0
 10  3  1  1  0  0  0
 10  6  1  0  0  0  0
 11 13  1  0  0  0  0
 11 15  1  1  0  0  0
 12  8  1  0  0  0  0
 14 13  2  0  0  0  0
 15 17  1  0  0  0  0
 16 15  2  0  0  0  0
 17 18  1  0  0  0  0
 19 24  1  0  0  0  0
 19 22  1  0  0  0  0
 21 26  1  1  0  0  0
 22 20  1  1  0  0  0
 22 21  1  0  0  0  0
 23 21  1  0  0  0  0
 24 23  2  0  0  0  0
 25 24  1  0  0  0  0
 25 18  1  0  0  0  0
 26 28  1  0  0  0  0
 28 27  1  0  0  0  0
 29  9  1  0  0  0  0
 30 29  1  0  0  0  0
 31  1  1  0  0  0  0
 32 31  1  6  0  0  0
 32 33  1  0  0  0  0
 34 33  1  0  0  0  0
 35 34  1  0  0  0  0
 35 37  1  1  0  0  0
 36 35  1  0  0  0  0
 36 32  1  0  0  0  0
 37 38  1  6  0  0  0
 37 41  1  0  0  0  0
 38 39  1  0  0  0  0
 40 41  2  0  0  0  0
M  END
>  <MODEL>
4

>  <REMARK>
 VINA RESULT:      -6.5      1.606      1.963
  Name = 
  11 active torsions:
  status: ('A' for Active; 'I' for Inactive)
    1  A    between atoms: C_1  and  S_21
    2  A    between atoms: C_3  and  S_21
    3  A    between atoms: C_9  and  C_28
    4  A    between atoms: C_10  and  C_15
    5  A    between atoms: C_12  and  N_29
    6  A    between atoms: C_12  and  N_41
    7  A    between atoms: C_13  and  C_30
    8  A    between atoms: C_13  and  C_34
    9  A    between atoms: C_14  and  C_15
   10  A    between atoms: C_15  and  C_26
   11  A    between atoms: C_24  and  O_35
                            x       y       z     vdW  Elec       q    Type
                         _______ _______ _______ _____ _____    ______ ____

>  <TORSDO>
F 11

$$$$
=
 OpenBabel10222420383D

 41 44  0  0  1  0  0  0  0  0999 V2000
  185.3610  176.0340  135.9300 C   0  0  0  0  0  0  0  0  0  0  0  0
  182.7930  177.9200  137.0860 C   0  0  0  0  0  2  0  0  0  0  0  0
  183.0830  177.2610  135.7430 C   0  0  0  0  0  2  0  0  0  0  0  0
  185.9930  172.3970  136.5890 N   0  0  0  0  0  2  0  0  0  0  0  0
  187.8220  170.9800  136.3860 O   0  0  0  0  0  0  0  0  0  0  0  0
  183.3810  175.0080  136.9840 C   0  0  1  0  0  3  0  0  0  0  0  0
  184.0620  173.7200  136.8720 N   0  0  0  0  0  0  0  0  0  0  0  0
  185.3280  173.6660  136.5480 C   0  0  0  0  0  0  0  0  0  0  0  0
  187.3470  172.1330  136.1990 C   0  0  0  0  0  0  0  0  0  0  0  0
  183.8490  175.9370  135.8560 C   0  0  2  0  0  3  0  0  0  0  0  0
  181.7360  177.2250  137.9720 C   0  0  1  0  0  3  0  0  0  0  0  0
  186.0550  174.9240  136.2060 C   0  0  0  0  0  3  0  0  0  0  0  0
  181.1510  175.9100  137.4650 C   0  0  0  0  0  3  0  0  0  0  0  0
  181.8950  174.8780  137.0380 C   0  0  0  0  0  3  0  0  0  0  0  0
  182.2630  177.1130  139.3720 C   0  0  0  0  0  0  0  0  0  0  0  0
  182.6900  176.0020  139.8030 O   0  0  0  0  0  0  0  0  0  0  0  0
  182.3500  178.2840  140.1900 N   0  0  0  0  0  2  0  0  0  0  0  0
  183.1350  178.3390  141.4280 C   0  0  0  0  0  2  0  0  0  0  0  0
  187.3130  178.3630  141.6870 S   0  0  0  0  0  0  0  0  0  0  0  0
  188.0610  176.3840  143.4210 C   0  0  0  0  0  1  0  0  0  0  0  0
  186.4770  178.2320  144.2500 C   0  0  1  0  0  3  0  0  0  0  0  0
  187.7060  177.8670  143.3980 C   0  0  2  0  0  3  0  0  0  0  0  0
  185.3130  178.2450  143.3910 N   0  0  0  0  0  0  0  0  0  0  0  0
  185.5890  178.3440  142.1330 C   0  0  0  0  0  0  0  0  0  0  0  0
  184.5680  178.3200  141.1350 N   0  0  0  0  0  2  0  0  0  0  0  0
  186.2480  177.3580  145.4780 C   0  0  0  0  0  2  0  0  0  0  0  0
  185.2590  178.8500  147.0580 O   0  0  0  0  0  1  0  0  0  0  0  0
  186.4400  178.1780  146.7410 C   0  0  0  0  0  2  0  0  0  0  0  0
  188.1400  173.1390  135.6240 O   0  0  0  0  0  0  0  0  0  0  0  0
  189.5410  172.9680  135.4210 C   0  0  0  0  0  1  0  0  0  0  0  0
  186.2290  177.6040  135.8260 S   0  0  0  0  0  0  0  0  0  0  0  0
  187.4420  177.2100  137.1300 C   0  0  2  0  0  3  0  0  0  0  0  0
  187.5290  178.3910  138.0740 C   0  0  0  0  0  2  0  0  0  0  0  0
  189.0010  178.5940  138.2900 C   0  0  0  0  0  2  0  0  0  0  0  0
  189.6710  177.5400  137.4250 C   0  0  2  0  0  3  0  0  0  0  0  0
  188.7130  176.9750  136.5610 O   0  0  0  0  0  0  0  0  0  0  0  0
  190.3200  176.4550  138.2920 C   0  0  1  0  0  3  0  0  0  0  0  0
  191.6230  175.9720  137.6630 C   0  0  0  0  0  2  0  0  0  0  0  0
  191.7730  174.5450  137.8780 N   0  0  0  0  0  1  0  0  0  0  0  0
  190.4870  176.2640  140.6420 O   0  0  0  0  0  0  0  0  0  0  0  0
  190.5880  176.9890  139.6660 C   0  0  0  0  0  3  0  0  0  0  0  0
  1 12  2  0  0  0  0
  2 11  1  0  0  0  0
  3  2  1  0  0  0  0
  6 14  1  6  0  0  0
  7  6  1  0  0  0  0
  8  4  1  0  0  0  0
  8  7  2  0  0  0  0
  9  5  2  0  0  0  0
  9  4  1  0  0  0  0
 10  3  1  1  0  0  0
 10  1  1  0  0  0  0
 10  6  1  0  0  0  0
 11 15  1  1  0  0  0
 12  8  1  0  0  0  0
 13 11  1  0  0  0  0
 14 13  2  0  0  0  0
 15 16  2  0  0  0  0
 15 17  1  0  0  0  0
 17 18  1  0  0  0  0
 19 24  1  0  0  0  0
 19 22  1  0  0  0  0
 21 26  1  1  0  0  0
 22 20  1  6  0  0  0
 22 21  1  0  0  0  0
 23 21  1  0  0  0  0
 24 23  2  0  0  0  0
 25 18  1  0  0  0  0
 25 24  1  0  0  0  0
 26 28  1  0  0  0  0
 28 27  1  0  0  0  0
 29  9  1  0  0  0  0
 30 29  1  0  0  0  0
 31  1  1  0  0  0  0
 32 31  1  6  0  0  0
 32 33  1  0  0  0  0
 33 34  1  0  0  0  0
 35 34  1  0  0  0  0
 35 37  1  1  0  0  0
 36 32  1  0  0  0  0
 36 35  1  0  0  0  0
 37 38  1  6  0  0  0
 37 41  1  0  0  0  0
 38 39  1  0  0  0  0
 41 40  2  0  0  0  0
M  END
>  <MODEL>
5

>  <REMARK>
 VINA RESULT:      -6.5      2.240      3.015
  Name = 
  11 active torsions:
  status: ('A' for Active; 'I' for Inactive)
    1  A    between atoms: C_1  and  S_21
    2  A    between atoms: C_3  and  S_21
    3  A    between atoms: C_9  and  C_28
    4  A    between atoms: C_10  and  C_15
    5  A    between atoms: C_12  and  N_29
    6  A    between atoms: C_12  and  N_41
    7  A    between atoms: C_13  and  C_30
    8  A    between atoms: C_13  and  C_34
    9  A    between atoms: C_14  and  C_15
   10  A    between atoms: C_15  and  C_26
   11  A    between atoms: C_24  and  O_35
                            x       y       z     vdW  Elec       q    Type
                         _______ _______ _______ _____ _____    ______ ____

>  <TORSDO>
F 11

$$$$
=
 OpenBabel10222420383D

 41 44  0  0  1  0  0  0  0  0999 V2000
  185.5050  176.6100  136.4510 C   0  0  0  0  0  0  0  0  0  0  0  0
  188.8400  176.5050  135.8560 C   0  0  0  0  0  2  0  0  0  0  0  0
  187.6920  177.2910  135.2340 C   0  0  0  0  0  2  0  0  0  0  0  0
  183.7430  178.4010  139.2360 N   0  0  0  0  0  2  0  0  0  0  0  0
  181.6300  178.2830  140.1930 O   0  0  0  0  0  0  0  0  0  0  0  0
  187.0670  178.1330  137.6010 C   0  0  1  0  0  3  0  0  0  0  0  0
  185.9310  178.6150  138.3830 N   0  0  0  0  0  0  0  0  0  0  0  0
  184.7860  177.9820  138.3470 C   0  0  0  0  0  0  0  0  0  0  0  0
  182.4080  177.8800  139.2860 C   0  0  0  0  0  0  0  0  0  0  0  0
  186.5820  177.6560  136.2270 C   0  0  2  0  0  3  0  0  0  0  0  0
  189.7640  177.2900  136.8130 C   0  0  1  0  0  3  0  0  0  0  0  0
  184.6200  176.8130  137.4350 C   0  0  0  0  0  3  0  0  0  0  0  0
  189.3940  178.7410  137.1120 C   0  0  0  0  0  3  0  0  0  0  0  0
  188.1710  179.1340  137.5020 C   0  0  0  0  0  3  0  0  0  0  0  0
  189.9770  176.4870  138.0620 C   0  0  0  0  0  0  0  0  0  0  0  0
  189.7650  175.2380  138.0580 O   0  0  0  0  0  0  0  0  0  0  0  0
  190.4940  177.1250  139.2340 N   0  0  0  0  0  2  0  0  0  0  0  0
  191.0330  176.3820  140.3780 C   0  0  0  0  0  2  0  0  0  0  0  0
  191.1980  178.9040  143.7150 S   0  0  0  0  0  0  0  0  0  0  0  0
  190.2400  177.5170  145.8680 C   0  0  0  0  0  1  0  0  0  0  0  0
  188.7290  177.8180  143.8090 C   0  0  1  0  0  3  0  0  0  0  0  0
  189.7710  178.4460  144.7530 C   0  0  2  0  0  3  0  0  0  0  0  0
  189.4220  177.2770  142.6600 N   0  0  0  0  0  0  0  0  0  0  0  0
  190.6100  177.7540  142.4890 C   0  0  0  0  0  0  0  0  0  0  0  0
  191.4590  177.2970  141.4360 N   0  0  0  0  0  2  0  0  0  0  0  0
  187.8130  176.7790  144.4430 C   0  0  0  0  0  2  0  0  0  0  0  0
  185.8930  178.1250  143.9950 O   0  0  0  0  0  1  0  0  0  0  0  0
  186.5760  177.4530  145.0080 C   0  0  0  0  0  2  0  0  0  0  0  0
  181.9710  176.9290  138.3500 O   0  0  0  0  0  0  0  0  0  0  0  0
  180.7790  177.1160  137.5890 C   0  0  0  0  0  1  0  0  0  0  0  0
  185.4800  175.0500  135.5600 S   0  0  0  0  0  0  0  0  0  0  0  0
  184.0450  174.3690  136.4580 C   0  0  2  0  0  3  0  0  0  0  0  0
  184.4900  173.1230  137.1940 C   0  0  0  0  0  2  0  0  0  0  0  0
  183.4110  172.1170  136.9190 C   0  0  0  0  0  2  0  0  0  0  0  0
  182.4300  172.8350  136.0090 C   0  0  2  0  0  3  0  0  0  0  0  0
  183.0170  174.0320  135.5510 O   0  0  0  0  0  0  0  0  0  0  0  0
  181.1170  173.1260  136.7430 C   0  0  1  0  0  3  0  0  0  0  0  0
  180.0040  173.4480  135.7500 C   0  0  0  0  0  2  0  0  0  0  0  0
  179.0140  174.2990  136.3810 N   0  0  0  0  0  1  0  0  0  0  0  0
  179.9350  171.1190  137.1520 O   0  0  0  0  0  0  0  0  0  0  0  0
  180.7250  171.9460  137.5790 C   0  0  0  0  0  3  0  0  0  0  0  0
  1 12  2  0  0  0  0
  2 11  1  0  0  0  0
  3  2  1  0  0  0  0
  4  9  1  0  0  0  0
  6 14  1  6  0  0  0
  6  7  1  0  0  0  0
  8  7  2  0  0  0  0
  8  4  1  0  0  0  0
  9  5  2  0  0  0  0
 10  3  1  1  0  0  0
 10  1  1  0  0  0  0
 10  6  1  0  0  0  0
 11 13  1  0  0  0  0
 11 15  1  1  0  0  0
 12  8  1  0  0  0  0
 13 14  2  0  0  0  0
 15 17  1  0  0  0  0
 16 15  2  0  0  0  0
 17 18  1  0  0  0  0
 18 25  1  0  0  0  0
 19 22  1  0  0  0  0
 21 26  1  1  0  0  0
 21 22  1  0  0  0  0
 22 20  1  1  0  0  0
 23 21  1  0  0  0  0
 24 23  2  0  0  0  0
 24 19  1  0  0  0  0
 25 24  1  0  0  0  0
 26 28  1  0  0  0  0
 27 28  1  0  0  0  0
 29  9  1  0  0  0  0
 30 29  1  0  0  0  0
 31  1  1  0  0  0  0
 32 31  1  6  0  0  0
 32 33  1  0  0  0  0
 34 33  1  0  0  0  0
 35 37  1  1  0  0  0
 35 34  1  0  0  0  0
 36 35  1  0  0  0  0
 36 32  1  0  0  0  0
 37 38  1  6  0  0  0
 37 41  1  0  0  0  0
 38 39  1  0  0  0  0
 40 41  2  0  0  0  0
M  END
>  <MODEL>
6

>  <REMARK>
 VINA RESULT:      -6.4      2.668      6.714
  Name = 
  11 active torsions:
  status: ('A' for Active; 'I' for Inactive)
    1  A    between atoms: C_1  and  S_21
    2  A    between atoms: C_3  and  S_21
    3  A    between atoms: C_9  and  C_28
    4  A    between atoms: C_10  and  C_15
    5  A    between atoms: C_12  and  N_29
    6  A    between atoms: C_12  and  N_41
    7  A    between atoms: C_13  and  C_30
    8  A    between atoms: C_13  and  C_34
    9  A    between atoms: C_14  and  C_15
   10  A    between atoms: C_15  and  C_26
   11  A    between atoms: C_24  and  O_35
                            x       y       z     vdW  Elec       q    Type
                         _______ _______ _______ _____ _____    ______ ____

>  <TORSDO>
F 11

$$$$
=
 OpenBabel10222420383D

 41 44  0  0  1  0  0  0  0  0999 V2000
  188.4440  175.6770  135.1890 C   0  0  0  0  0  0  0  0  0  0  0  0
  187.3420  178.6180  136.4630 C   0  0  0  0  0  2  0  0  0  0  0  0
  187.1220  177.9080  135.1330 C   0  0  0  0  0  2  0  0  0  0  0  0
  187.1630  172.2370  135.9620 N   0  0  0  0  0  2  0  0  0  0  0  0
  187.9670  170.0780  135.6760 O   0  0  0  0  0  0  0  0  0  0  0  0
  186.3280  175.8240  136.4470 C   0  0  1  0  0  3  0  0  0  0  0  0
  186.2300  174.3690  136.3400 N   0  0  0  0  0  0  0  0  0  0  0  0
  187.2500  173.6670  135.9170 C   0  0  0  0  0  0  0  0  0  0  0  0
  188.1420  171.3110  135.4750 C   0  0  0  0  0  0  0  0  0  0  0  0
  187.1000  176.3790  135.2440 C   0  0  2  0  0  3  0  0  0  0  0  0
  186.1660  178.5700  137.4640 C   0  0  1  0  0  3  0  0  0  0  0  0
  188.4860  174.3660  135.4590 C   0  0  0  0  0  3  0  0  0  0  0  0
  184.9410  177.7510  137.0670 C   0  0  0  0  0  3  0  0  0  0  0  0
  185.0000  176.4840  136.6290 C   0  0  0  0  0  3  0  0  0  0  0  0
  186.6880  178.1970  138.8200 C   0  0  0  0  0  0  0  0  0  0  0  0
  187.7610  177.5330  138.9270 O   0  0  0  0  0  0  0  0  0  0  0  0
  186.0090  178.6600  139.9910 N   0  0  0  0  0  2  0  0  0  0  0  0
  186.6070  178.6250  141.3290 C   0  0  0  0  0  2  0  0  0  0  0  0
  184.3510  178.8550  144.8480 S   0  0  0  0  0  0  0  0  0  0  0  0
  186.0560  179.4370  146.9060 C   0  0  0  0  0  1  0  0  0  0  0  0
  186.4730  177.3230  145.5040 C   0  0  1  0  0  3  0  0  0  0  0  0
  185.4420  178.2470  146.1770 C   0  0  2  0  0  3  0  0  0  0  0  0
  186.6080  177.7200  144.1200 N   0  0  0  0  0  0  0  0  0  0  0  0
  185.6250  178.4320  143.6790 C   0  0  0  0  0  0  0  0  0  0  0  0
  185.6140  178.9570  142.3510 N   0  0  0  0  0  2  0  0  0  0  0  0
  187.8310  177.2460  146.1930 C   0  0  0  0  0  2  0  0  0  0  0  0
  190.0450  177.9910  145.6990 O   0  0  0  0  0  1  0  0  0  0  0  0
  188.9420  177.3270  145.1620 C   0  0  0  0  0  2  0  0  0  0  0  0
  189.2830  171.7610  134.7910 O   0  0  0  0  0  0  0  0  0  0  0  0
  190.4810  170.9890  134.7380 C   0  0  0  0  0  1  0  0  0  0  0  0
  189.9840  176.5680  134.9420 S   0  0  0  0  0  0  0  0  0  0  0  0
  190.9160  175.6450  136.2090 C   0  0  2  0  0  3  0  0  0  0  0  0
  190.6780  176.3030  137.5520 C   0  0  0  0  0  2  0  0  0  0  0  0
  192.0390  176.3860  138.1790 C   0  0  0  0  0  2  0  0  0  0  0  0
  192.9820  175.8040  137.1400 C   0  0  2  0  0  3  0  0  0  0  0  0
  192.2970  175.6710  135.9170 O   0  0  0  0  0  0  0  0  0  0  0  0
  193.5310  174.4480  137.5990 C   0  0  1  0  0  3  0  0  0  0  0  0
  193.5000  173.4390  136.4570 C   0  0  0  0  0  2  0  0  0  0  0  0
  194.3590  172.3130  136.7710 N   0  0  0  0  0  1  0  0  0  0  0  0
  195.7930  175.1060  137.3880 O   0  0  0  0  0  0  0  0  0  0  0  0
  194.9350  174.6070  138.0980 C   0  0  0  0  0  3  0  0  0  0  0  0
  1 10  1  0  0  0  0
  1 12  2  0  0  0  0
  2 11  1  0  0  0  0
  3  2  1  0  0  0  0
  6 14  1  6  0  0  0
  7  6  1  0  0  0  0
  8  4  1  0  0  0  0
  8  7  2  0  0  0  0
  9  5  2  0  0  0  0
  9  4  1  0  0  0  0
 10  3  1  1  0  0  0
 10  6  1  0  0  0  0
 11 15  1  1  0  0  0
 12  8  1  0  0  0  0
 13 11  1  0  0  0  0
 14 13  2  0  0  0  0
 15 16  2  0  0  0  0
 15 17  1  0  0  0  0
 17 18  1  0  0  0  0
 18 25  1  0  0  0  0
 19 22  1  0  0  0  0
 21 22  1  0  0  0  0
 21 26  1  1  0  0  0
 22 20  1  6  0  0  0
 23 21  1  0  0  0  0
 24 23  2  0  0  0  0
 24 19  1  0  0  0  0
 25 24  1  0  0  0  0
 28 27  1  0  0  0  0
 28 26  1  0  0  0  0
 29  9  1  0  0  0  0
 30 29  1  0  0  0  0
 31  1  1  0  0  0  0
 32 31  1  6  0  0  0
 32 33  1  0  0  0  0
 33 34  1  0  0  0  0
 35 37  1  1  0  0  0
 35 34  1  0  0  0  0
 36 32  1  0  0  0  0
 36 35  1  0  0  0  0
 37 38  1  6  0  0  0
 37 41  1  0  0  0  0
 38 39  1  0  0  0  0
 40 41  2  0  0  0  0
M  END
>  <MODEL>
7

>  <REMARK>
 VINA RESULT:      -6.4      2.636      3.767
  Name = 
  11 active torsions:
  status: ('A' for Active; 'I' for Inactive)
    1  A    between atoms: C_1  and  S_21
    2  A    between atoms: C_3  and  S_21
    3  A    between atoms: C_9  and  C_28
    4  A    between atoms: C_10  and  C_15
    5  A    between atoms: C_12  and  N_29
    6  A    between atoms: C_12  and  N_41
    7  A    between atoms: C_13  and  C_30
    8  A    between atoms: C_13  and  C_34
    9  A    between atoms: C_14  and  C_15
   10  A    between atoms: C_15  and  C_26
   11  A    between atoms: C_24  and  O_35
                            x       y       z     vdW  Elec       q    Type
                         _______ _______ _______ _____ _____    ______ ____

>  <TORSDO>
F 11

$$$$
=
 OpenBabel10222420383D

 41 44  0  0  1  0  0  0  0  0999 V2000
  188.3700  178.2710  140.5070 C   0  0  0  0  0  0  0  0  0  0  0  0
  186.9580  177.9680  137.4400 C   0  0  0  0  0  2  0  0  0  0  0  0
  188.0690  178.8510  137.9960 C   0  0  0  0  0  2  0  0  0  0  0  0
  190.9100  176.0030  142.0790 N   0  0  0  0  0  2  0  0  0  0  0  0
  191.6800  175.6410  144.2400 O   0  0  0  0  0  0  0  0  0  0  0  0
  189.2700  176.7110  138.8220 C   0  0  1  0  0  3  0  0  0  0  0  0
  190.2080  176.2440  139.8410 N   0  0  0  0  0  0  0  0  0  0  0  0
  190.0570  176.5960  141.0920 C   0  0  0  0  0  0  0  0  0  0  0  0
  190.9410  176.3210  143.4770 C   0  0  0  0  0  0  0  0  0  0  0  0
  188.9060  178.1760  139.0900 C   0  0  2  0  0  3  0  0  0  0  0  0
  187.4070  176.7810  136.5590 C   0  0  1  0  0  3  0  0  0  0  0  0
  188.9700  177.5500  141.4610 C   0  0  0  0  0  3  0  0  0  0  0  0
  188.9070  176.5540  136.4010 C   0  0  0  0  0  3  0  0  0  0  0  0
  189.7650  176.4900  137.4310 C   0  0  0  0  0  3  0  0  0  0  0  0
  186.6840  175.5420  136.9960 C   0  0  0  0  0  0  0  0  0  0  0  0
  187.3370  174.5180  137.3530 O   0  0  0  0  0  0  0  0  0  0  0  0
  185.2550  175.5490  137.0800 N   0  0  0  0  0  2  0  0  0  0  0  0
  184.4910  174.5190  137.7910 C   0  0  0  0  0  2  0  0  0  0  0  0
  180.5040  175.7790  138.0080 S   0  0  0  0  0  0  0  0  0  0  0  0
  180.4670  178.5040  137.7710 C   0  0  0  0  0  1  0  0  0  0  0  0
  181.8300  177.4390  139.6730 C   0  0  1  0  0  3  0  0  0  0  0  0
  180.5430  177.4070  138.8280 C   0  0  2  0  0  3  0  0  0  0  0  0
  182.7850  176.5240  139.0860 N   0  0  0  0  0  0  0  0  0  0  0  0
  182.2570  175.6520  138.2930 C   0  0  0  0  0  0  0  0  0  0  0  0
  183.0550  174.7020  137.5830 N   0  0  0  0  0  2  0  0  0  0  0  0
  182.4420  178.8180  139.8830 C   0  0  0  0  0  2  0  0  0  0  0  0
  184.1800  180.2530  139.0930 O   0  0  0  0  0  1  0  0  0  0  0  0
  183.7540  178.9250  139.1270 C   0  0  0  0  0  2  0  0  0  0  0  0
  190.1570  177.3630  143.9960 O   0  0  0  0  0  0  0  0  0  0  0  0
  190.7160  178.6350  144.3200 C   0  0  0  0  0  1  0  0  0  0  0  0
  186.8710  179.1770  140.9080 S   0  0  0  0  0  0  0  0  0  0  0  0
  186.5040  178.2290  142.4230 C   0  0  2  0  0  3  0  0  0  0  0  0
  185.0180  177.9390  142.4560 C   0  0  0  0  0  2  0  0  0  0  0  0
  184.6040  178.2530  143.8650 C   0  0  0  0  0  2  0  0  0  0  0  0
  185.8720  178.7410  144.5440 C   0  0  2  0  0  3  0  0  0  0  0  0
  186.8580  178.9770  143.5660 O   0  0  0  0  0  0  0  0  0  0  0  0
  186.3680  177.7200  145.5730 C   0  0  1  0  0  3  0  0  0  0  0  0
  187.8670  177.8780  145.8100 C   0  0  0  0  0  2  0  0  0  0  0  0
  188.2270  177.2880  147.0850 N   0  0  0  0  0  1  0  0  0  0  0  0
  185.2880  179.0040  147.2390 O   0  0  0  0  0  0  0  0  0  0  0  0
  185.6300  177.8940  146.8650 C   0  0  0  0  0  3  0  0  0  0  0  0
  1 31  1  0  0  0  0
  1 12  2  0  0  0  0
  2  3  1  0  0  0  0
  4  9  1  0  0  0  0
  6 14  1  6  0  0  0
  6 10  1  0  0  0  0
  6  7  1  0  0  0  0
  7  8  2  0  0  0  0
  8 12  1  0  0  0  0
  8  4  1  0  0  0  0
  9 29  1  0  0  0  0
  9  5  2  0  0  0  0
 10  3  1  6  0  0  0
 10  1  1  0  0  0  0
 11 15  1  1  0  0  0
 11  2  1  0  0  0  0
 13 11  1  0  0  0  0
 13 14  2  0  0  0  0
 15 17  1  0  0  0  0
 15 16  2  0  0  0  0
 17 18  1  0  0  0  0
 19 24  1  0  0  0  0
 19 22  1  0  0  0  0
 21 26  1  6  0  0  0
 22 20  1  6  0  0  0
 22 21  1  0  0  0  0
 23 21  1  0  0  0  0
 24 23  2  0  0  0  0
 25 18  1  0  0  0  0
 25 24  1  0  0  0  0
 27 28  1  0  0  0  0
 28 26  1  0  0  0  0
 29 30  1  0  0  0  0
 32 31  1  6  0  0  0
 32 33  1  0  0  0  0
 32 36  1  0  0  0  0
 33 34  1  0  0  0  0
 34 35  1  0  0  0  0
 35 37  1  1  0  0  0
 36 35  1  0  0  0  0
 37 38  1  1  0  0  0
 37 41  1  0  0  0  0
 38 39  1  0  0  0  0
 41 40  2  0  0  0  0
M  END
>  <MODEL>
8

>  <REMARK>
 VINA RESULT:      -6.4      2.546      8.286
  Name = 
  11 active torsions:
  status: ('A' for Active; 'I' for Inactive)
    1  A    between atoms: C_1  and  S_21
    2  A    between atoms: C_3  and  S_21
    3  A    between atoms: C_9  and  C_28
    4  A    between atoms: C_10  and  C_15
    5  A    between atoms: C_12  and  N_29
    6  A    between atoms: C_12  and  N_41
    7  A    between atoms: C_13  and  C_30
    8  A    between atoms: C_13  and  C_34
    9  A    between atoms: C_14  and  C_15
   10  A    between atoms: C_15  and  C_26
   11  A    between atoms: C_24  and  O_35
                            x       y       z     vdW  Elec       q    Type
                         _______ _______ _______ _____ _____    ______ ____

>  <TORSDO>
F 11

$$$$
=
 OpenBabel10222420383D

 41 44  0  0  1  0  0  0  0  0999 V2000
  186.6120  178.1300  142.2280 C   0  0  0  0  0  0  0  0  0  0  0  0
  183.2910  178.4500  141.6280 C   0  0  0  0  0  2  0  0  0  0  0  0
  184.3910  179.4460  141.9760 C   0  0  0  0  0  2  0  0  0  0  0  0
  189.3500  177.6890  139.7040 N   0  0  0  0  0  2  0  0  0  0  0  0
  191.5580  176.9710  139.7770 O   0  0  0  0  0  0  0  0  0  0  0  0
  185.7480  178.5570  139.9580 C   0  0  1  0  0  3  0  0  0  0  0  0
  187.1190  178.4140  139.4720 N   0  0  0  0  0  0  0  0  0  0  0  0
  188.0550  177.9480  140.2590 C   0  0  0  0  0  0  0  0  0  0  0  0
  190.5110  177.2520  140.4220 C   0  0  0  0  0  0  0  0  0  0  0  0
  185.7640  179.0780  141.4000 C   0  0  2  0  0  3  0  0  0  0  0  0
  182.8240  178.4360  140.1560 C   0  0  1  0  0  3  0  0  0  0  0  0
  187.7340  177.6440  141.6840 C   0  0  0  0  0  3  0  0  0  0  0  0
  183.5600  179.3490  139.1780 C   0  0  0  0  0  3  0  0  0  0  0  0
  184.8960  179.3910  139.0580 C   0  0  0  0  0  3  0  0  0  0  0  0
  182.7580  177.0180  139.6730 C   0  0  0  0  0  0  0  0  0  0  0  0
  182.1600  176.1390  140.3620 O   0  0  0  0  0  0  0  0  0  0  0  0
  183.3080  176.6790  138.3960 N   0  0  0  0  0  2  0  0  0  0  0  0
  183.0120  175.4190  137.7070 C   0  0  0  0  0  2  0  0  0  0  0  0
  186.5640  173.2700  137.1610 S   0  0  0  0  0  0  0  0  0  0  0  0
  188.6210  175.0670  137.0110 C   0  0  0  0  0  1  0  0  0  0  0  0
  186.6820  175.2500  135.3310 C   0  0  1  0  0  3  0  0  0  0  0  0
  187.6270  174.3260  136.1220 C   0  0  2  0  0  3  0  0  0  0  0  0
  185.4520  175.3930  136.0780 N   0  0  0  0  0  0  0  0  0  0  0  0
  185.2660  174.4730  136.9650 C   0  0  0  0  0  0  0  0  0  0  0  0
  184.1300  174.4840  137.8320 N   0  0  0  0  0  2  0  0  0  0  0  0
  187.2610  176.6080  134.9520 C   0  0  0  0  0  2  0  0  0  0  0  0
  187.3390  178.6830  136.1320 O   0  0  0  0  0  1  0  0  0  0  0  0
  186.4700  177.7160  135.6250 C   0  0  0  0  0  2  0  0  0  0  0  0
  190.4890  177.1290  141.8210 O   0  0  0  0  0  0  0  0  0  0  0  0
  190.6630  175.8700  142.4680 C   0  0  0  0  0  1  0  0  0  0  0  0
  186.0790  177.5140  143.8300 S   0  0  0  0  0  0  0  0  0  0  0  0
  187.7570  177.1050  144.4170 C   0  0  2  0  0  3  0  0  0  0  0  0
  187.6790  176.7800  145.8940 C   0  0  0  0  0  2  0  0  0  0  0  0
  188.8310  177.5230  146.5050 C   0  0  0  0  0  2  0  0  0  0  0  0
  189.4770  178.2620  145.3460 C   0  0  2  0  0  3  0  0  0  0  0  0
  188.6230  178.2030  144.2280 O   0  0  0  0  0  0  0  0  0  0  0  0
  190.8460  177.6600  145.0100 C   0  0  1  0  0  3  0  0  0  0  0  0
  191.8220  178.7490  144.5770 C   0  0  0  0  0  2  0  0  0  0  0  0
  191.0990  179.8320  143.9370 N   0  0  0  0  0  1  0  0  0  0  0  0
  192.0880  175.9410  146.0550 O   0  0  0  0  0  0  0  0  0  0  0  0
  191.3920  176.9330  146.2000 C   0  0  0  0  0  3  0  0  0  0  0  0
  1 31  1  0  0  0  0
  2  3  1  0  0  0  0
  4  8  1  0  0  0  0
  4  9  1  0  0  0  0
  5  9  2  0  0  0  0
  6 14  1  6  0  0  0
  6 10  1  0  0  0  0
  7  6  1  0  0  0  0
  7  8  2  0  0  0  0
  8 12  1  0  0  0  0
  9 29  1  0  0  0  0
 10  3  1  1  0  0  0
 10  1  1  0  0  0  0
 11 15  1  6  0  0  0
 11  2  1  0  0  0  0
 12  1  2  0  0  0  0
 13 11  1  0  0  0  0
 14 13  2  0  0  0  0
 15 16  2  0  0  0  0
 17 15  1  0  0  0  0
 18 25  1  0  0  0  0
 18 17  1  0  0  0  0
 21 26  1  1  0  0  0
 21 23  1  0  0  0  0
 21 22  1  0  0  0  0
 22 20  1  1  0  0  0
 22 19  1  0  0  0  0
 23 24  2  0  0  0  0
 24 19  1  0  0  0  0
 24 25  1  0  0  0  0
 26 28  1  0  0  0  0
 28 27  1  0  0  0  0
 29 30  1  0  0  0  0
 32 31  1  1  0  0  0
 32 33  1  0  0  0  0
 33 34  1  0  0  0  0
 35 37  1  6  0  0  0
 35 34  1  0  0  0  0
 36 32  1  0  0  0  0
 36 35  1  0  0  0  0
 37 38  1  1  0  0  0
 37 41  1  0  0  0  0
 39 38  1  0  0  0  0
 40 41  2  0  0  0  0
M  END
>  <MODEL>
9

>  <REMARK>
 VINA RESULT:      -6.3      2.453      7.522
  Name = 
  11 active torsions:
  status: ('A' for Active; 'I' for Inactive)
    1  A    between atoms: C_1  and  S_21
    2  A    between atoms: C_3  and  S_21
    3  A    between atoms: C_9  and  C_28
    4  A    between atoms: C_10  and  C_15
    5  A    between atoms: C_12  and  N_29
    6  A    between atoms: C_12  and  N_41
    7  A    between atoms: C_13  and  C_30
    8  A    between atoms: C_13  and  C_34
    9  A    between atoms: C_14  and  C_15
   10  A    between atoms: C_15  and  C_26
   11  A    between atoms: C_24  and  O_35
                            x       y       z     vdW  Elec       q    Type
                         _______ _______ _______ _____ _____    ______ ____

>  <TORSDO>
F 11

$$$$
