=
 OpenBabel10222415413D

 40 43  0  0  1  0  0  0  0  0999 V2000
  189.4790  178.5520  139.5760 C   0  0  0  0  0  2  0  0  0  0  0  0
  189.7510  177.2220  141.5630 C   0  0  0  0  0  0  0  0  0  0  0  0
  189.7920  177.2600  140.2620 C   0  0  0  0  0  0  0  0  0  0  0  0
  189.7230  177.1940  142.8770 C   0  0  0  0  0  0  0  0  0  0  0  0
  188.4690  176.7640  143.5880 C   0  0  0  0  0  3  0  0  0  0  0  0
  187.2270  177.2320  142.8530 C   0  0  0  0  0  1  0  0  0  0  0  0
  188.4430  177.2470  145.0290 C   0  0  0  0  0  1  0  0  0  0  0  0
  190.9340  177.5290  143.6690 C   0  0  0  0  0  0  0  0  0  0  0  0
  191.3700  178.7830  143.7810 C   0  0  0  0  0  2  0  0  0  0  0  0
  191.7070  176.4470  144.3580 C   0  0  0  0  0  2  0  0  0  0  0  0
  191.7460  176.6640  145.8660 C   0  0  0  0  0  2  0  0  0  0  0  0
  192.4650  175.8320  147.9310 C   0  0  0  0  0  1  0  0  0  0  0  0
  192.2370  175.4730  146.5410 N   0  0  0  0  0  2  0  0  0  0  0  0
  190.2710  176.1080  139.5520 N   0  0  0  0  0  2  0  0  0  0  0  0
  192.5210  176.8260  138.9350 C   0  0  0  0  0  3  0  0  0  0  0  0
  193.6120  176.7670  138.1250 N   0  0  0  0  0  0  0  0  0  0  0  0
  191.4300  175.1790  137.5610 C   0  0  0  0  0  3  0  0  0  0  0  0
  192.5570  175.1320  136.7410 C   0  0  0  0  0  3  0  0  0  0  0  0
  193.6520  175.9440  137.0430 C   0  0  0  0  0  3  0  0  0  0  0  0
  191.3980  176.0370  138.6670 C   0  0  0  0  0  0  0  0  0  0  0  0
  188.7090  178.2980  138.2900 C   0  0  2  0  0  3  0  0  0  0  0  0
  188.7000  179.4590  137.5140 O   0  0  0  0  0  1  0  0  0  0  0  0
  187.2850  177.8790  138.6260 C   0  0  0  0  0  2  0  0  0  0  0  0
  186.3330  178.2560  137.5030 C   0  0  0  0  0  2  0  0  0  0  0  0
  184.8990  178.0610  137.9540 C   0  0  0  0  0  2  0  0  0  0  0  0
  184.3790  179.3410  138.5750 C   0  0  0  0  0  2  0  0  0  0  0  0
  181.3250  178.7160  144.1390 N   0  0  0  0  0  0  0  0  0  0  0  0
  184.6020  179.1200  142.2570 C   0  0  0  0  0  3  0  0  0  0  0  0
  180.2840  178.5850  140.4640 C   0  0  0  0  0  2  0  0  0  0  0  0
  183.9860  179.0930  139.9530 N   0  0  0  0  0  0  0  0  0  0  0  0
  181.4620  178.7720  139.4580 C   0  0  1  0  0  3  0  0  0  0  0  0
  183.5710  179.0220  145.1330 C   0  0  0  0  0  1  0  0  0  0  0  0
  180.9660  178.5700  141.7970 C   0  0  0  0  0  0  0  0  0  0  0  0
  180.4490  178.5960  143.0920 C   0  0  0  0  0  3  0  0  0  0  0  0
  184.9340  179.2360  140.9940 N   0  0  0  0  0  0  0  0  0  0  0  0
  182.6670  178.7310  140.2820 N   0  0  0  0  0  0  0  0  0  0  0  0
  182.6790  178.8450  143.9520 C   0  0  0  0  0  0  0  0  0  0  0  0
  181.4760  177.7130  138.5520 O   0  0  0  0  0  1  0  0  0  0  0  0
  182.3000  178.6570  141.6200 C   0  0  0  0  0  0  0  0  0  0  0  0
  183.1980  178.8440  142.6440 C   0  0  0  0  0  0  0  0  0  0  0  0
  1  3  1  0  0  0  0
  2  4  2  0  0  0  0
  3  2  2  0  0  0  0
  4  5  1  0  0  0  0
  4  8  1  0  0  0  0
  5  7  1  0  0  0  0
  6  5  1  0  0  0  0
  8  9  2  0  0  0  0
  8 10  1  0  0  0  0
 10 11  1  0  0  0  0
 11 13  1  0  0  0  0
 13 12  1  0  0  0  0
 14  3  1  0  0  0  0
 16 15  2  0  0  0  0
 17 20  2  0  0  0  0
 18 19  2  0  0  0  0
 18 17  1  0  0  0  0
 19 16  1  0  0  0  0
 20 15  1  0  0  0  0
 20 14  1  0  0  0  0
 21 22  1  6  0  0  0
 21 23  1  0  0  0  0
 21  1  1  0  0  0  0
 24 25  1  0  0  0  0
 24 23  1  0  0  0  0
 25 26  1  0  0  0  0
 26 30  1  0  0  0  0
 28 40  1  0  0  0  0
 29 33  1  0  0  0  0
 30 36  1  0  0  0  0
 30 35  1  0  0  0  0
 31 38  1  6  0  0  0
 31 36  1  0  0  0  0
 31 29  1  0  0  0  0
 33 34  1  0  0  0  0
 34 27  2  0  0  0  0
 35 28  2  0  0  0  0
 36 39  1  0  0  0  0
 37 27  1  0  0  0  0
 37 32  1  0  0  0  0
 39 33  2  0  0  0  0
 39 40  1  0  0  0  0
 40 37  2  0  0  0  0
M  END
>  <MODEL>
1

>  <REMARK>
 VINA RESULT:      -8.0      0.000      0.000
  Name = 
  14 active torsions:
  status: ('A' for Active; 'I' for Inactive)
    1  A    between atoms: C_2  and  C_39
    2  A    between atoms: C_7  and  C_8
    3  A    between atoms: C_7  and  C_31
    4  A    between atoms: C_8  and  C_40
    5  A    between atoms: C_9  and  N_11
    6  A    between atoms: C_9  and  C_37
    7  A    between atoms: C_13  and  C_37
    8  A    between atoms: C_13  and  C_39
    9  A    between atoms: C_14  and  C_30
   10  A    between atoms: C_14  and  C_38
   11  A    between atoms: N_16  and  C_30
   12  A    between atoms: N_20  and  C_31
   13  A    between atoms: N_20  and  C_34
   14  A    between atoms: C_38  and  C_40
                            x       y       z     vdW  Elec       q    Type
                         _______ _______ _______ _____ _____    ______ ____

>  <TORSDO>
F 14

$$$$
=
 OpenBabel10222415413D

 40 43  0  0  1  0  0  0  0  0999 V2000
  185.9970  178.3780  139.0970 C   0  0  0  0  0  2  0  0  0  0  0  0
  186.0450  176.8370  137.2490 C   0  0  0  0  0  0  0  0  0  0  0  0
  186.6400  177.8160  137.8690 C   0  0  0  0  0  0  0  0  0  0  0  0
  185.4470  175.8390  136.6370 C   0  0  0  0  0  0  0  0  0  0  0  0
  184.5120  176.1170  135.4920 C   0  0  0  0  0  3  0  0  0  0  0  0
  185.0210  177.2540  134.6240 C   0  0  0  0  0  1  0  0  0  0  0  0
  183.1010  176.4100  135.9730 C   0  0  0  0  0  1  0  0  0  0  0  0
  185.7270  174.4330  137.0280 C   0  0  0  0  0  0  0  0  0  0  0  0
  186.8980  173.8550  136.7670 C   0  0  0  0  0  2  0  0  0  0  0  0
  184.6780  173.6220  137.7240 C   0  0  0  0  0  2  0  0  0  0  0  0
  184.4080  172.3130  136.9910 C   0  0  0  0  0  2  0  0  0  0  0  0
  182.2330  172.2550  136.1310 C   0  0  0  0  0  1  0  0  0  0  0  0
  183.6150  172.5510  135.7950 N   0  0  0  0  0  2  0  0  0  0  0  0
  187.9470  178.2170  137.4320 N   0  0  0  0  0  2  0  0  0  0  0  0
  189.7020  177.8140  139.0800 C   0  0  0  0  0  3  0  0  0  0  0  0
  190.8820  177.2480  139.4520 N   0  0  0  0  0  0  0  0  0  0  0  0
  189.9340  176.8270  136.8970 C   0  0  0  0  0  3  0  0  0  0  0  0
  191.1430  176.2550  137.2960 C   0  0  0  0  0  3  0  0  0  0  0  0
  191.6060  176.4810  138.5930 C   0  0  0  0  0  3  0  0  0  0  0  0
  189.2030  177.6230  137.7880 C   0  0  0  0  0  0  0  0  0  0  0  0
  184.5670  178.7990  138.8040 C   0  0  2  0  0  3  0  0  0  0  0  0
  184.4380  180.1770  138.9870 O   0  0  0  0  0  1  0  0  0  0  0  0
  183.6180  178.0540  139.7320 C   0  0  0  0  0  2  0  0  0  0  0  0
  183.2850  178.8970  140.9520 C   0  0  0  0  0  2  0  0  0  0  0  0
  183.7630  178.1980  142.2090 C   0  0  0  0  0  2  0  0  0  0  0  0
  184.6000  179.1510  143.0370 C   0  0  0  0  0  2  0  0  0  0  0  0
  189.7370  177.0980  146.2130 N   0  0  0  0  0  0  0  0  0  0  0  0
  187.8700  177.4320  142.9190 C   0  0  0  0  0  3  0  0  0  0  0  0
  186.4110  178.6960  147.2110 C   0  0  0  0  0  2  0  0  0  0  0  0
  185.8030  178.4740  143.4960 N   0  0  0  0  0  0  0  0  0  0  0  0
  185.4550  178.9840  146.0130 C   0  0  1  0  0  3  0  0  0  0  0  0
  190.5620  176.4410  143.9730 C   0  0  0  0  0  1  0  0  0  0  0  0
  187.5650  177.9890  146.5710 C   0  0  0  0  0  0  0  0  0  0  0  0
  188.8100  177.6170  147.0790 C   0  0  0  0  0  3  0  0  0  0  0  0
  186.7260  177.9600  142.5540 N   0  0  0  0  0  0  0  0  0  0  0  0
  186.0840  178.3330  144.8670 N   0  0  0  0  0  0  0  0  0  0  0  0
  189.4920  176.9670  144.8680 C   0  0  0  0  0  0  0  0  0  0  0  0
  184.2100  178.4040  146.2570 O   0  0  0  0  0  1  0  0  0  0  0  0
  187.3150  177.8210  145.2560 C   0  0  0  0  0  0  0  0  0  0  0  0
  188.2450  177.3650  144.3520 C   0  0  0  0  0  0  0  0  0  0  0  0
  2  3  2  0  0  0  0
  3  1  1  0  0  0  0
  4  8  1  0  0  0  0
  4  2  2  0  0  0  0
  5  7  1  0  0  0  0
  5  4  1  0  0  0  0
  6  5  1  0  0  0  0
  8 10  1  0  0  0  0
  9  8  2  0  0  0  0
 11 10  1  0  0  0  0
 13 12  1  0  0  0  0
 13 11  1  0  0  0  0
 14 20  1  0  0  0  0
 14  3  1  0  0  0  0
 15 16  1  0  0  0  0
 17 18  2  0  0  0  0
 17 20  1  0  0  0  0
 18 19  1  0  0  0  0
 19 16  2  0  0  0  0
 20 15  2  0  0  0  0
 21 22  1  1  0  0  0
 21  1  1  0  0  0  0
 21 23  1  0  0  0  0
 23 24  1  0  0  0  0
 24 25  1  0  0  0  0
 25 26  1  0  0  0  0
 26 30  1  0  0  0  0
 27 34  1  0  0  0  0
 28 40  1  0  0  0  0
 30 36  1  0  0  0  0
 31 38  1  1  0  0  0
 31 29  1  0  0  0  0
 32 37  1  0  0  0  0
 33 34  2  0  0  0  0
 33 29  1  0  0  0  0
 35 28  2  0  0  0  0
 35 30  1  0  0  0  0
 36 39  1  0  0  0  0
 36 31  1  0  0  0  0
 37 27  2  0  0  0  0
 39 33  1  0  0  0  0
 40 37  1  0  0  0  0
 40 39  2  0  0  0  0
M  END
>  <MODEL>
2

>  <REMARK>
 VINA RESULT:      -8.0      3.234      7.292
  Name = 
  14 active torsions:
  status: ('A' for Active; 'I' for Inactive)
    1  A    between atoms: C_2  and  C_39
    2  A    between atoms: C_7  and  C_8
    3  A    between atoms: C_7  and  C_31
    4  A    between atoms: C_8  and  C_40
    5  A    between atoms: C_9  and  N_11
    6  A    between atoms: C_9  and  C_37
    7  A    between atoms: C_13  and  C_37
    8  A    between atoms: C_13  and  C_39
    9  A    between atoms: C_14  and  C_30
   10  A    between atoms: C_14  and  C_38
   11  A    between atoms: N_16  and  C_30
   12  A    between atoms: N_20  and  C_31
   13  A    between atoms: N_20  and  C_34
   14  A    between atoms: C_38  and  C_40
                            x       y       z     vdW  Elec       q    Type
                         _______ _______ _______ _____ _____    ______ ____

>  <TORSDO>
F 14

$$$$
=
 OpenBabel10222415413D

 40 43  0  0  1  0  0  0  0  0999 V2000
  184.4790  179.2060  140.7860 C   0  0  0  0  0  2  0  0  0  0  0  0
  184.3130  178.3340  138.5500 C   0  0  0  0  0  0  0  0  0  0  0  0
  184.0230  179.3070  139.3650 C   0  0  0  0  0  0  0  0  0  0  0  0
  184.6220  177.3560  137.7280 C   0  0  0  0  0  0  0  0  0  0  0  0
  183.6470  176.2320  137.5030 C   0  0  0  0  0  3  0  0  0  0  0  0
  182.6000  176.1800  138.6000 C   0  0  0  0  0  1  0  0  0  0  0  0
  184.3490  174.8910  137.3780 C   0  0  0  0  0  1  0  0  0  0  0  0
  185.9030  177.3730  136.9740 C   0  0  0  0  0  0  0  0  0  0  0  0
  185.9290  177.4280  135.6440 C   0  0  0  0  0  2  0  0  0  0  0  0
  187.2080  177.3190  137.7060 C   0  0  0  0  0  2  0  0  0  0  0  0
  188.2460  178.2300  137.0610 C   0  0  0  0  0  2  0  0  0  0  0  0
  189.2670  178.2260  139.1660 C   0  0  0  0  0  1  0  0  0  0  0  0
  189.5260  178.1080  137.7420 N   0  0  0  0  0  2  0  0  0  0  0  0
  183.4080  180.4910  138.8370 N   0  0  0  0  0  2  0  0  0  0  0  0
  181.5420  181.9870  138.3500 C   0  0  0  0  0  3  0  0  0  0  0  0
  180.2360  182.2020  138.0350 N   0  0  0  0  0  0  0  0  0  0  0  0
  181.1350  179.6150  138.3530 C   0  0  0  0  0  3  0  0  0  0  0  0
  179.7990  179.8540  138.0310 C   0  0  0  0  0  3  0  0  0  0  0  0
  179.3630  181.1710  137.8750 C   0  0  0  0  0  3  0  0  0  0  0  0
  182.0210  180.6860  138.5250 C   0  0  0  0  0  0  0  0  0  0  0  0
  183.5400  178.3160  141.5830 C   0  0  2  0  0  3  0  0  0  0  0  0
  182.2640  178.8820  141.6030 O   0  0  0  0  0  1  0  0  0  0  0  0
  184.0690  178.1630  143.0020 C   0  0  0  0  0  2  0  0  0  0  0  0
  184.7320  179.4470  143.4720 C   0  0  0  0  0  2  0  0  0  0  0  0
  185.3480  179.2390  144.8410 C   0  0  0  0  0  2  0  0  0  0  0  0
  185.6840  177.7740  145.0340 C   0  0  0  0  0  2  0  0  0  0  0  0
  191.8700  176.2520  145.3530 N   0  0  0  0  0  0  0  0  0  0  0  0
  188.7480  177.5520  147.0880 C   0  0  0  0  0  3  0  0  0  0  0  0
  189.2800  176.4390  142.5470 C   0  0  0  0  0  2  0  0  0  0  0  0
  187.0910  177.6360  145.3750 N   0  0  0  0  0  0  0  0  0  0  0  0
  187.8690  176.9160  143.0100 C   0  0  1  0  0  3  0  0  0  0  0  0
  191.6340  176.7980  147.7560 C   0  0  0  0  0  1  0  0  0  0  0  0
  190.1100  176.5560  143.7880 C   0  0  0  0  0  0  0  0  0  0  0  0
  191.4080  176.1320  144.0670 C   0  0  0  0  0  3  0  0  0  0  0  0
  187.5080  177.7670  146.7210 N   0  0  0  0  0  0  0  0  0  0  0  0
  188.0560  177.3510  144.3920 N   0  0  0  0  0  0  0  0  0  0  0  0
  191.0880  176.7400  146.3700 C   0  0  0  0  0  0  0  0  0  0  0  0
  187.4590  177.9950  142.2280 O   0  0  0  0  0  1  0  0  0  0  0  0
  189.3590  177.0730  144.7820 C   0  0  0  0  0  0  0  0  0  0  0  0
  189.7690  177.1460  146.0930 C   0  0  0  0  0  0  0  0  0  0  0  0
  1 21  1  0  0  0  0
  2  3  2  0  0  0  0
  3  1  1  0  0  0  0
  4  2  2  0  0  0  0
  5  4  1  0  0  0  0
  5  6  1  0  0  0  0
  7  5  1  0  0  0  0
  8 10  1  0  0  0  0
  8  4  1  0  0  0  0
  9  8  2  0  0  0  0
 11 10  1  0  0  0  0
 11 13  1  0  0  0  0
 13 12  1  0  0  0  0
 14  3  1  0  0  0  0
 15 20  1  0  0  0  0
 16 15  2  0  0  0  0
 17 20  2  0  0  0  0
 18 17  1  0  0  0  0
 19 18  2  0  0  0  0
 19 16  1  0  0  0  0
 20 14  1  0  0  0  0
 21 22  1  1  0  0  0
 21 23  1  0  0  0  0
 23 24  1  0  0  0  0
 24 25  1  0  0  0  0
 25 26  1  0  0  0  0
 26 30  1  0  0  0  0
 27 37  1  0  0  0  0
 29 31  1  0  0  0  0
 29 33  1  0  0  0  0
 30 35  1  0  0  0  0
 31 38  1  6  0  0  0
 31 36  1  0  0  0  0
 33 34  1  0  0  0  0
 33 39  2  0  0  0  0
 34 27  2  0  0  0  0
 35 28  2  0  0  0  0
 36 39  1  0  0  0  0
 36 30  1  0  0  0  0
 37 32  1  0  0  0  0
 39 40  1  0  0  0  0
 40 37  2  0  0  0  0
 40 28  1  0  0  0  0
M  END
>  <MODEL>
3

>  <REMARK>
 VINA RESULT:      -8.0      2.620      8.906
  Name = 
  14 active torsions:
  status: ('A' for Active; 'I' for Inactive)
    1  A    between atoms: C_2  and  C_39
    2  A    between atoms: C_7  and  C_8
    3  A    between atoms: C_7  and  C_31
    4  A    between atoms: C_8  and  C_40
    5  A    between atoms: C_9  and  N_11
    6  A    between atoms: C_9  and  C_37
    7  A    between atoms: C_13  and  C_37
    8  A    between atoms: C_13  and  C_39
    9  A    between atoms: C_14  and  C_30
   10  A    between atoms: C_14  and  C_38
   11  A    between atoms: N_16  and  C_30
   12  A    between atoms: N_20  and  C_31
   13  A    between atoms: N_20  and  C_34
   14  A    between atoms: C_38  and  C_40
                            x       y       z     vdW  Elec       q    Type
                         _______ _______ _______ _____ _____    ______ ____

>  <TORSDO>
F 14

$$$$
=
 OpenBabel10222415413D

 40 43  0  0  1  0  0  0  0  0999 V2000
  189.7230  178.2790  139.3380 C   0  0  0  0  0  2  0  0  0  0  0  0
  191.1070  176.4630  138.5790 C   0  0  0  0  0  0  0  0  0  0  0  0
  190.4650  177.0010  139.5750 C   0  0  0  0  0  0  0  0  0  0  0  0
  191.7400  175.9150  137.5650 C   0  0  0  0  0  0  0  0  0  0  0  0
  193.1990  176.2130  137.3470 C   0  0  0  0  0  3  0  0  0  0  0  0
  193.5390  176.2630  135.8690 C   0  0  0  0  0  1  0  0  0  0  0  0
  194.0920  175.2130  138.0620 C   0  0  0  0  0  1  0  0  0  0  0  0
  191.0460  174.9620  136.6620 C   0  0  0  0  0  0  0  0  0  0  0  0
  191.1380  173.6440  136.8340 C   0  0  0  0  0  2  0  0  0  0  0  0
  190.2250  175.4700  135.5170 C   0  0  0  0  0  2  0  0  0  0  0  0
  189.0880  174.5130  135.1780 C   0  0  0  0  0  2  0  0  0  0  0  0
  187.3300  174.0900  136.6620 C   0  0  0  0  0  1  0  0  0  0  0  0
  187.8210  175.0310  135.6690 N   0  0  0  0  0  2  0  0  0  0  0  0
  190.3780  176.2800  140.8130 N   0  0  0  0  0  2  0  0  0  0  0  0
  191.3180  177.5680  142.6600 C   0  0  0  0  0  3  0  0  0  0  0  0
  191.2250  178.1160  143.9020 N   0  0  0  0  0  0  0  0  0  0  0  0
  189.0950  176.6780  142.9020 C   0  0  0  0  0  3  0  0  0  0  0  0
  189.0170  177.2460  144.1740 C   0  0  0  0  0  3  0  0  0  0  0  0
  190.1070  177.9690  144.6620 C   0  0  0  0  0  3  0  0  0  0  0  0
  190.2560  176.8280  142.1330 C   0  0  0  0  0  0  0  0  0  0  0  0
  188.9850  178.2270  138.0110 C   0  0  2  0  0  3  0  0  0  0  0  0
  188.7430  179.5260  137.5590 O   0  0  0  0  0  1  0  0  0  0  0  0
  187.6710  177.4790  138.1900 C   0  0  0  0  0  2  0  0  0  0  0  0
  186.5760  178.1030  137.3410 C   0  0  0  0  0  2  0  0  0  0  0  0
  185.2220  177.8430  137.9720 C   0  0  0  0  0  2  0  0  0  0  0  0
  184.7340  179.0960  138.6700 C   0  0  0  0  0  2  0  0  0  0  0  0
  183.2850  178.8120  144.8750 N   0  0  0  0  0  0  0  0  0  0  0  0
  185.9320  178.7420  142.1480 C   0  0  0  0  0  3  0  0  0  0  0  0
  181.2590  178.9500  141.6370 C   0  0  0  0  0  2  0  0  0  0  0  0
  184.7050  178.8760  140.1070 N   0  0  0  0  0  0  0  0  0  0  0  0
  182.1250  178.9740  140.3410 C   0  0  1  0  0  3  0  0  0  0  0  0
  185.7380  178.7300  145.1990 C   0  0  0  0  0  1  0  0  0  0  0  0
  182.2720  178.7900  142.7280 C   0  0  0  0  0  0  0  0  0  0  0  0
  182.1460  178.8620  144.1150 C   0  0  0  0  0  3  0  0  0  0  0  0
  185.9150  178.8380  140.8410 N   0  0  0  0  0  0  0  0  0  0  0  0
  183.4890  178.7190  140.7970 N   0  0  0  0  0  0  0  0  0  0  0  0
  184.5370  178.7300  144.3170 C   0  0  0  0  0  0  0  0  0  0  0  0
  181.7170  177.9520  139.4850 O   0  0  0  0  0  1  0  0  0  0  0  0
  183.5000  178.6680  142.1850 C   0  0  0  0  0  0  0  0  0  0  0  0
  184.6650  178.6820  142.9160 C   0  0  0  0  0  0  0  0  0  0  0  0
  1  3  1  0  0  0  0
  2  3  2  0  0  0  0
  3 14  1  0  0  0  0
  4  2  2  0  0  0  0
  5  4  1  0  0  0  0
  5  7  1  0  0  0  0
  6  5  1  0  0  0  0
  8  9  2  0  0  0  0
  8  4  1  0  0  0  0
 10  8  1  0  0  0  0
 11 10  1  0  0  0  0
 11 13  1  0  0  0  0
 13 12  1  0  0  0  0
 14 20  1  0  0  0  0
 15 16  1  0  0  0  0
 16 19  2  0  0  0  0
 17 18  2  0  0  0  0
 18 19  1  0  0  0  0
 20 15  2  0  0  0  0
 20 17  1  0  0  0  0
 21 22  1  1  0  0  0
 21 23  1  0  0  0  0
 21  1  1  0  0  0  0
 24 25  1  0  0  0  0
 24 23  1  0  0  0  0
 25 26  1  0  0  0  0
 26 30  1  0  0  0  0
 28 40  1  0  0  0  0
 29 33  1  0  0  0  0
 30 36  1  0  0  0  0
 30 35  1  0  0  0  0
 31 38  1  6  0  0  0
 31 36  1  0  0  0  0
 31 29  1  0  0  0  0
 33 34  1  0  0  0  0
 34 27  2  0  0  0  0
 35 28  2  0  0  0  0
 36 39  1  0  0  0  0
 37 27  1  0  0  0  0
 37 32  1  0  0  0  0
 39 33  2  0  0  0  0
 39 40  1  0  0  0  0
 40 37  2  0  0  0  0
M  END
>  <MODEL>
4

>  <REMARK>
 VINA RESULT:      -7.8      1.663      5.485
  Name = 
  14 active torsions:
  status: ('A' for Active; 'I' for Inactive)
    1  A    between atoms: C_2  and  C_39
    2  A    between atoms: C_7  and  C_8
    3  A    between atoms: C_7  and  C_31
    4  A    between atoms: C_8  and  C_40
    5  A    between atoms: C_9  and  N_11
    6  A    between atoms: C_9  and  C_37
    7  A    between atoms: C_13  and  C_37
    8  A    between atoms: C_13  and  C_39
    9  A    between atoms: C_14  and  C_30
   10  A    between atoms: C_14  and  C_38
   11  A    between atoms: N_16  and  C_30
   12  A    between atoms: N_20  and  C_31
   13  A    between atoms: N_20  and  C_34
   14  A    between atoms: C_38  and  C_40
                            x       y       z     vdW  Elec       q    Type
                         _______ _______ _______ _____ _____    ______ ____

>  <TORSDO>
F 14

$$$$
=
 OpenBabel10222415413D

 40 43  0  0  1  0  0  0  0  0999 V2000
  189.0580  176.9900  139.0130 C   0  0  0  0  0  2  0  0  0  0  0  0
  188.3630  176.2080  136.8460 C   0  0  0  0  0  0  0  0  0  0  0  0
  189.3270  176.7000  137.5710 C   0  0  0  0  0  0  0  0  0  0  0  0
  187.3910  175.6980  136.1230 C   0  0  0  0  0  0  0  0  0  0  0  0
  186.4980  176.6070  135.3240 C   0  0  0  0  0  3  0  0  0  0  0  0
  187.2930  177.7040  134.6400 C   0  0  0  0  0  1  0  0  0  0  0  0
  185.3940  177.2080  136.1770 C   0  0  0  0  0  1  0  0  0  0  0  0
  187.1970  174.2270  136.0430 C   0  0  0  0  0  0  0  0  0  0  0  0
  187.3940  173.5570  134.9090 C   0  0  0  0  0  2  0  0  0  0  0  0
  186.7600  173.4580  137.2520 C   0  0  0  0  0  2  0  0  0  0  0  0
  185.2650  173.6160  137.5020 C   0  0  0  0  0  2  0  0  0  0  0  0
  183.9710  172.3400  136.0290 C   0  0  0  0  0  1  0  0  0  0  0  0
  184.5840  172.3400  137.3470 N   0  0  0  0  0  2  0  0  0  0  0  0
  190.6370  176.8100  136.9960 N   0  0  0  0  0  2  0  0  0  0  0  0
  192.9280  176.5220  137.7890 C   0  0  0  0  0  3  0  0  0  0  0  0
  194.0110  175.7410  138.0510 N   0  0  0  0  0  0  0  0  0  0  0  0
  191.7450  174.5870  136.9840 C   0  0  0  0  0  3  0  0  0  0  0  0
  192.8650  173.8010  137.2580 C   0  0  0  0  0  3  0  0  0  0  0  0
  194.0020  174.4050  137.7970 C   0  0  0  0  0  3  0  0  0  0  0  0
  191.7690  175.9630  137.2410 C   0  0  0  0  0  0  0  0  0  0  0  0
  188.2700  178.2810  139.1580 C   0  0  2  0  0  3  0  0  0  0  0  0
  189.0290  179.3490  138.6760 O   0  0  0  0  0  1  0  0  0  0  0  0
  187.9230  178.5010  140.6230 C   0  0  0  0  0  2  0  0  0  0  0  0
  186.4180  178.6110  140.8110 C   0  0  0  0  0  2  0  0  0  0  0  0
  186.1090  179.2080  142.1690 C   0  0  0  0  0  2  0  0  0  0  0  0
  185.5560  178.1360  143.0860 C   0  0  0  0  0  2  0  0  0  0  0  0
  189.4890  177.7240  148.0900 N   0  0  0  0  0  0  0  0  0  0  0  0
  188.7060  176.8030  144.4870 C   0  0  0  0  0  3  0  0  0  0  0  0
  186.0200  179.2180  147.5040 C   0  0  0  0  0  2  0  0  0  0  0  0
  186.5630  177.7630  144.0670 N   0  0  0  0  0  0  0  0  0  0  0  0
  185.4710  179.0120  146.0590 C   0  0  1  0  0  3  0  0  0  0  0  0
  190.9520  176.4730  146.5340 C   0  0  0  0  0  1  0  0  0  0  0  0
  187.3130  178.4630  147.4940 C   0  0  0  0  0  0  0  0  0  0  0  0
  188.3450  178.3980  148.4290 C   0  0  0  0  0  3  0  0  0  0  0  0
  187.7270  177.0710  143.6560 N   0  0  0  0  0  0  0  0  0  0  0  0
  186.4170  178.0960  145.4260 N   0  0  0  0  0  0  0  0  0  0  0  0
  189.6630  177.1470  146.8560 C   0  0  0  0  0  0  0  0  0  0  0  0
  184.2100  178.4200  146.1160 O   0  0  0  0  0  1  0  0  0  0  0  0
  187.4710  177.8590  146.2980 C   0  0  0  0  0  0  0  0  0  0  0  0
  188.6300  177.2340  145.9030 C   0  0  0  0  0  0  0  0  0  0  0  0
  1 21  1  0  0  0  0
  2  3  2  0  0  0  0
  3  1  1  0  0  0  0
  4  2  2  0  0  0  0
  5  4  1  0  0  0  0
  5  7  1  0  0  0  0
  6  5  1  0  0  0  0
  8  4  1  0  0  0  0
  8 10  1  0  0  0  0
  9  8  2  0  0  0  0
 10 11  1  0  0  0  0
 12 13  1  0  0  0  0
 13 11  1  0  0  0  0
 14 20  1  0  0  0  0
 14  3  1  0  0  0  0
 15 16  1  0  0  0  0
 17 20  1  0  0  0  0
 17 18  2  0  0  0  0
 18 19  1  0  0  0  0
 19 16  2  0  0  0  0
 20 15  2  0  0  0  0
 21 22  1  1  0  0  0
 21 23  1  0  0  0  0
 23 24  1  0  0  0  0
 24 25  1  0  0  0  0
 25 26  1  0  0  0  0
 26 30  1  0  0  0  0
 27 34  1  0  0  0  0
 28 40  1  0  0  0  0
 30 36  1  0  0  0  0
 31 38  1  1  0  0  0
 31 29  1  0  0  0  0
 32 37  1  0  0  0  0
 33 29  1  0  0  0  0
 33 34  2  0  0  0  0
 35 30  1  0  0  0  0
 35 28  2  0  0  0  0
 36 31  1  0  0  0  0
 36 39  1  0  0  0  0
 37 27  2  0  0  0  0
 39 33  1  0  0  0  0
 40 39  2  0  0  0  0
 40 37  1  0  0  0  0
M  END
>  <MODEL>
5

>  <REMARK>
 VINA RESULT:      -7.8      3.303      7.015
  Name = 
  14 active torsions:
  status: ('A' for Active; 'I' for Inactive)
    1  A    between atoms: C_2  and  C_39
    2  A    between atoms: C_7  and  C_8
    3  A    between atoms: C_7  and  C_31
    4  A    between atoms: C_8  and  C_40
    5  A    between atoms: C_9  and  N_11
    6  A    between atoms: C_9  and  C_37
    7  A    between atoms: C_13  and  C_37
    8  A    between atoms: C_13  and  C_39
    9  A    between atoms: C_14  and  C_30
   10  A    between atoms: C_14  and  C_38
   11  A    between atoms: N_16  and  C_30
   12  A    between atoms: N_20  and  C_31
   13  A    between atoms: N_20  and  C_34
   14  A    between atoms: C_38  and  C_40
                            x       y       z     vdW  Elec       q    Type
                         _______ _______ _______ _____ _____    ______ ____

>  <TORSDO>
F 14

$$$$
=
 OpenBabel10222415413D

 40 43  0  0  1  0  0  0  0  0999 V2000
  187.7120  176.4790  143.3810 C   0  0  0  0  0  2  0  0  0  0  0  0
  189.3590  177.5320  144.7840 C   0  0  0  0  0  0  0  0  0  0  0  0
  188.1370  177.5510  144.3340 C   0  0  0  0  0  0  0  0  0  0  0  0
  190.5890  177.4990  145.2470 C   0  0  0  0  0  0  0  0  0  0  0  0
  191.6680  178.2900  144.5580 C   0  0  0  0  0  3  0  0  0  0  0  0
  191.2570  179.7390  144.3670 C   0  0  0  0  0  1  0  0  0  0  0  0
  192.0590  177.6720  143.2270 C   0  0  0  0  0  1  0  0  0  0  0  0
  190.9170  176.7330  146.4760 C   0  0  0  0  0  0  0  0  0  0  0  0
  192.0520  176.0460  146.5890 C   0  0  0  0  0  2  0  0  0  0  0  0
  189.9580  176.7080  147.6270 C   0  0  0  0  0  2  0  0  0  0  0  0
  189.8930  178.0610  148.3260 C   0  0  0  0  0  2  0  0  0  0  0  0
  187.6750  177.3270  148.2000 C   0  0  0  0  0  1  0  0  0  0  0  0
  188.5100  178.4750  148.5090 N   0  0  0  0  0  2  0  0  0  0  0  0
  187.2150  178.5080  144.8760 N   0  0  0  0  0  2  0  0  0  0  0  0
  184.9340  178.8780  145.6610 C   0  0  0  0  0  3  0  0  0  0  0  0
  183.5990  179.0020  145.4320 N   0  0  0  0  0  0  0  0  0  0  0  0
  185.2870  178.4970  143.3110 C   0  0  0  0  0  3  0  0  0  0  0  0
  183.9150  178.6260  143.0950 C   0  0  0  0  0  3  0  0  0  0  0  0
  183.0770  178.8810  144.1820 C   0  0  0  0  0  3  0  0  0  0  0  0
  185.8110  178.6140  144.6050 C   0  0  0  0  0  0  0  0  0  0  0  0
  188.5100  176.5680  142.0910 C   0  0  2  0  0  3  0  0  0  0  0  0
  189.6470  175.7630  142.1880 O   0  0  0  0  0  1  0  0  0  0  0  0
  188.9090  178.0150  141.8400 C   0  0  0  0  0  2  0  0  0  0  0  0
  188.0460  178.6320  140.7510 C   0  0  0  0  0  2  0  0  0  0  0  0
  187.9160  177.6690  139.5880 C   0  0  0  0  0  2  0  0  0  0  0  0
  189.0860  177.8470  138.6430 C   0  0  0  0  0  2  0  0  0  0  0  0
  191.9480  172.8700  135.8630 N   0  0  0  0  0  0  0  0  0  0  0  0
  188.7320  174.6870  136.7590 C   0  0  0  0  0  3  0  0  0  0  0  0
  193.1310  175.8170  137.9910 C   0  0  0  0  0  2  0  0  0  0  0  0
  189.4350  176.5660  138.0500 N   0  0  0  0  0  0  0  0  0  0  0  0
  191.9860  176.7640  138.4650 C   0  0  1  0  0  3  0  0  0  0  0  0
  189.6560  172.2480  135.1640 C   0  0  0  0  0  1  0  0  0  0  0  0
  192.4000  174.7160  137.2860 C   0  0  0  0  0  0  0  0  0  0  0  0
  192.8660  173.6570  136.5080 C   0  0  0  0  0  3  0  0  0  0  0  0
  188.4430  175.7980  137.3930 N   0  0  0  0  0  0  0  0  0  0  0  0
  190.7520  176.0740  138.0950 N   0  0  0  0  0  0  0  0  0  0  0  0
  190.5980  173.1120  135.9310 C   0  0  0  0  0  0  0  0  0  0  0  0
  192.0440  176.9130  139.8500 O   0  0  0  0  0  1  0  0  0  0  0  0
  191.0720  174.9260  137.3830 C   0  0  0  0  0  0  0  0  0  0  0  0
  190.1290  174.1970  136.6960 C   0  0  0  0  0  0  0  0  0  0  0  0
  1  3  1  0  0  0  0
  2  4  2  0  0  0  0
  3  2  2  0  0  0  0
  3 14  1  0  0  0  0
  4  8  1  0  0  0  0
  5  4  1  0  0  0  0
  6  5  1  0  0  0  0
  7  5  1  0  0  0  0
  8  9  2  0  0  0  0
  8 10  1  0  0  0  0
 10 11  1  0  0  0  0
 11 13  1  0  0  0  0
 12 13  1  0  0  0  0
 16 15  1  0  0  0  0
 17 20  1  0  0  0  0
 18 17  2  0  0  0  0
 18 19  1  0  0  0  0
 19 16  2  0  0  0  0
 20 14  1  0  0  0  0
 20 15  2  0  0  0  0
 21 22  1  1  0  0  0
 21  1  1  0  0  0  0
 23 21  1  0  0  0  0
 24 23  1  0  0  0  0
 25 24  1  0  0  0  0
 26 25  1  0  0  0  0
 27 37  2  0  0  0  0
 27 34  1  0  0  0  0
 28 35  2  0  0  0  0
 29 31  1  0  0  0  0
 30 36  1  0  0  0  0
 30 26  1  0  0  0  0
 31 38  1  1  0  0  0
 32 37  1  0  0  0  0
 33 39  1  0  0  0  0
 33 29  1  0  0  0  0
 34 33  2  0  0  0  0
 35 30  1  0  0  0  0
 36 31  1  0  0  0  0
 37 40  1  0  0  0  0
 39 36  1  0  0  0  0
 40 28  1  0  0  0  0
 40 39  2  0  0  0  0
M  END
>  <MODEL>
6

>  <REMARK>
 VINA RESULT:      -7.6      2.985      8.490
  Name = 
  14 active torsions:
  status: ('A' for Active; 'I' for Inactive)
    1  A    between atoms: C_2  and  C_39
    2  A    between atoms: C_7  and  C_8
    3  A    between atoms: C_7  and  C_31
    4  A    between atoms: C_8  and  C_40
    5  A    between atoms: C_9  and  N_11
    6  A    between atoms: C_9  and  C_37
    7  A    between atoms: C_13  and  C_37
    8  A    between atoms: C_13  and  C_39
    9  A    between atoms: C_14  and  C_30
   10  A    between atoms: C_14  and  C_38
   11  A    between atoms: N_16  and  C_30
   12  A    between atoms: N_20  and  C_31
   13  A    between atoms: N_20  and  C_34
   14  A    between atoms: C_38  and  C_40
                            x       y       z     vdW  Elec       q    Type
                         _______ _______ _______ _____ _____    ______ ____

>  <TORSDO>
F 14

$$$$
=
 OpenBabel10222415413D

 40 43  0  0  1  0  0  0  0  0999 V2000
  191.6290  175.9310  138.5270 C   0  0  0  0  0  2  0  0  0  0  0  0
  189.9930  176.4420  136.8380 C   0  0  0  0  0  0  0  0  0  0  0  0
  191.2550  176.3160  137.1300 C   0  0  0  0  0  0  0  0  0  0  0  0
  188.7160  176.5520  136.5460 C   0  0  0  0  0  0  0  0  0  0  0  0
  188.0430  177.8950  136.6300 C   0  0  0  0  0  3  0  0  0  0  0  0
  189.0450  178.9990  136.9150 C   0  0  0  0  0  1  0  0  0  0  0  0
  186.9330  177.9070  137.6670 C   0  0  0  0  0  1  0  0  0  0  0  0
  187.9390  175.3740  136.0790 C   0  0  0  0  0  0  0  0  0  0  0  0
  187.2330  175.4060  134.9510 C   0  0  0  0  0  2  0  0  0  0  0  0
  187.9280  174.1120  136.8850 C   0  0  0  0  0  2  0  0  0  0  0  0
  186.5070  173.6930  137.2440 C   0  0  0  0  0  2  0  0  0  0  0  0
  184.6760  172.4480  136.4900 C   0  0  0  0  0  1  0  0  0  0  0  0
  186.1270  172.4950  136.5110 N   0  0  0  0  0  2  0  0  0  0  0  0
  192.2220  176.4110  136.0740 N   0  0  0  0  0  2  0  0  0  0  0  0
  194.5980  176.7940  135.6670 C   0  0  0  0  0  3  0  0  0  0  0  0
  195.8940  176.3810  135.6870 N   0  0  0  0  0  0  0  0  0  0  0  0
  193.9180  174.6580  136.5430 C   0  0  0  0  0  3  0  0  0  0  0  0
  195.2520  174.2510  136.5560 C   0  0  0  0  0  3  0  0  0  0  0  0
  196.2370  175.1370  136.1180 C   0  0  0  0  0  3  0  0  0  0  0  0
  193.5760  175.9380  136.0880 C   0  0  0  0  0  0  0  0  0  0  0  0
  192.1080  177.1480  139.3020 C   0  0  2  0  0  3  0  0  0  0  0  0
  193.4610  176.9980  139.6170 O   0  0  0  0  0  1  0  0  0  0  0  0
  191.2860  177.2940  140.5740 C   0  0  0  0  0  2  0  0  0  0  0  0
  189.9300  177.9100  140.2720 C   0  0  0  0  0  2  0  0  0  0  0  0
  188.8330  177.0890  140.9210 C   0  0  0  0  0  2  0  0  0  0  0  0
  189.3620  176.4340  142.1800 C   0  0  0  0  0  2  0  0  0  0  0  0
  187.4660  178.1270  148.0300 N   0  0  0  0  0  0  0  0  0  0  0  0
  186.6600  177.7410  144.3350 C   0  0  0  0  0  3  0  0  0  0  0  0
  190.7820  177.0180  146.4870 C   0  0  0  0  0  2  0  0  0  0  0  0
  188.6990  177.0010  143.3430 N   0  0  0  0  0  0  0  0  0  0  0  0
  190.7150  176.7460  144.9520 C   0  0  1  0  0  3  0  0  0  0  0  0
  185.2680  178.4940  146.9510 C   0  0  0  0  0  1  0  0  0  0  0  0
  189.4120  177.5290  146.8080 C   0  0  0  0  0  0  0  0  0  0  0  0
  188.7950  177.7940  148.0310 C   0  0  0  0  0  3  0  0  0  0  0  0
  187.3220  177.3220  143.2840 N   0  0  0  0  0  0  0  0  0  0  0  0
  189.3940  177.2210  144.5460 N   0  0  0  0  0  0  0  0  0  0  0  0
  186.7220  178.1740  146.8760 C   0  0  0  0  0  0  0  0  0  0  0  0
  191.7010  177.4860  144.3010 O   0  0  0  0  0  1  0  0  0  0  0  0
  188.6880  177.6160  145.6740 C   0  0  0  0  0  0  0  0  0  0  0  0
  187.3390  177.8830  145.6450 C   0  0  0  0  0  0  0  0  0  0  0  0
  1 21  1  0  0  0  0
  2  3  2  0  0  0  0
  3  1  1  0  0  0  0
  4  5  1  0  0  0  0
  4  2  2  0  0  0  0
  5  6  1  0  0  0  0
  5  7  1  0  0  0  0
  8  4  1  0  0  0  0
  8 10  1  0  0  0  0
  9  8  2  0  0  0  0
 10 11  1  0  0  0  0
 12 13  1  0  0  0  0
 13 11  1  0  0  0  0
 14 20  1  0  0  0  0
 14  3  1  0  0  0  0
 15 16  2  0  0  0  0
 15 20  1  0  0  0  0
 16 19  1  0  0  0  0
 17 18  1  0  0  0  0
 19 18  2  0  0  0  0
 20 17  2  0  0  0  0
 21 22  1  1  0  0  0
 21 23  1  0  0  0  0
 24 23  1  0  0  0  0
 24 25  1  0  0  0  0
 25 26  1  0  0  0  0
 26 30  1  0  0  0  0
 27 34  1  0  0  0  0
 28 40  1  0  0  0  0
 29 33  1  0  0  0  0
 30 36  1  0  0  0  0
 31 38  1  6  0  0  0
 31 29  1  0  0  0  0
 33 34  2  0  0  0  0
 35 30  1  0  0  0  0
 35 28  2  0  0  0  0
 36 31  1  0  0  0  0
 36 39  1  0  0  0  0
 37 32  1  0  0  0  0
 37 27  2  0  0  0  0
 39 33  1  0  0  0  0
 40 39  2  0  0  0  0
 40 37  1  0  0  0  0
M  END
>  <MODEL>
7

>  <REMARK>
 VINA RESULT:      -7.5      3.905      7.223
  Name = 
  14 active torsions:
  status: ('A' for Active; 'I' for Inactive)
    1  A    between atoms: C_2  and  C_39
    2  A    between atoms: C_7  and  C_8
    3  A    between atoms: C_7  and  C_31
    4  A    between atoms: C_8  and  C_40
    5  A    between atoms: C_9  and  N_11
    6  A    between atoms: C_9  and  C_37
    7  A    between atoms: C_13  and  C_37
    8  A    between atoms: C_13  and  C_39
    9  A    between atoms: C_14  and  C_30
   10  A    between atoms: C_14  and  C_38
   11  A    between atoms: N_16  and  C_30
   12  A    between atoms: N_20  and  C_31
   13  A    between atoms: N_20  and  C_34
   14  A    between atoms: C_38  and  C_40
                            x       y       z     vdW  Elec       q    Type
                         _______ _______ _______ _____ _____    ______ ____

>  <TORSDO>
F 14

$$$$
=
 OpenBabel10222415413D

 40 43  0  0  1  0  0  0  0  0999 V2000
  182.7570  178.1840  138.8000 C   0  0  0  0  0  2  0  0  0  0  0  0
  181.0400  179.0670  137.3640 C   0  0  0  0  0  0  0  0  0  0  0  0
  181.3190  178.4050  138.4490 C   0  0  0  0  0  0  0  0  0  0  0  0
  180.7640  179.7510  136.2750 C   0  0  0  0  0  0  0  0  0  0  0  0
  180.5170  179.0250  134.9800 C   0  0  0  0  0  3  0  0  0  0  0  0
  179.2380  178.2090  135.0390 C   0  0  0  0  0  1  0  0  0  0  0  0
  181.6910  178.1420  134.5940 C   0  0  0  0  0  1  0  0  0  0  0  0
  180.6410  181.2310  136.3180 C   0  0  0  0  0  0  0  0  0  0  0  0
  180.3860  181.9430  135.2220 C   0  0  0  0  0  2  0  0  0  0  0  0
  180.8130  181.9630  137.6130 C   0  0  0  0  0  2  0  0  0  0  0  0
  181.1210  183.4380  137.3820 C   0  0  0  0  0  2  0  0  0  0  0  0
  179.9130  185.4070  137.0120 C   0  0  0  0  0  1  0  0  0  0  0  0
  180.0500  184.2710  137.9080 N   0  0  0  0  0  2  0  0  0  0  0  0
  180.2470  178.0400  139.3310 N   0  0  0  0  0  2  0  0  0  0  0  0
  179.6540  177.7750  141.6840 C   0  0  0  0  0  3  0  0  0  0  0  0
  179.3720  178.2950  142.9090 N   0  0  0  0  0  0  0  0  0  0  0  0
  179.9300  180.0030  140.8180 C   0  0  0  0  0  3  0  0  0  0  0  0
  179.6360  180.5190  142.0810 C   0  0  0  0  0  3  0  0  0  0  0  0
  179.3560  179.6370  143.1260 C   0  0  0  0  0  3  0  0  0  0  0  0
  179.9330  178.6190  140.6050 C   0  0  0  0  0  0  0  0  0  0  0  0
  183.2370  179.2510  139.7700 C   0  0  2  0  0  3  0  0  0  0  0  0
  183.7430  180.3380  139.0550 O   0  0  0  0  0  1  0  0  0  0  0  0
  184.3140  178.6670  140.6730 C   0  0  0  0  0  2  0  0  0  0  0  0
  183.8570  178.6580  142.1220 C   0  0  0  0  0  2  0  0  0  0  0  0
  184.8720  179.3760  142.9890 C   0  0  0  0  0  2  0  0  0  0  0  0
  184.9390  178.7160  144.3510 C   0  0  0  0  0  2  0  0  0  0  0  0
  190.7210  176.9180  146.3550 N   0  0  0  0  0  0  0  0  0  0  0  0
  188.2080  177.2050  143.5190 C   0  0  0  0  0  3  0  0  0  0  0  0
  187.5840  178.2870  148.0560 C   0  0  0  0  0  2  0  0  0  0  0  0
  186.2460  178.1050  144.5350 N   0  0  0  0  0  0  0  0  0  0  0  0
  186.3890  178.5400  147.0860 C   0  0  1  0  0  3  0  0  0  0  0  0
  191.1100  176.3590  143.9750 C   0  0  0  0  0  1  0  0  0  0  0  0
  188.6220  177.6670  147.1730 C   0  0  0  0  0  0  0  0  0  0  0  0
  189.9620  177.3610  147.4070 C   0  0  0  0  0  3  0  0  0  0  0  0
  186.9860  177.6690  143.4100 N   0  0  0  0  0  0  0  0  0  0  0  0
  186.8080  177.9540  145.8150 N   0  0  0  0  0  0  0  0  0  0  0  0
  190.2160  176.8000  145.0840 C   0  0  0  0  0  0  0  0  0  0  0  0
  185.2550  177.8810  147.5570 O   0  0  0  0  0  1  0  0  0  0  0  0
  188.1190  177.5100  145.9310 C   0  0  0  0  0  0  0  0  0  0  0  0
  188.8700  177.1320  144.8430 C   0  0  0  0  0  0  0  0  0  0  0  0
  1 21  1  0  0  0  0
  2  3  2  0  0  0  0
  3  1  1  0  0  0  0
  3 14  1  0  0  0  0
  4  8  1  0  0  0  0
  4  2  2  0  0  0  0
  5  6  1  0  0  0  0
  5  4  1  0  0  0  0
  7  5  1  0  0  0  0
  8 10  1  0  0  0  0
  9  8  2  0  0  0  0
 11 10  1  0  0  0  0
 11 13  1  0  0  0  0
 12 13  1  0  0  0  0
 14 20  1  0  0  0  0
 15 16  1  0  0  0  0
 16 19  2  0  0  0  0
 17 18  2  0  0  0  0
 18 19  1  0  0  0  0
 20 17  1  0  0  0  0
 20 15  2  0  0  0  0
 21 22  1  6  0  0  0
 21 23  1  0  0  0  0
 23 24  1  0  0  0  0
 24 25  1  0  0  0  0
 25 26  1  0  0  0  0
 26 30  1  0  0  0  0
 27 34  1  0  0  0  0
 28 40  1  0  0  0  0
 30 36  1  0  0  0  0
 31 38  1  1  0  0  0
 31 29  1  0  0  0  0
 32 37  1  0  0  0  0
 33 34  2  0  0  0  0
 33 29  1  0  0  0  0
 35 28  2  0  0  0  0
 35 30  1  0  0  0  0
 36 39  1  0  0  0  0
 36 31  1  0  0  0  0
 37 27  2  0  0  0  0
 39 33  1  0  0  0  0
 40 37  1  0  0  0  0
 40 39  2  0  0  0  0
M  END
>  <MODEL>
8

>  <REMARK>
 VINA RESULT:      -7.5      3.662     10.740
  Name = 
  14 active torsions:
  status: ('A' for Active; 'I' for Inactive)
    1  A    between atoms: C_2  and  C_39
    2  A    between atoms: C_7  and  C_8
    3  A    between atoms: C_7  and  C_31
    4  A    between atoms: C_8  and  C_40
    5  A    between atoms: C_9  and  N_11
    6  A    between atoms: C_9  and  C_37
    7  A    between atoms: C_13  and  C_37
    8  A    between atoms: C_13  and  C_39
    9  A    between atoms: C_14  and  C_30
   10  A    between atoms: C_14  and  C_38
   11  A    between atoms: N_16  and  C_30
   12  A    between atoms: N_20  and  C_31
   13  A    between atoms: N_20  and  C_34
   14  A    between atoms: C_38  and  C_40
                            x       y       z     vdW  Elec       q    Type
                         _______ _______ _______ _____ _____    ______ ____

>  <TORSDO>
F 14

$$$$
=
 OpenBabel10222415413D

 40 43  0  0  1  0  0  0  0  0999 V2000
  184.7210  178.3260  138.3350 C   0  0  0  0  0  2  0  0  0  0  0  0
  182.4140  177.8060  137.8940 C   0  0  0  0  0  0  0  0  0  0  0  0
  183.6610  177.5660  137.6040 C   0  0  0  0  0  0  0  0  0  0  0  0
  181.1570  178.0410  138.2020 C   0  0  0  0  0  0  0  0  0  0  0  0
  180.3700  179.0480  137.4080 C   0  0  0  0  0  3  0  0  0  0  0  0
  181.0000  179.3000  136.0510 C   0  0  0  0  0  1  0  0  0  0  0  0
  180.2020  180.3560  138.1640 C   0  0  0  0  0  1  0  0  0  0  0  0
  180.4880  177.2840  139.2910 C   0  0  0  0  0  0  0  0  0  0  0  0
  180.4910  177.7210  140.5490 C   0  0  0  0  0  2  0  0  0  0  0  0
  179.7960  175.9900  138.9930 C   0  0  0  0  0  2  0  0  0  0  0  0
  179.2850  175.3260  140.2660 C   0  0  0  0  0  2  0  0  0  0  0  0
  179.7230  173.5810  138.7700 C   0  0  0  0  0  1  0  0  0  0  0  0
  179.3000  173.8770  140.1280 N   0  0  0  0  0  2  0  0  0  0  0  0
  183.9660  176.4900  136.7050 N   0  0  0  0  0  2  0  0  0  0  0  0
  184.0280  174.1530  137.4060 C   0  0  0  0  0  3  0  0  0  0  0  0
  184.7060  173.0040  137.6690 N   0  0  0  0  0  0  0  0  0  0  0  0
  186.1040  175.2330  136.8440 C   0  0  0  0  0  3  0  0  0  0  0  0
  186.7830  174.0460  137.1200 C   0  0  0  0  0  3  0  0  0  0  0  0
  186.0580  172.9290  137.5370 C   0  0  0  0  0  3  0  0  0  0  0  0
  184.7130  175.3000  136.9940 C   0  0  0  0  0  0  0  0  0  0  0  0
  184.0990  179.2240  139.3920 C   0  0  2  0  0  3  0  0  0  0  0  0
  184.2250  180.5590  139.0020 O   0  0  0  0  0  1  0  0  0  0  0  0
  184.7970  178.9970  140.7250 C   0  0  0  0  0  2  0  0  0  0  0  0
  183.8580  178.3350  141.7190 C   0  0  0  0  0  2  0  0  0  0  0  0
  184.6270  177.9170  142.9570 C   0  0  0  0  0  2  0  0  0  0  0  0
  186.1080  177.8610  142.6440 C   0  0  0  0  0  2  0  0  0  0  0  0
  190.3000  177.1040  147.3910 N   0  0  0  0  0  0  0  0  0  0  0  0
  186.8490  178.2110  146.2480 C   0  0  0  0  0  3  0  0  0  0  0  0
  190.4260  176.6940  143.5930 C   0  0  0  0  0  2  0  0  0  0  0  0
  186.8710  177.9220  143.8800 N   0  0  0  0  0  0  0  0  0  0  0  0
  189.0930  177.0510  142.8670 C   0  0  1  0  0  3  0  0  0  0  0  0
  188.4400  177.8690  148.8350 C   0  0  0  0  0  1  0  0  0  0  0  0
  190.1440  177.0370  145.0230 C   0  0  0  0  0  0  0  0  0  0  0  0
  190.8750  176.7960  146.1860 C   0  0  0  0  0  3  0  0  0  0  0  0
  186.2220  178.2420  145.0960 N   0  0  0  0  0  0  0  0  0  0  0  0
  188.2510  177.6490  143.9010 N   0  0  0  0  0  0  0  0  0  0  0  0
  189.0240  177.6030  147.4900 C   0  0  0  0  0  0  0  0  0  0  0  0
  189.3410  177.9870  141.8640 O   0  0  0  0  0  1  0  0  0  0  0  0
  188.9070  177.5660  145.1220 C   0  0  0  0  0  0  0  0  0  0  0  0
  188.2770  177.8220  146.3170 C   0  0  0  0  0  0  0  0  0  0  0  0
  1 21  1  0  0  0  0
  2  4  2  0  0  0  0
  3  2  2  0  0  0  0
  3  1  1  0  0  0  0
  4  8  1  0  0  0  0
  5  7  1  0  0  0  0
  5  4  1  0  0  0  0
  6  5  1  0  0  0  0
  8  9  2  0  0  0  0
 10  8  1  0  0  0  0
 10 11  1  0  0  0  0
 12 13  1  0  0  0  0
 13 11  1  0  0  0  0
 14 20  1  0  0  0  0
 14  3  1  0  0  0  0
 15 16  1  0  0  0  0
 17 20  1  0  0  0  0
 17 18  2  0  0  0  0
 18 19  1  0  0  0  0
 19 16  2  0  0  0  0
 20 15  2  0  0  0  0
 21 22  1  6  0  0  0
 21 23  1  0  0  0  0
 23 24  1  0  0  0  0
 24 25  1  0  0  0  0
 26 25  1  0  0  0  0
 26 30  1  0  0  0  0
 27 37  1  0  0  0  0
 28 40  1  0  0  0  0
 29 33  1  0  0  0  0
 30 36  1  0  0  0  0
 30 35  1  0  0  0  0
 31 38  1  6  0  0  0
 31 29  1  0  0  0  0
 31 36  1  0  0  0  0
 33 39  2  0  0  0  0
 33 34  1  0  0  0  0
 34 27  2  0  0  0  0
 35 28  2  0  0  0  0
 36 39  1  0  0  0  0
 37 32  1  0  0  0  0
 39 40  1  0  0  0  0
 40 37  2  0  0  0  0
M  END
>  <MODEL>
9

>  <REMARK>
 VINA RESULT:      -7.5      3.418      8.723
  Name = 
  14 active torsions:
  status: ('A' for Active; 'I' for Inactive)
    1  A    between atoms: C_2  and  C_39
    2  A    between atoms: C_7  and  C_8
    3  A    between atoms: C_7  and  C_31
    4  A    between atoms: C_8  and  C_40
    5  A    between atoms: C_9  and  N_11
    6  A    between atoms: C_9  and  C_37
    7  A    between atoms: C_13  and  C_37
    8  A    between atoms: C_13  and  C_39
    9  A    between atoms: C_14  and  C_30
   10  A    between atoms: C_14  and  C_38
   11  A    between atoms: N_16  and  C_30
   12  A    between atoms: N_20  and  C_31
   13  A    between atoms: N_20  and  C_34
   14  A    between atoms: C_38  and  C_40
                            x       y       z     vdW  Elec       q    Type
                         _______ _______ _______ _____ _____    ______ ____

>  <TORSDO>
F 14

$$$$
