=
 OpenBabel10222419053D

 50 52  0  0  1  0  0  0  0  0999 V2000
  190.7490  176.5360  141.2640 C   0  0  0  0  0  0  0  0  0  0  0  0
  190.7320  175.3610  141.9910 O   0  0  0  0  0  0  0  0  0  0  0  0
  190.6540  177.7200  142.1540 C   0  0  0  0  0  2  0  0  0  0  0  0
  191.0330  176.6220  138.6730 C   0  0  0  0  0  0  0  0  0  0  0  0
  190.6460  175.6950  143.3320 C   0  0  0  0  0  3  0  0  0  0  0  0
  190.8790  176.5820  139.9690 C   0  0  0  0  0  0  0  0  0  0  0  0
  190.6060  177.0200  143.4730 C   0  0  0  0  0  0  0  0  0  0  0  0
  190.6630  179.2480  144.6120 C   0  0  0  0  0  1  0  0  0  0  0  0
  190.5180  177.7440  144.7870 C   0  0  1  0  0  3  0  0  0  0  0  0
  189.2800  177.3880  145.6200 C   0  0  0  0  0  3  0  0  0  0  0  0
  188.1830  177.3490  147.8800 C   0  0  0  0  0  2  0  0  0  0  0  0
  189.4270  177.7620  147.1000 C   0  0  0  0  0  2  0  0  0  0  0  0
  188.0210  178.0200  145.0220 C   0  0  0  0  0  2  0  0  0  0  0  0
  186.9420  178.0060  147.2800 C   0  0  0  0  0  2  0  0  0  0  0  0
  186.7890  177.6000  145.8160 C   0  0  0  0  0  2  0  0  0  0  0  0
  188.9460  177.2600  137.5020 C   0  0  1  0  0  3  0  0  0  0  0  0
  189.8910  176.3230  137.7720 C   0  0  0  0  0  0  0  0  0  0  0  0
  187.8720  177.0550  136.6180 O   0  0  0  0  0  0  0  0  0  0  0  0
  187.7640  177.6000  135.3100 C   0  0  0  0  0  1  0  0  0  0  0  0
  190.5390  173.9720  137.6560 O   0  0  0  0  0  1  0  0  0  0  0  0
  189.7660  174.9990  137.2330 N   0  0  0  0  0  0  0  0  0  0  0  0
  188.9790  178.5950  138.1790 C   0  0  0  0  0  2  0  0  0  0  0  0
  187.5490  178.5180  140.4340 C   0  0  0  0  0  0  0  0  0  0  0  0
  188.2000  178.5520  139.4190 C   0  0  0  0  0  0  0  0  0  0  0  0
  186.7500  178.4740  141.6600 C   0  0  0  0  0  2  0  0  0  0  0  0
  185.4100  179.1550  141.4460 C   0  0  0  0  0  2  0  0  0  0  0  0
  184.4350  178.1950  140.9530 N   0  0  0  0  0  2  0  0  0  0  0  0
  184.3440  180.1930  139.1800 O   0  0  0  0  0  0  0  0  0  0  0  0
  183.6130  178.9360  139.5930 P   0  0  2  0  0  0  0  0  0  0  0  0
  182.0270  179.3330  140.0310 O   0  0  0  0  0  1  0  0  0  0  0  0
  183.5900  177.7740  138.1900 C   0  0  1  0  0  3  0  0  0  0  0  0
  184.7850  177.9040  137.4800 O   0  0  0  0  0  1  0  0  0  0  0  0
  183.4060  176.3240  138.6660 C   0  0  1  0  0  3  0  0  0  0  0  0
  182.2590  176.2130  139.4550 O   0  0  0  0  0  1  0  0  0  0  0  0
  182.0490  174.4760  137.5730 C   0  0  0  0  0  1  0  0  0  0  0  0
  183.3270  175.2980  137.5260 C   0  0  2  0  0  3  0  0  0  0  0  0
  184.5450  173.1660  137.9770 O   0  0  0  0  0  1  0  0  0  0  0  0
  185.5600  174.8300  136.7760 O   0  0  0  0  0  0  0  0  0  0  0  0
  184.5480  174.4330  137.4120 C   0  0  0  0  0  0  0  0  0  0  0  0
  192.4160  176.7540  138.1220 C   0  0  0  0  0  2  0  0  0  0  0  0
  193.2190  175.6860  138.5550 O   0  0  0  0  0  0  0  0  0  0  0  0
  193.7630  172.8650  136.1880 C   0  0  0  0  0  1  0  0  0  0  0  0
  196.3150  173.6820  137.6440 N   0  0  0  0  0  0  0  0  0  0  0  0
  195.1410  173.0720  138.2620 C   0  0  0  0  0  2  0  0  0  0  0  0
  197.5590  172.9340  137.6140 C   0  0  0  0  0  1  0  0  0  0  0  0
  193.8550  173.5080  137.5600 C   0  0  1  0  0  3  0  0  0  0  0  0
  193.7830  175.0410  137.4310 C   0  0  2  0  0  3  0  0  0  0  0  0
  196.2440  175.0200  137.1340 C   0  0  0  0  0  0  0  0  0  0  0  0
  195.0060  175.6510  137.0020 O   0  0  0  0  0  0  0  0  0  0  0  0
  197.2890  175.6190  136.7620 O   0  0  0  0  0  0  0  0  0  0  0  0
  1  2  1  0  0  0  0
  1  3  1  0  0  0  0
  2  5  1  0  0  0  0
  3  7  1  0  0  0  0
  4  6  2  0  0  0  0
  5  7  2  0  0  0  0
  6  1  2  0  0  0  0
  7  9  1  0  0  0  0
  9  8  1  6  0  0  0
  9 10  1  0  0  0  0
 10 12  1  0  0  0  0
 12 11  1  0  0  0  0
 13 10  1  0  0  0  0
 13 15  1  0  0  0  0
 14 11  1  0  0  0  0
 15 14  1  0  0  0  0
 16 17  1  0  0  0  0
 16 22  1  1  0  0  0
 17  4  1  0  0  0  0
 18 16  1  0  0  0  0
 19 18  1  0  0  0  0
 21 20  1  0  0  0  0
 21 17  2  0  0  0  0
 22 24  1  0  0  0  0
 23 25  1  0  0  0  0
 24 23  3  0  0  0  0
 26 25  1  0  0  0  0
 27 26  1  0  0  0  0
 29 28  2  6  0  0  0
 29 30  1  0  0  0  0
 29 27  1  0  0  0  0
 31 32  1  1  0  0  0
 31 33  1  0  0  0  0
 31 29  1  0  0  0  0
 33 34  1  6  0  0  0
 36 35  1  1  0  0  0
 36 33  1  0  0  0  0
 38 39  2  0  0  0  0
 39 36  1  0  0  0  0
 39 37  1  0  0  0  0
 40 41  1  0  0  0  0
 40  4  1  0  0  0  0
 43 44  1  0  0  0  0
 45 43  1  0  0  0  0
 46 42  1  6  0  0  0
 46 44  1  0  0  0  0
 47 46  1  0  0  0  0
 47 41  1  1  0  0  0
 48 43  1  0  0  0  0
 49 48  1  0  0  0  0
 49 47  1  0  0  0  0
 50 48  2  0  0  0  0
M  END
>  <MODEL>
1

>  <REMARK>
 VINA RESULT:      -7.4      0.000      0.000
  Name = 
  18 active torsions:
  status: ('A' for Active; 'I' for Inactive)
    1  A    between atoms: O_1  and  C_10
    2  A    between atoms: O_1  and  C_34
    3  A    between atoms: O_2  and  C_13
    4  A    between atoms: C_3  and  C_42
    5  A    between atoms: C_5  and  C_8
    6  A    between atoms: C_5  and  C_27
    7  A    between atoms: C_8  and  P_36
    8  A    between atoms: C_9  and  C_37
    9  A    between atoms: C_10  and  C_32
   10  A    between atoms: C_13  and  C_35
   11  A    between atoms: N_18  and  P_36
   12  A    between atoms: N_18  and  C_43
   13  A    between atoms: C_26  and  C_32
   14  A    between atoms: C_26  and  N_41
   15  A    between atoms: C_27  and  C_40
   16  A    between atoms: C_30  and  C_35
   17  A    between atoms: C_37  and  C_43
   18  A    between atoms: C_42  and  C_49
                            x       y       z     vdW  Elec       q    Type
                         _______ _______ _______ _____ _____    ______ ____

>  <TORSDO>
F 18

$$$$
=
 OpenBabel10222419053D

 50 52  0  0  1  0  0  0  0  0999 V2000
  184.2110  178.6820  141.0030 C   0  0  0  0  0  0  0  0  0  0  0  0
  185.4470  179.2980  141.0650 O   0  0  0  0  0  0  0  0  0  0  0  0
  183.6110  178.5430  142.3530 C   0  0  0  0  0  2  0  0  0  0  0  0
  183.0630  177.9790  138.7690 C   0  0  0  0  0  0  0  0  0  0  0  0
  185.7030  179.5960  142.3930 C   0  0  0  0  0  3  0  0  0  0  0  0
  183.6400  178.3190  139.8900 C   0  0  0  0  0  0  0  0  0  0  0  0
  184.6890  179.1930  143.1580 C   0  0  0  0  0  0  0  0  0  0  0  0
  183.4010  178.6590  145.2360 C   0  0  0  0  0  1  0  0  0  0  0  0
  184.6170  179.3570  144.6500 C   0  0  1  0  0  3  0  0  0  0  0  0
  185.9040  178.9660  145.3890 C   0  0  0  0  0  3  0  0  0  0  0  0
  187.0760  178.6510  147.5880 C   0  0  0  0  0  2  0  0  0  0  0  0
  185.7560  179.0130  146.9140 C   0  0  0  0  0  2  0  0  0  0  0  0
  186.3970  177.5900  144.9320 C   0  0  0  0  0  2  0  0  0  0  0  0
  187.5390  177.2680  147.1350 C   0  0  0  0  0  2  0  0  0  0  0  0
  187.7140  177.2440  145.6190 C   0  0  0  0  0  2  0  0  0  0  0  0
  184.6070  176.7280  137.2910 C   0  0  0  0  0  0  0  0  0  0  0  0
  183.4830  176.7470  138.0530 C   0  0  0  0  0  0  0  0  0  0  0  0
  185.0850  175.5820  136.6320 O   0  0  0  0  0  0  0  0  0  0  0  0
  185.6860  174.4570  137.2620 C   0  0  0  0  0  1  0  0  0  0  0  0
  181.8700  175.3240  139.2070 O   0  0  0  0  0  1  0  0  0  0  0  0
  182.6460  175.5850  138.1290 N   0  0  0  0  0  2  0  0  0  0  0  0
  185.4070  177.9750  137.0780 C   0  0  0  0  0  2  0  0  0  0  0  0
  187.8210  177.3780  136.1030 C   0  0  0  0  0  0  0  0  0  0  0  0
  186.7290  177.6420  136.5420 C   0  0  0  0  0  0  0  0  0  0  0  0
  189.1510  177.0660  135.5750 C   0  0  0  0  0  2  0  0  0  0  0  0
  190.1090  176.7470  136.7080 C   0  0  0  0  0  2  0  0  0  0  0  0
  190.1720  177.8630  137.6400 N   0  0  0  0  0  2  0  0  0  0  0  0
  191.9280  177.5740  139.6350 O   0  0  0  0  0  1  0  0  0  0  0  0
  190.5220  177.2000  139.2250 P   0  0  2  0  0  0  0  0  0  0  0  0
  190.3850  175.5130  139.1810 O   0  0  0  0  0  0  0  0  0  0  0  0
  189.3470  177.8800  140.4400 C   0  0  1  0  0  3  0  0  0  0  0  0
  188.1860  177.1040  140.4240 O   0  0  0  0  0  1  0  0  0  0  0  0
  189.9530  177.9070  141.8520 C   0  0  1  0  0  3  0  0  0  0  0  0
  189.0870  178.5470  142.7420 O   0  0  0  0  0  1  0  0  0  0  0  0
  189.0890  175.8030  142.9800 C   0  0  0  0  0  1  0  0  0  0  0  0
  190.3010  176.5190  142.4080 C   0  0  2  0  0  3  0  0  0  0  0  0
  191.9520  177.7390  143.8290 O   0  0  0  0  0  1  0  0  0  0  0  0
  191.9460  175.4500  143.7930 O   0  0  0  0  0  0  0  0  0  0  0  0
  191.4530  176.5280  143.3700 C   0  0  0  0  0  0  0  0  0  0  0  0
  182.1410  178.9560  138.1150 C   0  0  0  0  0  2  0  0  0  0  0  0
  182.6600  180.2580  138.2100 O   0  0  0  0  0  0  0  0  0  0  0  0
  179.1160  181.3940  138.1480 C   0  0  0  0  0  1  0  0  0  0  0  0
  180.9190  183.0810  136.3590 N   0  0  0  0  0  0  0  0  0  0  0  0
  180.5790  181.6780  136.1430 C   0  0  0  0  0  2  0  0  0  0  0  0
  180.4460  184.0710  135.4070 C   0  0  0  0  0  1  0  0  0  0  0  0
  180.3960  180.9410  137.4700 C   0  0  1  0  0  3  0  0  0  0  0  0
  181.5990  181.1690  138.4050 C   0  0  2  0  0  3  0  0  0  0  0  0
  181.7560  183.4570  137.4610 C   0  0  0  0  0  0  0  0  0  0  0  0
  182.0450  182.5300  138.4640 O   0  0  0  0  0  0  0  0  0  0  0  0
  182.1990  184.6330  137.5560 O   0  0  0  0  0  0  0  0  0  0  0  0
  1  2  1  0  0  0  0
  1  3  1  0  0  0  0
  2  5  1  0  0  0  0
  3  7  1  0  0  0  0
  4  6  2  0  0  0  0
  5  7  2  0  0  0  0
  6  1  2  0  0  0  0
  7  9  1  0  0  0  0
  9  8  1  1  0  0  0
  9 10  1  0  0  0  0
 10 12  1  0  0  0  0
 12 11  1  0  0  0  0
 13 10  1  0  0  0  0
 13 15  1  0  0  0  0
 14 11  1  0  0  0  0
 15 14  1  0  0  0  0
 16 17  2  0  0  0  0
 17 21  1  0  0  0  0
 17  4  1  0  0  0  0
 18 19  1  0  0  0  0
 18 16  1  0  0  0  0
 21 20  1  0  0  0  0
 22 16  1  0  0  0  0
 23 24  3  0  0  0  0
 24 22  1  0  0  0  0
 25 23  1  0  0  0  0
 25 26  1  0  0  0  0
 26 27  1  0  0  0  0
 27 29  1  0  0  0  0
 29 30  2  6  0  0  0
 29 28  1  0  0  0  0
 29 31  1  0  0  0  0
 31 32  1  1  0  0  0
 31 33  1  0  0  0  0
 33 36  1  0  0  0  0
 33 34  1  1  0  0  0
 36 35  1  1  0  0  0
 36 39  1  0  0  0  0
 39 38  2  0  0  0  0
 39 37  1  0  0  0  0
 40 41  1  0  0  0  0
 40  4  1  0  0  0  0
 43 48  1  0  0  0  0
 44 43  1  0  0  0  0
 44 46  1  0  0  0  0
 45 43  1  0  0  0  0
 46 42  1  1  0  0  0
 46 47  1  0  0  0  0
 47 41  1  6  0  0  0
 47 49  1  0  0  0  0
 48 50  2  0  0  0  0
 48 49  1  0  0  0  0
M  END
>  <MODEL>
2

>  <REMARK>
 VINA RESULT:      -7.1      3.301      9.488
  Name = 
  18 active torsions:
  status: ('A' for Active; 'I' for Inactive)
    1  A    between atoms: O_1  and  C_10
    2  A    between atoms: O_1  and  C_34
    3  A    between atoms: O_2  and  C_13
    4  A    between atoms: C_3  and  C_42
    5  A    between atoms: C_5  and  C_8
    6  A    between atoms: C_5  and  C_27
    7  A    between atoms: C_8  and  P_36
    8  A    between atoms: C_9  and  C_37
    9  A    between atoms: C_10  and  C_32
   10  A    between atoms: C_13  and  C_35
   11  A    between atoms: N_18  and  P_36
   12  A    between atoms: N_18  and  C_43
   13  A    between atoms: C_26  and  C_32
   14  A    between atoms: C_26  and  N_41
   15  A    between atoms: C_27  and  C_40
   16  A    between atoms: C_30  and  C_35
   17  A    between atoms: C_37  and  C_43
   18  A    between atoms: C_42  and  C_49
                            x       y       z     vdW  Elec       q    Type
                         _______ _______ _______ _____ _____    ______ ____

>  <TORSDO>
F 18

$$$$
=
 OpenBabel10222419053D

 50 52  0  0  1  0  0  0  0  0999 V2000
  190.6370  176.5000  141.3250 C   0  0  0  0  0  0  0  0  0  0  0  0
  190.5610  175.3340  142.0640 O   0  0  0  0  0  0  0  0  0  0  0  0
  190.6440  177.6940  142.2050 C   0  0  0  0  0  2  0  0  0  0  0  0
  190.8570  176.5460  138.7270 C   0  0  0  0  0  0  0  0  0  0  0  0
  190.5330  175.6850  143.4030 C   0  0  0  0  0  3  0  0  0  0  0  0
  190.7350  176.5270  140.0270 C   0  0  0  0  0  0  0  0  0  0  0  0
  190.5850  177.0100  143.5320 C   0  0  0  0  0  0  0  0  0  0  0  0
  190.7250  179.2490  144.6400 C   0  0  0  0  0  1  0  0  0  0  0  0
  190.5810  177.7490  144.8400 C   0  0  1  0  0  3  0  0  0  0  0  0
  189.3920  177.4120  145.7500 C   0  0  0  0  0  3  0  0  0  0  0  0
  188.3970  177.4820  148.0560 C   0  0  0  0  0  2  0  0  0  0  0  0
  189.5930  177.8800  147.1960 C   0  0  0  0  0  2  0  0  0  0  0  0
  188.0890  177.9710  145.1730 C   0  0  0  0  0  2  0  0  0  0  0  0
  187.1120  178.0670  147.4750 C   0  0  0  0  0  2  0  0  0  0  0  0
  186.9060  177.5670  146.0470 C   0  0  0  0  0  2  0  0  0  0  0  0
  188.7550  177.2930  137.6540 C   0  0  0  0  0  0  0  0  0  0  0  0
  189.6740  176.3160  137.8580 C   0  0  0  0  0  0  0  0  0  0  0  0
  187.6440  177.1550  136.8030 O   0  0  0  0  0  0  0  0  0  0  0  0
  187.1560  178.1500  135.9120 C   0  0  0  0  0  1  0  0  0  0  0  0
  189.8090  174.7420  135.9970 O   0  0  0  0  0  1  0  0  0  0  0  0
  189.4830  175.0160  137.2820 N   0  0  0  0  0  2  0  0  0  0  0  0
  188.8590  178.6030  138.3710 C   0  0  0  0  0  2  0  0  0  0  0  0
  187.4480  178.5290  140.6380 C   0  0  0  0  0  0  0  0  0  0  0  0
  188.0900  178.5580  139.6170 C   0  0  0  0  0  0  0  0  0  0  0  0
  186.6600  178.4940  141.8720 C   0  0  0  0  0  2  0  0  0  0  0  0
  185.2900  179.1080  141.6450 C   0  0  0  0  0  2  0  0  0  0  0  0
  185.1120  179.4270  140.2370 N   0  0  0  0  0  2  0  0  0  0  0  0
  183.3570  177.4600  140.6820 O   0  0  0  0  0  1  0  0  0  0  0  0
  183.7260  178.5170  139.6670 P   0  0  2  0  0  0  0  0  0  0  0  0
  184.1000  177.7690  138.1950 O   0  0  0  0  0  0  0  0  0  0  0  0
  182.3120  179.6440  139.4400 C   0  0  1  0  0  3  0  0  0  0  0  0
  182.2920  180.0780  138.1130 O   0  0  0  0  0  1  0  0  0  0  0  0
  180.9840  178.9570  139.7990 C   0  0  1  0  0  3  0  0  0  0  0  0
  181.0030  177.6210  139.3930 O   0  0  0  0  0  1  0  0  0  0  0  0
  179.8250  177.8150  141.7480 C   0  0  0  0  0  1  0  0  0  0  0  0
  180.6340  179.0190  141.2930 C   0  0  2  0  0  3  0  0  0  0  0  0
  179.3440  181.0890  140.7600 O   0  0  0  0  0  0  0  0  0  0  0  0
  180.0170  180.6830  142.9100 O   0  0  0  0  0  1  0  0  0  0  0  0
  179.9980  180.3130  141.7070 C   0  0  0  0  0  0  0  0  0  0  0  0
  192.2310  176.5800  138.1390 C   0  0  0  0  0  2  0  0  0  0  0  0
  192.7760  175.2870  138.0910 O   0  0  0  0  0  0  0  0  0  0  0  0
  194.0680  173.1420  135.3370 C   0  0  0  0  0  1  0  0  0  0  0  0
  195.8220  175.5850  135.8410 N   0  0  0  0  0  0  0  0  0  0  0  0
  195.6350  174.4670  136.7610 C   0  0  0  0  0  2  0  0  0  0  0  0
  197.1330  175.7970  135.2530 C   0  0  0  0  0  1  0  0  0  0  0  0
  194.2250  173.8870  136.6500 C   0  0  1  0  0  3  0  0  0  0  0  0
  193.1570  174.9900  136.7630 C   0  0  2  0  0  3  0  0  0  0  0  0
  194.7390  176.4870  135.5770 C   0  0  0  0  0  0  0  0  0  0  0  0
  193.4470  176.1670  135.9980 O   0  0  0  0  0  0  0  0  0  0  0  0
  194.9350  177.5500  134.9280 O   0  0  0  0  0  0  0  0  0  0  0  0
  1  2  1  0  0  0  0
  1  3  1  0  0  0  0
  2  5  1  0  0  0  0
  3  7  1  0  0  0  0
  4  6  2  0  0  0  0
  5  7  2  0  0  0  0
  6  1  2  0  0  0  0
  7  9  1  0  0  0  0
  9  8  1  6  0  0  0
  9 10  1  0  0  0  0
 10 12  1  0  0  0  0
 12 11  1  0  0  0  0
 13 10  1  0  0  0  0
 13 15  1  0  0  0  0
 14 11  1  0  0  0  0
 15 14  1  0  0  0  0
 16 17  2  0  0  0  0
 16 22  1  0  0  0  0
 17  4  1  0  0  0  0
 18 16  1  0  0  0  0
 19 18  1  0  0  0  0
 20 21  1  0  0  0  0
 21 17  1  0  0  0  0
 22 24  1  0  0  0  0
 23 25  1  0  0  0  0
 24 23  3  0  0  0  0
 26 25  1  0  0  0  0
 27 26  1  0  0  0  0
 29 30  2  6  0  0  0
 29 27  1  0  0  0  0
 29 28  1  0  0  0  0
 31 32  1  6  0  0  0
 31 29  1  0  0  0  0
 31 33  1  0  0  0  0
 33 34  1  1  0  0  0
 33 36  1  0  0  0  0
 36 39  1  0  0  0  0
 36 35  1  6  0  0  0
 37 39  2  0  0  0  0
 39 38  1  0  0  0  0
 40  4  1  0  0  0  0
 41 40  1  0  0  0  0
 43 44  1  0  0  0  0
 45 43  1  0  0  0  0
 46 42  1  6  0  0  0
 46 44  1  0  0  0  0
 46 47  1  0  0  0  0
 47 41  1  1  0  0  0
 48 43  1  0  0  0  0
 48 49  1  0  0  0  0
 49 47  1  0  0  0  0
 50 48  2  0  0  0  0
M  END
>  <MODEL>
3

>  <REMARK>
 VINA RESULT:      -7.1      1.923      3.033
  Name = 
  18 active torsions:
  status: ('A' for Active; 'I' for Inactive)
    1  A    between atoms: O_1  and  C_10
    2  A    between atoms: O_1  and  C_34
    3  A    between atoms: O_2  and  C_13
    4  A    between atoms: C_3  and  C_42
    5  A    between atoms: C_5  and  C_8
    6  A    between atoms: C_5  and  C_27
    7  A    between atoms: C_8  and  P_36
    8  A    between atoms: C_9  and  C_37
    9  A    between atoms: C_10  and  C_32
   10  A    between atoms: C_13  and  C_35
   11  A    between atoms: N_18  and  P_36
   12  A    between atoms: N_18  and  C_43
   13  A    between atoms: C_26  and  C_32
   14  A    between atoms: C_26  and  N_41
   15  A    between atoms: C_27  and  C_40
   16  A    between atoms: C_30  and  C_35
   17  A    between atoms: C_37  and  C_43
   18  A    between atoms: C_42  and  C_49
                            x       y       z     vdW  Elec       q    Type
                         _______ _______ _______ _____ _____    ______ ____

>  <TORSDO>
F 18

$$$$
=
 OpenBabel10222419053D

 50 52  0  0  1  0  0  0  0  0999 V2000
  189.0410  177.4450  141.3400 C   0  0  0  0  0  0  0  0  0  0  0  0
  190.1130  178.1820  141.8070 O   0  0  0  0  0  0  0  0  0  0  0  0
  188.2740  176.8440  142.4590 C   0  0  0  0  0  2  0  0  0  0  0  0
  188.4110  177.2590  138.8150 C   0  0  0  0  0  0  0  0  0  0  0  0
  190.0970  178.1190  143.1900 C   0  0  0  0  0  3  0  0  0  0  0  0
  188.7300  177.3410  140.0790 C   0  0  0  0  0  0  0  0  0  0  0  0
  189.0700  177.3780  143.6040 C   0  0  0  0  0  0  0  0  0  0  0  0
  189.9660  177.1700  145.9310 C   0  0  0  0  0  1  0  0  0  0  0  0
  188.7360  177.0960  145.0420 C   0  0  1  0  0  3  0  0  0  0  0  0
  187.5840  177.9440  145.5980 C   0  0  0  0  0  3  0  0  0  0  0  0
  185.1420  178.5260  145.5090 C   0  0  0  0  0  2  0  0  0  0  0  0
  186.2350  177.6270  144.9420 C   0  0  0  0  0  2  0  0  0  0  0  0
  187.4940  177.8080  147.1200 C   0  0  0  0  0  2  0  0  0  0  0  0
  185.0550  178.3600  147.0240 C   0  0  0  0  0  2  0  0  0  0  0  0
  186.3930  178.7110  147.6680 C   0  0  0  0  0  2  0  0  0  0  0  0
  188.5710  175.8090  136.8150 C   0  0  0  0  0  0  0  0  0  0  0  0
  189.1630  176.3550  137.9080 C   0  0  0  0  0  0  0  0  0  0  0  0
  189.2430  174.9900  135.8900 O   0  0  0  0  0  0  0  0  0  0  0  0
  189.6800  175.3890  134.5970 C   0  0  0  0  0  1  0  0  0  0  0  0
  191.5740  176.5430  137.5780 O   0  0  0  0  0  1  0  0  0  0  0  0
  190.5170  176.0150  138.2380 N   0  0  0  0  0  2  0  0  0  0  0  0
  187.1160  176.0310  136.5420 C   0  0  0  0  0  2  0  0  0  0  0  0
  185.7070  173.8740  137.2460 C   0  0  0  0  0  0  0  0  0  0  0  0
  186.3440  174.8500  136.9340 C   0  0  0  0  0  0  0  0  0  0  0  0
  184.9390  172.6830  137.6160 C   0  0  0  0  0  2  0  0  0  0  0  0
  183.8580  172.4080  136.5860 C   0  0  0  0  0  2  0  0  0  0  0  0
  182.6060  172.0780  137.2500 N   0  0  0  0  0  2  0  0  0  0  0  0
  180.0720  172.2280  136.4140 O   0  0  0  0  0  1  0  0  0  0  0  0
  181.3470  173.0340  136.4920 P   0  0  2  0  0  0  0  0  0  0  0  0
  181.8250  173.4720  134.9280 O   0  0  0  0  0  0  0  0  0  0  0  0
  181.0430  174.5330  137.4830 C   0  0  1  0  0  3  0  0  0  0  0  0
  182.1740  174.7930  138.2610 O   0  0  0  0  0  1  0  0  0  0  0  0
  180.7190  175.7410  136.5890 C   0  0  1  0  0  3  0  0  0  0  0  0
  179.3370  175.8970  136.4650 O   0  0  0  0  0  1  0  0  0  0  0  0
  180.2710  178.1160  137.3650 C   0  0  0  0  0  1  0  0  0  0  0  0
  181.3280  177.0620  137.0800 C   0  0  2  0  0  3  0  0  0  0  0  0
  182.0920  178.3210  135.0640 O   0  0  0  0  0  0  0  0  0  0  0  0
  183.6310  177.3980  136.4870 O   0  0  0  0  0  1  0  0  0  0  0  0
  182.4200  177.5860  136.1950 C   0  0  0  0  0  0  0  0  0  0  0  0
  187.4360  178.2460  138.2610 C   0  0  0  0  0  2  0  0  0  0  0  0
  186.1270  177.9110  138.6450 O   0  0  0  0  0  0  0  0  0  0  0  0
  185.3330  179.3830  141.9700 C   0  0  0  0  0  1  0  0  0  0  0  0
  182.8470  178.9410  140.2600 N   0  0  0  0  0  0  0  0  0  0  0  0
  183.6950  177.8910  140.8140 C   0  0  0  0  0  2  0  0  0  0  0  0
  181.4810  179.0640  140.7390 C   0  0  0  0  0  1  0  0  0  0  0  0
  185.1560  178.3380  140.8840 C   0  0  1  0  0  3  0  0  0  0  0  0
  185.6340  178.8950  139.5300 C   0  0  2  0  0  3  0  0  0  0  0  0
  183.3440  179.7920  139.2180 C   0  0  0  0  0  0  0  0  0  0  0  0
  184.7030  179.7850  138.9020 O   0  0  0  0  0  0  0  0  0  0  0  0
  182.5690  180.5800  138.6110 O   0  0  0  0  0  0  0  0  0  0  0  0
  1  2  1  0  0  0  0
  1  3  1  0  0  0  0
  2  5  1  0  0  0  0
  3  7  1  0  0  0  0
  4  6  2  0  0  0  0
  5  7  2  0  0  0  0
  6  1  2  0  0  0  0
  7  9  1  0  0  0  0
  9 10  1  0  0  0  0
  9  8  1  1  0  0  0
 10 13  1  0  0  0  0
 11 14  1  0  0  0  0
 12 11  1  0  0  0  0
 12 10  1  0  0  0  0
 13 15  1  0  0  0  0
 14 15  1  0  0  0  0
 16 17  2  0  0  0  0
 17 21  1  0  0  0  0
 17  4  1  0  0  0  0
 18 16  1  0  0  0  0
 19 18  1  0  0  0  0
 20 21  1  0  0  0  0
 22 16  1  0  0  0  0
 22 24  1  0  0  0  0
 23 25  1  0  0  0  0
 24 23  3  0  0  0  0
 26 27  1  0  0  0  0
 26 25  1  0  0  0  0
 28 29  1  0  0  0  0
 29 30  2  6  0  0  0
 29 27  1  0  0  0  0
 29 31  1  0  0  0  0
 31 32  1  6  0  0  0
 33 34  1  1  0  0  0
 33 36  1  0  0  0  0
 33 31  1  0  0  0  0
 36 35  1  6  0  0  0
 37 39  2  0  0  0  0
 39 38  1  0  0  0  0
 39 36  1  0  0  0  0
 40 41  1  0  0  0  0
 40  4  1  0  0  0  0
 43 45  1  0  0  0  0
 43 44  1  0  0  0  0
 44 46  1  0  0  0  0
 46 42  1  1  0  0  0
 47 41  1  6  0  0  0
 47 46  1  0  0  0  0
 48 43  1  0  0  0  0
 49 48  1  0  0  0  0
 49 47  1  0  0  0  0
 50 48  2  0  0  0  0
M  END
>  <MODEL>
4

>  <REMARK>
 VINA RESULT:      -6.8      3.255      6.935
  Name = 
  18 active torsions:
  status: ('A' for Active; 'I' for Inactive)
    1  A    between atoms: O_1  and  C_10
    2  A    between atoms: O_1  and  C_34
    3  A    between atoms: O_2  and  C_13
    4  A    between atoms: C_3  and  C_42
    5  A    between atoms: C_5  and  C_8
    6  A    between atoms: C_5  and  C_27
    7  A    between atoms: C_8  and  P_36
    8  A    between atoms: C_9  and  C_37
    9  A    between atoms: C_10  and  C_32
   10  A    between atoms: C_13  and  C_35
   11  A    between atoms: N_18  and  P_36
   12  A    between atoms: N_18  and  C_43
   13  A    between atoms: C_26  and  C_32
   14  A    between atoms: C_26  and  N_41
   15  A    between atoms: C_27  and  C_40
   16  A    between atoms: C_30  and  C_35
   17  A    between atoms: C_37  and  C_43
   18  A    between atoms: C_42  and  C_49
                            x       y       z     vdW  Elec       q    Type
                         _______ _______ _______ _____ _____    ______ ____

>  <TORSDO>
F 18

$$$$
=
 OpenBabel10222419053D

 50 52  0  0  1  0  0  0  0  0999 V2000
  190.3380  176.6050  141.1770 C   0  0  0  0  0  0  0  0  0  0  0  0
  190.3440  175.4740  141.9720 O   0  0  0  0  0  0  0  0  0  0  0  0
  190.5070  177.8350  141.9910 C   0  0  0  0  0  2  0  0  0  0  0  0
  190.1680  176.5350  138.5750 C   0  0  0  0  0  0  0  0  0  0  0  0
  190.5260  175.8820  143.2830 C   0  0  0  0  0  3  0  0  0  0  0  0
  190.2410  176.5750  139.8790 C   0  0  0  0  0  0  0  0  0  0  0  0
  190.6290  177.2090  143.3410 C   0  0  0  0  0  0  0  0  0  0  0  0
  191.5440  179.3210  144.3250 C   0  0  0  0  0  1  0  0  0  0  0  0
  190.8400  178.0020  144.6000 C   0  0  1  0  0  3  0  0  0  0  0  0
  189.5690  178.2040  145.4370 C   0  0  0  0  0  3  0  0  0  0  0  0
  187.0610  178.1070  145.5420 C   0  0  0  0  0  2  0  0  0  0  0  0
  188.2870  177.8500  144.6730 C   0  0  0  0  0  2  0  0  0  0  0  0
  189.6520  177.4230  146.7510 C   0  0  0  0  0  2  0  0  0  0  0  0
  187.1540  177.3040  146.8370 C   0  0  0  0  0  2  0  0  0  0  0  0
  188.4170  177.6890  147.6040 C   0  0  0  0  0  2  0  0  0  0  0  0
  187.8740  177.2360  137.9580 C   0  0  0  0  0  0  0  0  0  0  0  0
  188.8620  176.3070  137.9040 C   0  0  0  0  0  0  0  0  0  0  0  0
  186.6390  177.1020  137.3010 O   0  0  0  0  0  0  0  0  0  0  0  0
  186.3570  177.5330  135.9750 C   0  0  0  0  0  1  0  0  0  0  0  0
  188.8060  174.9020  135.9080 O   0  0  0  0  0  1  0  0  0  0  0  0
  188.6360  175.0540  137.2430 N   0  0  0  0  0  2  0  0  0  0  0  0
  188.0390  178.4810  138.7740 C   0  0  0  0  0  2  0  0  0  0  0  0
  186.1920  178.5820  140.7000 C   0  0  0  0  0  0  0  0  0  0  0  0
  187.0260  178.5290  139.8310 C   0  0  0  0  0  0  0  0  0  0  0  0
  185.1740  178.6530  141.7510 C   0  0  0  0  0  2  0  0  0  0  0  0
  183.8920  177.9800  141.2940 C   0  0  0  0  0  2  0  0  0  0  0  0
  183.1300  178.8800  140.4430 N   0  0  0  0  0  2  0  0  0  0  0  0
  181.1530  178.7700  142.2390 O   0  0  0  0  0  1  0  0  0  0  0  0
  181.4310  178.5880  140.7640 P   0  0  2  0  0  0  0  0  0  0  0  0
  181.0280  177.0070  140.3130 O   0  0  0  0  0  0  0  0  0  0  0  0
  180.4210  179.7740  139.8180 C   0  0  1  0  0  3  0  0  0  0  0  0
  179.9300  180.7440  140.6930 O   0  0  0  0  0  1  0  0  0  0  0  0
  181.2360  180.4310  138.6920 C   0  0  1  0  0  3  0  0  0  0  0  0
  181.3810  179.5510  137.6180 O   0  0  0  0  0  1  0  0  0  0  0  0
  179.7840  181.5540  136.9380 C   0  0  0  0  0  1  0  0  0  0  0  0
  180.6400  181.7500  138.1790 C   0  0  2  0  0  3  0  0  0  0  0  0
  182.9250  182.6870  138.5360 O   0  0  0  0  0  1  0  0  0  0  0  0
  181.3820  183.8670  137.3230 O   0  0  0  0  0  0  0  0  0  0  0  0
  181.6560  182.8370  137.9950 C   0  0  0  0  0  0  0  0  0  0  0  0
  191.4380  176.5010  137.7890 C   0  0  0  0  0  2  0  0  0  0  0  0
  192.2200  175.3980  138.1690 O   0  0  0  0  0  0  0  0  0  0  0  0
  194.4720  174.8160  135.2630 C   0  0  0  0  0  1  0  0  0  0  0  0
  195.3510  173.2880  137.7520 N   0  0  0  0  0  0  0  0  0  0  0  0
  194.1320  173.0400  136.9870 C   0  0  0  0  0  2  0  0  0  0  0  0
  196.3840  172.2680  137.7730 C   0  0  0  0  0  1  0  0  0  0  0  0
  193.5780  174.3340  136.3910 C   0  0  1  0  0  3  0  0  0  0  0  0
  193.4440  175.4300  137.4650 C   0  0  2  0  0  3  0  0  0  0  0  0
  195.4880  174.4950  138.5140 C   0  0  0  0  0  0  0  0  0  0  0  0
  194.5770  175.5380  138.3360 O   0  0  0  0  0  0  0  0  0  0  0  0
  196.4510  174.6410  139.3140 O   0  0  0  0  0  0  0  0  0  0  0  0
  1  2  1  0  0  0  0
  1  3  1  0  0  0  0
  2  5  1  0  0  0  0
  3  7  1  0  0  0  0
  4  6  2  0  0  0  0
  5  7  2  0  0  0  0
  6  1  2  0  0  0  0
  7  9  1  0  0  0  0
  9  8  1  6  0  0  0
  9 10  1  0  0  0  0
 10 13  1  0  0  0  0
 11 14  1  0  0  0  0
 12 10  1  0  0  0  0
 12 11  1  0  0  0  0
 13 15  1  0  0  0  0
 14 15  1  0  0  0  0
 16 22  1  0  0  0  0
 17 16  2  0  0  0  0
 17  4  1  0  0  0  0
 18 16  1  0  0  0  0
 19 18  1  0  0  0  0
 20 21  1  0  0  0  0
 21 17  1  0  0  0  0
 22 24  1  0  0  0  0
 23 25  1  0  0  0  0
 24 23  3  0  0  0  0
 26 25  1  0  0  0  0
 27 29  1  0  0  0  0
 27 26  1  0  0  0  0
 29 30  2  6  0  0  0
 29 28  1  0  0  0  0
 31 32  1  1  0  0  0
 31 29  1  0  0  0  0
 33 34  1  6  0  0  0
 33 31  1  0  0  0  0
 36 35  1  6  0  0  0
 36 33  1  0  0  0  0
 38 39  2  0  0  0  0
 39 36  1  0  0  0  0
 39 37  1  0  0  0  0
 40 41  1  0  0  0  0
 40  4  1  0  0  0  0
 43 45  1  0  0  0  0
 43 48  1  0  0  0  0
 44 43  1  0  0  0  0
 46 42  1  6  0  0  0
 46 44  1  0  0  0  0
 46 47  1  0  0  0  0
 47 41  1  1  0  0  0
 47 49  1  0  0  0  0
 48 50  2  0  0  0  0
 49 48  1  0  0  0  0
M  END
>  <MODEL>
5

>  <REMARK>
 VINA RESULT:      -6.8      2.145      3.448
  Name = 
  18 active torsions:
  status: ('A' for Active; 'I' for Inactive)
    1  A    between atoms: O_1  and  C_10
    2  A    between atoms: O_1  and  C_34
    3  A    between atoms: O_2  and  C_13
    4  A    between atoms: C_3  and  C_42
    5  A    between atoms: C_5  and  C_8
    6  A    between atoms: C_5  and  C_27
    7  A    between atoms: C_8  and  P_36
    8  A    between atoms: C_9  and  C_37
    9  A    between atoms: C_10  and  C_32
   10  A    between atoms: C_13  and  C_35
   11  A    between atoms: N_18  and  P_36
   12  A    between atoms: N_18  and  C_43
   13  A    between atoms: C_26  and  C_32
   14  A    between atoms: C_26  and  N_41
   15  A    between atoms: C_27  and  C_40
   16  A    between atoms: C_30  and  C_35
   17  A    between atoms: C_37  and  C_43
   18  A    between atoms: C_42  and  C_49
                            x       y       z     vdW  Elec       q    Type
                         _______ _______ _______ _____ _____    ______ ____

>  <TORSDO>
F 18

$$$$
=
 OpenBabel10222419053D

 50 52  0  0  1  0  0  0  0  0999 V2000
  189.1700  176.7230  141.2080 C   0  0  0  0  0  0  0  0  0  0  0  0
  189.3110  175.6600  142.0810 O   0  0  0  0  0  0  0  0  0  0  0  0
  188.4500  177.8520  141.8470 C   0  0  0  0  0  2  0  0  0  0  0  0
  190.1610  176.7450  138.7960 C   0  0  0  0  0  0  0  0  0  0  0  0
  188.7340  176.0250  143.2860 C   0  0  0  0  0  3  0  0  0  0  0  0
  189.6540  176.7330  139.9990 C   0  0  0  0  0  0  0  0  0  0  0  0
  188.2390  177.2600  143.2030 C   0  0  0  0  0  0  0  0  0  0  0  0
  186.0330  177.9280  144.1770 C   0  0  0  0  0  1  0  0  0  0  0  0
  187.5460  177.9870  144.3200 C   0  0  1  0  0  3  0  0  0  0  0  0
  187.9980  177.5620  145.7240 C   0  0  0  0  0  3  0  0  0  0  0  0
  189.8780  177.3700  147.3790 C   0  0  0  0  0  2  0  0  0  0  0  0
  189.4820  177.8480  145.9860 C   0  0  0  0  0  2  0  0  0  0  0  0
  187.1210  178.2100  146.7980 C   0  0  0  0  0  2  0  0  0  0  0  0
  189.0050  178.0440  148.4360 C   0  0  0  0  0  2  0  0  0  0  0  0
  187.5340  177.7250  148.1830 C   0  0  0  0  0  2  0  0  0  0  0  0
  188.6760  176.6600  136.8170 C   0  0  0  0  0  0  0  0  0  0  0  0
  189.4900  176.0140  137.6900 C   0  0  0  0  0  0  0  0  0  0  0  0
  188.0540  176.0360  135.7210 O   0  0  0  0  0  0  0  0  0  0  0  0
  186.7730  175.4190  135.7390 C   0  0  0  0  0  1  0  0  0  0  0  0
  189.9320  173.9790  136.4170 O   0  0  0  0  0  1  0  0  0  0  0  0
  189.6670  174.5950  137.5940 N   0  0  0  0  0  2  0  0  0  0  0  0
  188.3580  178.1120  136.9980 C   0  0  0  0  0  2  0  0  0  0  0  0
  186.1460  178.4050  138.4650 C   0  0  0  0  0  0  0  0  0  0  0  0
  187.1460  178.2670  137.8060 C   0  0  0  0  0  0  0  0  0  0  0  0
  184.9270  178.5770  139.2590 C   0  0  0  0  0  2  0  0  0  0  0  0
  183.7170  178.7090  138.3510 C   0  0  0  0  0  2  0  0  0  0  0  0
  183.4110  177.4270  137.7360 N   0  0  0  0  0  2  0  0  0  0  0  0
  182.5250  176.0650  139.8580 O   0  0  0  0  0  1  0  0  0  0  0  0
  182.0450  176.7470  138.5980 P   0  0  2  0  0  0  0  0  0  0  0  0
  181.2580  175.6130  137.6180 O   0  0  0  0  0  0  0  0  0  0  0  0
  180.8860  178.0790  139.0460 C   0  0  1  0  0  3  0  0  0  0  0  0
  179.6470  177.8130  138.4590 O   0  0  0  0  0  1  0  0  0  0  0  0
  180.7390  178.2060  140.5710 C   0  0  1  0  0  3  0  0  0  0  0  0
  181.9670  178.5250  141.1540 O   0  0  0  0  0  1  0  0  0  0  0  0
  179.8570  180.5710  140.2970 C   0  0  0  0  0  1  0  0  0  0  0  0
  179.6940  179.2400  141.0140 C   0  0  2  0  0  3  0  0  0  0  0  0
  180.2560  180.4800  143.1070 O   0  0  0  0  0  0  0  0  0  0  0  0
  178.9310  178.6150  143.2030 O   0  0  0  0  0  1  0  0  0  0  0  0
  179.6110  179.4100  142.5020 C   0  0  0  0  0  0  0  0  0  0  0  0
  191.5300  177.3140  138.6040 C   0  0  0  0  0  2  0  0  0  0  0  0
  192.4940  176.4810  139.1960 O   0  0  0  0  0  0  0  0  0  0  0  0
  194.1680  176.3350  135.8750 C   0  0  0  0  0  1  0  0  0  0  0  0
  194.3880  173.7120  137.4140 N   0  0  0  0  0  0  0  0  0  0  0  0
  193.1560  174.2850  136.8810 C   0  0  0  0  0  2  0  0  0  0  0  0
  194.8790  172.4650  136.8560 C   0  0  0  0  0  1  0  0  0  0  0  0
  193.1940  175.8130  136.9150 C   0  0  1  0  0  3  0  0  0  0  0  0
  193.5860  176.3300  138.3120 C   0  0  2  0  0  3  0  0  0  0  0  0
  195.0600  174.3470  138.5110 C   0  0  0  0  0  0  0  0  0  0  0  0
  194.6850  175.6300  138.9090 O   0  0  0  0  0  0  0  0  0  0  0  0
  196.0190  173.7720  139.0920 O   0  0  0  0  0  0  0  0  0  0  0  0
  1  3  1  0  0  0  0
  1  2  1  0  0  0  0
  2  5  1  0  0  0  0
  3  7  1  0  0  0  0
  4  6  2  0  0  0  0
  6  1  2  0  0  0  0
  7  5  2  0  0  0  0
  7  9  1  0  0  0  0
  9  8  1  1  0  0  0
  9 10  1  0  0  0  0
 10 12  1  0  0  0  0
 10 13  1  0  0  0  0
 11 14  1  0  0  0  0
 12 11  1  0  0  0  0
 13 15  1  0  0  0  0
 15 14  1  0  0  0  0
 16 22  1  0  0  0  0
 16 17  2  0  0  0  0
 17  4  1  0  0  0  0
 18 19  1  0  0  0  0
 18 16  1  0  0  0  0
 20 21  1  0  0  0  0
 21 17  1  0  0  0  0
 22 24  1  0  0  0  0
 23 25  1  0  0  0  0
 24 23  3  0  0  0  0
 26 25  1  0  0  0  0
 27 26  1  0  0  0  0
 27 29  1  0  0  0  0
 29 30  2  6  0  0  0
 29 31  1  0  0  0  0
 29 28  1  0  0  0  0
 31 32  1  6  0  0  0
 31 33  1  0  0  0  0
 33 36  1  0  0  0  0
 33 34  1  1  0  0  0
 36 35  1  6  0  0  0
 36 39  1  0  0  0  0
 39 37  2  0  0  0  0
 39 38  1  0  0  0  0
 40  4  1  0  0  0  0
 40 41  1  0  0  0  0
 43 48  1  0  0  0  0
 44 46  1  0  0  0  0
 44 43  1  0  0  0  0
 45 43  1  0  0  0  0
 46 42  1  6  0  0  0
 46 47  1  0  0  0  0
 47 49  1  0  0  0  0
 47 41  1  1  0  0  0
 48 49  1  0  0  0  0
 48 50  2  0  0  0  0
M  END
>  <MODEL>
6

>  <REMARK>
 VINA RESULT:      -6.5      2.284      3.643
  Name = 
  18 active torsions:
  status: ('A' for Active; 'I' for Inactive)
    1  A    between atoms: O_1  and  C_10
    2  A    between atoms: O_1  and  C_34
    3  A    between atoms: O_2  and  C_13
    4  A    between atoms: C_3  and  C_42
    5  A    between atoms: C_5  and  C_8
    6  A    between atoms: C_5  and  C_27
    7  A    between atoms: C_8  and  P_36
    8  A    between atoms: C_9  and  C_37
    9  A    between atoms: C_10  and  C_32
   10  A    between atoms: C_13  and  C_35
   11  A    between atoms: N_18  and  P_36
   12  A    between atoms: N_18  and  C_43
   13  A    between atoms: C_26  and  C_32
   14  A    between atoms: C_26  and  N_41
   15  A    between atoms: C_27  and  C_40
   16  A    between atoms: C_30  and  C_35
   17  A    between atoms: C_37  and  C_43
   18  A    between atoms: C_42  and  C_49
                            x       y       z     vdW  Elec       q    Type
                         _______ _______ _______ _____ _____    ______ ____

>  <TORSDO>
F 18

$$$$
=
 OpenBabel10222419053D

 50 52  0  0  1  0  0  0  0  0999 V2000
  183.4990  178.2740  141.3020 C   0  0  0  0  0  0  0  0  0  0  0  0
  184.5660  178.9110  140.6980 O   0  0  0  0  0  0  0  0  0  0  0  0
  183.7420  178.0770  142.7530 C   0  0  0  0  0  2  0  0  0  0  0  0
  181.3080  177.6280  140.0440 C   0  0  0  0  0  0  0  0  0  0  0  0
  185.5130  179.1670  141.6760 C   0  0  0  0  0  3  0  0  0  0  0  0
  182.4080  177.9390  140.6740 C   0  0  0  0  0  0  0  0  0  0  0  0
  185.0870  178.7180  142.8560 C   0  0  0  0  0  0  0  0  0  0  0  0
  184.9190  178.9270  145.3440 C   0  0  0  0  0  1  0  0  0  0  0  0
  185.8500  178.8290  144.1460 C   0  0  1  0  0  3  0  0  0  0  0  0
  186.9130  177.7390  144.3440 C   0  0  0  0  0  3  0  0  0  0  0  0
  188.5210  176.1270  143.2840 C   0  0  0  0  0  2  0  0  0  0  0  0
  187.5010  177.2310  143.0220 C   0  0  0  0  0  2  0  0  0  0  0  0
  188.0210  178.2240  145.2820 C   0  0  0  0  0  2  0  0  0  0  0  0
  189.6270  176.6370  144.2040 C   0  0  0  0  0  2  0  0  0  0  0  0
  189.0320  177.1090  145.5280 C   0  0  0  0  0  2  0  0  0  0  0  0
  181.7860  176.4560  137.9150 C   0  0  0  0  0  0  0  0  0  0  0  0
  181.2590  176.4300  139.1660 C   0  0  0  0  0  0  0  0  0  0  0  0
  181.8180  175.3430  137.0580 O   0  0  0  0  0  0  0  0  0  0  0  0
  182.7960  174.3100  137.0810 C   0  0  0  0  0  1  0  0  0  0  0  0
  179.3250  174.9440  139.2650 O   0  0  0  0  0  1  0  0  0  0  0  0
  180.5890  175.2540  139.6400 N   0  0  0  0  0  2  0  0  0  0  0  0
  182.3510  177.7230  137.3500 C   0  0  0  0  0  2  0  0  0  0  0  0
  184.7520  177.2610  136.2740 C   0  0  0  0  0  0  0  0  0  0  0  0
  183.6650  177.4670  136.7540 C   0  0  0  0  0  0  0  0  0  0  0  0
  186.0750  177.0090  135.7000 C   0  0  0  0  0  2  0  0  0  0  0  0
  187.1210  177.8800  136.3740 C   0  0  0  0  0  2  0  0  0  0  0  0
  187.7950  177.1310  137.4230 N   0  0  0  0  0  2  0  0  0  0  0  0
  187.9140  178.6890  139.5930 O   0  0  0  0  0  1  0  0  0  0  0  0
  188.7140  178.2810  138.3760 P   0  0  2  0  0  0  0  0  0  0  0  0
  189.0490  179.6550  137.4460 O   0  0  0  0  0  0  0  0  0  0  0  0
  190.2730  177.5110  138.9200 C   0  0  1  0  0  3  0  0  0  0  0  0
  190.1030  177.0190  140.2150 O   0  0  0  0  0  1  0  0  0  0  0  0
  190.7010  176.3810  137.9700 C   0  0  1  0  0  3  0  0  0  0  0  0
  190.8870  176.8750  136.6770 O   0  0  0  0  0  1  0  0  0  0  0  0
  193.1940  176.5540  138.4210 C   0  0  0  0  0  1  0  0  0  0  0  0
  191.9760  175.6460  138.4100 C   0  0  2  0  0  3  0  0  0  0  0  0
  193.5150  174.0760  137.2280 O   0  0  0  0  0  0  0  0  0  0  0  0
  191.2930  173.5630  137.4300 O   0  0  0  0  0  1  0  0  0  0  0  0
  192.2280  174.3760  137.6520 C   0  0  0  0  0  0  0  0  0  0  0  0
  180.1810  178.6100  140.0450 C   0  0  0  0  0  2  0  0  0  0  0  0
  180.6430  179.8860  139.6840 O   0  0  0  0  0  0  0  0  0  0  0  0
  178.9410  180.2810  136.3970 C   0  0  0  0  0  1  0  0  0  0  0  0
  180.5150  182.7630  137.2080 N   0  0  0  0  0  0  0  0  0  0  0  0
  181.0890  181.4650  136.8690 C   0  0  0  0  0  2  0  0  0  0  0  0
  180.7790  183.8950  136.3370 C   0  0  0  0  0  1  0  0  0  0  0  0
  180.1660  180.3220  137.2920 C   0  0  1  0  0  3  0  0  0  0  0  0
  179.7400  180.4660  138.7660 C   0  0  2  0  0  3  0  0  0  0  0  0
  179.7550  182.9210  138.4140 C   0  0  0  0  0  0  0  0  0  0  0  0
  179.3560  181.7960  139.1370 O   0  0  0  0  0  0  0  0  0  0  0  0
  179.4070  184.0670  138.8050 O   0  0  0  0  0  0  0  0  0  0  0  0
  1  3  1  0  0  0  0
  2  1  1  0  0  0  0
  2  5  1  0  0  0  0
  3  7  1  0  0  0  0
  4 40  1  0  0  0  0
  4  6  2  0  0  0  0
  5  7  2  0  0  0  0
  6  1  2  0  0  0  0
  7  9  1  0  0  0  0
  9 10  1  0  0  0  0
  9  8  1  1  0  0  0
 10 13  1  0  0  0  0
 11 14  1  0  0  0  0
 12 11  1  0  0  0  0
 12 10  1  0  0  0  0
 13 15  1  0  0  0  0
 14 15  1  0  0  0  0
 16 17  2  0  0  0  0
 17 21  1  0  0  0  0
 17  4  1  0  0  0  0
 18 19  1  0  0  0  0
 18 16  1  0  0  0  0
 20 21  1  0  0  0  0
 22 16  1  0  0  0  0
 23 24  3  0  0  0  0
 24 22  1  0  0  0  0
 25 23  1  0  0  0  0
 25 26  1  0  0  0  0
 26 27  1  0  0  0  0
 27 29  1  0  0  0  0
 29 30  2  6  0  0  0
 29 31  1  0  0  0  0
 29 28  1  0  0  0  0
 31 32  1  1  0  0  0
 33 34  1  6  0  0  0
 33 36  1  0  0  0  0
 33 31  1  0  0  0  0
 36 35  1  6  0  0  0
 37 39  2  0  0  0  0
 38 39  1  0  0  0  0
 39 36  1  0  0  0  0
 41 40  1  0  0  0  0
 43 48  1  0  0  0  0
 44 43  1  0  0  0  0
 44 46  1  0  0  0  0
 45 43  1  0  0  0  0
 46 42  1  6  0  0  0
 46 47  1  0  0  0  0
 47 49  1  0  0  0  0
 47 41  1  1  0  0  0
 48 50  2  0  0  0  0
 48 49  1  0  0  0  0
M  END
>  <MODEL>
7

>  <REMARK>
 VINA RESULT:      -6.4      3.171      9.948
  Name = 
  18 active torsions:
  status: ('A' for Active; 'I' for Inactive)
    1  A    between atoms: O_1  and  C_10
    2  A    between atoms: O_1  and  C_34
    3  A    between atoms: O_2  and  C_13
    4  A    between atoms: C_3  and  C_42
    5  A    between atoms: C_5  and  C_8
    6  A    between atoms: C_5  and  C_27
    7  A    between atoms: C_8  and  P_36
    8  A    between atoms: C_9  and  C_37
    9  A    between atoms: C_10  and  C_32
   10  A    between atoms: C_13  and  C_35
   11  A    between atoms: N_18  and  P_36
   12  A    between atoms: N_18  and  C_43
   13  A    between atoms: C_26  and  C_32
   14  A    between atoms: C_26  and  N_41
   15  A    between atoms: C_27  and  C_40
   16  A    between atoms: C_30  and  C_35
   17  A    between atoms: C_37  and  C_43
   18  A    between atoms: C_42  and  C_49
                            x       y       z     vdW  Elec       q    Type
                         _______ _______ _______ _____ _____    ______ ____

>  <TORSDO>
F 18

$$$$
=
 OpenBabel10222419053D

 50 52  0  0  1  0  0  0  0  0999 V2000
  183.7490  178.6210  142.0410 C   0  0  0  0  0  0  0  0  0  0  0  0
  185.0080  178.9860  141.6040 O   0  0  0  0  0  0  0  0  0  0  0  0
  183.7190  178.4500  143.5140 C   0  0  0  0  0  2  0  0  0  0  0  0
  181.6880  178.3890  140.4590 C   0  0  0  0  0  0  0  0  0  0  0  0
  185.8270  179.0860  142.7160 C   0  0  0  0  0  3  0  0  0  0  0  0
  182.7200  178.4930  141.2520 C   0  0  0  0  0  0  0  0  0  0  0  0
  185.1400  178.7980  143.8210 C   0  0  0  0  0  0  0  0  0  0  0  0
  184.6170  178.6240  146.2620 C   0  0  0  0  0  1  0  0  0  0  0  0
  185.7030  178.8100  145.2140 C   0  0  1  0  0  3  0  0  0  0  0  0
  186.8690  177.8360  145.4290 C   0  0  0  0  0  3  0  0  0  0  0  0
  189.0130  176.8650  144.5500 C   0  0  0  0  0  2  0  0  0  0  0  0
  187.9010  177.8790  144.2960 C   0  0  0  0  0  2  0  0  0  0  0  0
  187.5390  178.0800  146.7840 C   0  0  0  0  0  2  0  0  0  0  0  0
  189.6800  177.1390  145.8950 C   0  0  0  0  0  2  0  0  0  0  0  0
  188.6480  177.0610  147.0180 C   0  0  0  0  0  2  0  0  0  0  0  0
  182.4480  176.8440  138.6800 C   0  0  0  0  0  0  0  0  0  0  0  0
  181.5150  177.1860  139.6050 C   0  0  0  0  0  0  0  0  0  0  0  0
  182.3690  175.6910  137.8790 O   0  0  0  0  0  0  0  0  0  0  0  0
  183.1570  174.5180  138.0390 C   0  0  0  0  0  1  0  0  0  0  0  0
  179.2800  176.8140  140.5120 O   0  0  0  0  0  1  0  0  0  0  0  0
  180.3110  176.4170  139.7310 N   0  0  0  0  0  2  0  0  0  0  0  0
  183.6350  177.7220  138.4310 C   0  0  0  0  0  2  0  0  0  0  0  0
  184.5760  177.2990  135.9670 C   0  0  0  0  0  0  0  0  0  0  0  0
  184.1570  177.4940  137.0800 C   0  0  0  0  0  0  0  0  0  0  0  0
  185.0770  177.0610  134.6110 C   0  0  0  0  0  2  0  0  0  0  0  0
  186.2890  176.1470  134.6460 C   0  0  0  0  0  2  0  0  0  0  0  0
  187.4490  176.8720  135.1400 N   0  0  0  0  0  2  0  0  0  0  0  0
  188.6360  174.5430  135.6980 O   0  0  0  0  0  0  0  0  0  0  0  0
  188.2320  175.8540  136.3320 P   0  0  2  0  0  0  0  0  0  0  0  0
  187.1660  175.5480  137.6110 O   0  0  0  0  0  1  0  0  0  0  0  0
  189.7220  176.6930  136.9630 C   0  0  1  0  0  3  0  0  0  0  0  0
  189.4580  178.0600  137.0640 O   0  0  0  0  0  1  0  0  0  0  0  0
  190.1490  176.1280  138.3280 C   0  0  1  0  0  3  0  0  0  0  0  0
  190.9250  174.9800  138.1580 O   0  0  0  0  0  1  0  0  0  0  0  0
  192.3960  176.7770  139.3140 C   0  0  0  0  0  1  0  0  0  0  0  0
  190.9220  177.1260  139.2020 C   0  0  2  0  0  3  0  0  0  0  0  0
  191.1040  177.6060  141.6450 O   0  0  0  0  0  1  0  0  0  0  0  0
  189.0420  177.3700  140.6770 O   0  0  0  0  0  0  0  0  0  0  0  0
  190.2950  177.3590  140.5440 C   0  0  0  0  0  0  0  0  0  0  0  0
  180.8140  179.5850  140.2640 C   0  0  0  0  0  2  0  0  0  0  0  0
  180.3140  179.6180  138.9520 O   0  0  0  0  0  0  0  0  0  0  0  0
  181.6530  182.9810  138.0840 C   0  0  0  0  0  1  0  0  0  0  0  0
  179.8890  181.8190  135.8850 N   0  0  0  0  0  0  0  0  0  0  0  0
  179.4360  182.2290  137.2110 C   0  0  0  0  0  2  0  0  0  0  0  0
  179.4190  182.5560  134.7250 C   0  0  0  0  0  1  0  0  0  0  0  0
  180.5180  181.9900  138.2650 C   0  0  1  0  0  3  0  0  0  0  0  0
  181.0580  180.5490  138.1930 C   0  0  2  0  0  3  0  0  0  0  0  0
  180.7330  180.6690  135.7370 C   0  0  0  0  0  0  0  0  0  0  0  0
  181.3220  180.0880  136.8620 O   0  0  0  0  0  0  0  0  0  0  0  0
  180.9840  180.2020  134.5940 O   0  0  0  0  0  0  0  0  0  0  0  0
  1  3  1  0  0  0  0
  2  1  1  0  0  0  0
  2  5  1  0  0  0  0
  3  7  1  0  0  0  0
  4  6  2  0  0  0  0
  5  7  2  0  0  0  0
  6  1  2  0  0  0  0
  7  9  1  0  0  0  0
  9 10  1  0  0  0  0
  9  8  1  1  0  0  0
 10 13  1  0  0  0  0
 11 14  1  0  0  0  0
 12 11  1  0  0  0  0
 12 10  1  0  0  0  0
 13 15  1  0  0  0  0
 14 15  1  0  0  0  0
 16 17  2  0  0  0  0
 17 21  1  0  0  0  0
 17  4  1  0  0  0  0
 18 19  1  0  0  0  0
 18 16  1  0  0  0  0
 21 20  1  0  0  0  0
 22 16  1  0  0  0  0
 23 24  3  0  0  0  0
 24 22  1  0  0  0  0
 25 26  1  0  0  0  0
 25 23  1  0  0  0  0
 26 27  1  0  0  0  0
 27 29  1  0  0  0  0
 29 28  2  6  0  0  0
 29 31  1  0  0  0  0
 29 30  1  0  0  0  0
 31 32  1  1  0  0  0
 31 33  1  0  0  0  0
 33 34  1  6  0  0  0
 33 36  1  0  0  0  0
 36 35  1  1  0  0  0
 36 39  1  0  0  0  0
 39 38  2  0  0  0  0
 39 37  1  0  0  0  0
 40  4  1  0  0  0  0
 41 40  1  0  0  0  0
 43 44  1  0  0  0  0
 44 46  1  0  0  0  0
 45 43  1  0  0  0  0
 46 42  1  6  0  0  0
 47 46  1  0  0  0  0
 47 41  1  6  0  0  0
 48 43  1  0  0  0  0
 48 49  1  0  0  0  0
 49 47  1  0  0  0  0
 50 48  2  0  0  0  0
M  END
>  <MODEL>
8

>  <REMARK>
 VINA RESULT:      -6.3      3.200      9.736
  Name = 
  18 active torsions:
  status: ('A' for Active; 'I' for Inactive)
    1  A    between atoms: O_1  and  C_10
    2  A    between atoms: O_1  and  C_34
    3  A    between atoms: O_2  and  C_13
    4  A    between atoms: C_3  and  C_42
    5  A    between atoms: C_5  and  C_8
    6  A    between atoms: C_5  and  C_27
    7  A    between atoms: C_8  and  P_36
    8  A    between atoms: C_9  and  C_37
    9  A    between atoms: C_10  and  C_32
   10  A    between atoms: C_13  and  C_35
   11  A    between atoms: N_18  and  P_36
   12  A    between atoms: N_18  and  C_43
   13  A    between atoms: C_26  and  C_32
   14  A    between atoms: C_26  and  N_41
   15  A    between atoms: C_27  and  C_40
   16  A    between atoms: C_30  and  C_35
   17  A    between atoms: C_37  and  C_43
   18  A    between atoms: C_42  and  C_49
                            x       y       z     vdW  Elec       q    Type
                         _______ _______ _______ _____ _____    ______ ____

>  <TORSDO>
F 18

$$$$
=
 OpenBabel10222419053D

 50 52  0  0  1  0  0  0  0  0999 V2000
  189.1080  176.7600  141.2370 C   0  0  0  0  0  0  0  0  0  0  0  0
  189.2570  175.6620  142.0640 O   0  0  0  0  0  0  0  0  0  0  0  0
  188.4440  177.8810  141.9470 C   0  0  0  0  0  2  0  0  0  0  0  0
  189.9980  176.8490  138.7870 C   0  0  0  0  0  0  0  0  0  0  0  0
  188.7400  175.9950  143.3040 C   0  0  0  0  0  3  0  0  0  0  0  0
  189.5400  176.8040  140.0090 C   0  0  0  0  0  0  0  0  0  0  0  0
  188.2750  177.2440  143.2880 C   0  0  0  0  0  0  0  0  0  0  0  0
  186.1290  177.8960  144.3990 C   0  0  0  0  0  1  0  0  0  0  0  0
  187.6480  177.9450  144.4600 C   0  0  1  0  0  3  0  0  0  0  0  0
  188.1740  177.4820  145.8250 C   0  0  0  0  0  3  0  0  0  0  0  0
  190.1360  177.2530  147.3760 C   0  0  0  0  0  2  0  0  0  0  0  0
  189.6670  177.7690  146.0200 C   0  0  0  0  0  2  0  0  0  0  0  0
  187.3500  178.0920  146.9620 C   0  0  0  0  0  2  0  0  0  0  0  0
  189.3160  177.8890  148.4950 C   0  0  0  0  0  2  0  0  0  0  0  0
  187.8350  177.5680  148.3090 C   0  0  0  0  0  2  0  0  0  0  0  0
  188.3020  176.8320  136.9820 C   0  0  0  0  0  0  0  0  0  0  0  0
  189.2620  176.1780  137.6850 C   0  0  0  0  0  0  0  0  0  0  0  0
  187.6090  176.2690  135.8960 O   0  0  0  0  0  0  0  0  0  0  0  0
  187.2060  176.9650  134.7230 C   0  0  0  0  0  1  0  0  0  0  0  0
  189.9290  174.3690  136.1870 O   0  0  0  0  0  1  0  0  0  0  0  0
  189.5390  174.7970  137.4110 N   0  0  0  0  0  2  0  0  0  0  0  0
  187.8940  178.2230  137.3580 C   0  0  0  0  0  2  0  0  0  0  0  0
  185.3460  178.2530  138.1590 C   0  0  0  0  0  0  0  0  0  0  0  0
  186.4980  178.2360  137.8030 C   0  0  0  0  0  0  0  0  0  0  0  0
  183.9440  178.2750  138.5830 C   0  0  0  0  0  2  0  0  0  0  0  0
  183.8350  178.7130  140.0320 C   0  0  0  0  0  2  0  0  0  0  0  0
  183.0190  177.7690  140.7800 N   0  0  0  0  0  2  0  0  0  0  0  0
  181.2880  179.7530  140.3180 O   0  0  0  0  0  0  0  0  0  0  0  0
  181.5630  178.6130  141.2710 P   0  0  2  0  0  0  0  0  0  0  0  0
  181.7610  179.2310  142.8350 O   0  0  0  0  0  1  0  0  0  0  0  0
  180.1520  177.4600  141.2420 C   0  0  1  0  0  3  0  0  0  0  0  0
  179.1190  177.9940  142.0140 O   0  0  0  0  0  1  0  0  0  0  0  0
  179.6690  177.2020  139.8050 C   0  0  1  0  0  3  0  0  0  0  0  0
  180.4130  177.9580  138.8980 O   0  0  0  0  0  1  0  0  0  0  0  0
  179.6600  174.7820  140.5740 C   0  0  0  0  0  1  0  0  0  0  0  0
  179.7220  175.7260  139.3850 C   0  0  2  0  0  3  0  0  0  0  0  0
  180.6370  175.2710  137.1080 O   0  0  0  0  0  0  0  0  0  0  0  0
  182.0370  175.2890  138.9200 O   0  0  0  0  0  1  0  0  0  0  0  0
  180.8660  175.4040  138.4700 C   0  0  0  0  0  0  0  0  0  0  0  0
  191.3710  177.3910  138.5580 C   0  0  0  0  0  2  0  0  0  0  0  0
  192.3280  176.5880  139.2000 O   0  0  0  0  0  0  0  0  0  0  0  0
  194.1170  176.3080  135.9470 C   0  0  0  0  0  1  0  0  0  0  0  0
  194.4580  173.8290  137.6900 N   0  0  0  0  0  0  0  0  0  0  0  0
  193.2090  174.2750  137.0800 C   0  0  0  0  0  2  0  0  0  0  0  0
  195.0480  172.5790  137.2430 C   0  0  0  0  0  1  0  0  0  0  0  0
  193.1460  175.8010  136.9980 C   0  0  1  0  0  3  0  0  0  0  0  0
  193.4560  176.4460  138.3610 C   0  0  2  0  0  3  0  0  0  0  0  0
  195.0510  174.5880  138.7530 C   0  0  0  0  0  0  0  0  0  0  0  0
  194.5780  175.8690  139.0410 O   0  0  0  0  0  0  0  0  0  0  0  0
  196.0260  174.1250  139.4030 O   0  0  0  0  0  0  0  0  0  0  0  0
  1  3  1  0  0  0  0
  1  2  1  0  0  0  0
  2  5  1  0  0  0  0
  3  7  1  0  0  0  0
  4  6  2  0  0  0  0
  6  1  2  0  0  0  0
  7  5  2  0  0  0  0
  7  9  1  0  0  0  0
  9  8  1  1  0  0  0
  9 10  1  0  0  0  0
 10 12  1  0  0  0  0
 10 13  1  0  0  0  0
 11 14  1  0  0  0  0
 12 11  1  0  0  0  0
 13 15  1  0  0  0  0
 15 14  1  0  0  0  0
 16 22  1  0  0  0  0
 16 17  2  0  0  0  0
 17  4  1  0  0  0  0
 18 16  1  0  0  0  0
 19 18  1  0  0  0  0
 20 21  1  0  0  0  0
 21 17  1  0  0  0  0
 22 24  1  0  0  0  0
 23 25  1  0  0  0  0
 24 23  3  0  0  0  0
 25 26  1  0  0  0  0
 26 27  1  0  0  0  0
 27 29  1  0  0  0  0
 29 28  2  6  0  0  0
 29 30  1  0  0  0  0
 31 29  1  0  0  0  0
 31 32  1  1  0  0  0
 33 34  1  6  0  0  0
 33 31  1  0  0  0  0
 36 33  1  0  0  0  0
 36 35  1  1  0  0  0
 37 39  2  0  0  0  0
 39 38  1  0  0  0  0
 39 36  1  0  0  0  0
 40  4  1  0  0  0  0
 40 41  1  0  0  0  0
 43 48  1  0  0  0  0
 44 43  1  0  0  0  0
 45 43  1  0  0  0  0
 46 42  1  6  0  0  0
 46 44  1  0  0  0  0
 46 47  1  0  0  0  0
 47 49  1  0  0  0  0
 47 41  1  1  0  0  0
 48 49  1  0  0  0  0
 48 50  2  0  0  0  0
M  END
>  <MODEL>
9

>  <REMARK>
 VINA RESULT:      -6.3      1.940      2.810
  Name = 
  18 active torsions:
  status: ('A' for Active; 'I' for Inactive)
    1  A    between atoms: O_1  and  C_10
    2  A    between atoms: O_1  and  C_34
    3  A    between atoms: O_2  and  C_13
    4  A    between atoms: C_3  and  C_42
    5  A    between atoms: C_5  and  C_8
    6  A    between atoms: C_5  and  C_27
    7  A    between atoms: C_8  and  P_36
    8  A    between atoms: C_9  and  C_37
    9  A    between atoms: C_10  and  C_32
   10  A    between atoms: C_13  and  C_35
   11  A    between atoms: N_18  and  P_36
   12  A    between atoms: N_18  and  C_43
   13  A    between atoms: C_26  and  C_32
   14  A    between atoms: C_26  and  N_41
   15  A    between atoms: C_27  and  C_40
   16  A    between atoms: C_30  and  C_35
   17  A    between atoms: C_37  and  C_43
   18  A    between atoms: C_42  and  C_49
                            x       y       z     vdW  Elec       q    Type
                         _______ _______ _______ _____ _____    ______ ____

>  <TORSDO>
F 18

$$$$
