=
 OpenBabel10222416203D

 46 50  0  0  1  0  0  0  0  0999 V2000
  183.4710  178.4950  138.4790 C   0  0  2  0  0  3  0  0  0  0  0  0
  179.2750  175.9220  141.1670 N   0  0  0  0  0  1  0  0  0  0  0  0
  181.0540  180.8360  139.2340 N   0  0  0  0  0  0  0  0  0  0  0  0
  180.6520  177.2630  139.6590 C   0  0  0  0  0  3  0  0  0  0  0  0
  182.0200  178.8920  138.1520 C   0  0  2  0  0  3  0  0  0  0  0  0
  179.6530  179.5670  140.8790 C   0  0  0  0  0  0  0  0  0  0  0  0
  179.2570  178.3320  141.2990 N   0  0  0  0  0  0  0  0  0  0  0  0
  179.7310  177.1910  140.7130 C   0  0  0  0  0  0  0  0  0  0  0  0
  180.5700  179.6550  139.8330 C   0  0  0  0  0  0  0  0  0  0  0  0
  181.9200  180.4400  138.1240 C   0  0  0  0  0  2  0  0  0  0  0  0
  181.0710  178.5300  139.2500 C   0  0  0  0  0  0  0  0  0  0  0  0
  179.1890  180.6030  141.4230 O   0  0  0  0  0  0  0  0  0  0  0  0
  186.2170  177.9320  137.6230 N   0  0  0  0  0  2  0  0  0  0  0  0
  185.1490  177.0470  137.2650 C   0  0  0  0  0  0  0  0  0  0  0  0
  185.3650  176.0530  136.5190 O   0  0  0  0  0  0  0  0  0  0  0  0
  183.8280  177.2820  137.7540 N   0  0  0  0  0  2  0  0  0  0  0  0
  188.0470  176.5770  137.2350 F   0  0  0  0  0  0  0  0  0  0  0  0
  187.5310  178.1450  135.7090 F   0  0  0  0  0  0  0  0  0  0  0  0
  187.5680  177.8620  137.0640 C   0  0  0  0  0  0  0  0  0  0  0  0
  189.0750  179.7360  137.1200 O   0  0  0  0  0  0  0  0  0  0  0  0
  188.4980  178.8200  137.7660 C   0  0  0  0  0  0  0  0  0  0  0  0
  188.7030  178.7470  139.1730 N   0  0  0  0  0  2  0  0  0  0  0  0
  188.2290  177.6450  139.9930 C   0  0  0  0  0  2  0  0  0  0  0  0
  189.3650  176.9470  140.5700 N   0  0  0  0  0  0  0  0  0  0  0  0
  188.6100  177.2570  142.9070 C   0  0  0  0  0  0  0  0  0  0  0  0
  189.7550  177.8900  145.1000 C   0  0  0  0  0  2  0  0  0  0  0  0
  188.4670  178.6350  142.8620 F   0  0  0  0  0  0  0  0  0  0  0  0
  190.5960  176.1330  142.3890 O   0  0  0  0  0  0  0  0  0  0  0  0
  189.5210  176.7900  141.8480 C   0  0  0  0  0  0  0  0  0  0  0  0
  189.3360  176.7620  144.1750 C   0  0  2  0  0  3  0  0  0  0  0  0
  190.5530  176.0280  143.7630 N   0  0  2  0  0  0  0  0  0  0  0  0
  187.3770  176.6410  142.7960 F   0  0  0  0  0  0  0  0  0  0  0  0
  191.6980  176.7640  144.2940 C   0  0  0  0  0  2  0  0  0  0  0  0
  191.2130  178.1020  144.8060 C   0  0  0  0  0  2  0  0  0  0  0  0
  183.6550  178.2650  139.9060 N   0  0  0  0  0  2  0  0  0  0  0  0
  184.3710  179.3640  140.4070 N   0  0  0  0  0  2  0  0  0  0  0  0
  185.2610  178.8730  141.4510 C   0  0  0  0  0  2  0  0  0  0  0  0
  184.5820  178.9060  142.7760 C   0  0  0  0  0  0  0  0  0  0  0  0
  183.1920  178.7880  142.8430 C   0  0  0  0  0  3  0  0  0  0  0  0
  183.2990  178.9140  145.2570 C   0  0  0  0  0  3  0  0  0  0  0  0
  180.8120  178.6300  144.1670 Cl  0  0  0  0  0  0  0  0  0  0  0  0
  182.5520  178.7910  144.0850 C   0  0  0  0  0  0  0  0  0  0  0  0
  184.6890  179.0410  145.1980 C   0  0  0  0  0  0  0  0  0  0  0  0
  185.3290  179.0320  143.9490 C   0  0  0  0  0  3  0  0  0  0  0  0
  185.4060  179.1810  146.3900 O   0  0  0  0  0  0  0  0  0  0  0  0
  186.4720  178.3140  146.7520 C   0  0  0  0  0  1  0  0  0  0  0  0
  1 16  1  6  0  0  0
  1 35  1  0  0  0  0
  3  9  2  0  0  0  0
  4  8  1  0  0  0  0
  5  1  1  1  0  0  0
  5 11  1  0  0  0  0
  6  7  1  0  0  0  0
  6 12  2  0  0  0  0
  8  2  1  0  0  0  0
  8  7  2  0  0  0  0
  9  6  1  0  0  0  0
 10  5  1  0  0  0  0
 10  3  1  0  0  0  0
 11  4  2  0  0  0  0
 11  9  1  0  0  0  0
 14 13  1  0  0  0  0
 14 16  1  0  0  0  0
 15 14  2  0  0  0  0
 18 19  1  0  0  0  0
 19 17  1  0  0  0  0
 19 13  1  0  0  0  0
 19 21  1  0  0  0  0
 20 21  2  0  0  0  0
 21 22  1  0  0  0  0
 22 23  1  0  0  0  0
 23 24  1  0  0  0  0
 24 29  2  0  0  0  0
 25 30  1  0  0  0  0
 27 25  1  0  0  0  0
 28 31  1  0  0  0  0
 29 28  1  0  0  0  0
 29 25  1  0  0  0  0
 30 26  1  1  0  0  0
 31 30  1  0  0  0  0
 31 33  1  1  0  0  0
 32 25  1  0  0  0  0
 33 34  1  0  0  0  0
 34 26  1  0  0  0  0
 35 36  1  0  0  0  0
 36 37  1  0  0  0  0
 37 38  1  0  0  0  0
 38 39  2  0  0  0  0
 38 44  1  0  0  0  0
 39 42  1  0  0  0  0
 42 41  1  0  0  0  0
 42 40  2  0  0  0  0
 43 40  1  0  0  0  0
 43 45  1  0  0  0  0
 44 43  2  0  0  0  0
 45 46  1  0  0  0  0
M  END
>  <MODEL>
1

>  <REMARK>
 VINA RESULT:      -9.2      0.000      0.000
  Name = 
  11 active torsions:
  status: ('A' for Active; 'I' for Inactive)
    1  A    between atoms: N_1  and  C_19
    2  A    between atoms: N_1  and  N_30
    3  A    between atoms: N_2  and  C_11
    4  A    between atoms: N_6  and  C_29
    5  A    between atoms: C_10  and  C_19
    6  A    between atoms: C_11  and  N_42
    7  A    between atoms: C_14  and  C_29
    8  A    between atoms: O_15  and  C_41
    9  A    between atoms: C_20  and  C_35
   10  A    between atoms: N_30  and  C_35
   11  A    between atoms: N_34  and  C_35
                            x       y       z     vdW  Elec       q    Type
                         _______ _______ _______ _____ _____    ______ ____

>  <TORSDO>
F 11

$$$$
=
 OpenBabel10222416203D

 46 50  0  0  1  0  0  0  0  0999 V2000
  189.1420  177.5490  140.4400 C   0  0  2  0  0  3  0  0  0  0  0  0
  190.2810  174.5040  135.8700 N   0  0  0  0  0  1  0  0  0  0  0  0
  192.5650  177.4250  140.0310 N   0  0  0  0  0  0  0  0  0  0  0  0
  190.1960  175.4670  138.1140 C   0  0  0  0  0  2  0  0  0  0  0  0
  190.3350  176.5760  140.4690 C   0  0  2  0  0  3  0  0  0  0  0  0
  192.7370  176.5480  137.6900 C   0  0  0  0  0  0  0  0  0  0  0  0
  192.1210  175.8180  136.7170 N   0  0  0  0  0  0  0  0  0  0  0  0
  190.8790  175.2770  136.9050 C   0  0  0  0  0  0  0  0  0  0  0  0
  192.0700  176.7470  138.8980 C   0  0  0  0  0  0  0  0  0  0  0  0
  191.5580  177.3040  141.0850 C   0  0  0  0  0  3  0  0  0  0  0  0
  190.8230  176.2340  139.0980 C   0  0  0  0  0  0  0  0  0  0  0  0
  193.8870  177.0200  137.4990 O   0  0  0  0  0  0  0  0  0  0  0  0
  187.5870  177.8210  137.9700 N   0  0  0  0  0  2  0  0  0  0  0  0
  188.6920  178.6960  138.2340 C   0  0  0  0  0  0  0  0  0  0  0  0
  189.0510  179.5480  137.3770 O   0  0  0  0  0  0  0  0  0  0  0  0
  189.3910  178.6120  139.4760 N   0  0  0  0  0  2  0  0  0  0  0  0
  186.6380  179.0100  136.2320 F   0  0  0  0  0  0  0  0  0  0  0  0
  187.7100  177.0910  135.7600 F   0  0  0  0  0  0  0  0  0  0  0  0
  186.8980  177.7290  136.6820 C   0  0  0  0  0  0  0  0  0  0  0  0
  185.3160  176.0340  136.0430 O   0  0  0  0  0  0  0  0  0  0  0  0
  185.5890  176.9910  136.8160 C   0  0  0  0  0  0  0  0  0  0  0  0
  184.6630  177.3180  137.8470 N   0  0  0  0  0  2  0  0  0  0  0  0
  184.7890  178.4960  138.6890 C   0  0  0  0  0  2  0  0  0  0  0  0
  183.5890  179.3060  138.5710 N   0  0  0  0  0  0  0  0  0  0  0  0
  182.6200  178.5220  140.7100 C   0  0  0  0  0  0  0  0  0  0  0  0
  180.2910  177.8080  141.4770 C   0  0  0  0  0  2  0  0  0  0  0  0
  182.6870  177.1630  140.4430 F   0  0  0  0  0  0  0  0  0  0  0  0
  181.5130  180.0670  139.3440 O   0  0  0  0  0  0  0  0  0  0  0  0
  182.6460  179.3030  139.4610 C   0  0  0  0  0  0  0  0  0  0  0  0
  181.2690  178.9580  141.3150 C   0  0  2  0  0  3  0  0  0  0  0  0
  180.6550  179.9620  140.4180 N   0  0  2  0  0  0  0  0  0  0  0  0
  183.6570  178.9020  141.5430 F   0  0  0  0  0  0  0  0  0  0  0  0
  179.4050  179.3890  139.9240 C   0  0  0  0  0  2  0  0  0  0  0  0
  179.3700  177.9230  140.2950 C   0  0  0  0  0  2  0  0  0  0  0  0
  188.9050  178.1430  141.7490 N   0  0  0  0  0  2  0  0  0  0  0  0
  187.7650  177.5180  142.2810 N   0  0  0  0  0  2  0  0  0  0  0  0
  188.1510  176.8860  143.5360 C   0  0  0  0  0  2  0  0  0  0  0  0
  187.4050  177.4860  144.6760 C   0  0  0  0  0  0  0  0  0  0  0  0
  187.9340  177.4080  145.9660 C   0  0  0  0  0  3  0  0  0  0  0  0
  186.0410  178.6530  146.8160 C   0  0  0  0  0  3  0  0  0  0  0  0
  187.9210  177.9060  148.6480 Cl  0  0  0  0  0  0  0  0  0  0  0  0
  187.2510  177.9940  147.0350 C   0  0  0  0  0  0  0  0  0  0  0  0
  185.5010  178.7280  145.5290 C   0  0  0  0  0  0  0  0  0  0  0  0
  186.1930  178.1440  144.4570 C   0  0  0  0  0  3  0  0  0  0  0  0
  184.2780  179.3800  145.3470 O   0  0  0  0  0  0  0  0  0  0  0  0
  183.1520  178.7500  144.7540 C   0  0  0  0  0  1  0  0  0  0  0  0
  1 16  1  6  0  0  0
  1 35  1  0  0  0  0
  2  8  1  0  0  0  0
  3 10  2  0  0  0  0
  4 11  1  0  0  0  0
  5  1  1  6  0  0  0
  5 10  1  0  0  0  0
  6  9  1  0  0  0  0
  7  8  2  0  0  0  0
  7  6  1  0  0  0  0
  8  4  1  0  0  0  0
  9 11  2  0  0  0  0
  9  3  1  0  0  0  0
 11  5  1  0  0  0  0
 12  6  2  0  0  0  0
 13 14  1  0  0  0  0
 14 16  1  0  0  0  0
 15 14  2  0  0  0  0
 17 19  1  0  0  0  0
 18 19  1  0  0  0  0
 19 21  1  0  0  0  0
 19 13  1  0  0  0  0
 20 21  2  0  0  0  0
 21 22  1  0  0  0  0
 22 23  1  0  0  0  0
 24 23  1  0  0  0  0
 24 29  2  0  0  0  0
 25 30  1  0  0  0  0
 25 32  1  0  0  0  0
 27 25  1  0  0  0  0
 28 29  1  0  0  0  0
 28 31  1  0  0  0  0
 29 25  1  0  0  0  0
 30 26  1  6  0  0  0
 31 33  1  6  0  0  0
 31 30  1  0  0  0  0
 33 34  1  0  0  0  0
 34 26  1  0  0  0  0
 35 36  1  0  0  0  0
 36 37  1  0  0  0  0
 37 38  1  0  0  0  0
 38 39  1  0  0  0  0
 39 42  2  0  0  0  0
 40 42  1  0  0  0  0
 42 41  1  0  0  0  0
 43 40  2  0  0  0  0
 44 38  2  0  0  0  0
 44 43  1  0  0  0  0
 45 43  1  0  0  0  0
 46 45  1  0  0  0  0
M  END
>  <MODEL>
2

>  <REMARK>
 VINA RESULT:      -9.0      2.805      8.081
  Name = 
  11 active torsions:
  status: ('A' for Active; 'I' for Inactive)
    1  A    between atoms: N_1  and  C_19
    2  A    between atoms: N_1  and  N_30
    3  A    between atoms: N_2  and  C_11
    4  A    between atoms: N_6  and  C_29
    5  A    between atoms: C_10  and  C_19
    6  A    between atoms: C_11  and  N_42
    7  A    between atoms: C_14  and  C_29
    8  A    between atoms: O_15  and  C_41
    9  A    between atoms: C_20  and  C_35
   10  A    between atoms: N_30  and  C_35
   11  A    between atoms: N_34  and  C_35
                            x       y       z     vdW  Elec       q    Type
                         _______ _______ _______ _____ _____    ______ ____

>  <TORSDO>
F 11

$$$$
=
 OpenBabel10222416203D

 46 50  0  0  1  0  0  0  0  0999 V2000
  188.8990  177.6760  141.8680 C   0  0  2  0  0  3  0  0  0  0  0  0
  188.0010  177.6260  147.4030 N   0  0  0  0  0  1  0  0  0  0  0  0
  191.8970  177.0620  143.4590 N   0  0  0  0  0  0  0  0  0  0  0  0
  188.8390  178.0250  145.1430 C   0  0  0  0  0  3  0  0  0  0  0  0
  189.9370  178.3290  142.7990 C   0  0  2  0  0  3  0  0  0  0  0  0
  191.1090  176.5270  145.7770 C   0  0  0  0  0  0  0  0  0  0  0  0
  190.1190  176.7100  146.6960 N   0  0  0  0  0  0  0  0  0  0  0  0
  189.0010  177.4420  146.4080 C   0  0  0  0  0  0  0  0  0  0  0  0
  190.9620  177.0990  144.5140 C   0  0  0  0  0  0  0  0  0  0  0  0
  191.3540  177.8700  142.3670 C   0  0  0  0  0  2  0  0  0  0  0  0
  189.8460  177.8150  144.2000 C   0  0  0  0  0  0  0  0  0  0  0  0
  192.1360  175.8630  146.0720 O   0  0  0  0  0  0  0  0  0  0  0  0
  189.9780  176.9260  139.2480 N   0  0  0  0  0  2  0  0  0  0  0  0
  189.3040  178.1780  139.4240 C   0  0  0  0  0  0  0  0  0  0  0  0
  189.2270  179.0020  138.4730 O   0  0  0  0  0  0  0  0  0  0  0  0
  188.7080  178.5000  140.6810 N   0  0  0  0  0  2  0  0  0  0  0  0
  190.3700  177.4050  137.0230 F   0  0  0  0  0  0  0  0  0  0  0  0
  192.0940  176.7200  138.2930 F   0  0  0  0  0  0  0  0  0  0  0  0
  190.7400  176.5610  138.0530 C   0  0  0  0  0  0  0  0  0  0  0  0
  191.3430  174.2530  137.7420 O   0  0  0  0  0  0  0  0  0  0  0  0
  190.4530  175.1390  137.6360 C   0  0  0  0  0  0  0  0  0  0  0  0
  189.1640  174.7570  137.1700 N   0  0  0  0  0  2  0  0  0  0  0  0
  188.1140  175.7090  136.8510 C   0  0  0  0  0  2  0  0  0  0  0  0
  186.8370  175.0200  136.7860 N   0  0  0  0  0  0  0  0  0  0  0  0
  185.4950  177.0850  137.0290 C   0  0  0  0  0  0  0  0  0  0  0  0
  183.4120  177.7330  138.3580 C   0  0  0  0  0  2  0  0  0  0  0  0
  186.0880  177.5420  138.1960 F   0  0  0  0  0  0  0  0  0  0  0  0
  184.4960  174.9800  136.8110 O   0  0  0  0  0  0  0  0  0  0  0  0
  185.6990  175.6350  136.8700 C   0  0  0  0  0  0  0  0  0  0  0  0
  183.9540  177.1760  137.0540 C   0  0  2  0  0  3  0  0  0  0  0  0
  183.4010  175.8170  136.8690 N   0  0  2  0  0  0  0  0  0  0  0  0
  185.9910  177.7700  135.9350 F   0  0  0  0  0  0  0  0  0  0  0  0
  182.6610  175.4850  138.0850 C   0  0  0  0  0  2  0  0  0  0  0  0
  182.9770  176.5240  139.1380 C   0  0  0  0  0  2  0  0  0  0  0  0
  187.6150  177.5030  142.5350 N   0  0  0  0  0  2  0  0  0  0  0  0
  186.8180  178.6040  142.1790 N   0  0  0  0  0  2  0  0  0  0  0  0
  185.5660  178.0890  141.6400 C   0  0  0  0  0  2  0  0  0  0  0  0
  184.4310  178.4270  142.5420 C   0  0  0  0  0  0  0  0  0  0  0  0
  183.1530  178.6040  142.0080 C   0  0  0  0  0  3  0  0  0  0  0  0
  182.2820  179.0120  144.2280 C   0  0  0  0  0  3  0  0  0  0  0  0
  180.4760  179.1030  142.1830 Cl  0  0  0  0  0  0  0  0  0  0  0  0
  182.0780  178.8950  142.8530 C   0  0  0  0  0  0  0  0  0  0  0  0
  183.5590  178.8450  144.7700 C   0  0  0  0  0  0  0  0  0  0  0  0
  184.6350  178.5470  143.9190 C   0  0  0  0  0  3  0  0  0  0  0  0
  183.7320  178.9870  146.1500 O   0  0  0  0  0  0  0  0  0  0  0  0
  184.7570  178.3150  146.8690 C   0  0  0  0  0  1  0  0  0  0  0  0
  1 16  1  6  0  0  0
  1 35  1  0  0  0  0
  3  9  2  0  0  0  0
  4  8  1  0  0  0  0
  5  1  1  6  0  0  0
  5 11  1  0  0  0  0
  6 12  2  0  0  0  0
  6  7  1  0  0  0  0
  8  7  2  0  0  0  0
  8  2  1  0  0  0  0
  9  6  1  0  0  0  0
 10  5  1  0  0  0  0
 10  3  1  0  0  0  0
 11  9  1  0  0  0  0
 11  4  2  0  0  0  0
 13 14  1  0  0  0  0
 14 16  1  0  0  0  0
 15 14  2  0  0  0  0
 17 19  1  0  0  0  0
 19 18  1  0  0  0  0
 19 13  1  0  0  0  0
 21 20  2  0  0  0  0
 21 19  1  0  0  0  0
 22 21  1  0  0  0  0
 23 22  1  0  0  0  0
 24 23  1  0  0  0  0
 24 29  2  0  0  0  0
 25 30  1  0  0  0  0
 25 27  1  0  0  0  0
 26 34  1  0  0  0  0
 28 31  1  0  0  0  0
 28 29  1  0  0  0  0
 29 25  1  0  0  0  0
 30 26  1  1  0  0  0
 31 30  1  0  0  0  0
 31 33  1  1  0  0  0
 32 25  1  0  0  0  0
 33 34  1  0  0  0  0
 36 35  1  0  0  0  0
 37 36  1  0  0  0  0
 37 38  1  0  0  0  0
 38 44  1  0  0  0  0
 39 38  2  0  0  0  0
 39 42  1  0  0  0  0
 40 43  1  0  0  0  0
 41 42  1  0  0  0  0
 42 40  2  0  0  0  0
 43 45  1  0  0  0  0
 44 43  2  0  0  0  0
 45 46  1  0  0  0  0
M  END
>  <MODEL>
3

>  <REMARK>
 VINA RESULT:      -9.0      2.875      7.406
  Name = 
  11 active torsions:
  status: ('A' for Active; 'I' for Inactive)
    1  A    between atoms: N_1  and  C_19
    2  A    between atoms: N_1  and  N_30
    3  A    between atoms: N_2  and  C_11
    4  A    between atoms: N_6  and  C_29
    5  A    between atoms: C_10  and  C_19
    6  A    between atoms: C_11  and  N_42
    7  A    between atoms: C_14  and  C_29
    8  A    between atoms: O_15  and  C_41
    9  A    between atoms: C_20  and  C_35
   10  A    between atoms: N_30  and  C_35
   11  A    between atoms: N_34  and  C_35
                            x       y       z     vdW  Elec       q    Type
                         _______ _______ _______ _____ _____    ______ ____

>  <TORSDO>
F 11

$$$$
=
 OpenBabel10222416203D

 46 50  0  0  1  0  0  0  0  0999 V2000
  184.7850  178.6140  138.5850 C   0  0  2  0  0  3  0  0  0  0  0  0
  181.1110  182.7790  137.8090 N   0  0  0  0  0  1  0  0  0  0  0  0
  181.6750  177.2390  138.0080 N   0  0  0  0  0  0  0  0  0  0  0  0
  182.2920  180.7680  138.5350 C   0  0  0  0  0  3  0  0  0  0  0  0
  183.3780  178.4920  139.1970 C   0  0  2  0  0  3  0  0  0  0  0  0
  180.4230  179.2300  137.1430 C   0  0  0  0  0  0  0  0  0  0  0  0
  180.3410  180.5910  137.1420 N   0  0  0  0  0  0  0  0  0  0  0  0
  181.2440  181.3630  137.8190 C   0  0  0  0  0  0  0  0  0  0  0  0
  181.4610  178.6230  137.8490 C   0  0  0  0  0  0  0  0  0  0  0  0
  182.8240  177.0750  138.8980 C   0  0  0  0  0  2  0  0  0  0  0  0
  182.3830  179.3750  138.5140 C   0  0  0  0  0  0  0  0  0  0  0  0
  179.5700  178.5410  136.5260 O   0  0  0  0  0  0  0  0  0  0  0  0
  187.4120  178.1370  137.3750 N   0  0  0  0  0  2  0  0  0  0  0  0
  186.2990  177.2950  137.0500 C   0  0  0  0  0  0  0  0  0  0  0  0
  186.4180  176.3830  136.1880 O   0  0  0  0  0  0  0  0  0  0  0  0
  185.0440  177.4820  137.7050 N   0  0  0  0  0  2  0  0  0  0  0  0
  188.4390  178.1540  135.3070 F   0  0  0  0  0  0  0  0  0  0  0  0
  189.4300  179.2430  137.0050 F   0  0  0  0  0  0  0  0  0  0  0  0
  188.6920  178.1220  136.6650 C   0  0  0  0  0  0  0  0  0  0  0  0
  189.5070  175.9170  136.1580 O   0  0  0  0  0  0  0  0  0  0  0  0
  189.4760  176.8730  136.9800 C   0  0  0  0  0  0  0  0  0  0  0  0
  190.2380  176.7650  138.1780 N   0  0  0  0  0  2  0  0  0  0  0  0
  190.1510  177.7210  139.2680 C   0  0  0  0  0  2  0  0  0  0  0  0
  191.0880  177.3510  140.3140 N   0  0  0  0  0  0  0  0  0  0  0  0
  189.3710  177.2940  142.0960 C   0  0  0  0  0  0  0  0  0  0  0  0
  189.2600  178.1050  144.5150 C   0  0  0  0  0  2  0  0  0  0  0  0
  188.8720  178.5730  141.8970 F   0  0  0  0  0  0  0  0  0  0  0  0
  191.6220  176.8260  142.5330 O   0  0  0  0  0  0  0  0  0  0  0  0
  190.7330  177.1720  141.5480 C   0  0  0  0  0  0  0  0  0  0  0  0
  189.6080  176.9590  143.5830 C   0  0  2  0  0  3  0  0  0  0  0  0
  191.0400  176.6340  143.7690 N   0  0  2  0  0  0  0  0  0  0  0  0
  188.5310  176.3550  141.5260 F   0  0  0  0  0  0  0  0  0  0  0  0
  191.5950  177.6390  144.6730 C   0  0  0  0  0  2  0  0  0  0  0  0
  190.5790  178.7480  144.8390 C   0  0  0  0  0  2  0  0  0  0  0  0
  185.8150  178.6580  139.6150 N   0  0  0  0  0  2  0  0  0  0  0  0
  185.2820  179.3840  140.6940 N   0  0  0  0  0  2  0  0  0  0  0  0
  185.9540  178.9330  141.9050 C   0  0  0  0  0  2  0  0  0  0  0  0
  185.0080  178.9240  143.0550 C   0  0  0  0  0  0  0  0  0  0  0  0
  183.6320  178.8910  142.8180 C   0  0  0  0  0  3  0  0  0  0  0  0
  183.2230  178.8550  145.2030 C   0  0  0  0  0  3  0  0  0  0  0  0
  181.0180  178.8000  143.5940 Cl  0  0  0  0  0  0  0  0  0  0  0  0
  182.7400  178.8550  143.8930 C   0  0  0  0  0  0  0  0  0  0  0  0
  184.5980  178.8970  145.4480 C   0  0  0  0  0  0  0  0  0  0  0  0
  185.4900  178.9270  144.3660 C   0  0  0  0  0  3  0  0  0  0  0  0
  185.0470  178.9140  146.7720 O   0  0  0  0  0  0  0  0  0  0  0  0
  186.3390  178.4610  147.1510 C   0  0  0  0  0  1  0  0  0  0  0  0
  1 16  1  6  0  0  0
  1 35  1  0  0  0  0
  2  8  1  0  0  0  0
  3 10  1  0  0  0  0
  5  1  1  6  0  0  0
  6  9  1  0  0  0  0
  7  6  1  0  0  0  0
  7  8  2  0  0  0  0
  8  4  1  0  0  0  0
  9  3  2  0  0  0  0
  9 11  1  0  0  0  0
 10  5  1  0  0  0  0
 11  4  2  0  0  0  0
 11  5  1  0  0  0  0
 12  6  2  0  0  0  0
 14 13  1  0  0  0  0
 14 16  1  0  0  0  0
 15 14  2  0  0  0  0
 17 19  1  0  0  0  0
 19 21  1  0  0  0  0
 19 18  1  0  0  0  0
 19 13  1  0  0  0  0
 20 21  2  0  0  0  0
 21 22  1  0  0  0  0
 22 23  1  0  0  0  0
 23 24  1  0  0  0  0
 24 29  2  0  0  0  0
 25 30  1  0  0  0  0
 26 34  1  0  0  0  0
 27 25  1  0  0  0  0
 28 31  1  0  0  0  0
 29 25  1  0  0  0  0
 29 28  1  0  0  0  0
 30 31  1  0  0  0  0
 30 26  1  1  0  0  0
 31 33  1  1  0  0  0
 32 25  1  0  0  0  0
 33 34  1  0  0  0  0
 35 36  1  0  0  0  0
 36 37  1  0  0  0  0
 37 38  1  0  0  0  0
 38 44  1  0  0  0  0
 39 38  2  0  0  0  0
 39 42  1  0  0  0  0
 40 43  1  0  0  0  0
 41 42  1  0  0  0  0
 42 40  2  0  0  0  0
 43 45  1  0  0  0  0
 44 43  2  0  0  0  0
 45 46  1  0  0  0  0
M  END
>  <MODEL>
4

>  <REMARK>
 VINA RESULT:      -8.9      1.931      2.511
  Name = 
  11 active torsions:
  status: ('A' for Active; 'I' for Inactive)
    1  A    between atoms: N_1  and  C_19
    2  A    between atoms: N_1  and  N_30
    3  A    between atoms: N_2  and  C_11
    4  A    between atoms: N_6  and  C_29
    5  A    between atoms: C_10  and  C_19
    6  A    between atoms: C_11  and  N_42
    7  A    between atoms: C_14  and  C_29
    8  A    between atoms: O_15  and  C_41
    9  A    between atoms: C_20  and  C_35
   10  A    between atoms: N_30  and  C_35
   11  A    between atoms: N_34  and  C_35
                            x       y       z     vdW  Elec       q    Type
                         _______ _______ _______ _____ _____    ______ ____

>  <TORSDO>
F 11

$$$$
=
 OpenBabel10222416203D

 46 50  0  0  1  0  0  0  0  0999 V2000
  183.8640  178.2980  138.5130 C   0  0  2  0  0  3  0  0  0  0  0  0
  181.2450  183.2030  137.7860 N   0  0  0  0  0  1  0  0  0  0  0  0
  180.7850  177.6950  137.0810 N   0  0  0  0  0  0  0  0  0  0  0  0
  181.8600  180.9090  138.3560 C   0  0  0  0  0  3  0  0  0  0  0  0
  182.3530  178.3870  138.7960 C   0  0  2  0  0  3  0  0  0  0  0  0
  180.1300  180.0040  136.3590 C   0  0  0  0  0  0  0  0  0  0  0  0
  180.2860  181.3380  136.5900 N   0  0  0  0  0  0  0  0  0  0  0  0
  181.1260  181.8030  137.5640 C   0  0  0  0  0  0  0  0  0  0  0  0
  180.8540  179.1020  137.1370 C   0  0  0  0  0  0  0  0  0  0  0  0
  181.6490  177.1720  138.1390 C   0  0  0  0  0  2  0  0  0  0  0  0
  181.7120  179.5450  138.1000 C   0  0  0  0  0  0  0  0  0  0  0  0
  179.3380  179.6000  135.4680 O   0  0  0  0  0  0  0  0  0  0  0  0
  186.5750  177.6250  137.6250 N   0  0  0  0  0  2  0  0  0  0  0  0
  185.4450  176.9060  137.1170 C   0  0  0  0  0  0  0  0  0  0  0  0
  185.5950  176.0220  136.2300 O   0  0  0  0  0  0  0  0  0  0  0  0
  184.1360  177.1830  137.6150 N   0  0  0  0  0  2  0  0  0  0  0  0
  188.4710  176.3130  137.4900 F   0  0  0  0  0  0  0  0  0  0  0  0
  187.8870  177.5420  135.7000 F   0  0  0  0  0  0  0  0  0  0  0  0
  187.9310  177.5190  137.0840 C   0  0  0  0  0  0  0  0  0  0  0  0
  189.4270  179.3780  136.7810 O   0  0  0  0  0  0  0  0  0  0  0  0
  188.8090  178.6350  137.5920 C   0  0  0  0  0  0  0  0  0  0  0  0
  188.9170  178.9100  138.9840 N   0  0  0  0  0  2  0  0  0  0  0  0
  188.3900  178.0320  140.0150 C   0  0  0  0  0  2  0  0  0  0  0  0
  189.4490  177.1670  140.5030 N   0  0  0  0  0  0  0  0  0  0  0  0
  188.6750  177.2270  142.8530 C   0  0  0  0  0  0  0  0  0  0  0  0
  189.8250  177.4580  145.1220 C   0  0  0  0  0  2  0  0  0  0  0  0
  188.6520  178.6060  142.9940 F   0  0  0  0  0  0  0  0  0  0  0  0
  190.5680  176.0130  142.2060 O   0  0  0  0  0  0  0  0  0  0  0  0
  189.5650  176.8270  141.7490 C   0  0  0  0  0  0  0  0  0  0  0  0
  189.3300  176.5050  144.0500 C   0  0  2  0  0  3  0  0  0  0  0  0
  190.4880  175.7290  143.5530 N   0  0  2  0  0  0  0  0  0  0  0  0
  187.3960  176.7410  142.6490 F   0  0  0  0  0  0  0  0  0  0  0  0
  191.6810  176.2850  144.1880 C   0  0  0  0  0  2  0  0  0  0  0  0
  191.3020  177.5800  144.8720 C   0  0  0  0  0  2  0  0  0  0  0  0
  184.6290  178.1150  139.7400 N   0  0  0  0  0  2  0  0  0  0  0  0
  184.7370  179.3780  140.3450 N   0  0  0  0  0  2  0  0  0  0  0  0
  185.5650  179.2300  141.5350 C   0  0  0  0  0  2  0  0  0  0  0  0
  184.7160  179.0570  142.7450 C   0  0  0  0  0  0  0  0  0  0  0  0
  185.3170  178.9200  143.9980 C   0  0  0  0  0  3  0  0  0  0  0  0
  183.1330  178.7810  145.0300 C   0  0  0  0  0  3  0  0  0  0  0  0
  185.2790  178.6270  146.7100 Cl  0  0  0  0  0  0  0  0  0  0  0  0
  184.5240  178.7840  145.1400 C   0  0  0  0  0  0  0  0  0  0  0  0
  182.5240  178.9090  143.7790 C   0  0  0  0  0  0  0  0  0  0  0  0
  183.3230  179.0510  142.6350 C   0  0  0  0  0  3  0  0  0  0  0  0
  181.1280  178.8840  143.7020 O   0  0  0  0  0  0  0  0  0  0  0  0
  180.4140  179.3160  142.5520 C   0  0  0  0  0  1  0  0  0  0  0  0
  1 16  1  6  0  0  0
  1 35  1  0  0  0  0
  3  9  2  0  0  0  0
  3 10  1  0  0  0  0
  5  1  1  6  0  0  0
  6  7  1  0  0  0  0
  6  9  1  0  0  0  0
  7  8  2  0  0  0  0
  8  2  1  0  0  0  0
  8  4  1  0  0  0  0
  9 11  1  0  0  0  0
 10  5  1  0  0  0  0
 11  4  2  0  0  0  0
 11  5  1  0  0  0  0
 12  6  2  0  0  0  0
 14 16  1  0  0  0  0
 14 13  1  0  0  0  0
 15 14  2  0  0  0  0
 18 19  1  0  0  0  0
 19 17  1  0  0  0  0
 19 21  1  0  0  0  0
 19 13  1  0  0  0  0
 20 21  2  0  0  0  0
 21 22  1  0  0  0  0
 22 23  1  0  0  0  0
 23 24  1  0  0  0  0
 24 29  2  0  0  0  0
 25 27  1  0  0  0  0
 25 30  1  0  0  0  0
 28 31  1  0  0  0  0
 29 28  1  0  0  0  0
 29 25  1  0  0  0  0
 30 26  1  1  0  0  0
 31 30  1  0  0  0  0
 31 33  1  1  0  0  0
 32 25  1  0  0  0  0
 33 34  1  0  0  0  0
 34 26  1  0  0  0  0
 35 36  1  0  0  0  0
 36 37  1  0  0  0  0
 37 38  1  0  0  0  0
 38 39  1  0  0  0  0
 39 42  2  0  0  0  0
 40 42  1  0  0  0  0
 42 41  1  0  0  0  0
 43 40  2  0  0  0  0
 44 38  2  0  0  0  0
 44 43  1  0  0  0  0
 45 43  1  0  0  0  0
 46 45  1  0  0  0  0
M  END
>  <MODEL>
5

>  <REMARK>
 VINA RESULT:      -8.7      1.798      2.874
  Name = 
  11 active torsions:
  status: ('A' for Active; 'I' for Inactive)
    1  A    between atoms: N_1  and  C_19
    2  A    between atoms: N_1  and  N_30
    3  A    between atoms: N_2  and  C_11
    4  A    between atoms: N_6  and  C_29
    5  A    between atoms: C_10  and  C_19
    6  A    between atoms: C_11  and  N_42
    7  A    between atoms: C_14  and  C_29
    8  A    between atoms: O_15  and  C_41
    9  A    between atoms: C_20  and  C_35
   10  A    between atoms: N_30  and  C_35
   11  A    between atoms: N_34  and  C_35
                            x       y       z     vdW  Elec       q    Type
                         _______ _______ _______ _____ _____    ______ ____

>  <TORSDO>
F 11

$$$$
=
 OpenBabel10222416203D

 46 50  0  0  1  0  0  0  0  0999 V2000
  184.4640  178.6460  138.3990 C   0  0  2  0  0  3  0  0  0  0  0  0
  181.1360  174.1550  137.9500 N   0  0  0  0  0  1  0  0  0  0  0  0
  181.4770  179.3320  139.9830 N   0  0  0  0  0  0  0  0  0  0  0  0
  182.0940  176.4020  137.9460 C   0  0  0  0  0  2  0  0  0  0  0  0
  182.9630  178.8530  138.1260 C   0  0  2  0  0  3  0  0  0  0  0  0
  180.4750  177.0400  140.1300 C   0  0  0  0  0  0  0  0  0  0  0  0
  180.4380  175.7940  139.5790 N   0  0  0  0  0  0  0  0  0  0  0  0
  181.2200  175.4610  138.5080 C   0  0  0  0  0  0  0  0  0  0  0  0
  181.3400  177.9870  139.5850 C   0  0  0  0  0  0  0  0  0  0  0  0
  182.4310  179.9630  139.0710 C   0  0  0  0  0  3  0  0  0  0  0  0
  182.1430  177.6690  138.5300 C   0  0  0  0  0  0  0  0  0  0  0  0
  179.7330  177.3270  141.1050 O   0  0  0  0  0  0  0  0  0  0  0  0
  187.3360  178.4240  137.8570 N   0  0  0  0  0  2  0  0  0  0  0  0
  186.3960  177.6130  137.1400 C   0  0  0  0  0  0  0  0  0  0  0  0
  186.7860  176.8450  136.2200 O   0  0  0  0  0  0  0  0  0  0  0  0
  185.0070  177.6670  137.4680 N   0  0  0  0  0  2  0  0  0  0  0  0
  188.8430  179.1070  136.2460 F   0  0  0  0  0  0  0  0  0  0  0  0
  189.3850  179.3860  138.4100 F   0  0  0  0  0  0  0  0  0  0  0  0
  188.7510  178.5490  137.5070 C   0  0  0  0  0  0  0  0  0  0  0  0
  189.6190  176.6000  136.3980 O   0  0  0  0  0  0  0  0  0  0  0  0
  189.4290  177.2020  137.4890 C   0  0  0  0  0  0  0  0  0  0  0  0
  189.9170  176.6080  138.6870 N   0  0  0  0  0  2  0  0  0  0  0  0
  189.6160  177.1210  140.0130 C   0  0  0  0  0  2  0  0  0  0  0  0
  190.5030  176.5040  140.9840 N   0  0  0  0  0  0  0  0  0  0  0  0
  189.1000  177.1100  142.9320 C   0  0  0  0  0  0  0  0  0  0  0  0
  189.5660  178.0190  145.2720 C   0  0  0  0  0  2  0  0  0  0  0  0
  189.0290  178.4710  142.6780 F   0  0  0  0  0  0  0  0  0  0  0  0
  191.1070  175.9310  143.1730 O   0  0  0  0  0  0  0  0  0  0  0  0
  190.2660  176.5120  142.2590 C   0  0  0  0  0  0  0  0  0  0  0  0
  189.3980  176.7820  144.4100 C   0  0  2  0  0  3  0  0  0  0  0  0
  190.6550  176.0030  144.4740 N   0  0  2  0  0  0  0  0  0  0  0  0
  187.9330  176.4840  142.5330 F   0  0  0  0  0  0  0  0  0  0  0  0
  191.6180  176.8020  145.2280 C   0  0  0  0  0  2  0  0  0  0  0  0
  191.0530  178.1940  145.4040 C   0  0  0  0  0  2  0  0  0  0  0  0
  184.7010  178.1870  139.7620 N   0  0  0  0  0  2  0  0  0  0  0  0
  185.1150  179.3060  140.5030 N   0  0  0  0  0  2  0  0  0  0  0  0
  185.8060  178.8200  141.6900 C   0  0  0  0  0  2  0  0  0  0  0  0
  184.9140  178.8930  142.8800 C   0  0  0  0  0  0  0  0  0  0  0  0
  183.5300  178.9620  142.7040 C   0  0  0  0  0  3  0  0  0  0  0  0
  183.2260  178.9780  145.1050 C   0  0  0  0  0  3  0  0  0  0  0  0
  180.9540  179.0750  143.5950 Cl  0  0  0  0  0  0  0  0  0  0  0  0
  182.6870  179.0030  143.8180 C   0  0  0  0  0  0  0  0  0  0  0  0
  184.6100  178.9180  145.2890 C   0  0  0  0  0  0  0  0  0  0  0  0
  185.4530  178.8710  144.1690 C   0  0  0  0  0  3  0  0  0  0  0  0
  185.1180  178.9130  146.5920 O   0  0  0  0  0  0  0  0  0  0  0  0
  186.3740  178.3380  146.9250 C   0  0  0  0  0  1  0  0  0  0  0  0
  1 16  1  6  0  0  0
  1 35  1  0  0  0  0
  2  8  1  0  0  0  0
  4  8  1  0  0  0  0
  4 11  1  0  0  0  0
  5  1  1  1  0  0  0
  5 11  1  0  0  0  0
  5 10  1  0  0  0  0
  6 12  2  0  0  0  0
  7  6  1  0  0  0  0
  8  7  2  0  0  0  0
  9  3  1  0  0  0  0
  9  6  1  0  0  0  0
 10  3  2  0  0  0  0
 11  9  2  0  0  0  0
 14 16  1  0  0  0  0
 14 13  1  0  0  0  0
 15 14  2  0  0  0  0
 17 19  1  0  0  0  0
 19 13  1  0  0  0  0
 19 18  1  0  0  0  0
 20 21  2  0  0  0  0
 21 19  1  0  0  0  0
 21 22  1  0  0  0  0
 22 23  1  0  0  0  0
 23 24  1  0  0  0  0
 24 29  2  0  0  0  0
 25 30  1  0  0  0  0
 26 34  1  0  0  0  0
 27 25  1  0  0  0  0
 28 31  1  0  0  0  0
 29 25  1  0  0  0  0
 29 28  1  0  0  0  0
 30 31  1  0  0  0  0
 30 26  1  1  0  0  0
 31 33  1  1  0  0  0
 32 25  1  0  0  0  0
 33 34  1  0  0  0  0
 35 36  1  0  0  0  0
 36 37  1  0  0  0  0
 37 38  1  0  0  0  0
 38 44  1  0  0  0  0
 39 38  2  0  0  0  0
 39 42  1  0  0  0  0
 40 43  1  0  0  0  0
 41 42  1  0  0  0  0
 42 40  2  0  0  0  0
 43 45  1  0  0  0  0
 44 43  2  0  0  0  0
 45 46  1  0  0  0  0
M  END
>  <MODEL>
6

>  <REMARK>
 VINA RESULT:      -8.5      1.493      1.726
  Name = 
  11 active torsions:
  status: ('A' for Active; 'I' for Inactive)
    1  A    between atoms: N_1  and  C_19
    2  A    between atoms: N_1  and  N_30
    3  A    between atoms: N_2  and  C_11
    4  A    between atoms: N_6  and  C_29
    5  A    between atoms: C_10  and  C_19
    6  A    between atoms: C_11  and  N_42
    7  A    between atoms: C_14  and  C_29
    8  A    between atoms: O_15  and  C_41
    9  A    between atoms: C_20  and  C_35
   10  A    between atoms: N_30  and  C_35
   11  A    between atoms: N_34  and  C_35
                            x       y       z     vdW  Elec       q    Type
                         _______ _______ _______ _____ _____    ______ ____

>  <TORSDO>
F 11

$$$$
=
 OpenBabel10222416203D

 46 50  0  0  1  0  0  0  0  0999 V2000
  189.2910  177.4720  140.1900 C   0  0  2  0  0  3  0  0  0  0  0  0
  190.4620  173.9460  135.9890 N   0  0  0  0  0  1  0  0  0  0  0  0
  192.6920  177.5380  139.6180 N   0  0  0  0  0  0  0  0  0  0  0  0
  190.4010  175.1850  138.0930 C   0  0  0  0  0  2  0  0  0  0  0  0
  190.5550  176.5980  140.2780 C   0  0  2  0  0  3  0  0  0  0  0  0
  192.8290  176.3780  137.4010 C   0  0  0  0  0  0  0  0  0  0  0  0
  192.2300  175.4860  136.5630 N   0  0  0  0  0  0  0  0  0  0  0  0
  191.0430  174.8880  136.8830 C   0  0  0  0  0  0  0  0  0  0  0  0
  192.2020  176.6860  138.6080 C   0  0  0  0  0  0  0  0  0  0  0  0
  191.7440  177.4850  140.7320 C   0  0  0  0  0  3  0  0  0  0  0  0
  191.0080  176.1160  138.9370 C   0  0  0  0  0  0  0  0  0  0  0  0
  193.9300  176.9030  137.0920 O   0  0  0  0  0  0  0  0  0  0  0  0
  187.8740  177.2440  137.6330 N   0  0  0  0  0  2  0  0  0  0  0  0
  188.8170  178.3010  137.8500 C   0  0  0  0  0  0  0  0  0  0  0  0
  189.1000  179.1060  136.9210 O   0  0  0  0  0  0  0  0  0  0  0  0
  189.4400  178.4550  139.1250 N   0  0  0  0  0  2  0  0  0  0  0  0
  186.4780  177.9600  135.9390 F   0  0  0  0  0  0  0  0  0  0  0  0
  188.2950  176.7540  135.3940 F   0  0  0  0  0  0  0  0  0  0  0  0
  187.2900  176.9140  136.3330 C   0  0  0  0  0  0  0  0  0  0  0  0
  186.9610  174.5390  136.1340 O   0  0  0  0  0  0  0  0  0  0  0  0
  186.4550  175.6600  136.4130 C   0  0  0  0  0  0  0  0  0  0  0  0
  185.1030  175.7050  136.8550 N   0  0  0  0  0  2  0  0  0  0  0  0
  184.3650  176.9420  137.0440 C   0  0  0  0  0  2  0  0  0  0  0  0
  183.5370  176.8360  138.2330 N   0  0  0  0  0  0  0  0  0  0  0  0
  184.5230  178.8230  139.3300 C   0  0  0  0  0  0  0  0  0  0  0  0
  185.2900  179.3750  141.7030 C   0  0  0  0  0  2  0  0  0  0  0  0
  185.8490  178.4250  139.2510 F   0  0  0  0  0  0  0  0  0  0  0  0
  182.8390  177.5570  140.3490 O   0  0  0  0  0  0  0  0  0  0  0  0
  183.6210  177.6630  139.2270 C   0  0  0  0  0  0  0  0  0  0  0  0
  184.1390  179.3880  140.7140 C   0  0  2  0  0  3  0  0  0  0  0  0
  183.0450  178.5620  141.2710 N   0  0  2  0  0  0  0  0  0  0  0  0
  184.2380  179.7510  138.3440 F   0  0  0  0  0  0  0  0  0  0  0  0
  183.5540  177.9390  142.4900 C   0  0  0  0  0  2  0  0  0  0  0  0
  185.0500  178.1580  142.5510 C   0  0  0  0  0  2  0  0  0  0  0  0
  189.0320  178.1670  141.4440 N   0  0  0  0  0  2  0  0  0  0  0  0
  188.9380  177.1850  142.4430 N   0  0  0  0  0  2  0  0  0  0  0  0
  188.1310  177.7300  143.5270 C   0  0  0  0  0  2  0  0  0  0  0  0
  188.7910  177.4950  144.8400 C   0  0  0  0  0  0  0  0  0  0  0  0
  188.1450  177.8780  146.0170 C   0  0  0  0  0  3  0  0  0  0  0  0
  189.9970  177.0150  147.3140 C   0  0  0  0  0  3  0  0  0  0  0  0
  187.9300  178.1030  148.7280 Cl  0  0  0  0  0  0  0  0  0  0  0  0
  188.7480  177.6350  147.2540 C   0  0  0  0  0  0  0  0  0  0  0  0
  190.6540  176.6370  146.1400 C   0  0  0  0  0  0  0  0  0  0  0  0
  190.0420  176.8760  144.9000 C   0  0  0  0  0  3  0  0  0  0  0  0
  191.9120  176.0330  146.2350 O   0  0  0  0  0  0  0  0  0  0  0  0
  192.4780  175.6280  147.4730 C   0  0  0  0  0  1  0  0  0  0  0  0
  1 16  1  6  0  0  0
  1 35  1  0  0  0  0
  2  8  1  0  0  0  0
  3 10  2  0  0  0  0
  4 11  1  0  0  0  0
  5  1  1  6  0  0  0
  5 10  1  0  0  0  0
  6  9  1  0  0  0  0
  7  8  2  0  0  0  0
  7  6  1  0  0  0  0
  8  4  1  0  0  0  0
  9 11  2  0  0  0  0
  9  3  1  0  0  0  0
 11  5  1  0  0  0  0
 12  6  2  0  0  0  0
 13 14  1  0  0  0  0
 14 16  1  0  0  0  0
 15 14  2  0  0  0  0
 17 19  1  0  0  0  0
 18 19  1  0  0  0  0
 19 21  1  0  0  0  0
 19 13  1  0  0  0  0
 20 21  2  0  0  0  0
 21 22  1  0  0  0  0
 22 23  1  0  0  0  0
 23 24  1  0  0  0  0
 24 29  2  0  0  0  0
 25 30  1  0  0  0  0
 26 34  1  0  0  0  0
 27 25  1  0  0  0  0
 28 31  1  0  0  0  0
 29 25  1  0  0  0  0
 29 28  1  0  0  0  0
 30 31  1  0  0  0  0
 30 26  1  1  0  0  0
 31 33  1  1  0  0  0
 32 25  1  0  0  0  0
 33 34  1  0  0  0  0
 35 36  1  0  0  0  0
 36 37  1  0  0  0  0
 37 38  1  0  0  0  0
 38 44  2  0  0  0  0
 38 39  1  0  0  0  0
 39 42  2  0  0  0  0
 42 40  1  0  0  0  0
 42 41  1  0  0  0  0
 43 45  1  0  0  0  0
 43 40  2  0  0  0  0
 44 43  1  0  0  0  0
 45 46  1  0  0  0  0
M  END
>  <MODEL>
7

>  <REMARK>
 VINA RESULT:      -8.3      3.025      7.862
  Name = 
  11 active torsions:
  status: ('A' for Active; 'I' for Inactive)
    1  A    between atoms: N_1  and  C_19
    2  A    between atoms: N_1  and  N_30
    3  A    between atoms: N_2  and  C_11
    4  A    between atoms: N_6  and  C_29
    5  A    between atoms: C_10  and  C_19
    6  A    between atoms: C_11  and  N_42
    7  A    between atoms: C_14  and  C_29
    8  A    between atoms: O_15  and  C_41
    9  A    between atoms: C_20  and  C_35
   10  A    between atoms: N_30  and  C_35
   11  A    between atoms: N_34  and  C_35
                            x       y       z     vdW  Elec       q    Type
                         _______ _______ _______ _____ _____    ______ ____

>  <TORSDO>
F 11

$$$$
=
 OpenBabel10222416203D

 46 50  0  0  1  0  0  0  0  0999 V2000
  183.2350  178.2850  138.8140 C   0  0  2  0  0  3  0  0  0  0  0  0
  178.9780  175.6330  141.3230 N   0  0  0  0  0  1  0  0  0  0  0  0
  180.9680  180.6420  139.9100 N   0  0  0  0  0  0  0  0  0  0  0  0
  180.3860  177.0680  139.9350 C   0  0  0  0  0  2  0  0  0  0  0  0
  181.8000  178.7900  138.5830 C   0  0  2  0  0  3  0  0  0  0  0  0
  179.5450  179.2630  141.4430 C   0  0  0  0  0  0  0  0  0  0  0  0
  179.0930  178.0090  141.7310 N   0  0  0  0  0  0  0  0  0  0  0  0
  179.4900  176.9210  141.0030 C   0  0  0  0  0  0  0  0  0  0  0  0
  180.4380  179.4250  140.3860 C   0  0  0  0  0  0  0  0  0  0  0  0
  181.7830  180.3330  138.7350 C   0  0  0  0  0  3  0  0  0  0  0  0
  180.8610  178.3510  139.6610 C   0  0  0  0  0  0  0  0  0  0  0  0
  179.1520  180.2510  142.1170 O   0  0  0  0  0  0  0  0  0  0  0  0
  185.9520  177.5250  138.0170 N   0  0  0  0  0  2  0  0  0  0  0  0
  184.8180  176.8200  137.4970 C   0  0  0  0  0  0  0  0  0  0  0  0
  184.9700  175.9090  136.6380 O   0  0  0  0  0  0  0  0  0  0  0  0
  183.5040  177.1400  137.9540 N   0  0  0  0  0  2  0  0  0  0  0  0
  187.9230  176.3350  138.1980 F   0  0  0  0  0  0  0  0  0  0  0  0
  187.2910  177.0610  136.1670 F   0  0  0  0  0  0  0  0  0  0  0  0
  187.3180  177.3740  137.5150 C   0  0  0  0  0  0  0  0  0  0  0  0
  188.1910  179.5100  136.8380 O   0  0  0  0  0  0  0  0  0  0  0  0
  188.1230  178.6300  137.7380 C   0  0  0  0  0  0  0  0  0  0  0  0
  188.7750  178.8750  138.9800 N   0  0  0  0  0  2  0  0  0  0  0  0
  188.9060  177.8730  140.0240 C   0  0  0  0  0  2  0  0  0  0  0  0
  188.9150  178.5240  141.3220 N   0  0  0  0  0  0  0  0  0  0  0  0
  190.9600  177.3660  142.1000 C   0  0  0  0  0  0  0  0  0  0  0  0
  191.6800  176.2600  144.2870 C   0  0  0  0  0  2  0  0  0  0  0  0
  190.5240  176.0700  141.8680 F   0  0  0  0  0  0  0  0  0  0  0  0
  189.8210  178.9030  143.4480 O   0  0  0  0  0  0  0  0  0  0  0  0
  189.8180  178.2880  142.2230 C   0  0  0  0  0  0  0  0  0  0  0  0
  191.6430  177.5410  143.4730 C   0  0  2  0  0  3  0  0  0  0  0  0
  190.8910  178.5550  144.2450 N   0  0  2  0  0  0  0  0  0  0  0  0
  191.8120  177.7760  141.0910 F   0  0  0  0  0  0  0  0  0  0  0  0
  190.3560  177.8840  145.4280 C   0  0  0  0  0  2  0  0  0  0  0  0
  190.5420  176.3930  145.2590 C   0  0  0  0  0  2  0  0  0  0  0  0
  183.4470  177.8930  140.2020 N   0  0  0  0  0  2  0  0  0  0  0  0
  184.2860  178.8620  140.7760 N   0  0  0  0  0  2  0  0  0  0  0  0
  183.7290  179.2190  142.0740 C   0  0  0  0  0  2  0  0  0  0  0  0
  184.5850  178.6940  143.1730 C   0  0  0  0  0  0  0  0  0  0  0  0
  185.6150  177.7990  142.8790 C   0  0  0  0  0  3  0  0  0  0  0  0
  186.2300  177.7410  145.2190 C   0  0  0  0  0  3  0  0  0  0  0  0
  187.7380  176.2140  143.5320 Cl  0  0  0  0  0  0  0  0  0  0  0  0
  186.4390  177.3240  143.9040 C   0  0  0  0  0  0  0  0  0  0  0  0
  185.1960  178.6300  145.5220 C   0  0  0  0  0  0  0  0  0  0  0  0
  184.3750  179.1090  144.4900 C   0  0  0  0  0  3  0  0  0  0  0  0
  185.0030  179.0130  146.8530 O   0  0  0  0  0  0  0  0  0  0  0  0
  186.0620  179.4700  147.6820 C   0  0  0  0  0  1  0  0  0  0  0  0
  1 16  1  6  0  0  0
  1 35  1  0  0  0  0
  3  9  1  0  0  0  0
  4  8  1  0  0  0  0
  5 10  1  0  0  0  0
  5  1  1  1  0  0  0
  5 11  1  0  0  0  0
  6  7  1  0  0  0  0
  6 12  2  0  0  0  0
  8  2  1  0  0  0  0
  8  7  2  0  0  0  0
  9  6  1  0  0  0  0
 10  3  2  0  0  0  0
 11  4  1  0  0  0  0
 11  9  2  0  0  0  0
 14 16  1  0  0  0  0
 14 13  1  0  0  0  0
 15 14  2  0  0  0  0
 18 19  1  0  0  0  0
 19 21  1  0  0  0  0
 19 13  1  0  0  0  0
 19 17  1  0  0  0  0
 20 21  2  0  0  0  0
 21 22  1  0  0  0  0
 22 23  1  0  0  0  0
 23 24  1  0  0  0  0
 24 29  2  0  0  0  0
 25 29  1  0  0  0  0
 25 30  1  0  0  0  0
 26 34  1  0  0  0  0
 27 25  1  0  0  0  0
 28 31  1  0  0  0  0
 29 28  1  0  0  0  0
 30 31  1  0  0  0  0
 30 26  1  1  0  0  0
 31 33  1  1  0  0  0
 32 25  1  0  0  0  0
 34 33  1  0  0  0  0
 35 36  1  0  0  0  0
 36 37  1  0  0  0  0
 37 38  1  0  0  0  0
 38 44  1  0  0  0  0
 39 38  2  0  0  0  0
 39 42  1  0  0  0  0
 40 43  1  0  0  0  0
 41 42  1  0  0  0  0
 42 40  2  0  0  0  0
 43 45  1  0  0  0  0
 44 43  2  0  0  0  0
 45 46  1  0  0  0  0
M  END
>  <MODEL>
8

>  <REMARK>
 VINA RESULT:      -8.2      1.704      2.038
  Name = 
  11 active torsions:
  status: ('A' for Active; 'I' for Inactive)
    1  A    between atoms: N_1  and  C_19
    2  A    between atoms: N_1  and  N_30
    3  A    between atoms: N_2  and  C_11
    4  A    between atoms: N_6  and  C_29
    5  A    between atoms: C_10  and  C_19
    6  A    between atoms: C_11  and  N_42
    7  A    between atoms: C_14  and  C_29
    8  A    between atoms: O_15  and  C_41
    9  A    between atoms: C_20  and  C_35
   10  A    between atoms: N_30  and  C_35
   11  A    between atoms: N_34  and  C_35
                            x       y       z     vdW  Elec       q    Type
                         _______ _______ _______ _____ _____    ______ ____

>  <TORSDO>
F 11

$$$$
=
 OpenBabel10222416203D

 46 50  0  0  1  0  0  0  0  0999 V2000
  188.3180  177.4810  140.5300 C   0  0  2  0  0  3  0  0  0  0  0  0
  193.8670  176.7580  140.1570 N   0  0  0  0  0  1  0  0  0  0  0  0
  189.1790  177.3080  137.1950 N   0  0  0  0  0  0  0  0  0  0  0  0
  191.5550  177.5130  139.9200 C   0  0  0  0  0  3  0  0  0  0  0  0
  189.0970  178.2320  139.4360 C   0  0  2  0  0  3  0  0  0  0  0  0
  191.5190  176.4240  137.3480 C   0  0  0  0  0  0  0  0  0  0  0  0
  192.6350  176.3300  138.1260 N   0  0  0  0  0  0  0  0  0  0  0  0
  192.6750  176.8600  139.3870 C   0  0  0  0  0  0  0  0  0  0  0  0
  190.3960  177.0690  137.8650 C   0  0  0  0  0  0  0  0  0  0  0  0
  188.3330  178.0930  138.0930 C   0  0  0  0  0  2  0  0  0  0  0  0
  190.4090  177.5860  139.1260 C   0  0  0  0  0  0  0  0  0  0  0  0
  191.5120  175.9440  136.1850 O   0  0  0  0  0  0  0  0  0  0  0  0
  185.6240  178.2410  139.6580 N   0  0  0  0  0  2  0  0  0  0  0  0
  186.2130  178.8500  140.8140 C   0  0  0  0  0  0  0  0  0  0  0  0
  185.6090  179.7690  141.4300 O   0  0  0  0  0  0  0  0  0  0  0  0
  187.4900  178.4150  141.2810 N   0  0  0  0  0  2  0  0  0  0  0  0
  184.3930  180.0890  139.0220 F   0  0  0  0  0  0  0  0  0  0  0  0
  184.3530  178.2680  137.7050 F   0  0  0  0  0  0  0  0  0  0  0  0
  184.3940  178.7070  139.0170 C   0  0  0  0  0  0  0  0  0  0  0  0
  183.2910  177.3810  140.6940 O   0  0  0  0  0  0  0  0  0  0  0  0
  183.1750  178.2220  139.7620 C   0  0  0  0  0  0  0  0  0  0  0  0
  181.8810  178.7400  139.4690 N   0  0  0  0  0  2  0  0  0  0  0  0
  181.5990  179.5820  138.3190 C   0  0  0  0  0  2  0  0  0  0  0  0
  181.2380  180.9140  138.7710 N   0  0  0  0  0  0  0  0  0  0  0  0
  180.1320  181.5410  136.6470 C   0  0  0  0  0  0  0  0  0  0  0  0
  180.1100  183.6280  135.1760 C   0  0  0  0  0  2  0  0  0  0  0  0
  181.1950  181.2510  135.8050 F   0  0  0  0  0  0  0  0  0  0  0  0
  180.2650  183.0210  138.4550 O   0  0  0  0  0  0  0  0  0  0  0  0
  180.6000  181.7630  138.0260 C   0  0  0  0  0  0  0  0  0  0  0  0
  179.4570  182.8920  136.3320 C   0  0  2  0  0  3  0  0  0  0  0  0
  179.5460  183.7520  137.5330 N   0  0  2  0  0  0  0  0  0  0  0  0
  179.1950  180.5240  136.6080 F   0  0  0  0  0  0  0  0  0  0  0  0
  180.3540  184.9140  137.1710 C   0  0  0  0  0  2  0  0  0  0  0  0
  180.9970  184.6520  135.8280 C   0  0  0  0  0  2  0  0  0  0  0  0
  189.2150  176.7970  141.4520 N   0  0  0  0  0  2  0  0  0  0  0  0
  189.0350  177.3890  142.7130 N   0  0  0  0  0  2  0  0  0  0  0  0
  188.2890  176.4510  143.5410 C   0  0  0  0  0  2  0  0  0  0  0  0
  187.7440  177.1350  144.7460 C   0  0  0  0  0  0  0  0  0  0  0  0
  188.5030  177.1800  145.9170 C   0  0  0  0  0  3  0  0  0  0  0  0
  186.7570  178.4590  146.9980 C   0  0  0  0  0  3  0  0  0  0  0  0
  188.9670  177.9120  148.5040 Cl  0  0  0  0  0  0  0  0  0  0  0  0
  188.0090  177.8450  147.0430 C   0  0  0  0  0  0  0  0  0  0  0  0
  185.9870  178.4110  145.8330 C   0  0  0  0  0  0  0  0  0  0  0  0
  186.4900  177.7480  144.7030 C   0  0  0  0  0  3  0  0  0  0  0  0
  184.7300  179.0220  145.8280 O   0  0  0  0  0  0  0  0  0  0  0  0
  183.8570  178.9740  144.7080 C   0  0  0  0  0  1  0  0  0  0  0  0
  1 16  1  1  0  0  0
  1 35  1  0  0  0  0
  3  9  2  0  0  0  0
  3 10  1  0  0  0  0
  5  1  1  1  0  0  0
  6  9  1  0  0  0  0
  6  7  1  0  0  0  0
  7  8  2  0  0  0  0
  8  4  1  0  0  0  0
  8  2  1  0  0  0  0
  9 11  1  0  0  0  0
 10  5  1  0  0  0  0
 11  5  1  0  0  0  0
 11  4  2  0  0  0  0
 12  6  2  0  0  0  0
 13 14  1  0  0  0  0
 14 16  1  0  0  0  0
 14 15  2  0  0  0  0
 18 19  1  0  0  0  0
 19 17  1  0  0  0  0
 19 13  1  0  0  0  0
 19 21  1  0  0  0  0
 21 20  2  0  0  0  0
 22 21  1  0  0  0  0
 23 24  1  0  0  0  0
 23 22  1  0  0  0  0
 25 29  1  0  0  0  0
 26 34  1  0  0  0  0
 27 25  1  0  0  0  0
 29 28  1  0  0  0  0
 29 24  2  0  0  0  0
 30 26  1  6  0  0  0
 30 25  1  0  0  0  0
 30 31  1  0  0  0  0
 31 33  1  6  0  0  0
 31 28  1  0  0  0  0
 32 25  1  0  0  0  0
 34 33  1  0  0  0  0
 35 36  1  0  0  0  0
 36 37  1  0  0  0  0
 37 38  1  0  0  0  0
 38 39  1  0  0  0  0
 39 42  2  0  0  0  0
 40 42  1  0  0  0  0
 42 41  1  0  0  0  0
 43 40  2  0  0  0  0
 44 38  2  0  0  0  0
 44 43  1  0  0  0  0
 45 43  1  0  0  0  0
 46 45  1  0  0  0  0
M  END
>  <MODEL>
9

>  <REMARK>
 VINA RESULT:      -8.2      3.556      9.256
  Name = 
  11 active torsions:
  status: ('A' for Active; 'I' for Inactive)
    1  A    between atoms: N_1  and  C_19
    2  A    between atoms: N_1  and  N_30
    3  A    between atoms: N_2  and  C_11
    4  A    between atoms: N_6  and  C_29
    5  A    between atoms: C_10  and  C_19
    6  A    between atoms: C_11  and  N_42
    7  A    between atoms: C_14  and  C_29
    8  A    between atoms: O_15  and  C_41
    9  A    between atoms: C_20  and  C_35
   10  A    between atoms: N_30  and  C_35
   11  A    between atoms: N_34  and  C_35
                            x       y       z     vdW  Elec       q    Type
                         _______ _______ _______ _____ _____    ______ ____

>  <TORSDO>
F 11

$$$$
