=
 OpenBabel10222416053D

 61 67  0  0  1  0  0  0  0  0999 V2000
  182.5630  174.4560  137.5350 C   0  0  1  0  0  3  0  0  0  0  0  0
  178.9320  172.8910  137.2000 S   0  0  0  0  0  0  0  0  0  0  0  0
  183.6410  173.2390  135.6710 N   0  0  0  0  0  0  0  0  0  0  0  0
  181.2230  173.4900  135.6780 C   0  0  1  0  0  3  0  0  0  0  0  0
  180.2620  174.0920  136.7260 C   0  0  2  0  0  3  0  0  0  0  0  0
  185.7710  178.1020  138.0640 C   0  0  0  0  0  2  0  0  0  0  0  0
  181.1060  171.1040  134.6410 C   0  0  0  0  0  3  0  0  0  0  0  0
  185.5940  174.6540  136.1930 C   0  0  0  0  0  3  0  0  0  0  0  0
  182.5750  173.7190  136.2430 C   0  0  0  0  0  0  0  0  0  0  0  0
  183.3730  176.2780  138.5420 C   0  0  0  0  0  2  0  0  0  0  0  0
  183.3080  177.7980  138.5100 C   0  0  2  0  0  3  0  0  0  0  0  0
  182.9510  175.7790  137.3060 O   0  0  0  0  0  0  0  0  0  0  0  0
  186.9100  177.3100  135.9740 C   0  0  0  0  0  2  0  0  0  0  0  0
  188.8850  176.1970  136.9850 C   0  0  0  0  0  3  0  0  0  0  0  0
  187.0850  172.3600  136.7820 C   0  0  0  0  0  3  0  0  0  0  0  0
  180.1570  170.1960  134.8070 O   0  0  0  0  0  0  0  0  0  0  0  0
  186.9510  174.7820  136.5480 C   0  0  0  0  0  0  0  0  0  0  0  0
  179.3220  170.5170  135.7580 N   0  0  0  0  0  0  0  0  0  0  0  0
  179.8010  171.6510  136.2870 C   0  0  0  0  0  0  0  0  0  0  0  0
  185.7430  172.2430  136.4190 C   0  0  0  0  0  0  0  0  0  0  0  0
  181.0980  174.4220  137.9600 C   0  0  0  0  0  2  0  0  0  0  0  0
  187.6840  173.6170  136.8450 C   0  0  0  0  0  3  0  0  0  0  0  0
  184.3610  178.3610  137.5600 C   0  0  0  0  0  2  0  0  0  0  0  0
  184.9850  173.3890  136.1400 C   0  0  0  0  0  0  0  0  0  0  0  0
  187.6210  176.1090  136.5490 C   0  0  0  0  0  0  0  0  0  0  0  0
  186.7760  178.4450  136.9840 C   0  0  0  0  0  2  0  0  0  0  0  0
  180.8880  172.0510  135.6170 C   0  0  0  0  0  0  0  0  0  0  0  0
  185.1650  170.9820  136.3420 O   0  0  0  0  0  1  0  0  0  0  0  0
  189.7050  177.4450  136.9660 C   0  0  0  0  0  2  0  0  0  0  0  0
  191.0220  177.2240  137.6970 C   0  0  0  0  0  2  0  0  0  0  0  0
  190.9710  177.7760  139.1170 C   0  0  0  0  0  2  0  0  0  0  0  0
  190.9970  177.8430  142.3730 C   0  0  1  0  0  3  0  0  0  0  0  0
  192.3840  177.2370  141.3990 S   0  0  0  0  0  0  0  0  0  0  0  0
  191.2050  176.6790  140.1500 C   0  0  1  0  0  3  0  0  0  0  0  0
  189.7970  176.9560  142.0760 C   0  0  2  0  0  3  0  0  0  0  0  0
  189.9450  176.2890  140.7800 N   0  0  0  0  0  2  0  0  0  0  0  0
  188.4850  177.7420  142.1230 C   0  0  0  0  0  0  0  0  0  0  0  0
  188.1940  178.2590  140.8740 F   0  0  0  0  0  0  0  0  0  0  0  0
  188.6110  178.7900  143.0180 F   0  0  0  0  0  0  0  0  0  0  0  0
  187.4470  176.9190  142.5300 F   0  0  0  0  0  0  0  0  0  0  0  0
  191.6020  178.8890  144.4370 O   0  0  0  0  0  0  0  0  0  0  0  0
  191.3470  176.5700  144.5200 N   0  0  0  0  0  2  0  0  0  0  0  0
  191.6810  176.4760  145.9310 C   0  0  0  0  0  1  0  0  0  0  0  0
  191.3340  177.8170  143.8280 C   0  0  0  0  0  0  0  0  0  0  0  0
  183.4740  178.3650  139.8430 N   0  0  0  0  0  2  0  0  0  0  0  0
  181.6790  178.8200  144.3690 O   0  0  0  0  0  1  0  0  0  0  0  0
  181.1560  179.1090  140.2240 C   0  0  0  0  0  3  0  0  0  0  0  0
  180.1100  179.4280  141.0900 C   0  0  0  0  0  3  0  0  0  0  0  0
  181.5170  178.8980  142.9900 C   0  0  0  0  0  0  0  0  0  0  0  0
  182.5710  178.5550  142.1210 C   0  0  0  0  0  0  0  0  0  0  0  0
  180.2910  179.3250  142.4710 C   0  0  0  0  0  3  0  0  0  0  0  0
  182.3910  178.6730  140.7290 C   0  0  0  0  0  0  0  0  0  0  0  0
  183.9110  178.1440  142.6620 C   0  0  0  0  0  2  0  0  0  0  0  0
  185.5610  179.7760  142.0850 O   0  0  0  0  0  0  0  0  0  0  0  0
  184.7820  179.3230  142.9670 C   0  0  0  0  0  0  0  0  0  0  0  0
  184.7130  179.9470  144.2110 O   0  0  0  0  0  0  0  0  0  0  0  0
  184.5590  179.2270  145.3290 O   0  0  0  0  0  0  0  0  0  0  0  0
  185.7720  179.3420  146.0080 C   0  0  0  0  0  2  0  0  0  0  0  0
  186.1410  177.9990  146.6070 C   0  0  0  0  0  2  0  0  0  0  0  0
  188.3990  177.2220  146.7260 O   0  0  0  0  0  1  0  0  0  0  0  0
  187.3180  177.3960  145.8620 C   0  0  0  0  0  2  0  0  0  0  0  0
  1 21  1  6  0  0  0
  3 24  1  0  0  0  0
  3  9  2  0  0  0  0
  4 27  1  1  0  0  0
  4  9  1  0  0  0  0
  4  5  1  0  0  0  0
  5  2  1  0  0  0  0
  5 21  1  1  0  0  0
  7 16  1  0  0  0  0
  7 27  2  0  0  0  0
  8 17  1  0  0  0  0
  9  1  1  0  0  0  0
 11 10  1  0  0  0  0
 11 45  1  1  0  0  0
 12  1  1  0  0  0  0
 12 10  1  0  0  0  0
 13 25  1  0  0  0  0
 13 26  1  0  0  0  0
 15 22  1  0  0  0  0
 16 18  1  0  0  0  0
 17 25  1  0  0  0  0
 17 22  2  0  0  0  0
 18 19  2  0  0  0  0
 19  2  1  0  0  0  0
 20 15  2  0  0  0  0
 23  6  1  0  0  0  0
 23 11  1  0  0  0  0
 24  8  2  0  0  0  0
 24 20  1  0  0  0  0
 25 14  2  0  0  0  0
 26  6  1  0  0  0  0
 27 19  1  0  0  0  0
 28 20  1  0  0  0  0
 29 14  1  0  0  0  0
 29 30  1  0  0  0  0
 30 31  1  0  0  0  0
 32 44  1  1  0  0  0
 33 32  1  0  0  0  0
 34 31  1  6  0  0  0
 34 36  1  0  0  0  0
 34 33  1  0  0  0  0
 35 37  1  6  0  0  0
 35 32  1  0  0  0  0
 36 35  1  0  0  0  0
 37 40  1  0  0  0  0
 37 39  1  0  0  0  0
 38 37  1  0  0  0  0
 42 43  1  0  0  0  0
 44 41  2  0  0  0  0
 44 42  1  0  0  0  0
 45 52  1  0  0  0  0
 47 52  2  0  0  0  0
 47 48  1  0  0  0  0
 48 51  2  0  0  0  0
 49 46  1  0  0  0  0
 50 53  1  0  0  0  0
 50 49  2  0  0  0  0
 51 49  1  0  0  0  0
 52 50  1  0  0  0  0
 53 55  1  0  0  0  0
 54 55  2  0  0  0  0
 55 56  1  0  0  0  0
 56 57  1  0  0  0  0
 57 58  1  0  0  0  0
 58 59  1  0  0  0  0
 61 59  1  0  0  0  0
 61 60  1  0  0  0  0
M  END
>  <MODEL>
1

>  <REMARK>
 VINA RESULT:      -7.3      0.000      0.000
  Name = 
  15 active torsions:
  status: ('A' for Active; 'I' for Inactive)
    1  A    between atoms: C_1  and  C_8
    2  A    between atoms: C_1  and  C_25
    3  A    between atoms: O_2  and  C_58
    4  A    between atoms: O_2  and  O_59
    5  A    between atoms: C_8  and  C_26
    6  A    between atoms: C_9  and  C_57
    7  A    between atoms: C_11  and  C_49
    8  A    between atoms: C_11  and  C_58
    9  A    between atoms: C_20  and  C_29
   10  A    between atoms: C_21  and  N_35
   11  A    between atoms: C_23  and  C_37
   12  A    between atoms: C_23  and  O_59
   13  A    between atoms: C_25  and  C_28
   14  A    between atoms: N_35  and  C_55
   15  A    between atoms: C_37  and  C_47
                            x       y       z     vdW  Elec       q    Type
                         _______ _______ _______ _____ _____    ______ ____

>  <TORSDO>
F 15

$$$$
=
 OpenBabel10222416053D

 61 67  0  0  1  0  0  0  0  0999 V2000
  183.8070  178.1730  139.6560 C   0  0  1  0  0  3  0  0  0  0  0  0
  180.3330  180.0140  140.1970 S   0  0  0  0  0  0  0  0  0  0  0  0
  183.7720  178.0800  137.1840 N   0  0  0  0  0  0  0  0  0  0  0  0
  182.4190  179.7470  138.3250 C   0  0  1  0  0  3  0  0  0  0  0  0
  182.1500  179.9910  139.8250 C   0  0  2  0  0  3  0  0  0  0  0  0
  188.5750  177.4230  140.4110 C   0  0  0  0  0  2  0  0  0  0  0  0
  180.6400  179.3860  136.4580 C   0  0  0  0  0  3  0  0  0  0  0  0
  186.0400  177.1370  137.4260 C   0  0  0  0  0  3  0  0  0  0  0  0
  183.3950  178.6300  138.3020 C   0  0  0  0  0  0  0  0  0  0  0  0
  185.6020  177.8510  140.9450 C   0  0  0  0  0  2  0  0  0  0  0  0
  186.7230  178.5980  141.6550 C   0  0  2  0  0  3  0  0  0  0  0  0
  185.0880  178.6610  139.9280 O   0  0  0  0  0  0  0  0  0  0  0  0
  188.9270  177.6220  137.9350 C   0  0  0  0  0  2  0  0  0  0  0  0
  189.2290  175.2230  137.3740 C   0  0  0  0  0  3  0  0  0  0  0  0
  185.1780  174.7770  136.1920 C   0  0  0  0  0  3  0  0  0  0  0  0
  179.3240  179.4870  136.5650 O   0  0  0  0  0  0  0  0  0  0  0  0
  186.9640  176.1010  137.1910 C   0  0  0  0  0  0  0  0  0  0  0  0
  178.9310  179.5820  137.8060 N   0  0  0  0  0  0  0  0  0  0  0  0
  180.0440  179.4590  138.5430 C   0  0  0  0  0  0  0  0  0  0  0  0
  184.2730  175.8140  136.4200 C   0  0  0  0  0  0  0  0  0  0  0  0
  182.7990  178.8400  140.5880 C   0  0  0  0  0  2  0  0  0  0  0  0
  186.5120  174.9200  136.5730 C   0  0  0  0  0  3  0  0  0  0  0  0
  187.9280  178.7610  140.7330 C   0  0  0  0  0  2  0  0  0  0  0  0
  184.6930  176.9920  137.0530 C   0  0  0  0  0  0  0  0  0  0  0  0
  188.4030  176.2670  137.5260 C   0  0  0  0  0  0  0  0  0  0  0  0
  189.5960  177.5970  139.3060 C   0  0  0  0  0  2  0  0  0  0  0  0
  181.1150  179.3520  137.7490 C   0  0  0  0  0  0  0  0  0  0  0  0
  182.9510  175.6650  136.0170 O   0  0  0  0  0  1  0  0  0  0  0  0
  190.7050  175.2690  137.5950 C   0  0  0  0  0  2  0  0  0  0  0  0
  191.4440  175.0320  136.2850 C   0  0  0  0  0  2  0  0  0  0  0  0
  192.5860  176.0260  136.1010 C   0  0  0  0  0  2  0  0  0  0  0  0
  195.5460  174.6760  136.2440 C   0  0  1  0  0  3  0  0  0  0  0  0
  195.2100  176.1960  135.3410 S   0  0  0  0  0  0  0  0  0  0  0  0
  193.5460  175.5760  135.0070 C   0  0  1  0  0  3  0  0  0  0  0  0
  194.7130  173.5680  135.6160 C   0  0  2  0  0  3  0  0  0  0  0  0
  193.5590  174.1200  134.9010 N   0  0  0  0  0  2  0  0  0  0  0  0
  194.2540  172.5440  136.6570 C   0  0  0  0  0  0  0  0  0  0  0  0
  194.6870  172.9190  137.9160 F   0  0  0  0  0  0  0  0  0  0  0  0
  194.7950  171.3070  136.3530 F   0  0  0  0  0  0  0  0  0  0  0  0
  192.8720  172.4480  136.6580 F   0  0  0  0  0  0  0  0  0  0  0  0
  197.7370  174.8770  135.3070 O   0  0  0  0  0  0  0  0  0  0  0  0
  197.5520  173.4380  137.1350 N   0  0  0  0  0  2  0  0  0  0  0  0
  198.9570  173.0680  137.1220 C   0  0  0  0  0  1  0  0  0  0  0  0
  197.0030  174.3490  136.1860 C   0  0  0  0  0  0  0  0  0  0  0  0
  187.1150  177.9240  142.8860 N   0  0  0  0  0  2  0  0  0  0  0  0
  187.0920  177.4580  147.7540 O   0  0  0  0  0  1  0  0  0  0  0  0
  185.2640  178.8240  144.2420 C   0  0  0  0  0  3  0  0  0  0  0  0
  184.6610  179.0420  145.4810 C   0  0  0  0  0  3  0  0  0  0  0  0
  186.4910  177.8930  146.5780 C   0  0  0  0  0  0  0  0  0  0  0  0
  187.0960  177.6520  145.3290 C   0  0  0  0  0  0  0  0  0  0  0  0
  185.2750  178.5790  146.6470 C   0  0  0  0  0  3  0  0  0  0  0  0
  186.4820  178.1310  144.1550 C   0  0  0  0  0  0  0  0  0  0  0  0
  188.4270  176.9620  145.2400 C   0  0  0  0  0  2  0  0  0  0  0  0
  190.1070  177.7080  146.7690 O   0  0  0  0  0  0  0  0  0  0  0  0
  189.5550  177.8580  145.6460 C   0  0  0  0  0  0  0  0  0  0  0  0
  190.0250  178.8390  144.7740 O   0  0  0  0  0  0  0  0  0  0  0  0
  191.2700  178.7800  144.2860 O   0  0  0  0  0  0  0  0  0  0  0  0
  191.1260  178.3530  142.9660 C   0  0  0  0  0  2  0  0  0  0  0  0
  191.9210  177.0780  142.7610 C   0  0  0  0  0  2  0  0  0  0  0  0
  190.4630  175.1830  142.7250 O   0  0  0  0  0  1  0  0  0  0  0  0
  191.3000  175.9390  143.5470 C   0  0  0  0  0  2  0  0  0  0  0  0
  1 12  1  0  0  0  0
  1 21  1  1  0  0  0
  3  9  2  0  0  0  0
  4 27  1  6  0  0  0
  4  5  1  0  0  0  0
  5  2  1  0  0  0  0
  5 21  1  1  0  0  0
  6 23  1  0  0  0  0
  7 16  1  0  0  0  0
  7 27  2  0  0  0  0
  9  4  1  0  0  0  0
  9  1  1  0  0  0  0
 10 11  1  0  0  0  0
 11 45  1  1  0  0  0
 12 10  1  0  0  0  0
 13 26  1  0  0  0  0
 14 25  2  0  0  0  0
 14 29  1  0  0  0  0
 15 20  2  0  0  0  0
 15 22  1  0  0  0  0
 16 18  1  0  0  0  0
 17  8  1  0  0  0  0
 17 25  1  0  0  0  0
 18 19  2  0  0  0  0
 19  2  1  0  0  0  0
 20 24  1  0  0  0  0
 22 17  2  0  0  0  0
 23 11  1  0  0  0  0
 24  3  1  0  0  0  0
 24  8  2  0  0  0  0
 25 13  1  0  0  0  0
 26  6  1  0  0  0  0
 27 19  1  0  0  0  0
 28 20  1  0  0  0  0
 30 29  1  0  0  0  0
 31 30  1  0  0  0  0
 32 44  1  6  0  0  0
 33 32  1  0  0  0  0
 34 33  1  0  0  0  0
 34 31  1  1  0  0  0
 35 32  1  0  0  0  0
 35 37  1  1  0  0  0
 36 34  1  0  0  0  0
 36 35  1  0  0  0  0
 37 40  1  0  0  0  0
 37 38  1  0  0  0  0
 39 37  1  0  0  0  0
 41 44  2  0  0  0  0
 43 42  1  0  0  0  0
 44 42  1  0  0  0  0
 45 52  1  0  0  0  0
 47 48  1  0  0  0  0
 48 51  2  0  0  0  0
 49 51  1  0  0  0  0
 49 46  1  0  0  0  0
 50 49  2  0  0  0  0
 52 47  2  0  0  0  0
 52 50  1  0  0  0  0
 53 50  1  0  0  0  0
 53 55  1  0  0  0  0
 55 54  2  0  0  0  0
 56 55  1  0  0  0  0
 57 56  1  0  0  0  0
 58 57  1  0  0  0  0
 59 58  1  0  0  0  0
 59 61  1  0  0  0  0
 60 61  1  0  0  0  0
M  END
>  <MODEL>
2

>  <REMARK>
 VINA RESULT:      -7.2      4.230      6.542
  Name = 
  15 active torsions:
  status: ('A' for Active; 'I' for Inactive)
    1  A    between atoms: C_1  and  C_8
    2  A    between atoms: C_1  and  C_25
    3  A    between atoms: O_2  and  C_58
    4  A    between atoms: O_2  and  O_59
    5  A    between atoms: C_8  and  C_26
    6  A    between atoms: C_9  and  C_57
    7  A    between atoms: C_11  and  C_49
    8  A    between atoms: C_11  and  C_58
    9  A    between atoms: C_20  and  C_29
   10  A    between atoms: C_21  and  N_35
   11  A    between atoms: C_23  and  C_37
   12  A    between atoms: C_23  and  O_59
   13  A    between atoms: C_25  and  C_28
   14  A    between atoms: N_35  and  C_55
   15  A    between atoms: C_37  and  C_47
                            x       y       z     vdW  Elec       q    Type
                         _______ _______ _______ _____ _____    ______ ____

>  <TORSDO>
F 15

$$$$
=
 OpenBabel10222416053D

 61 67  0  0  1  0  0  0  0  0999 V2000
  191.4610  173.8810  136.5780 C   0  0  1  0  0  3  0  0  0  0  0  0
  194.2850  171.9220  134.5940 S   0  0  0  0  0  0  0  0  0  0  0  0
  192.6160  176.0600  136.7680 N   0  0  0  0  0  0  0  0  0  0  0  0
  193.2810  174.5190  135.0100 C   0  0  1  0  0  3  0  0  0  0  0  0
  192.8350  173.0740  134.6970 C   0  0  2  0  0  3  0  0  0  0  0  0
  186.8810  175.3300  137.4660 C   0  0  0  0  0  2  0  0  0  0  0  0
  195.7180  175.3560  135.3810 C   0  0  0  0  0  3  0  0  0  0  0  0
  190.4990  176.8240  137.7810 C   0  0  0  0  0  3  0  0  0  0  0  0
  192.4370  174.9230  136.1600 C   0  0  0  0  0  0  0  0  0  0  0  0
  189.2810  173.5300  136.9120 C   0  0  0  0  0  2  0  0  0  0  0  0
  187.9500  173.4450  136.1770 C   0  0  2  0  0  3  0  0  0  0  0  0
  190.1900  174.2440  136.1250 O   0  0  0  0  0  0  0  0  0  0  0  0
  187.6880  177.7030  137.3790 C   0  0  0  0  0  2  0  0  0  0  0  0
  187.7080  178.2150  139.8080 C   0  0  0  0  0  3  0  0  0  0  0  0
  191.8590  177.4100  140.1560 C   0  0  0  0  0  3  0  0  0  0  0  0
  196.8400  174.6700  135.2290 O   0  0  0  0  0  0  0  0  0  0  0  0
  189.7960  177.3970  138.8580 C   0  0  0  0  0  0  0  0  0  0  0  0
  196.6250  173.3920  135.0710 N   0  0  0  0  0  0  0  0  0  0  0  0
  195.3010  173.2340  135.2040 C   0  0  0  0  0  0  0  0  0  0  0  0
  192.5480  176.8500  139.0790 C   0  0  0  0  0  0  0  0  0  0  0  0
  191.9260  172.6300  135.8390 C   0  0  0  0  0  2  0  0  0  0  0  0
  190.4960  177.6820  140.0460 C   0  0  0  0  0  3  0  0  0  0  0  0
  187.2930  174.8200  136.0950 C   0  0  0  0  0  2  0  0  0  0  0  0
  191.8690  176.5380  137.8930 C   0  0  0  0  0  0  0  0  0  0  0  0
  188.3600  177.7600  138.7300 C   0  0  0  0  0  0  0  0  0  0  0  0
  186.4700  176.7850  137.3730 C   0  0  0  0  0  2  0  0  0  0  0  0
  194.7090  174.4200  135.3810 C   0  0  0  0  0  0  0  0  0  0  0  0
  193.9110  176.6020  139.1970 O   0  0  0  0  0  1  0  0  0  0  0  0
  186.2920  178.6900  139.8060 C   0  0  0  0  0  2  0  0  0  0  0  0
  185.6920  178.5740  141.2000 C   0  0  0  0  0  2  0  0  0  0  0  0
  186.7550  178.7450  142.2800 C   0  0  0  0  0  2  0  0  0  0  0  0
  187.9580  178.1000  145.2360 C   0  0  1  0  0  3  0  0  0  0  0  0
  188.6990  177.4670  143.7230 S   0  0  0  0  0  0  0  0  0  0  0  0
  187.0500  177.4270  142.9870 C   0  0  1  0  0  3  0  0  0  0  0  0
  186.5450  177.5420  145.3310 C   0  0  2  0  0  3  0  0  0  0  0  0
  186.0430  177.1560  144.0100 N   0  0  0  0  0  2  0  0  0  0  0  0
  185.5880  178.5340  145.9960 C   0  0  0  0  0  0  0  0  0  0  0  0
  185.6850  178.4410  147.3720 F   0  0  0  0  0  0  0  0  0  0  0  0
  184.2890  178.2380  145.6220 F   0  0  0  0  0  0  0  0  0  0  0  0
  185.8890  179.8290  145.6030 F   0  0  0  0  0  0  0  0  0  0  0  0
  188.4060  178.0180  147.5840 O   0  0  0  0  0  0  0  0  0  0  0  0
  189.9660  176.9400  146.2240 N   0  0  0  0  0  2  0  0  0  0  0  0
  190.8100  176.5290  147.3330 C   0  0  0  0  0  1  0  0  0  0  0  0
  188.7730  177.6950  146.4220 C   0  0  0  0  0  0  0  0  0  0  0  0
  187.0510  172.4910  136.8150 N   0  0  0  0  0  2  0  0  0  0  0  0
  182.5510  171.1000  135.5010 O   0  0  0  0  0  1  0  0  0  0  0  0
  186.7010  170.5760  135.3040 C   0  0  0  0  0  3  0  0  0  0  0  0
  185.8490  169.7290  134.5960 C   0  0  0  0  0  3  0  0  0  0  0  0
  183.9300  170.9310  135.4570 C   0  0  0  0  0  0  0  0  0  0  0  0
  184.7830  171.7790  136.1900 C   0  0  0  0  0  0  0  0  0  0  0  0
  184.4660  169.9070  134.6700 C   0  0  0  0  0  3  0  0  0  0  0  0
  186.1780  171.6060  136.1040 C   0  0  0  0  0  0  0  0  0  0  0  0
  184.2270  172.9160  136.9990 C   0  0  0  0  0  2  0  0  0  0  0  0
  184.1520  174.4290  135.1500 O   0  0  0  0  0  0  0  0  0  0  0  0
  183.5500  173.9390  136.1430 C   0  0  0  0  0  0  0  0  0  0  0  0
  182.2400  174.3300  136.4150 O   0  0  0  0  0  0  0  0  0  0  0  0
  181.9740  175.5650  136.8590 O   0  0  0  0  0  0  0  0  0  0  0  0
  181.7700  175.4230  138.2320 C   0  0  0  0  0  2  0  0  0  0  0  0
  182.4190  176.5860  138.9590 C   0  0  0  0  0  2  0  0  0  0  0  0
  183.0250  178.8830  138.6880 O   0  0  0  0  0  1  0  0  0  0  0  0
  182.1970  177.8760  138.1910 C   0  0  0  0  0  2  0  0  0  0  0  0
  1 21  1  6  0  0  0
  2  5  1  0  0  0  0
  2 19  1  0  0  0  0
  3 24  1  0  0  0  0
  4 27  1  1  0  0  0
  4  9  1  0  0  0  0
  5  4  1  0  0  0  0
  5 21  1  1  0  0  0
  7 27  2  0  0  0  0
  8 24  2  0  0  0  0
  8 17  1  0  0  0  0
  9  1  1  0  0  0  0
  9  3  2  0  0  0  0
 11 45  1  1  0  0  0
 11 10  1  0  0  0  0
 12  1  1  0  0  0  0
 12 10  1  0  0  0  0
 13 25  1  0  0  0  0
 16  7  1  0  0  0  0
 17 22  2  0  0  0  0
 18 19  2  0  0  0  0
 18 16  1  0  0  0  0
 19 27  1  0  0  0  0
 20 28  1  0  0  0  0
 20 15  2  0  0  0  0
 22 15  1  0  0  0  0
 23 11  1  0  0  0  0
 23  6  1  0  0  0  0
 24 20  1  0  0  0  0
 25 17  1  0  0  0  0
 25 14  2  0  0  0  0
 26 13  1  0  0  0  0
 26  6  1  0  0  0  0
 29 14  1  0  0  0  0
 29 30  1  0  0  0  0
 30 31  1  0  0  0  0
 32 35  1  0  0  0  0
 32 44  1  1  0  0  0
 33 32  1  0  0  0  0
 34 31  1  1  0  0  0
 34 33  1  0  0  0  0
 34 36  1  0  0  0  0
 35 37  1  6  0  0  0
 36 35  1  0  0  0  0
 37 38  1  0  0  0  0
 39 37  1  0  0  0  0
 40 37  1  0  0  0  0
 42 44  1  0  0  0  0
 42 43  1  0  0  0  0
 44 41  2  0  0  0  0
 47 52  1  0  0  0  0
 48 51  1  0  0  0  0
 48 47  2  0  0  0  0
 49 46  1  0  0  0  0
 49 50  1  0  0  0  0
 50 53  1  0  0  0  0
 51 49  2  0  0  0  0
 52 50  2  0  0  0  0
 52 45  1  0  0  0  0
 54 55  2  0  0  0  0
 55 56  1  0  0  0  0
 55 53  1  0  0  0  0
 56 57  1  0  0  0  0
 57 58  1  0  0  0  0
 58 59  1  0  0  0  0
 61 60  1  0  0  0  0
 61 59  1  0  0  0  0
M  END
>  <MODEL>
3

>  <REMARK>
 VINA RESULT:      -7.0      3.689      8.967
  Name = 
  15 active torsions:
  status: ('A' for Active; 'I' for Inactive)
    1  A    between atoms: C_1  and  C_8
    2  A    between atoms: C_1  and  C_25
    3  A    between atoms: O_2  and  C_58
    4  A    between atoms: O_2  and  O_59
    5  A    between atoms: C_8  and  C_26
    6  A    between atoms: C_9  and  C_57
    7  A    between atoms: C_11  and  C_49
    8  A    between atoms: C_11  and  C_58
    9  A    between atoms: C_20  and  C_29
   10  A    between atoms: C_21  and  N_35
   11  A    between atoms: C_23  and  C_37
   12  A    between atoms: C_23  and  O_59
   13  A    between atoms: C_25  and  C_28
   14  A    between atoms: N_35  and  C_55
   15  A    between atoms: C_37  and  C_47
                            x       y       z     vdW  Elec       q    Type
                         _______ _______ _______ _____ _____    ______ ____

>  <TORSDO>
F 15

$$$$
=
 OpenBabel10222416053D

 61 67  0  0  1  0  0  0  0  0999 V2000
  182.6250  174.9380  138.3290 C   0  0  1  0  0  3  0  0  0  0  0  0
  178.9310  173.4890  138.3010 S   0  0  0  0  0  0  0  0  0  0  0  0
  183.4870  173.7340  136.3480 N   0  0  0  0  0  0  0  0  0  0  0  0
  181.0890  174.0550  136.5860 C   0  0  1  0  0  3  0  0  0  0  0  0
  180.2500  174.6610  137.7300 C   0  0  2  0  0  3  0  0  0  0  0  0
  185.9830  178.4730  138.6320 C   0  0  0  0  0  2  0  0  0  0  0  0
  180.8020  171.6990  135.5150 C   0  0  0  0  0  3  0  0  0  0  0  0
  185.5240  175.0770  136.7150 C   0  0  0  0  0  3  0  0  0  0  0  0
  182.4950  174.2310  137.0260 C   0  0  0  0  0  0  0  0  0  0  0  0
  183.5830  176.7100  139.2940 C   0  0  0  0  0  2  0  0  0  0  0  0
  183.5630  178.2330  139.3000 C   0  0  2  0  0  3  0  0  0  0  0  0
  183.0320  176.2530  138.0920 O   0  0  0  0  0  0  0  0  0  0  0  0
  186.8980  177.6970  136.4290 C   0  0  0  0  0  2  0  0  0  0  0  0
  188.9210  176.5020  137.2280 C   0  0  0  0  0  3  0  0  0  0  0  0
  186.9900  172.7260  137.1150 C   0  0  0  0  0  3  0  0  0  0  0  0
  179.8430  170.8170  135.7490 O   0  0  0  0  0  0  0  0  0  0  0  0
  186.9110  175.1560  136.9450 C   0  0  0  0  0  0  0  0  0  0  0  0
  179.1110  171.1390  136.7810 N   0  0  0  0  0  0  0  0  0  0  0  0
  179.6720  172.2460  137.2860 C   0  0  0  0  0  0  0  0  0  0  0  0
  185.6170  172.6580  136.8760 C   0  0  0  0  0  0  0  0  0  0  0  0
  181.2050  174.9370  138.8880 C   0  0  0  0  0  2  0  0  0  0  0  0
  187.6310  173.9640  137.1480 C   0  0  0  0  0  3  0  0  0  0  0  0
  184.5410  178.7860  138.2670 C   0  0  0  0  0  2  0  0  0  0  0  0
  184.8730  173.8330  136.6930 C   0  0  0  0  0  0  0  0  0  0  0  0
  187.6210  176.4620  136.9100 C   0  0  0  0  0  0  0  0  0  0  0  0
  186.8940  178.8120  137.4700 C   0  0  0  0  0  2  0  0  0  0  0  0
  180.7040  172.6290  136.5260 C   0  0  0  0  0  0  0  0  0  0  0  0
  184.9940  171.4170  136.8280 O   0  0  0  0  0  1  0  0  0  0  0  0
  189.7750  177.7260  137.1600 C   0  0  0  0  0  2  0  0  0  0  0  0
  190.6700  177.8170  138.3880 C   0  0  0  0  0  2  0  0  0  0  0  0
  189.8580  177.7350  139.6760 C   0  0  0  0  0  2  0  0  0  0  0  0
  190.5730  177.8300  142.8510 C   0  0  1  0  0  3  0  0  0  0  0  0
  191.7730  177.3580  141.5960 S   0  0  0  0  0  0  0  0  0  0  0  0
  190.4150  176.6750  140.6200 C   0  0  1  0  0  3  0  0  0  0  0  0
  189.4310  176.8250  142.8050 C   0  0  2  0  0  3  0  0  0  0  0  0
  189.3650  176.1660  141.4980 N   0  0  0  0  0  2  0  0  0  0  0  0
  188.0880  177.4760  143.1420 C   0  0  0  0  0  0  0  0  0  0  0  0
  187.0920  176.5180  143.1880 F   0  0  0  0  0  0  0  0  0  0  0  0
  187.7690  178.4010  142.1640 F   0  0  0  0  0  0  0  0  0  0  0  0
  188.1610  178.1190  144.3680 F   0  0  0  0  0  0  0  0  0  0  0  0
  192.0850  178.7180  144.4770 O   0  0  0  0  0  0  0  0  0  0  0  0
  190.8280  176.8770  145.1710 N   0  0  0  0  0  2  0  0  0  0  0  0
  191.4250  176.8340  146.4950 C   0  0  0  0  0  1  0  0  0  0  0  0
  191.2140  177.8490  144.2010 C   0  0  0  0  0  0  0  0  0  0  0  0
  183.8700  178.7620  140.6220 N   0  0  0  0  0  2  0  0  0  0  0  0
  179.2970  178.8300  142.3550 O   0  0  0  0  0  1  0  0  0  0  0  0
  183.4250  178.6610  143.0440 C   0  0  0  0  0  3  0  0  0  0  0  0
  182.5300  178.6360  144.1140 C   0  0  0  0  0  3  0  0  0  0  0  0
  180.6710  178.7890  142.5680 C   0  0  0  0  0  0  0  0  0  0  0  0
  181.5690  178.8340  141.4830 C   0  0  0  0  0  0  0  0  0  0  0  0
  181.1550  178.6980  143.8760 C   0  0  0  0  0  3  0  0  0  0  0  0
  182.9550  178.7590  141.7240 C   0  0  0  0  0  0  0  0  0  0  0  0
  181.0640  178.8790  140.0690 C   0  0  0  0  0  2  0  0  0  0  0  0
  180.3110  181.1180  140.4400 O   0  0  0  0  0  0  0  0  0  0  0  0
  180.7680  180.2760  139.6210 C   0  0  0  0  0  0  0  0  0  0  0  0
  181.0260  180.6640  138.3070 O   0  0  0  0  0  0  0  0  0  0  0  0
  180.0320  181.0660  137.5050 O   0  0  0  0  0  0  0  0  0  0  0  0
  180.6350  181.3080  136.2700 C   0  0  0  0  0  2  0  0  0  0  0  0
  180.2730  182.7050  135.8010 C   0  0  0  0  0  2  0  0  0  0  0  0
  180.2260  184.3060  137.5750 O   0  0  0  0  0  1  0  0  0  0  0  0
  181.0430  183.7430  136.5950 C   0  0  0  0  0  2  0  0  0  0  0  0
  1 21  1  6  0  0  0
  3 24  1  0  0  0  0
  3  9  2  0  0  0  0
  4 27  1  1  0  0  0
  4  9  1  0  0  0  0
  4  5  1  0  0  0  0
  5  2  1  0  0  0  0
  5 21  1  1  0  0  0
  7 16  1  0  0  0  0
  7 27  2  0  0  0  0
  8 17  1  0  0  0  0
  9  1  1  0  0  0  0
 10 11  1  0  0  0  0
 11 45  1  1  0  0  0
 12  1  1  0  0  0  0
 12 10  1  0  0  0  0
 13 25  1  0  0  0  0
 13 26  1  0  0  0  0
 15 22  1  0  0  0  0
 16 18  1  0  0  0  0
 17 22  2  0  0  0  0
 18 19  2  0  0  0  0
 19  2  1  0  0  0  0
 20 15  2  0  0  0  0
 23  6  1  0  0  0  0
 23 11  1  0  0  0  0
 24  8  2  0  0  0  0
 24 20  1  0  0  0  0
 25 17  1  0  0  0  0
 25 14  2  0  0  0  0
 26  6  1  0  0  0  0
 27 19  1  0  0  0  0
 28 20  1  0  0  0  0
 29 14  1  0  0  0  0
 29 30  1  0  0  0  0
 30 31  1  0  0  0  0
 32 44  1  1  0  0  0
 33 32  1  0  0  0  0
 34 31  1  6  0  0  0
 34 36  1  0  0  0  0
 34 33  1  0  0  0  0
 35 32  1  0  0  0  0
 35 37  1  6  0  0  0
 36 35  1  0  0  0  0
 37 38  1  0  0  0  0
 37 40  1  0  0  0  0
 39 37  1  0  0  0  0
 42 43  1  0  0  0  0
 44 41  2  0  0  0  0
 44 42  1  0  0  0  0
 45 52  1  0  0  0  0
 46 49  1  0  0  0  0
 47 48  1  0  0  0  0
 49 51  1  0  0  0  0
 50 52  1  0  0  0  0
 50 49  2  0  0  0  0
 51 48  2  0  0  0  0
 52 47  2  0  0  0  0
 53 50  1  0  0  0  0
 55 53  1  0  0  0  0
 55 54  2  0  0  0  0
 56 55  1  0  0  0  0
 57 56  1  0  0  0  0
 58 57  1  0  0  0  0
 59 58  1  0  0  0  0
 59 61  1  0  0  0  0
 61 60  1  0  0  0  0
M  END
>  <MODEL>
4

>  <REMARK>
 VINA RESULT:      -6.5      2.206      3.983
  Name = 
  15 active torsions:
  status: ('A' for Active; 'I' for Inactive)
    1  A    between atoms: C_1  and  C_8
    2  A    between atoms: C_1  and  C_25
    3  A    between atoms: O_2  and  C_58
    4  A    between atoms: O_2  and  O_59
    5  A    between atoms: C_8  and  C_26
    6  A    between atoms: C_9  and  C_57
    7  A    between atoms: C_11  and  C_49
    8  A    between atoms: C_11  and  C_58
    9  A    between atoms: C_20  and  C_29
   10  A    between atoms: C_21  and  N_35
   11  A    between atoms: C_23  and  C_37
   12  A    between atoms: C_23  and  O_59
   13  A    between atoms: C_25  and  C_28
   14  A    between atoms: N_35  and  C_55
   15  A    between atoms: C_37  and  C_47
                            x       y       z     vdW  Elec       q    Type
                         _______ _______ _______ _____ _____    ______ ____

>  <TORSDO>
F 15

$$$$
=
 OpenBabel10222416053D

 61 67  0  0  1  0  0  0  0  0999 V2000
  184.6100  177.8460  138.9770 C   0  0  1  0  0  3  0  0  0  0  0  0
  181.3630  179.7060  140.3010 S   0  0  0  0  0  0  0  0  0  0  0  0
  183.8120  177.3380  136.6910 N   0  0  0  0  0  0  0  0  0  0  0  0
  182.7750  179.1550  137.9290 C   0  0  1  0  0  3  0  0  0  0  0  0
  182.9710  179.6440  139.3790 C   0  0  2  0  0  3  0  0  0  0  0  0
  189.4140  177.2980  138.2810 C   0  0  0  0  0  2  0  0  0  0  0  0
  180.5300  178.4610  136.8050 C   0  0  0  0  0  3  0  0  0  0  0  0
  186.0990  176.4790  136.3420 C   0  0  0  0  0  3  0  0  0  0  0  0
  183.7660  178.0630  137.7700 C   0  0  0  0  0  0  0  0  0  0  0  0
  186.7340  177.7700  139.6610 C   0  0  0  0  0  2  0  0  0  0  0  0
  187.9680  178.6410  139.8510 C   0  0  2  0  0  3  0  0  0  0  0  0
  185.8760  178.3910  138.7480 O   0  0  0  0  0  0  0  0  0  0  0  0
  188.9630  177.0820  135.8240 C   0  0  0  0  0  2  0  0  0  0  0  0
  189.2320  174.6270  135.5760 C   0  0  0  0  0  3  0  0  0  0  0  0
  185.0540  173.9340  135.8290 C   0  0  0  0  0  3  0  0  0  0  0  0
  179.3100  178.5600  137.3090 O   0  0  0  0  0  0  0  0  0  0  0  0
  186.9710  175.4310  135.9890 C   0  0  0  0  0  0  0  0  0  0  0  0
  179.3180  178.8580  138.5800 N   0  0  0  0  0  0  0  0  0  0  0  0
  180.6100  178.8760  138.9340 C   0  0  0  0  0  0  0  0  0  0  0  0
  184.1980  174.9820  136.1690 C   0  0  0  0  0  0  0  0  0  0  0  0
  183.9000  178.6470  140.0650 C   0  0  0  0  0  2  0  0  0  0  0  0
  186.4270  174.1560  135.7390 C   0  0  0  0  0  3  0  0  0  0  0  0
  188.8120  178.6620  138.5800 C   0  0  0  0  0  2  0  0  0  0  0  0
  184.7160  176.2550  136.4450 C   0  0  0  0  0  0  0  0  0  0  0  0
  188.4280  175.6700  135.8180 C   0  0  0  0  0  0  0  0  0  0  0  0
  190.0260  177.2970  136.8960 C   0  0  0  0  0  2  0  0  0  0  0  0
  181.3860  178.6510  137.8670 C   0  0  0  0  0  0  0  0  0  0  0  0
  182.8290  174.7500  136.2370 O   0  0  0  0  0  1  0  0  0  0  0  0
  190.6970  174.7290  135.3050 C   0  0  0  0  0  2  0  0  0  0  0  0
  191.4310  173.5360  135.9020 C   0  0  0  0  0  2  0  0  0  0  0  0
  192.2210  173.9320  137.1440 C   0  0  0  0  0  2  0  0  0  0  0  0
  195.2490  174.2860  138.2890 C   0  0  1  0  0  3  0  0  0  0  0  0
  194.0320  175.6110  138.3280 S   0  0  0  0  0  0  0  0  0  0  0  0
  193.3180  174.9370  136.8110 C   0  0  1  0  0  3  0  0  0  0  0  0
  195.4930  173.9200  136.8330 C   0  0  2  0  0  3  0  0  0  0  0  0
  194.3570  174.3120  135.9950 N   0  0  0  0  0  2  0  0  0  0  0  0
  195.7880  172.4280  136.6650 C   0  0  0  0  0  0  0  0  0  0  0  0
  196.8430  172.2460  135.7890 F   0  0  0  0  0  0  0  0  0  0  0  0
  194.6700  171.7940  136.1510 F   0  0  0  0  0  0  0  0  0  0  0  0
  196.1080  171.8610  137.8890 F   0  0  0  0  0  0  0  0  0  0  0  0
  197.6010  174.7190  138.3080 O   0  0  0  0  0  0  0  0  0  0  0  0
  196.4810  175.1560  140.3090 N   0  0  0  0  0  2  0  0  0  0  0  0
  197.6800  175.5810  141.0110 C   0  0  0  0  0  1  0  0  0  0  0  0
  196.5150  174.7260  138.9500 C   0  0  0  0  0  0  0  0  0  0  0  0
  188.7680  178.1900  140.9830 N   0  0  0  0  0  2  0  0  0  0  0  0
  189.5310  178.0540  145.8110 O   0  0  0  0  0  1  0  0  0  0  0  0
  186.8940  177.9190  142.5610 C   0  0  0  0  0  3  0  0  0  0  0  0
  186.4110  177.8120  143.8650 C   0  0  0  0  0  3  0  0  0  0  0  0
  188.6700  177.9970  144.7210 C   0  0  0  0  0  0  0  0  0  0  0  0
  189.1670  178.0860  143.4060 C   0  0  0  0  0  0  0  0  0  0  0  0
  187.2980  177.8530  144.9440 C   0  0  0  0  0  3  0  0  0  0  0  0
  188.2710  178.0580  142.3200 C   0  0  0  0  0  0  0  0  0  0  0  0
  190.6330  178.2930  143.1510 C   0  0  0  0  0  2  0  0  0  0  0  0
  191.9640  177.1300  141.5400 O   0  0  0  0  0  0  0  0  0  0  0  0
  191.2890  177.0640  142.6030 C   0  0  0  0  0  0  0  0  0  0  0  0
  191.1870  175.8500  143.2800 O   0  0  0  0  0  0  0  0  0  0  0  0
  192.0830  175.5130  144.2160 O   0  0  0  0  0  0  0  0  0  0  0  0
  191.4030  175.6230  145.4290 C   0  0  0  0  0  2  0  0  0  0  0  0
  192.3510  175.2970  146.5680 C   0  0  0  0  0  2  0  0  0  0  0  0
  193.1800  176.2780  148.5840 O   0  0  0  0  0  1  0  0  0  0  0  0
  192.0530  176.1750  147.7690 C   0  0  0  0  0  2  0  0  0  0  0  0
  1 21  1  1  0  0  0
  3  9  2  0  0  0  0
  4  9  1  1  0  0  0
  4  5  1  0  0  0  0
  5 21  1  1  0  0  0
  5  2  1  0  0  0  0
  6 23  1  0  0  0  0
  7 16  1  0  0  0  0
  7 27  2  0  0  0  0
  8 24  1  0  0  0  0
  9  1  1  0  0  0  0
 10 11  1  0  0  0  0
 11 45  1  1  0  0  0
 12  1  1  0  0  0  0
 12 10  1  0  0  0  0
 13 26  1  0  0  0  0
 14 25  2  0  0  0  0
 15 20  1  0  0  0  0
 16 18  1  0  0  0  0
 17  8  2  0  0  0  0
 18 19  2  0  0  0  0
 19  2  1  0  0  0  0
 20 28  1  0  0  0  0
 20 24  2  0  0  0  0
 22 15  2  0  0  0  0
 22 17  1  0  0  0  0
 23 11  1  0  0  0  0
 24  3  1  0  0  0  0
 25 13  1  0  0  0  0
 25 17  1  0  0  0  0
 26  6  1  0  0  0  0
 27  4  1  0  0  0  0
 27 19  1  0  0  0  0
 29 14  1  0  0  0  0
 29 30  1  0  0  0  0
 30 31  1  0  0  0  0
 32 33  1  0  0  0  0
 32 44  1  6  0  0  0
 34 31  1  1  0  0  0
 34 33  1  0  0  0  0
 35 37  1  1  0  0  0
 35 32  1  0  0  0  0
 36 34  1  0  0  0  0
 36 35  1  0  0  0  0
 37 40  1  0  0  0  0
 38 37  1  0  0  0  0
 39 37  1  0  0  0  0
 41 44  2  0  0  0  0
 42 43  1  0  0  0  0
 44 42  1  0  0  0  0
 45 52  1  0  0  0  0
 47 48  1  0  0  0  0
 48 51  2  0  0  0  0
 49 51  1  0  0  0  0
 49 46  1  0  0  0  0
 50 49  2  0  0  0  0
 52 47  2  0  0  0  0
 52 50  1  0  0  0  0
 53 50  1  0  0  0  0
 54 55  2  0  0  0  0
 55 53  1  0  0  0  0
 55 56  1  0  0  0  0
 56 57  1  0  0  0  0
 57 58  1  0  0  0  0
 58 59  1  0  0  0  0
 59 61  1  0  0  0  0
 61 60  1  0  0  0  0
M  END
>  <MODEL>
5

>  <REMARK>
 VINA RESULT:      -6.4      4.173      6.437
  Name = 
  15 active torsions:
  status: ('A' for Active; 'I' for Inactive)
    1  A    between atoms: C_1  and  C_8
    2  A    between atoms: C_1  and  C_25
    3  A    between atoms: O_2  and  C_58
    4  A    between atoms: O_2  and  O_59
    5  A    between atoms: C_8  and  C_26
    6  A    between atoms: C_9  and  C_57
    7  A    between atoms: C_11  and  C_49
    8  A    between atoms: C_11  and  C_58
    9  A    between atoms: C_20  and  C_29
   10  A    between atoms: C_21  and  N_35
   11  A    between atoms: C_23  and  C_37
   12  A    between atoms: C_23  and  O_59
   13  A    between atoms: C_25  and  C_28
   14  A    between atoms: N_35  and  C_55
   15  A    between atoms: C_37  and  C_47
                            x       y       z     vdW  Elec       q    Type
                         _______ _______ _______ _____ _____    ______ ____

>  <TORSDO>
F 15

$$$$
=
 OpenBabel10222416053D

 61 67  0  0  1  0  0  0  0  0999 V2000
  186.3000  178.6000  142.2540 C   0  0  1  0  0  3  0  0  0  0  0  0
  185.1540  179.0030  146.0320 S   0  0  0  0  0  0  0  0  0  0  0  0
  188.1890  177.0460  142.6260 N   0  0  0  0  0  0  0  0  0  0  0  0
  186.4290  177.1890  144.2970 C   0  0  1  0  0  3  0  0  0  0  0  0
  185.1970  178.1140  144.4050 C   0  0  2  0  0  3  0  0  0  0  0  0
  185.5930  177.8590  137.4780 C   0  0  0  0  0  2  0  0  0  0  0  0
  188.2860  176.8440  146.0900 C   0  0  0  0  0  3  0  0  0  0  0  0
  188.3270  177.0040  140.1630 C   0  0  0  0  0  3  0  0  0  0  0  0
  187.0520  177.5560  143.0020 C   0  0  0  0  0  0  0  0  0  0  0  0
  185.3190  179.0090  140.2900 C   0  0  0  0  0  2  0  0  0  0  0  0
  184.1490  178.5760  139.4170 C   0  0  2  0  0  3  0  0  0  0  0  0
  185.6020  177.9920  141.2070 O   0  0  0  0  0  0  0  0  0  0  0  0
  187.2390  175.9710  137.5970 C   0  0  0  0  0  2  0  0  0  0  0  0
  189.1990  177.0740  136.5480 C   0  0  0  0  0  3  0  0  0  0  0  0
  190.9160  178.0600  140.3000 C   0  0  0  0  0  3  0  0  0  0  0  0
  188.3190  177.3260  147.3220 O   0  0  0  0  0  0  0  0  0  0  0  0
  189.0610  177.1970  138.9760 C   0  0  0  0  0  0  0  0  0  0  0  0
  187.3930  178.2240  147.5310 N   0  0  0  0  0  0  0  0  0  0  0  0
  186.7800  178.3860  146.3510 C   0  0  0  0  0  0  0  0  0  0  0  0
  190.1850  177.8560  141.4710 C   0  0  0  0  0  0  0  0  0  0  0  0
  185.3080  179.1400  143.2810 C   0  0  0  0  0  2  0  0  0  0  0  0
  190.3590  177.7330  139.0640 C   0  0  0  0  0  3  0  0  0  0  0  0
  184.5590  177.4250  138.5030 C   0  0  0  0  0  2  0  0  0  0  0  0
  188.8810  177.3440  141.4080 C   0  0  0  0  0  0  0  0  0  0  0  0
  188.5090  176.7850  137.6580 C   0  0  0  0  0  0  0  0  0  0  0  0
  186.1540  176.6460  136.7650 C   0  0  0  0  0  2  0  0  0  0  0  0
  187.2910  177.5450  145.4440 C   0  0  0  0  0  0  0  0  0  0  0  0
  190.7590  178.1690  142.6970 O   0  0  0  0  0  1  0  0  0  0  0  0
  188.8060  176.6530  135.1700 C   0  0  0  0  0  2  0  0  0  0  0  0
  189.4460  175.3160  134.8210 C   0  0  0  0  0  2  0  0  0  0  0  0
  190.8640  175.2170  135.3730 C   0  0  0  0  0  2  0  0  0  0  0  0
  193.5090  173.4470  136.0600 C   0  0  1  0  0  3  0  0  0  0  0  0
  192.0330  172.7420  135.3100 S   0  0  0  0  0  0  0  0  0  0  0  0
  191.0490  173.9580  136.2130 C   0  0  1  0  0  3  0  0  0  0  0  0
  193.1220  173.9950  137.4250 C   0  0  2  0  0  3  0  0  0  0  0  0
  191.6860  174.2810  137.4870 N   0  0  0  0  0  2  0  0  0  0  0  0
  193.9290  175.2440  137.7840 C   0  0  0  0  0  0  0  0  0  0  0  0
  195.0410  174.8950  138.5300 F   0  0  0  0  0  0  0  0  0  0  0  0
  193.1420  176.0990  138.5360 F   0  0  0  0  0  0  0  0  0  0  0  0
  194.3380  175.8990  136.6330 F   0  0  0  0  0  0  0  0  0  0  0  0
  195.1790  171.9910  135.1580 O   0  0  0  0  0  0  0  0  0  0  0  0
  194.9020  171.8930  137.4740 N   0  0  0  0  0  2  0  0  0  0  0  0
  195.9180  170.8710  137.6600 C   0  0  0  0  0  1  0  0  0  0  0  0
  194.5750  172.4060  136.1840 C   0  0  0  0  0  0  0  0  0  0  0  0
  183.6340  179.6890  138.6290 N   0  0  0  0  0  2  0  0  0  0  0  0
  179.3110  179.5070  136.3490 O   0  0  0  0  0  1  0  0  0  0  0  0
  181.6510  180.8100  139.5690 C   0  0  0  0  0  3  0  0  0  0  0  0
  180.2980  181.1420  139.5020 C   0  0  0  0  0  3  0  0  0  0  0  0
  180.1050  179.9430  137.4050 C   0  0  0  0  0  0  0  0  0  0  0  0
  181.4750  179.6210  137.4560 C   0  0  0  0  0  0  0  0  0  0  0  0
  179.5250  180.7070  138.4220 C   0  0  0  0  0  3  0  0  0  0  0  0
  182.2490  180.0490  138.5520 C   0  0  0  0  0  0  0  0  0  0  0  0
  182.1020  178.7580  136.3980 C   0  0  0  0  0  2  0  0  0  0  0  0
  181.5080  176.7380  135.2660 O   0  0  0  0  0  0  0  0  0  0  0  0
  181.4820  177.3980  136.3400 C   0  0  0  0  0  0  0  0  0  0  0  0
  180.9040  176.8370  137.4780 O   0  0  0  0  0  0  0  0  0  0  0  0
  181.6690  176.3370  138.4570 O   0  0  0  0  0  0  0  0  0  0  0  0
  180.7870  176.0450  139.4970 C   0  0  0  0  0  2  0  0  0  0  0  0
  180.2650  177.3390  140.0910 C   0  0  0  0  0  2  0  0  0  0  0  0
  178.9420  175.7940  141.3460 O   0  0  0  0  0  1  0  0  0  0  0  0
  179.5190  177.0630  141.3830 C   0  0  0  0  0  2  0  0  0  0  0  0
  1  9  1  0  0  0  0
  1 21  1  1  0  0  0
  2 19  1  0  0  0  0
  3  9  2  0  0  0  0
  4  9  1  6  0  0  0
  4  5  1  0  0  0  0
  4 27  1  0  0  0  0
  5 21  1  6  0  0  0
  5  2  1  0  0  0  0
  6 23  1  0  0  0  0
  7 16  1  0  0  0  0
  8 24  1  0  0  0  0
 10 12  1  0  0  0  0
 11 45  1  6  0  0  0
 11 10  1  0  0  0  0
 12  1  1  0  0  0  0
 13 25  1  0  0  0  0
 14 25  2  0  0  0  0
 15 20  1  0  0  0  0
 16 18  1  0  0  0  0
 17 22  1  0  0  0  0
 17  8  2  0  0  0  0
 19 18  2  0  0  0  0
 20 28  1  0  0  0  0
 22 15  2  0  0  0  0
 23 11  1  0  0  0  0
 24 20  2  0  0  0  0
 24  3  1  0  0  0  0
 25 17  1  0  0  0  0
 26  6  1  0  0  0  0
 26 13  1  0  0  0  0
 27  7  2  0  0  0  0
 27 19  1  0  0  0  0
 29 14  1  0  0  0  0
 30 29  1  0  0  0  0
 30 31  1  0  0  0  0
 32 44  1  1  0  0  0
 32 35  1  0  0  0  0
 33 32  1  0  0  0  0
 33 34  1  0  0  0  0
 34 31  1  6  0  0  0
 34 36  1  0  0  0  0
 35 36  1  0  0  0  0
 35 37  1  6  0  0  0
 37 38  1  0  0  0  0
 37 39  1  0  0  0  0
 40 37  1  0  0  0  0
 41 44  2  0  0  0  0
 42 43  1  0  0  0  0
 44 42  1  0  0  0  0
 46 49  1  0  0  0  0
 48 47  1  0  0  0  0
 49 50  2  0  0  0  0
 49 51  1  0  0  0  0
 50 52  1  0  0  0  0
 51 48  2  0  0  0  0
 52 45  1  0  0  0  0
 52 47  2  0  0  0  0
 53 50  1  0  0  0  0
 54 55  2  0  0  0  0
 55 53  1  0  0  0  0
 55 56  1  0  0  0  0
 56 57  1  0  0  0  0
 57 58  1  0  0  0  0
 58 59  1  0  0  0  0
 59 61  1  0  0  0  0
 60 61  1  0  0  0  0
M  END
>  <MODEL>
6

>  <REMARK>
 VINA RESULT:      -6.3      4.034      8.089
  Name = 
  15 active torsions:
  status: ('A' for Active; 'I' for Inactive)
    1  A    between atoms: C_1  and  C_8
    2  A    between atoms: C_1  and  C_25
    3  A    between atoms: O_2  and  C_58
    4  A    between atoms: O_2  and  O_59
    5  A    between atoms: C_8  and  C_26
    6  A    between atoms: C_9  and  C_57
    7  A    between atoms: C_11  and  C_49
    8  A    between atoms: C_11  and  C_58
    9  A    between atoms: C_20  and  C_29
   10  A    between atoms: C_21  and  N_35
   11  A    between atoms: C_23  and  C_37
   12  A    between atoms: C_23  and  O_59
   13  A    between atoms: C_25  and  C_28
   14  A    between atoms: N_35  and  C_55
   15  A    between atoms: C_37  and  C_47
                            x       y       z     vdW  Elec       q    Type
                         _______ _______ _______ _____ _____    ______ ____

>  <TORSDO>
F 15

$$$$
=
 OpenBabel10222416053D

 61 67  0  0  1  0  0  0  0  0999 V2000
  186.0150  178.5700  142.6490 C   0  0  1  0  0  3  0  0  0  0  0  0
  185.2920  178.8130  146.5440 S   0  0  0  0  0  0  0  0  0  0  0  0
  188.0200  177.1250  142.7570 N   0  0  0  0  0  0  0  0  0  0  0  0
  186.4590  177.1220  144.6200 C   0  0  1  0  0  3  0  0  0  0  0  0
  185.1980  177.9670  144.8960 C   0  0  2  0  0  3  0  0  0  0  0  0
  184.8050  177.9010  137.9640 C   0  0  0  0  0  2  0  0  0  0  0  0
  188.5280  176.8470  146.1790 C   0  0  0  0  0  3  0  0  0  0  0  0
  187.8760  177.1490  140.2930 C   0  0  0  0  0  3  0  0  0  0  0  0
  186.9070  177.5560  143.2740 C   0  0  0  0  0  0  0  0  0  0  0  0
  184.7920  178.9650  140.8230 C   0  0  0  0  0  2  0  0  0  0  0  0
  183.5560  178.4830  140.0760 C   0  0  2  0  0  3  0  0  0  0  0  0
  185.2380  177.9450  141.6700 O   0  0  0  0  0  0  0  0  0  0  0  0
  186.5600  176.1130  137.8380 C   0  0  0  0  0  2  0  0  0  0  0  0
  188.3190  177.3570  136.6060 C   0  0  0  0  0  3  0  0  0  0  0  0
  190.3980  178.3560  140.1670 C   0  0  0  0  0  3  0  0  0  0  0  0
  188.6750  177.3010  147.4140 O   0  0  0  0  0  0  0  0  0  0  0  0
  188.4550  177.4140  139.0370 C   0  0  0  0  0  0  0  0  0  0  0  0
  187.7290  178.1360  147.7530 N   0  0  0  0  0  0  0  0  0  0  0  0
  186.9760  178.2880  146.6560 C   0  0  0  0  0  0  0  0  0  0  0  0
  189.8200  178.0800  141.4070 C   0  0  0  0  0  0  0  0  0  0  0  0
  185.1190  179.0240  143.7980 C   0  0  0  0  0  2  0  0  0  0  0  0
  189.7220  178.0260  138.9930 C   0  0  0  0  0  3  0  0  0  0  0  0
  183.9230  177.3800  139.0870 C   0  0  0  0  0  2  0  0  0  0  0  0
  188.5490  177.4920  141.4770 C   0  0  0  0  0  0  0  0  0  0  0  0
  187.7790  177.0010  137.7790 C   0  0  0  0  0  0  0  0  0  0  0  0
  185.3490  176.7410  137.1550 C   0  0  0  0  0  2  0  0  0  0  0  0
  187.4270  177.5010  145.6720 C   0  0  0  0  0  0  0  0  0  0  0  0
  190.5130  178.3990  142.5690 O   0  0  0  0  0  1  0  0  0  0  0  0
  187.7950  176.9450  135.2700 C   0  0  0  0  0  2  0  0  0  0  0  0
  188.5980  175.7730  134.7230 C   0  0  0  0  0  2  0  0  0  0  0  0
  189.9820  175.7010  135.3600 C   0  0  0  0  0  2  0  0  0  0  0  0
  192.5940  173.8490  135.9480 C   0  0  1  0  0  3  0  0  0  0  0  0
  191.0790  173.1970  135.2290 S   0  0  0  0  0  0  0  0  0  0  0  0
  190.1550  174.4260  136.1760 C   0  0  1  0  0  3  0  0  0  0  0  0
  192.2590  174.3870  137.3310 C   0  0  2  0  0  3  0  0  0  0  0  0
  190.8350  174.7110  137.4370 N   0  0  0  0  0  2  0  0  0  0  0  0
  193.1110  175.6080  137.6860 C   0  0  0  0  0  0  0  0  0  0  0  0
  194.3140  175.2050  138.2380 F   0  0  0  0  0  0  0  0  0  0  0  0
  192.4360  176.3840  138.6110 F   0  0  0  0  0  0  0  0  0  0  0  0
  193.3600  176.3660  136.5520 F   0  0  0  0  0  0  0  0  0  0  0  0
  193.2930  171.5730  136.1770 O   0  0  0  0  0  0  0  0  0  0  0  0
  195.0110  173.1330  135.9300 N   0  0  0  0  0  2  0  0  0  0  0  0
  196.0690  172.1410  136.0150 C   0  0  0  0  0  1  0  0  0  0  0  0
  193.6330  172.7780  136.0280 C   0  0  0  0  0  0  0  0  0  0  0  0
  182.8910  179.5810  139.3860 N   0  0  0  0  0  2  0  0  0  0  0  0
  178.9310  182.2640  138.3690 O   0  0  0  0  0  1  0  0  0  0  0  0
  181.0510  179.8000  141.0100 C   0  0  0  0  0  3  0  0  0  0  0  0
  179.8020  180.3090  141.3700 C   0  0  0  0  0  3  0  0  0  0  0  0
  179.6530  181.4560  139.2400 C   0  0  0  0  0  0  0  0  0  0  0  0
  180.9210  180.9620  138.8790 C   0  0  0  0  0  0  0  0  0  0  0  0
  179.1040  181.1340  140.4850 C   0  0  0  0  0  3  0  0  0  0  0  0
  181.6190  180.1190  139.7670 C   0  0  0  0  0  0  0  0  0  0  0  0
  181.5040  181.2550  137.5260 C   0  0  0  0  0  2  0  0  0  0  0  0
  180.4320  179.2800  136.7100 O   0  0  0  0  0  0  0  0  0  0  0  0
  180.8700  180.4320  136.4480 C   0  0  0  0  0  0  0  0  0  0  0  0
  180.7290  180.9450  135.1600 O   0  0  0  0  0  0  0  0  0  0  0  0
  181.1960  182.1630  134.8550 O   0  0  0  0  0  0  0  0  0  0  0  0
  180.2580  183.0550  135.3740 C   0  0  0  0  0  2  0  0  0  0  0  0
  180.8300  184.4590  135.3430 C   0  0  0  0  0  2  0  0  0  0  0  0
  181.0450  184.9570  137.6720 O   0  0  0  0  0  1  0  0  0  0  0  0
  180.3150  185.2630  136.5230 C   0  0  0  0  0  2  0  0  0  0  0  0
  1  9  1  0  0  0  0
  1 21  1  1  0  0  0
  2 19  1  0  0  0  0
  3  9  2  0  0  0  0
  4  9  1  6  0  0  0
  4  5  1  0  0  0  0
  4 27  1  0  0  0  0
  5 21  1  6  0  0  0
  5  2  1  0  0  0  0
  6 23  1  0  0  0  0
  7 16  1  0  0  0  0
  8 24  1  0  0  0  0
 10 12  1  0  0  0  0
 11 45  1  6  0  0  0
 11 10  1  0  0  0  0
 12  1  1  0  0  0  0
 14 25  2  0  0  0  0
 15 20  1  0  0  0  0
 16 18  1  0  0  0  0
 17  8  2  0  0  0  0
 19 18  2  0  0  0  0
 20 24  2  0  0  0  0
 20 28  1  0  0  0  0
 22 17  1  0  0  0  0
 22 15  2  0  0  0  0
 23 11  1  0  0  0  0
 24  3  1  0  0  0  0
 25 13  1  0  0  0  0
 25 17  1  0  0  0  0
 26 13  1  0  0  0  0
 26  6  1  0  0  0  0
 27  7  2  0  0  0  0
 27 19  1  0  0  0  0
 29 14  1  0  0  0  0
 30 29  1  0  0  0  0
 30 31  1  0  0  0  0
 32 44  1  1  0  0  0
 32 35  1  0  0  0  0
 33 32  1  0  0  0  0
 33 34  1  0  0  0  0
 34 31  1  6  0  0  0
 34 36  1  0  0  0  0
 35 36  1  0  0  0  0
 35 37  1  6  0  0  0
 37 38  1  0  0  0  0
 37 39  1  0  0  0  0
 40 37  1  0  0  0  0
 42 43  1  0  0  0  0
 42 44  1  0  0  0  0
 44 41  2  0  0  0  0
 45 52  1  0  0  0  0
 46 49  1  0  0  0  0
 47 48  1  0  0  0  0
 49 51  1  0  0  0  0
 50 49  2  0  0  0  0
 50 52  1  0  0  0  0
 51 48  2  0  0  0  0
 52 47  2  0  0  0  0
 53 50  1  0  0  0  0
 55 54  2  0  0  0  0
 55 53  1  0  0  0  0
 56 55  1  0  0  0  0
 57 56  1  0  0  0  0
 57 58  1  0  0  0  0
 59 58  1  0  0  0  0
 59 61  1  0  0  0  0
 61 60  1  0  0  0  0
M  END
>  <MODEL>
7

>  <REMARK>
 VINA RESULT:      -6.2      4.300      8.519
  Name = 
  15 active torsions:
  status: ('A' for Active; 'I' for Inactive)
    1  A    between atoms: C_1  and  C_8
    2  A    between atoms: C_1  and  C_25
    3  A    between atoms: O_2  and  C_58
    4  A    between atoms: O_2  and  O_59
    5  A    between atoms: C_8  and  C_26
    6  A    between atoms: C_9  and  C_57
    7  A    between atoms: C_11  and  C_49
    8  A    between atoms: C_11  and  C_58
    9  A    between atoms: C_20  and  C_29
   10  A    between atoms: C_21  and  N_35
   11  A    between atoms: C_23  and  C_37
   12  A    between atoms: C_23  and  O_59
   13  A    between atoms: C_25  and  C_28
   14  A    between atoms: N_35  and  C_55
   15  A    between atoms: C_37  and  C_47
                            x       y       z     vdW  Elec       q    Type
                         _______ _______ _______ _____ _____    ______ ____

>  <TORSDO>
F 15

$$$$
=
 OpenBabel10222416053D

 61 67  0  0  1  0  0  0  0  0999 V2000
  184.4330  177.8770  140.9360 C   0  0  1  0  0  3  0  0  0  0  0  0
  182.0120  179.0230  143.8640 S   0  0  0  0  0  0  0  0  0  0  0  0
  182.9860  178.4900  139.0260 N   0  0  0  0  0  0  0  0  0  0  0  0
  182.6320  179.5730  141.1730 C   0  0  1  0  0  3  0  0  0  0  0  0
  183.2840  179.3410  142.5530 C   0  0  2  0  0  3  0  0  0  0  0  0
  188.7210  177.5660  138.6150 C   0  0  0  0  0  2  0  0  0  0  0  0
  180.0870  179.5330  140.6230 C   0  0  0  0  0  3  0  0  0  0  0  0
  184.9220  177.8180  137.6510 C   0  0  0  0  0  3  0  0  0  0  0  0
  183.3500  178.6450  140.2660 C   0  0  0  0  0  0  0  0  0  0  0  0
  186.6200  177.4350  140.8230 C   0  0  0  0  0  2  0  0  0  0  0  0
  187.9880  178.0870  140.9710 C   0  0  2  0  0  3  0  0  0  0  0  0
  185.6670  178.4290  140.5780 O   0  0  0  0  0  0  0  0  0  0  0  0
  187.6060  178.5060  136.5750 C   0  0  0  0  0  2  0  0  0  0  0  0
  187.3860  176.4270  135.2370 C   0  0  0  0  0  3  0  0  0  0  0  0
  183.3690  175.8180  136.4590 C   0  0  0  0  0  3  0  0  0  0  0  0
  179.0770  179.4280  141.4730 O   0  0  0  0  0  0  0  0  0  0  0  0
  185.4820  177.0200  136.6350 C   0  0  0  0  0  0  0  0  0  0  0  0
  179.4720  179.1130  142.6770 N   0  0  0  0  0  0  0  0  0  0  0  0
  180.7960  178.9300  142.5830 C   0  0  0  0  0  0  0  0  0  0  0  0
  182.8210  176.6200  137.4610 C   0  0  0  0  0  0  0  0  0  0  0  0
  184.1820  178.1140  142.4220 C   0  0  0  0  0  2  0  0  0  0  0  0
  184.6870  176.0170  136.0490 C   0  0  0  0  0  3  0  0  0  0  0  0
  188.4560  178.6600  139.6360 C   0  0  0  0  0  2  0  0  0  0  0  0
  183.5990  177.6120  138.0750 C   0  0  0  0  0  0  0  0  0  0  0  0
  186.8610  177.2690  136.1370 C   0  0  0  0  0  0  0  0  0  0  0  0
  188.9350  178.1780  137.2460 C   0  0  0  0  0  2  0  0  0  0  0  0
  181.2120  179.1930  141.3400 C   0  0  0  0  0  0  0  0  0  0  0  0
  181.5010  176.4230  137.8460 O   0  0  0  0  0  1  0  0  0  0  0  0
  188.7230  176.5980  134.5940 C   0  0  0  0  0  2  0  0  0  0  0  0
  189.4990  175.2890  134.6260 C   0  0  0  0  0  2  0  0  0  0  0  0
  190.8810  175.4750  135.2430 C   0  0  0  0  0  2  0  0  0  0  0  0
  193.6540  174.6790  136.7520 C   0  0  1  0  0  3  0  0  0  0  0  0
  192.7550  173.5320  135.6960 S   0  0  0  0  0  0  0  0  0  0  0  0
  191.2210  174.3400  136.2020 C   0  0  1  0  0  3  0  0  0  0  0  0
  192.7460  175.0500  137.9150 C   0  0  2  0  0  3  0  0  0  0  0  0
  191.3380  174.8410  137.5690 N   0  0  0  0  0  2  0  0  0  0  0  0
  192.9730  176.4920  138.3730 C   0  0  0  0  0  0  0  0  0  0  0  0
  193.6610  177.1980  137.4020 F   0  0  0  0  0  0  0  0  0  0  0  0
  193.7240  176.4920  139.5350 F   0  0  0  0  0  0  0  0  0  0  0  0
  191.7590  177.1150  138.6180 F   0  0  0  0  0  0  0  0  0  0  0  0
  194.9500  172.8230  137.5250 O   0  0  0  0  0  0  0  0  0  0  0  0
  196.0900  174.8540  137.3760 N   0  0  0  0  0  2  0  0  0  0  0  0
  197.3460  174.3070  137.8590 C   0  0  0  0  0  1  0  0  0  0  0  0
  194.9190  174.0510  137.2400 C   0  0  0  0  0  0  0  0  0  0  0  0
  188.9710  177.1460  141.4910 N   0  0  0  0  0  2  0  0  0  0  0  0
  189.8480  177.1710  146.3020 O   0  0  0  0  0  1  0  0  0  0  0  0
  191.1440  177.8910  142.3850 C   0  0  0  0  0  3  0  0  0  0  0  0
  191.9940  178.1330  143.4640 C   0  0  0  0  0  3  0  0  0  0  0  0
  190.2590  177.4180  144.9970 C   0  0  0  0  0  0  0  0  0  0  0  0
  189.3880  177.1890  143.9130 C   0  0  0  0  0  0  0  0  0  0  0  0
  191.5530  177.8950  144.7680 C   0  0  0  0  0  3  0  0  0  0  0  0
  189.8390  177.4170  142.5980 C   0  0  0  0  0  0  0  0  0  0  0  0
  188.0130  176.6280  144.1370 C   0  0  0  0  0  2  0  0  0  0  0  0
  187.0380  178.7870  143.8140 O   0  0  0  0  0  0  0  0  0  0  0  0
  187.0110  177.6960  144.4450 C   0  0  0  0  0  0  0  0  0  0  0  0
  186.0230  177.4800  145.4040 O   0  0  0  0  0  0  0  0  0  0  0  0
  186.3480  177.2860  146.6890 O   0  0  0  0  0  0  0  0  0  0  0  0
  185.9900  178.4670  147.3380 C   0  0  0  0  0  2  0  0  0  0  0  0
  187.1870  179.0020  148.1010 C   0  0  0  0  0  2  0  0  0  0  0  0
  189.1930  178.3280  149.2140 O   0  0  0  0  0  1  0  0  0  0  0  0
  187.9840  177.8580  148.6990 C   0  0  0  0  0  2  0  0  0  0  0  0
  1 21  1  1  0  0  0
  3  9  2  0  0  0  0
  4  9  1  6  0  0  0
  4 27  1  0  0  0  0
  4  5  1  0  0  0  0
  5 21  1  6  0  0  0
  5  2  1  0  0  0  0
  6 23  1  0  0  0  0
  7 27  2  0  0  0  0
  7 16  1  0  0  0  0
  8 24  1  0  0  0  0
  9  1  1  0  0  0  0
 10 11  1  0  0  0  0
 11 45  1  6  0  0  0
 12 10  1  0  0  0  0
 12  1  1  0  0  0  0
 13 26  1  0  0  0  0
 14 25  2  0  0  0  0
 15 20  1  0  0  0  0
 16 18  1  0  0  0  0
 17  8  2  0  0  0  0
 19 18  2  0  0  0  0
 19  2  1  0  0  0  0
 20 28  1  0  0  0  0
 20 24  2  0  0  0  0
 22 15  2  0  0  0  0
 22 17  1  0  0  0  0
 23 11  1  0  0  0  0
 24  3  1  0  0  0  0
 25 13  1  0  0  0  0
 25 17  1  0  0  0  0
 26  6  1  0  0  0  0
 27 19  1  0  0  0  0
 29 30  1  0  0  0  0
 29 14  1  0  0  0  0
 30 31  1  0  0  0  0
 32 44  1  1  0  0  0
 32 35  1  0  0  0  0
 33 34  1  0  0  0  0
 33 32  1  0  0  0  0
 34 31  1  6  0  0  0
 34 36  1  0  0  0  0
 35 37  1  6  0  0  0
 36 35  1  0  0  0  0
 37 40  1  0  0  0  0
 37 39  1  0  0  0  0
 38 37  1  0  0  0  0
 42 43  1  0  0  0  0
 44 42  1  0  0  0  0
 44 41  2  0  0  0  0
 45 52  1  0  0  0  0
 47 52  2  0  0  0  0
 47 48  1  0  0  0  0
 48 51  2  0  0  0  0
 49 46  1  0  0  0  0
 50 53  1  0  0  0  0
 50 49  2  0  0  0  0
 51 49  1  0  0  0  0
 52 50  1  0  0  0  0
 53 55  1  0  0  0  0
 54 55  2  0  0  0  0
 55 56  1  0  0  0  0
 56 57  1  0  0  0  0
 57 58  1  0  0  0  0
 58 59  1  0  0  0  0
 59 61  1  0  0  0  0
 61 60  1  0  0  0  0
M  END
>  <MODEL>
8

>  <REMARK>
 VINA RESULT:      -6.1      3.478      6.613
  Name = 
  15 active torsions:
  status: ('A' for Active; 'I' for Inactive)
    1  A    between atoms: C_1  and  C_8
    2  A    between atoms: C_1  and  C_25
    3  A    between atoms: O_2  and  C_58
    4  A    between atoms: O_2  and  O_59
    5  A    between atoms: C_8  and  C_26
    6  A    between atoms: C_9  and  C_57
    7  A    between atoms: C_11  and  C_49
    8  A    between atoms: C_11  and  C_58
    9  A    between atoms: C_20  and  C_29
   10  A    between atoms: C_21  and  N_35
   11  A    between atoms: C_23  and  C_37
   12  A    between atoms: C_23  and  O_59
   13  A    between atoms: C_25  and  C_28
   14  A    between atoms: N_35  and  C_55
   15  A    between atoms: C_37  and  C_47
                            x       y       z     vdW  Elec       q    Type
                         _______ _______ _______ _____ _____    ______ ____

>  <TORSDO>
F 15

$$$$
=
 OpenBabel10222416053D

 61 67  0  0  1  0  0  0  0  0999 V2000
  188.9700  173.9280  136.7300 C   0  0  1  0  0  3  0  0  0  0  0  0
  191.4000  171.6300  134.5940 S   0  0  0  0  0  0  0  0  0  0  0  0
  190.4060  175.9380  136.8490 N   0  0  0  0  0  0  0  0  0  0  0  0
  190.7660  174.3330  135.0600 C   0  0  1  0  0  3  0  0  0  0  0  0
  190.1200  172.9590  134.7760 C   0  0  2  0  0  3  0  0  0  0  0  0
  184.6740  175.9530  137.8730 C   0  0  0  0  0  2  0  0  0  0  0  0
  193.3080  174.8460  135.2910 C   0  0  0  0  0  3  0  0  0  0  0  0
  188.4670  176.9640  137.9790 C   0  0  0  0  0  3  0  0  0  0  0  0
  190.0480  174.8370  136.2560 C   0  0  0  0  0  0  0  0  0  0  0  0
  186.7850  173.8600  137.1880 C   0  0  0  0  0  2  0  0  0  0  0  0
  185.4150  173.9510  136.5300 C   0  0  2  0  0  3  0  0  0  0  0  0
  187.7330  174.4550  136.3490 O   0  0  0  0  0  0  0  0  0  0  0  0
  185.7750  178.2020  137.7350 C   0  0  0  0  0  2  0  0  0  0  0  0
  185.9980  178.6950  140.1570 C   0  0  0  0  0  3  0  0  0  0  0  0
  190.0230  177.3580  140.2720 C   0  0  0  0  0  3  0  0  0  0  0  0
  194.3220  174.0210  135.0770 O   0  0  0  0  0  0  0  0  0  0  0  0
  187.9060  177.6190  139.0930 C   0  0  0  0  0  0  0  0  0  0  0  0
  193.9340  172.7820  134.9340 N   0  0  0  0  0  0  0  0  0  0  0  0
  192.6110  172.7960  135.1420 C   0  0  0  0  0  0  0  0  0  0  0  0
  190.5720  176.7190  139.1590 C   0  0  0  0  0  0  0  0  0  0  0  0
  189.2270  172.6300  135.9690 C   0  0  0  0  0  2  0  0  0  0  0  0
  188.7030  177.8040  140.2380 C   0  0  0  0  0  3  0  0  0  0  0  0
  184.9380  175.4000  136.4820 C   0  0  0  0  0  2  0  0  0  0  0  0
  189.7930  176.5030  138.0140 C   0  0  0  0  0  0  0  0  0  0  0  0
  186.5240  178.1650  139.0450 C   0  0  0  0  0  0  0  0  0  0  0  0
  184.4510  177.4490  137.8000 C   0  0  0  0  0  2  0  0  0  0  0  0
  192.1870  174.0480  135.3500 C   0  0  0  0  0  0  0  0  0  0  0  0
  191.8950  176.2960  139.2000 O   0  0  0  0  0  1  0  0  0  0  0  0
  184.6580  179.3490  140.2350 C   0  0  0  0  0  2  0  0  0  0  0  0
  184.1160  179.2800  141.6560 C   0  0  0  0  0  2  0  0  0  0  0  0
  185.2430  179.2680  142.6820 C   0  0  0  0  0  2  0  0  0  0  0  0
  187.3790  178.1320  144.8620 C   0  0  1  0  0  3  0  0  0  0  0  0
  187.3830  177.6210  143.1360 S   0  0  0  0  0  0  0  0  0  0  0  0
  185.5910  177.8480  143.1130 C   0  0  1  0  0  3  0  0  0  0  0  0
  186.0450  177.7180  145.4670 C   0  0  2  0  0  3  0  0  0  0  0  0
  185.0250  177.5570  144.4280 N   0  0  0  0  0  2  0  0  0  0  0  0
  185.5710  178.7130  146.5290 C   0  0  0  0  0  0  0  0  0  0  0  0
  186.0510  179.9780  146.2430 F   0  0  0  0  0  0  0  0  0  0  0  0
  186.0510  178.3250  147.7670 F   0  0  0  0  0  0  0  0  0  0  0  0
  184.1860  178.7470  146.5700 F   0  0  0  0  0  0  0  0  0  0  0  0
  188.3010  176.7970  146.6190 O   0  0  0  0  0  0  0  0  0  0  0  0
  189.8470  177.6910  145.1170 N   0  0  0  0  0  2  0  0  0  0  0  0
  190.9970  177.1140  145.7910 C   0  0  0  0  0  1  0  0  0  0  0  0
  188.5170  177.4980  145.5930 C   0  0  0  0  0  0  0  0  0  0  0  0
  184.4380  173.1190  137.2200 N   0  0  0  0  0  2  0  0  0  0  0  0
  180.2660  171.4910  135.2560 O   0  0  0  0  0  1  0  0  0  0  0  0
  184.2750  170.8470  136.2810 C   0  0  0  0  0  3  0  0  0  0  0  0
  183.5390  169.8430  135.6510 C   0  0  0  0  0  3  0  0  0  0  0  0
  181.5940  171.2880  135.6150 C   0  0  0  0  0  0  0  0  0  0  0  0
  182.3260  172.2990  136.2690 C   0  0  0  0  0  0  0  0  0  0  0  0
  182.2000  170.0650  135.3170 C   0  0  0  0  0  3  0  0  0  0  0  0
  183.6780  172.0790  136.5930 C   0  0  0  0  0  0  0  0  0  0  0  0
  181.7050  173.6370  136.5500 C   0  0  0  0  0  2  0  0  0  0  0  0
  180.4450  172.5070  138.2390 O   0  0  0  0  0  0  0  0  0  0  0  0
  180.8310  173.6090  137.7650 C   0  0  0  0  0  0  0  0  0  0  0  0
  180.4670  174.7960  138.3990 O   0  0  0  0  0  0  0  0  0  0  0  0
  181.3940  175.5820  138.9620 O   0  0  0  0  0  0  0  0  0  0  0  0
  180.8350  176.8600  138.9690 C   0  0  0  0  0  2  0  0  0  0  0  0
  181.2990  177.6040  140.2070 C   0  0  0  0  0  2  0  0  0  0  0  0
  180.2460  179.3030  141.5190 O   0  0  0  0  0  1  0  0  0  0  0  0
  180.7020  178.9990  140.2360 C   0  0  0  0  0  2  0  0  0  0  0  0
  1 21  1  6  0  0  0
  2  5  1  0  0  0  0
  2 19  1  0  0  0  0
  3 24  1  0  0  0  0
  4 27  1  1  0  0  0
  4  9  1  0  0  0  0
  5  4  1  0  0  0  0
  5 21  1  1  0  0  0
  7 27  2  0  0  0  0
  8 24  2  0  0  0  0
  8 17  1  0  0  0  0
  9  1  1  0  0  0  0
  9  3  2  0  0  0  0
 11 10  1  0  0  0  0
 11 45  1  1  0  0  0
 12  1  1  0  0  0  0
 12 10  1  0  0  0  0
 13 26  1  0  0  0  0
 13 25  1  0  0  0  0
 14 29  1  0  0  0  0
 16  7  1  0  0  0  0
 17 22  2  0  0  0  0
 18 16  1  0  0  0  0
 18 19  2  0  0  0  0
 19 27  1  0  0  0  0
 20 28  1  0  0  0  0
 20 15  2  0  0  0  0
 22 15  1  0  0  0  0
 23 11  1  0  0  0  0
 23  6  1  0  0  0  0
 24 20  1  0  0  0  0
 25 17  1  0  0  0  0
 25 14  2  0  0  0  0
 26  6  1  0  0  0  0
 29 30  1  0  0  0  0
 30 31  1  0  0  0  0
 32 35  1  0  0  0  0
 32 44  1  1  0  0  0
 33 32  1  0  0  0  0
 34 31  1  1  0  0  0
 34 33  1  0  0  0  0
 34 36  1  0  0  0  0
 35 37  1  1  0  0  0
 36 35  1  0  0  0  0
 37 40  1  0  0  0  0
 37 39  1  0  0  0  0
 38 37  1  0  0  0  0
 42 44  1  0  0  0  0
 42 43  1  0  0  0  0
 44 41  2  0  0  0  0
 46 49  1  0  0  0  0
 47 52  1  0  0  0  0
 48 47  2  0  0  0  0
 49 50  1  0  0  0  0
 50 53  1  0  0  0  0
 50 52  2  0  0  0  0
 51 49  2  0  0  0  0
 51 48  1  0  0  0  0
 52 45  1  0  0  0  0
 53 55  1  0  0  0  0
 55 54  2  0  0  0  0
 55 56  1  0  0  0  0
 56 57  1  0  0  0  0
 57 58  1  0  0  0  0
 58 59  1  0  0  0  0
 59 61  1  0  0  0  0
 61 60  1  0  0  0  0
M  END
>  <MODEL>
9

>  <REMARK>
 VINA RESULT:      -6.0      3.280      7.940
  Name = 
  15 active torsions:
  status: ('A' for Active; 'I' for Inactive)
    1  A    between atoms: C_1  and  C_8
    2  A    between atoms: C_1  and  C_25
    3  A    between atoms: O_2  and  C_58
    4  A    between atoms: O_2  and  O_59
    5  A    between atoms: C_8  and  C_26
    6  A    between atoms: C_9  and  C_57
    7  A    between atoms: C_11  and  C_49
    8  A    between atoms: C_11  and  C_58
    9  A    between atoms: C_20  and  C_29
   10  A    between atoms: C_21  and  N_35
   11  A    between atoms: C_23  and  C_37
   12  A    between atoms: C_23  and  O_59
   13  A    between atoms: C_25  and  C_28
   14  A    between atoms: N_35  and  C_55
   15  A    between atoms: C_37  and  C_47
                            x       y       z     vdW  Elec       q    Type
                         _______ _______ _______ _____ _____    ______ ____

>  <TORSDO>
F 15

$$$$
