=
 OpenBabel10222419303D

 42 47  0  0  1  0  0  0  0  0999 V2000
  189.6140  176.6330  138.1150 C   0  0  2  0  0  3  0  0  0  0  0  0
  188.2180  178.1290  139.6610 C   0  0  0  0  0  0  0  0  0  0  0  0
  187.4130  178.4430  138.7410 O   0  0  0  0  0  0  0  0  0  0  0  0
  186.5570  178.8700  141.3890 C   0  0  0  0  0  1  0  0  0  0  0  0
  189.8910  177.1830  141.7770 C   0  0  0  0  0  0  0  0  0  0  0  0
  188.8900  178.2740  142.0740 C   0  0  0  0  0  2  0  0  0  0  0  0
  187.8690  178.3550  141.0330 N   0  0  0  0  0  0  0  0  0  0  0  0
  190.1970  176.8730  140.5080 C   0  0  0  0  0  3  0  0  0  0  0  0
  189.5860  177.5780  139.3260 C   0  0  1  0  0  3  0  0  0  0  0  0
  190.6010  176.4330  142.8720 C   0  0  0  0  0  2  0  0  0  0  0  0
  191.3870  177.3230  143.8280 C   0  0  0  0  0  2  0  0  0  0  0  0
  190.9520  177.1020  145.1970 N   0  0  0  0  0  2  0  0  0  0  0  0
  189.8120  177.9750  145.4370 C   0  0  0  0  0  2  0  0  0  0  0  0
  188.6750  177.2230  146.1290 C   0  0  2  0  0  3  0  0  0  0  0  0
  186.4180  178.3540  146.1050 N   0  0  0  0  0  0  0  0  0  0  0  0
  185.1300  179.0460  146.1510 N   0  0  0  0  0  2  0  0  0  0  0  0
  186.0050  179.2760  147.1490 C   0  0  0  0  0  2  0  0  0  0  0  0
  187.3420  177.4640  145.4900 C   0  0  0  0  0  0  0  0  0  0  0  0
  187.0290  176.8890  144.4150 O   0  0  0  0  0  0  0  0  0  0  0  0
  188.6470  177.4540  147.6070 C   0  0  0  0  0  0  0  0  0  0  0  0
  189.2780  178.4260  148.0970 O   0  0  0  0  0  0  0  0  0  0  0  0
  187.9330  176.6070  148.4460 O   0  0  0  0  0  1  0  0  0  0  0  0
  190.9620  176.0120  137.9180 C   0  0  0  0  0  0  0  0  0  0  0  0
  192.3720  174.0950  137.4380 C   0  0  0  0  0  3  0  0  0  0  0  0
  193.3720  176.2700  137.8080 C   0  0  0  0  0  3  0  0  0  0  0  0
  194.7990  174.3460  137.3290 N   0  0  0  0  0  1  0  0  0  0  0  0
  191.1030  174.6460  137.6310 C   0  0  0  0  0  3  0  0  0  0  0  0
  193.5070  174.9060  137.5260 C   0  0  0  0  0  0  0  0  0  0  0  0
  192.1020  176.8210  138.0020 C   0  0  0  0  0  3  0  0  0  0  0  0
  189.1610  177.2560  136.9410 O   0  0  0  0  0  0  0  0  0  0  0  0
  188.5040  176.6220  134.7070 C   0  0  0  0  0  2  0  0  0  0  0  0
  188.6110  176.2330  136.1660 C   0  0  1  0  0  0  0  0  0  0  0  0
  187.2880  175.7470  136.7280 C   0  0  1  0  0  3  0  0  0  0  0  0
  187.2940  176.7630  135.6040 C   0  0  2  0  0  3  0  0  0  0  0  0
  187.8430  173.3550  136.8630 C   0  0  0  0  0  3  0  0  0  0  0  0
  185.5260  174.0470  136.4450 C   0  0  0  0  0  3  0  0  0  0  0  0
  187.3280  170.1990  134.9150 C   0  0  0  0  0  1  0  0  0  0  0  0
  184.9660  172.9410  136.0590 N   0  0  0  0  0  0  0  0  0  0  0  0
  187.8130  172.0590  136.5580 C   0  0  0  0  0  3  0  0  0  0  0  0
  185.6060  171.8220  135.4190 C   0  0  0  0  0  3  0  0  0  0  0  0
  186.9650  174.3590  136.1970 C   0  0  1  0  0  3  0  0  0  0  0  0
  186.8790  171.4370  135.6020 C   0  0  0  0  0  0  0  0  0  0  0  0
  1 30  1  6  0  0  0
  2  7  1  0  0  0  0
  3  2  2  0  0  0  0
  5  6  1  0  0  0  0
  5 10  1  0  0  0  0
  7  4  1  0  0  0  0
  7  6  1  0  0  0  0
  8  5  2  0  0  0  0
  9  1  1  6  0  0  0
  9  2  1  0  0  0  0
  9  8  1  0  0  0  0
 10 11  1  0  0  0  0
 11 12  1  0  0  0  0
 12 13  1  0  0  0  0
 14 13  1  6  0  0  0
 14 20  1  0  0  0  0
 15 16  1  0  0  0  0
 15 17  1  0  0  0  0
 16 17  1  0  0  0  0
 18 15  1  0  0  0  0
 18 14  1  0  0  0  0
 19 18  2  0  0  0  0
 20 21  2  0  0  0  0
 20 22  1  0  0  0  0
 23 29  1  0  0  0  0
 23  1  1  0  0  0  0
 24 28  2  0  0  0  0
 24 27  1  0  0  0  0
 25 29  2  0  0  0  0
 26 28  1  0  0  0  0
 27 23  2  0  0  0  0
 28 25  1  0  0  0  0
 31 32  1  0  0  0  0
 32 33  1  0  0  0  0
 32 30  1  1  0  0  0
 33 41  1  6  0  0  0
 34 31  1  6  0  0  0
 34 32  1  0  0  0  0
 34 33  1  0  0  0  0
 37 42  1  0  0  0  0
 38 36  2  0  0  0  0
 39 35  2  0  0  0  0
 40 42  2  0  0  0  0
 40 38  1  0  0  0  0
 41 36  1  1  0  0  0
 41 35  1  0  0  0  0
 42 39  1  0  0  0  0
M  END
>  <MODEL>
1

>  <REMARK>
 VINA RESULT:      -7.8      0.000      0.000
  Name = 
  12 active torsions:
  status: ('A' for Active; 'I' for Inactive)
    1  A    between atoms: C_3  and  C_8
    2  A    between atoms: C_6  and  C_32
    3  A    between atoms: C_8  and  O_11
    4  A    between atoms: C_8  and  C_39
    5  A    between atoms: O_11  and  C_12
    6  A    between atoms: N_19  and  C_27
    7  A    between atoms: N_19  and  C_29
    8  A    between atoms: C_20  and  C_41
    9  A    between atoms: C_24  and  C_38
   10  A    between atoms: C_27  and  C_32
   11  A    between atoms: C_29  and  C_38
   12  A    between atoms: C_32  and  C_35
                            x       y       z     vdW  Elec       q    Type
                         _______ _______ _______ _____ _____    ______ ____

>  <TORSDO>
F 12

$$$$
=
 OpenBabel10222419303D

 42 47  0  0  1  0  0  0  0  0999 V2000
  187.7910  176.8400  137.6300 C   0  0  2  0  0  3  0  0  0  0  0  0
  187.0820  178.2960  139.6180 C   0  0  0  0  0  0  0  0  0  0  0  0
  185.9620  178.5700  139.1040 O   0  0  0  0  0  0  0  0  0  0  0  0
  186.2330  178.9890  141.8750 C   0  0  0  0  0  1  0  0  0  0  0  0
  189.5030  177.4370  140.8700 C   0  0  0  0  0  0  0  0  0  0  0  0
  188.6650  178.4910  141.5540 C   0  0  0  0  0  2  0  0  0  0  0  0
  187.3080  178.5220  141.0160 N   0  0  0  0  0  0  0  0  0  0  0  0
  189.2820  177.1270  139.5840 C   0  0  0  0  0  3  0  0  0  0  0  0
  188.2190  177.7950  138.7550 C   0  0  1  0  0  3  0  0  0  0  0  0
  190.6250  176.7260  141.5800 C   0  0  0  0  0  2  0  0  0  0  0  0
  190.4840  176.7000  143.0980 C   0  0  0  0  0  2  0  0  0  0  0  0
  191.5920  177.4050  143.7190 N   0  0  0  0  0  2  0  0  0  0  0  0
  191.1060  177.9590  144.9750 C   0  0  0  0  0  2  0  0  0  0  0  0
  190.6120  176.8560  145.9110 C   0  0  2  0  0  3  0  0  0  0  0  0
  188.1520  177.3930  146.1080 N   0  0  0  0  0  0  0  0  0  0  0  0
  186.7190  177.6860  146.1510 N   0  0  0  0  0  2  0  0  0  0  0  0
  187.2540  177.3270  144.9680 C   0  0  0  0  0  2  0  0  0  0  0  0
  189.4270  177.2710  146.7280 C   0  0  0  0  0  0  0  0  0  0  0  0
  189.5450  177.5130  147.9580 O   0  0  0  0  0  0  0  0  0  0  0  0
  191.7090  176.2810  146.7520 C   0  0  0  0  0  0  0  0  0  0  0  0
  192.1950  175.1580  146.4580 O   0  0  0  0  0  0  0  0  0  0  0  0
  192.1970  176.9730  147.8540 O   0  0  0  0  0  1  0  0  0  0  0  0
  188.9630  176.1480  137.0060 C   0  0  0  0  0  0  0  0  0  0  0  0
  191.0040  176.1860  135.6920 C   0  0  0  0  0  3  0  0  0  0  0  0
  190.2160  174.1020  136.6420 C   0  0  0  0  0  3  0  0  0  0  0  0
  192.2680  174.1310  135.3180 N   0  0  0  0  0  1  0  0  0  0  0  0
  189.9120  176.8540  136.2510 C   0  0  0  0  0  3  0  0  0  0  0  0
  191.1570  174.8100  135.8870 C   0  0  0  0  0  0  0  0  0  0  0  0
  189.1230  174.7700  137.2010 C   0  0  0  0  0  3  0  0  0  0  0  0
  186.9980  177.4770  136.6620 O   0  0  0  0  0  0  0  0  0  0  0  0
  185.7130  176.7480  134.7530 C   0  0  0  0  0  2  0  0  0  0  0  0
  186.1320  176.4900  136.1840 C   0  0  1  0  0  0  0  0  0  0  0  0
  184.9410  176.2910  137.1040 C   0  0  1  0  0  3  0  0  0  0  0  0
  184.8030  177.1770  135.8830 C   0  0  2  0  0  3  0  0  0  0  0  0
  185.0810  173.8810  137.5740 C   0  0  0  0  0  3  0  0  0  0  0  0
  182.8860  174.9490  137.3230 C   0  0  0  0  0  3  0  0  0  0  0  0
  183.7350  170.6420  136.2620 C   0  0  0  0  0  1  0  0  0  0  0  0
  182.0890  173.9310  137.2000 N   0  0  0  0  0  0  0  0  0  0  0  0
  184.7790  172.5860  137.4980 C   0  0  0  0  0  3  0  0  0  0  0  0
  182.4200  172.6280  136.6870 C   0  0  0  0  0  3  0  0  0  0  0  0
  184.3050  174.9320  136.8570 C   0  0  1  0  0  3  0  0  0  0  0  0
  183.6180  172.0300  136.7790 C   0  0  0  0  0  0  0  0  0  0  0  0
  1 30  1  6  0  0  0
  2  7  1  0  0  0  0
  3  2  2  0  0  0  0
  5  6  1  0  0  0  0
  5 10  1  0  0  0  0
  7  6  1  0  0  0  0
  7  4  1  0  0  0  0
  8  5  2  0  0  0  0
  9  1  1  6  0  0  0
  9  8  1  0  0  0  0
  9  2  1  0  0  0  0
 10 11  1  0  0  0  0
 11 12  1  0  0  0  0
 12 13  1  0  0  0  0
 14 13  1  1  0  0  0
 14 18  1  0  0  0  0
 14 20  1  0  0  0  0
 15 16  1  0  0  0  0
 15 18  1  0  0  0  0
 17 15  1  0  0  0  0
 17 16  1  0  0  0  0
 18 19  2  0  0  0  0
 20 22  1  0  0  0  0
 21 20  2  0  0  0  0
 23 29  1  0  0  0  0
 23  1  1  0  0  0  0
 24 28  2  0  0  0  0
 24 27  1  0  0  0  0
 25 29  2  0  0  0  0
 26 28  1  0  0  0  0
 27 23  2  0  0  0  0
 28 25  1  0  0  0  0
 31 32  1  0  0  0  0
 32 30  1  1  0  0  0
 32 33  1  0  0  0  0
 33 41  1  6  0  0  0
 34 31  1  6  0  0  0
 34 32  1  0  0  0  0
 34 33  1  0  0  0  0
 37 42  1  0  0  0  0
 38 36  2  0  0  0  0
 39 35  2  0  0  0  0
 40 42  2  0  0  0  0
 40 38  1  0  0  0  0
 41 36  1  1  0  0  0
 41 35  1  0  0  0  0
 42 39  1  0  0  0  0
M  END
>  <MODEL>
2

>  <REMARK>
 VINA RESULT:      -7.7      2.055      2.710
  Name = 
  12 active torsions:
  status: ('A' for Active; 'I' for Inactive)
    1  A    between atoms: C_3  and  C_8
    2  A    between atoms: C_6  and  C_32
    3  A    between atoms: C_8  and  O_11
    4  A    between atoms: C_8  and  C_39
    5  A    between atoms: O_11  and  C_12
    6  A    between atoms: N_19  and  C_27
    7  A    between atoms: N_19  and  C_29
    8  A    between atoms: C_20  and  C_41
    9  A    between atoms: C_24  and  C_38
   10  A    between atoms: C_27  and  C_32
   11  A    between atoms: C_29  and  C_38
   12  A    between atoms: C_32  and  C_35
                            x       y       z     vdW  Elec       q    Type
                         _______ _______ _______ _____ _____    ______ ____

>  <TORSDO>
F 12

$$$$
=
 OpenBabel10222419303D

 42 47  0  0  1  0  0  0  0  0999 V2000
  182.5310  178.4800  140.9380 C   0  0  2  0  0  3  0  0  0  0  0  0
  182.2210  176.3600  139.5290 C   0  0  0  0  0  0  0  0  0  0  0  0
  181.1460  176.0480  140.1130 O   0  0  0  0  0  0  0  0  0  0  0  0
  181.6440  174.8350  137.6220 C   0  0  0  0  0  1  0  0  0  0  0  0
  184.5020  177.2380  138.0470 C   0  0  0  0  0  0  0  0  0  0  0  0
  183.9170  175.8770  137.7450 C   0  0  0  0  0  2  0  0  0  0  0  0
  182.5630  175.7520  138.2760 N   0  0  0  0  0  0  0  0  0  0  0  0
  184.1550  177.8890  139.1660 C   0  0  0  0  0  3  0  0  0  0  0  0
  183.1930  177.3220  140.1760 C   0  0  1  0  0  3  0  0  0  0  0  0
  185.5060  177.8930  137.1370 C   0  0  0  0  0  2  0  0  0  0  0  0
  186.9580  177.5930  137.4920 C   0  0  0  0  0  2  0  0  0  0  0  0
  187.7510  178.8100  137.4430 N   0  0  0  0  0  2  0  0  0  0  0  0
  189.1510  178.4140  137.3840 C   0  0  0  0  0  2  0  0  0  0  0  0
  189.4130  177.1790  138.2460 C   0  0  2  0  0  3  0  0  0  0  0  0
  189.0880  177.9720  140.6210 N   0  0  0  0  0  0  0  0  0  0  0  0
  188.8270  178.4340  141.9850 N   0  0  0  0  0  2  0  0  0  0  0  0
  187.7820  178.3370  141.1410 C   0  0  0  0  0  2  0  0  0  0  0  0
  189.9640  177.5160  139.5970 C   0  0  0  0  0  0  0  0  0  0  0  0
  191.1950  177.4000  139.8380 O   0  0  0  0  0  0  0  0  0  0  0  0
  190.2350  176.1470  137.5380 C   0  0  0  0  0  0  0  0  0  0  0  0
  190.3110  174.9830  138.0080 O   0  0  0  0  0  1  0  0  0  0  0  0
  190.9150  176.4610  136.3680 O   0  0  0  0  0  0  0  0  0  0  0  0
  183.0600  178.6090  142.3330 C   0  0  0  0  0  0  0  0  0  0  0  0
  182.7370  179.0510  144.6980 C   0  0  0  0  0  3  0  0  0  0  0  0
  184.9340  178.4590  143.8670 C   0  0  0  0  0  3  0  0  0  0  0  0
  184.6200  178.9060  146.2470 N   0  0  0  0  0  1  0  0  0  0  0  0
  182.2210  178.9520  143.4040 C   0  0  0  0  0  3  0  0  0  0  0  0
  184.0940  178.8050  144.9300 C   0  0  0  0  0  0  0  0  0  0  0  0
  184.4170  178.3600  142.5710 C   0  0  0  0  0  3  0  0  0  0  0  0
  181.1290  178.3940  140.9280 O   0  0  0  0  0  0  0  0  0  0  0  0
  179.4870  180.1570  141.0660 C   0  0  0  0  0  2  0  0  0  0  0  0
  180.6880  179.5850  140.3460 C   0  0  1  0  0  0  0  0  0  0  0  0
  180.4440  179.4280  138.8560 C   0  0  1  0  0  3  0  0  0  0  0  0
  179.2800  179.3250  139.8200 C   0  0  2  0  0  3  0  0  0  0  0  0
  181.7480  181.4760  138.4590 C   0  0  0  0  0  3  0  0  0  0  0  0
  180.2680  180.6130  136.7020 C   0  0  0  0  0  3  0  0  0  0  0  0
  181.2390  184.9870  137.2630 C   0  0  0  0  0  1  0  0  0  0  0  0
  180.1990  181.6120  135.8750 N   0  0  0  0  0  0  0  0  0  0  0  0
  182.0190  182.7060  138.0270 C   0  0  0  0  0  3  0  0  0  0  0  0
  180.3620  183.0070  136.1860 C   0  0  0  0  0  3  0  0  0  0  0  0
  180.4570  180.7870  138.1730 C   0  0  1  0  0  3  0  0  0  0  0  0
  181.1370  183.5090  137.1590 C   0  0  0  0  0  0  0  0  0  0  0  0
  1 30  1  1  0  0  0
  1 23  1  0  0  0  0
  2  3  2  0  0  0  0
  2  9  1  0  0  0  0
  4  7  1  0  0  0  0
  5  8  2  0  0  0  0
  6  5  1  0  0  0  0
  6  7  1  0  0  0  0
  7  2  1  0  0  0  0
  8  9  1  0  0  0  0
  9  1  1  6  0  0  0
 10 11  1  0  0  0  0
 10  5  1  0  0  0  0
 12 11  1  0  0  0  0
 13 12  1  0  0  0  0
 14 13  1  6  0  0  0
 14 18  1  0  0  0  0
 15 17  1  0  0  0  0
 15 16  1  0  0  0  0
 17 16  1  0  0  0  0
 18 19  2  0  0  0  0
 18 15  1  0  0  0  0
 20 21  1  0  0  0  0
 20 14  1  0  0  0  0
 22 20  2  0  0  0  0
 23 29  2  0  0  0  0
 23 27  1  0  0  0  0
 24 28  1  0  0  0  0
 25 28  2  0  0  0  0
 27 24  2  0  0  0  0
 28 26  1  0  0  0  0
 29 25  1  0  0  0  0
 32 30  1  1  0  0  0
 32 31  1  0  0  0  0
 33 41  1  6  0  0  0
 33 34  1  0  0  0  0
 33 32  1  0  0  0  0
 34 32  1  0  0  0  0
 34 31  1  6  0  0  0
 38 40  1  0  0  0  0
 38 36  2  0  0  0  0
 39 35  2  0  0  0  0
 40 42  2  0  0  0  0
 41 36  1  6  0  0  0
 41 35  1  0  0  0  0
 42 37  1  0  0  0  0
 42 39  1  0  0  0  0
M  END
>  <MODEL>
3

>  <REMARK>
 VINA RESULT:      -7.7      5.047      9.536
  Name = 
  12 active torsions:
  status: ('A' for Active; 'I' for Inactive)
    1  A    between atoms: C_3  and  C_8
    2  A    between atoms: C_6  and  C_32
    3  A    between atoms: C_8  and  O_11
    4  A    between atoms: C_8  and  C_39
    5  A    between atoms: O_11  and  C_12
    6  A    between atoms: N_19  and  C_27
    7  A    between atoms: N_19  and  C_29
    8  A    between atoms: C_20  and  C_41
    9  A    between atoms: C_24  and  C_38
   10  A    between atoms: C_27  and  C_32
   11  A    between atoms: C_29  and  C_38
   12  A    between atoms: C_32  and  C_35
                            x       y       z     vdW  Elec       q    Type
                         _______ _______ _______ _____ _____    ______ ____

>  <TORSDO>
F 12

$$$$
=
 OpenBabel10222419303D

 42 47  0  0  1  0  0  0  0  0999 V2000
  187.6140  176.8280  137.6460 C   0  0  2  0  0  3  0  0  0  0  0  0
  186.8710  178.3850  139.5430 C   0  0  0  0  0  0  0  0  0  0  0  0
  185.7800  178.6660  138.9770 O   0  0  0  0  0  0  0  0  0  0  0  0
  185.9590  179.1950  141.7360 C   0  0  0  0  0  1  0  0  0  0  0  0
  189.2200  177.5170  140.9220 C   0  0  0  0  0  0  0  0  0  0  0  0
  188.3870  178.6210  141.5290 C   0  0  0  0  0  2  0  0  0  0  0  0
  187.0520  178.6640  140.9380 N   0  0  0  0  0  0  0  0  0  0  0  0
  189.0390  177.1590  139.6430 C   0  0  0  0  0  3  0  0  0  0  0  0
  188.0250  177.8190  138.7460 C   0  0  1  0  0  3  0  0  0  0  0  0
  190.2950  176.8080  141.7030 C   0  0  0  0  0  2  0  0  0  0  0  0
  191.3510  177.7360  142.2920 C   0  0  0  0  0  2  0  0  0  0  0  0
  191.6130  177.3860  143.6780 N   0  0  0  0  0  2  0  0  0  0  0  0
  190.4610  176.6400  144.1630 C   0  0  0  0  0  2  0  0  0  0  0  0
  189.6200  177.4820  145.1230 C   0  0  2  0  0  3  0  0  0  0  0  0
  191.0960  176.4510  146.8920 N   0  0  0  0  0  0  0  0  0  0  0  0
  191.9940  175.8270  147.8650 N   0  0  0  0  0  2  0  0  0  0  0  0
  192.2480  175.6320  146.5560 C   0  0  0  0  0  2  0  0  0  0  0  0
  189.9650  177.2490  146.5610 C   0  0  0  0  0  0  0  0  0  0  0  0
  189.2670  177.7510  147.4810 O   0  0  0  0  0  0  0  0  0  0  0  0
  188.1510  177.3570  144.8630 C   0  0  0  0  0  0  0  0  0  0  0  0
  187.7250  176.4220  144.1360 O   0  0  0  0  0  0  0  0  0  0  0  0
  187.2520  178.2610  145.4160 O   0  0  0  0  0  1  0  0  0  0  0  0
  188.7870  176.0710  137.1060 C   0  0  0  0  0  0  0  0  0  0  0  0
  189.9630  173.9900  136.6800 C   0  0  0  0  0  3  0  0  0  0  0  0
  190.9170  176.0910  135.9450 C   0  0  0  0  0  3  0  0  0  0  0  0
  192.1090  174.0030  135.5150 N   0  0  0  0  0  1  0  0  0  0  0  0
  188.8630  174.6730  137.2050 C   0  0  0  0  0  3  0  0  0  0  0  0
  190.9900  174.6980  136.0490 C   0  0  0  0  0  0  0  0  0  0  0  0
  189.8170  176.7750  136.4700 C   0  0  0  0  0  3  0  0  0  0  0  0
  186.8850  177.4460  136.6170 O   0  0  0  0  0  0  0  0  0  0  0  0
  185.5160  176.7940  134.7400 C   0  0  0  0  0  2  0  0  0  0  0  0
  186.0300  176.4580  136.1220 C   0  0  1  0  0  0  0  0  0  0  0  0
  184.9060  176.1480  137.0940 C   0  0  1  0  0  3  0  0  0  0  0  0
  184.6600  177.1070  135.9470 C   0  0  2  0  0  3  0  0  0  0  0  0
  185.1300  173.7230  137.4400 C   0  0  0  0  0  3  0  0  0  0  0  0
  182.8980  174.7310  137.2810 C   0  0  0  0  0  3  0  0  0  0  0  0
  183.8620  170.5120  135.9910 C   0  0  0  0  0  1  0  0  0  0  0  0
  182.1310  173.6950  137.1210 N   0  0  0  0  0  0  0  0  0  0  0  0
  184.8680  172.4250  137.3050 C   0  0  0  0  0  3  0  0  0  0  0  0
  182.4940  172.4300  136.5380 C   0  0  0  0  0  3  0  0  0  0  0  0
  184.3070  174.7830  136.7900 C   0  0  1  0  0  3  0  0  0  0  0  0
  183.7110  171.8680  136.5790 C   0  0  0  0  0  0  0  0  0  0  0  0
  1 30  1  6  0  0  0
  2  7  1  0  0  0  0
  3  2  2  0  0  0  0
  5  6  1  0  0  0  0
  5 10  1  0  0  0  0
  7  6  1  0  0  0  0
  7  4  1  0  0  0  0
  8  5  2  0  0  0  0
  9  1  1  6  0  0  0
  9  2  1  0  0  0  0
  9  8  1  0  0  0  0
 10 11  1  0  0  0  0
 11 12  1  0  0  0  0
 12 13  1  0  0  0  0
 14 13  1  6  0  0  0
 14 18  1  0  0  0  0
 15 16  1  0  0  0  0
 17 15  1  0  0  0  0
 17 16  1  0  0  0  0
 18 15  1  0  0  0  0
 18 19  2  0  0  0  0
 20 14  1  0  0  0  0
 20 22  1  0  0  0  0
 21 20  2  0  0  0  0
 23 27  1  0  0  0  0
 23  1  1  0  0  0  0
 24 27  2  0  0  0  0
 25 28  2  0  0  0  0
 25 29  1  0  0  0  0
 26 28  1  0  0  0  0
 28 24  1  0  0  0  0
 29 23  2  0  0  0  0
 31 32  1  0  0  0  0
 32 30  1  1  0  0  0
 32 33  1  0  0  0  0
 33 41  1  6  0  0  0
 34 31  1  6  0  0  0
 34 32  1  0  0  0  0
 34 33  1  0  0  0  0
 37 42  1  0  0  0  0
 38 36  2  0  0  0  0
 39 35  2  0  0  0  0
 40 42  2  0  0  0  0
 40 38  1  0  0  0  0
 41 36  1  1  0  0  0
 41 35  1  0  0  0  0
 42 39  1  0  0  0  0
M  END
>  <MODEL>
4

>  <REMARK>
 VINA RESULT:      -7.6      2.245      3.088
  Name = 
  12 active torsions:
  status: ('A' for Active; 'I' for Inactive)
    1  A    between atoms: C_3  and  C_8
    2  A    between atoms: C_6  and  C_32
    3  A    between atoms: C_8  and  O_11
    4  A    between atoms: C_8  and  C_39
    5  A    between atoms: O_11  and  C_12
    6  A    between atoms: N_19  and  C_27
    7  A    between atoms: N_19  and  C_29
    8  A    between atoms: C_20  and  C_41
    9  A    between atoms: C_24  and  C_38
   10  A    between atoms: C_27  and  C_32
   11  A    between atoms: C_29  and  C_38
   12  A    between atoms: C_32  and  C_35
                            x       y       z     vdW  Elec       q    Type
                         _______ _______ _______ _____ _____    ______ ____

>  <TORSDO>
F 12

$$$$
=
 OpenBabel10222419303D

 42 47  0  0  1  0  0  0  0  0999 V2000
  185.0770  177.5480  137.9900 C   0  0  2  0  0  3  0  0  0  0  0  0
  184.0640  178.5040  140.1430 C   0  0  0  0  0  0  0  0  0  0  0  0
  182.8810  178.2820  139.7650 O   0  0  0  0  0  0  0  0  0  0  0  0
  183.2820  178.7060  142.5190 C   0  0  0  0  0  1  0  0  0  0  0  0
  186.7530  178.7420  141.0810 C   0  0  0  0  0  0  0  0  0  0  0  0
  185.6360  179.3140  141.9220 C   0  0  0  0  0  2  0  0  0  0  0  0
  184.3410  178.7700  141.5250 N   0  0  0  0  0  0  0  0  0  0  0  0
  186.5300  178.4000  139.8040 C   0  0  0  0  0  3  0  0  0  0  0  0
  185.1910  178.5650  139.1360 C   0  0  1  0  0  3  0  0  0  0  0  0
  188.1480  178.5670  141.6210 C   0  0  0  0  0  2  0  0  0  0  0  0
  188.7600  177.2010  141.3320 C   0  0  0  0  0  2  0  0  0  0  0  0
  189.5460  176.7500  142.4680 N   0  0  0  0  0  2  0  0  0  0  0  0
  189.4420  177.7700  143.5010 C   0  0  0  0  0  2  0  0  0  0  0  0
  189.8580  177.2210  144.8660 C   0  0  2  0  0  3  0  0  0  0  0  0
  187.5450  177.6800  145.7690 N   0  0  0  0  0  0  0  0  0  0  0  0
  186.1770  177.9210  146.2290 N   0  0  0  0  0  2  0  0  0  0  0  0
  186.3500  177.4770  144.9700 C   0  0  0  0  0  2  0  0  0  0  0  0
  188.9530  177.6640  145.9740 C   0  0  0  0  0  0  0  0  0  0  0  0
  189.4240  178.0210  147.0860 O   0  0  0  0  0  0  0  0  0  0  0  0
  191.3010  177.4750  145.1730 C   0  0  0  0  0  0  0  0  0  0  0  0
  191.9190  178.3780  144.5530 O   0  0  0  0  0  0  0  0  0  0  0  0
  191.9650  176.7250  146.1360 O   0  0  0  0  0  1  0  0  0  0  0  0
  186.3970  177.2960  137.3310 C   0  0  0  0  0  0  0  0  0  0  0  0
  188.2310  175.8200  136.7370 C   0  0  0  0  0  3  0  0  0  0  0  0
  188.2510  178.1280  136.0060 C   0  0  0  0  0  3  0  0  0  0  0  0
  190.1010  176.6520  135.4060 N   0  0  0  0  0  1  0  0  0  0  0  0
  187.0050  176.0320  137.3730 C   0  0  0  0  0  3  0  0  0  0  0  0
  188.8550  176.8680  136.0530 C   0  0  0  0  0  0  0  0  0  0  0  0
  187.0240  178.3410  136.6420 C   0  0  0  0  0  3  0  0  0  0  0  0
  184.0970  177.9090  137.0520 O   0  0  0  0  0  0  0  0  0  0  0  0
  182.9300  176.9550  135.1670 C   0  0  0  0  0  2  0  0  0  0  0  0
  183.7090  176.7140  136.4420 C   0  0  1  0  0  0  0  0  0  0  0  0
  182.9680  175.8030  137.4040 C   0  0  1  0  0  3  0  0  0  0  0  0
  182.1830  176.6860  136.4540 C   0  0  2  0  0  3  0  0  0  0  0  0
  184.1740  173.6610  137.4870 C   0  0  0  0  0  3  0  0  0  0  0  0
  181.7290  173.6770  137.2750 C   0  0  0  0  0  3  0  0  0  0  0  0
  184.3880  170.4400  135.5900 C   0  0  0  0  0  1  0  0  0  0  0  0
  181.4660  172.4500  136.9400 N   0  0  0  0  0  0  0  0  0  0  0  0
  184.4780  172.4010  137.1850 C   0  0  0  0  0  3  0  0  0  0  0  0
  182.3350  171.5370  136.2460 C   0  0  0  0  0  3  0  0  0  0  0  0
  182.9990  174.3680  136.9020 C   0  0  1  0  0  3  0  0  0  0  0  0
  183.6740  171.5220  136.3150 C   0  0  0  0  0  0  0  0  0  0  0  0
  1 30  1  6  0  0  0
  2  7  1  0  0  0  0
  3  2  2  0  0  0  0
  5 10  1  0  0  0  0
  5  6  1  0  0  0  0
  7  6  1  0  0  0  0
  7  4  1  0  0  0  0
  8  5  2  0  0  0  0
  9  1  1  6  0  0  0
  9  8  1  0  0  0  0
  9  2  1  0  0  0  0
 11 10  1  0  0  0  0
 11 12  1  0  0  0  0
 12 13  1  0  0  0  0
 14 13  1  6  0  0  0
 14 20  1  0  0  0  0
 14 18  1  0  0  0  0
 15 18  1  0  0  0  0
 15 16  1  0  0  0  0
 17 15  1  0  0  0  0
 17 16  1  0  0  0  0
 18 19  2  0  0  0  0
 20 22  1  0  0  0  0
 21 20  2  0  0  0  0
 23 27  1  0  0  0  0
 23  1  1  0  0  0  0
 24 27  2  0  0  0  0
 25 28  2  0  0  0  0
 25 29  1  0  0  0  0
 26 28  1  0  0  0  0
 28 24  1  0  0  0  0
 29 23  2  0  0  0  0
 31 32  1  0  0  0  0
 32 34  1  0  0  0  0
 32 30  1  1  0  0  0
 32 33  1  0  0  0  0
 33 41  1  6  0  0  0
 34 31  1  6  0  0  0
 34 33  1  0  0  0  0
 37 42  1  0  0  0  0
 38 36  2  0  0  0  0
 39 35  2  0  0  0  0
 40 42  2  0  0  0  0
 40 38  1  0  0  0  0
 41 36  1  1  0  0  0
 41 35  1  0  0  0  0
 42 39  1  0  0  0  0
M  END
>  <MODEL>
5

>  <REMARK>
 VINA RESULT:      -7.3      2.751      4.039
  Name = 
  12 active torsions:
  status: ('A' for Active; 'I' for Inactive)
    1  A    between atoms: C_3  and  C_8
    2  A    between atoms: C_6  and  C_32
    3  A    between atoms: C_8  and  O_11
    4  A    between atoms: C_8  and  C_39
    5  A    between atoms: O_11  and  C_12
    6  A    between atoms: N_19  and  C_27
    7  A    between atoms: N_19  and  C_29
    8  A    between atoms: C_20  and  C_41
    9  A    between atoms: C_24  and  C_38
   10  A    between atoms: C_27  and  C_32
   11  A    between atoms: C_29  and  C_38
   12  A    between atoms: C_32  and  C_35
                            x       y       z     vdW  Elec       q    Type
                         _______ _______ _______ _____ _____    ______ ____

>  <TORSDO>
F 12

$$$$
=
 OpenBabel10222419303D

 42 47  0  0  1  0  0  0  0  0999 V2000
  188.0850  177.8560  142.6150 C   0  0  2  0  0  3  0  0  0  0  0  0
  186.6400  178.6250  140.6420 C   0  0  0  0  0  0  0  0  0  0  0  0
  187.5500  178.3950  139.7980 O   0  0  0  0  0  0  0  0  0  0  0  0
  184.9240  178.6320  138.8100 C   0  0  0  0  0  1  0  0  0  0  0  0
  184.5150  178.8730  142.5370 C   0  0  0  0  0  0  0  0  0  0  0  0
  184.2860  179.3500  141.1220 C   0  0  0  0  0  2  0  0  0  0  0  0
  185.2840  178.7980  140.2090 N   0  0  0  0  0  0  0  0  0  0  0  0
  185.7570  178.6170  142.9720 C   0  0  0  0  0  3  0  0  0  0  0  0
  186.9770  178.7910  142.1070 C   0  0  1  0  0  3  0  0  0  0  0  0
  183.3810  178.7000  143.5130 C   0  0  0  0  0  2  0  0  0  0  0  0
  182.0030  178.6430  142.8620 C   0  0  0  0  0  2  0  0  0  0  0  0
  181.1830  179.7510  143.3220 N   0  0  0  0  0  2  0  0  0  0  0  0
  179.9310  179.7010  142.5800 C   0  0  0  0  0  2  0  0  0  0  0  0
  180.1800  179.4580  141.0910 C   0  0  2  0  0  3  0  0  0  0  0  0
  180.9250  180.9140  139.1670 N   0  0  0  0  0  0  0  0  0  0  0  0
  181.4050  181.7050  138.0340 N   0  0  0  0  0  2  0  0  0  0  0  0
  182.0220  180.5360  138.2930 C   0  0  0  0  0  2  0  0  0  0  0  0
  180.0470  180.7020  140.2660 C   0  0  0  0  0  0  0  0  0  0  0  0
  179.1670  181.5610  140.5340 O   0  0  0  0  0  0  0  0  0  0  0  0
  179.3640  178.3270  140.5480 C   0  0  0  0  0  0  0  0  0  0  0  0
  179.0550  177.3660  141.3000 O   0  0  0  0  0  1  0  0  0  0  0  0
  178.9430  178.3240  139.2240 O   0  0  0  0  0  0  0  0  0  0  0  0
  188.0670  177.7240  144.1060 C   0  0  0  0  0  0  0  0  0  0  0  0
  189.1550  177.8940  146.2710 C   0  0  0  0  0  3  0  0  0  0  0  0
  186.8360  177.2080  146.1320 C   0  0  0  0  0  3  0  0  0  0  0  0
  187.9220  177.3730  148.3130 N   0  0  0  0  0  1  0  0  0  0  0  0
  189.2020  178.0110  144.8790 C   0  0  0  0  0  3  0  0  0  0  0  0
  187.9710  177.4920  146.8980 C   0  0  0  0  0  0  0  0  0  0  0  0
  186.8840  177.3250  144.7400 C   0  0  0  0  0  3  0  0  0  0  0  0
  189.3550  178.2310  142.1490 O   0  0  0  0  0  0  0  0  0  0  0  0
  190.4500  176.0940  142.3950 C   0  0  0  0  0  2  0  0  0  0  0  0
  189.8420  177.1180  141.4600 C   0  0  1  0  0  0  0  0  0  0  0  0
  190.7940  177.5150  140.3480 C   0  0  1  0  0  3  0  0  0  0  0  0
  191.3510  177.0820  141.6890 C   0  0  2  0  0  3  0  0  0  0  0  0
  189.8300  176.5250  138.3130 C   0  0  0  0  0  3  0  0  0  0  0  0
  192.2560  176.4450  138.6760 C   0  0  0  0  0  3  0  0  0  0  0  0
  189.9420  173.3210  136.3780 C   0  0  0  0  0  1  0  0  0  0  0  0
  192.6460  175.5790  137.7900 N   0  0  0  0  0  0  0  0  0  0  0  0
  189.6610  175.6500  137.3240 C   0  0  0  0  0  3  0  0  0  0  0  0
  191.8730  174.5010  137.2340 C   0  0  0  0  0  3  0  0  0  0  0  0
  190.9130  176.3930  139.3280 C   0  0  1  0  0  3  0  0  0  0  0  0
  190.5440  174.5010  137.0520 C   0  0  0  0  0  0  0  0  0  0  0  0
  1 30  1  1  0  0  0
  1 23  1  0  0  0  0
  2  9  1  0  0  0  0
  3  2  2  0  0  0  0
  4  7  1  0  0  0  0
  5  8  2  0  0  0  0
  5 10  1  0  0  0  0
  6  5  1  0  0  0  0
  7  2  1  0  0  0  0
  7  6  1  0  0  0  0
  9  1  1  1  0  0  0
  9  8  1  0  0  0  0
 11 12  1  0  0  0  0
 11 10  1  0  0  0  0
 13 12  1  0  0  0  0
 14 13  1  1  0  0  0
 15 18  1  0  0  0  0
 16 17  1  0  0  0  0
 16 15  1  0  0  0  0
 17 15  1  0  0  0  0
 18 19  2  0  0  0  0
 18 14  1  0  0  0  0
 20 14  1  0  0  0  0
 20 21  1  0  0  0  0
 22 20  2  0  0  0  0
 23 29  2  0  0  0  0
 23 27  1  0  0  0  0
 24 28  1  0  0  0  0
 25 28  2  0  0  0  0
 27 24  2  0  0  0  0
 28 26  1  0  0  0  0
 29 25  1  0  0  0  0
 32 34  1  0  0  0  0
 32 30  1  1  0  0  0
 32 31  1  0  0  0  0
 33 41  1  6  0  0  0
 33 32  1  0  0  0  0
 33 34  1  0  0  0  0
 34 31  1  6  0  0  0
 36 41  1  0  0  0  0
 37 42  1  0  0  0  0
 38 36  2  0  0  0  0
 39 35  2  0  0  0  0
 40 38  1  0  0  0  0
 41 35  1  6  0  0  0
 42 40  2  0  0  0  0
 42 39  1  0  0  0  0
M  END
>  <MODEL>
6

>  <REMARK>
 VINA RESULT:      -7.2      4.110      8.046
  Name = 
  12 active torsions:
  status: ('A' for Active; 'I' for Inactive)
    1  A    between atoms: C_3  and  C_8
    2  A    between atoms: C_6  and  C_32
    3  A    between atoms: C_8  and  O_11
    4  A    between atoms: C_8  and  C_39
    5  A    between atoms: O_11  and  C_12
    6  A    between atoms: N_19  and  C_27
    7  A    between atoms: N_19  and  C_29
    8  A    between atoms: C_20  and  C_41
    9  A    between atoms: C_24  and  C_38
   10  A    between atoms: C_27  and  C_32
   11  A    between atoms: C_29  and  C_38
   12  A    between atoms: C_32  and  C_35
                            x       y       z     vdW  Elec       q    Type
                         _______ _______ _______ _____ _____    ______ ____

>  <TORSDO>
F 12

$$$$
=
 OpenBabel10222419303D

 42 47  0  0  1  0  0  0  0  0999 V2000
  187.6310  178.0190  141.9920 C   0  0  2  0  0  3  0  0  0  0  0  0
  187.6470  178.2360  139.4370 C   0  0  0  0  0  0  0  0  0  0  0  0
  186.5430  178.8460  139.4140 O   0  0  0  0  0  0  0  0  0  0  0  0
  188.1650  179.0570  137.1230 C   0  0  0  0  0  1  0  0  0  0  0  0
  190.2680  177.1010  139.5450 C   0  0  0  0  0  0  0  0  0  0  0  0
  189.6320  177.3350  138.1940 C   0  0  0  0  0  2  0  0  0  0  0  0
  188.5090  178.2630  138.2910 N   0  0  0  0  0  0  0  0  0  0  0  0
  189.5240  177.1430  140.6590 C   0  0  0  0  0  3  0  0  0  0  0  0
  188.0430  177.4120  140.6410 C   0  0  1  0  0  3  0  0  0  0  0  0
  191.7320  176.7820  139.6910 C   0  0  0  0  0  2  0  0  0  0  0  0
  192.3610  176.1570  138.4510 C   0  0  0  0  0  2  0  0  0  0  0  0
  193.8030  176.3350  138.4720 N   0  0  0  0  0  2  0  0  0  0  0  0
  194.3860  175.2540  137.6900 C   0  0  0  0  0  2  0  0  0  0  0  0
  195.0560  174.2170  138.5920 C   0  0  2  0  0  3  0  0  0  0  0  0
  197.4870  174.6440  138.0630 N   0  0  0  0  0  0  0  0  0  0  0  0
  198.8810  174.8780  137.6850 N   0  0  0  0  0  2  0  0  0  0  0  0
  198.0280  174.4730  136.7260 C   0  0  0  0  0  2  0  0  0  0  0  0
  196.4340  174.6180  139.0190 C   0  0  0  0  0  0  0  0  0  0  0  0
  196.6720  174.9320  140.2150 O   0  0  0  0  0  0  0  0  0  0  0  0
  195.0180  172.8390  138.0100 C   0  0  0  0  0  0  0  0  0  0  0  0
  195.3560  171.8550  138.7180 O   0  0  0  0  0  1  0  0  0  0  0  0
  194.6150  172.6330  136.6970 O   0  0  0  0  0  0  0  0  0  0  0  0
  188.7080  177.8790  143.0220 C   0  0  0  0  0  0  0  0  0  0  0  0
  190.8640  178.5080  143.9440 C   0  0  0  0  0  3  0  0  0  0  0  0
  189.5120  176.8360  145.0590 C   0  0  0  0  0  3  0  0  0  0  0  0
  191.6810  177.4590  145.9930 N   0  0  0  0  0  1  0  0  0  0  0  0
  189.8800  178.6480  142.9620 C   0  0  0  0  0  3  0  0  0  0  0  0
  190.6800  177.6020  144.9930 C   0  0  0  0  0  0  0  0  0  0  0  0
  188.5280  176.9750  144.0760 C   0  0  0  0  0  3  0  0  0  0  0  0
  186.4080  177.5070  142.4560 O   0  0  0  0  0  0  0  0  0  0  0  0
  185.4890  179.6450  143.0950 C   0  0  0  0  0  2  0  0  0  0  0  0
  185.4540  178.4760  142.1350 C   0  0  1  0  0  0  0  0  0  0  0  0
  184.0650  177.8780  142.0080 C   0  0  1  0  0  3  0  0  0  0  0  0
  184.4790  178.5390  143.3070 C   0  0  2  0  0  3  0  0  0  0  0  0
  183.3030  178.4810  139.7490 C   0  0  0  0  0  3  0  0  0  0  0  0
  181.7490  178.6380  141.6420 C   0  0  0  0  0  3  0  0  0  0  0  0
  181.5540  181.2860  137.9890 C   0  0  0  0  0  1  0  0  0  0  0  0
  180.7690  179.3310  141.1470 N   0  0  0  0  0  0  0  0  0  0  0  0
  182.6660  179.1640  138.7990 C   0  0  0  0  0  3  0  0  0  0  0  0
  180.8410  180.2890  140.0750 C   0  0  0  0  0  3  0  0  0  0  0  0
  183.1660  178.8000  141.1990 C   0  0  1  0  0  3  0  0  0  0  0  0
  181.6990  180.2490  139.0440 C   0  0  0  0  0  0  0  0  0  0  0  0
  1 30  1  1  0  0  0
  1 23  1  0  0  0  0
  2  9  1  0  0  0  0
  3  2  2  0  0  0  0
  4  7  1  0  0  0  0
  5 10  1  0  0  0  0
  5  8  2  0  0  0  0
  6  7  1  0  0  0  0
  6  5  1  0  0  0  0
  7  2  1  0  0  0  0
  9  8  1  0  0  0  0
  9  1  1  1  0  0  0
 11 12  1  0  0  0  0
 11 10  1  0  0  0  0
 13 12  1  0  0  0  0
 14 13  1  6  0  0  0
 14 18  1  0  0  0  0
 15 18  1  0  0  0  0
 16 15  1  0  0  0  0
 17 16  1  0  0  0  0
 17 15  1  0  0  0  0
 18 19  2  0  0  0  0
 20 14  1  0  0  0  0
 20 21  1  0  0  0  0
 22 20  2  0  0  0  0
 23 29  1  0  0  0  0
 24 28  2  0  0  0  0
 27 23  2  0  0  0  0
 27 24  1  0  0  0  0
 28 25  1  0  0  0  0
 28 26  1  0  0  0  0
 29 25  2  0  0  0  0
 32 30  1  1  0  0  0
 32 31  1  0  0  0  0
 32 34  1  0  0  0  0
 33 41  1  6  0  0  0
 33 32  1  0  0  0  0
 33 34  1  0  0  0  0
 34 31  1  6  0  0  0
 37 42  1  0  0  0  0
 38 36  2  0  0  0  0
 39 42  1  0  0  0  0
 39 35  2  0  0  0  0
 40 38  1  0  0  0  0
 41 35  1  6  0  0  0
 41 36  1  0  0  0  0
 42 40  2  0  0  0  0
M  END
>  <MODEL>
7

>  <REMARK>
 VINA RESULT:      -7.1      3.804      8.933
  Name = 
  12 active torsions:
  status: ('A' for Active; 'I' for Inactive)
    1  A    between atoms: C_3  and  C_8
    2  A    between atoms: C_6  and  C_32
    3  A    between atoms: C_8  and  O_11
    4  A    between atoms: C_8  and  C_39
    5  A    between atoms: O_11  and  C_12
    6  A    between atoms: N_19  and  C_27
    7  A    between atoms: N_19  and  C_29
    8  A    between atoms: C_20  and  C_41
    9  A    between atoms: C_24  and  C_38
   10  A    between atoms: C_27  and  C_32
   11  A    between atoms: C_29  and  C_38
   12  A    between atoms: C_32  and  C_35
                            x       y       z     vdW  Elec       q    Type
                         _______ _______ _______ _____ _____    ______ ____

>  <TORSDO>
F 12

$$$$
=
 OpenBabel10222419303D

 42 47  0  0  1  0  0  0  0  0999 V2000
  190.4240  176.6900  138.8340 C   0  0  2  0  0  3  0  0  0  0  0  0
  190.9430  177.2980  141.2710 C   0  0  0  0  0  0  0  0  0  0  0  0
  192.1620  176.9940  141.1580 O   0  0  0  0  0  0  0  0  0  0  0  0
  191.4520  178.6350  143.3320 C   0  0  0  0  0  1  0  0  0  0  0  0
  188.2450  178.2320  141.4160 C   0  0  0  0  0  0  0  0  0  0  0  0
  189.0740  178.2030  142.6790 C   0  0  0  0  0  2  0  0  0  0  0  0
  190.4980  178.0960  142.3760 N   0  0  0  0  0  0  0  0  0  0  0  0
  188.6530  177.5690  140.3240 C   0  0  0  0  0  3  0  0  0  0  0  0
  189.9260  176.7650  140.2860 C   0  0  1  0  0  3  0  0  0  0  0  0
  186.9330  178.9660  141.3400 C   0  0  0  0  0  2  0  0  0  0  0  0
  185.8000  178.2960  142.1090 C   0  0  0  0  0  2  0  0  0  0  0  0
  185.3360  179.1620  143.1800 N   0  0  0  0  0  2  0  0  0  0  0  0
  185.1280  178.3270  144.3540 C   0  0  0  0  0  2  0  0  0  0  0  0
  186.1860  178.6030  145.4230 C   0  0  2  0  0  3  0  0  0  0  0  0
  188.0870  177.4910  146.6580 N   0  0  0  0  0  0  0  0  0  0  0  0
  189.1830  176.8990  147.4250 N   0  0  0  0  0  2  0  0  0  0  0  0
  188.6490  178.0500  147.8750 C   0  0  0  0  0  2  0  0  0  0  0  0
  187.1810  177.4920  145.5610 C   0  0  0  0  0  0  0  0  0  0  0  0
  187.2240  176.5580  144.7180 O   0  0  0  0  0  0  0  0  0  0  0  0
  185.5870  178.9970  146.7380 C   0  0  0  0  0  0  0  0  0  0  0  0
  186.0210  180.0120  147.3400 O   0  0  0  0  0  1  0  0  0  0  0  0
  184.5560  178.2530  147.3000 O   0  0  0  0  0  0  0  0  0  0  0  0
  189.3670  177.1000  137.8570 C   0  0  0  0  0  0  0  0  0  0  0  0
  188.1100  178.8060  136.6720 C   0  0  0  0  0  3  0  0  0  0  0  0
  187.6700  176.4630  136.2430 C   0  0  0  0  0  3  0  0  0  0  0  0
  186.3990  178.1730  135.0490 N   0  0  0  0  0  1  0  0  0  0  0  0
  189.0930  178.4510  137.6000 C   0  0  0  0  0  3  0  0  0  0  0  0
  187.3980  177.8120  135.9930 C   0  0  0  0  0  0  0  0  0  0  0  0
  188.6530  176.1080  137.1710 C   0  0  0  0  0  3  0  0  0  0  0  0
  190.9550  175.4300  138.5170 O   0  0  0  0  0  0  0  0  0  0  0  0
  192.2460  176.7380  136.9530 C   0  0  0  0  0  2  0  0  0  0  0  0
  192.2420  175.6800  138.0340 C   0  0  1  0  0  0  0  0  0  0  0  0
  192.9360  174.4050  137.5930 C   0  0  1  0  0  3  0  0  0  0  0  0
  192.2480  175.2770  136.5620 C   0  0  2  0  0  3  0  0  0  0  0  0
  195.0970  173.6990  138.5320 C   0  0  0  0  0  3  0  0  0  0  0  0
  194.9490  174.3490  136.1700 C   0  0  0  0  0  3  0  0  0  0  0  0
  198.6460  174.8790  138.7080 C   0  0  0  0  0  1  0  0  0  0  0  0
  196.1960  174.4870  135.8360 N   0  0  0  0  0  0  0  0  0  0  0  0
  196.4110  173.6960  138.7450 C   0  0  0  0  0  3  0  0  0  0  0  0
  197.2930  174.8270  136.7040 C   0  0  0  0  0  3  0  0  0  0  0  0
  194.4420  174.6110  137.5510 C   0  0  1  0  0  3  0  0  0  0  0  0
  197.3890  174.5140  138.0050 C   0  0  0  0  0  0  0  0  0  0  0  0
  1 30  1  6  0  0  0
  2  7  1  0  0  0  0
  3  2  2  0  0  0  0
  5  6  1  0  0  0  0
  7  6  1  0  0  0  0
  7  4  1  0  0  0  0
  8  5  2  0  0  0  0
  9  1  1  6  0  0  0
  9  8  1  0  0  0  0
  9  2  1  0  0  0  0
 10  5  1  0  0  0  0
 10 11  1  0  0  0  0
 11 12  1  0  0  0  0
 12 13  1  0  0  0  0
 14 13  1  6  0  0  0
 14 18  1  0  0  0  0
 14 20  1  0  0  0  0
 15 16  1  0  0  0  0
 15 17  1  0  0  0  0
 16 17  1  0  0  0  0
 18 15  1  0  0  0  0
 19 18  2  0  0  0  0
 20 22  2  0  0  0  0
 20 21  1  0  0  0  0
 23  1  1  0  0  0  0
 24 27  2  0  0  0  0
 25 29  1  0  0  0  0
 26 28  1  0  0  0  0
 27 23  1  0  0  0  0
 28 25  2  0  0  0  0
 28 24  1  0  0  0  0
 29 23  2  0  0  0  0
 31 32  1  0  0  0  0
 32 30  1  1  0  0  0
 33 41  1  6  0  0  0
 33 32  1  0  0  0  0
 34 31  1  6  0  0  0
 34 33  1  0  0  0  0
 34 32  1  0  0  0  0
 35 39  2  0  0  0  0
 38 36  2  0  0  0  0
 38 40  1  0  0  0  0
 40 42  2  0  0  0  0
 41 36  1  6  0  0  0
 41 35  1  0  0  0  0
 42 37  1  0  0  0  0
 42 39  1  0  0  0  0
M  END
>  <MODEL>
8

>  <REMARK>
 VINA RESULT:      -7.0      2.642      5.978
  Name = 
  12 active torsions:
  status: ('A' for Active; 'I' for Inactive)
    1  A    between atoms: C_3  and  C_8
    2  A    between atoms: C_6  and  C_32
    3  A    between atoms: C_8  and  O_11
    4  A    between atoms: C_8  and  C_39
    5  A    between atoms: O_11  and  C_12
    6  A    between atoms: N_19  and  C_27
    7  A    between atoms: N_19  and  C_29
    8  A    between atoms: C_20  and  C_41
    9  A    between atoms: C_24  and  C_38
   10  A    between atoms: C_27  and  C_32
   11  A    between atoms: C_29  and  C_38
   12  A    between atoms: C_32  and  C_35
                            x       y       z     vdW  Elec       q    Type
                         _______ _______ _______ _____ _____    ______ ____

>  <TORSDO>
F 12

$$$$
=
 OpenBabel10222419303D

 42 47  0  0  1  0  0  0  0  0999 V2000
  179.9540  178.5870  140.2660 C   0  0  2  0  0  3  0  0  0  0  0  0
  180.5230  176.1850  139.5710 C   0  0  0  0  0  0  0  0  0  0  0  0
  179.3540  175.7690  139.8020 O   0  0  0  0  0  0  0  0  0  0  0  0
  180.9780  174.1630  138.1570 C   0  0  0  0  0  1  0  0  0  0  0  0
  183.0760  177.2130  138.7980 C   0  0  0  0  0  0  0  0  0  0  0  0
  182.8470  175.7200  138.7470 C   0  0  0  0  0  2  0  0  0  0  0  0
  181.4220  175.4010  138.7750 N   0  0  0  0  0  0  0  0  0  0  0  0
  182.2210  178.0050  139.4620 C   0  0  0  0  0  3  0  0  0  0  0  0
  181.0130  177.4760  140.1870 C   0  0  1  0  0  3  0  0  0  0  0  0
  184.2700  177.8590  138.1470 C   0  0  0  0  0  2  0  0  0  0  0  0
  184.8650  177.0520  136.9990 C   0  0  0  0  0  2  0  0  0  0  0  0
  186.3030  176.9200  137.1690 N   0  0  0  0  0  2  0  0  0  0  0  0
  186.7330  177.9750  138.0740 C   0  0  0  0  0  2  0  0  0  0  0  0
  188.1350  177.7000  138.6180 C   0  0  2  0  0  3  0  0  0  0  0  0
  189.3720  177.6000  140.8170 N   0  0  0  0  0  0  0  0  0  0  0  0
  190.1380  177.4980  142.0600 N   0  0  0  0  0  2  0  0  0  0  0  0
  190.5420  176.7600  141.0070 C   0  0  0  0  0  2  0  0  0  0  0  0
  188.3030  178.1310  140.0430 C   0  0  0  0  0  0  0  0  0  0  0  0
  187.5090  178.9580  140.5630 O   0  0  0  0  0  0  0  0  0  0  0  0
  189.2130  178.2390  137.7300 C   0  0  0  0  0  0  0  0  0  0  0  0
  190.2000  177.5150  137.4400 O   0  0  0  0  0  1  0  0  0  0  0  0
  189.1370  179.5300  137.2230 O   0  0  0  0  0  0  0  0  0  0  0  0
  180.1850  179.6560  139.2440 C   0  0  0  0  0  0  0  0  0  0  0  0
  181.2690  181.7010  138.5120 C   0  0  0  0  0  3  0  0  0  0  0  0
  179.7350  180.5480  137.0330 C   0  0  0  0  0  3  0  0  0  0  0  0
  180.8180  182.6070  136.2890 N   0  0  0  0  0  1  0  0  0  0  0  0
  181.0600  180.7240  139.4890 C   0  0  0  0  0  3  0  0  0  0  0  0
  180.6060  181.6130  137.2830 C   0  0  0  0  0  0  0  0  0  0  0  0
  179.5260  179.5710  138.0110 C   0  0  0  0  0  3  0  0  0  0  0  0
  179.8440  179.1280  141.5570 O   0  0  0  0  0  0  0  0  0  0  0  0
  180.2130  177.2980  143.0880 C   0  0  0  0  0  2  0  0  0  0  0  0
  180.8040  178.4620  142.3220 C   0  0  1  0  0  0  0  0  0  0  0  0
  181.5660  179.4150  143.2250 C   0  0  1  0  0  3  0  0  0  0  0  0
  180.3980  178.6280  143.7840 C   0  0  2  0  0  3  0  0  0  0  0  0
  183.9090  179.0140  142.5900 C   0  0  0  0  0  3  0  0  0  0  0  0
  183.3310  179.3980  144.9450 C   0  0  0  0  0  3  0  0  0  0  0  0
  186.7920  176.8400  143.5790 C   0  0  0  0  0  1  0  0  0  0  0  0
  184.4110  179.0270  145.5650 N   0  0  0  0  0  0  0  0  0  0  0  0
  185.1480  178.5360  142.6750 C   0  0  0  0  0  3  0  0  0  0  0  0
  185.3810  178.0650  145.1140 C   0  0  0  0  0  3  0  0  0  0  0  0
  182.8870  178.7940  143.6530 C   0  0  1  0  0  3  0  0  0  0  0  0
  185.6960  177.8090  143.8350 C   0  0  0  0  0  0  0  0  0  0  0  0
  1 30  1  1  0  0  0
  2  3  2  0  0  0  0
  2  9  1  0  0  0  0
  4  7  1  0  0  0  0
  5  8  2  0  0  0  0
  6  7  1  0  0  0  0
  6  5  1  0  0  0  0
  7  2  1  0  0  0  0
  8  9  1  0  0  0  0
  9  1  1  6  0  0  0
 10  5  1  0  0  0  0
 11 12  1  0  0  0  0
 11 10  1  0  0  0  0
 12 13  1  0  0  0  0
 14 13  1  6  0  0  0
 14 18  1  0  0  0  0
 15 17  1  0  0  0  0
 15 16  1  0  0  0  0
 17 16  1  0  0  0  0
 18 19  2  0  0  0  0
 18 15  1  0  0  0  0
 20 14  1  0  0  0  0
 21 20  1  0  0  0  0
 22 20  2  0  0  0  0
 23 27  1  0  0  0  0
 23  1  1  0  0  0  0
 24 27  2  0  0  0  0
 25 28  2  0  0  0  0
 25 29  1  0  0  0  0
 26 28  1  0  0  0  0
 28 24  1  0  0  0  0
 29 23  2  0  0  0  0
 32 30  1  6  0  0  0
 32 31  1  0  0  0  0
 32 33  1  0  0  0  0
 32 34  1  0  0  0  0
 33 41  1  1  0  0  0
 33 34  1  0  0  0  0
 34 31  1  1  0  0  0
 35 39  2  0  0  0  0
 36 38  2  0  0  0  0
 37 42  1  0  0  0  0
 39 42  1  0  0  0  0
 40 38  1  0  0  0  0
 41 35  1  6  0  0  0
 41 36  1  0  0  0  0
 42 40  2  0  0  0  0
M  END
>  <MODEL>
9

>  <REMARK>
 VINA RESULT:      -7.0      5.010     10.036
  Name = 
  12 active torsions:
  status: ('A' for Active; 'I' for Inactive)
    1  A    between atoms: C_3  and  C_8
    2  A    between atoms: C_6  and  C_32
    3  A    between atoms: C_8  and  O_11
    4  A    between atoms: C_8  and  C_39
    5  A    between atoms: O_11  and  C_12
    6  A    between atoms: N_19  and  C_27
    7  A    between atoms: N_19  and  C_29
    8  A    between atoms: C_20  and  C_41
    9  A    between atoms: C_24  and  C_38
   10  A    between atoms: C_27  and  C_32
   11  A    between atoms: C_29  and  C_38
   12  A    between atoms: C_32  and  C_35
                            x       y       z     vdW  Elec       q    Type
                         _______ _______ _______ _____ _____    ______ ____

>  <TORSDO>
F 12

$$$$
