=
 OpenBabel10222418353D

 62 71  0  0  1  0  0  0  0  0999 V2000
  184.8190  179.5090  140.4620 C   0  0  0  0  0  2  0  0  0  0  0  0
  181.5210  179.1880  139.2080 C   0  0  2  0  0  0  0  0  0  0  0  0
  181.3070  178.9820  141.6310 O   0  0  0  0  0  0  0  0  0  0  0  0
  180.5380  180.1650  136.6990 C   0  0  2  0  0  3  0  0  0  0  0  0
  180.4660  180.9710  135.5640 O   0  0  0  0  0  1  0  0  0  0  0  0
  180.7310  181.0270  137.9270 C   0  0  0  0  0  2  0  0  0  0  0  0
  184.0590  178.6660  139.4360 C   0  0  1  0  0  3  0  0  0  0  0  0
  182.0800  178.3540  142.6320 C   0  0  0  0  0  2  0  0  0  0  0  0
  183.9930  179.7530  141.7150 C   0  0  0  0  0  2  0  0  0  0  0  0
  183.5760  178.4130  142.3360 C   0  0  1  0  0  3  0  0  0  0  0  0
  182.9580  179.4780  138.7500 C   0  0  1  0  0  3  0  0  0  0  0  0
  181.7390  179.2470  136.5990 C   0  0  0  0  0  2  0  0  0  0  0  0
  180.5640  180.2420  139.0850 O   0  0  0  0  0  0  0  0  0  0  0  0
  181.2380  178.2560  140.4070 C   0  0  2  0  0  3  0  0  0  0  0  0
  182.0630  178.5370  137.9220 C   0  0  2  0  0  3  0  0  0  0  0  0
  184.4050  177.9370  143.5350 C   0  0  1  0  0  3  0  0  0  0  0  0
  185.6360  178.7900  143.7120 C   0  0  1  0  0  3  0  0  0  0  0  0
  185.1850  179.3030  144.9420 O   0  0  0  0  0  0  0  0  0  0  0  0
  183.9930  178.5640  144.8440 C   0  0  0  0  0  2  0  0  0  0  0  0
  186.7340  176.4940  143.6110 C   0  0  0  0  0  1  0  0  0  0  0  0
  187.9540  178.4740  142.8240 C   0  0  0  0  0  1  0  0  0  0  0  0
  186.9490  177.9850  143.8600 C   0  0  0  0  0  0  0  0  0  0  0  0
  191.6620  176.2260  146.0230 O   0  0  0  0  0  0  0  0  0  0  0  0
  190.4270  177.2890  147.8160 C   0  0  0  0  0  2  0  0  0  0  0  0
  189.2950  176.6810  146.9850 C   0  0  1  0  0  3  0  0  0  0  0  0
  187.9400  177.1590  147.5090 C   0  0  0  0  0  2  0  0  0  0  0  0
  188.9910  178.2010  145.2540 O   0  0  0  0  0  0  0  0  0  0  0  0
  186.9550  177.2880  146.3560 C   0  0  0  0  0  2  0  0  0  0  0  0
  191.7760  177.1070  147.1100 C   0  0  0  0  0  2  0  0  0  0  0  0
  190.8440  176.8830  145.0870 C   0  0  0  0  0  2  0  0  0  0  0  0
  189.4400  176.9420  145.5300 N   0  0  1  0  0  0  0  0  0  0  0  0
  187.5680  178.1820  145.2590 C   0  0  2  0  0  3  0  0  0  0  0  0
  187.1480  177.4000  137.8510 N   0  0  0  0  0  2  0  0  0  0  0  0
  184.9910  178.1140  138.4580 N   0  0  0  0  0  2  0  0  0  0  0  0
  186.3720  177.9080  138.7470 C   0  0  0  0  0  3  0  0  0  0  0  0
  181.8110  176.8280  140.3440 C   0  0  0  0  0  2  0  0  0  0  0  0
  181.9970  176.4100  138.9020 C   0  0  1  0  0  3  0  0  0  0  0  0
  182.8110  175.1280  138.8540 C   0  0  1  0  0  3  0  0  0  0  0  0
  181.3060  175.0830  138.6750 C   0  0  0  0  0  2  0  0  0  0  0  0
  182.4580  174.9630  136.5080 C   0  0  0  0  0  1  0  0  0  0  0  0
  183.4770  175.0370  137.5510 N   0  0  0  0  0  0  0  0  0  0  0  0
  184.4320  173.9090  137.3950 C   0  0  2  0  0  3  0  0  0  0  0  0
  185.2200  173.9920  136.0840 C   0  0  2  0  0  3  0  0  0  0  0  0
  184.1110  172.9450  136.2510 C   0  0  1  0  0  3  0  0  0  0  0  0
  186.6450  173.4350  136.2340 C   0  0  0  0  0  2  0  0  0  0  0  0
  187.7180  174.5180  136.1920 C   0  0  0  0  0  2  0  0  0  0  0  0
  188.8080  174.2610  137.2180 C   0  0  0  0  0  2  0  0  0  0  0  0
  192.4870  172.9290  135.3690 C   0  0  0  0  0  1  0  0  0  0  0  0
  191.8260  173.5710  136.4990 N   0  0  0  0  0  0  0  0  0  0  0  0
  190.6920  175.4620  138.3200 C   0  0  2  0  0  3  0  0  0  0  0  0
  192.6300  176.8700  137.9220 O   0  0  0  0  0  1  0  0  0  0  0  0
  192.1820  175.5450  137.9480 C   0  0  2  0  0  3  0  0  0  0  0  0
  190.8460  174.8970  134.6700 O   0  0  0  0  0  1  0  0  0  0  0  0
  190.9960  174.7120  136.0510 C   0  0  2  0  0  0  0  0  0  0  0  0
  192.3380  174.9600  136.5460 C   0  0  2  0  0  3  0  0  0  0  0  0
  189.9530  175.2480  137.0180 C   0  0  1  0  0  3  0  0  0  0  0  0
  191.0610  177.0390  140.2170 C   0  0  0  0  0  1  0  0  0  0  0  0
  190.1540  176.6820  139.0550 C   0  0  0  0  0  2  0  0  0  0  0  0
  184.5890  171.5440  136.6220 C   0  0  0  0  0  2  0  0  0  0  0  0
  183.2020  169.8420  135.3850 N   0  0  0  0  0  1  0  0  0  0  0  0
  184.3970  170.6070  135.4780 C   0  0  0  0  0  0  0  0  0  0  0  0
  185.3000  170.4650  134.6140 O   0  0  0  0  0  0  0  0  0  0  0  0
  1  9  1  0  0  0  0
  2 13  1  6  0  0  0
  2 14  1  0  0  0  0
  3  8  1  0  0  0  0
  4  5  1  6  0  0  0
  4  6  1  0  0  0  0
  6 13  1  0  0  0  0
  7 34  1  6  0  0  0
  7  1  1  0  0  0  0
 10  9  1  1  0  0  0
 10  8  1  0  0  0  0
 10 16  1  0  0  0  0
 11  2  1  0  0  0  0
 11  7  1  0  0  0  0
 12  4  1  0  0  0  0
 12 15  1  0  0  0  0
 14  3  1  0  0  0  0
 15 11  1  0  0  0  0
 15  2  1  0  0  0  0
 16 17  1  0  0  0  0
 16 19  1  0  0  0  0
 17 22  1  0  0  0  0
 17 18  1  0  0  0  0
 19 18  1  0  0  0  0
 20 22  1  0  0  0  0
 21 22  1  0  0  0  0
 22 32  1  0  0  0  0
 23 29  1  0  0  0  0
 25 26  1  0  0  0  0
 25 24  1  0  0  0  0
 27 32  1  0  0  0  0
 27 31  1  0  0  0  0
 28 26  1  0  0  0  0
 29 24  1  0  0  0  0
 30 31  1  0  0  0  0
 30 23  1  0  0  0  0
 31 25  1  0  0  0  0
 32 28  1  0  0  0  0
 33 35  2  0  0  0  0
 34 35  1  0  0  0  0
 36 14  1  0  0  0  0
 37 36  1  0  0  0  0
 38 37  1  0  0  0  0
 39 38  1  0  0  0  0
 39 37  1  0  0  0  0
 40 41  1  0  0  0  0
 41 38  1  0  0  0  0
 42 41  1  0  0  0  0
 43 45  1  0  0  0  0
 43 44  1  0  0  0  0
 43 42  1  0  0  0  0
 44 59  1  0  0  0  0
 44 42  1  0  0  0  0
 46 45  1  0  0  0  0
 46 47  1  0  0  0  0
 48 49  1  0  0  0  0
 49 55  1  0  0  0  0
 50 58  1  0  0  0  0
 51 52  1  0  0  0  0
 52 50  1  0  0  0  0
 53 54  1  0  0  0  0
 54 49  1  0  0  0  0
 54 55  1  0  0  0  0
 54 56  1  0  0  0  0
 55 52  1  0  0  0  0
 56 47  1  0  0  0  0
 56 50  1  0  0  0  0
 58 57  1  0  0  0  0
 60 61  1  0  0  0  0
 61 59  1  0  0  0  0
 62 61  2  0  0  0  0
M  END
>  <MODEL>
1

>  <REMARK>
 VINA RESULT:      -5.9      0.000      0.000
  Name = 
  15 active torsions:
  status: ('A' for Active; 'I' for Inactive)
    1  A    between atoms: C_4  and  C_33
    2  A    between atoms: C_7  and  C_37
    3  A    between atoms: C_8  and  N_27
    4  A    between atoms: C_13  and  N_27
    5  A    between atoms: C_18  and  C_22
    6  A    between atoms: C_22  and  C_26
    7  A    between atoms: C_25  and  C_55
    8  A    between atoms: C_26  and  C_60
    9  A    between atoms: C_28  and  C_37
   10  A    between atoms: C_30  and  N_41
   11  A    between atoms: C_33  and  C_49
   12  A    between atoms: C_34  and  C_45
   13  A    between atoms: C_47  and  C_51
   14  A    between atoms: C_51  and  C_59
   15  A    between atoms: C_60  and  C_62
                            x       y       z     vdW  Elec       q    Type
                         _______ _______ _______ _____ _____    ______ ____

>  <TORSDO>
F 15

$$$$
=
 OpenBabel10222418353D

 62 71  0  0  1  0  0  0  0  0999 V2000
  192.0000  175.6760  134.5940 C   0  0  0  0  0  2  0  0  0  0  0  0
  192.7890  174.6020  137.8750 C   0  0  2  0  0  0  0  0  0  0  0  0
  190.3720  174.3320  137.6780 O   0  0  0  0  0  0  0  0  0  0  0  0
  195.3300  173.6530  138.8040 C   0  0  2  0  0  3  0  0  0  0  0  0
  196.5990  173.0790  138.7370 O   0  0  0  0  0  1  0  0  0  0  0  0
  194.3480  172.8130  138.0180 C   0  0  0  0  0  2  0  0  0  0  0  0
  192.7290  176.2060  135.8290 C   0  0  1  0  0  3  0  0  0  0  0  0
  189.3470  175.0960  137.0780 C   0  0  0  0  0  2  0  0  0  0  0  0
  190.7480  174.8980  134.9670 C   0  0  0  0  0  2  0  0  0  0  0  0
  189.8090  175.7840  135.7960 C   0  0  1  0  0  3  0  0  0  0  0  0
  193.4520  175.0840  136.5770 C   0  0  1  0  0  3  0  0  0  0  0  0
  195.3570  175.0280  138.1690 C   0  0  0  0  0  2  0  0  0  0  0  0
  193.0360  173.2530  138.2800 O   0  0  0  0  0  0  0  0  0  0  0  0
  191.3930  175.1100  138.2950 C   0  0  2  0  0  3  0  0  0  0  0  0
  193.9540  175.6080  137.9340 C   0  0  2  0  0  3  0  0  0  0  0  0
  188.6320  176.4120  135.0410 C   0  0  1  0  0  3  0  0  0  0  0  0
  187.5330  176.8140  135.9930 C   0  0  1  0  0  3  0  0  0  0  0  0
  187.7080  178.1830  135.7220 O   0  0  0  0  0  0  0  0  0  0  0  0
  188.7660  177.9010  134.8380 C   0  0  0  0  0  2  0  0  0  0  0  0
  185.3970  177.3220  134.7030 C   0  0  0  0  0  1  0  0  0  0  0  0
  186.2680  175.0280  134.7800 C   0  0  0  0  0  1  0  0  0  0  0  0
  186.1270  176.3130  135.5860 C   0  0  0  0  0  0  0  0  0  0  0  0
  180.9570  174.5750  136.0720 O   0  0  0  0  0  0  0  0  0  0  0  0
  181.7370  175.0730  138.3120 C   0  0  0  0  0  2  0  0  0  0  0  0
  182.4780  176.1300  137.4890 C   0  0  1  0  0  3  0  0  0  0  0  0
  183.4910  176.8680  138.3650 C   0  0  0  0  0  2  0  0  0  0  0  0
  184.2990  174.9840  136.6120 O   0  0  0  0  0  0  0  0  0  0  0  0
  184.7060  177.2590  137.5360 C   0  0  0  0  0  2  0  0  0  0  0  0
  180.9810  174.1040  137.3950 C   0  0  0  0  0  2  0  0  0  0  0  0
  182.2910  174.5310  135.6310 C   0  0  0  0  0  2  0  0  0  0  0  0
  183.1160  175.5720  136.2690 N   0  0  1  0  0  0  0  0  0  0  0  0
  185.2640  176.0080  136.8280 C   0  0  2  0  0  3  0  0  0  0  0  0
  195.8410  178.0210  135.0020 N   0  0  0  0  0  2  0  0  0  0  0  0
  193.6580  177.2640  135.4430 N   0  0  0  0  0  2  0  0  0  0  0  0
  195.0660  177.0560  135.3660 C   0  0  0  0  0  3  0  0  0  0  0  0
  191.2050  176.6330  138.4270 C   0  0  0  0  0  2  0  0  0  0  0  0
  189.7360  176.9590  138.5930 C   0  0  1  0  0  3  0  0  0  0  0  0
  189.5400  177.7380  139.8830 C   0  0  1  0  0  3  0  0  0  0  0  0
  189.5520  178.4600  138.5500 C   0  0  0  0  0  2  0  0  0  0  0  0
  187.2620  178.2430  139.4240 C   0  0  0  0  0  1  0  0  0  0  0  0
  188.1600  177.5520  140.3430 N   0  0  0  0  0  0  0  0  0  0  0  0
  187.8830  177.9940  141.7360 C   0  0  2  0  0  3  0  0  0  0  0  0
  187.6000  176.8160  142.6730 C   0  0  2  0  0  3  0  0  0  0  0  0
  186.4560  177.7350  142.2230 C   0  0  1  0  0  3  0  0  0  0  0  0
  188.1030  177.0840  144.1000 C   0  0  0  0  0  2  0  0  0  0  0  0
  188.7530  178.4550  144.2580 C   0  0  0  0  0  2  0  0  0  0  0  0
  190.1380  178.3470  144.8710 C   0  0  0  0  0  2  0  0  0  0  0  0
  191.5430  177.4600  148.8670 C   0  0  0  0  0  1  0  0  0  0  0  0
  191.7390  177.3420  147.4270 N   0  0  0  0  0  0  0  0  0  0  0  0
  191.7510  176.4550  144.7090 C   0  0  2  0  0  3  0  0  0  0  0  0
  192.2640  174.2290  145.5340 O   0  0  0  0  0  1  0  0  0  0  0  0
  192.4010  175.5950  145.8060 C   0  0  2  0  0  3  0  0  0  0  0  0
  189.4120  176.5480  147.5700 O   0  0  0  0  0  1  0  0  0  0  0  0
  190.5490  176.7490  146.7760 C   0  0  2  0  0  0  0  0  0  0  0  0
  191.6750  175.8960  147.1150 C   0  0  2  0  0  3  0  0  0  0  0  0
  190.4200  176.9020  145.2690 C   0  0  1  0  0  3  0  0  0  0  0  0
  191.9100  176.6790  142.2300 C   0  0  0  0  0  1  0  0  0  0  0  0
  191.5670  175.7450  143.3740 C   0  0  0  0  0  2  0  0  0  0  0  0
  186.0590  178.8170  143.2220 C   0  0  0  0  0  2  0  0  0  0  0  0
  183.8800  178.7440  141.9590 N   0  0  0  0  0  1  0  0  0  0  0  0
  184.5970  179.0960  143.1360 C   0  0  0  0  0  0  0  0  0  0  0  0
  184.0010  179.6690  144.0840 O   0  0  0  0  0  0  0  0  0  0  0  0
  1  9  1  0  0  0  0
  1  7  1  0  0  0  0
  2 15  1  0  0  0  0
  2 13  1  1  0  0  0
  2 14  1  0  0  0  0
  3 14  1  0  0  0  0
  4  5  1  6  0  0  0
  6 13  1  0  0  0  0
  6  4  1  0  0  0  0
  7 34  1  6  0  0  0
  7 11  1  0  0  0  0
  8  3  1  0  0  0  0
 10  9  1  6  0  0  0
 10  8  1  0  0  0  0
 11  2  1  0  0  0  0
 11 15  1  0  0  0  0
 12  4  1  0  0  0  0
 14 36  1  0  0  0  0
 15 12  1  0  0  0  0
 16 10  1  0  0  0  0
 16 17  1  0  0  0  0
 18 17  1  0  0  0  0
 19 16  1  0  0  0  0
 19 18  1  0  0  0  0
 20 22  1  0  0  0  0
 21 22  1  0  0  0  0
 22 17  1  0  0  0  0
 22 32  1  0  0  0  0
 23 29  1  0  0  0  0
 25 24  1  0  0  0  0
 25 26  1  0  0  0  0
 27 32  1  0  0  0  0
 28 26  1  0  0  0  0
 29 24  1  0  0  0  0
 30 23  1  0  0  0  0
 30 31  1  0  0  0  0
 31 27  1  0  0  0  0
 31 25  1  0  0  0  0
 32 28  1  0  0  0  0
 33 35  2  0  0  0  0
 35 34  1  0  0  0  0
 36 37  1  0  0  0  0
 37 38  1  0  0  0  0
 38 41  1  0  0  0  0
 39 37  1  0  0  0  0
 39 38  1  0  0  0  0
 40 41  1  0  0  0  0
 41 42  1  0  0  0  0
 42 44  1  0  0  0  0
 42 43  1  0  0  0  0
 43 45  1  0  0  0  0
 44 43  1  0  0  0  0
 44 59  1  0  0  0  0
 45 46  1  0  0  0  0
 46 47  1  0  0  0  0
 47 56  1  0  0  0  0
 49 48  1  0  0  0  0
 50 56  1  0  0  0  0
 50 52  1  0  0  0  0
 51 52  1  0  0  0  0
 52 55  1  0  0  0  0
 54 55  1  0  0  0  0
 54 49  1  0  0  0  0
 54 53  1  0  0  0  0
 55 49  1  0  0  0  0
 56 54  1  0  0  0  0
 57 58  1  0  0  0  0
 58 50  1  0  0  0  0
 60 61  1  0  0  0  0
 61 59  1  0  0  0  0
 61 62  2  0  0  0  0
M  END
>  <MODEL>
2

>  <REMARK>
 VINA RESULT:      -5.6      2.760     10.632
  Name = 
  15 active torsions:
  status: ('A' for Active; 'I' for Inactive)
    1  A    between atoms: C_4  and  C_33
    2  A    between atoms: C_7  and  C_37
    3  A    between atoms: C_8  and  N_27
    4  A    between atoms: C_13  and  N_27
    5  A    between atoms: C_18  and  C_22
    6  A    between atoms: C_22  and  C_26
    7  A    between atoms: C_25  and  C_55
    8  A    between atoms: C_26  and  C_60
    9  A    between atoms: C_28  and  C_37
   10  A    between atoms: C_30  and  N_41
   11  A    between atoms: C_33  and  C_49
   12  A    between atoms: C_34  and  C_45
   13  A    between atoms: C_47  and  C_51
   14  A    between atoms: C_51  and  C_59
   15  A    between atoms: C_60  and  C_62
                            x       y       z     vdW  Elec       q    Type
                         _______ _______ _______ _____ _____    ______ ____

>  <TORSDO>
F 15

$$$$
=
 OpenBabel10222418353D

 62 71  0  0  1  0  0  0  0  0999 V2000
  183.7270  179.3360  139.6780 C   0  0  0  0  0  2  0  0  0  0  0  0
  180.3980  179.1700  138.4790 C   0  0  2  0  0  0  0  0  0  0  0  0
  180.1950  179.3720  140.9020 O   0  0  0  0  0  0  0  0  0  0  0  0
  179.4900  179.8390  135.8430 C   0  0  2  0  0  3  0  0  0  0  0  0
  179.4890  180.4600  134.5950 O   0  0  0  0  0  1  0  0  0  0  0  0
  179.7880  180.8580  136.9200 C   0  0  0  0  0  2  0  0  0  0  0  0
  182.8700  178.4270  138.7950 C   0  0  1  0  0  3  0  0  0  0  0  0
  180.9100  178.8310  141.9930 C   0  0  0  0  0  2  0  0  0  0  0  0
  182.9470  179.8590  140.8740 C   0  0  0  0  0  2  0  0  0  0  0  0
  182.4010  178.6850  141.6970 C   0  0  1  0  0  3  0  0  0  0  0  0
  181.8510  179.2320  137.9860 C   0  0  1  0  0  3  0  0  0  0  0  0
  180.5870  178.7950  135.8930 C   0  0  0  0  0  2  0  0  0  0  0  0
  179.5550  180.2880  138.1870 O   0  0  0  0  0  0  0  0  0  0  0  0
  180.0350  178.4740  139.8090 C   0  0  2  0  0  3  0  0  0  0  0  0
  180.8530  178.2730  137.3130 C   0  0  2  0  0  3  0  0  0  0  0  0
  183.1910  178.3200  142.9590 C   0  0  1  0  0  3  0  0  0  0  0  0
  184.3540  179.2590  143.1590 C   0  0  1  0  0  3  0  0  0  0  0  0
  183.8040  179.7950  144.3380 O   0  0  0  0  0  0  0  0  0  0  0  0
  182.6680  178.9760  144.2130 C   0  0  0  0  0  2  0  0  0  0  0  0
  185.5910  177.0350  143.2580 C   0  0  0  0  0  1  0  0  0  0  0  0
  186.7240  179.0330  142.3890 C   0  0  0  0  0  1  0  0  0  0  0  0
  185.7050  178.5500  143.4140 C   0  0  0  0  0  0  0  0  0  0  0  0
  189.9110  176.4850  146.2480 O   0  0  0  0  0  0  0  0  0  0  0  0
  188.7410  177.9950  147.7390 C   0  0  0  0  0  2  0  0  0  0  0  0
  187.5860  177.4350  146.9050 C   0  0  1  0  0  3  0  0  0  0  0  0
  186.2930  178.1860  147.2220 C   0  0  0  0  0  2  0  0  0  0  0  0
  187.6530  178.6830  144.9460 O   0  0  0  0  0  0  0  0  0  0  0  0
  185.4240  178.2720  145.9750 C   0  0  0  0  0  2  0  0  0  0  0  0
  190.0880  177.5030  147.1980 C   0  0  0  0  0  2  0  0  0  0  0  0
  189.2770  177.0960  145.1520 C   0  0  0  0  0  2  0  0  0  0  0  0
  187.8730  177.4330  145.4470 N   0  0  1  0  0  0  0  0  0  0  0  0
  186.2480  178.8760  144.8200 C   0  0  2  0  0  3  0  0  0  0  0  0
  184.3640  176.9080  135.7750 N   0  0  0  0  0  2  0  0  0  0  0  0
  183.7260  177.6330  137.9200 N   0  0  0  0  0  2  0  0  0  0  0  0
  183.5680  177.6150  136.5040 C   0  0  0  0  0  3  0  0  0  0  0  0
  180.4540  177.0020  139.9740 C   0  0  0  0  0  2  0  0  0  0  0  0
  180.1300  176.2290  138.7130 C   0  0  1  0  0  3  0  0  0  0  0  0
  181.0090  174.9910  138.6480 C   0  0  1  0  0  3  0  0  0  0  0  0
  179.5640  174.8770  139.0910 C   0  0  0  0  0  2  0  0  0  0  0  0
  179.8060  174.4400  136.6710 C   0  0  0  0  0  1  0  0  0  0  0  0
  181.1410  174.5780  137.2460 N   0  0  0  0  0  0  0  0  0  0  0  0
  181.9140  173.3290  137.0150 C   0  0  2  0  0  3  0  0  0  0  0  0
  183.0080  173.5110  135.9580 C   0  0  2  0  0  3  0  0  0  0  0  0
  181.7420  172.7110  135.6260 C   0  0  1  0  0  3  0  0  0  0  0  0
  184.2430  172.6460  136.2550 C   0  0  0  0  0  2  0  0  0  0  0  0
  185.5580  173.3490  135.9330 C   0  0  0  0  0  2  0  0  0  0  0  0
  186.4550  173.4400  137.1550 C   0  0  0  0  0  2  0  0  0  0  0  0
  187.8190  177.3060  135.7660 C   0  0  0  0  0  1  0  0  0  0  0  0
  187.6800  175.8750  135.5200 N   0  0  0  0  0  0  0  0  0  0  0  0
  188.1110  173.0550  135.3350 C   0  0  2  0  0  3  0  0  0  0  0  0
  190.3720  173.5410  134.5950 O   0  0  0  0  0  1  0  0  0  0  0  0
  189.0620  174.0310  134.6200 C   0  0  2  0  0  3  0  0  0  0  0  0
  188.7330  175.7880  137.7440 O   0  0  0  0  0  1  0  0  0  0  0  0
  188.2860  175.0860  136.6160 C   0  0  2  0  0  0  0  0  0  0  0  0
  189.0550  175.3370  135.4110 C   0  0  2  0  0  3  0  0  0  0  0  0
  187.9060  173.6190  136.7220 C   0  0  1  0  0  3  0  0  0  0  0  0
  187.4460  170.6610  135.5610 C   0  0  0  0  0  1  0  0  0  0  0  0
  188.6110  171.6180  135.4000 C   0  0  0  0  0  2  0  0  0  0  0  0
  181.8830  171.1950  135.7260 C   0  0  0  0  0  2  0  0  0  0  0  0
  179.5920  170.8770  136.7260 N   0  0  0  0  0  1  0  0  0  0  0  0
  180.5420  170.5440  135.7210 C   0  0  0  0  0  0  0  0  0  0  0  0
  180.2580  169.6790  134.8530 O   0  0  0  0  0  0  0  0  0  0  0  0
  1  9  1  0  0  0  0
  2 13  1  6  0  0  0
  2 14  1  0  0  0  0
  3  8  1  0  0  0  0
  4  5  1  6  0  0  0
  4 12  1  0  0  0  0
  4  6  1  0  0  0  0
  6 13  1  0  0  0  0
  7 34  1  6  0  0  0
  7  1  1  0  0  0  0
 10  9  1  1  0  0  0
 10  8  1  0  0  0  0
 10 16  1  0  0  0  0
 11  2  1  0  0  0  0
 11  7  1  0  0  0  0
 12 15  1  0  0  0  0
 14 36  1  0  0  0  0
 14  3  1  0  0  0  0
 15 11  1  0  0  0  0
 15  2  1  0  0  0  0
 16 17  1  0  0  0  0
 16 19  1  0  0  0  0
 17 22  1  0  0  0  0
 17 18  1  0  0  0  0
 19 18  1  0  0  0  0
 20 22  1  0  0  0  0
 21 22  1  0  0  0  0
 22 32  1  0  0  0  0
 23 29  1  0  0  0  0
 25 26  1  0  0  0  0
 25 24  1  0  0  0  0
 27 31  1  0  0  0  0
 28 26  1  0  0  0  0
 29 24  1  0  0  0  0
 30 31  1  0  0  0  0
 30 23  1  0  0  0  0
 31 25  1  0  0  0  0
 32 27  1  0  0  0  0
 32 28  1  0  0  0  0
 33 35  2  0  0  0  0
 35 34  1  0  0  0  0
 37 39  1  0  0  0  0
 37 36  1  0  0  0  0
 38 37  1  0  0  0  0
 38 39  1  0  0  0  0
 40 41  1  0  0  0  0
 41 38  1  0  0  0  0
 42 41  1  0  0  0  0
 43 45  1  0  0  0  0
 43 42  1  0  0  0  0
 44 59  1  0  0  0  0
 44 43  1  0  0  0  0
 44 42  1  0  0  0  0
 46 45  1  0  0  0  0
 46 47  1  0  0  0  0
 49 48  1  0  0  0  0
 49 54  1  0  0  0  0
 50 58  1  0  0  0  0
 50 56  1  0  0  0  0
 51 52  1  0  0  0  0
 52 50  1  0  0  0  0
 52 55  1  0  0  0  0
 54 56  1  0  0  0  0
 54 53  1  0  0  0  0
 55 49  1  0  0  0  0
 55 54  1  0  0  0  0
 56 47  1  0  0  0  0
 58 57  1  0  0  0  0
 61 59  1  0  0  0  0
 61 60  1  0  0  0  0
 62 61  2  0  0  0  0
M  END
>  <MODEL>
3

>  <REMARK>
 VINA RESULT:      -5.3      2.134      2.904
  Name = 
  15 active torsions:
  status: ('A' for Active; 'I' for Inactive)
    1  A    between atoms: C_4  and  C_33
    2  A    between atoms: C_7  and  C_37
    3  A    between atoms: C_8  and  N_27
    4  A    between atoms: C_13  and  N_27
    5  A    between atoms: C_18  and  C_22
    6  A    between atoms: C_22  and  C_26
    7  A    between atoms: C_25  and  C_55
    8  A    between atoms: C_26  and  C_60
    9  A    between atoms: C_28  and  C_37
   10  A    between atoms: C_30  and  N_41
   11  A    between atoms: C_33  and  C_49
   12  A    between atoms: C_34  and  C_45
   13  A    between atoms: C_47  and  C_51
   14  A    between atoms: C_51  and  C_59
   15  A    between atoms: C_60  and  C_62
                            x       y       z     vdW  Elec       q    Type
                         _______ _______ _______ _____ _____    ______ ____

>  <TORSDO>
F 15

$$$$
=
 OpenBabel10222418353D

 62 71  0  0  1  0  0  0  0  0999 V2000
  183.3610  179.8550  140.0390 C   0  0  0  0  0  2  0  0  0  0  0  0
  180.3370  179.2970  138.2800 C   0  0  2  0  0  0  0  0  0  0  0  0
  179.7870  178.9360  140.6300 O   0  0  0  0  0  0  0  0  0  0  0  0
  179.6460  180.3180  135.6920 C   0  0  2  0  0  3  0  0  0  0  0  0
  179.6640  181.1770  134.5940 O   0  0  0  0  0  1  0  0  0  0  0  0
  179.5650  181.1230  136.9690 C   0  0  0  0  0  2  0  0  0  0  0  0
  182.8530  179.0040  138.8740 C   0  0  1  0  0  3  0  0  0  0  0  0
  180.4600  178.3280  141.7110 C   0  0  0  0  0  2  0  0  0  0  0  0
  182.3370  179.9500  141.1590 C   0  0  0  0  0  2  0  0  0  0  0  0
  181.9700  178.5440  141.6520 C   0  0  1  0  0  3  0  0  0  0  0  0
  181.7900  179.7460  138.0610 C   0  0  1  0  0  3  0  0  0  0  0  0
  180.9360  179.5240  135.7400 C   0  0  0  0  0  2  0  0  0  0  0  0
  179.3080  180.2630  138.0540 O   0  0  0  0  0  0  0  0  0  0  0  0
  179.9750  178.2770  139.3810 C   0  0  2  0  0  3  0  0  0  0  0  0
  181.1290  178.7740  137.0670 C   0  0  2  0  0  3  0  0  0  0  0  0
  182.6550  178.0810  142.9440 C   0  0  1  0  0  3  0  0  0  0  0  0
  183.2000  179.2560  143.7160 C   0  0  1  0  0  3  0  0  0  0  0  0
  182.3040  179.0550  144.7830 O   0  0  0  0  0  0  0  0  0  0  0  0
  181.7160  177.9640  144.1190 C   0  0  0  0  0  2  0  0  0  0  0  0
  185.3510  180.4490  144.3740 C   0  0  0  0  0  1  0  0  0  0  0  0
  184.7240  178.3490  145.4800 C   0  0  0  0  0  1  0  0  0  0  0  0
  184.6750  179.0980  144.1540 C   0  0  0  0  0  0  0  0  0  0  0  0
  189.7030  176.9400  144.3480 O   0  0  0  0  0  0  0  0  0  0  0  0
  188.8950  176.6180  142.0860 C   0  0  0  0  0  2  0  0  0  0  0  0
  188.2490  177.9570  142.4540 C   0  0  1  0  0  3  0  0  0  0  0  0
  187.2620  178.3840  141.3670 C   0  0  0  0  0  2  0  0  0  0  0  0
  186.3820  177.3550  143.7000 O   0  0  0  0  0  0  0  0  0  0  0  0
  186.0990  179.1420  141.9900 C   0  0  0  0  0  2  0  0  0  0  0  0
  189.6110  176.0120  143.2980 C   0  0  0  0  0  2  0  0  0  0  0  0
  188.3830  177.1590  144.7750 C   0  0  0  0  0  2  0  0  0  0  0  0
  187.6100  177.9420  143.7950 N   0  0  1  0  0  0  0  0  0  0  0  0
  185.4800  178.2900  143.1160 C   0  0  2  0  0  3  0  0  0  0  0  0
  186.2820  178.4180  137.6250 N   0  0  0  0  0  2  0  0  0  0  0  0
  183.9710  178.5980  138.0290 N   0  0  0  0  0  2  0  0  0  0  0  0
  185.3300  178.8140  138.4020 C   0  0  0  0  0  3  0  0  0  0  0  0
  180.6920  176.9150  139.3480 C   0  0  0  0  0  2  0  0  0  0  0  0
  180.5900  176.3120  137.9640 C   0  0  1  0  0  3  0  0  0  0  0  0
  181.3500  174.9960  137.9350 C   0  0  1  0  0  3  0  0  0  0  0  0
  179.8380  175.0010  138.0460 C   0  0  0  0  0  2  0  0  0  0  0  0
  180.6770  175.1250  135.6580 C   0  0  0  0  0  1  0  0  0  0  0  0
  181.7530  174.7120  136.5540 N   0  0  0  0  0  0  0  0  0  0  0  0
  182.1230  173.3000  136.2710 C   0  0  2  0  0  3  0  0  0  0  0  0
  183.1930  173.1870  135.1800 C   0  0  2  0  0  3  0  0  0  0  0  0
  181.7390  172.8000  134.8760 C   0  0  1  0  0  3  0  0  0  0  0  0
  184.1300  171.9930  135.4170 C   0  0  0  0  0  2  0  0  0  0  0  0
  185.6060  172.3560  135.2920 C   0  0  0  0  0  2  0  0  0  0  0  0
  186.3040  172.3190  136.6400 C   0  0  0  0  0  2  0  0  0  0  0  0
  184.9670  175.9610  134.7210 C   0  0  0  0  0  1  0  0  0  0  0  0
  186.0450  175.0100  134.9680 N   0  0  0  0  0  0  0  0  0  0  0  0
  188.3240  173.6360  136.0130 C   0  0  2  0  0  3  0  0  0  0  0  0
  189.4120  175.7950  136.2320 O   0  0  0  0  0  1  0  0  0  0  0  0
  188.4610  175.0780  135.4980 C   0  0  2  0  0  3  0  0  0  0  0  0
  185.3630  175.4390  137.2950 O   0  0  0  0  0  1  0  0  0  0  0  0
  186.2720  174.8290  136.4200 C   0  0  2  0  0  0  0  0  0  0  0  0
  187.1060  175.7590  135.6790 C   0  0  2  0  0  3  0  0  0  0  0  0
  187.0740  173.6170  136.8630 C   0  0  1  0  0  3  0  0  0  0  0  0
  190.7780  173.1910  135.9520 C   0  0  0  0  0  1  0  0  0  0  0  0
  189.5240  173.1280  136.8020 C   0  0  0  0  0  2  0  0  0  0  0  0
  181.4370  171.3060  134.9410 C   0  0  0  0  0  2  0  0  0  0  0  0
  178.9330  171.2020  135.2070 N   0  0  0  0  0  1  0  0  0  0  0  0
  180.2270  171.0540  135.7770 C   0  0  0  0  0  0  0  0  0  0  0  0
  180.3460  170.7440  136.9900 O   0  0  0  0  0  0  0  0  0  0  0  0
  1  9  1  0  0  0  0
  2 13  1  6  0  0  0
  2 14  1  0  0  0  0
  3  8  1  0  0  0  0
  4  5  1  6  0  0  0
  4 12  1  0  0  0  0
  4  6  1  0  0  0  0
  6 13  1  0  0  0  0
  7 34  1  6  0  0  0
  7  1  1  0  0  0  0
 10  9  1  1  0  0  0
 10  8  1  0  0  0  0
 10 16  1  0  0  0  0
 11  2  1  0  0  0  0
 11  7  1  0  0  0  0
 12 15  1  0  0  0  0
 14  3  1  0  0  0  0
 15 11  1  0  0  0  0
 15  2  1  0  0  0  0
 16 17  1  0  0  0  0
 16 19  1  0  0  0  0
 17 22  1  0  0  0  0
 17 18  1  0  0  0  0
 19 18  1  0  0  0  0
 22 20  1  0  0  0  0
 22 21  1  0  0  0  0
 23 30  1  0  0  0  0
 24 25  1  0  0  0  0
 24 29  1  0  0  0  0
 25 31  1  0  0  0  0
 26 28  1  0  0  0  0
 26 25  1  0  0  0  0
 27 31  1  0  0  0  0
 28 32  1  0  0  0  0
 29 23  1  0  0  0  0
 31 30  1  0  0  0  0
 32 27  1  0  0  0  0
 32 22  1  0  0  0  0
 33 35  2  0  0  0  0
 34 35  1  0  0  0  0
 36 14  1  0  0  0  0
 37 39  1  0  0  0  0
 37 36  1  0  0  0  0
 38 37  1  0  0  0  0
 38 39  1  0  0  0  0
 40 41  1  0  0  0  0
 41 38  1  0  0  0  0
 42 41  1  0  0  0  0
 43 45  1  0  0  0  0
 43 42  1  0  0  0  0
 44 59  1  0  0  0  0
 44 43  1  0  0  0  0
 44 42  1  0  0  0  0
 46 45  1  0  0  0  0
 46 47  1  0  0  0  0
 47 56  1  0  0  0  0
 48 49  1  0  0  0  0
 49 55  1  0  0  0  0
 49 54  1  0  0  0  0
 50 58  1  0  0  0  0
 50 56  1  0  0  0  0
 52 55  1  0  0  0  0
 52 50  1  0  0  0  0
 52 51  1  0  0  0  0
 54 56  1  0  0  0  0
 54 53  1  0  0  0  0
 55 54  1  0  0  0  0
 57 58  1  0  0  0  0
 59 61  1  0  0  0  0
 60 61  1  0  0  0  0
 61 62  2  0  0  0  0
M  END
>  <MODEL>
4

>  <REMARK>
 VINA RESULT:      -5.1      2.267      3.458
  Name = 
  15 active torsions:
  status: ('A' for Active; 'I' for Inactive)
    1  A    between atoms: C_4  and  C_33
    2  A    between atoms: C_7  and  C_37
    3  A    between atoms: C_8  and  N_27
    4  A    between atoms: C_13  and  N_27
    5  A    between atoms: C_18  and  C_22
    6  A    between atoms: C_22  and  C_26
    7  A    between atoms: C_25  and  C_55
    8  A    between atoms: C_26  and  C_60
    9  A    between atoms: C_28  and  C_37
   10  A    between atoms: C_30  and  N_41
   11  A    between atoms: C_33  and  C_49
   12  A    between atoms: C_34  and  C_45
   13  A    between atoms: C_47  and  C_51
   14  A    between atoms: C_51  and  C_59
   15  A    between atoms: C_60  and  C_62
                            x       y       z     vdW  Elec       q    Type
                         _______ _______ _______ _____ _____    ______ ____

>  <TORSDO>
F 15

$$$$
=
 OpenBabel10222418353D

 62 71  0  0  1  0  0  0  0  0999 V2000
  189.5680  177.9150  140.5640 C   0  0  0  0  0  2  0  0  0  0  0  0
  190.0060  176.4420  137.3730 C   0  0  2  0  0  0  0  0  0  0  0  0
  187.8380  177.5580  137.2690 O   0  0  0  0  0  0  0  0  0  0  0  0
  192.4940  175.7230  136.1430 C   0  0  2  0  0  3  0  0  0  0  0  0
  193.8620  175.7570  135.8770 O   0  0  0  0  0  1  0  0  0  0  0  0
  191.9460  177.1320  136.1860 C   0  0  0  0  0  2  0  0  0  0  0  0
  189.8800  176.5410  139.9690 C   0  0  1  0  0  3  0  0  0  0  0  0
  186.7710  177.7100  138.1810 C   0  0  0  0  0  2  0  0  0  0  0  0
  188.5360  178.6670  139.7390 C   0  0  0  0  0  2  0  0  0  0  0  0
  187.2510  177.8360  139.6240 C   0  0  1  0  0  3  0  0  0  0  0  0
  190.7360  176.6610  138.7060 C   0  0  1  0  0  3  0  0  0  0  0  0
  192.2540  175.1040  137.5060 C   0  0  0  0  0  2  0  0  0  0  0  0
  190.5390  177.0910  136.2150 O   0  0  0  0  0  0  0  0  0  0  0  0
  188.4710  176.2830  137.3200 C   0  0  2  0  0  3  0  0  0  0  0  0
  190.8130  175.2920  138.0040 C   0  0  2  0  0  3  0  0  0  0  0  0
  186.1050  178.2300  140.5650 C   0  0  1  0  0  3  0  0  0  0  0  0
  186.6370  178.6950  141.8970 C   0  0  1  0  0  3  0  0  0  0  0  0
  186.1760  180.0090  141.6970 O   0  0  0  0  0  0  0  0  0  0  0  0
  185.6760  179.6690  140.4270 C   0  0  0  0  0  2  0  0  0  0  0  0
  184.4570  177.8930  142.9400 C   0  0  0  0  0  1  0  0  0  0  0  0
  186.5230  176.6100  143.2760 C   0  0  0  0  0  1  0  0  0  0  0  0
  185.9670  178.0200  143.1180 C   0  0  0  0  0  0  0  0  0  0  0  0
  189.0490  176.7830  147.4710 O   0  0  0  0  0  0  0  0  0  0  0  0
  187.8990  178.8500  147.9980 C   0  0  0  0  0  2  0  0  0  0  0  0
  186.8560  178.1310  147.1380 C   0  0  1  0  0  3  0  0  0  0  0  0
  185.6860  179.0670  146.8330 C   0  0  0  0  0  2  0  0  0  0  0  0
  187.5510  178.5340  144.9580 O   0  0  0  0  0  0  0  0  0  0  0  0
  185.1220  178.7590  145.4530 C   0  0  0  0  0  2  0  0  0  0  0  0
  189.2140  178.0630  148.0250 C   0  0  0  0  0  2  0  0  0  0  0  0
  188.7770  176.9930  146.1090 C   0  0  0  0  0  2  0  0  0  0  0  0
  187.4290  177.5510  145.8970 N   0  0  1  0  0  0  0  0  0  0  0  0
  186.2620  178.8000  144.4160 C   0  0  2  0  0  3  0  0  0  0  0  0
  191.1070  175.2370  143.2020 N   0  0  0  0  0  2  0  0  0  0  0  0
  190.5330  175.7020  140.9690 N   0  0  0  0  0  2  0  0  0  0  0  0
  190.5300  176.0230  142.3580 C   0  0  0  0  0  3  0  0  0  0  0  0
  187.8460  175.1650  138.1740 C   0  0  0  0  0  2  0  0  0  0  0  0
  187.2970  174.0760  137.2760 C   0  0  1  0  0  3  0  0  0  0  0  0
  186.2200  174.6650  136.3790 C   0  0  1  0  0  3  0  0  0  0  0  0
  187.6130  174.4130  135.8350 C   0  0  0  0  0  2  0  0  0  0  0  0
  185.6630  173.1850  134.6030 C   0  0  0  0  0  1  0  0  0  0  0  0
  185.3140  173.5900  135.9610 N   0  0  0  0  0  0  0  0  0  0  0  0
  183.8640  173.9120  136.0270 C   0  0  2  0  0  3  0  0  0  0  0  0
  183.1740  173.2430  137.2200 C   0  0  2  0  0  3  0  0  0  0  0  0
  182.9280  172.7230  135.7980 C   0  0  1  0  0  3  0  0  0  0  0  0
  182.0360  174.1070  137.7840 C   0  0  0  0  0  2  0  0  0  0  0  0
  182.4000  175.5850  137.8830 C   0  0  0  0  0  2  0  0  0  0  0  0
  181.1720  176.4700  137.7570 C   0  0  0  0  0  2  0  0  0  0  0  0
  180.1190  178.7710  141.2680 C   0  0  0  0  0  1  0  0  0  0  0  0
  180.0840  178.6330  139.8170 N   0  0  0  0  0  0  0  0  0  0  0  0
  180.6450  178.7900  137.0180 C   0  0  2  0  0  3  0  0  0  0  0  0
  181.1870  181.1330  137.3510 O   0  0  0  0  0  1  0  0  0  0  0  0
  180.4110  180.0730  137.8320 C   0  0  2  0  0  3  0  0  0  0  0  0
  182.5000  178.3190  140.1800 O   0  0  0  0  0  1  0  0  0  0  0  0
  181.4490  178.4700  139.2650 C   0  0  2  0  0  0  0  0  0  0  0  0
  180.8350  179.7860  139.2710 C   0  0  2  0  0  3  0  0  0  0  0  0
  181.5780  177.9380  137.8480 C   0  0  1  0  0  3  0  0  0  0  0  0
  180.0960  179.2590  134.6300 C   0  0  0  0  0  1  0  0  0  0  0  0
  181.2150  179.0200  135.6240 C   0  0  0  0  0  2  0  0  0  0  0  0
  181.6420  173.2120  135.1390 C   0  0  0  0  0  2  0  0  0  0  0  0
  179.2920  172.3390  135.3960 N   0  0  0  0  0  1  0  0  0  0  0  0
  180.6490  172.1030  135.0450 C   0  0  0  0  0  0  0  0  0  0  0  0
  181.0120  170.9520  134.6890 O   0  0  0  0  0  0  0  0  0  0  0  0
  2 13  1  6  0  0  0
  2 15  1  0  0  0  0
  2 11  1  0  0  0  0
  3 14  1  0  0  0  0
  3  8  1  0  0  0  0
  4  5  1  1  0  0  0
  4  6  1  0  0  0  0
  4 12  1  0  0  0  0
  6 13  1  0  0  0  0
  7  1  1  0  0  0  0
  7 34  1  1  0  0  0
  9  1  1  0  0  0  0
 10  8  1  6  0  0  0
 10  9  1  0  0  0  0
 10 16  1  0  0  0  0
 11  7  1  0  0  0  0
 12 15  1  0  0  0  0
 14  2  1  0  0  0  0
 14 36  1  0  0  0  0
 15 11  1  0  0  0  0
 16 17  1  0  0  0  0
 17 22  1  0  0  0  0
 18 17  1  0  0  0  0
 19 16  1  0  0  0  0
 19 18  1  0  0  0  0
 20 22  1  0  0  0  0
 22 21  1  0  0  0  0
 22 32  1  0  0  0  0
 23 29  1  0  0  0  0
 24 29  1  0  0  0  0
 25 24  1  0  0  0  0
 26 25  1  0  0  0  0
 27 31  1  0  0  0  0
 28 26  1  0  0  0  0
 30 23  1  0  0  0  0
 31 30  1  0  0  0  0
 31 25  1  0  0  0  0
 32 27  1  0  0  0  0
 32 28  1  0  0  0  0
 34 35  1  0  0  0  0
 35 33  2  0  0  0  0
 37 36  1  0  0  0  0
 38 37  1  0  0  0  0
 39 38  1  0  0  0  0
 39 37  1  0  0  0  0
 40 41  1  0  0  0  0
 41 42  1  0  0  0  0
 41 38  1  0  0  0  0
 42 43  1  0  0  0  0
 43 45  1  0  0  0  0
 44 42  1  0  0  0  0
 44 43  1  0  0  0  0
 45 46  1  0  0  0  0
 47 56  1  0  0  0  0
 47 46  1  0  0  0  0
 49 48  1  0  0  0  0
 50 52  1  0  0  0  0
 50 56  1  0  0  0  0
 51 52  1  0  0  0  0
 52 55  1  0  0  0  0
 54 55  1  0  0  0  0
 54 49  1  0  0  0  0
 54 53  1  0  0  0  0
 55 49  1  0  0  0  0
 56 54  1  0  0  0  0
 57 58  1  0  0  0  0
 58 50  1  0  0  0  0
 59 44  1  0  0  0  0
 61 59  1  0  0  0  0
 61 60  1  0  0  0  0
 62 61  2  0  0  0  0
M  END
>  <MODEL>
5

>  <REMARK>
 VINA RESULT:      -4.5      2.143      7.459
  Name = 
  15 active torsions:
  status: ('A' for Active; 'I' for Inactive)
    1  A    between atoms: C_4  and  C_33
    2  A    between atoms: C_7  and  C_37
    3  A    between atoms: C_8  and  N_27
    4  A    between atoms: C_13  and  N_27
    5  A    between atoms: C_18  and  C_22
    6  A    between atoms: C_22  and  C_26
    7  A    between atoms: C_25  and  C_55
    8  A    between atoms: C_26  and  C_60
    9  A    between atoms: C_28  and  C_37
   10  A    between atoms: C_30  and  N_41
   11  A    between atoms: C_33  and  C_49
   12  A    between atoms: C_34  and  C_45
   13  A    between atoms: C_47  and  C_51
   14  A    between atoms: C_51  and  C_59
   15  A    between atoms: C_60  and  C_62
                            x       y       z     vdW  Elec       q    Type
                         _______ _______ _______ _____ _____    ______ ____

>  <TORSDO>
F 15

$$$$
=
 OpenBabel10222418353D

 62 71  0  0  1  0  0  0  0  0999 V2000
  192.0430  178.1390  142.2270 C   0  0  0  0  0  2  0  0  0  0  0  0
  190.5610  176.3880  144.9260 C   0  0  2  0  0  0  0  0  0  0  0  0
  189.3600  175.6360  142.9400 O   0  0  0  0  0  0  0  0  0  0  0  0
  191.7600  175.8270  147.4700 C   0  0  2  0  0  3  0  0  0  0  0  0
  192.7740  175.6050  148.4000 O   0  0  0  0  0  1  0  0  0  0  0  0
  192.0430  175.0420  146.2080 C   0  0  0  0  0  2  0  0  0  0  0  0
  191.4000  178.4490  143.5800 C   0  0  1  0  0  3  0  0  0  0  0  0
  188.8980  176.2810  141.7720 C   0  0  0  0  0  2  0  0  0  0  0  0
  191.3140  177.0200  141.4990 C   0  0  0  0  0  2  0  0  0  0  0  0
  189.8380  177.3920  141.3110 C   0  0  1  0  0  3  0  0  0  0  0  0
  191.7080  177.3590  144.6080 C   0  0  1  0  0  3  0  0  0  0  0  0
  191.7260  177.2940  147.0910 C   0  0  0  0  0  2  0  0  0  0  0  0
  190.9130  175.0750  145.3680 O   0  0  0  0  0  0  0  0  0  0  0  0
  189.2420  176.4200  144.1230 C   0  0  2  0  0  3  0  0  0  0  0  0
  190.8450  177.5760  145.8640 C   0  0  2  0  0  3  0  0  0  0  0  0
  189.4460  177.9200  139.9260 C   0  0  1  0  0  3  0  0  0  0  0  0
  188.6730  176.8810  139.1520 C   0  0  1  0  0  3  0  0  0  0  0  0
  187.4970  177.6540  139.1590 O   0  0  0  0  0  0  0  0  0  0  0  0
  188.1320  178.6610  139.9080 C   0  0  0  0  0  2  0  0  0  0  0  0
  188.0710  176.6090  136.6920 C   0  0  0  0  0  1  0  0  0  0  0  0
  190.1370  177.7730  137.3290 C   0  0  0  0  0  1  0  0  0  0  0  0
  189.2010  176.6350  137.7180 C   0  0  0  0  0  0  0  0  0  0  0  0
  194.5830  175.6280  137.6630 O   0  0  0  0  0  0  0  0  0  0  0  0
  193.4750  173.5080  137.2750 C   0  0  0  0  0  2  0  0  0  0  0  0
  192.5230  174.4830  136.5760 C   0  0  1  0  0  3  0  0  0  0  0  0
  191.2500  173.7570  136.1390 C   0  0  0  0  0  2  0  0  0  0  0  0
  191.2460  175.3590  138.3090 O   0  0  0  0  0  0  0  0  0  0  0  0
  190.0590  174.7010  136.2220 C   0  0  0  0  0  2  0  0  0  0  0  0
  194.5810  174.2690  138.0150 C   0  0  0  0  0  2  0  0  0  0  0  0
  193.3800  176.1510  138.1660 C   0  0  0  0  0  2  0  0  0  0  0  0
  192.2120  175.6790  137.4000 N   0  0  1  0  0  0  0  0  0  0  0  0
  189.9930  175.3130  137.6360 C   0  0  2  0  0  3  0  0  0  0  0  0
  191.4040  181.8250  145.0830 N   0  0  0  0  0  2  0  0  0  0  0  0
  191.8430  179.7570  144.0520 N   0  0  0  0  0  2  0  0  0  0  0  0
  190.9570  180.6890  144.6670 C   0  0  0  0  0  3  0  0  0  0  0  0
  188.4790  177.7560  144.0700 C   0  0  0  0  0  2  0  0  0  0  0  0
  187.0430  177.5470  144.5000 C   0  0  1  0  0  3  0  0  0  0  0  0
  186.1620  178.5800  143.8180 C   0  0  1  0  0  3  0  0  0  0  0  0
  186.2140  177.1590  143.2950 C   0  0  0  0  0  2  0  0  0  0  0  0
  185.1620  178.1760  145.9380 C   0  0  0  0  0  1  0  0  0  0  0  0
  184.9520  178.7770  144.6240 N   0  0  0  0  0  0  0  0  0  0  0  0
  183.6940  178.2520  144.0310 C   0  0  2  0  0  3  0  0  0  0  0  0
  183.4280  178.8220  142.6340 C   0  0  2  0  0  3  0  0  0  0  0  0
  182.5910  179.2940  143.8310 C   0  0  1  0  0  3  0  0  0  0  0  0
  182.7170  177.8070  141.7260 C   0  0  0  0  0  2  0  0  0  0  0  0
  183.3390  177.7080  140.3370 C   0  0  0  0  0  2  0  0  0  0  0  0
  183.9160  179.0390  139.8890 C   0  0  0  0  0  2  0  0  0  0  0  0
  180.1880  181.2310  139.7190 C   0  0  0  0  0  1  0  0  0  0  0  0
  180.9670  180.0690  139.3050 N   0  0  0  0  0  0  0  0  0  0  0  0
  182.6540  178.2410  137.8960 C   0  0  2  0  0  3  0  0  0  0  0  0
  181.5550  178.9460  135.8490 O   0  0  0  0  0  1  0  0  0  0  0  0
  181.3820  178.7900  137.2280 C   0  0  2  0  0  3  0  0  0  0  0  0
  182.5710  181.8430  138.7170 O   0  0  0  0  0  1  0  0  0  0  0  0
  182.2430  180.4810  138.6770 C   0  0  2  0  0  0  0  0  0  0  0  0
  181.1040  180.1640  137.8330 C   0  0  2  0  0  3  0  0  0  0  0  0
  183.3320  179.4310  138.5370 C   0  0  1  0  0  3  0  0  0  0  0  0
  183.2530  176.0450  136.8740 C   0  0  0  0  0  1  0  0  0  0  0  0
  183.6040  177.5180  136.9500 C   0  0  0  0  0  2  0  0  0  0  0  0
  181.2290  178.6230  143.9790 C   0  0  0  0  0  2  0  0  0  0  0  0
  179.1610  178.7040  142.5400 N   0  0  0  0  0  1  0  0  0  0  0  0
  180.1850  179.3950  143.2450 C   0  0  0  0  0  0  0  0  0  0  0  0
  180.2240  180.6520  143.2200 O   0  0  0  0  0  0  0  0  0  0  0  0
  1  7  1  0  0  0  0
  2 13  1  1  0  0  0
  2 15  1  0  0  0  0
  3 14  1  0  0  0  0
  4  5  1  1  0  0  0
  6  4  1  0  0  0  0
  7 34  1  1  0  0  0
  7 11  1  0  0  0  0
  8  3  1  0  0  0  0
  9  1  1  0  0  0  0
 10  9  1  6  0  0  0
 10  8  1  0  0  0  0
 11  2  1  0  0  0  0
 11 15  1  0  0  0  0
 12  4  1  0  0  0  0
 13  6  1  0  0  0  0
 14  2  1  0  0  0  0
 15 12  1  0  0  0  0
 16 10  1  0  0  0  0
 17 18  1  0  0  0  0
 17 16  1  0  0  0  0
 18 19  1  0  0  0  0
 19 16  1  0  0  0  0
 20 22  1  0  0  0  0
 21 22  1  0  0  0  0
 22 17  1  0  0  0  0
 23 29  1  0  0  0  0
 23 30  1  0  0  0  0
 24 29  1  0  0  0  0
 25 24  1  0  0  0  0
 25 31  1  0  0  0  0
 26 28  1  0  0  0  0
 26 25  1  0  0  0  0
 28 32  1  0  0  0  0
 31 30  1  0  0  0  0
 31 27  1  0  0  0  0
 32 22  1  0  0  0  0
 32 27  1  0  0  0  0
 34 35  1  0  0  0  0
 35 33  2  0  0  0  0
 36 14  1  0  0  0  0
 36 37  1  0  0  0  0
 38 37  1  0  0  0  0
 38 41  1  0  0  0  0
 39 38  1  0  0  0  0
 39 37  1  0  0  0  0
 41 40  1  0  0  0  0
 42 41  1  0  0  0  0
 43 44  1  0  0  0  0
 43 42  1  0  0  0  0
 44 59  1  0  0  0  0
 44 42  1  0  0  0  0
 45 43  1  0  0  0  0
 46 45  1  0  0  0  0
 47 46  1  0  0  0  0
 49 48  1  0  0  0  0
 50 56  1  0  0  0  0
 51 52  1  0  0  0  0
 52 55  1  0  0  0  0
 52 50  1  0  0  0  0
 54 53  1  0  0  0  0
 54 49  1  0  0  0  0
 55 54  1  0  0  0  0
 55 49  1  0  0  0  0
 56 54  1  0  0  0  0
 56 47  1  0  0  0  0
 57 58  1  0  0  0  0
 58 50  1  0  0  0  0
 60 61  1  0  0  0  0
 61 59  1  0  0  0  0
 62 61  2  0  0  0  0
M  END
>  <MODEL>
6

>  <REMARK>
 VINA RESULT:      -4.4      3.008     10.056
  Name = 
  15 active torsions:
  status: ('A' for Active; 'I' for Inactive)
    1  A    between atoms: C_4  and  C_33
    2  A    between atoms: C_7  and  C_37
    3  A    between atoms: C_8  and  N_27
    4  A    between atoms: C_13  and  N_27
    5  A    between atoms: C_18  and  C_22
    6  A    between atoms: C_22  and  C_26
    7  A    between atoms: C_25  and  C_55
    8  A    between atoms: C_26  and  C_60
    9  A    between atoms: C_28  and  C_37
   10  A    between atoms: C_30  and  N_41
   11  A    between atoms: C_33  and  C_49
   12  A    between atoms: C_34  and  C_45
   13  A    between atoms: C_47  and  C_51
   14  A    between atoms: C_51  and  C_59
   15  A    between atoms: C_60  and  C_62
                            x       y       z     vdW  Elec       q    Type
                         _______ _______ _______ _____ _____    ______ ____

>  <TORSDO>
F 15

$$$$
=
 OpenBabel10222418353D

 62 71  0  0  1  0  0  0  0  0999 V2000
  192.0920  178.2120  142.3260 C   0  0  0  0  0  2  0  0  0  0  0  0
  190.5780  176.3670  144.9430 C   0  0  2  0  0  0  0  0  0  0  0  0
  189.4110  175.6750  142.9150 O   0  0  0  0  0  0  0  0  0  0  0  0
  191.7400  175.7270  147.4840 C   0  0  2  0  0  3  0  0  0  0  0  0
  192.7410  175.4790  148.4230 O   0  0  0  0  0  1  0  0  0  0  0  0
  192.0460  174.9860  146.2020 C   0  0  0  0  0  2  0  0  0  0  0  0
  191.4280  178.4750  143.6780 C   0  0  1  0  0  3  0  0  0  0  0  0
  188.9640  176.3570  141.7610 C   0  0  0  0  0  2  0  0  0  0  0  0
  191.3810  177.1150  141.5510 C   0  0  0  0  0  2  0  0  0  0  0  0
  189.9050  177.4870  141.3520 C   0  0  1  0  0  3  0  0  0  0  0  0
  191.7250  177.3520  144.6750 C   0  0  1  0  0  3  0  0  0  0  0  0
  191.7050  177.2060  147.1540 C   0  0  0  0  0  2  0  0  0  0  0  0
  190.9290  175.0410  145.3470 O   0  0  0  0  0  0  0  0  0  0  0  0
  189.2720  176.4200  144.1210 C   0  0  2  0  0  3  0  0  0  0  0  0
  190.8420  177.5240  145.9240 C   0  0  2  0  0  3  0  0  0  0  0  0
  189.5320  178.0580  139.9790 C   0  0  1  0  0  3  0  0  0  0  0  0
  188.5410  177.1660  139.2750 C   0  0  1  0  0  3  0  0  0  0  0  0
  187.5250  178.1380  139.3310 O   0  0  0  0  0  0  0  0  0  0  0  0
  188.3740  179.0240  140.0180 C   0  0  0  0  0  2  0  0  0  0  0  0
  189.5400  178.0000  137.0860 C   0  0  0  0  0  1  0  0  0  0  0  0
  189.9790  175.7050  137.8400 C   0  0  0  0  0  1  0  0  0  0  0  0
  188.9290  176.8090  137.8200 C   0  0  0  0  0  0  0  0  0  0  0  0
  187.7360  171.8640  135.7940 O   0  0  0  0  0  0  0  0  0  0  0  0
  186.0100  173.3730  135.0090 C   0  0  0  0  0  2  0  0  0  0  0  0
  187.2320  174.2940  135.0340 C   0  0  1  0  0  3  0  0  0  0  0  0
  186.8100  175.7390  134.7640 C   0  0  0  0  0  2  0  0  0  0  0  0
  187.4140  174.9240  137.2630 O   0  0  0  0  0  0  0  0  0  0  0  0
  187.7060  176.6940  135.5380 C   0  0  0  0  0  2  0  0  0  0  0  0
  186.3520  172.0040  135.6090 C   0  0  0  0  0  2  0  0  0  0  0  0
  188.0800  172.7960  136.7890 C   0  0  0  0  0  2  0  0  0  0  0  0
  188.0170  174.1810  136.2900 N   0  0  1  0  0  0  0  0  0  0  0  0
  187.7080  176.2970  137.0280 C   0  0  2  0  0  3  0  0  0  0  0  0
  191.3660  181.8840  145.1030 N   0  0  0  0  0  2  0  0  0  0  0  0
  191.8560  179.7680  144.2000 N   0  0  0  0  0  2  0  0  0  0  0  0
  190.9330  180.7640  144.6330 C   0  0  0  0  0  3  0  0  0  0  0  0
  188.5020  177.7530  144.1000 C   0  0  0  0  0  2  0  0  0  0  0  0
  187.0570  177.5210  144.4830 C   0  0  1  0  0  3  0  0  0  0  0  0
  186.2110  178.6690  143.9590 C   0  0  1  0  0  3  0  0  0  0  0  0
  186.2320  177.3420  143.2270 C   0  0  0  0  0  2  0  0  0  0  0  0
  185.2290  178.0970  146.0480 C   0  0  0  0  0  1  0  0  0  0  0  0
  184.9980  178.7750  144.7760 N   0  0  0  0  0  0  0  0  0  0  0  0
  183.7550  178.2490  144.1520 C   0  0  2  0  0  3  0  0  0  0  0  0
  183.4910  178.8660  142.7740 C   0  0  2  0  0  3  0  0  0  0  0  0
  182.6350  179.2770  143.9790 C   0  0  1  0  0  3  0  0  0  0  0  0
  182.8080  177.8720  141.8220 C   0  0  0  0  0  2  0  0  0  0  0  0
  183.5420  177.7170  140.4930 C   0  0  0  0  0  2  0  0  0  0  0  0
  184.0810  179.0460  139.9960 C   0  0  0  0  0  2  0  0  0  0  0  0
  180.1770  180.8750  139.6120 C   0  0  0  0  0  1  0  0  0  0  0  0
  181.0760  179.7820  139.2630 N   0  0  0  0  0  0  0  0  0  0  0  0
  182.9850  178.0850  137.9760 C   0  0  2  0  0  3  0  0  0  0  0  0
  181.9150  178.6350  135.8670 O   0  0  0  0  0  1  0  0  0  0  0  0
  181.6970  178.4970  137.2420 C   0  0  2  0  0  3  0  0  0  0  0  0
  182.5330  181.6830  138.6910 O   0  0  0  0  0  1  0  0  0  0  0  0
  182.3350  180.2960  138.6760 C   0  0  2  0  0  0  0  0  0  0  0  0
  181.2680  179.8530  137.7960 C   0  0  2  0  0  3  0  0  0  0  0  0
  183.5210  179.3490  138.6100 C   0  0  1  0  0  3  0  0  0  0  0  0
  183.9000  175.9230  137.1340 C   0  0  0  0  0  1  0  0  0  0  0  0
  184.0380  177.4320  137.0900 C   0  0  0  0  0  2  0  0  0  0  0  0
  181.2840  178.5750  144.0880 C   0  0  0  0  0  2  0  0  0  0  0  0
  179.1840  178.6000  142.6950 N   0  0  0  0  0  1  0  0  0  0  0  0
  180.2480  179.3150  143.3110 C   0  0  0  0  0  0  0  0  0  0  0  0
  180.3280  180.5620  143.1690 O   0  0  0  0  0  0  0  0  0  0  0  0
  1  7  1  0  0  0  0
  2 13  1  1  0  0  0
  2 15  1  0  0  0  0
  3 14  1  0  0  0  0
  4  5  1  1  0  0  0
  6  4  1  0  0  0  0
  7 34  1  1  0  0  0
  7 11  1  0  0  0  0
  8  3  1  0  0  0  0
  9  1  1  0  0  0  0
 10  9  1  6  0  0  0
 10  8  1  0  0  0  0
 11  2  1  0  0  0  0
 11 15  1  0  0  0  0
 12  4  1  0  0  0  0
 13  6  1  0  0  0  0
 14  2  1  0  0  0  0
 15 12  1  0  0  0  0
 16 19  1  0  0  0  0
 16 10  1  0  0  0  0
 17 18  1  0  0  0  0
 17 16  1  0  0  0  0
 18 19  1  0  0  0  0
 20 22  1  0  0  0  0
 22 21  1  0  0  0  0
 22 17  1  0  0  0  0
 23 30  1  0  0  0  0
 24 25  1  0  0  0  0
 24 29  1  0  0  0  0
 25 31  1  0  0  0  0
 26 25  1  0  0  0  0
 26 28  1  0  0  0  0
 28 32  1  0  0  0  0
 29 23  1  0  0  0  0
 31 30  1  0  0  0  0
 31 27  1  0  0  0  0
 32 27  1  0  0  0  0
 32 22  1  0  0  0  0
 34 35  1  0  0  0  0
 35 33  2  0  0  0  0
 36 14  1  0  0  0  0
 36 37  1  0  0  0  0
 38 37  1  0  0  0  0
 38 41  1  0  0  0  0
 39 38  1  0  0  0  0
 39 37  1  0  0  0  0
 41 40  1  0  0  0  0
 42 41  1  0  0  0  0
 43 44  1  0  0  0  0
 43 42  1  0  0  0  0
 44 59  1  0  0  0  0
 44 42  1  0  0  0  0
 45 43  1  0  0  0  0
 46 45  1  0  0  0  0
 47 46  1  0  0  0  0
 49 48  1  0  0  0  0
 50 56  1  0  0  0  0
 51 52  1  0  0  0  0
 52 55  1  0  0  0  0
 52 50  1  0  0  0  0
 54 53  1  0  0  0  0
 54 49  1  0  0  0  0
 55 54  1  0  0  0  0
 55 49  1  0  0  0  0
 56 54  1  0  0  0  0
 56 47  1  0  0  0  0
 58 57  1  0  0  0  0
 58 50  1  0  0  0  0
 60 61  1  0  0  0  0
 61 59  1  0  0  0  0
 62 61  2  0  0  0  0
M  END
>  <MODEL>
7

>  <REMARK>
 VINA RESULT:      -4.3      2.534     10.277
  Name = 
  15 active torsions:
  status: ('A' for Active; 'I' for Inactive)
    1  A    between atoms: C_4  and  C_33
    2  A    between atoms: C_7  and  C_37
    3  A    between atoms: C_8  and  N_27
    4  A    between atoms: C_13  and  N_27
    5  A    between atoms: C_18  and  C_22
    6  A    between atoms: C_22  and  C_26
    7  A    between atoms: C_25  and  C_55
    8  A    between atoms: C_26  and  C_60
    9  A    between atoms: C_28  and  C_37
   10  A    between atoms: C_30  and  N_41
   11  A    between atoms: C_33  and  C_49
   12  A    between atoms: C_34  and  C_45
   13  A    between atoms: C_47  and  C_51
   14  A    between atoms: C_51  and  C_59
   15  A    between atoms: C_60  and  C_62
                            x       y       z     vdW  Elec       q    Type
                         _______ _______ _______ _____ _____    ______ ____

>  <TORSDO>
F 15

$$$$
=
 OpenBabel10222418353D

 62 71  0  0  1  0  0  0  0  0999 V2000
  192.0490  178.2150  142.5030 C   0  0  0  0  0  2  0  0  0  0  0  0
  190.5680  176.3340  145.1150 C   0  0  2  0  0  0  0  0  0  0  0  0
  189.3890  175.6550  143.0890 O   0  0  0  0  0  0  0  0  0  0  0  0
  191.7550  175.6780  147.6400 C   0  0  2  0  0  3  0  0  0  0  0  0
  192.7660  175.4270  148.5680 O   0  0  0  0  0  1  0  0  0  0  0  0
  192.0560  174.9510  146.3480 C   0  0  0  0  0  2  0  0  0  0  0  0
  191.3940  178.4600  143.8640 C   0  0  1  0  0  3  0  0  0  0  0  0
  188.9290  176.3450  141.9460 C   0  0  0  0  0  2  0  0  0  0  0  0
  191.3380  177.1200  141.7230 C   0  0  0  0  0  2  0  0  0  0  0  0
  189.8590  177.4850  141.5400 C   0  0  1  0  0  3  0  0  0  0  0  0
  191.7070  177.3300  144.8470 C   0  0  1  0  0  3  0  0  0  0  0  0
  191.7080  177.1590  147.3240 C   0  0  0  0  0  2  0  0  0  0  0  0
  190.9310  175.0070  145.5020 O   0  0  0  0  0  0  0  0  0  0  0  0
  189.2550  176.3870  144.3040 C   0  0  2  0  0  3  0  0  0  0  0  0
  190.8330  177.4840  146.1050 C   0  0  2  0  0  3  0  0  0  0  0  0
  189.4710  178.0670  140.1760 C   0  0  1  0  0  3  0  0  0  0  0  0
  188.4750  177.1780  139.4740 C   0  0  1  0  0  3  0  0  0  0  0  0
  187.4570  178.1480  139.5480 O   0  0  0  0  0  0  0  0  0  0  0  0
  188.3110  179.0290  140.2350 C   0  0  0  0  0  2  0  0  0  0  0  0
  187.6130  176.6440  137.1380 C   0  0  0  0  0  1  0  0  0  0  0  0
  189.6480  177.9900  137.4180 C   0  0  0  0  0  1  0  0  0  0  0  0
  188.8500  176.8350  138.0120 C   0  0  0  0  0  0  0  0  0  0  0  0
  194.2630  176.1720  137.5300 O   0  0  0  0  0  0  0  0  0  0  0  0
  193.2760  173.9640  137.3850 C   0  0  0  0  0  2  0  0  0  0  0  0
  192.2010  174.8230  136.7140 C   0  0  1  0  0  3  0  0  0  0  0  0
  190.9490  173.9880  136.4450 C   0  0  0  0  0  2  0  0  0  0  0  0
  191.0230  175.7380  138.4960 O   0  0  0  0  0  0  0  0  0  0  0  0
  189.7070  174.8570  136.5750 C   0  0  0  0  0  2  0  0  0  0  0  0
  194.3870  174.8440  137.9690 C   0  0  0  0  0  2  0  0  0  0  0  0
  193.0750  176.6520  138.1060 C   0  0  0  0  0  2  0  0  0  0  0  0
  191.8810  176.0530  137.4830 N   0  0  1  0  0  0  0  0  0  0  0  0
  189.7210  175.5640  137.9450 C   0  0  2  0  0  3  0  0  0  0  0  0
  191.3380  181.9490  145.0830 N   0  0  0  0  0  2  0  0  0  0  0  0
  191.8190  179.7510  144.3950 N   0  0  0  0  0  2  0  0  0  0  0  0
  190.9130  180.8340  144.5930 C   0  0  0  0  0  3  0  0  0  0  0  0
  188.4770  177.7150  144.3020 C   0  0  0  0  0  2  0  0  0  0  0  0
  187.0070  177.4530  144.5480 C   0  0  1  0  0  3  0  0  0  0  0  0
  186.1920  178.5950  143.9650 C   0  0  1  0  0  3  0  0  0  0  0  0
  186.3030  177.2800  143.2190 C   0  0  0  0  0  2  0  0  0  0  0  0
  184.9820  177.8340  145.8660 C   0  0  0  0  0  1  0  0  0  0  0  0
  184.9070  178.6670  144.6700 N   0  0  0  0  0  0  0  0  0  0  0  0
  183.7140  178.2850  143.8700 C   0  0  2  0  0  3  0  0  0  0  0  0
  183.3920  179.3100  142.7790 C   0  0  2  0  0  3  0  0  0  0  0  0
  182.5070  179.2110  144.0280 C   0  0  1  0  0  3  0  0  0  0  0  0
  182.7970  178.6480  141.5260 C   0  0  0  0  0  2  0  0  0  0  0  0
  183.7370  177.6350  140.8810 C   0  0  0  0  0  2  0  0  0  0  0  0
  183.3980  177.4150  139.4170 C   0  0  0  0  0  2  0  0  0  0  0  0
  183.4270  175.4220  135.5750 C   0  0  0  0  0  1  0  0  0  0  0  0
  182.6550  175.9750  136.6820 N   0  0  0  0  0  0  0  0  0  0  0  0
  181.1750  176.3380  139.1010 C   0  0  2  0  0  3  0  0  0  0  0  0
  180.0560  174.2360  138.6230 O   0  0  0  0  0  1  0  0  0  0  0  0
  180.6860  175.3390  138.0380 C   0  0  2  0  0  3  0  0  0  0  0  0
  184.1930  174.5360  137.9590 O   0  0  0  0  0  1  0  0  0  0  0  0
  183.0720  175.3770  137.9710 C   0  0  2  0  0  0  0  0  0  0  0  0
  181.9130  174.8410  137.2790 C   0  0  2  0  0  3  0  0  0  0  0  0
  182.6590  176.0920  139.2470 C   0  0  1  0  0  3  0  0  0  0  0  0
  179.3730  177.2640  140.5560 C   0  0  0  0  0  1  0  0  0  0  0  0
  180.4700  176.2240  140.4470 C   0  0  0  0  0  2  0  0  0  0  0  0
  181.2240  178.4040  143.8540 C   0  0  0  0  0  2  0  0  0  0  0  0
  179.9590  180.3950  142.9660 N   0  0  0  0  0  1  0  0  0  0  0  0
  180.0350  179.3040  143.8750 C   0  0  0  0  0  0  0  0  0  0  0  0
  179.1140  179.1230  144.7130 O   0  0  0  0  0  0  0  0  0  0  0  0
  1  7  1  0  0  0  0
  2 13  1  1  0  0  0
  2 15  1  0  0  0  0
  3 14  1  0  0  0  0
  4  5  1  1  0  0  0
  6  4  1  0  0  0  0
  7 34  1  1  0  0  0
  7 11  1  0  0  0  0
  8  3  1  0  0  0  0
  9  1  1  0  0  0  0
 10  9  1  6  0  0  0
 10  8  1  0  0  0  0
 11  2  1  0  0  0  0
 11 15  1  0  0  0  0
 12  4  1  0  0  0  0
 13  6  1  0  0  0  0
 14  2  1  0  0  0  0
 15 12  1  0  0  0  0
 16 19  1  0  0  0  0
 16 10  1  0  0  0  0
 17 18  1  0  0  0  0
 17 16  1  0  0  0  0
 18 19  1  0  0  0  0
 20 22  1  0  0  0  0
 21 22  1  0  0  0  0
 22 17  1  0  0  0  0
 23 29  1  0  0  0  0
 23 30  1  0  0  0  0
 24 29  1  0  0  0  0
 25 24  1  0  0  0  0
 25 31  1  0  0  0  0
 26 28  1  0  0  0  0
 26 25  1  0  0  0  0
 28 32  1  0  0  0  0
 31 30  1  0  0  0  0
 31 27  1  0  0  0  0
 32 22  1  0  0  0  0
 32 27  1  0  0  0  0
 34 35  1  0  0  0  0
 35 33  2  0  0  0  0
 36 14  1  0  0  0  0
 36 37  1  0  0  0  0
 38 37  1  0  0  0  0
 38 41  1  0  0  0  0
 39 38  1  0  0  0  0
 39 37  1  0  0  0  0
 41 40  1  0  0  0  0
 42 44  1  0  0  0  0
 42 41  1  0  0  0  0
 43 42  1  0  0  0  0
 43 44  1  0  0  0  0
 45 43  1  0  0  0  0
 46 45  1  0  0  0  0
 47 46  1  0  0  0  0
 48 49  1  0  0  0  0
 49 55  1  0  0  0  0
 49 54  1  0  0  0  0
 50 56  1  0  0  0  0
 50 58  1  0  0  0  0
 52 51  1  0  0  0  0
 52 50  1  0  0  0  0
 53 54  1  0  0  0  0
 54 56  1  0  0  0  0
 55 54  1  0  0  0  0
 55 52  1  0  0  0  0
 56 47  1  0  0  0  0
 58 57  1  0  0  0  0
 59 61  1  0  0  0  0
 59 44  1  0  0  0  0
 60 61  1  0  0  0  0
 61 62  2  0  0  0  0
M  END
>  <MODEL>
8

>  <REMARK>
 VINA RESULT:      -4.2      2.891      9.873
  Name = 
  15 active torsions:
  status: ('A' for Active; 'I' for Inactive)
    1  A    between atoms: C_4  and  C_33
    2  A    between atoms: C_7  and  C_37
    3  A    between atoms: C_8  and  N_27
    4  A    between atoms: C_13  and  N_27
    5  A    between atoms: C_18  and  C_22
    6  A    between atoms: C_22  and  C_26
    7  A    between atoms: C_25  and  C_55
    8  A    between atoms: C_26  and  C_60
    9  A    between atoms: C_28  and  C_37
   10  A    between atoms: C_30  and  N_41
   11  A    between atoms: C_33  and  C_49
   12  A    between atoms: C_34  and  C_45
   13  A    between atoms: C_47  and  C_51
   14  A    between atoms: C_51  and  C_59
   15  A    between atoms: C_60  and  C_62
                            x       y       z     vdW  Elec       q    Type
                         _______ _______ _______ _____ _____    ______ ____

>  <TORSDO>
F 15

$$$$
=
 OpenBabel10222418353D

 62 71  0  0  1  0  0  0  0  0999 V2000
  192.0430  178.2210  142.1470 C   0  0  0  0  0  2  0  0  0  0  0  0
  190.5420  176.3690  144.7680 C   0  0  2  0  0  0  0  0  0  0  0  0
  189.3610  175.6870  142.7440 O   0  0  0  0  0  0  0  0  0  0  0  0
  191.7180  175.7190  147.3000 C   0  0  2  0  0  3  0  0  0  0  0  0
  192.7240  175.4660  148.2310 O   0  0  0  0  0  1  0  0  0  0  0  0
  192.0150  174.9820  146.0130 C   0  0  0  0  0  2  0  0  0  0  0  0
  191.3870  178.4800  143.5050 C   0  0  1  0  0  3  0  0  0  0  0  0
  188.9090  176.3720  141.5960 C   0  0  0  0  0  2  0  0  0  0  0  0
  191.3250  177.1270  141.3730 C   0  0  0  0  0  2  0  0  0  0  0  0
  189.8490  177.5020  141.1840 C   0  0  1  0  0  3  0  0  0  0  0  0
  191.6890  177.3540  144.4960 C   0  0  1  0  0  3  0  0  0  0  0  0
  191.6840  177.1990  146.9740 C   0  0  0  0  0  2  0  0  0  0  0  0
  190.8930  175.0420  145.1650 O   0  0  0  0  0  0  0  0  0  0  0  0
  189.2300  176.4270  143.9540 C   0  0  2  0  0  3  0  0  0  0  0  0
  190.8130  177.5230  145.7510 C   0  0  2  0  0  3  0  0  0  0  0  0
  189.4690  178.0790  139.8150 C   0  0  1  0  0  3  0  0  0  0  0  0
  188.9930  176.9910  138.8850 C   0  0  1  0  0  3  0  0  0  0  0  0
  187.6850  177.5090  138.8400 O   0  0  0  0  0  0  0  0  0  0  0  0
  188.0360  178.5410  139.7290 C   0  0  0  0  0  2  0  0  0  0  0  0
  189.3210  178.2540  136.6990 C   0  0  0  0  0  1  0  0  0  0  0  0
  191.1860  176.9960  137.6810 C   0  0  0  0  0  1  0  0  0  0  0  0
  189.6740  177.0010  137.4960 C   0  0  0  0  0  0  0  0  0  0  0  0
  184.8450  174.5500  136.6860 O   0  0  0  0  0  0  0  0  0  0  0  0
  186.5240  173.1370  135.6580 C   0  0  0  0  0  2  0  0  0  0  0  0
  187.2920  173.7020  136.8560 C   0  0  1  0  0  3  0  0  0  0  0  0
  188.7680  173.3100  136.7690 C   0  0  0  0  0  2  0  0  0  0  0  0
  187.9670  175.8090  136.1450 O   0  0  0  0  0  0  0  0  0  0  0  0
  189.6330  174.4140  137.3590 C   0  0  0  0  0  2  0  0  0  0  0  0
  185.1440  173.7940  135.5410 C   0  0  0  0  0  2  0  0  0  0  0  0
  185.7600  175.6170  136.6850 C   0  0  0  0  0  2  0  0  0  0  0  0
  187.1260  175.1700  137.0090 N   0  0  1  0  0  0  0  0  0  0  0  0
  189.2860  175.7530  136.6770 C   0  0  2  0  0  3  0  0  0  0  0  0
  191.3600  181.8160  145.0960 N   0  0  0  0  0  2  0  0  0  0  0  0
  191.8220  179.7710  144.0280 N   0  0  0  0  0  2  0  0  0  0  0  0
  190.9200  180.6950  144.6330 C   0  0  0  0  0  3  0  0  0  0  0  0
  188.4640  177.7620  143.9420 C   0  0  0  0  0  2  0  0  0  0  0  0
  186.9980  177.5170  144.2270 C   0  0  1  0  0  3  0  0  0  0  0  0
  186.2010  178.7520  143.8410 C   0  0  1  0  0  3  0  0  0  0  0  0
  186.2260  177.5440  142.9260 C   0  0  0  0  0  2  0  0  0  0  0  0
  185.1590  178.0250  145.8510 C   0  0  0  0  0  1  0  0  0  0  0  0
  184.9550  178.7730  144.6150 N   0  0  0  0  0  0  0  0  0  0  0  0
  183.7530  178.2520  143.9100 C   0  0  2  0  0  3  0  0  0  0  0  0
  183.4140  179.0670  142.6590 C   0  0  2  0  0  3  0  0  0  0  0  0
  182.5440  179.1890  143.9170 C   0  0  1  0  0  3  0  0  0  0  0  0
  182.8060  178.1930  141.5510 C   0  0  0  0  0  2  0  0  0  0  0  0
  182.3510  178.9950  140.3370 C   0  0  0  0  0  2  0  0  0  0  0  0
  180.8380  178.9990  140.2080 C   0  0  0  0  0  2  0  0  0  0  0  0
  181.7880  175.2740  138.2210 C   0  0  0  0  0  1  0  0  0  0  0  0
  181.8710  176.7290  138.2370 N   0  0  0  0  0  0  0  0  0  0  0  0
  181.4060  179.5220  137.8400 C   0  0  2  0  0  3  0  0  0  0  0  0
  180.8690  179.0100  135.5270 O   0  0  0  0  0  1  0  0  0  0  0  0
  181.6210  178.5950  136.6310 C   0  0  2  0  0  3  0  0  0  0  0  0
  179.4420  176.4740  138.5570 O   0  0  0  0  0  1  0  0  0  0  0  0
  180.5250  177.3370  138.3390 C   0  0  2  0  0  0  0  0  0  0  0  0
  181.1460  177.2010  137.0340 C   0  0  2  0  0  3  0  0  0  0  0  0
  180.4400  178.7980  138.7500 C   0  0  1  0  0  3  0  0  0  0  0  0
  181.5680  181.9610  138.3400 C   0  0  0  0  0  1  0  0  0  0  0  0
  180.8840  180.9100  137.4880 C   0  0  0  0  0  2  0  0  0  0  0  0
  181.2630  178.3610  143.9060 C   0  0  0  0  0  2  0  0  0  0  0  0
  180.0440  180.4570  143.2180 N   0  0  0  0  0  1  0  0  0  0  0  0
  180.0670  179.2500  143.9690 C   0  0  0  0  0  0  0  0  0  0  0  0
  179.0930  178.9550  144.7090 O   0  0  0  0  0  0  0  0  0  0  0  0
  1  7  1  0  0  0  0
  2 13  1  1  0  0  0
  2 15  1  0  0  0  0
  3 14  1  0  0  0  0
  4  5  1  1  0  0  0
  6  4  1  0  0  0  0
  7 34  1  1  0  0  0
  7 11  1  0  0  0  0
  8  3  1  0  0  0  0
  9  1  1  0  0  0  0
 10  9  1  6  0  0  0
 10  8  1  0  0  0  0
 11  2  1  0  0  0  0
 11 15  1  0  0  0  0
 12  4  1  0  0  0  0
 13  6  1  0  0  0  0
 14  2  1  0  0  0  0
 15 12  1  0  0  0  0
 16 10  1  0  0  0  0
 17 16  1  0  0  0  0
 18 17  1  0  0  0  0
 18 19  1  0  0  0  0
 19 16  1  0  0  0  0
 20 22  1  0  0  0  0
 22 21  1  0  0  0  0
 22 17  1  0  0  0  0
 24 25  1  0  0  0  0
 25 31  1  0  0  0  0
 26 25  1  0  0  0  0
 26 28  1  0  0  0  0
 27 32  1  0  0  0  0
 27 31  1  0  0  0  0
 29 24  1  0  0  0  0
 29 23  1  0  0  0  0
 30 23  1  0  0  0  0
 30 31  1  0  0  0  0
 32 28  1  0  0  0  0
 32 22  1  0  0  0  0
 34 35  1  0  0  0  0
 35 33  2  0  0  0  0
 36 14  1  0  0  0  0
 36 37  1  0  0  0  0
 38 37  1  0  0  0  0
 38 41  1  0  0  0  0
 39 38  1  0  0  0  0
 39 37  1  0  0  0  0
 41 40  1  0  0  0  0
 42 44  1  0  0  0  0
 42 41  1  0  0  0  0
 43 42  1  0  0  0  0
 43 44  1  0  0  0  0
 45 43  1  0  0  0  0
 46 45  1  0  0  0  0
 47 46  1  0  0  0  0
 48 49  1  0  0  0  0
 49 54  1  0  0  0  0
 50 56  1  0  0  0  0
 51 52  1  0  0  0  0
 52 55  1  0  0  0  0
 52 50  1  0  0  0  0
 54 53  1  0  0  0  0
 54 56  1  0  0  0  0
 55 49  1  0  0  0  0
 55 54  1  0  0  0  0
 56 47  1  0  0  0  0
 58 50  1  0  0  0  0
 58 57  1  0  0  0  0
 59 44  1  0  0  0  0
 59 61  1  0  0  0  0
 60 61  1  0  0  0  0
 61 62  2  0  0  0  0
M  END
>  <MODEL>
9

>  <REMARK>
 VINA RESULT:      -3.9      2.482     10.335
  Name = 
  15 active torsions:
  status: ('A' for Active; 'I' for Inactive)
    1  A    between atoms: C_4  and  C_33
    2  A    between atoms: C_7  and  C_37
    3  A    between atoms: C_8  and  N_27
    4  A    between atoms: C_13  and  N_27
    5  A    between atoms: C_18  and  C_22
    6  A    between atoms: C_22  and  C_26
    7  A    between atoms: C_25  and  C_55
    8  A    between atoms: C_26  and  C_60
    9  A    between atoms: C_28  and  C_37
   10  A    between atoms: C_30  and  N_41
   11  A    between atoms: C_33  and  C_49
   12  A    between atoms: C_34  and  C_45
   13  A    between atoms: C_47  and  C_51
   14  A    between atoms: C_51  and  C_59
   15  A    between atoms: C_60  and  C_62
                            x       y       z     vdW  Elec       q    Type
                         _______ _______ _______ _____ _____    ______ ____

>  <TORSDO>
F 15

$$$$
