=
 OpenBabel10222421033D

 38 45  0  0  1  0  0  0  0  0999 V2000
  184.7790  178.2100  143.6830 C   0  0  1  0  0  3  0  0  0  0  0  0
  187.6950  177.3260  146.5520 N   0  0  0  0  0  0  0  0  0  0  0  0
  184.1590  178.3790  141.3200 C   0  0  1  0  0  3  0  0  0  0  0  0
  188.9330  177.7200  142.5390 C   0  0  0  0  0  0  0  0  0  0  0  0
  189.5400  177.2740  144.9900 C   0  0  0  0  0  0  0  0  0  0  0  0
  184.3780  178.8550  144.9920 C   0  0  0  0  0  2  0  0  0  0  0  0
  190.9440  177.0590  144.8720 C   0  0  0  0  0  0  0  0  0  0  0  0
  191.1400  176.6580  147.2340 N   0  0  0  0  0  0  0  0  0  0  0  0
  184.0580  179.0580  142.6740 C   0  0  1  0  0  3  0  0  0  0  0  0
  190.1880  177.6510  141.9140 C   0  0  0  0  0  0  0  0  0  0  0  0
  186.6200  178.1210  141.9960 C   0  0  0  0  0  0  0  0  0  0  0  0
  187.9150  177.9630  141.6650 N   0  0  0  0  0  0  0  0  0  0  0  0
  182.6760  179.1990  143.2660 C   0  0  0  0  0  2  0  0  0  0  0  0
  183.3300  179.1130  140.2820 C   0  0  0  0  0  1  0  0  0  0  0  0
  191.7000  176.7560  146.0110 C   0  0  0  0  0  3  0  0  0  0  0  0
  189.8160  176.8500  147.4010 C   0  0  0  0  0  3  0  0  0  0  0  0
  191.6850  177.1160  143.7530 N   0  0  0  0  0  2  0  0  0  0  0  0
  186.8490  177.6240  145.5820 N   0  0  0  0  0  0  0  0  0  0  0  0
  185.6310  178.4070  140.8840 C   0  0  0  0  0  2  0  0  0  0  0  0
  187.2410  177.7730  144.2960 C   0  0  0  0  0  0  0  0  0  0  0  0
  186.2560  178.0990  143.3450 C   0  0  0  0  0  0  0  0  0  0  0  0
  189.0060  177.1530  146.3120 C   0  0  0  0  0  0  0  0  0  0  0  0
  191.3680  177.3690  142.4980 N   0  0  0  0  0  0  0  0  0  0  0  0
  182.9300  179.2860  144.7690 C   0  0  0  0  0  2  0  0  0  0  0  0
  188.6210  177.5860  143.9310 C   0  0  0  0  0  0  0  0  0  0  0  0
  190.2220  177.8590  140.4900 N   0  0  0  0  0  2  0  0  0  0  0  0
  190.2270  176.8200  139.5420 N   0  0  0  0  0  2  0  0  0  0  0  0
  194.5150  175.7650  136.0470 C   0  0  1  0  0  3  0  0  0  0  0  0
  191.2820  176.6110  138.5980 C   0  0  0  0  0  0  0  0  0  0  0  0
  191.1040  176.4240  137.2200 C   0  0  0  0  0  3  0  0  0  0  0  0
  194.4740  176.0020  137.4670 O   0  0  0  0  0  0  0  0  0  0  0  0
  192.3450  176.2070  136.7770 N   0  0  0  0  0  0  0  0  0  0  0  0
  193.1610  176.2390  137.7890 C   0  0  0  0  0  0  0  0  0  0  0  0
  192.5840  176.4820  138.9760 N   0  0  0  0  0  0  0  0  0  0  0  0
  193.0430  175.9140  135.5480 C   0  0  0  0  0  2  0  0  0  0  0  0
  196.7550  176.8040  135.6420 O   0  0  0  0  0  1  0  0  0  0  0  0
  195.3900  176.7740  135.3810 C   0  0  0  0  0  0  0  0  0  0  0  0
  194.8850  177.6160  134.5940 O   0  0  0  0  0  0  0  0  0  0  0  0
  1  6  1  1  0  0  0
  3 14  1  6  0  0  0
  3  9  1  0  0  0  0
  4 25  1  0  0  0  0
  5 22  1  0  0  0  0
  7  5  2  0  0  0  0
  7 15  1  0  0  0  0
  8 16  1  0  0  0  0
  9 13  1  1  0  0  0
  9  1  1  0  0  0  0
 10 23  2  0  0  0  0
 10  4  1  0  0  0  0
 11 21  2  0  0  0  0
 12 11  1  0  0  0  0
 12  4  2  0  0  0  0
 13 24  1  0  0  0  0
 15  8  2  0  0  0  0
 17  7  1  0  0  0  0
 18  2  2  0  0  0  0
 19  3  1  0  0  0  0
 19 11  1  0  0  0  0
 20 18  1  0  0  0  0
 21  1  1  0  0  0  0
 21 20  1  0  0  0  0
 22  2  1  0  0  0  0
 22 16  2  0  0  0  0
 23 17  1  0  0  0  0
 24  6  1  0  0  0  0
 25 20  2  0  0  0  0
 25  5  1  0  0  0  0
 26 10  1  0  0  0  0
 27 26  1  0  0  0  0
 28 37  1  6  0  0  0
 28 31  1  0  0  0  0
 29 34  1  0  0  0  0
 29 27  1  0  0  0  0
 30 29  2  0  0  0  0
 31 33  1  0  0  0  0
 32 30  1  0  0  0  0
 32 33  1  0  0  0  0
 33 34  2  0  0  0  0
 35 28  1  0  0  0  0
 35 32  1  0  0  0  0
 37 36  1  0  0  0  0
 38 37  2  0  0  0  0
M  END
>  <MODEL>
1

>  <REMARK>
 VINA RESULT:     -11.6      0.000      0.000
  Name = 
  4 active torsions:
  status: ('A' for Active; 'I' for Inactive)
    1  A    between atoms: C_4  and  C_20
    2  A    between atoms: N_11  and  C_12
    3  A    between atoms: N_11  and  N_28
    4  A    between atoms: C_14  and  N_28
                            x       y       z     vdW  Elec       q    Type
                         _______ _______ _______ _____ _____    ______ ____

>  <TORSDO>
F 4

$$$$
=
 OpenBabel10222421033D

 38 45  0  0  1  0  0  0  0  0999 V2000
  188.2640  177.1110  144.8990 C   0  0  1  0  0  3  0  0  0  0  0  0
  190.5740  176.4920  141.4650 N   0  0  0  0  0  0  0  0  0  0  0  0
  186.0960  177.6880  145.8810 C   0  0  1  0  0  3  0  0  0  0  0  0
  186.7970  178.3100  140.9990 C   0  0  0  0  0  0  0  0  0  0  0  0
  188.9670  177.4530  139.9350 C   0  0  0  0  0  0  0  0  0  0  0  0
  189.7260  177.2230  145.2750 C   0  0  0  0  0  2  0  0  0  0  0  0
  188.7130  177.7430  138.5630 C   0  0  0  0  0  0  0  0  0  0  0  0
  190.8350  176.8170  137.9150 N   0  0  0  0  0  0  0  0  0  0  0  0
  187.5940  177.9150  145.9770 C   0  0  1  0  0  3  0  0  0  0  0  0
  186.1100  178.8180  139.8840 C   0  0  0  0  0  0  0  0  0  0  0  0
  186.5270  178.0710  143.3800 C   0  0  0  0  0  0  0  0  0  0  0  0
  186.0920  178.4330  142.1590 N   0  0  0  0  0  0  0  0  0  0  0  0
  188.2770  177.4410  147.2370 C   0  0  0  0  0  2  0  0  0  0  0  0
  185.3700  178.3630  147.0310 C   0  0  0  0  0  1  0  0  0  0  0  0
  189.6660  177.4100  137.5930 C   0  0  0  0  0  3  0  0  0  0  0  0
  191.1250  176.5200  139.1960 C   0  0  0  0  0  3  0  0  0  0  0  0
  187.6210  178.3290  138.0430 N   0  0  0  0  0  2  0  0  0  0  0  0
  189.7850  176.7460  142.4930 N   0  0  0  0  0  0  0  0  0  0  0  0
  185.6070  178.3050  144.5620 C   0  0  0  0  0  2  0  0  0  0  0  0
  188.5820  177.3470  142.3550 C   0  0  0  0  0  0  0  0  0  0  0  0
  187.8260  177.5770  143.5210 C   0  0  0  0  0  0  0  0  0  0  0  0
  190.2220  176.8210  140.2100 C   0  0  0  0  0  0  0  0  0  0  0  0
  186.5180  178.7880  138.6010 N   0  0  0  0  0  0  0  0  0  0  0  0
  189.7220  177.2050  146.8020 C   0  0  0  0  0  2  0  0  0  0  0  0
  188.1020  177.7190  141.0500 C   0  0  0  0  0  0  0  0  0  0  0  0
  184.8130  179.3930  140.1210 N   0  0  0  0  0  2  0  0  0  0  0  0
  183.7200  179.2620  139.2450 N   0  0  0  0  0  2  0  0  0  0  0  0
  179.2320  176.0410  140.3400 C   0  0  1  0  0  3  0  0  0  0  0  0
  182.6180  178.3780  139.4770 C   0  0  0  0  0  0  0  0  0  0  0  0
  182.0000  177.5880  138.4990 C   0  0  0  0  0  3  0  0  0  0  0  0
  180.0210  176.9010  141.1830 O   0  0  0  0  0  0  0  0  0  0  0  0
  181.0030  177.0000  139.1640 N   0  0  0  0  0  0  0  0  0  0  0  0
  181.0200  177.4170  140.3960 C   0  0  0  0  0  0  0  0  0  0  0  0
  181.9960  178.2890  140.6860 N   0  0  0  0  0  0  0  0  0  0  0  0
  179.9070  176.0890  138.9320 C   0  0  0  0  0  2  0  0  0  0  0  0
  178.9320  174.3970  142.2020 O   0  0  0  0  0  1  0  0  0  0  0  0
  179.2450  174.6460  140.8710 C   0  0  0  0  0  0  0  0  0  0  0  0
  179.5610  173.6920  140.1140 O   0  0  0  0  0  0  0  0  0  0  0  0
  1  6  1  6  0  0  0
  1  9  1  0  0  0  0
  2 18  1  0  0  0  0
  3  9  1  0  0  0  0
  3 14  1  1  0  0  0
  4 25  1  0  0  0  0
  4 12  2  0  0  0  0
  5 22  1  0  0  0  0
  5 25  2  0  0  0  0
  6 24  1  0  0  0  0
  7  5  1  0  0  0  0
  8 16  2  0  0  0  0
  9 13  1  1  0  0  0
 10 26  1  0  0  0  0
 10  4  1  0  0  0  0
 11 21  2  0  0  0  0
 11 19  1  0  0  0  0
 12 11  1  0  0  0  0
 15  8  1  0  0  0  0
 15  7  2  0  0  0  0
 16 22  1  0  0  0  0
 17  7  1  0  0  0  0
 17 23  1  0  0  0  0
 19  3  1  0  0  0  0
 20 18  2  0  0  0  0
 20 21  1  0  0  0  0
 21  1  1  0  0  0  0
 22  2  2  0  0  0  0
 23 10  2  0  0  0  0
 24 13  1  0  0  0  0
 25 20  1  0  0  0  0
 27 29  1  0  0  0  0
 27 26  1  0  0  0  0
 28 37  1  1  0  0  0
 28 31  1  0  0  0  0
 29 34  1  0  0  0  0
 30 32  1  0  0  0  0
 30 29  2  0  0  0  0
 32 33  1  0  0  0  0
 33 34  2  0  0  0  0
 33 31  1  0  0  0  0
 35 32  1  0  0  0  0
 35 28  1  0  0  0  0
 37 36  1  0  0  0  0
 38 37  2  0  0  0  0
M  END
>  <MODEL>
2

>  <REMARK>
 VINA RESULT:     -11.4      5.225      8.973
  Name = 
  4 active torsions:
  status: ('A' for Active; 'I' for Inactive)
    1  A    between atoms: C_4  and  C_20
    2  A    between atoms: N_11  and  C_12
    3  A    between atoms: N_11  and  N_28
    4  A    between atoms: C_14  and  N_28
                            x       y       z     vdW  Elec       q    Type
                         _______ _______ _______ _____ _____    ______ ____

>  <TORSDO>
F 4

$$$$
=
 OpenBabel10222421033D

 38 45  0  0  1  0  0  0  0  0999 V2000
  184.7740  178.1610  143.6310 C   0  0  1  0  0  3  0  0  0  0  0  0
  187.7650  177.2730  146.4200 N   0  0  0  0  0  0  0  0  0  0  0  0
  184.0930  178.3430  141.2850 C   0  0  1  0  0  3  0  0  0  0  0  0
  188.9000  177.7040  142.3800 C   0  0  0  0  0  0  0  0  0  0  0  0
  189.5710  177.2430  144.8120 C   0  0  0  0  0  0  0  0  0  0  0  0
  184.4020  178.7940  144.9540 C   0  0  0  0  0  2  0  0  0  0  0  0
  190.9730  177.0380  144.6570 C   0  0  0  0  0  0  0  0  0  0  0  0
  191.2300  176.6200  147.0110 N   0  0  0  0  0  0  0  0  0  0  0  0
  184.0230  179.0120  142.6470 C   0  0  1  0  0  3  0  0  0  0  0  0
  190.1400  177.6460  141.7230 C   0  0  0  0  0  0  0  0  0  0  0  0
  186.5730  178.0950  141.8980 C   0  0  0  0  0  0  0  0  0  0  0  0
  187.8600  177.9470  141.5340 N   0  0  0  0  0  0  0  0  0  0  0  0
  182.6550  179.1410  143.2740 C   0  0  0  0  0  2  0  0  0  0  0  0
  183.2350  179.0810  140.2740 C   0  0  0  0  0  1  0  0  0  0  0  0
  191.7590  176.7300  145.7740 C   0  0  0  0  0  3  0  0  0  0  0  0
  189.9100  176.8030  147.2120 C   0  0  0  0  0  3  0  0  0  0  0  0
  191.6860  177.1060  143.5200 N   0  0  0  0  0  2  0  0  0  0  0  0
  186.8940  177.5740  145.4740 N   0  0  0  0  0  0  0  0  0  0  0  0
  185.5540  178.3830  140.8140 C   0  0  0  0  0  2  0  0  0  0  0  0
  187.2530  177.7340  144.1800 C   0  0  0  0  0  0  0  0  0  0  0  0
  186.2420  178.0610  143.2550 C   0  0  0  0  0  0  0  0  0  0  0  0
  189.0720  177.1090  146.1460 C   0  0  0  0  0  0  0  0  0  0  0  0
  191.3350  177.3670  142.2750 N   0  0  0  0  0  0  0  0  0  0  0  0
  182.9470  179.2190  144.7710 C   0  0  0  0  0  2  0  0  0  0  0  0
  188.6240  177.5580  143.7790 C   0  0  0  0  0  0  0  0  0  0  0  0
  190.1370  177.8640  140.3010 N   0  0  0  0  0  2  0  0  0  0  0  0
  189.9690  176.8440  139.3470 N   0  0  0  0  0  2  0  0  0  0  0  0
  194.0270  173.9200  136.7600 C   0  0  1  0  0  3  0  0  0  0  0  0
  191.0540  176.1210  138.7580 C   0  0  0  0  0  0  0  0  0  0  0  0
  192.3680  176.5930  138.6440 C   0  0  0  0  0  3  0  0  0  0  0  0
  192.6390  173.6210  137.0030 O   0  0  0  0  0  0  0  0  0  0  0  0
  192.9890  175.6150  137.9790 N   0  0  0  0  0  0  0  0  0  0  0  0
  192.1270  174.6800  137.7120 C   0  0  0  0  0  0  0  0  0  0  0  0
  190.8830  174.9100  138.1570 N   0  0  0  0  0  0  0  0  0  0  0  0
  194.2910  175.3000  137.4420 C   0  0  0  0  0  2  0  0  0  0  0  0
  195.1720  172.8870  138.7320 O   0  0  0  0  0  1  0  0  0  0  0  0
  194.8940  172.8680  137.3700 C   0  0  0  0  0  0  0  0  0  0  0  0
  195.3950  171.9720  136.6420 O   0  0  0  0  0  0  0  0  0  0  0  0
  1  6  1  1  0  0  0
  3 14  1  6  0  0  0
  3  9  1  0  0  0  0
  4 25  1  0  0  0  0
  5 22  1  0  0  0  0
  7  5  2  0  0  0  0
  7 15  1  0  0  0  0
  8 16  1  0  0  0  0
  9 13  1  1  0  0  0
  9  1  1  0  0  0  0
 10 23  2  0  0  0  0
 10  4  1  0  0  0  0
 11 21  2  0  0  0  0
 12 11  1  0  0  0  0
 12  4  2  0  0  0  0
 13 24  1  0  0  0  0
 15  8  2  0  0  0  0
 17  7  1  0  0  0  0
 18  2  2  0  0  0  0
 19  3  1  0  0  0  0
 19 11  1  0  0  0  0
 20 18  1  0  0  0  0
 21  1  1  0  0  0  0
 21 20  1  0  0  0  0
 22  2  1  0  0  0  0
 22 16  2  0  0  0  0
 23 17  1  0  0  0  0
 24  6  1  0  0  0  0
 25 20  2  0  0  0  0
 25  5  1  0  0  0  0
 26 10  1  0  0  0  0
 27 26  1  0  0  0  0
 28 31  1  0  0  0  0
 28 37  1  1  0  0  0
 28 35  1  0  0  0  0
 29 27  1  0  0  0  0
 30 29  2  0  0  0  0
 31 33  1  0  0  0  0
 32 30  1  0  0  0  0
 33 32  1  0  0  0  0
 33 34  2  0  0  0  0
 34 29  1  0  0  0  0
 35 32  1  0  0  0  0
 37 36  1  0  0  0  0
 38 37  2  0  0  0  0
M  END
>  <MODEL>
3

>  <REMARK>
 VINA RESULT:     -11.4      1.511      1.767
  Name = 
  4 active torsions:
  status: ('A' for Active; 'I' for Inactive)
    1  A    between atoms: C_4  and  C_20
    2  A    between atoms: N_11  and  C_12
    3  A    between atoms: N_11  and  N_28
    4  A    between atoms: C_14  and  N_28
                            x       y       z     vdW  Elec       q    Type
                         _______ _______ _______ _____ _____    ______ ____

>  <TORSDO>
F 4

$$$$
=
 OpenBabel10222421033D

 38 45  0  0  1  0  0  0  0  0999 V2000
  188.0220  177.9870  145.6890 C   0  0  1  0  0  3  0  0  0  0  0  0
  183.9530  178.5800  144.9080 N   0  0  0  0  0  0  0  0  0  0  0  0
  190.3300  178.0030  144.8690 C   0  0  1  0  0  3  0  0  0  0  0  0
  186.5910  178.4280  141.6200 C   0  0  0  0  0  0  0  0  0  0  0  0
  184.1970  178.6840  142.5050 C   0  0  0  0  0  0  0  0  0  0  0  0
  187.2180  177.2650  146.7480 C   0  0  0  0  0  2  0  0  0  0  0  0
  183.4890  178.8630  141.2810 C   0  0  0  0  0  0  0  0  0  0  0  0
  181.4040  179.0930  142.4560 N   0  0  0  0  0  0  0  0  0  0  0  0
  189.3220  177.2350  145.7050 C   0  0  1  0  0  3  0  0  0  0  0  0
  186.3940  178.5020  140.2310 C   0  0  0  0  0  0  0  0  0  0  0  0
  188.3690  178.1370  143.2190 C   0  0  0  0  0  0  0  0  0  0  0  0
  187.9010  178.2780  141.9650 N   0  0  0  0  0  0  0  0  0  0  0  0
  189.6230  177.0950  147.1780 C   0  0  0  0  0  2  0  0  0  0  0  0
  191.7050  177.3680  144.9580 C   0  0  0  0  0  1  0  0  0  0  0  0
  182.1040  179.0630  141.3020 C   0  0  0  0  0  3  0  0  0  0  0  0
  182.0250  178.9310  143.6410 C   0  0  0  0  0  3  0  0  0  0  0  0
  183.9980  178.8620  140.0380 N   0  0  0  0  0  2  0  0  0  0  0  0
  185.2500  178.3760  145.0570 N   0  0  0  0  0  0  0  0  0  0  0  0
  189.8620  177.9600  143.4070 C   0  0  0  0  0  2  0  0  0  0  0  0
  186.0990  178.3060  144.0070 C   0  0  0  0  0  0  0  0  0  0  0  0
  187.4620  178.0760  144.2800 C   0  0  0  0  0  0  0  0  0  0  0  0
  183.4000  178.7290  143.6920 C   0  0  0  0  0  0  0  0  0  0  0  0
  185.2290  178.7070  139.5900 N   0  0  0  0  0  0  0  0  0  0  0  0
  188.2490  176.8960  147.8130 C   0  0  0  0  0  2  0  0  0  0  0  0
  185.6100  178.4750  142.6640 C   0  0  0  0  0  0  0  0  0  0  0  0
  187.5630  178.3940  139.3990 N   0  0  0  0  0  2  0  0  0  0  0  0
  188.0400  177.1830  138.8640 N   0  0  0  0  0  2  0  0  0  0  0  0
  193.4510  176.2600  137.6060 C   0  0  1  0  0  3  0  0  0  0  0  0
  189.4250  176.9120  138.6250 C   0  0  0  0  0  0  0  0  0  0  0  0
  190.4640  177.1770  139.5260 C   0  0  0  0  0  3  0  0  0  0  0  0
  192.2430  176.0460  136.8510 O   0  0  0  0  0  0  0  0  0  0  0  0
  191.5580  176.8240  138.8450 N   0  0  0  0  0  0  0  0  0  0  0  0
  191.2000  176.4160  137.6640 C   0  0  0  0  0  0  0  0  0  0  0  0
  189.8790  176.4400  137.4310 N   0  0  0  0  0  0  0  0  0  0  0  0
  192.9920  176.7910  139.0010 C   0  0  0  0  0  2  0  0  0  0  0  0
  195.5460  174.9800  138.0910 O   0  0  0  0  0  1  0  0  0  0  0  0
  194.1950  174.9750  137.7620 C   0  0  0  0  0  0  0  0  0  0  0  0
  193.6010  173.8820  137.5740 O   0  0  0  0  0  0  0  0  0  0  0  0
  1  9  1  0  0  0  0
  1  6  1  1  0  0  0
  2 18  1  0  0  0  0
  3 14  1  6  0  0  0
  3  9  1  0  0  0  0
  4 12  2  0  0  0  0
  4 25  1  0  0  0  0
  5 25  2  0  0  0  0
  5 22  1  0  0  0  0
  6 24  1  0  0  0  0
  7 15  2  0  0  0  0
  7  5  1  0  0  0  0
  8 16  2  0  0  0  0
  9 13  1  1  0  0  0
 10  4  1  0  0  0  0
 11 19  1  0  0  0  0
 11 21  2  0  0  0  0
 12 11  1  0  0  0  0
 13 24  1  0  0  0  0
 15  8  1  0  0  0  0
 16 22  1  0  0  0  0
 17  7  1  0  0  0  0
 19  3  1  0  0  0  0
 20 21  1  0  0  0  0
 20 18  2  0  0  0  0
 21  1  1  0  0  0  0
 22  2  2  0  0  0  0
 23 17  1  0  0  0  0
 23 10  2  0  0  0  0
 25 20  1  0  0  0  0
 26 10  1  0  0  0  0
 27 26  1  0  0  0  0
 28 37  1  1  0  0  0
 28 35  1  0  0  0  0
 29 27  1  0  0  0  0
 29 30  2  0  0  0  0
 31 28  1  0  0  0  0
 31 33  1  0  0  0  0
 32 35  1  0  0  0  0
 32 30  1  0  0  0  0
 33 32  1  0  0  0  0
 34 33  2  0  0  0  0
 34 29  1  0  0  0  0
 37 36  1  0  0  0  0
 38 37  2  0  0  0  0
M  END
>  <MODEL>
4

>  <REMARK>
 VINA RESULT:     -11.1      2.081      5.434
  Name = 
  4 active torsions:
  status: ('A' for Active; 'I' for Inactive)
    1  A    between atoms: C_4  and  C_20
    2  A    between atoms: N_11  and  C_12
    3  A    between atoms: N_11  and  N_28
    4  A    between atoms: C_14  and  N_28
                            x       y       z     vdW  Elec       q    Type
                         _______ _______ _______ _____ _____    ______ ____

>  <TORSDO>
F 4

$$$$
=
 OpenBabel10222421033D

 38 45  0  0  1  0  0  0  0  0999 V2000
  188.0230  177.9450  145.6530 C   0  0  1  0  0  3  0  0  0  0  0  0
  183.9030  178.4470  145.1160 N   0  0  0  0  0  0  0  0  0  0  0  0
  190.2810  178.0620  144.7120 C   0  0  1  0  0  3  0  0  0  0  0  0
  186.3600  178.5050  141.6880 C   0  0  0  0  0  0  0  0  0  0  0  0
  184.0130  178.6540  142.7090 C   0  0  0  0  0  0  0  0  0  0  0  0
  187.2980  177.1580  146.7230 C   0  0  0  0  0  2  0  0  0  0  0  0
  183.2340  178.8600  141.5330 C   0  0  0  0  0  0  0  0  0  0  0  0
  181.2110  178.9810  142.8260 N   0  0  0  0  0  0  0  0  0  0  0  0
  189.3420  177.2320  145.5690 C   0  0  1  0  0  3  0  0  0  0  0  0
  186.0860  178.6280  140.3160 C   0  0  0  0  0  0  0  0  0  0  0  0
  188.2300  178.2030  143.1760 C   0  0  0  0  0  0  0  0  0  0  0  0
  187.6910  178.3800  141.9560 N   0  0  0  0  0  0  0  0  0  0  0  0
  189.7270  177.0420  147.0170 C   0  0  0  0  0  2  0  0  0  0  0  0
  191.6770  177.4650  144.7010 C   0  0  0  0  0  1  0  0  0  0  0  0
  181.8470  179.0180  141.6370 C   0  0  0  0  0  3  0  0  0  0  0  0
  181.9000  178.7900  143.9680 C   0  0  0  0  0  3  0  0  0  0  0  0
  183.6740  178.9240  140.2660 N   0  0  0  0  0  2  0  0  0  0  0  0
  185.2110  178.2760  145.1860 N   0  0  0  0  0  0  0  0  0  0  0  0
  189.7360  178.0630  143.2770 C   0  0  0  0  0  2  0  0  0  0  0  0
  186.0030  178.2730  144.0900 C   0  0  0  0  0  0  0  0  0  0  0  0
  187.3840  178.0740  144.2810 C   0  0  0  0  0  0  0  0  0  0  0  0
  183.2800  178.6280  143.9380 C   0  0  0  0  0  0  0  0  0  0  0  0
  184.8830  178.8230  139.7470 N   0  0  0  0  0  0  0  0  0  0  0  0
  188.3950  176.7770  147.7150 C   0  0  0  0  0  2  0  0  0  0  0  0
  185.4370  178.4800  142.7830 C   0  0  0  0  0  0  0  0  0  0  0  0
  187.2100  178.5870  139.4180 N   0  0  0  0  0  2  0  0  0  0  0  0
  187.4090  177.5870  138.4490 N   0  0  0  0  0  2  0  0  0  0  0  0
  192.3580  175.0850  137.4700 C   0  0  1  0  0  3  0  0  0  0  0  0
  188.6870  177.0180  138.1460 C   0  0  0  0  0  0  0  0  0  0  0  0
  189.2250  176.8890  136.8580 C   0  0  0  0  0  3  0  0  0  0  0  0
  191.6390  175.3380  138.6920 O   0  0  0  0  0  0  0  0  0  0  0  0
  190.3800  176.2530  137.0710 N   0  0  0  0  0  0  0  0  0  0  0  0
  190.4970  176.0140  138.3440 C   0  0  0  0  0  0  0  0  0  0  0  0
  189.4790  176.4540  139.0990 N   0  0  0  0  0  0  0  0  0  0  0  0
  191.5020  175.7240  136.3320 C   0  0  0  0  0  2  0  0  0  0  0  0
  194.7000  175.2040  138.3450 O   0  0  0  0  0  1  0  0  0  0  0  0
  193.7060  175.7240  137.5230 C   0  0  0  0  0  0  0  0  0  0  0  0
  193.9370  176.7530  136.8360 O   0  0  0  0  0  0  0  0  0  0  0  0
  1  6  1  1  0  0  0
  2 18  1  0  0  0  0
  3 14  1  6  0  0  0
  3  9  1  0  0  0  0
  4 12  2  0  0  0  0
  4 25  1  0  0  0  0
  5 25  2  0  0  0  0
  5 22  1  0  0  0  0
  6 24  1  0  0  0  0
  7 15  2  0  0  0  0
  7  5  1  0  0  0  0
  8 16  2  0  0  0  0
  9  1  1  0  0  0  0
  9 13  1  1  0  0  0
 10  4  1  0  0  0  0
 11 19  1  0  0  0  0
 11 21  2  0  0  0  0
 12 11  1  0  0  0  0
 13 24  1  0  0  0  0
 15  8  1  0  0  0  0
 17  7  1  0  0  0  0
 19  3  1  0  0  0  0
 20 21  1  0  0  0  0
 20 18  2  0  0  0  0
 21  1  1  0  0  0  0
 22 16  1  0  0  0  0
 22  2  2  0  0  0  0
 23 17  1  0  0  0  0
 23 10  2  0  0  0  0
 25 20  1  0  0  0  0
 26 10  1  0  0  0  0
 27 26  1  0  0  0  0
 28 37  1  1  0  0  0
 28 31  1  0  0  0  0
 29 27  1  0  0  0  0
 29 34  1  0  0  0  0
 30 32  1  0  0  0  0
 30 29  2  0  0  0  0
 32 33  1  0  0  0  0
 33 31  1  0  0  0  0
 33 34  2  0  0  0  0
 35 32  1  0  0  0  0
 35 28  1  0  0  0  0
 37 36  1  0  0  0  0
 38 37  2  0  0  0  0
M  END
>  <MODEL>
5

>  <REMARK>
 VINA RESULT:     -11.0      2.065      5.438
  Name = 
  4 active torsions:
  status: ('A' for Active; 'I' for Inactive)
    1  A    between atoms: C_4  and  C_20
    2  A    between atoms: N_11  and  C_12
    3  A    between atoms: N_11  and  N_28
    4  A    between atoms: C_14  and  N_28
                            x       y       z     vdW  Elec       q    Type
                         _______ _______ _______ _____ _____    ______ ____

>  <TORSDO>
F 4

$$$$
=
 OpenBabel10222421033D

 38 45  0  0  1  0  0  0  0  0999 V2000
  184.7670  178.1240  143.6690 C   0  0  1  0  0  3  0  0  0  0  0  0
  187.6540  177.2330  146.5650 N   0  0  0  0  0  0  0  0  0  0  0  0
  184.1800  178.3320  141.3000 C   0  0  1  0  0  3  0  0  0  0  0  0
  188.9470  177.7390  142.5820 C   0  0  0  0  0  0  0  0  0  0  0  0
  189.5240  177.2510  145.0320 C   0  0  0  0  0  0  0  0  0  0  0  0
  184.3330  178.7320  144.9850 C   0  0  0  0  0  2  0  0  0  0  0  0
  190.9340  177.0660  144.9320 C   0  0  0  0  0  0  0  0  0  0  0  0
  191.1000  176.6170  147.2880 N   0  0  0  0  0  0  0  0  0  0  0  0
  184.0450  178.9790  142.6670 C   0  0  1  0  0  3  0  0  0  0  0  0
  190.2130  177.7080  141.9750 C   0  0  0  0  0  0  0  0  0  0  0  0
  186.6360  178.1070  142.0100 C   0  0  0  0  0  0  0  0  0  0  0  0
  187.9380  177.9810  141.6970 N   0  0  0  0  0  0  0  0  0  0  0  0
  182.6520  179.0810  143.2390 C   0  0  0  0  0  2  0  0  0  0  0  0
  183.3540  179.0730  140.2650 C   0  0  0  0  0  1  0  0  0  0  0  0
  191.6780  176.7520  146.0760 C   0  0  0  0  0  3  0  0  0  0  0  0
  189.7710  176.7790  147.4380 C   0  0  0  0  0  3  0  0  0  0  0  0
  191.6910  177.1610  143.8260 N   0  0  0  0  0  2  0  0  0  0  0  0
  186.8180  177.5360  145.5880 N   0  0  0  0  0  0  0  0  0  0  0  0
  185.6580  178.3980  140.8890 C   0  0  0  0  0  2  0  0  0  0  0  0
  187.2270  177.7200  144.3120 C   0  0  0  0  0  0  0  0  0  0  0  0
  186.2510  178.0490  143.3520 C   0  0  0  0  0  0  0  0  0  0  0  0
  188.9720  177.0910  146.3430 C   0  0  0  0  0  0  0  0  0  0  0  0
  191.3880  177.4360  142.5720 N   0  0  0  0  0  0  0  0  0  0  0  0
  182.8810  179.1400  144.7480 C   0  0  0  0  0  2  0  0  0  0  0  0
  188.6160  177.5680  143.9650 C   0  0  0  0  0  0  0  0  0  0  0  0
  190.2660  177.9470  140.5570 N   0  0  0  0  0  2  0  0  0  0  0  0
  190.1320  176.9410  139.5830 N   0  0  0  0  0  2  0  0  0  0  0  0
  186.3150  177.2830  135.4560 C   0  0  1  0  0  3  0  0  0  0  0  0
  189.1270  176.9510  138.5630 C   0  0  0  0  0  0  0  0  0  0  0  0
  188.7800  175.8540  137.7650 C   0  0  0  0  0  3  0  0  0  0  0  0
  186.8020  178.2630  136.3930 O   0  0  0  0  0  0  0  0  0  0  0  0
  187.8630  176.3570  136.9340 N   0  0  0  0  0  0  0  0  0  0  0  0
  187.7060  177.6200  137.2010 C   0  0  0  0  0  0  0  0  0  0  0  0
  188.4620  178.0850  138.2070 N   0  0  0  0  0  0  0  0  0  0  0  0
  187.0350  175.9470  135.8250 C   0  0  0  0  0  2  0  0  0  0  0  0
  184.2180  177.3440  136.8200 O   0  0  0  0  0  1  0  0  0  0  0  0
  184.8370  177.1270  135.5950 C   0  0  0  0  0  0  0  0  0  0  0  0
  184.1500  176.7770  134.6000 O   0  0  0  0  0  0  0  0  0  0  0  0
  1  6  1  1  0  0  0
  3 14  1  6  0  0  0
  3  9  1  0  0  0  0
  4 25  1  0  0  0  0
  5 22  1  0  0  0  0
  7  5  2  0  0  0  0
  7 15  1  0  0  0  0
  8 16  1  0  0  0  0
  9 13  1  1  0  0  0
  9  1  1  0  0  0  0
 10 23  2  0  0  0  0
 10  4  1  0  0  0  0
 11 21  2  0  0  0  0
 12 11  1  0  0  0  0
 12  4  2  0  0  0  0
 13 24  1  0  0  0  0
 15  8  2  0  0  0  0
 17  7  1  0  0  0  0
 18  2  2  0  0  0  0
 19  3  1  0  0  0  0
 19 11  1  0  0  0  0
 20 18  1  0  0  0  0
 21  1  1  0  0  0  0
 21 20  1  0  0  0  0
 22  2  1  0  0  0  0
 22 16  2  0  0  0  0
 23 17  1  0  0  0  0
 24  6  1  0  0  0  0
 25 20  2  0  0  0  0
 25  5  1  0  0  0  0
 26 10  1  0  0  0  0
 27 26  1  0  0  0  0
 28 37  1  1  0  0  0
 28 35  1  0  0  0  0
 28 31  1  0  0  0  0
 29 27  1  0  0  0  0
 30 29  2  0  0  0  0
 31 33  1  0  0  0  0
 32 33  1  0  0  0  0
 32 30  1  0  0  0  0
 33 34  2  0  0  0  0
 34 29  1  0  0  0  0
 35 32  1  0  0  0  0
 37 36  1  0  0  0  0
 38 37  2  0  0  0  0
M  END
>  <MODEL>
6

>  <REMARK>
 VINA RESULT:     -11.0      3.264      4.107
  Name = 
  4 active torsions:
  status: ('A' for Active; 'I' for Inactive)
    1  A    between atoms: C_4  and  C_20
    2  A    between atoms: N_11  and  C_12
    3  A    between atoms: N_11  and  N_28
    4  A    between atoms: C_14  and  N_28
                            x       y       z     vdW  Elec       q    Type
                         _______ _______ _______ _____ _____    ______ ____

>  <TORSDO>
F 4

$$$$
=
 OpenBabel10222421033D

 38 45  0  0  1  0  0  0  0  0999 V2000
  187.9680  177.9380  145.6700 C   0  0  1  0  0  3  0  0  0  0  0  0
  184.0660  178.6500  144.3370 N   0  0  0  0  0  0  0  0  0  0  0  0
  190.3600  177.8100  145.1570 C   0  0  1  0  0  3  0  0  0  0  0  0
  187.0900  178.1940  141.4320 C   0  0  0  0  0  0  0  0  0  0  0  0
  184.6180  178.6000  141.9830 C   0  0  0  0  0  0  0  0  0  0  0  0
  187.0020  177.3150  146.6540 C   0  0  0  0  0  2  0  0  0  0  0  0
  184.0810  178.7350  140.6700 C   0  0  0  0  0  0  0  0  0  0  0  0
  181.8770  179.1190  141.5500 N   0  0  0  0  0  0  0  0  0  0  0  0
  189.2180  177.1350  145.8950 C   0  0  1  0  0  3  0  0  0  0  0  0
  187.0750  178.1920  140.0270 C   0  0  0  0  0  0  0  0  0  0  0  0
  188.6330  177.9260  143.2620 C   0  0  0  0  0  0  0  0  0  0  0  0
  188.3370  178.0110  141.9520 N   0  0  0  0  0  0  0  0  0  0  0  0
  189.3210  177.0710  147.4010 C   0  0  0  0  0  2  0  0  0  0  0  0
  191.6800  177.1250  145.4580 C   0  0  0  0  0  1  0  0  0  0  0  0
  182.7160  178.9920  140.5000 C   0  0  0  0  0  3  0  0  0  0  0  0
  182.3340  179.0030  142.8120 C   0  0  0  0  0  3  0  0  0  0  0  0
  184.7430  178.6380  139.5050 N   0  0  0  0  0  2  0  0  0  0  0  0
  185.3210  178.4020  144.6630 N   0  0  0  0  0  0  0  0  0  0  0  0
  190.0800  177.6990  143.6510 C   0  0  0  0  0  2  0  0  0  0  0  0
  186.2930  178.2340  143.7380 C   0  0  0  0  0  0  0  0  0  0  0  0
  187.5970  177.9660  144.1970 C   0  0  0  0  0  0  0  0  0  0  0  0
  183.6790  178.7490  143.0530 C   0  0  0  0  0  0  0  0  0  0  0  0
  186.0120  178.4060  139.2300 N   0  0  0  0  0  0  0  0  0  0  0  0
  187.8690  176.9670  147.8620 C   0  0  0  0  0  2  0  0  0  0  0  0
  185.9870  178.3420  142.3350 C   0  0  0  0  0  0  0  0  0  0  0  0
  188.3340  177.9860  139.3610 N   0  0  0  0  0  2  0  0  0  0  0  0
  188.6650  176.8210  138.6470 N   0  0  0  0  0  2  0  0  0  0  0  0
  193.8370  174.9730  137.4000 C   0  0  1  0  0  3  0  0  0  0  0  0
  190.0100  176.3950  138.4010 C   0  0  0  0  0  0  0  0  0  0  0  0
  191.1350  177.2300  138.4240 C   0  0  0  0  0  3  0  0  0  0  0  0
  192.5670  174.2970  137.4540 O   0  0  0  0  0  0  0  0  0  0  0  0
  192.1320  176.4120  138.0750 N   0  0  0  0  0  0  0  0  0  0  0  0
  191.6410  175.2300  137.8490 C   0  0  0  0  0  0  0  0  0  0  0  0
  190.3150  175.1230  138.0220 N   0  0  0  0  0  0  0  0  0  0  0  0
  193.5550  176.4450  137.8390 C   0  0  0  0  0  2  0  0  0  0  0  0
  195.0020  172.9550  138.3110 O   0  0  0  0  0  0  0  0  0  0  0  0
  194.8040  174.3300  138.3380 C   0  0  0  0  0  0  0  0  0  0  0  0
  195.4280  175.0370  139.1730 O   0  0  0  0  0  1  0  0  0  0  0  0
  1  9  1  0  0  0  0
  1  6  1  1  0  0  0
  2 18  1  0  0  0  0
  3 14  1  6  0  0  0
  3  9  1  0  0  0  0
  4 12  2  0  0  0  0
  4 25  1  0  0  0  0
  5 25  2  0  0  0  0
  5 22  1  0  0  0  0
  6 24  1  0  0  0  0
  7  5  1  0  0  0  0
  8 16  2  0  0  0  0
  9 13  1  1  0  0  0
 10  4  1  0  0  0  0
 11 19  1  0  0  0  0
 11 21  2  0  0  0  0
 12 11  1  0  0  0  0
 13 24  1  0  0  0  0
 15  7  2  0  0  0  0
 15  8  1  0  0  0  0
 16 22  1  0  0  0  0
 17  7  1  0  0  0  0
 19  3  1  0  0  0  0
 20 21  1  0  0  0  0
 20 18  2  0  0  0  0
 21  1  1  0  0  0  0
 22  2  2  0  0  0  0
 23 17  1  0  0  0  0
 23 10  2  0  0  0  0
 25 20  1  0  0  0  0
 26 10  1  0  0  0  0
 27 26  1  0  0  0  0
 28 31  1  0  0  0  0
 28 35  1  0  0  0  0
 28 37  1  1  0  0  0
 29 30  2  0  0  0  0
 29 27  1  0  0  0  0
 31 33  1  0  0  0  0
 32 30  1  0  0  0  0
 33 34  2  0  0  0  0
 33 32  1  0  0  0  0
 34 29  1  0  0  0  0
 35 32  1  0  0  0  0
 36 37  2  0  0  0  0
 37 38  1  0  0  0  0
M  END
>  <MODEL>
7

>  <REMARK>
 VINA RESULT:     -10.9      2.156      5.378
  Name = 
  4 active torsions:
  status: ('A' for Active; 'I' for Inactive)
    1  A    between atoms: C_4  and  C_20
    2  A    between atoms: N_11  and  C_12
    3  A    between atoms: N_11  and  N_28
    4  A    between atoms: C_14  and  N_28
                            x       y       z     vdW  Elec       q    Type
                         _______ _______ _______ _____ _____    ______ ____

>  <TORSDO>
F 4

$$$$
=
 OpenBabel10222421033D

 38 45  0  0  1  0  0  0  0  0999 V2000
  188.5200  177.0680  145.0980 C   0  0  1  0  0  3  0  0  0  0  0  0
  190.7070  176.4350  141.5860 N   0  0  0  0  0  0  0  0  0  0  0  0
  186.3890  177.6550  146.1540 C   0  0  1  0  0  3  0  0  0  0  0  0
  186.9230  178.2680  141.2500 C   0  0  0  0  0  0  0  0  0  0  0  0
  189.0520  177.4010  140.1120 C   0  0  0  0  0  0  0  0  0  0  0  0
  189.9940  177.1740  145.4230 C   0  0  0  0  0  2  0  0  0  0  0  0
  188.7500  177.6910  138.7490 C   0  0  0  0  0  0  0  0  0  0  0  0
  190.8450  176.7560  138.0290 N   0  0  0  0  0  0  0  0  0  0  0  0
  187.8910  177.8750  146.1970 C   0  0  1  0  0  3  0  0  0  0  0  0
  186.2000  178.7780  140.1590 C   0  0  0  0  0  0  0  0  0  0  0  0
  186.7350  178.0330  143.6400 C   0  0  0  0  0  0  0  0  0  0  0  0
  186.2590  178.3950  142.4340 N   0  0  0  0  0  0  0  0  0  0  0  0
  188.6160  177.4000  147.4340 C   0  0  0  0  0  2  0  0  0  0  0  0
  185.7070  178.3330  147.3280 C   0  0  0  0  0  1  0  0  0  0  0  0
  189.6680  177.3530  137.7470 C   0  0  0  0  0  3  0  0  0  0  0  0
  191.1780  176.4590  139.3000 C   0  0  0  0  0  3  0  0  0  0  0  0
  187.6440  178.2810  138.2670 N   0  0  0  0  0  2  0  0  0  0  0  0
  189.9550  176.6940  142.6410 N   0  0  0  0  0  0  0  0  0  0  0  0
  185.8580  178.2710  144.8520 C   0  0  0  0  0  2  0  0  0  0  0  0
  188.7500  177.3000  142.5440 C   0  0  0  0  0  0  0  0  0  0  0  0
  188.0360  177.5340  143.7350 C   0  0  0  0  0  0  0  0  0  0  0  0
  190.3120  176.7650  140.3440 C   0  0  0  0  0  0  0  0  0  0  0  0
  186.5620  178.7450  138.8630 N   0  0  0  0  0  0  0  0  0  0  0  0
  190.0430  177.1580  146.9490 C   0  0  0  0  0  2  0  0  0  0  0  0
  188.2260  177.6730  141.2560 C   0  0  0  0  0  0  0  0  0  0  0  0
  184.9140  179.3590  140.4400 N   0  0  0  0  0  2  0  0  0  0  0  0
  183.8760  179.4710  139.4970 N   0  0  0  0  0  2  0  0  0  0  0  0
  179.9770  175.4470  138.9380 C   0  0  1  0  0  3  0  0  0  0  0  0
  182.8980  178.4510  139.2670 C   0  0  0  0  0  0  0  0  0  0  0  0
  181.8910  178.5070  138.2940 C   0  0  0  0  0  3  0  0  0  0  0  0
  181.0910  175.5800  139.8410 O   0  0  0  0  0  0  0  0  0  0  0  0
  181.2000  177.3830  138.5040 N   0  0  0  0  0  0  0  0  0  0  0  0
  181.7300  176.7480  139.5070 C   0  0  0  0  0  0  0  0  0  0  0  0
  182.7990  177.3450  140.0550 N   0  0  0  0  0  0  0  0  0  0  0  0
  180.0430  176.6880  137.9930 C   0  0  0  0  0  2  0  0  0  0  0  0
  179.0360  173.3010  138.0600 O   0  0  0  0  0  1  0  0  0  0  0  0
  180.1030  174.1880  138.1460 C   0  0  0  0  0  0  0  0  0  0  0  0
  181.1890  173.9180  137.5710 O   0  0  0  0  0  0  0  0  0  0  0  0
  1  6  1  6  0  0  0
  1  9  1  0  0  0  0
  2 18  1  0  0  0  0
  3  9  1  0  0  0  0
  3 14  1  1  0  0  0
  4 25  1  0  0  0  0
  4 12  2  0  0  0  0
  5 22  1  0  0  0  0
  5 25  2  0  0  0  0
  6 24  1  0  0  0  0
  7  5  1  0  0  0  0
  8 16  2  0  0  0  0
  9 13  1  1  0  0  0
 10 26  1  0  0  0  0
 10  4  1  0  0  0  0
 11 21  2  0  0  0  0
 11 19  1  0  0  0  0
 12 11  1  0  0  0  0
 15  8  1  0  0  0  0
 15  7  2  0  0  0  0
 16 22  1  0  0  0  0
 17  7  1  0  0  0  0
 17 23  1  0  0  0  0
 19  3  1  0  0  0  0
 20 18  2  0  0  0  0
 20 21  1  0  0  0  0
 21  1  1  0  0  0  0
 22  2  2  0  0  0  0
 23 10  2  0  0  0  0
 24 13  1  0  0  0  0
 25 20  1  0  0  0  0
 27 26  1  0  0  0  0
 28 37  1  6  0  0  0
 28 31  1  0  0  0  0
 29 27  1  0  0  0  0
 29 34  1  0  0  0  0
 30 32  1  0  0  0  0
 30 29  2  0  0  0  0
 32 33  1  0  0  0  0
 33 31  1  0  0  0  0
 33 34  2  0  0  0  0
 35 32  1  0  0  0  0
 35 28  1  0  0  0  0
 36 37  1  0  0  0  0
 38 37  2  0  0  0  0
M  END
>  <MODEL>
8

>  <REMARK>
 VINA RESULT:     -10.9      4.897      8.565
  Name = 
  4 active torsions:
  status: ('A' for Active; 'I' for Inactive)
    1  A    between atoms: C_4  and  C_20
    2  A    between atoms: N_11  and  C_12
    3  A    between atoms: N_11  and  N_28
    4  A    between atoms: C_14  and  N_28
                            x       y       z     vdW  Elec       q    Type
                         _______ _______ _______ _____ _____    ______ ____

>  <TORSDO>
F 4

$$$$
=
 OpenBabel10222421033D

 38 45  0  0  1  0  0  0  0  0999 V2000
  187.8950  177.3620  144.6970 C   0  0  1  0  0  3  0  0  0  0  0  0
  189.9740  176.9300  141.0910 N   0  0  0  0  0  0  0  0  0  0  0  0
  185.7760  177.7950  145.8470 C   0  0  1  0  0  3  0  0  0  0  0  0
  186.0740  178.5290  140.9400 C   0  0  0  0  0  0  0  0  0  0  0  0
  188.2050  177.8170  139.7020 C   0  0  0  0  0  0  0  0  0  0  0  0
  189.3710  177.5530  144.9670 C   0  0  0  0  0  2  0  0  0  0  0  0
  187.8320  178.1120  138.3590 C   0  0  0  0  0  0  0  0  0  0  0  0
  189.9490  177.3220  137.5380 N   0  0  0  0  0  0  0  0  0  0  0  0
  187.2620  178.1080  145.8370 C   0  0  1  0  0  3  0  0  0  0  0  0
  185.2780  179.0130  139.8880 C   0  0  0  0  0  0  0  0  0  0  0  0
  185.9970  178.2400  143.3300 C   0  0  0  0  0  0  0  0  0  0  0  0
  185.4520  178.5930  142.1510 N   0  0  0  0  0  0  0  0  0  0  0  0
  188.0640  177.6570  147.0340 C   0  0  0  0  0  2  0  0  0  0  0  0
  185.1010  178.4090  147.0600 C   0  0  0  0  0  1  0  0  0  0  0  0
  188.7280  177.8500  137.3150 C   0  0  0  0  0  3  0  0  0  0  0  0
  190.3510  177.0230  138.7900 C   0  0  0  0  0  3  0  0  0  0  0  0
  186.6730  178.6400  137.9320 N   0  0  0  0  0  2  0  0  0  0  0  0
  189.2510  177.1220  142.1800 N   0  0  0  0  0  0  0  0  0  0  0  0
  185.1560  178.4010  144.5800 C   0  0  0  0  0  2  0  0  0  0  0  0
  188.0080  177.6530  142.1420 C   0  0  0  0  0  0  0  0  0  0  0  0
  187.3290  177.8210  143.3640 C   0  0  0  0  0  0  0  0  0  0  0  0
  189.5100  177.2560  139.8720 C   0  0  0  0  0  0  0  0  0  0  0  0
  185.5890  179.0260  138.5790 N   0  0  0  0  0  0  0  0  0  0  0  0
  189.4830  177.5130  146.4900 C   0  0  0  0  0  2  0  0  0  0  0  0
  187.4110  178.0160  140.8840 C   0  0  0  0  0  0  0  0  0  0  0  0
  183.9710  179.5070  140.2320 N   0  0  0  0  0  2  0  0  0  0  0  0
  182.8220  179.3110  139.4440 N   0  0  0  0  0  2  0  0  0  0  0  0
  179.9850  183.5420  137.0430 C   0  0  1  0  0  3  0  0  0  0  0  0
  182.0410  180.3800  138.8990 C   0  0  0  0  0  0  0  0  0  0  0  0
  180.6510  180.3540  138.7290 C   0  0  0  0  0  3  0  0  0  0  0  0
  181.3860  183.3700  137.3280 O   0  0  0  0  0  0  0  0  0  0  0  0
  180.3930  181.5230  138.1360 N   0  0  0  0  0  0  0  0  0  0  0  0
  181.5140  182.1560  137.9570 C   0  0  0  0  0  0  0  0  0  0  0  0
  182.6050  181.5140  138.4000 N   0  0  0  0  0  0  0  0  0  0  0  0
  179.2760  182.2700  137.6080 C   0  0  0  0  0  2  0  0  0  0  0  0
  179.5920  186.0120  137.1190 O   0  0  0  0  0  0  0  0  0  0  0  0
  179.4670  184.7660  137.7220 C   0  0  0  0  0  0  0  0  0  0  0  0
  178.9330  184.6720  138.8580 O   0  0  0  0  0  1  0  0  0  0  0  0
  1  6  1  6  0  0  0
  1  9  1  0  0  0  0
  2 18  1  0  0  0  0
  3 14  1  1  0  0  0
  4 12  2  0  0  0  0
  5 22  1  0  0  0  0
  5 25  2  0  0  0  0
  6 24  1  0  0  0  0
  7  5  1  0  0  0  0
  8 16  2  0  0  0  0
  9  3  1  0  0  0  0
  9 13  1  1  0  0  0
 10 26  1  0  0  0  0
 10  4  1  0  0  0  0
 11 21  2  0  0  0  0
 11 19  1  0  0  0  0
 12 11  1  0  0  0  0
 15  8  1  0  0  0  0
 15  7  2  0  0  0  0
 16 22  1  0  0  0  0
 17  7  1  0  0  0  0
 17 23  1  0  0  0  0
 19  3  1  0  0  0  0
 20 18  2  0  0  0  0
 20 21  1  0  0  0  0
 21  1  1  0  0  0  0
 22  2  2  0  0  0  0
 23 10  2  0  0  0  0
 24 13  1  0  0  0  0
 25  4  1  0  0  0  0
 25 20  1  0  0  0  0
 27 26  1  0  0  0  0
 28 31  1  0  0  0  0
 28 35  1  0  0  0  0
 28 37  1  1  0  0  0
 29 27  1  0  0  0  0
 30 29  2  0  0  0  0
 31 33  1  0  0  0  0
 32 30  1  0  0  0  0
 33 32  1  0  0  0  0
 33 34  2  0  0  0  0
 34 29  1  0  0  0  0
 35 32  1  0  0  0  0
 36 37  2  0  0  0  0
 37 38  1  0  0  0  0
M  END
>  <MODEL>
9

>  <REMARK>
 VINA RESULT:     -10.9      5.852      9.477
  Name = 
  4 active torsions:
  status: ('A' for Active; 'I' for Inactive)
    1  A    between atoms: C_4  and  C_20
    2  A    between atoms: N_11  and  C_12
    3  A    between atoms: N_11  and  N_28
    4  A    between atoms: C_14  and  N_28
                            x       y       z     vdW  Elec       q    Type
                         _______ _______ _______ _____ _____    ______ ____

>  <TORSDO>
F 4

$$$$
