=
 OpenBabel10222419113D

 64 72  0  0  1  0  0  0  0  0999 V2000
  183.7390  178.3440  142.8770 C   0  0  0  0  0  0  0  0  0  0  0  0
  186.2110  178.2380  142.7760 S   0  0  0  0  0  0  0  0  0  0  0  0
  184.7380  177.9980  141.9990 C   0  0  0  0  0  0  0  0  0  0  0  0
  182.7540  178.7500  141.9860 N   0  0  0  0  0  0  0  0  0  0  0  0
  181.9250  178.2360  140.8880 N   0  0  0  0  0  0  0  0  0  0  0  0
  185.5200  178.7810  144.2340 C   0  0  0  0  0  0  0  0  0  0  0  0
  184.1260  178.8810  144.1040 C   0  0  0  0  0  3  0  0  0  0  0  0
  182.9720  178.9850  140.5950 C   0  0  2  0  0  3  0  0  0  0  0  0
  184.3110  178.1910  140.5160 C   0  0  1  0  0  3  0  0  0  0  0  0
  186.3080  179.0760  145.4800 C   0  0  2  0  0  3  0  0  0  0  0  0
  189.5200  177.0830  144.9380 C   0  0  0  0  0  3  0  0  0  0  0  0
  188.4160  177.9070  144.7200 C   0  0  0  0  0  3  0  0  0  0  0  0
  187.5490  177.3340  146.9090 C   0  0  0  0  0  3  0  0  0  0  0  0
  189.6620  176.4000  146.1550 C   0  0  0  0  0  0  0  0  0  0  0  0
  188.6570  176.5080  147.1270 C   0  0  0  0  0  3  0  0  0  0  0  0
  187.4390  178.0770  145.7130 C   0  0  0  0  0  0  0  0  0  0  0  0
  192.7330  175.2200  148.1350 C   0  0  0  0  0  1  0  0  0  0  0  0
  191.8390  176.1900  147.4190 C   0  0  0  0  0  0  0  0  0  0  0  0
  190.8730  175.7060  146.4800 N   0  0  0  0  0  2  0  0  0  0  0  0
  192.0170  177.4590  147.5830 N   0  0  0  0  0  2  0  0  0  0  0  0
  185.3760  179.1860  146.6730 C   0  0  0  0  0  0  0  0  0  0  0  0
  185.5370  180.1070  147.5230 O   0  0  0  0  0  0  0  0  0  0  0  0
  184.2990  178.2670  146.8620 N   0  0  0  0  0  1  0  0  0  0  0  0
  185.3170  178.9740  139.6870 C   0  0  0  0  0  2  0  0  0  0  0  0
  185.1410  178.6510  138.2190 C   0  0  0  0  0  2  0  0  0  0  0  0
  184.6800  177.3330  138.0760 O   0  0  0  0  0  0  0  0  0  0  0  0
  185.3710  176.8160  136.9890 C   0  0  2  0  0  3  0  0  0  0  0  0
  184.3560  176.2480  135.9860 C   0  0  0  0  0  1  0  0  0  0  0  0
  186.0530  174.3520  137.3650 C   0  0  0  0  0  1  0  0  0  0  0  0
  186.4530  175.8230  137.4550 C   0  0  1  0  0  3  0  0  0  0  0  0
  189.9000  177.6440  139.6890 C   0  0  2  0  0  3  0  0  0  0  0  0
  190.9740  175.7740  136.5680 C   0  0  2  0  0  3  0  0  0  0  0  0
  188.6530  174.8190  137.0130 N   0  0  0  0  0  2  0  0  0  0  0  0
  190.9540  173.5890  137.8540 O   0  0  0  0  0  1  0  0  0  0  0  0
  191.2220  177.0660  140.1780 C   0  0  0  0  0  2  0  0  0  0  0  0
  187.8680  176.0550  136.9160 C   0  0  2  0  0  3  0  0  0  0  0  0
  188.7910  177.1470  140.6060 C   0  0  0  0  0  1  0  0  0  0  0  0
  189.5200  174.7560  134.6110 C   0  0  0  0  0  1  0  0  0  0  0  0
  191.8320  176.2910  139.0160 C   0  0  1  0  0  3  0  0  0  0  0  0
  191.0510  174.2370  136.6120 C   0  0  0  0  0  0  0  0  0  0  0  0
  188.5300  177.1730  137.5860 N   0  0  0  0  0  2  0  0  0  0  0  0
  190.7970  176.3600  137.9400 C   0  0  0  0  0  0  0  0  0  0  0  0
  189.7470  177.0630  138.3320 C   0  0  0  0  0  0  0  0  0  0  0  0
  189.7900  174.9050  136.0980 C   0  0  1  0  0  0  0  0  0  0  0  0
  191.8910  173.6630  135.6590 O   0  0  0  0  0  1  0  0  0  0  0  0
  193.1320  176.9590  138.5940 C   0  0  0  0  0  2  0  0  0  0  0  0
  194.0800  176.9770  139.6860 N   0  0  0  0  0  1  0  0  0  0  0  0
  180.7360  179.0720  140.7670 C   0  0  0  0  0  2  0  0  0  0  0  0
  180.4070  179.2550  139.2890 C   0  0  0  0  0  2  0  0  0  0  0  0
  180.9200  180.4760  138.8350 O   0  0  0  0  0  0  0  0  0  0  0  0
  179.4940  178.9600  135.2450 C   0  0  0  0  0  2  0  0  0  0  0  0
  181.1790  180.2700  137.4800 C   0  0  1  0  0  3  0  0  0  0  0  0
  179.6590  178.2970  136.5490 N   0  0  0  0  0  0  0  0  0  0  0  0
  180.0940  180.3730  135.2150 C   0  0  0  0  0  2  0  0  0  0  0  0
  181.3380  178.4790  137.1080 S   0  0  0  0  0  0  0  0  0  0  0  0
  180.1040  180.9660  136.6280 C   0  0  2  0  0  3  0  0  0  0  0  0
  180.2790  182.4800  136.6140 C   0  0  0  0  0  3  0  0  0  0  0  0
  181.1090  183.0160  137.8020 C   0  0  0  0  0  2  0  0  0  0  0  0
  181.8460  184.3090  137.4600 C   0  0  0  0  0  2  0  0  0  0  0  0
  180.7980  184.4960  135.1900 C   0  0  0  0  0  2  0  0  0  0  0  0
  180.9980  185.1770  136.5500 C   0  0  0  0  0  2  0  0  0  0  0  0
  180.8180  182.9620  135.2630 C   0  0  0  0  0  2  0  0  0  0  0  0
  179.4640  176.8770  136.2830 C   0  0  0  0  0  2  0  0  0  0  0  0
  179.4780  176.1660  137.4890 O   0  0  0  0  0  1  0  0  0  0  0  0
  1  7  1  0  0  0  0
  2  6  1  0  0  0  0
  3  2  1  0  0  0  0
  3  1  2  0  0  0  0
  4  1  1  0  0  0  0
  5  4  1  0  0  0  0
  6 10  1  0  0  0  0
  7  6  2  0  0  0  0
  8  5  1  6  0  0  0
  8  4  1  0  0  0  0
  9 24  1  6  0  0  0
  9  8  1  0  0  0  0
  9  3  1  0  0  0  0
 10 16  1  0  0  0  0
 10 21  1  1  0  0  0
 11 14  1  0  0  0  0
 12 11  2  0  0  0  0
 12 16  1  0  0  0  0
 13 15  1  0  0  0  0
 14 19  1  0  0  0  0
 14 15  2  0  0  0  0
 16 13  2  0  0  0  0
 18 20  2  0  0  0  0
 18 17  1  0  0  0  0
 19 18  1  0  0  0  0
 21 23  1  0  0  0  0
 21 22  2  0  0  0  0
 25 24  1  0  0  0  0
 26 25  1  0  0  0  0
 27 28  1  6  0  0  0
 27 30  1  0  0  0  0
 27 26  1  0  0  0  0
 30 29  1  6  0  0  0
 31 35  1  0  0  0  0
 31 37  1  1  0  0  0
 32 40  1  0  0  0  0
 32 42  1  1  0  0  0
 36 33  1  0  0  0  0
 36 30  1  1  0  0  0
 36 41  1  0  0  0  0
 39 46  1  6  0  0  0
 39 35  1  0  0  0  0
 40 34  1  0  0  0  0
 41 43  1  0  0  0  0
 42 43  2  0  0  0  0
 42 39  1  0  0  0  0
 43 31  1  0  0  0  0
 44 38  1  6  0  0  0
 44 32  1  0  0  0  0
 44 40  1  0  0  0  0
 44 33  1  0  0  0  0
 45 40  1  0  0  0  0
 46 47  1  0  0  0  0
 48  5  1  0  0  0  0
 49 48  1  0  0  0  0
 50 49  1  0  0  0  0
 51 53  1  0  0  0  0
 52 50  1  1  0  0  0
 53 55  1  0  0  0  0
 54 51  1  0  0  0  0
 54 56  1  0  0  0  0
 55 52  1  0  0  0  0
 56 57  1  6  0  0  0
 56 52  1  0  0  0  0
 57 58  1  0  0  0  0
 59 58  1  0  0  0  0
 60 62  1  0  0  0  0
 60 61  1  0  0  0  0
 61 59  1  0  0  0  0
 62 57  1  0  0  0  0
 63 53  1  0  0  0  0
 63 64  1  0  0  0  0
M  END
>  <MODEL>
1

>  <REMARK>
 VINA RESULT:      -7.4      0.000      0.000
  Name = 
  17 active torsions:
  status: ('A' for Active; 'I' for Inactive)
    1  A    between atoms: C_3  and  O_38
    2  A    between atoms: C_3  and  C_58
    3  A    between atoms: C_9  and  C_54
    4  A    between atoms: C_12  and  O_38
    5  A    between atoms: C_14  and  C_35
    6  A    between atoms: C_14  and  O_48
    7  A    between atoms: C_15  and  C_51
    8  A    between atoms: C_15  and  C_52
    9  A    between atoms: N_20  and  C_58
   10  A    between atoms: C_21  and  C_23
   11  A    between atoms: C_21  and  C_28
   12  A    between atoms: C_21  and  C_60
   13  A    between atoms: N_22  and  C_44
   14  A    between atoms: C_29  and  C_35
   15  A    between atoms: C_32  and  C_36
   16  A    between atoms: C_37  and  N_50
   17  A    between atoms: O_48  and  C_51
                            x       y       z     vdW  Elec       q    Type
                         _______ _______ _______ _____ _____    ______ ____

>  <TORSDO>
F 17

$$$$
=
 OpenBabel10222419113D

 64 72  0  0  1  0  0  0  0  0999 V2000
  183.3540  178.4250  143.4560 C   0  0  0  0  0  0  0  0  0  0  0  0
  185.6130  178.1750  142.4750 S   0  0  0  0  0  0  0  0  0  0  0  0
  183.9470  178.1510  142.2460 C   0  0  0  0  0  0  0  0  0  0  0  0
  182.1770  179.0230  143.0250 N   0  0  0  0  0  0  0  0  0  0  0  0
  180.9700  178.7340  142.2390 N   0  0  0  0  0  0  0  0  0  0  0  0
  185.5280  178.5370  144.1370 C   0  0  0  0  0  0  0  0  0  0  0  0
  184.1940  178.7460  144.5200 C   0  0  0  0  0  3  0  0  0  0  0  0
  181.9320  179.4490  141.6850 C   0  0  2  0  0  3  0  0  0  0  0  0
  183.0640  178.5910  141.0450 C   0  0  1  0  0  3  0  0  0  0  0  0
  186.7220  178.5900  145.0490 C   0  0  2  0  0  3  0  0  0  0  0  0
  188.9720  176.3660  142.9110 C   0  0  0  0  0  3  0  0  0  0  0  0
  187.8640  176.8680  143.5950 C   0  0  0  0  0  3  0  0  0  0  0  0
  189.2540  178.5830  144.5940 C   0  0  0  0  0  3  0  0  0  0  0  0
  190.2230  176.9860  143.0400 C   0  0  0  0  0  0  0  0  0  0  0  0
  190.3630  178.0790  143.9080 C   0  0  0  0  0  3  0  0  0  0  0  0
  187.9790  178.0040  144.4110 C   0  0  0  0  0  0  0  0  0  0  0  0
  192.9500  177.1960  140.3450 C   0  0  0  0  0  1  0  0  0  0  0  0
  191.5560  177.1590  140.9020 C   0  0  0  0  0  0  0  0  0  0  0  0
  191.3270  176.6130  142.2060 N   0  0  0  0  0  2  0  0  0  0  0  0
  190.5650  177.5270  140.1600 N   0  0  0  0  0  2  0  0  0  0  0  0
  186.3910  177.9420  146.3800 C   0  0  0  0  0  0  0  0  0  0  0  0
  185.3230  178.2410  146.9860 O   0  0  0  0  0  0  0  0  0  0  0  0
  187.2640  176.9790  146.9750 N   0  0  0  0  0  1  0  0  0  0  0  0
  183.8090  179.4220  140.0110 C   0  0  0  0  0  2  0  0  0  0  0  0
  184.5590  178.5150  139.0600 C   0  0  0  0  0  2  0  0  0  0  0  0
  183.7610  177.4050  138.7360 O   0  0  0  0  0  0  0  0  0  0  0  0
  184.0820  177.0900  137.4240 C   0  0  2  0  0  3  0  0  0  0  0  0
  182.9480  177.5770  136.5100 C   0  0  0  0  0  1  0  0  0  0  0  0
  183.2240  174.6580  137.2700 C   0  0  0  0  0  1  0  0  0  0  0  0
  184.4300  175.5950  137.2910 C   0  0  1  0  0  3  0  0  0  0  0  0
  188.3230  177.6800  136.4620 C   0  0  2  0  0  3  0  0  0  0  0  0
  188.1180  174.2330  134.8890 C   0  0  2  0  0  3  0  0  0  0  0  0
  186.3090  174.1320  136.6820 N   0  0  0  0  0  2  0  0  0  0  0  0
  188.8480  173.1780  137.0750 O   0  0  0  0  0  1  0  0  0  0  0  0
  189.7720  177.2400  136.6180 C   0  0  0  0  0  2  0  0  0  0  0  0
  185.4490  175.2250  136.2110 C   0  0  2  0  0  3  0  0  0  0  0  0
  187.7640  177.9880  137.8440 C   0  0  0  0  0  1  0  0  0  0  0  0
  186.0630  172.5890  134.6610 C   0  0  0  0  0  1  0  0  0  0  0  0
  189.8920  175.8540  135.9950 C   0  0  1  0  0  3  0  0  0  0  0  0
  188.3450  172.9970  135.7770 C   0  0  0  0  0  0  0  0  0  0  0  0
  186.2310  176.3820  135.7800 N   0  0  0  0  0  2  0  0  0  0  0  0
  188.4940  175.5030  135.5990 C   0  0  0  0  0  0  0  0  0  0  0  0
  187.6550  176.4830  135.8910 C   0  0  0  0  0  0  0  0  0  0  0  0
  186.9300  173.4850  135.5270 C   0  0  1  0  0  0  0  0  0  0  0  0
  188.7420  171.8490  135.0940 O   0  0  0  0  0  1  0  0  0  0  0  0
  190.8190  175.9240  134.7900 C   0  0  0  0  0  2  0  0  0  0  0  0
  192.2040  175.8400  135.2010 N   0  0  0  0  0  1  0  0  0  0  0  0
  179.9140  179.6540  142.6450 C   0  0  0  0  0  2  0  0  0  0  0  0
  179.3410  180.3310  141.4050 C   0  0  0  0  0  2  0  0  0  0  0  0
  179.9890  179.8530  140.2590 O   0  0  0  0  0  0  0  0  0  0  0  0
  179.5760  181.4400  136.4470 C   0  0  0  0  0  2  0  0  0  0  0  0
  179.1140  180.1370  139.2120 C   0  0  1  0  0  3  0  0  0  0  0  0
  180.1270  182.0510  137.6680 N   0  0  0  0  0  0  0  0  0  0  0  0
  178.9310  180.0710  136.7050 C   0  0  0  0  0  2  0  0  0  0  0  0
  178.9320  181.9510  138.9830 S   0  0  0  0  0  0  0  0  0  0  0  0
  179.5710  179.4150  137.9330 C   0  0  2  0  0  3  0  0  0  0  0  0
  179.2940  177.9180  137.9940 C   0  0  0  0  0  3  0  0  0  0  0  0
  179.0740  177.2730  136.6080 C   0  0  0  0  0  2  0  0  0  0  0  0
  179.4780  175.8010  136.5780 C   0  0  0  0  0  2  0  0  0  0  0  0
  179.9760  175.7230  139.0340 C   0  0  0  0  0  2  0  0  0  0  0  0
  179.1360  175.1320  137.8950 C   0  0  0  0  0  2  0  0  0  0  0  0
  180.3690  177.1900  138.8090 C   0  0  0  0  0  2  0  0  0  0  0  0
  180.2770  183.4660  137.3530 C   0  0  0  0  0  2  0  0  0  0  0  0
  179.0530  183.9810  136.9090 O   0  0  0  0  0  1  0  0  0  0  0  0
  1  7  1  0  0  0  0
  2  6  1  0  0  0  0
  3  2  1  0  0  0  0
  3  1  2  0  0  0  0
  4  1  1  0  0  0  0
  5 48  1  0  0  0  0
  5  4  1  0  0  0  0
  6  7  2  0  0  0  0
  6 10  1  0  0  0  0
  8  5  1  6  0  0  0
  8  4  1  0  0  0  0
  9 24  1  6  0  0  0
  9  8  1  0  0  0  0
  9  3  1  0  0  0  0
 10 21  1  1  0  0  0
 11 14  2  0  0  0  0
 11 12  1  0  0  0  0
 12 16  2  0  0  0  0
 14 15  1  0  0  0  0
 15 13  2  0  0  0  0
 16 13  1  0  0  0  0
 16 10  1  0  0  0  0
 17 18  1  0  0  0  0
 18 19  1  0  0  0  0
 19 14  1  0  0  0  0
 20 18  2  0  0  0  0
 21 23  1  0  0  0  0
 21 22  2  0  0  0  0
 25 24  1  0  0  0  0
 26 25  1  0  0  0  0
 27 28  1  6  0  0  0
 27 26  1  0  0  0  0
 30 29  1  6  0  0  0
 30 27  1  0  0  0  0
 31 35  1  0  0  0  0
 31 37  1  1  0  0  0
 32 44  1  0  0  0  0
 32 42  1  1  0  0  0
 32 40  1  0  0  0  0
 36 33  1  0  0  0  0
 36 30  1  1  0  0  0
 39 46  1  6  0  0  0
 39 35  1  0  0  0  0
 40 34  1  0  0  0  0
 41 43  1  0  0  0  0
 41 36  1  0  0  0  0
 42 43  2  0  0  0  0
 42 39  1  0  0  0  0
 43 31  1  0  0  0  0
 44 38  1  6  0  0  0
 44 40  1  0  0  0  0
 44 33  1  0  0  0  0
 45 40  1  0  0  0  0
 46 47  1  0  0  0  0
 49 48  1  0  0  0  0
 50 49  1  0  0  0  0
 51 54  1  0  0  0  0
 51 53  1  0  0  0  0
 52 50  1  1  0  0  0
 53 55  1  0  0  0  0
 54 56  1  0  0  0  0
 55 52  1  0  0  0  0
 56 57  1  1  0  0  0
 56 52  1  0  0  0  0
 57 62  1  0  0  0  0
 58 57  1  0  0  0  0
 59 58  1  0  0  0  0
 59 61  1  0  0  0  0
 61 60  1  0  0  0  0
 62 60  1  0  0  0  0
 63 53  1  0  0  0  0
 64 63  1  0  0  0  0
M  END
>  <MODEL>
2

>  <REMARK>
 VINA RESULT:      -7.1      2.258      4.066
  Name = 
  17 active torsions:
  status: ('A' for Active; 'I' for Inactive)
    1  A    between atoms: C_3  and  O_38
    2  A    between atoms: C_3  and  C_58
    3  A    between atoms: C_9  and  C_54
    4  A    between atoms: C_12  and  O_38
    5  A    between atoms: C_14  and  C_35
    6  A    between atoms: C_14  and  O_48
    7  A    between atoms: C_15  and  C_51
    8  A    between atoms: C_15  and  C_52
    9  A    between atoms: N_20  and  C_58
   10  A    between atoms: C_21  and  C_23
   11  A    between atoms: C_21  and  C_28
   12  A    between atoms: C_21  and  C_60
   13  A    between atoms: N_22  and  C_44
   14  A    between atoms: C_29  and  C_35
   15  A    between atoms: C_32  and  C_36
   16  A    between atoms: C_37  and  N_50
   17  A    between atoms: O_48  and  C_51
                            x       y       z     vdW  Elec       q    Type
                         _______ _______ _______ _____ _____    ______ ____

>  <TORSDO>
F 17

$$$$
=
 OpenBabel10222419113D

 64 72  0  0  1  0  0  0  0  0999 V2000
  184.8750  178.6080  141.8520 C   0  0  0  0  0  0  0  0  0  0  0  0
  186.9830  177.9340  142.9610 S   0  0  0  0  0  0  0  0  0  0  0  0
  186.0590  177.9750  141.5560 C   0  0  0  0  0  0  0  0  0  0  0  0
  184.5690  179.1550  140.6120 N   0  0  0  0  0  0  0  0  0  0  0  0
  184.2760  178.7570  139.2290 N   0  0  0  0  0  0  0  0  0  0  0  0
  185.8280  178.7350  143.9200 C   0  0  0  0  0  0  0  0  0  0  0  0
  184.7380  179.1390  143.1330 C   0  0  0  0  0  3  0  0  0  0  0  0
  185.4790  179.2220  139.5140 C   0  0  2  0  0  3  0  0  0  0  0  0
  186.4570  178.1410  140.0630 C   0  0  1  0  0  3  0  0  0  0  0  0
  185.9620  178.9420  145.4040 C   0  0  2  0  0  3  0  0  0  0  0  0
  189.1210  176.8200  145.7300 C   0  0  0  0  0  3  0  0  0  0  0  0
  188.0460  177.5280  145.1910 C   0  0  0  0  0  3  0  0  0  0  0  0
  187.1240  177.8300  147.4110 C   0  0  0  0  0  3  0  0  0  0  0  0
  189.2210  176.6370  147.1180 C   0  0  0  0  0  0  0  0  0  0  0  0
  188.2020  177.1210  147.9510 C   0  0  0  0  0  3  0  0  0  0  0  0
  187.0580  178.0770  146.0230 C   0  0  0  0  0  0  0  0  0  0  0  0
  192.8870  176.2710  148.2000 C   0  0  0  0  0  1  0  0  0  0  0  0
  191.7290  176.3720  147.2490 C   0  0  0  0  0  0  0  0  0  0  0  0
  190.4040  176.0870  147.7100 N   0  0  0  0  0  2  0  0  0  0  0  0
  191.9520  176.6190  146.0000 N   0  0  0  0  0  2  0  0  0  0  0  0
  184.6190  178.7490  146.0820 C   0  0  0  0  0  0  0  0  0  0  0  0
  183.5490  179.0120  145.4620 O   0  0  0  0  0  0  0  0  0  0  0  0
  184.5260  178.2630  147.4220 N   0  0  0  0  0  1  0  0  0  0  0  0
  187.8920  178.6050  139.8610 C   0  0  0  0  0  2  0  0  0  0  0  0
  188.4020  178.1420  138.5130 C   0  0  0  0  0  2  0  0  0  0  0  0
  188.0270  176.8050  138.3000 O   0  0  0  0  0  0  0  0  0  0  0  0
  188.1000  176.6170  136.9270 C   0  0  2  0  0  3  0  0  0  0  0  0
  189.5130  176.9880  136.4540 C   0  0  0  0  0  1  0  0  0  0  0  0
  187.4100  178.3530  135.1410 C   0  0  0  0  0  1  0  0  0  0  0  0
  186.9570  177.3630  136.2130 C   0  0  1  0  0  3  0  0  0  0  0  0
  187.0290  172.9500  135.3740 C   0  0  2  0  0  3  0  0  0  0  0  0
  183.5160  174.3370  135.7290 C   0  0  2  0  0  3  0  0  0  0  0  0
  184.9340  176.1260  136.8630 N   0  0  0  0  0  2  0  0  0  0  0  0
  183.6730  174.1260  138.2510 O   0  0  0  0  0  1  0  0  0  0  0  0
  186.3550  171.7670  136.0570 C   0  0  0  0  0  2  0  0  0  0  0  0
  185.7830  176.5080  135.7280 C   0  0  2  0  0  3  0  0  0  0  0  0
  188.1880  173.4100  136.2480 C   0  0  0  0  0  1  0  0  0  0  0  0
  182.6850  176.8400  135.8850 C   0  0  0  0  0  1  0  0  0  0  0  0
  184.8890  172.1380  136.2540 C   0  0  1  0  0  3  0  0  0  0  0  0
  182.9650  174.6110  137.1390 C   0  0  0  0  0  0  0  0  0  0  0  0
  186.2340  175.3420  134.9700 N   0  0  0  0  0  2  0  0  0  0  0  0
  184.7960  173.5510  135.7770 C   0  0  0  0  0  0  0  0  0  0  0  0
  185.9670  173.9860  135.3400 C   0  0  0  0  0  0  0  0  0  0  0  0
  183.6160  175.7390  136.3620 C   0  0  1  0  0  0  0  0  0  0  0  0
  181.5740  174.6340  137.2320 O   0  0  0  0  0  1  0  0  0  0  0  0
  184.0200  171.2040  135.4240 C   0  0  0  0  0  2  0  0  0  0  0  0
  183.1820  170.3880  136.2760 N   0  0  0  0  0  1  0  0  0  0  0  0
  183.5300  179.8290  138.5800 C   0  0  0  0  0  2  0  0  0  0  0  0
  182.0890  179.3760  138.3720 C   0  0  0  0  0  2  0  0  0  0  0  0
  181.4020  180.3160  137.5930 O   0  0  0  0  0  0  0  0  0  0  0  0
  179.4330  180.9480  141.1910 C   0  0  0  0  0  2  0  0  0  0  0  0
  180.1700  180.4700  138.2280 C   0  0  1  0  0  3  0  0  0  0  0  0
  180.3980  179.9000  140.8160 N   0  0  0  0  0  0  0  0  0  0  0  0
  179.0060  181.8190  140.0010 C   0  0  0  0  0  2  0  0  0  0  0  0
  179.8310  179.0590  139.3540 S   0  0  0  0  0  0  0  0  0  0  0  0
  180.1120  181.8320  138.9400 C   0  0  2  0  0  3  0  0  0  0  0  0
  179.9500  182.9840  137.9560 C   0  0  0  0  0  3  0  0  0  0  0  0
  178.9310  184.0500  138.4140 C   0  0  0  0  0  2  0  0  0  0  0  0
  179.2500  185.4370  137.8620 C   0  0  0  0  0  2  0  0  0  0  0  0
  181.1550  184.6140  136.4550 C   0  0  0  0  0  2  0  0  0  0  0  0
  179.7990  185.3310  136.4520 C   0  0  0  0  0  2  0  0  0  0  0  0
  181.3080  183.5960  137.5940 C   0  0  0  0  0  2  0  0  0  0  0  0
  180.3450  178.9270  141.8990 C   0  0  0  0  0  2  0  0  0  0  0  0
  179.0110  178.6770  142.2430 O   0  0  0  0  0  1  0  0  0  0  0  0
  1  7  1  0  0  0  0
  2  6  1  0  0  0  0
  3  1  2  0  0  0  0
  3  2  1  0  0  0  0
  4  1  1  0  0  0  0
  5  4  1  0  0  0  0
  6 10  1  0  0  0  0
  7  6  2  0  0  0  0
  8  5  1  6  0  0  0
  8  9  1  0  0  0  0
  8  4  1  0  0  0  0
  9 24  1  1  0  0  0
  9  3  1  0  0  0  0
 10 16  1  0  0  0  0
 10 21  1  1  0  0  0
 11 14  1  0  0  0  0
 12 11  2  0  0  0  0
 12 16  1  0  0  0  0
 13 15  1  0  0  0  0
 14 19  1  0  0  0  0
 14 15  2  0  0  0  0
 16 13  2  0  0  0  0
 18 19  1  0  0  0  0
 18 17  1  0  0  0  0
 20 18  2  0  0  0  0
 21 23  1  0  0  0  0
 22 21  2  0  0  0  0
 25 24  1  0  0  0  0
 26 25  1  0  0  0  0
 27 28  1  6  0  0  0
 27 26  1  0  0  0  0
 30 29  1  6  0  0  0
 30 27  1  0  0  0  0
 31 35  1  0  0  0  0
 31 37  1  1  0  0  0
 32 42  1  1  0  0  0
 32 44  1  0  0  0  0
 32 40  1  0  0  0  0
 35 39  1  0  0  0  0
 36 30  1  1  0  0  0
 36 33  1  0  0  0  0
 39 46  1  6  0  0  0
 40 45  1  0  0  0  0
 40 34  1  0  0  0  0
 41 43  1  0  0  0  0
 41 36  1  0  0  0  0
 42 39  1  0  0  0  0
 43 31  1  0  0  0  0
 43 42  2  0  0  0  0
 44 38  1  6  0  0  0
 44 33  1  0  0  0  0
 44 40  1  0  0  0  0
 46 47  1  0  0  0  0
 48  5  1  0  0  0  0
 49 48  1  0  0  0  0
 50 49  1  0  0  0  0
 52 50  1  1  0  0  0
 52 56  1  0  0  0  0
 52 55  1  0  0  0  0
 53 51  1  0  0  0  0
 53 63  1  0  0  0  0
 54 51  1  0  0  0  0
 55 53  1  0  0  0  0
 56 57  1  6  0  0  0
 56 54  1  0  0  0  0
 57 58  1  0  0  0  0
 59 58  1  0  0  0  0
 60 62  1  0  0  0  0
 61 60  1  0  0  0  0
 61 59  1  0  0  0  0
 62 57  1  0  0  0  0
 63 64  1  0  0  0  0
M  END
>  <MODEL>
3

>  <REMARK>
 VINA RESULT:      -6.9      2.355      4.643
  Name = 
  17 active torsions:
  status: ('A' for Active; 'I' for Inactive)
    1  A    between atoms: C_3  and  O_38
    2  A    between atoms: C_3  and  C_58
    3  A    between atoms: C_9  and  C_54
    4  A    between atoms: C_12  and  O_38
    5  A    between atoms: C_14  and  C_35
    6  A    between atoms: C_14  and  O_48
    7  A    between atoms: C_15  and  C_51
    8  A    between atoms: C_15  and  C_52
    9  A    between atoms: N_20  and  C_58
   10  A    between atoms: C_21  and  C_23
   11  A    between atoms: C_21  and  C_28
   12  A    between atoms: C_21  and  C_60
   13  A    between atoms: N_22  and  C_44
   14  A    between atoms: C_29  and  C_35
   15  A    between atoms: C_32  and  C_36
   16  A    between atoms: C_37  and  N_50
   17  A    between atoms: O_48  and  C_51
                            x       y       z     vdW  Elec       q    Type
                         _______ _______ _______ _____ _____    ______ ____

>  <TORSDO>
F 17

$$$$
=
 OpenBabel10222419113D

 64 72  0  0  1  0  0  0  0  0999 V2000
  185.2150  178.3140  141.7380 C   0  0  0  0  0  0  0  0  0  0  0  0
  187.3210  177.9120  142.9750 S   0  0  0  0  0  0  0  0  0  0  0  0
  186.4750  177.8080  141.5250 C   0  0  0  0  0  0  0  0  0  0  0  0
  184.9190  178.7870  140.4670 N   0  0  0  0  0  0  0  0  0  0  0  0
  184.7460  178.3180  139.0850 N   0  0  0  0  0  0  0  0  0  0  0  0
  186.0340  178.6060  143.8470 C   0  0  0  0  0  0  0  0  0  0  0  0
  184.9510  178.8630  142.9920 C   0  0  0  0  0  3  0  0  0  0  0  0
  185.8740  178.9240  139.4140 C   0  0  2  0  0  3  0  0  0  0  0  0
  186.9340  177.9750  140.0490 C   0  0  1  0  0  3  0  0  0  0  0  0
  186.0640  178.8690  145.3270 C   0  0  2  0  0  3  0  0  0  0  0  0
  188.3620  177.4730  148.0390 C   0  0  0  0  0  3  0  0  0  0  0  0
  187.2940  178.1010  147.3970 C   0  0  0  0  0  3  0  0  0  0  0  0
  188.4440  177.8940  145.2740 C   0  0  0  0  0  3  0  0  0  0  0  0
  189.4660  177.0240  147.2990 C   0  0  0  0  0  0  0  0  0  0  0  0
  189.5130  177.2650  145.9190 C   0  0  0  0  0  3  0  0  0  0  0  0
  187.3000  178.2830  146.0050 C   0  0  0  0  0  0  0  0  0  0  0  0
  192.9400  175.7130  148.2770 C   0  0  0  0  0  1  0  0  0  0  0  0
  191.8000  176.0610  147.3650 C   0  0  0  0  0  0  0  0  0  0  0  0
  190.4800  176.2100  147.9000 N   0  0  0  0  0  2  0  0  0  0  0  0
  192.0030  176.1250  146.0900 N   0  0  0  0  0  2  0  0  0  0  0  0
  184.7730  178.3980  145.9680 C   0  0  0  0  0  0  0  0  0  0  0  0
  184.7640  177.3670  146.7000 O   0  0  0  0  0  0  0  0  0  0  0  0
  183.5450  179.1020  145.7710 N   0  0  0  0  0  1  0  0  0  0  0  0
  188.3170  178.5900  139.9050 C   0  0  0  0  0  2  0  0  0  0  0  0
  189.0230  178.0020  138.7020 C   0  0  0  0  0  2  0  0  0  0  0  0
  188.9690  176.6000  138.7600 O   0  0  0  0  0  0  0  0  0  0  0  0
  189.4280  176.1610  137.5270 C   0  0  2  0  0  3  0  0  0  0  0  0
  190.9350  176.4400  137.4360 C   0  0  0  0  0  1  0  0  0  0  0  0
  189.3950  177.3810  135.2490 C   0  0  0  0  0  1  0  0  0  0  0  0
  188.5840  176.7610  136.3860 C   0  0  1  0  0  3  0  0  0  0  0  0
  188.9340  172.5960  134.7390 C   0  0  2  0  0  3  0  0  0  0  0  0
  185.3740  173.5410  135.6460 C   0  0  2  0  0  3  0  0  0  0  0  0
  186.7480  175.2330  136.9660 N   0  0  0  0  0  2  0  0  0  0  0  0
  185.8060  172.9030  138.0610 O   0  0  0  0  0  1  0  0  0  0  0  0
  188.4330  171.2500  135.2460 C   0  0  0  0  0  2  0  0  0  0  0  0
  187.4410  175.8930  135.8540 C   0  0  2  0  0  3  0  0  0  0  0  0
  190.1350  173.0080  135.5800 C   0  0  0  0  0  1  0  0  0  0  0  0
  184.3590  175.8800  136.3350 C   0  0  0  0  0  1  0  0  0  0  0  0
  186.9700  171.4310  135.6330 C   0  0  1  0  0  3  0  0  0  0  0  0
  184.9490  173.5040  137.1240 C   0  0  0  0  0  0  0  0  0  0  0  0
  187.9070  174.9310  134.8560 N   0  0  0  0  0  2  0  0  0  0  0  0
  186.7120  172.8900  135.4370 C   0  0  0  0  0  0  0  0  0  0  0  0
  187.7920  173.5100  134.9890 C   0  0  0  0  0  0  0  0  0  0  0  0
  185.4220  174.8120  136.5170 C   0  0  1  0  0  0  0  0  0  0  0  0
  183.5780  173.3710  137.3390 O   0  0  0  0  0  1  0  0  0  0  0  0
  186.1000  170.5770  134.7220 C   0  0  0  0  0  2  0  0  0  0  0  0
  184.8760  170.1930  135.3900 N   0  0  0  0  0  1  0  0  0  0  0  0
  183.9230  179.2810  138.3620 C   0  0  0  0  0  2  0  0  0  0  0  0
  182.5670  178.6510  138.0650 C   0  0  0  0  0  2  0  0  0  0  0  0
  181.5590  179.6170  138.1720 O   0  0  0  0  0  0  0  0  0  0  0  0
  179.8360  175.8440  138.2620 C   0  0  0  0  0  2  0  0  0  0  0  0
  180.3750  178.8870  138.2620 C   0  0  1  0  0  3  0  0  0  0  0  0
  180.7260  176.4500  137.2580 N   0  0  0  0  0  0  0  0  0  0  0  0
  179.3820  176.8420  139.3360 C   0  0  0  0  0  2  0  0  0  0  0  0
  180.0360  177.9900  136.6950 S   0  0  0  0  0  0  0  0  0  0  0  0
  180.4230  177.9570  139.4870 C   0  0  2  0  0  3  0  0  0  0  0  0
  180.2590  178.7240  140.7930 C   0  0  0  0  0  3  0  0  0  0  0  0
  178.9320  178.4240  141.5230 C   0  0  0  0  0  2  0  0  0  0  0  0
  179.0470  178.5980  143.0360 C   0  0  0  0  0  2  0  0  0  0  0  0
  181.3950  179.4680  142.9180 C   0  0  0  0  0  2  0  0  0  0  0  0
  179.9580  179.7640  143.3660 C   0  0  0  0  0  2  0  0  0  0  0  0
  181.4790  178.5350  141.7020 C   0  0  0  0  0  2  0  0  0  0  0  0
  180.6900  175.5420  136.1190 C   0  0  0  0  0  2  0  0  0  0  0  0
  180.0980  174.3310  136.4990 O   0  0  0  0  0  1  0  0  0  0  0  0
  1  7  1  0  0  0  0
  2  6  1  0  0  0  0
  3  1  2  0  0  0  0
  3  2  1  0  0  0  0
  4  1  1  0  0  0  0
  5  4  1  0  0  0  0
  6 10  1  0  0  0  0
  7  6  2  0  0  0  0
  8  5  1  6  0  0  0
  8  9  1  0  0  0  0
  8  4  1  0  0  0  0
  9 24  1  1  0  0  0
  9  3  1  0  0  0  0
 10 21  1  1  0  0  0
 10 16  1  0  0  0  0
 12 11  1  0  0  0  0
 13 15  2  0  0  0  0
 13 16  1  0  0  0  0
 14 19  1  0  0  0  0
 14 11  2  0  0  0  0
 15 14  1  0  0  0  0
 16 12  2  0  0  0  0
 18 19  1  0  0  0  0
 18 17  1  0  0  0  0
 20 18  2  0  0  0  0
 21 22  2  0  0  0  0
 23 21  1  0  0  0  0
 25 26  1  0  0  0  0
 25 24  1  0  0  0  0
 27 28  1  6  0  0  0
 27 26  1  0  0  0  0
 30 29  1  6  0  0  0
 30 27  1  0  0  0  0
 31 43  1  0  0  0  0
 31 35  1  0  0  0  0
 31 37  1  1  0  0  0
 32 42  1  1  0  0  0
 32 44  1  0  0  0  0
 32 40  1  0  0  0  0
 35 39  1  0  0  0  0
 36 30  1  1  0  0  0
 36 33  1  0  0  0  0
 39 46  1  6  0  0  0
 40 45  1  0  0  0  0
 40 34  1  0  0  0  0
 41 43  1  0  0  0  0
 41 36  1  0  0  0  0
 42 39  1  0  0  0  0
 43 42  2  0  0  0  0
 44 38  1  6  0  0  0
 44 33  1  0  0  0  0
 44 40  1  0  0  0  0
 46 47  1  0  0  0  0
 48  5  1  0  0  0  0
 49 50  1  0  0  0  0
 49 48  1  0  0  0  0
 51 54  1  0  0  0  0
 52 50  1  6  0  0  0
 52 56  1  0  0  0  0
 53 51  1  0  0  0  0
 54 56  1  0  0  0  0
 55 53  1  0  0  0  0
 55 52  1  0  0  0  0
 56 57  1  1  0  0  0
 57 58  1  0  0  0  0
 57 62  1  0  0  0  0
 58 59  1  0  0  0  0
 59 61  1  0  0  0  0
 60 61  1  0  0  0  0
 62 60  1  0  0  0  0
 63 64  1  0  0  0  0
 63 53  1  0  0  0  0
M  END
>  <MODEL>
4

>  <REMARK>
 VINA RESULT:      -6.8      2.607      4.818
  Name = 
  17 active torsions:
  status: ('A' for Active; 'I' for Inactive)
    1  A    between atoms: C_3  and  O_38
    2  A    between atoms: C_3  and  C_58
    3  A    between atoms: C_9  and  C_54
    4  A    between atoms: C_12  and  O_38
    5  A    between atoms: C_14  and  C_35
    6  A    between atoms: C_14  and  O_48
    7  A    between atoms: C_15  and  C_51
    8  A    between atoms: C_15  and  C_52
    9  A    between atoms: N_20  and  C_58
   10  A    between atoms: C_21  and  C_23
   11  A    between atoms: C_21  and  C_28
   12  A    between atoms: C_21  and  C_60
   13  A    between atoms: N_22  and  C_44
   14  A    between atoms: C_29  and  C_35
   15  A    between atoms: C_32  and  C_36
   16  A    between atoms: C_37  and  N_50
   17  A    between atoms: O_48  and  C_51
                            x       y       z     vdW  Elec       q    Type
                         _______ _______ _______ _____ _____    ______ ____

>  <TORSDO>
F 17

$$$$
=
 OpenBabel10222419113D

 64 72  0  0  1  0  0  0  0  0999 V2000
  191.4970  176.4400  139.8140 C   0  0  0  0  0  0  0  0  0  0  0  0
  189.9270  176.0790  137.9330 S   0  0  0  0  0  0  0  0  0  0  0  0
  190.1450  176.4350  139.5630 C   0  0  0  0  0  0  0  0  0  0  0  0
  191.5510  177.3470  140.8640 N   0  0  0  0  0  0  0  0  0  0  0  0
  191.0640  177.5360  142.2370 N   0  0  0  0  0  0  0  0  0  0  0  0
  191.5880  175.9370  137.5900 C   0  0  0  0  0  0  0  0  0  0  0  0
  192.3480  176.2650  138.7240 C   0  0  0  0  0  3  0  0  0  0  0  0
  190.4700  178.1930  141.2560 C   0  0  2  0  0  3  0  0  0  0  0  0
  189.3650  177.3700  140.5280 C   0  0  1  0  0  3  0  0  0  0  0  0
  192.1390  175.4920  136.2640 C   0  0  2  0  0  3  0  0  0  0  0  0
  191.2980  171.8710  135.3930 C   0  0  0  0  0  3  0  0  0  0  0  0
  191.9860  173.0120  135.8060 C   0  0  0  0  0  3  0  0  0  0  0  0
  190.1350  174.3970  135.0810 C   0  0  0  0  0  3  0  0  0  0  0  0
  190.0100  171.9810  134.8470 C   0  0  0  0  0  0  0  0  0  0  0  0
  189.4450  173.2520  134.6680 C   0  0  0  0  0  3  0  0  0  0  0  0
  191.4010  174.2830  135.6950 C   0  0  0  0  0  0  0  0  0  0  0  0
  186.9580  169.6550  134.7190 C   0  0  0  0  0  1  0  0  0  0  0  0
  188.0380  170.4850  135.3500 C   0  0  0  0  0  0  0  0  0  0  0  0
  189.2080  170.8200  134.5960 N   0  0  0  0  0  2  0  0  0  0  0  0
  187.9460  170.8060  136.5980 N   0  0  0  0  0  2  0  0  0  0  0  0
  193.6350  175.2620  136.3700 C   0  0  0  0  0  0  0  0  0  0  0  0
  194.4420  176.0500  135.8010 O   0  0  0  0  0  0  0  0  0  0  0  0
  194.1660  174.1650  137.1150 N   0  0  0  0  0  1  0  0  0  0  0  0
  188.4090  178.3190  139.8210 C   0  0  0  0  0  2  0  0  0  0  0  0
  187.2690  177.5390  139.2020 C   0  0  0  0  0  2  0  0  0  0  0  0
  186.6110  178.3370  138.2520 O   0  0  0  0  0  0  0  0  0  0  0  0
  187.0140  177.8480  137.0180 C   0  0  2  0  0  3  0  0  0  0  0  0
  187.9040  178.8990  136.3390 C   0  0  0  0  0  1  0  0  0  0  0  0
  186.0290  177.3560  134.6800 C   0  0  0  0  0  1  0  0  0  0  0  0
  185.7980  177.3910  136.1890 C   0  0  1  0  0  3  0  0  0  0  0  0
  182.2570  177.2410  138.9510 C   0  0  2  0  0  3  0  0  0  0  0  0
  182.8090  173.9960  137.0650 C   0  0  2  0  0  3  0  0  0  0  0  0
  184.1140  175.6780  135.6640 N   0  0  0  0  0  2  0  0  0  0  0  0
  181.5460  174.9240  135.0720 O   0  0  0  0  0  1  0  0  0  0  0  0
  180.8090  176.8200  138.7360 C   0  0  0  0  0  2  0  0  0  0  0  0
  185.0750  176.1330  136.6760 C   0  0  2  0  0  3  0  0  0  0  0  0
  182.4580  178.6080  138.3130 C   0  0  0  0  0  1  0  0  0  0  0  0
  184.8380  173.2310  135.5560 C   0  0  0  0  0  1  0  0  0  0  0  0
  180.8330  175.4830  138.0040 C   0  0  1  0  0  3  0  0  0  0  0  0
  182.3550  173.9030  135.5970 C   0  0  0  0  0  0  0  0  0  0  0  0
  184.4380  176.3380  137.9760 N   0  0  0  0  0  2  0  0  0  0  0  0
  182.2810  175.2350  137.7310 C   0  0  0  0  0  0  0  0  0  0  0  0
  183.0330  176.2100  138.2170 C   0  0  0  0  0  0  0  0  0  0  0  0
  183.7920  174.2740  135.9110 C   0  0  1  0  0  0  0  0  0  0  0  0
  182.1270  172.6090  135.1340 O   0  0  0  0  0  1  0  0  0  0  0  0
  180.2350  174.4090  138.9010 C   0  0  0  0  0  2  0  0  0  0  0  0
  179.1720  173.7030  138.2210 N   0  0  0  0  0  1  0  0  0  0  0  0
  191.9470  178.4720  142.9230 C   0  0  0  0  0  2  0  0  0  0  0  0
  191.5490  178.5420  144.3940 C   0  0  0  0  0  2  0  0  0  0  0  0
  190.1640  178.7160  144.5040 O   0  0  0  0  0  0  0  0  0  0  0  0
  189.8890  176.3650  147.9120 C   0  0  0  0  0  2  0  0  0  0  0  0
  189.6980  177.5220  145.0530 C   0  0  1  0  0  3  0  0  0  0  0  0
  191.0780  176.9260  147.2470 N   0  0  0  0  0  0  0  0  0  0  0  0
  188.6000  176.5770  147.1070 C   0  0  0  0  0  2  0  0  0  0  0  0
  191.0960  176.4340  145.5370 S   0  0  0  0  0  0  0  0  0  0  0  0
  188.7370  177.8170  146.2170 C   0  0  2  0  0  3  0  0  0  0  0  0
  187.3870  178.3260  145.7280 C   0  0  0  0  0  3  0  0  0  0  0  0
  187.1200  178.0310  144.2350 C   0  0  0  0  0  2  0  0  0  0  0  0
  185.6320  177.8910  143.9260 C   0  0  0  0  0  2  0  0  0  0  0  0
  184.9270  178.5120  146.2500 C   0  0  0  0  0  2  0  0  0  0  0  0
  184.8240  178.8660  144.7610 C   0  0  0  0  0  2  0  0  0  0  0  0
  186.2500  177.8330  146.6300 C   0  0  0  0  0  2  0  0  0  0  0  0
  192.2150  176.2690  147.8780 C   0  0  0  0  0  2  0  0  0  0  0  0
  192.6230  175.1800  147.0970 O   0  0  0  0  0  1  0  0  0  0  0  0
  1  4  1  0  0  0  0
  2  3  1  0  0  0  0
  3  1  2  0  0  0  0
  3  9  1  0  0  0  0
  4  5  1  0  0  0  0
  5 48  1  0  0  0  0
  6  2  1  0  0  0  0
  6  7  2  0  0  0  0
  7  1  1  0  0  0  0
  8  4  1  6  0  0  0
  8  5  1  0  0  0  0
  9 24  1  6  0  0  0
  9  8  1  0  0  0  0
 10 21  1  1  0  0  0
 10  6  1  0  0  0  0
 11 12  1  0  0  0  0
 13 16  1  0  0  0  0
 14 11  2  0  0  0  0
 15 14  1  0  0  0  0
 15 13  2  0  0  0  0
 16 12  2  0  0  0  0
 16 10  1  0  0  0  0
 17 18  1  0  0  0  0
 18 20  2  0  0  0  0
 19 14  1  0  0  0  0
 19 18  1  0  0  0  0
 21 23  1  0  0  0  0
 22 21  2  0  0  0  0
 25 24  1  0  0  0  0
 26 25  1  0  0  0  0
 27 28  1  6  0  0  0
 27 26  1  0  0  0  0
 30 29  1  6  0  0  0
 30 27  1  0  0  0  0
 31 37  1  6  0  0  0
 32 42  1  1  0  0  0
 33 44  1  0  0  0  0
 33 36  1  0  0  0  0
 34 40  1  0  0  0  0
 35 31  1  0  0  0  0
 36 30  1  6  0  0  0
 36 41  1  0  0  0  0
 39 35  1  0  0  0  0
 39 46  1  1  0  0  0
 40 44  1  0  0  0  0
 40 32  1  0  0  0  0
 41 43  1  0  0  0  0
 42 39  1  0  0  0  0
 42 43  2  0  0  0  0
 43 31  1  0  0  0  0
 44 38  1  6  0  0  0
 44 32  1  0  0  0  0
 45 40  1  0  0  0  0
 47 46  1  0  0  0  0
 48 49  1  0  0  0  0
 49 50  1  0  0  0  0
 52 50  1  1  0  0  0
 52 55  1  0  0  0  0
 52 56  1  0  0  0  0
 53 63  1  0  0  0  0
 53 51  1  0  0  0  0
 54 51  1  0  0  0  0
 55 53  1  0  0  0  0
 56 57  1  6  0  0  0
 56 54  1  0  0  0  0
 57 62  1  0  0  0  0
 58 57  1  0  0  0  0
 59 58  1  0  0  0  0
 59 61  1  0  0  0  0
 60 62  1  0  0  0  0
 61 60  1  0  0  0  0
 64 63  1  0  0  0  0
M  END
>  <MODEL>
5

>  <REMARK>
 VINA RESULT:      -6.6      3.419     10.753
  Name = 
  17 active torsions:
  status: ('A' for Active; 'I' for Inactive)
    1  A    between atoms: C_3  and  O_38
    2  A    between atoms: C_3  and  C_58
    3  A    between atoms: C_9  and  C_54
    4  A    between atoms: C_12  and  O_38
    5  A    between atoms: C_14  and  C_35
    6  A    between atoms: C_14  and  O_48
    7  A    between atoms: C_15  and  C_51
    8  A    between atoms: C_15  and  C_52
    9  A    between atoms: N_20  and  C_58
   10  A    between atoms: C_21  and  C_23
   11  A    between atoms: C_21  and  C_28
   12  A    between atoms: C_21  and  C_60
   13  A    between atoms: N_22  and  C_44
   14  A    between atoms: C_29  and  C_35
   15  A    between atoms: C_32  and  C_36
   16  A    between atoms: C_37  and  N_50
   17  A    between atoms: O_48  and  C_51
                            x       y       z     vdW  Elec       q    Type
                         _______ _______ _______ _____ _____    ______ ____

>  <TORSDO>
F 17

$$$$
=
 OpenBabel10222419113D

 64 72  0  0  1  0  0  0  0  0999 V2000
  183.5520  178.4500  143.4440 C   0  0  0  0  0  0  0  0  0  0  0  0
  185.9020  178.4320  142.6650 S   0  0  0  0  0  0  0  0  0  0  0  0
  184.2740  178.2260  142.2960 C   0  0  0  0  0  0  0  0  0  0  0  0
  182.3600  178.9130  142.9020 N   0  0  0  0  0  0  0  0  0  0  0  0
  181.2630  178.4860  142.0230 N   0  0  0  0  0  0  0  0  0  0  0  0
  185.6360  178.8040  144.3040 C   0  0  0  0  0  0  0  0  0  0  0  0
  184.2590  178.8730  144.5690 C   0  0  0  0  0  3  0  0  0  0  0  0
  182.1890  179.2930  141.5370 C   0  0  2  0  0  3  0  0  0  0  0  0
  183.4570  178.5540  141.0150 C   0  0  1  0  0  3  0  0  0  0  0  0
  186.7330  178.9970  145.3140 C   0  0  2  0  0  3  0  0  0  0  0  0
  190.4110  177.9690  145.2880 C   0  0  0  0  0  3  0  0  0  0  0  0
  189.2280  178.6620  145.5440 C   0  0  0  0  0  3  0  0  0  0  0  0
  188.0530  177.2480  143.9650 C   0  0  0  0  0  3  0  0  0  0  0  0
  190.4180  176.8910  144.3900 C   0  0  0  0  0  0  0  0  0  0  0  0
  189.2390  176.5540  143.7090 C   0  0  0  0  0  3  0  0  0  0  0  0
  188.0270  178.2880  144.9200 C   0  0  0  0  0  0  0  0  0  0  0  0
  192.7330  173.8510  144.7730 C   0  0  0  0  0  1  0  0  0  0  0  0
  191.9300  175.0410  145.2110 C   0  0  0  0  0  0  0  0  0  0  0  0
  191.5670  176.0440  144.2560 N   0  0  0  0  0  2  0  0  0  0  0  0
  191.6600  175.1990  146.4650 N   0  0  0  0  0  2  0  0  0  0  0  0
  186.2490  178.5960  146.6950 C   0  0  0  0  0  0  0  0  0  0  0  0
  185.9430  179.4810  147.5430 O   0  0  0  0  0  0  0  0  0  0  0  0
  186.1210  177.2220  147.0670 N   0  0  0  0  0  1  0  0  0  0  0  0
  184.1960  179.4470  140.0300 C   0  0  0  0  0  2  0  0  0  0  0  0
  184.9710  178.6000  139.0430 C   0  0  0  0  0  2  0  0  0  0  0  0
  184.1040  177.6880  138.4190 O   0  0  0  0  0  0  0  0  0  0  0  0
  184.7100  177.3710  137.2120 C   0  0  2  0  0  3  0  0  0  0  0  0
  183.6510  177.4280  136.1010 C   0  0  0  0  0  1  0  0  0  0  0  0
  184.6240  174.7930  137.0540 C   0  0  0  0  0  1  0  0  0  0  0  0
  185.4720  176.0360  137.3190 C   0  0  1  0  0  3  0  0  0  0  0  0
  189.3010  178.0040  138.6030 C   0  0  2  0  0  3  0  0  0  0  0  0
  189.8280  175.2620  136.0340 C   0  0  2  0  0  3  0  0  0  0  0  0
  187.5150  174.7180  136.9570 N   0  0  0  0  0  2  0  0  0  0  0  0
  189.8020  173.5160  137.8730 O   0  0  0  0  0  1  0  0  0  0  0  0
  190.6250  177.4390  139.0990 C   0  0  0  0  0  2  0  0  0  0  0  0
  186.8200  175.9600  136.5990 C   0  0  2  0  0  3  0  0  0  0  0  0
  188.2810  177.8930  139.7280 C   0  0  0  0  0  1  0  0  0  0  0  0
  188.0650  173.9210  134.5940 C   0  0  0  0  0  1  0  0  0  0  0  0
  191.0230  176.3190  138.1430 C   0  0  1  0  0  3  0  0  0  0  0  0
  189.7920  173.7950  136.4960 C   0  0  0  0  0  0  0  0  0  0  0  0
  187.6450  177.1380  136.8620 N   0  0  0  0  0  2  0  0  0  0  0  0
  189.8700  176.2100  137.1990 C   0  0  0  0  0  0  0  0  0  0  0  0
  188.9340  177.1010  137.4830 C   0  0  0  0  0  0  0  0  0  0  0  0
  188.5310  174.4330  135.9450 C   0  0  1  0  0  0  0  0  0  0  0  0
  190.4590  172.8990  135.6610 O   0  0  0  0  0  1  0  0  0  0  0  0
  192.3070  176.7060  137.4240 C   0  0  0  0  0  2  0  0  0  0  0  0
  193.4350  176.6710  138.3290 N   0  0  0  0  0  1  0  0  0  0  0  0
  180.0850  179.2920  142.3180 C   0  0  0  0  0  2  0  0  0  0  0  0
  179.3440  179.5830  141.0180 C   0  0  0  0  0  2  0  0  0  0  0  0
  180.2280  179.4890  139.9350 O   0  0  0  0  0  0  0  0  0  0  0  0
  179.9370  179.9770  135.8250 C   0  0  0  0  0  2  0  0  0  0  0  0
  179.4060  179.3950  138.8130 C   0  0  1  0  0  3  0  0  0  0  0  0
  180.3410  180.9410  136.8620 N   0  0  0  0  0  0  0  0  0  0  0  0
  179.4060  178.6600  136.4090 C   0  0  0  0  0  2  0  0  0  0  0  0
  179.0710  181.0560  138.1030 S   0  0  0  0  0  0  0  0  0  0  0  0
  180.0170  178.4190  137.7930 C   0  0  2  0  0  3  0  0  0  0  0  0
  179.8790  176.9680  138.2380 C   0  0  0  0  0  3  0  0  0  0  0  0
  179.3580  176.0290  137.1270 C   0  0  0  0  0  2  0  0  0  0  0  0
  179.8510  174.5940  137.2990 C   0  0  0  0  0  2  0  0  0  0  0  0
  180.9680  175.0710  139.4930 C   0  0  0  0  0  2  0  0  0  0  0  0
  179.9090  174.2280  138.7700 C   0  0  0  0  0  2  0  0  0  0  0  0
  181.1790  176.4570  138.8690 C   0  0  0  0  0  2  0  0  0  0  0  0
  180.3790  182.2330  136.1900 C   0  0  0  0  0  2  0  0  0  0  0  0
  179.8070  183.2100  137.0140 O   0  0  0  0  0  1  0  0  0  0  0  0
  1  7  1  0  0  0  0
  2  6  1  0  0  0  0
  3  2  1  0  0  0  0
  3  1  2  0  0  0  0
  4  1  1  0  0  0  0
  5 48  1  0  0  0  0
  5  4  1  0  0  0  0
  6  7  2  0  0  0  0
  6 10  1  0  0  0  0
  8  5  1  6  0  0  0
  8  4  1  0  0  0  0
  9 24  1  6  0  0  0
  9  8  1  0  0  0  0
  9  3  1  0  0  0  0
 10 21  1  1  0  0  0
 11 12  1  0  0  0  0
 13 16  1  0  0  0  0
 14 11  2  0  0  0  0
 15 13  2  0  0  0  0
 15 14  1  0  0  0  0
 16 10  1  0  0  0  0
 16 12  2  0  0  0  0
 17 18  1  0  0  0  0
 18 20  2  0  0  0  0
 19 14  1  0  0  0  0
 19 18  1  0  0  0  0
 21 23  1  0  0  0  0
 21 22  2  0  0  0  0
 25 24  1  0  0  0  0
 26 25  1  0  0  0  0
 27 28  1  6  0  0  0
 27 30  1  0  0  0  0
 27 26  1  0  0  0  0
 30 29  1  6  0  0  0
 31 35  1  0  0  0  0
 31 37  1  1  0  0  0
 32 40  1  0  0  0  0
 32 42  1  1  0  0  0
 36 41  1  0  0  0  0
 36 33  1  0  0  0  0
 36 30  1  1  0  0  0
 39 46  1  6  0  0  0
 39 35  1  0  0  0  0
 40 34  1  0  0  0  0
 41 43  1  0  0  0  0
 42 43  2  0  0  0  0
 42 39  1  0  0  0  0
 43 31  1  0  0  0  0
 44 38  1  6  0  0  0
 44 32  1  0  0  0  0
 44 40  1  0  0  0  0
 44 33  1  0  0  0  0
 45 40  1  0  0  0  0
 46 47  1  0  0  0  0
 49 48  1  0  0  0  0
 50 49  1  0  0  0  0
 51 54  1  0  0  0  0
 51 53  1  0  0  0  0
 52 50  1  1  0  0  0
 53 55  1  0  0  0  0
 54 56  1  0  0  0  0
 55 52  1  0  0  0  0
 56 57  1  1  0  0  0
 56 52  1  0  0  0  0
 57 62  1  0  0  0  0
 58 59  1  0  0  0  0
 58 57  1  0  0  0  0
 59 61  1  0  0  0  0
 61 60  1  0  0  0  0
 62 60  1  0  0  0  0
 63 53  1  0  0  0  0
 63 64  1  0  0  0  0
M  END
>  <MODEL>
6

>  <REMARK>
 VINA RESULT:      -6.5      1.659      3.342
  Name = 
  17 active torsions:
  status: ('A' for Active; 'I' for Inactive)
    1  A    between atoms: C_3  and  O_38
    2  A    between atoms: C_3  and  C_58
    3  A    between atoms: C_9  and  C_54
    4  A    between atoms: C_12  and  O_38
    5  A    between atoms: C_14  and  C_35
    6  A    between atoms: C_14  and  O_48
    7  A    between atoms: C_15  and  C_51
    8  A    between atoms: C_15  and  C_52
    9  A    between atoms: N_20  and  C_58
   10  A    between atoms: C_21  and  C_23
   11  A    between atoms: C_21  and  C_28
   12  A    between atoms: C_21  and  C_60
   13  A    between atoms: N_22  and  C_44
   14  A    between atoms: C_29  and  C_35
   15  A    between atoms: C_32  and  C_36
   16  A    between atoms: C_37  and  N_50
   17  A    between atoms: O_48  and  C_51
                            x       y       z     vdW  Elec       q    Type
                         _______ _______ _______ _____ _____    ______ ____

>  <TORSDO>
F 17

$$$$
=
 OpenBabel10222419113D

 64 72  0  0  1  0  0  0  0  0999 V2000
  183.9870  177.9480  137.8580 C   0  0  0  0  0  0  0  0  0  0  0  0
  186.4240  178.3690  137.9700 S   0  0  0  0  0  0  0  0  0  0  0  0
  184.8740  178.8230  138.4390 C   0  0  0  0  0  0  0  0  0  0  0  0
  182.9590  177.9800  138.7910 N   0  0  0  0  0  0  0  0  0  0  0  0
  181.9970  178.9080  139.4000 N   0  0  0  0  0  0  0  0  0  0  0  0
  185.9110  177.0510  137.0230 C   0  0  0  0  0  0  0  0  0  0  0  0
  184.5220  176.8810  137.1380 C   0  0  0  0  0  3  0  0  0  0  0  0
  183.0670  178.5590  140.0910 C   0  0  2  0  0  3  0  0  0  0  0  0
  184.3300  179.4130  139.7700 C   0  0  1  0  0  3  0  0  0  0  0  0
  186.8280  176.2200  136.1680 C   0  0  2  0  0  3  0  0  0  0  0  0
  185.8600  172.6410  137.0800 C   0  0  0  0  0  3  0  0  0  0  0  0
  186.3810  173.9330  137.1460 C   0  0  0  0  0  3  0  0  0  0  0  0
  185.8610  174.2660  134.8020 C   0  0  0  0  0  3  0  0  0  0  0  0
  185.3080  172.1610  135.8830 C   0  0  0  0  0  0  0  0  0  0  0  0
  185.3380  172.9710  134.7380 C   0  0  0  0  0  3  0  0  0  0  0  0
  186.3530  174.7760  136.0240 C   0  0  0  0  0  0  0  0  0  0  0  0
  182.4450  169.6520  135.3840 C   0  0  0  0  0  1  0  0  0  0  0  0
  183.1760  170.8120  135.9950 C   0  0  0  0  0  0  0  0  0  0  0  0
  184.5960  170.9190  135.8390 N   0  0  0  0  0  2  0  0  0  0  0  0
  182.5320  171.6480  136.7410 N   0  0  0  0  0  2  0  0  0  0  0  0
  188.2510  176.3140  136.6850 C   0  0  0  0  0  0  0  0  0  0  0  0
  188.4710  176.4800  137.9180 O   0  0  0  0  0  0  0  0  0  0  0  0
  189.3700  176.2120  135.8020 N   0  0  0  0  0  1  0  0  0  0  0  0
  185.3130  179.3210  140.9270 C   0  0  0  0  0  2  0  0  0  0  0  0
  184.6820  178.5800  142.0860 C   0  0  0  0  0  2  0  0  0  0  0  0
  184.5880  179.4320  143.1980 O   0  0  0  0  0  0  0  0  0  0  0  0
  184.6800  178.6030  144.3070 C   0  0  2  0  0  3  0  0  0  0  0  0
  183.3360  178.6230  145.0490 C   0  0  0  0  0  1  0  0  0  0  0  0
  185.5790  179.7430  146.4450 C   0  0  0  0  0  1  0  0  0  0  0  0
  185.9050  178.9750  145.1640 C   0  0  1  0  0  3  0  0  0  0  0  0
  188.7860  177.2460  142.1820 C   0  0  2  0  0  3  0  0  0  0  0  0
  189.6840  176.4110  145.7710 C   0  0  2  0  0  3  0  0  0  0  0  0
  188.1320  178.4140  146.0420 N   0  0  0  0  0  2  0  0  0  0  0  0
  190.8630  178.6430  146.0100 O   0  0  0  0  0  1  0  0  0  0  0  0
  190.3050  177.2900  142.0820 C   0  0  0  0  0  2  0  0  0  0  0  0
  186.9220  177.8610  145.4210 C   0  0  2  0  0  3  0  0  0  0  0  0
  188.2390  178.6050  141.7650 C   0  0  0  0  0  1  0  0  0  0  0  0
  188.3100  176.7810  147.9980 C   0  0  0  0  0  1  0  0  0  0  0  0
  190.8560  176.9360  143.4590 C   0  0  1  0  0  3  0  0  0  0  0  0
  190.3750  177.4820  146.6330 C   0  0  0  0  0  0  0  0  0  0  0  0
  187.2310  177.1130  144.2030 N   0  0  0  0  0  2  0  0  0  0  0  0
  189.6430  176.8060  144.3220 C   0  0  0  0  0  0  0  0  0  0  0  0
  188.5370  177.0120  143.6260 C   0  0  0  0  0  0  0  0  0  0  0  0
  188.8660  177.3340  146.6970 C   0  0  1  0  0  0  0  0  0  0  0  0
  191.1010  176.9880  147.7150 O   0  0  0  0  0  1  0  0  0  0  0  0
  191.6280  175.6280  143.3690 C   0  0  0  0  0  2  0  0  0  0  0  0
  191.8690  175.0810  144.6860 N   0  0  0  0  0  1  0  0  0  0  0  0
  180.8680  178.1430  139.9170 C   0  0  0  0  0  2  0  0  0  0  0  0
  179.5840  178.9300  139.6800 C   0  0  0  0  0  2  0  0  0  0  0  0
  178.9630  178.4860  138.5070 O   0  0  0  0  0  0  0  0  0  0  0  0
  180.0390  176.9230  134.8160 C   0  0  0  0  0  2  0  0  0  0  0  0
  180.0130  178.1410  137.6570 C   0  0  1  0  0  3  0  0  0  0  0  0
  179.1950  176.3450  135.8750 N   0  0  0  0  0  0  0  0  0  0  0  0
  180.7260  178.2270  135.2470 C   0  0  0  0  0  2  0  0  0  0  0  0
  180.0900  176.3220  137.4120 S   0  0  0  0  0  0  0  0  0  0  0  0
  179.8970  178.9190  136.3350 C   0  0  2  0  0  3  0  0  0  0  0  0
  180.2750  180.3860  136.5000 C   0  0  0  0  0  3  0  0  0  0  0  0
  181.1670  180.9260  135.3600 C   0  0  0  0  0  2  0  0  0  0  0  0
  180.9800  182.4250  135.1360 C   0  0  0  0  0  2  0  0  0  0  0  0
  179.4380  182.6900  137.0950 C   0  0  0  0  0  2  0  0  0  0  0  0
  180.7610  183.1350  136.4580 C   0  0  0  0  0  2  0  0  0  0  0  0
  179.0340  181.2550  136.7290 C   0  0  0  0  0  2  0  0  0  0  0  0
  179.0000  174.9530  135.4900 C   0  0  0  0  0  2  0  0  0  0  0  0
  180.2400  174.3610  135.2190 O   0  0  0  0  0  1  0  0  0  0  0  0
  1  3  2  0  0  0  0
  1  4  1  0  0  0  0
  2  3  1  0  0  0  0
  3  9  1  0  0  0  0
  4  5  1  0  0  0  0
  5 48  1  0  0  0  0
  5  8  1  0  0  0  0
  6  7  2  0  0  0  0
  6  2  1  0  0  0  0
  7  1  1  0  0  0  0
  8  4  1  6  0  0  0
  9  8  1  0  0  0  0
  9 24  1  1  0  0  0
 10 21  1  1  0  0  0
 10  6  1  0  0  0  0
 11 12  1  0  0  0  0
 13 16  1  0  0  0  0
 14 11  2  0  0  0  0
 15 13  2  0  0  0  0
 15 14  1  0  0  0  0
 16 10  1  0  0  0  0
 16 12  2  0  0  0  0
 17 18  1  0  0  0  0
 18 20  2  0  0  0  0
 19 14  1  0  0  0  0
 19 18  1  0  0  0  0
 21 22  2  0  0  0  0
 23 21  1  0  0  0  0
 24 25  1  0  0  0  0
 25 26  1  0  0  0  0
 26 27  1  0  0  0  0
 27 28  1  1  0  0  0
 27 30  1  0  0  0  0
 30 29  1  1  0  0  0
 31 37  1  1  0  0  0
 31 43  1  0  0  0  0
 32 42  1  6  0  0  0
 32 40  1  0  0  0  0
 32 44  1  0  0  0  0
 33 44  1  0  0  0  0
 34 40  1  0  0  0  0
 35 31  1  0  0  0  0
 35 39  1  0  0  0  0
 36 30  1  6  0  0  0
 36 33  1  0  0  0  0
 39 46  1  6  0  0  0
 39 42  1  0  0  0  0
 40 44  1  0  0  0  0
 40 45  1  0  0  0  0
 41 36  1  0  0  0  0
 43 41  1  0  0  0  0
 43 42  2  0  0  0  0
 44 38  1  1  0  0  0
 46 47  1  0  0  0  0
 49 48  1  0  0  0  0
 50 49  1  0  0  0  0
 51 54  1  0  0  0  0
 51 53  1  0  0  0  0
 52 50  1  1  0  0  0
 53 55  1  0  0  0  0
 54 56  1  0  0  0  0
 55 52  1  0  0  0  0
 56 57  1  1  0  0  0
 56 52  1  0  0  0  0
 57 62  1  0  0  0  0
 58 57  1  0  0  0  0
 59 58  1  0  0  0  0
 59 61  1  0  0  0  0
 61 60  1  0  0  0  0
 62 60  1  0  0  0  0
 63 53  1  0  0  0  0
 64 63  1  0  0  0  0
M  END
>  <MODEL>
7

>  <REMARK>
 VINA RESULT:      -6.4      2.627      7.889
  Name = 
  17 active torsions:
  status: ('A' for Active; 'I' for Inactive)
    1  A    between atoms: C_3  and  O_38
    2  A    between atoms: C_3  and  C_58
    3  A    between atoms: C_9  and  C_54
    4  A    between atoms: C_12  and  O_38
    5  A    between atoms: C_14  and  C_35
    6  A    between atoms: C_14  and  O_48
    7  A    between atoms: C_15  and  C_51
    8  A    between atoms: C_15  and  C_52
    9  A    between atoms: N_20  and  C_58
   10  A    between atoms: C_21  and  C_23
   11  A    between atoms: C_21  and  C_28
   12  A    between atoms: C_21  and  C_60
   13  A    between atoms: N_22  and  C_44
   14  A    between atoms: C_29  and  C_35
   15  A    between atoms: C_32  and  C_36
   16  A    between atoms: C_37  and  N_50
   17  A    between atoms: O_48  and  C_51
                            x       y       z     vdW  Elec       q    Type
                         _______ _______ _______ _____ _____    ______ ____

>  <TORSDO>
F 17

$$$$
=
 OpenBabel10222419113D

 64 72  0  0  1  0  0  0  0  0999 V2000
  190.4280  175.7930  136.9750 C   0  0  0  0  0  0  0  0  0  0  0  0
  188.6210  176.3420  138.5760 S   0  0  0  0  0  0  0  0  0  0  0  0
  190.2340  175.9320  138.3290 C   0  0  0  0  0  0  0  0  0  0  0  0
  191.7700  176.1390  136.8800 N   0  0  0  0  0  0  0  0  0  0  0  0
  193.0950  175.7100  137.3460 N   0  0  0  0  0  0  0  0  0  0  0  0
  188.2110  176.3280  136.9240 C   0  0  0  0  0  0  0  0  0  0  0  0
  189.3540  176.1010  136.1420 C   0  0  0  0  0  3  0  0  0  0  0  0
  192.5230  176.7470  137.9300 C   0  0  2  0  0  3  0  0  0  0  0  0
  191.5320  176.3600  139.0690 C   0  0  1  0  0  3  0  0  0  0  0  0
  186.8120  176.5050  136.4030 C   0  0  2  0  0  3  0  0  0  0  0  0
  184.1660  173.7550  136.5570 C   0  0  0  0  0  3  0  0  0  0  0  0
  184.8980  174.9110  136.8310 C   0  0  0  0  0  3  0  0  0  0  0  0
  186.6020  174.2110  135.2570 C   0  0  0  0  0  3  0  0  0  0  0  0
  184.6320  172.8330  135.6080 C   0  0  0  0  0  0  0  0  0  0  0  0
  185.8670  173.0540  134.9820 C   0  0  0  0  0  3  0  0  0  0  0  0
  186.1010  175.1760  136.1580 C   0  0  0  0  0  0  0  0  0  0  0  0
  181.5770  170.5430  135.1990 C   0  0  0  0  0  1  0  0  0  0  0  0
  182.7020  171.2330  135.9150 C   0  0  0  0  0  0  0  0  0  0  0  0
  183.8120  171.7430  135.1680 N   0  0  0  0  0  2  0  0  0  0  0  0
  182.7050  171.2710  137.2060 N   0  0  0  0  0  2  0  0  0  0  0  0
  186.8220  177.3920  135.1720 C   0  0  0  0  0  0  0  0  0  0  0  0
  187.9110  177.6670  134.5940 O   0  0  0  0  0  0  0  0  0  0  0  0
  185.6120  177.9280  134.6330 N   0  0  0  0  0  1  0  0  0  0  0  0
  191.3420  177.5460  140.0010 C   0  0  0  0  0  2  0  0  0  0  0  0
  192.1470  177.3440  141.2670 C   0  0  0  0  0  2  0  0  0  0  0  0
  191.3410  176.7520  142.2520 O   0  0  0  0  0  0  0  0  0  0  0  0
  190.6930  177.8050  142.8810 C   0  0  2  0  0  3  0  0  0  0  0  0
  191.7480  178.7190  143.5210 C   0  0  0  0  0  1  0  0  0  0  0  0
  189.6490  177.8990  145.2430 C   0  0  0  0  0  1  0  0  0  0  0  0
  189.6120  177.2820  143.8460 C   0  0  1  0  0  3  0  0  0  0  0  0
  185.8170  177.6620  146.2210 C   0  0  2  0  0  3  0  0  0  0  0  0
  185.2880  178.1200  142.4930 C   0  0  2  0  0  3  0  0  0  0  0  0
  187.7930  178.5190  142.7490 N   0  0  0  0  0  2  0  0  0  0  0  0
  185.9610  180.5570  142.6830 O   0  0  0  0  0  1  0  0  0  0  0  0
  184.7280  178.7270  146.2460 C   0  0  0  0  0  2  0  0  0  0  0  0
  188.1840  177.2160  143.2980 C   0  0  2  0  0  3  0  0  0  0  0  0
  187.0360  178.2080  146.9530 C   0  0  0  0  0  1  0  0  0  0  0  0
  186.9470  177.7110  140.4780 C   0  0  0  0  0  1  0  0  0  0  0  0
  184.3530  179.0200  144.7980 C   0  0  1  0  0  3  0  0  0  0  0  0
  185.6610  179.4680  141.8490 C   0  0  0  0  0  0  0  0  0  0  0  0
  187.2350  176.7440  144.3060 N   0  0  0  0  0  2  0  0  0  0  0  0
  185.3070  178.1980  143.9930 C   0  0  0  0  0  0  0  0  0  0  0  0
  186.1140  177.4990  144.7760 C   0  0  0  0  0  0  0  0  0  0  0  0
  186.6670  178.3310  141.8350 C   0  0  1  0  0  0  0  0  0  0  0  0
  185.0110  179.7450  140.6480 O   0  0  0  0  0  1  0  0  0  0  0  0
  182.9090  178.6040  144.5590 C   0  0  0  0  0  2  0  0  0  0  0  0
  182.4460  179.0660  143.2690 N   0  0  0  0  0  1  0  0  0  0  0  0
  194.1050  176.2230  136.4260 C   0  0  0  0  0  2  0  0  0  0  0  0
  194.3370  175.1970  135.3220 C   0  0  0  0  0  2  0  0  0  0  0  0
  195.3780  174.3340  135.6850 O   0  0  0  0  0  0  0  0  0  0  0  0
  194.8400  170.3620  136.7600 C   0  0  0  0  0  2  0  0  0  0  0  0
  194.8020  173.4480  136.5950 C   0  0  1  0  0  3  0  0  0  0  0  0
  194.5400  171.0430  135.4890 N   0  0  0  0  0  0  0  0  0  0  0  0
  195.2680  171.3320  137.8700 C   0  0  0  0  0  2  0  0  0  0  0  0
  193.4880  172.4460  135.7940 S   0  0  0  0  0  0  0  0  0  0  0  0
  195.8940  172.5870  137.2540 C   0  0  2  0  0  3  0  0  0  0  0  0
  196.7100  173.3800  138.2680 C   0  0  0  0  0  3  0  0  0  0  0  0
  197.8890  174.1550  137.6410 C   0  0  0  0  0  2  0  0  0  0  0  0
  198.2470  175.4110  138.4330 C   0  0  0  0  0  2  0  0  0  0  0  0
  196.6080  174.9170  140.2650 C   0  0  0  0  0  2  0  0  0  0  0  0
  198.0830  175.1630  139.9200 C   0  0  0  0  0  2  0  0  0  0  0  0
  195.8080  174.2810  139.1200 C   0  0  0  0  0  2  0  0  0  0  0  0
  193.7470  170.0910  134.7220 C   0  0  0  0  0  2  0  0  0  0  0  0
  192.4340  170.0730  135.2070 O   0  0  0  0  0  1  0  0  0  0  0  0
  1  3  2  0  0  0  0
  3  2  1  0  0  0  0
  3  9  1  0  0  0  0
  4  1  1  0  0  0  0
  4  5  1  0  0  0  0
  5  8  1  0  0  0  0
  6  2  1  0  0  0  0
  7  6  2  0  0  0  0
  7  1  1  0  0  0  0
  8  4  1  6  0  0  0
  8  9  1  0  0  0  0
  9 24  1  1  0  0  0
 10 21  1  6  0  0  0
 10  6  1  0  0  0  0
 11 12  1  0  0  0  0
 13 16  1  0  0  0  0
 14 11  2  0  0  0  0
 15 13  2  0  0  0  0
 15 14  1  0  0  0  0
 16 10  1  0  0  0  0
 16 12  2  0  0  0  0
 17 18  1  0  0  0  0
 18 20  2  0  0  0  0
 19 14  1  0  0  0  0
 19 18  1  0  0  0  0
 22 21  2  0  0  0  0
 23 21  1  0  0  0  0
 24 25  1  0  0  0  0
 25 26  1  0  0  0  0
 26 27  1  0  0  0  0
 27 28  1  1  0  0  0
 27 30  1  0  0  0  0
 30 29  1  1  0  0  0
 31 35  1  0  0  0  0
 31 37  1  1  0  0  0
 32 42  1  1  0  0  0
 33 36  1  0  0  0  0
 36 30  1  1  0  0  0
 36 41  1  0  0  0  0
 39 46  1  1  0  0  0
 39 35  1  0  0  0  0
 40 32  1  0  0  0  0
 40 34  1  0  0  0  0
 41 43  1  0  0  0  0
 42 43  2  0  0  0  0
 42 39  1  0  0  0  0
 43 31  1  0  0  0  0
 44 38  1  6  0  0  0
 44 40  1  0  0  0  0
 44 32  1  0  0  0  0
 44 33  1  0  0  0  0
 45 40  1  0  0  0  0
 47 46  1  0  0  0  0
 48  5  1  0  0  0  0
 49 50  1  0  0  0  0
 49 48  1  0  0  0  0
 51 54  1  0  0  0  0
 52 50  1  6  0  0  0
 52 56  1  0  0  0  0
 53 55  1  0  0  0  0
 53 51  1  0  0  0  0
 55 52  1  0  0  0  0
 56 54  1  0  0  0  0
 56 57  1  1  0  0  0
 57 62  1  0  0  0  0
 58 57  1  0  0  0  0
 58 59  1  0  0  0  0
 59 61  1  0  0  0  0
 61 60  1  0  0  0  0
 62 60  1  0  0  0  0
 63 64  1  0  0  0  0
 63 53  1  0  0  0  0
M  END
>  <MODEL>
8

>  <REMARK>
 VINA RESULT:      -6.3      4.315     12.359
  Name = 
  17 active torsions:
  status: ('A' for Active; 'I' for Inactive)
    1  A    between atoms: C_3  and  O_38
    2  A    between atoms: C_3  and  C_58
    3  A    between atoms: C_9  and  C_54
    4  A    between atoms: C_12  and  O_38
    5  A    between atoms: C_14  and  C_35
    6  A    between atoms: C_14  and  O_48
    7  A    between atoms: C_15  and  C_51
    8  A    between atoms: C_15  and  C_52
    9  A    between atoms: N_20  and  C_58
   10  A    between atoms: C_21  and  C_23
   11  A    between atoms: C_21  and  C_28
   12  A    between atoms: C_21  and  C_60
   13  A    between atoms: N_22  and  C_44
   14  A    between atoms: C_29  and  C_35
   15  A    between atoms: C_32  and  C_36
   16  A    between atoms: C_37  and  N_50
   17  A    between atoms: O_48  and  C_51
                            x       y       z     vdW  Elec       q    Type
                         _______ _______ _______ _____ _____    ______ ____

>  <TORSDO>
F 17

$$$$
=
 OpenBabel10222419113D

 64 72  0  0  1  0  0  0  0  0999 V2000
  190.8190  176.3110  138.9730 C   0  0  0  0  0  0  0  0  0  0  0  0
  191.7110  174.8640  137.1730 S   0  0  0  0  0  0  0  0  0  0  0  0
  190.3680  175.4590  137.9920 C   0  0  0  0  0  0  0  0  0  0  0  0
  189.7370  177.1760  139.0670 N   0  0  0  0  0  0  0  0  0  0  0  0
  188.3050  177.1830  139.3990 N   0  0  0  0  0  0  0  0  0  0  0  0
  192.8460  175.7210  138.1090 C   0  0  0  0  0  0  0  0  0  0  0  0
  192.1880  176.5670  139.0160 C   0  0  0  0  0  3  0  0  0  0  0  0
  188.6630  177.2300  138.1280 C   0  0  2  0  0  3  0  0  0  0  0  0
  188.9410  175.8310  137.5010 C   0  0  1  0  0  3  0  0  0  0  0  0
  194.3350  175.5550  137.9870 C   0  0  2  0  0  3  0  0  0  0  0  0
  195.6020  173.4420  135.0690 C   0  0  0  0  0  3  0  0  0  0  0  0
  195.1380  174.5180  135.8270 C   0  0  0  0  0  3  0  0  0  0  0  0
  194.7130  173.0280  137.6900 C   0  0  0  0  0  3  0  0  0  0  0  0
  195.6530  172.1550  135.6260 C   0  0  0  0  0  0  0  0  0  0  0  0
  195.1790  171.9510  136.9300 C   0  0  0  0  0  3  0  0  0  0  0  0
  194.7270  174.3350  137.1560 C   0  0  0  0  0  0  0  0  0  0  0  0
  198.3580  169.6280  134.6060 C   0  0  0  0  0  1  0  0  0  0  0  0
  197.7210  170.9760  134.7820 C   0  0  0  0  0  0  0  0  0  0  0  0
  196.3010  171.0760  134.9430 N   0  0  0  0  0  2  0  0  0  0  0  0
  198.4480  172.0400  134.6870 N   0  0  0  0  0  2  0  0  0  0  0  0
  194.9750  175.5500  139.3630 C   0  0  0  0  0  0  0  0  0  0  0  0
  194.7340  176.4820  140.1810 O   0  0  0  0  0  0  0  0  0  0  0  0
  195.8520  174.4980  139.7700 N   0  0  0  0  0  1  0  0  0  0  0  0
  188.8190  175.9200  135.9870 C   0  0  0  0  0  2  0  0  0  0  0  0
  187.9210  174.8150  135.4740 C   0  0  0  0  0  2  0  0  0  0  0  0
  186.7380  175.3690  134.9580 O   0  0  0  0  0  0  0  0  0  0  0  0
  185.7820  175.1850  135.9470 C   0  0  2  0  0  3  0  0  0  0  0  0
  185.9020  173.7530  136.4870 C   0  0  0  0  0  1  0  0  0  0  0  0
  183.4390  174.3940  135.1980 C   0  0  0  0  0  1  0  0  0  0  0  0
  184.3830  175.5730  135.4320 C   0  0  1  0  0  3  0  0  0  0  0  0
  180.0610  175.7180  136.6480 C   0  0  2  0  0  3  0  0  0  0  0  0
  182.1930  178.3010  138.4290 C   0  0  2  0  0  3  0  0  0  0  0  0
  183.9280  176.6250  137.6060 N   0  0  0  0  0  2  0  0  0  0  0  0
  182.8880  176.5670  140.1420 O   0  0  0  0  0  1  0  0  0  0  0  0
  179.3810  175.7150  138.0110 C   0  0  0  0  0  2  0  0  0  0  0  0
  183.6810  176.7200  136.1630 C   0  0  2  0  0  3  0  0  0  0  0  0
  180.5510  174.3060  136.3560 C   0  0  0  0  0  1  0  0  0  0  0  0
  184.6950  179.0300  137.9970 C   0  0  0  0  0  1  0  0  0  0  0  0
  180.0990  176.7470  138.8740 C   0  0  1  0  0  3  0  0  0  0  0  0
  183.0720  177.8530  139.6090 C   0  0  0  0  0  0  0  0  0  0  0  0
  182.2510  176.7660  135.8580 N   0  0  0  0  0  2  0  0  0  0  0  0
  181.2260  177.2270  138.0180 C   0  0  0  0  0  0  0  0  0  0  0  0
  181.2120  176.6350  136.8340 C   0  0  0  0  0  0  0  0  0  0  0  0
  183.6740  177.9280  138.2180 C   0  0  1  0  0  0  0  0  0  0  0  0
  183.4220  178.8660  140.5000 O   0  0  0  0  0  1  0  0  0  0  0  0
  179.1340  177.8720  139.2190 C   0  0  0  0  0  2  0  0  0  0  0  0
  178.9310  177.9550  140.6490 N   0  0  0  0  0  1  0  0  0  0  0  0
  187.9230  178.5320  139.8000 C   0  0  0  0  0  2  0  0  0  0  0  0
  186.7860  178.4460  140.8120 C   0  0  0  0  0  2  0  0  0  0  0  0
  187.2110  178.9470  142.0490 O   0  0  0  0  0  0  0  0  0  0  0  0
  189.3220  177.3600  145.2490 C   0  0  0  0  0  2  0  0  0  0  0  0
  187.4630  177.8150  142.8230 C   0  0  1  0  0  3  0  0  0  0  0  0
  189.8140  178.0480  144.0440 N   0  0  0  0  0  0  0  0  0  0  0  0
  187.8150  177.0730  145.1990 C   0  0  0  0  0  2  0  0  0  0  0  0
  189.1900  177.2330  142.5900 S   0  0  0  0  0  0  0  0  0  0  0  0
  187.1180  178.0960  144.2950 C   0  0  2  0  0  3  0  0  0  0  0  0
  185.6140  178.1400  144.5300 C   0  0  0  0  0  3  0  0  0  0  0  0
  185.2220  178.1600  146.0250 C   0  0  0  0  0  2  0  0  0  0  0  0
  183.8920  178.8690  146.2690 C   0  0  0  0  0  2  0  0  0  0  0  0
  183.4340  179.1960  143.8260 C   0  0  0  0  0  2  0  0  0  0  0  0
  182.9250  178.5840  145.1370 C   0  0  0  0  0  2  0  0  0  0  0  0
  184.9650  179.2840  143.7440 C   0  0  0  0  0  2  0  0  0  0  0  0
  191.2560  177.8400  144.0470 C   0  0  0  0  0  2  0  0  0  0  0  0
  191.9100  179.0770  144.1050 O   0  0  0  0  0  1  0  0  0  0  0  0
  1  7  1  0  0  0  0
  1  4  1  0  0  0  0
  2  3  1  0  0  0  0
  2  6  1  0  0  0  0
  3  1  2  0  0  0  0
  4  5  1  0  0  0  0
  5 48  1  0  0  0  0
  6  7  2  0  0  0  0
  8  4  1  1  0  0  0
  8  5  1  0  0  0  0
  9 24  1  6  0  0  0
  9  3  1  0  0  0  0
  9  8  1  0  0  0  0
 10  6  1  0  0  0  0
 10 21  1  1  0  0  0
 11 14  2  0  0  0  0
 11 12  1  0  0  0  0
 12 16  2  0  0  0  0
 14 15  1  0  0  0  0
 15 13  2  0  0  0  0
 16 13  1  0  0  0  0
 16 10  1  0  0  0  0
 17 18  1  0  0  0  0
 18 19  1  0  0  0  0
 19 14  1  0  0  0  0
 20 18  2  0  0  0  0
 21 23  1  0  0  0  0
 21 22  2  0  0  0  0
 25 24  1  0  0  0  0
 26 25  1  0  0  0  0
 26 27  1  0  0  0  0
 27 28  1  6  0  0  0
 30 29  1  1  0  0  0
 30 27  1  0  0  0  0
 31 37  1  1  0  0  0
 31 43  1  0  0  0  0
 31 35  1  0  0  0  0
 32 42  1  6  0  0  0
 32 40  1  0  0  0  0
 33 44  1  0  0  0  0
 35 39  1  0  0  0  0
 36 30  1  6  0  0  0
 36 33  1  0  0  0  0
 39 46  1  6  0  0  0
 40 34  1  0  0  0  0
 40 45  1  0  0  0  0
 41 36  1  0  0  0  0
 41 43  1  0  0  0  0
 42 39  1  0  0  0  0
 43 42  2  0  0  0  0
 44 38  1  6  0  0  0
 44 32  1  0  0  0  0
 44 40  1  0  0  0  0
 46 47  1  0  0  0  0
 48 49  1  0  0  0  0
 49 50  1  0  0  0  0
 52 50  1  6  0  0  0
 52 56  1  0  0  0  0
 53 63  1  0  0  0  0
 53 51  1  0  0  0  0
 54 51  1  0  0  0  0
 55 52  1  0  0  0  0
 55 53  1  0  0  0  0
 56 57  1  6  0  0  0
 56 54  1  0  0  0  0
 57 58  1  0  0  0  0
 58 59  1  0  0  0  0
 60 61  1  0  0  0  0
 61 59  1  0  0  0  0
 62 60  1  0  0  0  0
 62 57  1  0  0  0  0
 63 64  1  0  0  0  0
M  END
>  <MODEL>
9

>  <REMARK>
 VINA RESULT:      -6.2      3.488     10.317
  Name = 
  17 active torsions:
  status: ('A' for Active; 'I' for Inactive)
    1  A    between atoms: C_3  and  O_38
    2  A    between atoms: C_3  and  C_58
    3  A    between atoms: C_9  and  C_54
    4  A    between atoms: C_12  and  O_38
    5  A    between atoms: C_14  and  C_35
    6  A    between atoms: C_14  and  O_48
    7  A    between atoms: C_15  and  C_51
    8  A    between atoms: C_15  and  C_52
    9  A    between atoms: N_20  and  C_58
   10  A    between atoms: C_21  and  C_23
   11  A    between atoms: C_21  and  C_28
   12  A    between atoms: C_21  and  C_60
   13  A    between atoms: N_22  and  C_44
   14  A    between atoms: C_29  and  C_35
   15  A    between atoms: C_32  and  C_36
   16  A    between atoms: C_37  and  N_50
   17  A    between atoms: O_48  and  C_51
                            x       y       z     vdW  Elec       q    Type
                         _______ _______ _______ _____ _____    ______ ____

>  <TORSDO>
F 17

$$$$
