=
 OpenBabel10222416353D

 32 34  0  0  1  0  0  0  0  0999 V2000
  188.7590  178.3560  139.9740 C   0  0  2  0  0  3  0  0  0  0  0  0
  188.7110  179.2900  137.7910 O   0  0  0  0  0  0  0  0  0  0  0  0
  188.7250  178.2390  138.4850 C   0  0  0  0  0  0  0  0  0  0  0  0
  188.7140  176.9430  137.8660 N   0  0  0  0  0  2  0  0  0  0  0  0
  189.8810  176.7550  135.7570 C   0  0  0  0  0  2  0  0  0  0  0  0
  188.7580  176.6570  136.4610 C   0  0  0  0  0  0  0  0  0  0  0  0
  187.5510  176.0860  135.8050 C   0  0  0  0  0  2  0  0  0  0  0  0
  186.4040  176.5330  136.4590 O   0  0  0  0  0  1  0  0  0  0  0  0
  189.5220  177.1930  140.6050 C   0  0  0  0  0  2  0  0  0  0  0  0
  190.6840  177.6570  141.2840 O   0  0  0  0  0  0  0  0  0  0  0  0
  190.6670  178.3670  143.6240 C   0  0  0  0  0  3  0  0  0  0  0  0
  190.9140  178.0800  144.9700 C   0  0  0  0  0  3  0  0  0  0  0  0
  191.6680  175.8650  144.3580 C   0  0  0  0  0  3  0  0  0  0  0  0
  190.9190  177.4020  142.6380 C   0  0  0  0  0  0  0  0  0  0  0  0
  191.4160  176.8270  145.3450 C   0  0  0  0  0  0  0  0  0  0  0  0
  191.4200  176.1510  143.0120 C   0  0  0  0  0  3  0  0  0  0  0  0
  191.6720  176.5340  146.7280 N   0  0  0  0  0  0  0  0  0  0  0  0
  191.3330  177.4310  147.6850 O   0  0  0  0  0  1  0  0  0  0  0  0
  192.3500  175.4130  147.0820 O   0  0  0  0  0  0  0  0  0  0  0  0
  192.8940  175.6910  148.3400 C   0  0  0  0  0  1  0  0  0  0  0  0
  187.3510  178.4910  140.5460 C   0  0  0  0  0  2  0  0  0  0  0  0
  187.3750  178.5930  142.0650 C   0  0  0  0  0  2  0  0  0  0  0  0
  184.9040  178.2560  142.2240 C   0  0  0  0  0  3  0  0  0  0  0  0
  186.2250  177.9470  144.1710 C   0  0  0  0  0  0  0  0  0  0  0  0
  187.1810  177.6150  145.1330 C   0  0  0  0  0  3  0  0  0  0  0  0
  187.8490  177.5710  147.4860 N   0  0  0  0  0  1  0  0  0  0  0  0
  185.6670  178.4790  146.8390 C   0  0  0  0  0  3  0  0  0  0  0  0
  186.2810  177.7400  142.6980 C   0  0  2  0  0  3  0  0  0  0  0  0
  186.8950  177.8900  146.4810 C   0  0  0  0  0  0  0  0  0  0  0  0
  184.1940  178.7320  143.4110 N   0  0  0  0  0  0  0  0  0  0  0  0
  185.0320  178.5100  144.5250 C   0  0  0  0  0  0  0  0  0  0  0  0
  184.7170  178.7930  145.8540 C   0  0  0  0  0  3  0  0  0  0  0  0
  1 21  1  1  0  0  0
  1  9  1  0  0  0  0
  2  3  2  0  0  0  0
  3  1  1  0  0  0  0
  4  3  1  0  0  0  0
  5  6  2  0  0  0  0
  6  4  1  0  0  0  0
  7  8  1  0  0  0  0
  7  6  1  0  0  0  0
  9 10  1  0  0  0  0
 10 14  1  0  0  0  0
 11 12  1  0  0  0  0
 12 15  2  0  0  0  0
 13 15  1  0  0  0  0
 14 16  1  0  0  0  0
 14 11  2  0  0  0  0
 15 17  1  0  0  0  0
 16 13  2  0  0  0  0
 17 19  1  0  0  0  0
 17 18  1  0  0  0  0
 19 20  1  0  0  0  0
 21 22  1  0  0  0  0
 23 28  1  0  0  0  0
 23 30  2  0  0  0  0
 24 31  2  0  0  0  0
 24 25  1  0  0  0  0
 25 29  2  0  0  0  0
 28 22  1  6  0  0  0
 28 24  1  0  0  0  0
 29 27  1  0  0  0  0
 29 26  1  0  0  0  0
 30 31  1  0  0  0  0
 31 32  1  0  0  0  0
 32 27  2  0  0  0  0
M  END
>  <MODEL>
1

>  <REMARK>
 VINA RESULT:      -8.1      0.000      0.000
  Name = 
  11 active torsions:
  status: ('A' for Active; 'I' for Inactive)
    1  A    between atoms: O_7  and  C_12
    2  A    between atoms: O_7  and  C_19
    3  A    between atoms: C_9  and  C_13
    4  A    between atoms: N_11  and  O_24
    5  A    between atoms: N_11  and  C_26
    6  A    between atoms: C_12  and  C_13
    7  A    between atoms: C_13  and  C_18
    8  A    between atoms: C_15  and  C_16
    9  A    between atoms: C_15  and  C_18
   10  A    between atoms: N_17  and  CA_31
   11  A    between atoms: C_25  and  CA_31
                            x       y       z     vdW  Elec       q    Type
                         _______ _______ _______ _____ _____    ______ ____

>  <TORSDO>
F 11

$$$$
=
 OpenBabel10222416353D

 32 34  0  0  1  0  0  0  0  0999 V2000
  188.9370  177.1790  140.9370 C   0  0  2  0  0  3  0  0  0  0  0  0
  189.6790  178.1980  138.9230 O   0  0  0  0  0  0  0  0  0  0  0  0
  189.7490  177.1950  139.6820 C   0  0  0  0  0  0  0  0  0  0  0  0
  190.5950  176.0810  139.3600 N   0  0  0  0  0  2  0  0  0  0  0  0
  192.7150  176.4830  138.2680 C   0  0  0  0  0  2  0  0  0  0  0  0
  191.4890  175.9700  138.2430 C   0  0  0  0  0  0  0  0  0  0  0  0
  191.0910  175.1250  137.0850 C   0  0  0  0  0  2  0  0  0  0  0  0
  190.6210  173.8930  137.5400 O   0  0  0  0  0  1  0  0  0  0  0  0
  188.2950  178.5400  141.2000 C   0  0  0  0  0  2  0  0  0  0  0  0
  187.1110  178.7010  140.4250 O   0  0  0  0  0  0  0  0  0  0  0  0
  185.6520  178.7560  142.3860 C   0  0  0  0  0  3  0  0  0  0  0  0
  184.3640  178.8040  142.9260 C   0  0  0  0  0  3  0  0  0  0  0  0
  183.4320  178.8340  140.6930 C   0  0  0  0  0  3  0  0  0  0  0  0
  185.8370  178.7490  140.9960 C   0  0  0  0  0  0  0  0  0  0  0  0
  183.2450  178.8430  142.0830 C   0  0  0  0  0  0  0  0  0  0  0  0
  184.7210  178.7880  140.1540 C   0  0  0  0  0  3  0  0  0  0  0  0
  181.9210  178.8900  142.6370 N   0  0  0  0  0  0  0  0  0  0  0  0
  180.8830  179.3200  141.8790 O   0  0  0  0  0  1  0  0  0  0  0  0
  181.7110  178.6110  143.9490 O   0  0  0  0  0  0  0  0  0  0  0  0
  180.3220  178.5590  144.0990 C   0  0  0  0  0  1  0  0  0  0  0  0
  189.7710  176.7030  142.1220 C   0  0  0  0  0  2  0  0  0  0  0  0
  188.9530  176.6920  143.4080 C   0  0  0  0  0  2  0  0  0  0  0  0
  190.8070  177.2810  144.9760 C   0  0  0  0  0  3  0  0  0  0  0  0
  188.5770  177.8050  145.5970 C   0  0  0  0  0  0  0  0  0  0  0  0
  187.2440  178.2110  145.6830 C   0  0  0  0  0  3  0  0  0  0  0  0
  185.2670  178.6080  147.0670 N   0  0  0  0  0  1  0  0  0  0  0  0
  187.3470  177.8090  148.0860 C   0  0  0  0  0  3  0  0  0  0  0  0
  189.4520  177.7420  144.3940 C   0  0  2  0  0  3  0  0  0  0  0  0
  186.6260  178.2070  146.9440 C   0  0  0  0  0  0  0  0  0  0  0  0
  190.6130  177.0910  146.4130 N   0  0  0  0  0  0  0  0  0  0  0  0
  189.2750  177.4280  146.7100 C   0  0  0  0  0  0  0  0  0  0  0  0
  188.6900  177.4160  147.9750 C   0  0  0  0  0  3  0  0  0  0  0  0
  1  9  1  1  0  0  0
  1 21  1  0  0  0  0
  2  3  2  0  0  0  0
  3  1  1  0  0  0  0
  4  3  1  0  0  0  0
  6  5  2  0  0  0  0
  6  4  1  0  0  0  0
  7  8  1  0  0  0  0
  7  6  1  0  0  0  0
 10 14  1  0  0  0  0
 10  9  1  0  0  0  0
 11 12  1  0  0  0  0
 13 15  1  0  0  0  0
 14 11  2  0  0  0  0
 15 17  1  0  0  0  0
 15 12  2  0  0  0  0
 16 13  2  0  0  0  0
 16 14  1  0  0  0  0
 17 19  1  0  0  0  0
 18 17  1  0  0  0  0
 19 20  1  0  0  0  0
 21 22  1  0  0  0  0
 23 30  2  0  0  0  0
 24 25  2  0  0  0  0
 24 31  1  0  0  0  0
 25 29  1  0  0  0  0
 28 22  1  6  0  0  0
 28 23  1  0  0  0  0
 28 24  1  0  0  0  0
 29 26  1  0  0  0  0
 29 27  2  0  0  0  0
 30 31  1  0  0  0  0
 31 32  2  0  0  0  0
 32 27  1  0  0  0  0
M  END
>  <MODEL>
2

>  <REMARK>
 VINA RESULT:      -8.1      3.115      6.160
  Name = 
  11 active torsions:
  status: ('A' for Active; 'I' for Inactive)
    1  A    between atoms: O_7  and  C_12
    2  A    between atoms: O_7  and  C_19
    3  A    between atoms: C_9  and  C_13
    4  A    between atoms: N_11  and  O_24
    5  A    between atoms: N_11  and  C_26
    6  A    between atoms: C_12  and  C_13
    7  A    between atoms: C_13  and  C_18
    8  A    between atoms: C_15  and  C_16
    9  A    between atoms: C_15  and  C_18
   10  A    between atoms: N_17  and  CA_31
   11  A    between atoms: C_25  and  CA_31
                            x       y       z     vdW  Elec       q    Type
                         _______ _______ _______ _____ _____    ______ ____

>  <TORSDO>
F 11

$$$$
=
 OpenBabel10222416353D

 32 34  0  0  1  0  0  0  0  0999 V2000
  188.0780  177.7070  141.3520 C   0  0  2  0  0  3  0  0  0  0  0  0
  189.2720  176.8640  139.4790 O   0  0  0  0  0  0  0  0  0  0  0  0
  188.3000  177.5570  139.8820 C   0  0  0  0  0  0  0  0  0  0  0  0
  187.4090  178.1930  138.9520 N   0  0  0  0  0  2  0  0  0  0  0  0
  186.4830  177.4560  136.8440 C   0  0  0  0  0  2  0  0  0  0  0  0
  187.4360  178.0890  137.5220 C   0  0  0  0  0  0  0  0  0  0  0  0
  188.4720  178.8420  136.7650 C   0  0  0  0  0  2  0  0  0  0  0  0
  188.9820  179.8680  137.5590 O   0  0  0  0  0  1  0  0  0  0  0  0
  186.9030  178.6380  141.6440 C   0  0  0  0  0  2  0  0  0  0  0  0
  186.0730  178.1010  142.6690 O   0  0  0  0  0  0  0  0  0  0  0  0
  184.1020  178.6600  144.0040 C   0  0  0  0  0  3  0  0  0  0  0  0
  182.7360  178.9510  144.0680 C   0  0  0  0  0  3  0  0  0  0  0  0
  182.5740  178.7130  141.6660 C   0  0  0  0  0  3  0  0  0  0  0  0
  184.7110  178.3960  142.7680 C   0  0  0  0  0  0  0  0  0  0  0  0
  181.9630  178.9790  142.9000 C   0  0  0  0  0  0  0  0  0  0  0  0
  183.9400  178.4240  141.6020 C   0  0  0  0  0  3  0  0  0  0  0  0
  180.5600  179.2750  142.9670 N   0  0  0  0  0  0  0  0  0  0  0  0
  180.1070  180.4990  142.6000 O   0  0  0  0  0  1  0  0  0  0  0  0
  179.6890  178.3800  143.4980 O   0  0  0  0  0  0  0  0  0  0  0  0
  178.9600  179.0930  144.4540 C   0  0  0  0  0  1  0  0  0  0  0  0
  189.3540  178.1600  142.0550 C   0  0  0  0  0  2  0  0  0  0  0  0
  189.7090  177.2360  143.2130 C   0  0  0  0  0  2  0  0  0  0  0  0
  191.5030  177.4380  144.9410 C   0  0  0  0  0  3  0  0  0  0  0  0
  189.2490  177.8040  145.5870 C   0  0  0  0  0  0  0  0  0  0  0  0
  187.9110  178.1810  145.7190 C   0  0  0  0  0  3  0  0  0  0  0  0
  185.8830  178.2440  147.0860 N   0  0  0  0  0  1  0  0  0  0  0  0
  187.9320  177.2250  147.9620 C   0  0  0  0  0  3  0  0  0  0  0  0
  190.1650  178.0240  144.4350 C   0  0  2  0  0  3  0  0  0  0  0  0
  187.2480  177.8810  146.9210 C   0  0  0  0  0  0  0  0  0  0  0  0
  191.2600  176.9160  146.2850 N   0  0  0  0  0  0  0  0  0  0  0  0
  189.9100  177.1750  146.6040 C   0  0  0  0  0  0  0  0  0  0  0  0
  189.2810  176.8670  147.8100 C   0  0  0  0  0  3  0  0  0  0  0  0
  1  9  1  6  0  0  0
  1 21  1  0  0  0  0
  2  3  2  0  0  0  0
  3  1  1  0  0  0  0
  4  3  1  0  0  0  0
  5  6  2  0  0  0  0
  6  4  1  0  0  0  0
  7  6  1  0  0  0  0
  7  8  1  0  0  0  0
  9 10  1  0  0  0  0
 10 14  1  0  0  0  0
 11 12  1  0  0  0  0
 13 15  1  0  0  0  0
 14 11  2  0  0  0  0
 15 17  1  0  0  0  0
 15 12  2  0  0  0  0
 16 13  2  0  0  0  0
 16 14  1  0  0  0  0
 17 19  1  0  0  0  0
 18 17  1  0  0  0  0
 19 20  1  0  0  0  0
 21 22  1  0  0  0  0
 23 30  2  0  0  0  0
 24 25  2  0  0  0  0
 24 31  1  0  0  0  0
 25 29  1  0  0  0  0
 28 22  1  6  0  0  0
 28 23  1  0  0  0  0
 28 24  1  0  0  0  0
 29 26  1  0  0  0  0
 29 27  2  0  0  0  0
 30 31  1  0  0  0  0
 31 32  2  0  0  0  0
 32 27  1  0  0  0  0
M  END
>  <MODEL>
3

>  <REMARK>
 VINA RESULT:      -8.0      3.277      6.732
  Name = 
  11 active torsions:
  status: ('A' for Active; 'I' for Inactive)
    1  A    between atoms: O_7  and  C_12
    2  A    between atoms: O_7  and  C_19
    3  A    between atoms: C_9  and  C_13
    4  A    between atoms: N_11  and  O_24
    5  A    between atoms: N_11  and  C_26
    6  A    between atoms: C_12  and  C_13
    7  A    between atoms: C_13  and  C_18
    8  A    between atoms: C_15  and  C_16
    9  A    between atoms: C_15  and  C_18
   10  A    between atoms: N_17  and  CA_31
   11  A    between atoms: C_25  and  CA_31
                            x       y       z     vdW  Elec       q    Type
                         _______ _______ _______ _____ _____    ______ ____

>  <TORSDO>
F 11

$$$$
=
 OpenBabel10222416353D

 32 34  0  0  1  0  0  0  0  0999 V2000
  185.3240  179.2880  141.2380 C   0  0  2  0  0  3  0  0  0  0  0  0
  184.5380  180.1180  139.1560 O   0  0  0  0  0  0  0  0  0  0  0  0
  184.6130  179.1300  139.9330 C   0  0  0  0  0  0  0  0  0  0  0  0
  184.0340  177.8650  139.5790 N   0  0  0  0  0  2  0  0  0  0  0  0
  182.1560  177.9330  138.0570 C   0  0  0  0  0  2  0  0  0  0  0  0
  183.3880  177.5260  138.3430 C   0  0  0  0  0  0  0  0  0  0  0  0
  184.1750  176.8330  137.2880 C   0  0  0  0  0  2  0  0  0  0  0  0
  185.5350  177.0710  137.4810 O   0  0  0  0  0  1  0  0  0  0  0  0
  186.6370  178.5070  141.2530 C   0  0  0  0  0  2  0  0  0  0  0  0
  187.5140  178.9690  140.2310 O   0  0  0  0  0  0  0  0  0  0  0  0
  189.3500  177.3860  140.5520 C   0  0  0  0  0  3  0  0  0  0  0  0
  190.3840  176.6180  140.0100 C   0  0  0  0  0  3  0  0  0  0  0  0
  189.8420  177.4480  137.8030 C   0  0  0  0  0  3  0  0  0  0  0  0
  188.5550  178.1900  139.7210 C   0  0  0  0  0  0  0  0  0  0  0  0
  190.6370  176.6450  138.6320 C   0  0  0  0  0  0  0  0  0  0  0  0
  188.8060  178.2150  138.3460 C   0  0  0  0  0  3  0  0  0  0  0  0
  191.7010  175.8570  138.0750 N   0  0  0  0  0  0  0  0  0  0  0  0
  191.5690  174.5120  137.9750 O   0  0  0  0  0  1  0  0  0  0  0  0
  192.8870  176.4310  137.7470 O   0  0  0  0  0  0  0  0  0  0  0  0
  193.8370  175.4120  137.8650 C   0  0  0  0  0  1  0  0  0  0  0  0
  184.4190  178.9050  142.4050 C   0  0  0  0  0  2  0  0  0  0  0  0
  185.0150  179.3410  143.7370 C   0  0  0  0  0  2  0  0  0  0  0  0
  184.2640  178.6420  146.0150 C   0  0  0  0  0  3  0  0  0  0  0  0
  186.3990  177.9400  145.2520 C   0  0  0  0  0  0  0  0  0  0  0  0
  187.5090  177.4640  144.5520 C   0  0  0  0  0  3  0  0  0  0  0  0
  189.8640  176.8020  144.5710 N   0  0  0  0  0  1  0  0  0  0  0  0
  188.7780  177.5600  146.6330 C   0  0  0  0  0  3  0  0  0  0  0  0
  185.0230  178.1970  144.7450 C   0  0  2  0  0  3  0  0  0  0  0  0
  188.7110  177.2780  145.2540 C   0  0  0  0  0  0  0  0  0  0  0  0
  185.2300  178.6360  147.1140 N   0  0  0  0  0  0  0  0  0  0  0  0
  186.4660  178.2030  146.5910 C   0  0  0  0  0  0  0  0  0  0  0  0
  187.6440  178.0260  147.3170 C   0  0  0  0  0  3  0  0  0  0  0  0
  1  9  1  6  0  0  0
  1 21  1  0  0  0  0
  2  3  2  0  0  0  0
  3  1  1  0  0  0  0
  4  3  1  0  0  0  0
  5  6  2  0  0  0  0
  6  4  1  0  0  0  0
  7  8  1  0  0  0  0
  7  6  1  0  0  0  0
 10  9  1  0  0  0  0
 12 11  1  0  0  0  0
 13 16  2  0  0  0  0
 13 15  1  0  0  0  0
 14 10  1  0  0  0  0
 14 11  2  0  0  0  0
 15 12  2  0  0  0  0
 16 14  1  0  0  0  0
 17 15  1  0  0  0  0
 18 17  1  0  0  0  0
 19 20  1  0  0  0  0
 19 17  1  0  0  0  0
 21 22  1  0  0  0  0
 23 30  2  0  0  0  0
 24 31  1  0  0  0  0
 25 24  2  0  0  0  0
 25 29  1  0  0  0  0
 26 29  1  0  0  0  0
 27 32  1  0  0  0  0
 28 22  1  6  0  0  0
 28 24  1  0  0  0  0
 28 23  1  0  0  0  0
 29 27  2  0  0  0  0
 31 30  1  0  0  0  0
 31 32  2  0  0  0  0
M  END
>  <MODEL>
4

>  <REMARK>
 VINA RESULT:      -7.8      3.163      5.252
  Name = 
  11 active torsions:
  status: ('A' for Active; 'I' for Inactive)
    1  A    between atoms: O_7  and  C_12
    2  A    between atoms: O_7  and  C_19
    3  A    between atoms: C_9  and  C_13
    4  A    between atoms: N_11  and  O_24
    5  A    between atoms: N_11  and  C_26
    6  A    between atoms: C_12  and  C_13
    7  A    between atoms: C_13  and  C_18
    8  A    between atoms: C_15  and  C_16
    9  A    between atoms: C_15  and  C_18
   10  A    between atoms: N_17  and  CA_31
   11  A    between atoms: C_25  and  CA_31
                            x       y       z     vdW  Elec       q    Type
                         _______ _______ _______ _____ _____    ______ ____

>  <TORSDO>
F 11

$$$$
=
 OpenBabel10222416353D

 32 34  0  0  1  0  0  0  0  0999 V2000
  183.9310  179.1190  143.7370 C   0  0  2  0  0  3  0  0  0  0  0  0
  181.6800  178.6960  144.3660 O   0  0  0  0  0  0  0  0  0  0  0  0
  182.4830  178.9270  143.4240 C   0  0  0  0  0  0  0  0  0  0  0  0
  182.0240  179.0130  142.0660 N   0  0  0  0  0  2  0  0  0  0  0  0
  180.0080  177.7770  141.5630 C   0  0  0  0  0  2  0  0  0  0  0  0
  180.6680  178.9300  141.6060 C   0  0  0  0  0  0  0  0  0  0  0  0
  179.9280  180.1890  141.3170 C   0  0  0  0  0  2  0  0  0  0  0  0
  179.7360  180.9040  142.4980 O   0  0  0  0  0  1  0  0  0  0  0  0
  184.8180  178.3560  142.7550 C   0  0  0  0  0  2  0  0  0  0  0  0
  185.4240  179.2450  141.8220 O   0  0  0  0  0  0  0  0  0  0  0  0
  185.5140  178.5950  139.4670 C   0  0  0  0  0  3  0  0  0  0  0  0
  186.2560  178.1450  138.3710 C   0  0  0  0  0  3  0  0  0  0  0  0
  188.2480  178.0940  139.7430 C   0  0  0  0  0  3  0  0  0  0  0  0
  186.1370  178.7970  140.7080 C   0  0  0  0  0  0  0  0  0  0  0  0
  187.6280  177.8910  138.5020 C   0  0  0  0  0  0  0  0  0  0  0  0
  187.5060  178.5450  140.8380 C   0  0  0  0  0  3  0  0  0  0  0  0
  188.3900  177.4270  137.3760 N   0  0  0  0  0  0  0  0  0  0  0  0
  187.8360  176.5610  136.4940 O   0  0  0  0  0  1  0  0  0  0  0  0
  189.6990  177.7610  137.2430 O   0  0  0  0  0  0  0  0  0  0  0  0
  190.3000  176.6620  136.6220 C   0  0  0  0  0  1  0  0  0  0  0  0
  184.2320  178.7470  145.1860 C   0  0  0  0  0  2  0  0  0  0  0  0
  185.6860  179.0310  145.5420 C   0  0  0  0  0  2  0  0  0  0  0  0
  186.7540  178.2560  147.6640 C   0  0  0  0  0  3  0  0  0  0  0  0
  187.6290  177.4850  145.5980 C   0  0  0  0  0  0  0  0  0  0  0  0
  187.8590  176.9880  144.3130 C   0  0  0  0  0  3  0  0  0  0  0  0
  189.4510  176.2040  142.6300 N   0  0  0  0  0  1  0  0  0  0  0  0
  190.2390  176.9110  144.8400 C   0  0  0  0  0  3  0  0  0  0  0  0
  186.3330  177.8390  146.2370 C   0  0  2  0  0  3  0  0  0  0  0  0
  189.1810  176.7040  143.9330 C   0  0  0  0  0  0  0  0  0  0  0  0
  188.2110  178.1440  147.7300 N   0  0  0  0  0  0  0  0  0  0  0  0
  188.6580  177.6750  146.4760 C   0  0  0  0  0  0  0  0  0  0  0  0
  189.9810  177.3990  146.1310 C   0  0  0  0  0  3  0  0  0  0  0  0
  1  9  1  6  0  0  0
  1 21  1  0  0  0  0
  3  1  1  0  0  0  0
  3  2  2  0  0  0  0
  4  3  1  0  0  0  0
  5  6  2  0  0  0  0
  6  4  1  0  0  0  0
  7  6  1  0  0  0  0
  7  8  1  0  0  0  0
 10  9  1  0  0  0  0
 11 14  1  0  0  0  0
 12 15  1  0  0  0  0
 12 11  2  0  0  0  0
 13 16  1  0  0  0  0
 14 16  2  0  0  0  0
 14 10  1  0  0  0  0
 15 13  2  0  0  0  0
 17 15  1  0  0  0  0
 18 17  1  0  0  0  0
 19 17  1  0  0  0  0
 20 19  1  0  0  0  0
 21 22  1  0  0  0  0
 23 30  2  0  0  0  0
 24 28  1  0  0  0  0
 24 31  1  0  0  0  0
 25 24  2  0  0  0  0
 26 29  1  0  0  0  0
 27 32  1  0  0  0  0
 28 22  1  6  0  0  0
 28 23  1  0  0  0  0
 29 25  1  0  0  0  0
 29 27  2  0  0  0  0
 31 30  1  0  0  0  0
 32 31  2  0  0  0  0
M  END
>  <MODEL>
5

>  <REMARK>
 VINA RESULT:      -7.7      3.391      7.414
  Name = 
  11 active torsions:
  status: ('A' for Active; 'I' for Inactive)
    1  A    between atoms: O_7  and  C_12
    2  A    between atoms: O_7  and  C_19
    3  A    between atoms: C_9  and  C_13
    4  A    between atoms: N_11  and  O_24
    5  A    between atoms: N_11  and  C_26
    6  A    between atoms: C_12  and  C_13
    7  A    between atoms: C_13  and  C_18
    8  A    between atoms: C_15  and  C_16
    9  A    between atoms: C_15  and  C_18
   10  A    between atoms: N_17  and  CA_31
   11  A    between atoms: C_25  and  CA_31
                            x       y       z     vdW  Elec       q    Type
                         _______ _______ _______ _____ _____    ______ ____

>  <TORSDO>
F 11

$$$$
=
 OpenBabel10222416353D

 32 34  0  0  1  0  0  0  0  0999 V2000
  184.4080  178.6780  142.8110 C   0  0  2  0  0  3  0  0  0  0  0  0
  183.0180  178.0310  140.9980 O   0  0  0  0  0  0  0  0  0  0  0  0
  183.0890  178.6090  142.1140 C   0  0  0  0  0  0  0  0  0  0  0  0
  181.9240  179.1920  142.7200 N   0  0  0  0  0  2  0  0  0  0  0  0
  179.6440  178.3910  142.7910 C   0  0  0  0  0  2  0  0  0  0  0  0
  180.5790  179.1470  142.2240 C   0  0  0  0  0  0  0  0  0  0  0  0
  180.1790  180.0890  141.1440 C   0  0  0  0  0  2  0  0  0  0  0  0
  179.6840  181.2660  141.7050 O   0  0  0  0  0  1  0  0  0  0  0  0
  184.3210  179.5220  144.0820 C   0  0  0  0  0  2  0  0  0  0  0  0
  184.4170  178.7020  145.2430 O   0  0  0  0  0  0  0  0  0  0  0  0
  186.6170  177.6370  145.1670 C   0  0  0  0  0  3  0  0  0  0  0  0
  187.8280  177.3330  145.7950 C   0  0  0  0  0  3  0  0  0  0  0  0
  187.0970  178.5150  147.7750 C   0  0  0  0  0  3  0  0  0  0  0  0
  185.6380  178.3830  145.8410 C   0  0  0  0  0  0  0  0  0  0  0  0
  188.0760  177.7700  147.1030 C   0  0  0  0  0  0  0  0  0  0  0  0
  185.8860  178.8200  147.1460 C   0  0  0  0  0  3  0  0  0  0  0  0
  189.3200  177.4560  147.7480 N   0  0  0  0  0  0  0  0  0  0  0  0
  189.8400  178.3050  148.6670 O   0  0  0  0  0  1  0  0  0  0  0  0
  190.0400  176.3690  147.3690 O   0  0  0  0  0  0  0  0  0  0  0  0
  191.3790  176.7550  147.4810 C   0  0  0  0  0  1  0  0  0  0  0  0
  185.5000  179.1760  141.8700 C   0  0  0  0  0  2  0  0  0  0  0  0
  186.6030  178.1390  141.6990 C   0  0  0  0  0  2  0  0  0  0  0  0
  187.8570  178.1460  139.5380 C   0  0  0  0  0  3  0  0  0  0  0  0
  189.0820  178.2370  141.5680 C   0  0  0  0  0  0  0  0  0  0  0  0
  189.6000  178.4940  142.8390 C   0  0  0  0  0  3  0  0  0  0  0  0
  191.3990  178.1730  144.4650 N   0  0  0  0  0  1  0  0  0  0  0  0
  191.5470  177.1520  142.2430 C   0  0  0  0  0  3  0  0  0  0  0  0
  187.8090  178.7230  140.9700 C   0  0  2  0  0  3  0  0  0  0  0  0
  190.8450  177.9380  143.1770 C   0  0  0  0  0  0  0  0  0  0  0  0
  189.0950  177.3740  139.4290 N   0  0  0  0  0  0  0  0  0  0  0  0
  189.7710  177.4810  140.6630 C   0  0  0  0  0  0  0  0  0  0  0  0
  191.0110  176.9180  140.9670 C   0  0  0  0  0  3  0  0  0  0  0  0
  1 21  1  6  0  0  0
  1  9  1  0  0  0  0
  2  3  2  0  0  0  0
  3  4  1  0  0  0  0
  3  1  1  0  0  0  0
  6  4  1  0  0  0  0
  6  5  2  0  0  0  0
  7  8  1  0  0  0  0
  7  6  1  0  0  0  0
  9 10  1  0  0  0  0
 10 14  1  0  0  0  0
 11 12  2  0  0  0  0
 11 14  1  0  0  0  0
 12 15  1  0  0  0  0
 14 16  2  0  0  0  0
 15 17  1  0  0  0  0
 15 13  2  0  0  0  0
 16 13  1  0  0  0  0
 17 18  1  0  0  0  0
 19 20  1  0  0  0  0
 19 17  1  0  0  0  0
 22 21  1  0  0  0  0
 23 28  1  0  0  0  0
 24 25  1  0  0  0  0
 25 29  2  0  0  0  0
 27 29  1  0  0  0  0
 28 24  1  0  0  0  0
 28 22  1  1  0  0  0
 29 26  1  0  0  0  0
 30 23  2  0  0  0  0
 30 31  1  0  0  0  0
 31 32  1  0  0  0  0
 31 24  2  0  0  0  0
 32 27  2  0  0  0  0
M  END
>  <MODEL>
6

>  <REMARK>
 VINA RESULT:      -7.6      3.125      6.271
  Name = 
  11 active torsions:
  status: ('A' for Active; 'I' for Inactive)
    1  A    between atoms: O_7  and  C_12
    2  A    between atoms: O_7  and  C_19
    3  A    between atoms: C_9  and  C_13
    4  A    between atoms: N_11  and  O_24
    5  A    between atoms: N_11  and  C_26
    6  A    between atoms: C_12  and  C_13
    7  A    between atoms: C_13  and  C_18
    8  A    between atoms: C_15  and  C_16
    9  A    between atoms: C_15  and  C_18
   10  A    between atoms: N_17  and  CA_31
   11  A    between atoms: C_25  and  CA_31
                            x       y       z     vdW  Elec       q    Type
                         _______ _______ _______ _____ _____    ______ ____

>  <TORSDO>
F 11

$$$$
=
 OpenBabel10222416353D

 32 34  0  0  1  0  0  0  0  0999 V2000
  184.7190  179.1040  139.7310 C   0  0  2  0  0  3  0  0  0  0  0  0
  183.6040  180.9400  138.7160 O   0  0  0  0  0  0  0  0  0  0  0  0
  183.5490  179.7230  139.0370 C   0  0  0  0  0  0  0  0  0  0  0  0
  182.3880  178.9320  138.7410 N   0  0  0  0  0  2  0  0  0  0  0  0
  181.1380  179.2510  136.6960 C   0  0  0  0  0  2  0  0  0  0  0  0
  181.2200  179.3480  138.0190 C   0  0  0  0  0  0  0  0  0  0  0  0
  180.0090  179.7540  138.7830 C   0  0  0  0  0  2  0  0  0  0  0  0
  180.2580  179.6470  140.1510 O   0  0  0  0  0  1  0  0  0  0  0  0
  185.5450  178.2490  138.7710 C   0  0  0  0  0  2  0  0  0  0  0  0
  186.9020  178.6780  138.7500 O   0  0  0  0  0  0  0  0  0  0  0  0
  188.8580  177.2620  139.1320 C   0  0  0  0  0  3  0  0  0  0  0  0
  189.8160  176.7460  140.0090 C   0  0  0  0  0  3  0  0  0  0  0  0
  188.8190  177.9900  141.8290 C   0  0  0  0  0  3  0  0  0  0  0  0
  187.8750  178.1460  139.6000 C   0  0  0  0  0  0  0  0  0  0  0  0
  189.8030  177.1060  141.3630 C   0  0  0  0  0  0  0  0  0  0  0  0
  187.8610  178.5060  140.9510 C   0  0  0  0  0  3  0  0  0  0  0  0
  190.7870  176.5740  142.2640 N   0  0  0  0  0  0  0  0  0  0  0  0
  190.5520  175.4080  142.9140 O   0  0  0  0  0  1  0  0  0  0  0  0
  191.9070  177.2820  142.5600 O   0  0  0  0  0  0  0  0  0  0  0  0
  191.6730  177.8350  143.8230 C   0  0  0  0  0  1  0  0  0  0  0  0
  184.2730  178.3150  140.9590 C   0  0  0  0  0  2  0  0  0  0  0  0
  184.6320  179.0430  142.2470 C   0  0  0  0  0  2  0  0  0  0  0  0
  183.0630  179.0050  144.1920 C   0  0  0  0  0  3  0  0  0  0  0  0
  185.2810  178.2210  144.5010 C   0  0  0  0  0  0  0  0  0  0  0  0
  186.5380  177.6190  144.4260 C   0  0  0  0  0  3  0  0  0  0  0  0
  188.6790  177.1120  145.4950 N   0  0  0  0  0  1  0  0  0  0  0  0
  186.9670  178.3850  146.7010 C   0  0  0  0  0  3  0  0  0  0  0  0
  184.2020  178.2480  143.4750 C   0  0  2  0  0  3  0  0  0  0  0  0
  187.3890  177.7090  145.5400 C   0  0  0  0  0  0  0  0  0  0  0  0
  183.5600  179.3720  145.5170 N   0  0  0  0  0  0  0  0  0  0  0  0
  184.8730  178.8690  145.6330 C   0  0  0  0  0  0  0  0  0  0  0  0
  185.6930  178.9720  146.7560 C   0  0  0  0  0  3  0  0  0  0  0  0
  1  9  1  6  0  0  0
  1 21  1  0  0  0  0
  2  3  2  0  0  0  0
  3  1  1  0  0  0  0
  4  3  1  0  0  0  0
  5  6  2  0  0  0  0
  6  4  1  0  0  0  0
  6  7  1  0  0  0  0
  7  8  1  0  0  0  0
 10  9  1  0  0  0  0
 10 14  1  0  0  0  0
 11 14  2  0  0  0  0
 11 12  1  0  0  0  0
 12 15  2  0  0  0  0
 14 16  1  0  0  0  0
 15 13  1  0  0  0  0
 15 17  1  0  0  0  0
 16 13  2  0  0  0  0
 17 19  1  0  0  0  0
 17 18  1  0  0  0  0
 19 20  1  0  0  0  0
 21 22  1  0  0  0  0
 23 30  2  0  0  0  0
 24 31  1  0  0  0  0
 25 24  2  0  0  0  0
 25 29  1  0  0  0  0
 26 29  1  0  0  0  0
 27 32  1  0  0  0  0
 28 22  1  6  0  0  0
 28 23  1  0  0  0  0
 28 24  1  0  0  0  0
 29 27  2  0  0  0  0
 30 31  1  0  0  0  0
 31 32  2  0  0  0  0
M  END
>  <MODEL>
7

>  <REMARK>
 VINA RESULT:      -7.6      3.182      4.782
  Name = 
  11 active torsions:
  status: ('A' for Active; 'I' for Inactive)
    1  A    between atoms: O_7  and  C_12
    2  A    between atoms: O_7  and  C_19
    3  A    between atoms: C_9  and  C_13
    4  A    between atoms: N_11  and  O_24
    5  A    between atoms: N_11  and  C_26
    6  A    between atoms: C_12  and  C_13
    7  A    between atoms: C_13  and  C_18
    8  A    between atoms: C_15  and  C_16
    9  A    between atoms: C_15  and  C_18
   10  A    between atoms: N_17  and  CA_31
   11  A    between atoms: C_25  and  CA_31
                            x       y       z     vdW  Elec       q    Type
                         _______ _______ _______ _____ _____    ______ ____

>  <TORSDO>
F 11

$$$$
=
 OpenBabel10222416353D

 32 34  0  0  1  0  0  0  0  0999 V2000
  187.9480  177.9110  142.1660 C   0  0  2  0  0  3  0  0  0  0  0  0
  186.4300  179.2650  140.9390 O   0  0  0  0  0  0  0  0  0  0  0  0
  186.6000  178.5150  141.9370 C   0  0  0  0  0  0  0  0  0  0  0  0
  185.5230  178.2340  142.8430 N   0  0  0  0  0  2  0  0  0  0  0  0
  183.3730  178.2580  141.7370 C   0  0  0  0  0  2  0  0  0  0  0  0
  184.1600  178.6680  142.7260 C   0  0  0  0  0  0  0  0  0  0  0  0
  183.5660  179.4750  143.8250 C   0  0  0  0  0  2  0  0  0  0  0  0
  182.9540  178.6320  144.7510 O   0  0  0  0  0  1  0  0  0  0  0  0
  188.6410  177.5810  140.8460 C   0  0  0  0  0  2  0  0  0  0  0  0
  190.0340  177.8680  140.9190 O   0  0  0  0  0  0  0  0  0  0  0  0
  190.5710  176.5370  138.9390 C   0  0  0  0  0  3  0  0  0  0  0  0
  191.5290  175.9830  138.0860 C   0  0  0  0  0  3  0  0  0  0  0  0
  193.2880  176.9480  139.4380 C   0  0  0  0  0  3  0  0  0  0  0  0
  190.9670  177.3010  140.0470 C   0  0  0  0  0  0  0  0  0  0  0  0
  192.8940  176.1840  138.3300 C   0  0  0  0  0  0  0  0  0  0  0  0
  192.3290  177.5030  140.2900 C   0  0  0  0  0  3  0  0  0  0  0  0
  193.8790  175.6130  137.4550 N   0  0  0  0  0  0  0  0  0  0  0  0
  194.5160  176.3940  136.5490 O   0  0  0  0  0  1  0  0  0  0  0  0
  194.1040  174.2740  137.4480 O   0  0  0  0  0  0  0  0  0  0  0  0
  195.3240  174.1000  138.1090 C   0  0  0  0  0  1  0  0  0  0  0  0
  187.8530  176.6930  143.0810 C   0  0  0  0  0  2  0  0  0  0  0  0
  189.1950  176.3800  143.7310 C   0  0  0  0  0  2  0  0  0  0  0  0
  191.0350  177.1620  145.2290 C   0  0  0  0  0  3  0  0  0  0  0  0
  188.7970  177.7210  145.7850 C   0  0  0  0  0  0  0  0  0  0  0  0
  187.4590  178.1180  145.8230 C   0  0  0  0  0  3  0  0  0  0  0  0
  185.4720  178.6380  147.1520 N   0  0  0  0  0  1  0  0  0  0  0  0
  187.5580  177.9820  148.2560 C   0  0  0  0  0  3  0  0  0  0  0  0
  189.6760  177.5390  144.5980 C   0  0  2  0  0  3  0  0  0  0  0  0
  186.8360  178.2430  147.0760 C   0  0  0  0  0  0  0  0  0  0  0  0
  190.8390  177.1280  146.6780 N   0  0  0  0  0  0  0  0  0  0  0  0
  189.4960  177.4770  146.9330 C   0  0  0  0  0  0  0  0  0  0  0  0
  188.9070  177.5960  148.1910 C   0  0  0  0  0  3  0  0  0  0  0  0
  1  9  1  6  0  0  0
  1 21  1  0  0  0  0
  2  3  2  0  0  0  0
  3  1  1  0  0  0  0
  3  4  1  0  0  0  0
  5  6  2  0  0  0  0
  6  4  1  0  0  0  0
  6  7  1  0  0  0  0
  7  8  1  0  0  0  0
  9 10  1  0  0  0  0
 11 14  1  0  0  0  0
 12 15  1  0  0  0  0
 12 11  2  0  0  0  0
 13 16  1  0  0  0  0
 14 16  2  0  0  0  0
 14 10  1  0  0  0  0
 15 13  2  0  0  0  0
 17 15  1  0  0  0  0
 18 17  1  0  0  0  0
 19 17  1  0  0  0  0
 19 20  1  0  0  0  0
 21 22  1  0  0  0  0
 23 30  2  0  0  0  0
 24 25  2  0  0  0  0
 24 31  1  0  0  0  0
 25 29  1  0  0  0  0
 28 22  1  6  0  0  0
 28 23  1  0  0  0  0
 28 24  1  0  0  0  0
 29 26  1  0  0  0  0
 29 27  2  0  0  0  0
 30 31  1  0  0  0  0
 31 32  2  0  0  0  0
 32 27  1  0  0  0  0
M  END
>  <MODEL>
8

>  <REMARK>
 VINA RESULT:      -7.6      3.272      6.185
  Name = 
  11 active torsions:
  status: ('A' for Active; 'I' for Inactive)
    1  A    between atoms: O_7  and  C_12
    2  A    between atoms: O_7  and  C_19
    3  A    between atoms: C_9  and  C_13
    4  A    between atoms: N_11  and  O_24
    5  A    between atoms: N_11  and  C_26
    6  A    between atoms: C_12  and  C_13
    7  A    between atoms: C_13  and  C_18
    8  A    between atoms: C_15  and  C_16
    9  A    between atoms: C_15  and  C_18
   10  A    between atoms: N_17  and  CA_31
   11  A    between atoms: C_25  and  CA_31
                            x       y       z     vdW  Elec       q    Type
                         _______ _______ _______ _____ _____    ______ ____

>  <TORSDO>
F 11

$$$$
=
 OpenBabel10222416353D

 32 34  0  0  1  0  0  0  0  0999 V2000
  184.4340  178.5600  143.7920 C   0  0  2  0  0  3  0  0  0  0  0  0
  182.2580  178.9430  144.6640 O   0  0  0  0  0  0  0  0  0  0  0  0
  182.9590  178.7440  143.6370 C   0  0  0  0  0  0  0  0  0  0  0  0
  182.3630  178.6990  142.3320 N   0  0  0  0  0  2  0  0  0  0  0  0
  180.5560  180.1040  141.5530 C   0  0  0  0  0  2  0  0  0  0  0  0
  180.9850  178.9290  142.0040 C   0  0  0  0  0  0  0  0  0  0  0  0
  180.0400  177.7800  142.0180 C   0  0  0  0  0  2  0  0  0  0  0  0
  179.6000  177.5490  143.3210 O   0  0  0  0  0  1  0  0  0  0  0  0
  184.9150  179.0500  145.1570 C   0  0  0  0  0  2  0  0  0  0  0  0
  185.4570  177.9760  145.9190 O   0  0  0  0  0  0  0  0  0  0  0  0
  187.4480  178.0600  147.3360 C   0  0  0  0  0  3  0  0  0  0  0  0
  188.8250  177.8750  147.4870 C   0  0  0  0  0  3  0  0  0  0  0  0
  188.9820  177.1720  145.1780 C   0  0  0  0  0  3  0  0  0  0  0  0
  186.8300  177.8000  146.1030 C   0  0  0  0  0  0  0  0  0  0  0  0
  189.6010  177.4300  146.4090 C   0  0  0  0  0  0  0  0  0  0  0  0
  187.6050  177.3560  145.0270 C   0  0  0  0  0  3  0  0  0  0  0  0
  191.0170  177.2420  146.5640 N   0  0  0  0  0  0  0  0  0  0  0  0
  191.8460  177.4310  145.5080 O   0  0  0  0  0  1  0  0  0  0  0  0
  191.5270  176.7700  147.7300 O   0  0  0  0  0  0  0  0  0  0  0  0
  192.2310  175.6120  147.3840 C   0  0  0  0  0  1  0  0  0  0  0  0
  185.1920  179.2260  142.6470 C   0  0  0  0  0  2  0  0  0  0  0  0
  185.9650  178.2030  141.8240 C   0  0  0  0  0  2  0  0  0  0  0  0
  186.2320  178.6290  139.3760 C   0  0  0  0  0  3  0  0  0  0  0  0
  188.1710  178.2220  140.6810 C   0  0  0  0  0  0  0  0  0  0  0  0
  189.1860  178.1710  141.6390 C   0  0  0  0  0  3  0  0  0  0  0  0
  191.4290  177.4270  142.2690 N   0  0  0  0  0  1  0  0  0  0  0  0
  190.5350  176.9110  140.0460 C   0  0  0  0  0  3  0  0  0  0  0  0
  186.8400  178.8800  140.7740 C   0  0  2  0  0  3  0  0  0  0  0  0
  190.3780  177.5030  141.3140 C   0  0  0  0  0  0  0  0  0  0  0  0
  187.2090  177.8480  138.6180 N   0  0  0  0  0  0  0  0  0  0  0  0
  188.3330  177.6530  139.4490 C   0  0  0  0  0  0  0  0  0  0  0  0
  189.5050  176.9850  139.0960 C   0  0  0  0  0  3  0  0  0  0  0  0
  1 21  1  6  0  0  0
  1  9  1  0  0  0  0
  3  1  1  0  0  0  0
  3  2  2  0  0  0  0
  4  3  1  0  0  0  0
  5  6  2  0  0  0  0
  6  7  1  0  0  0  0
  6  4  1  0  0  0  0
  7  8  1  0  0  0  0
  9 10  1  0  0  0  0
 10 14  1  0  0  0  0
 11 12  1  0  0  0  0
 13 15  1  0  0  0  0
 14 11  2  0  0  0  0
 15 17  1  0  0  0  0
 15 12  2  0  0  0  0
 16 13  2  0  0  0  0
 16 14  1  0  0  0  0
 17 19  1  0  0  0  0
 18 17  1  0  0  0  0
 20 19  1  0  0  0  0
 22 21  1  0  0  0  0
 23 28  1  0  0  0  0
 24 28  1  0  0  0  0
 24 25  1  0  0  0  0
 27 29  1  0  0  0  0
 28 22  1  1  0  0  0
 29 25  2  0  0  0  0
 29 26  1  0  0  0  0
 30 23  2  0  0  0  0
 30 31  1  0  0  0  0
 31 24  2  0  0  0  0
 32 31  1  0  0  0  0
 32 27  2  0  0  0  0
M  END
>  <MODEL>
9

>  <REMARK>
 VINA RESULT:      -7.6      3.310      6.180
  Name = 
  11 active torsions:
  status: ('A' for Active; 'I' for Inactive)
    1  A    between atoms: O_7  and  C_12
    2  A    between atoms: O_7  and  C_19
    3  A    between atoms: C_9  and  C_13
    4  A    between atoms: N_11  and  O_24
    5  A    between atoms: N_11  and  C_26
    6  A    between atoms: C_12  and  C_13
    7  A    between atoms: C_13  and  C_18
    8  A    between atoms: C_15  and  C_16
    9  A    between atoms: C_15  and  C_18
   10  A    between atoms: N_17  and  CA_31
   11  A    between atoms: C_25  and  CA_31
                            x       y       z     vdW  Elec       q    Type
                         _______ _______ _______ _____ _____    ______ ____

>  <TORSDO>
F 11

$$$$
