=
 OpenBabel10222415583D

 36 38  0  0  1  0  0  0  0  0999 V2000
  186.0020  177.8120  137.7790 C   0  0  1  0  0  3  0  0  0  0  0  0
  185.7840  178.8870  138.7380 N   0  0  0  0  0  2  0  0  0  0  0  0
  184.6980  177.4300  137.0850 C   0  0  0  0  0  2  0  0  0  0  0  0
  182.6160  178.7650  139.6170 C   0  0  0  0  0  0  0  0  0  0  0  0
  181.9800  178.8140  137.2790 C   0  0  0  0  0  3  0  0  0  0  0  0
  181.6900  179.7780  139.8850 C   0  0  0  0  0  3  0  0  0  0  0  0
  184.7440  178.8740  140.9580 C   0  0  2  0  0  3  0  0  0  0  0  0
  183.4460  178.2700  140.6690 N   0  0  0  0  0  2  0  0  0  0  0  0
  185.8310  178.2850  140.0610 C   0  0  0  0  0  2  0  0  0  0  0  0
  181.0480  179.8310  137.5460 C   0  0  0  0  0  0  0  0  0  0  0  0
  182.7560  178.2730  138.3130 C   0  0  0  0  0  0  0  0  0  0  0  0
  180.9060  180.3040  138.8540 C   0  0  0  0  0  3  0  0  0  0  0  0
  183.6710  177.2530  138.0510 O   0  0  0  0  0  0  0  0  0  0  0  0
  184.5120  178.8330  144.8530 C   0  0  0  0  0  0  0  0  0  0  0  0
  184.1140  179.1630  143.4390 C   0  0  0  0  0  2  0  0  0  0  0  0
  185.8270  178.2350  145.1450 C   0  0  0  0  0  0  0  0  0  0  0  0
  186.2650  178.1120  142.7400 C   0  0  0  0  0  3  0  0  0  0  0  0
  183.7130  179.0970  145.7900 O   0  0  0  0  0  0  0  0  0  0  0  0
  185.0940  178.6730  142.4000 C   0  0  0  0  0  0  0  0  0  0  0  0
  186.2620  177.9890  146.5500 C   0  0  0  0  0  1  0  0  0  0  0  0
  186.6450  177.9010  144.1460 C   0  0  0  0  0  3  0  0  0  0  0  0
  180.2350  180.3950  136.5110 N   0  0  0  0  0  0  0  0  0  0  0  0
  180.5890  181.4310  135.8200 C   0  0  0  0  0  3  0  0  0  0  0  0
  179.7040  181.9620  134.7500 C   0  0  0  0  0  2  0  0  0  0  0  0
  179.9150  183.3580  134.6050 O   0  0  0  0  0  0  0  0  0  0  0  0
  180.7020  184.0330  135.4980 C   0  0  0  0  0  0  0  0  0  0  0  0
  181.3700  184.6000  136.2540 N   0  0  0  0  0  0  0  0  0  0  0  0
  186.8410  178.0150  135.5770 O   0  0  0  0  0  0  0  0  0  0  0  0
  187.0290  178.2190  136.7680 C   0  0  0  0  0  0  0  0  0  0  0  0
  188.2880  178.8840  137.2320 C   0  0  0  0  0  2  0  0  0  0  0  0
  189.2270  177.8740  137.8700 C   0  0  0  0  0  2  0  0  0  0  0  0
  189.4790  178.2370  139.3210 C   0  0  0  0  0  2  0  0  0  0  0  0
  190.5680  177.0440  140.0690 S   0  0  0  0  0  0  0  0  0  0  0  0
  191.9500  177.6220  140.2160 O   0  0  0  0  0  0  0  0  0  0  0  0
  189.9340  176.5900  141.6710 C   0  0  0  0  0  1  0  0  0  0  0  0
  190.6270  175.8210  139.1980 O   0  0  0  0  0  0  0  0  0  0  0  0
  1 29  1  6  0  0  0
  1  2  1  0  0  0  0
  2  9  1  0  0  0  0
  3  1  1  0  0  0  0
  3 13  1  0  0  0  0
  4  6  1  0  0  0  0
  4  8  1  0  0  0  0
  5 10  2  0  0  0  0
  5 11  1  0  0  0  0
  7 19  1  1  0  0  0
  8  7  1  0  0  0  0
  9  7  1  0  0  0  0
 10 12  1  0  0  0  0
 11  4  2  0  0  0  0
 12  6  2  0  0  0  0
 13 11  1  0  0  0  0
 14 16  1  0  0  0  0
 14 18  2  0  0  0  0
 15 14  1  0  0  0  0
 16 20  1  0  0  0  0
 17 21  1  0  0  0  0
 19 17  2  0  0  0  0
 19 15  1  0  0  0  0
 21 16  2  0  0  0  0
 22 10  1  0  0  0  0
 23 22  2  0  0  0  0
 24 23  1  0  0  0  0
 25 24  1  0  0  0  0
 25 26  1  0  0  0  0
 26 27  3  0  0  0  0
 28 29  2  0  0  0  0
 29 30  1  0  0  0  0
 30 31  1  0  0  0  0
 31 32  1  0  0  0  0
 32 33  1  0  0  0  0
 33 34  2  0  0  0  0
 33 35  1  0  0  0  0
 36 33  2  0  0  0  0
M  END
>  <MODEL>
1

>  <REMARK>
 VINA RESULT:      -7.7      0.000      0.000
  Name = 
  10 active torsions:
  status: ('A' for Active; 'I' for Inactive)
    1  A    between atoms: C_2  and  O_10
    2  A    between atoms: N_3  and  C_26
    3  A    between atoms: C_4  and  C_36
    4  A    between atoms: C_7  and  S_17
    5  A    between atoms: C_7  and  C_25
    6  A    between atoms: O_10  and  C_30
    7  A    between atoms: C_15  and  C_20
    8  A    between atoms: C_25  and  C_29
    9  A    between atoms: C_29  and  C_36
   10  A    between atoms: C_30  and  C_31
                            x       y       z     vdW  Elec       q    Type
                         _______ _______ _______ _____ _____    ______ ____

>  <TORSDO>
F 10

$$$$
=
 OpenBabel10222415583D

 36 38  0  0  1  0  0  0  0  0999 V2000
  186.2920  177.9160  138.3250 C   0  0  1  0  0  3  0  0  0  0  0  0
  185.8630  178.9780  139.2270 N   0  0  0  0  0  2  0  0  0  0  0  0
  185.1280  177.4300  137.4660 C   0  0  0  0  0  2  0  0  0  0  0  0
  182.6240  178.6160  139.6690 C   0  0  0  0  0  0  0  0  0  0  0  0
  182.3120  178.6000  137.2660 C   0  0  0  0  0  3  0  0  0  0  0  0
  181.5960  179.5570  139.7910 C   0  0  0  0  0  3  0  0  0  0  0  0
  184.5340  178.8990  141.2850 C   0  0  2  0  0  3  0  0  0  0  0  0
  183.3370  178.1950  140.8330 N   0  0  0  0  0  2  0  0  0  0  0  0
  185.7740  178.3900  140.5540 C   0  0  0  0  0  2  0  0  0  0  0  0
  181.2770  179.5440  137.3870 C   0  0  0  0  0  0  0  0  0  0  0  0
  182.9770  178.1280  138.4050 C   0  0  0  0  0  0  0  0  0  0  0  0
  180.9230  180.0140  138.6550 C   0  0  0  0  0  3  0  0  0  0  0  0
  183.9940  177.1800  138.2870 O   0  0  0  0  0  0  0  0  0  0  0  0
  186.0930  178.0920  144.7690 C   0  0  0  0  0  0  0  0  0  0  0  0
  185.9870  178.1300  143.2690 C   0  0  0  0  0  2  0  0  0  0  0  0
  184.9450  178.4690  145.6160 C   0  0  0  0  0  0  0  0  0  0  0  0
  183.7030  179.0790  143.5970 C   0  0  0  0  0  3  0  0  0  0  0  0
  187.1710  177.7120  145.2970 O   0  0  0  0  0  0  0  0  0  0  0  0
  184.6980  178.7350  142.7640 C   0  0  0  0  0  0  0  0  0  0  0  0
  185.0160  178.3470  147.1000 C   0  0  0  0  0  1  0  0  0  0  0  0
  183.8260  178.9290  145.0560 C   0  0  0  0  0  3  0  0  0  0  0  0
  180.5730  180.0370  136.2410 N   0  0  0  0  0  0  0  0  0  0  0  0
  180.4450  181.2980  135.9790 C   0  0  0  0  0  3  0  0  0  0  0  0
  179.7110  181.7450  134.7670 C   0  0  0  0  0  2  0  0  0  0  0  0
  179.4470  183.1370  134.8540 O   0  0  0  0  0  0  0  0  0  0  0  0
  180.4050  183.9920  135.3270 C   0  0  0  0  0  0  0  0  0  0  0  0
  181.2180  184.7150  135.7240 N   0  0  0  0  0  0  0  0  0  0  0  0
  187.2020  179.1940  136.5550 O   0  0  0  0  0  0  0  0  0  0  0  0
  187.4130  178.3940  137.4560 C   0  0  0  0  0  0  0  0  0  0  0  0
  188.7990  177.8860  137.7050 C   0  0  0  0  0  2  0  0  0  0  0  0
  189.2700  178.2680  139.1000 C   0  0  0  0  0  2  0  0  0  0  0  0
  189.6490  177.0250  139.8820 C   0  0  0  0  0  2  0  0  0  0  0  0
  189.7040  177.3930  141.6240 S   0  0  0  0  0  0  0  0  0  0  0  0
  188.9740  176.3320  142.4020 O   0  0  0  0  0  0  0  0  0  0  0  0
  191.4020  177.4680  142.1570 C   0  0  0  0  0  1  0  0  0  0  0  0
  189.0520  178.7260  141.8630 O   0  0  0  0  0  0  0  0  0  0  0  0
  1 29  1  6  0  0  0
  1  2  1  0  0  0  0
  2  9  1  0  0  0  0
  3 13  1  0  0  0  0
  3  1  1  0  0  0  0
  4  6  1  0  0  0  0
  4  8  1  0  0  0  0
  5 10  2  0  0  0  0
  5 11  1  0  0  0  0
  7 19  1  1  0  0  0
  8  7  1  0  0  0  0
  9  7  1  0  0  0  0
 10 12  1  0  0  0  0
 11  4  2  0  0  0  0
 12  6  2  0  0  0  0
 13 11  1  0  0  0  0
 14 18  2  0  0  0  0
 14 16  1  0  0  0  0
 15 14  1  0  0  0  0
 16 20  1  0  0  0  0
 17 21  1  0  0  0  0
 19 15  1  0  0  0  0
 19 17  2  0  0  0  0
 21 16  2  0  0  0  0
 22 10  1  0  0  0  0
 23 22  2  0  0  0  0
 24 25  1  0  0  0  0
 24 23  1  0  0  0  0
 25 26  1  0  0  0  0
 26 27  3  0  0  0  0
 28 29  2  0  0  0  0
 29 30  1  0  0  0  0
 30 31  1  0  0  0  0
 31 32  1  0  0  0  0
 32 33  1  0  0  0  0
 33 36  2  0  0  0  0
 33 35  1  0  0  0  0
 33 34  2  0  0  0  0
M  END
>  <MODEL>
2

>  <REMARK>
 VINA RESULT:      -7.5      1.283      1.620
  Name = 
  10 active torsions:
  status: ('A' for Active; 'I' for Inactive)
    1  A    between atoms: C_2  and  O_10
    2  A    between atoms: N_3  and  C_26
    3  A    between atoms: C_4  and  C_36
    4  A    between atoms: C_7  and  S_17
    5  A    between atoms: C_7  and  C_25
    6  A    between atoms: O_10  and  C_30
    7  A    between atoms: C_15  and  C_20
    8  A    between atoms: C_25  and  C_29
    9  A    between atoms: C_29  and  C_36
   10  A    between atoms: C_30  and  C_31
                            x       y       z     vdW  Elec       q    Type
                         _______ _______ _______ _____ _____    ______ ____

>  <TORSDO>
F 10

$$$$
=
 OpenBabel10222415583D

 36 38  0  0  1  0  0  0  0  0999 V2000
  188.1950  177.5770  137.9950 C   0  0  1  0  0  3  0  0  0  0  0  0
  186.8990  177.0900  138.4490 N   0  0  0  0  0  2  0  0  0  0  0  0
  189.0040  178.1360  139.1620 C   0  0  0  0  0  2  0  0  0  0  0  0
  186.1870  178.6950  141.2310 C   0  0  0  0  0  0  0  0  0  0  0  0
  188.3340  178.0380  142.1420 C   0  0  0  0  0  3  0  0  0  0  0  0
  185.5640  178.2730  142.4090 C   0  0  0  0  0  3  0  0  0  0  0  0
  184.8730  178.2970  139.1200 C   0  0  2  0  0  3  0  0  0  0  0  0
  185.3940  179.1910  140.1520 N   0  0  0  0  0  2  0  0  0  0  0  0
  185.9110  178.0690  138.0230 C   0  0  0  0  0  2  0  0  0  0  0  0
  187.7100  177.6150  143.3280 C   0  0  0  0  0  0  0  0  0  0  0  0
  187.5770  178.5880  141.0990 C   0  0  0  0  0  0  0  0  0  0  0  0
  186.3230  177.7400  143.4550 C   0  0  0  0  0  3  0  0  0  0  0  0
  188.1980  179.0220  139.9280 O   0  0  0  0  0  0  0  0  0  0  0  0
  181.9480  180.7470  138.3040 C   0  0  0  0  0  0  0  0  0  0  0  0
  183.1690  180.2260  139.0140 C   0  0  0  0  0  2  0  0  0  0  0  0
  181.2030  179.8920  137.3600 C   0  0  0  0  0  0  0  0  0  0  0  0
  182.8990  178.1520  137.6540 C   0  0  0  0  0  3  0  0  0  0  0  0
  181.5550  181.9190  138.5430 O   0  0  0  0  0  0  0  0  0  0  0  0
  183.6160  178.8640  138.5370 C   0  0  0  0  0  0  0  0  0  0  0  0
  179.9430  180.3730  136.7240 C   0  0  0  0  0  1  0  0  0  0  0  0
  181.6560  178.6740  137.0630 C   0  0  0  0  0  3  0  0  0  0  0  0
  188.4600  177.0590  144.4140 N   0  0  0  0  0  0  0  0  0  0  0  0
  188.6790  177.6950  145.5200 C   0  0  0  0  0  3  0  0  0  0  0  0
  189.4550  177.0580  146.6150 C   0  0  0  0  0  2  0  0  0  0  0  0
  190.8370  177.0740  146.2930 O   0  0  0  0  0  0  0  0  0  0  0  0
  191.7220  176.3210  147.0160 C   0  0  0  0  0  0  0  0  0  0  0  0
  192.4710  175.6810  147.6240 N   0  0  0  0  0  0  0  0  0  0  0  0
  188.6090  176.0770  136.2140 O   0  0  0  0  0  0  0  0  0  0  0  0
  188.9530  176.4800  137.3160 C   0  0  0  0  0  0  0  0  0  0  0  0
  190.1440  175.8830  138.0000 C   0  0  0  0  0  2  0  0  0  0  0  0
  190.9800  175.0770  137.0190 C   0  0  0  0  0  2  0  0  0  0  0  0
  192.0160  175.9680  136.3590 C   0  0  0  0  0  2  0  0  0  0  0  0
  193.5570  175.8740  137.2460 S   0  0  0  0  0  0  0  0  0  0  0  0
  193.4910  176.7200  138.4900 O   0  0  0  0  0  0  0  0  0  0  0  0
  193.8800  174.1790  137.6890 C   0  0  0  0  0  1  0  0  0  0  0  0
  194.6630  176.3720  136.3600 O   0  0  0  0  0  0  0  0  0  0  0  0
  1 29  1  1  0  0  0
  1  2  1  0  0  0  0
  1  3  1  0  0  0  0
  3 13  1  0  0  0  0
  4  6  1  0  0  0  0
  5 10  2  0  0  0  0
  6 12  2  0  0  0  0
  7 19  1  6  0  0  0
  7  8  1  0  0  0  0
  8  4  1  0  0  0  0
  9  2  1  0  0  0  0
  9  7  1  0  0  0  0
 10 12  1  0  0  0  0
 10 22  1  0  0  0  0
 11  4  2  0  0  0  0
 11  5  1  0  0  0  0
 13 11  1  0  0  0  0
 14 18  2  0  0  0  0
 14 15  1  0  0  0  0
 16 14  1  0  0  0  0
 17 19  2  0  0  0  0
 19 15  1  0  0  0  0
 20 16  1  0  0  0  0
 21 16  2  0  0  0  0
 21 17  1  0  0  0  0
 22 23  2  0  0  0  0
 23 24  1  0  0  0  0
 25 24  1  0  0  0  0
 25 26  1  0  0  0  0
 26 27  3  0  0  0  0
 28 29  2  0  0  0  0
 29 30  1  0  0  0  0
 31 30  1  0  0  0  0
 32 31  1  0  0  0  0
 32 33  1  0  0  0  0
 33 35  1  0  0  0  0
 33 34  2  0  0  0  0
 36 33  2  0  0  0  0
M  END
>  <MODEL>
3

>  <REMARK>
 VINA RESULT:      -7.4      3.550      8.342
  Name = 
  10 active torsions:
  status: ('A' for Active; 'I' for Inactive)
    1  A    between atoms: C_2  and  O_10
    2  A    between atoms: N_3  and  C_26
    3  A    between atoms: C_4  and  C_36
    4  A    between atoms: C_7  and  S_17
    5  A    between atoms: C_7  and  C_25
    6  A    between atoms: O_10  and  C_30
    7  A    between atoms: C_15  and  C_20
    8  A    between atoms: C_25  and  C_29
    9  A    between atoms: C_29  and  C_36
   10  A    between atoms: C_30  and  C_31
                            x       y       z     vdW  Elec       q    Type
                         _______ _______ _______ _____ _____    ______ ____

>  <TORSDO>
F 10

$$$$
=
 OpenBabel10222415583D

 36 38  0  0  1  0  0  0  0  0999 V2000
  186.0620  178.4910  142.6080 C   0  0  1  0  0  3  0  0  0  0  0  0
  186.8280  177.2660  142.7980 N   0  0  0  0  0  2  0  0  0  0  0  0
  186.4590  179.1820  141.3070 C   0  0  0  0  0  2  0  0  0  0  0  0
  189.6150  177.5950  141.0820 C   0  0  0  0  0  0  0  0  0  0  0  0
  188.3190  178.1510  139.1110 C   0  0  0  0  0  3  0  0  0  0  0  0
  190.3530  176.6750  140.3300 C   0  0  0  0  0  3  0  0  0  0  0  0
  189.1620  176.9160  143.4640 C   0  0  2  0  0  3  0  0  0  0  0  0
  189.8710  177.7310  142.4800 N   0  0  0  0  0  2  0  0  0  0  0  0
  187.8190  177.5460  143.8260 C   0  0  0  0  0  2  0  0  0  0  0  0
  189.0600  177.2290  138.3540 C   0  0  0  0  0  0  0  0  0  0  0  0
  188.6010  178.3440  140.4700 C   0  0  0  0  0  0  0  0  0  0  0  0
  190.0800  176.4970  138.9710 C   0  0  0  0  0  3  0  0  0  0  0  0
  187.8750  179.2700  141.2190 O   0  0  0  0  0  0  0  0  0  0  0  0
  190.3900  177.0810  147.1630 C   0  0  0  0  0  0  0  0  0  0  0  0
  189.5250  177.3870  145.9710 C   0  0  0  0  0  2  0  0  0  0  0  0
  191.6630  176.3540  147.0040 C   0  0  0  0  0  0  0  0  0  0  0  0
  191.1640  176.0730  144.6250 C   0  0  0  0  0  3  0  0  0  0  0  0
  190.0220  177.4730  148.3030 O   0  0  0  0  0  0  0  0  0  0  0  0
  190.0030  176.7440  144.6900 C   0  0  0  0  0  0  0  0  0  0  0  0
  192.5660  176.1270  148.1700 C   0  0  0  0  0  1  0  0  0  0  0  0
  192.0200  175.8870  145.8080 C   0  0  0  0  0  3  0  0  0  0  0  0
  188.8000  177.0190  136.9610 N   0  0  0  0  0  0  0  0  0  0  0  0
  187.6080  176.8690  136.4800 C   0  0  0  0  0  3  0  0  0  0  0  0
  187.4040  176.6660  135.0220 C   0  0  0  0  0  2  0  0  0  0  0  0
  186.2630  177.3950  134.5940 O   0  0  0  0  0  0  0  0  0  0  0  0
  185.0120  177.0130  134.9930 C   0  0  0  0  0  0  0  0  0  0  0  0
  183.9510  176.6930  135.3270 N   0  0  0  0  0  0  0  0  0  0  0  0
  184.0450  177.7790  141.5990 O   0  0  0  0  0  0  0  0  0  0  0  0
  184.5960  178.1920  142.6100 C   0  0  0  0  0  0  0  0  0  0  0  0
  183.8090  178.3980  143.8670 C   0  0  0  0  0  2  0  0  0  0  0  0
  182.6730  179.3810  143.6370 C   0  0  0  0  0  2  0  0  0  0  0  0
  181.3410  178.7220  143.9390 C   0  0  0  0  0  2  0  0  0  0  0  0
  180.1530  179.1410  142.6800 S   0  0  0  0  0  0  0  0  0  0  0  0
  179.5050  180.4620  142.9970 O   0  0  0  0  0  0  0  0  0  0  0  0
  180.9760  179.2380  141.1030 C   0  0  0  0  0  1  0  0  0  0  0  0
  179.1010  178.0690  142.6220 O   0  0  0  0  0  0  0  0  0  0  0  0
  1 29  1  6  0  0  0
  1  2  1  0  0  0  0
  2  9  1  0  0  0  0
  3  1  1  0  0  0  0
  4  8  1  0  0  0  0
  5 11  2  0  0  0  0
  6  4  2  0  0  0  0
  7  9  1  0  0  0  0
  7 19  1  1  0  0  0
  8  7  1  0  0  0  0
 10 12  2  0  0  0  0
 10  5  1  0  0  0  0
 11  4  1  0  0  0  0
 11 13  1  0  0  0  0
 12  6  1  0  0  0  0
 13  3  1  0  0  0  0
 14 18  2  0  0  0  0
 15 14  1  0  0  0  0
 16 14  1  0  0  0  0
 16 20  1  0  0  0  0
 17 19  2  0  0  0  0
 17 21  1  0  0  0  0
 19 15  1  0  0  0  0
 21 16  2  0  0  0  0
 22 10  1  0  0  0  0
 23 22  2  0  0  0  0
 24 23  1  0  0  0  0
 25 26  1  0  0  0  0
 25 24  1  0  0  0  0
 26 27  3  0  0  0  0
 28 29  2  0  0  0  0
 29 30  1  0  0  0  0
 31 30  1  0  0  0  0
 31 32  1  0  0  0  0
 33 34  2  0  0  0  0
 33 32  1  0  0  0  0
 35 33  1  0  0  0  0
 36 33  2  0  0  0  0
M  END
>  <MODEL>
4

>  <REMARK>
 VINA RESULT:      -7.4      4.224      7.818
  Name = 
  10 active torsions:
  status: ('A' for Active; 'I' for Inactive)
    1  A    between atoms: C_2  and  O_10
    2  A    between atoms: N_3  and  C_26
    3  A    between atoms: C_4  and  C_36
    4  A    between atoms: C_7  and  S_17
    5  A    between atoms: C_7  and  C_25
    6  A    between atoms: O_10  and  C_30
    7  A    between atoms: C_15  and  C_20
    8  A    between atoms: C_25  and  C_29
    9  A    between atoms: C_29  and  C_36
   10  A    between atoms: C_30  and  C_31
                            x       y       z     vdW  Elec       q    Type
                         _______ _______ _______ _____ _____    ______ ____

>  <TORSDO>
F 10

$$$$
=
 OpenBabel10222415583D

 36 38  0  0  1  0  0  0  0  0999 V2000
  188.3800  177.6800  137.9080 C   0  0  1  0  0  3  0  0  0  0  0  0
  187.1090  177.1550  138.3910 N   0  0  0  0  0  2  0  0  0  0  0  0
  189.2170  178.2220  139.0630 C   0  0  0  0  0  2  0  0  0  0  0  0
  186.4600  178.6690  141.2380 C   0  0  0  0  0  0  0  0  0  0  0  0
  188.6490  178.0300  142.0600 C   0  0  0  0  0  3  0  0  0  0  0  0
  185.8850  178.2020  142.4240 C   0  0  0  0  0  3  0  0  0  0  0  0
  185.0840  178.3030  139.1610 C   0  0  2  0  0  3  0  0  0  0  0  0
  185.6230  179.1790  140.2000 N   0  0  0  0  0  2  0  0  0  0  0  0
  186.0890  178.1250  138.0250 C   0  0  0  0  0  2  0  0  0  0  0  0
  188.0730  177.5620  143.2530 C   0  0  0  0  0  0  0  0  0  0  0  0
  187.8470  178.5930  141.0580 C   0  0  0  0  0  0  0  0  0  0  0  0
  186.6890  177.6560  143.4290 C   0  0  0  0  0  3  0  0  0  0  0  0
  188.4200  179.0710  139.8790 O   0  0  0  0  0  0  0  0  0  0  0  0
  181.7190  178.6470  137.2170 C   0  0  0  0  0  0  0  0  0  0  0  0
  183.0410  178.0470  137.6130 C   0  0  0  0  0  2  0  0  0  0  0  0
  181.3290  179.9880  137.6900 C   0  0  0  0  0  0  0  0  0  0  0  0
  183.3680  180.0660  139.0410 C   0  0  0  0  0  3  0  0  0  0  0  0
  180.9560  177.9970  136.4550 O   0  0  0  0  0  0  0  0  0  0  0  0
  183.7980  178.8610  138.6370 C   0  0  0  0  0  0  0  0  0  0  0  0
  180.0610  180.6240  137.2280 C   0  0  0  0  0  1  0  0  0  0  0  0
  182.1100  180.6480  138.5450 C   0  0  0  0  0  3  0  0  0  0  0  0
  188.8690  176.9920  144.2980 N   0  0  0  0  0  0  0  0  0  0  0  0
  189.3550  177.6870  145.2750 C   0  0  0  0  0  3  0  0  0  0  0  0
  190.1640  177.0330  146.3360 C   0  0  0  0  0  2  0  0  0  0  0  0
  189.3170  176.6220  147.3990 O   0  0  0  0  0  0  0  0  0  0  0  0
  188.5880  177.5460  148.0950 C   0  0  0  0  0  0  0  0  0  0  0  0
  187.9670  178.3280  148.6810 N   0  0  0  0  0  0  0  0  0  0  0  0
  188.8050  176.2880  136.0440 O   0  0  0  0  0  0  0  0  0  0  0  0
  189.1350  176.6160  137.1740 C   0  0  0  0  0  0  0  0  0  0  0  0
  190.3070  175.9620  137.8380 C   0  0  0  0  0  2  0  0  0  0  0  0
  191.4640  175.8130  136.8640 C   0  0  0  0  0  2  0  0  0  0  0  0
  192.4100  174.7250  137.3370 C   0  0  0  0  0  2  0  0  0  0  0  0
  194.0930  175.3040  137.2610 S   0  0  0  0  0  0  0  0  0  0  0  0
  194.7080  175.2940  138.6360 O   0  0  0  0  0  0  0  0  0  0  0  0
  195.0300  174.2480  136.1760 C   0  0  0  0  0  1  0  0  0  0  0  0
  194.1050  176.7050  136.7190 O   0  0  0  0  0  0  0  0  0  0  0  0
  1 29  1  1  0  0  0
  1  2  1  0  0  0  0
  1  3  1  0  0  0  0
  3 13  1  0  0  0  0
  4  6  1  0  0  0  0
  5 10  2  0  0  0  0
  6 12  2  0  0  0  0
  7 19  1  6  0  0  0
  7  8  1  0  0  0  0
  8  4  1  0  0  0  0
  9  2  1  0  0  0  0
  9  7  1  0  0  0  0
 10 12  1  0  0  0  0
 10 22  1  0  0  0  0
 11  4  2  0  0  0  0
 11  5  1  0  0  0  0
 13 11  1  0  0  0  0
 14 15  1  0  0  0  0
 14 16  1  0  0  0  0
 15 19  1  0  0  0  0
 16 21  2  0  0  0  0
 18 14  2  0  0  0  0
 19 17  2  0  0  0  0
 20 16  1  0  0  0  0
 21 17  1  0  0  0  0
 22 23  2  0  0  0  0
 23 24  1  0  0  0  0
 24 25  1  0  0  0  0
 25 26  1  0  0  0  0
 26 27  3  0  0  0  0
 28 29  2  0  0  0  0
 29 30  1  0  0  0  0
 31 32  1  0  0  0  0
 31 30  1  0  0  0  0
 33 32  1  0  0  0  0
 33 34  2  0  0  0  0
 35 33  1  0  0  0  0
 36 33  2  0  0  0  0
M  END
>  <MODEL>
5

>  <REMARK>
 VINA RESULT:      -7.3      3.376      8.263
  Name = 
  10 active torsions:
  status: ('A' for Active; 'I' for Inactive)
    1  A    between atoms: C_2  and  O_10
    2  A    between atoms: N_3  and  C_26
    3  A    between atoms: C_4  and  C_36
    4  A    between atoms: C_7  and  S_17
    5  A    between atoms: C_7  and  C_25
    6  A    between atoms: O_10  and  C_30
    7  A    between atoms: C_15  and  C_20
    8  A    between atoms: C_25  and  C_29
    9  A    between atoms: C_29  and  C_36
   10  A    between atoms: C_30  and  C_31
                            x       y       z     vdW  Elec       q    Type
                         _______ _______ _______ _____ _____    ______ ____

>  <TORSDO>
F 10

$$$$
=
 OpenBabel10222415583D

 36 38  0  0  1  0  0  0  0  0999 V2000
  189.1570  177.8600  141.6690 C   0  0  1  0  0  3  0  0  0  0  0  0
  188.0750  177.0930  142.2740 N   0  0  0  0  0  2  0  0  0  0  0  0
  190.1290  178.3610  142.7340 C   0  0  0  0  0  2  0  0  0  0  0  0
  187.8080  178.1010  145.3940 C   0  0  0  0  0  0  0  0  0  0  0  0
  190.1750  177.6890  145.7150 C   0  0  0  0  0  3  0  0  0  0  0  0
  187.5320  177.4000  146.5720 C   0  0  0  0  0  3  0  0  0  0  0  0
  186.1130  177.8160  143.5530 C   0  0  2  0  0  3  0  0  0  0  0  0
  186.7310  178.6150  144.6090 N   0  0  0  0  0  2  0  0  0  0  0  0
  186.8950  177.9420  142.2470 C   0  0  0  0  0  2  0  0  0  0  0  0
  189.8990  176.9860  146.9000 C   0  0  0  0  0  0  0  0  0  0  0  0
  189.1330  178.2550  144.9680 C   0  0  0  0  0  0  0  0  0  0  0  0
  188.5740  176.8500  147.3240 C   0  0  0  0  0  3  0  0  0  0  0  0
  189.4080  178.9660  143.7990 O   0  0  0  0  0  0  0  0  0  0  0  0
  182.6950  178.6200  141.8530 C   0  0  0  0  0  0  0  0  0  0  0  0
  184.1550  178.2680  141.9410 C   0  0  0  0  0  2  0  0  0  0  0  0
  181.9510  179.0530  143.0510 C   0  0  0  0  0  0  0  0  0  0  0  0
  183.9470  178.6270  144.4010 C   0  0  0  0  0  3  0  0  0  0  0  0
  182.1180  178.5610  140.7350 O   0  0  0  0  0  0  0  0  0  0  0  0
  184.6920  178.2420  143.3530 C   0  0  0  0  0  0  0  0  0  0  0  0
  180.5280  179.4900  142.9520 C   0  0  0  0  0  1  0  0  0  0  0  0
  182.5480  179.0560  144.2420 C   0  0  0  0  0  3  0  0  0  0  0  0
  190.9440  176.4050  147.6890 N   0  0  0  0  0  0  0  0  0  0  0  0
  192.0250  175.9110  147.1760 C   0  0  0  0  0  3  0  0  0  0  0  0
  193.0780  175.3330  148.0510 C   0  0  0  0  0  2  0  0  0  0  0  0
  192.9120  175.8090  149.3780 O   0  0  0  0  0  0  0  0  0  0  0  0
  193.7860  176.7260  149.8950 C   0  0  0  0  0  0  0  0  0  0  0  0
  194.5220  177.5020  150.3380 N   0  0  0  0  0  0  0  0  0  0  0  0
  190.5030  176.0320  141.0020 O   0  0  0  0  0  0  0  0  0  0  0  0
  189.8810  177.0270  140.6570 C   0  0  0  0  0  0  0  0  0  0  0  0
  189.8310  177.4230  139.2140 C   0  0  0  0  0  2  0  0  0  0  0  0
  190.2590  176.2680  138.3240 C   0  0  0  0  0  2  0  0  0  0  0  0
  191.2600  176.7490  137.2890 C   0  0  0  0  0  2  0  0  0  0  0  0
  192.8460  175.9930  137.5780 S   0  0  0  0  0  0  0  0  0  0  0  0
  192.6700  174.5490  137.9630 O   0  0  0  0  0  0  0  0  0  0  0  0
  193.8300  176.1040  136.0970 C   0  0  0  0  0  1  0  0  0  0  0  0
  193.5430  176.7260  138.6890 O   0  0  0  0  0  0  0  0  0  0  0  0
  1 29  1  6  0  0  0
  1  2  1  0  0  0  0
  1  3  1  0  0  0  0
  3 13  1  0  0  0  0
  4  6  1  0  0  0  0
  5 10  2  0  0  0  0
  6 12  2  0  0  0  0
  7 19  1  6  0  0  0
  7  8  1  0  0  0  0
  8  4  1  0  0  0  0
  9  2  1  0  0  0  0
  9  7  1  0  0  0  0
 10 12  1  0  0  0  0
 10 22  1  0  0  0  0
 11  4  2  0  0  0  0
 11  5  1  0  0  0  0
 13 11  1  0  0  0  0
 14 15  1  0  0  0  0
 14 16  1  0  0  0  0
 15 19  1  0  0  0  0
 16 21  2  0  0  0  0
 18 14  2  0  0  0  0
 19 17  2  0  0  0  0
 20 16  1  0  0  0  0
 21 17  1  0  0  0  0
 23 22  2  0  0  0  0
 23 24  1  0  0  0  0
 24 25  1  0  0  0  0
 25 26  1  0  0  0  0
 26 27  3  0  0  0  0
 29 28  2  0  0  0  0
 30 29  1  0  0  0  0
 31 30  1  0  0  0  0
 32 33  1  0  0  0  0
 32 31  1  0  0  0  0
 33 34  2  0  0  0  0
 33 36  2  0  0  0  0
 35 33  1  0  0  0  0
M  END
>  <MODEL>
6

>  <REMARK>
 VINA RESULT:      -7.2      4.775      9.811
  Name = 
  10 active torsions:
  status: ('A' for Active; 'I' for Inactive)
    1  A    between atoms: C_2  and  O_10
    2  A    between atoms: N_3  and  C_26
    3  A    between atoms: C_4  and  C_36
    4  A    between atoms: C_7  and  S_17
    5  A    between atoms: C_7  and  C_25
    6  A    between atoms: O_10  and  C_30
    7  A    between atoms: C_15  and  C_20
    8  A    between atoms: C_25  and  C_29
    9  A    between atoms: C_29  and  C_36
   10  A    between atoms: C_30  and  C_31
                            x       y       z     vdW  Elec       q    Type
                         _______ _______ _______ _____ _____    ______ ____

>  <TORSDO>
F 10

$$$$
=
 OpenBabel10222415583D

 36 38  0  0  1  0  0  0  0  0999 V2000
  183.3420  178.7180  140.6430 C   0  0  1  0  0  3  0  0  0  0  0  0
  184.1540  177.6750  141.2560 N   0  0  0  0  0  2  0  0  0  0  0  0
  184.0530  179.3210  139.4350 C   0  0  0  0  0  2  0  0  0  0  0  0
  187.2840  178.2970  140.4580 C   0  0  0  0  0  0  0  0  0  0  0  0
  186.6530  178.3970  138.1200 C   0  0  0  0  0  3  0  0  0  0  0  0
  188.3420  177.4430  140.1300 C   0  0  0  0  0  3  0  0  0  0  0  0
  186.1590  177.8150  142.6590 C   0  0  2  0  0  3  0  0  0  0  0  0
  187.0420  178.6280  141.8260 N   0  0  0  0  0  2  0  0  0  0  0  0
  184.7020  178.2360  142.4810 C   0  0  0  0  0  2  0  0  0  0  0  0
  187.7170  177.5420  137.7880 C   0  0  0  0  0  0  0  0  0  0  0  0
  186.4420  178.7840  139.4500 C   0  0  0  0  0  0  0  0  0  0  0  0
  188.5600  177.0720  138.8000 C   0  0  0  0  0  3  0  0  0  0  0  0
  185.3950  179.6460  139.7780 O   0  0  0  0  0  0  0  0  0  0  0  0
  186.0690  178.6210  146.4750 C   0  0  0  0  0  0  0  0  0  0  0  0
  185.6190  178.6390  145.0390 C   0  0  0  0  0  2  0  0  0  0  0  0
  187.3950  178.0900  146.8430 C   0  0  0  0  0  0  0  0  0  0  0  0
  187.7450  177.4460  144.5070 C   0  0  0  0  0  3  0  0  0  0  0  0
  185.3050  179.0860  147.3620 O   0  0  0  0  0  0  0  0  0  0  0  0
  186.5610  177.9280  144.0960 C   0  0  0  0  0  0  0  0  0  0  0  0
  187.8810  178.1520  148.2510 C   0  0  0  0  0  1  0  0  0  0  0  0
  188.1760  177.5430  145.9110 C   0  0  0  0  0  3  0  0  0  0  0  0
  187.9630  177.1380  136.4370 N   0  0  0  0  0  0  0  0  0  0  0  0
  189.0390  176.5220  136.0680 C   0  0  0  0  0  3  0  0  0  0  0  0
  189.2290  176.1180  134.6500 C   0  0  0  0  0  2  0  0  0  0  0  0
  189.7390  174.7950  134.5940 O   0  0  0  0  0  0  0  0  0  0  0  0
  189.2530  173.8320  135.4360 C   0  0  0  0  0  0  0  0  0  0  0  0
  188.8380  173.0160  136.1450 N   0  0  0  0  0  0  0  0  0  0  0  0
  181.8010  176.9640  140.2620 O   0  0  0  0  0  0  0  0  0  0  0  0
  182.0090  178.1690  140.2380 C   0  0  0  0  0  0  0  0  0  0  0  0
  180.9290  179.1130  139.8090 C   0  0  0  0  0  2  0  0  0  0  0  0
  179.6870  178.9360  140.6680 C   0  0  0  0  0  2  0  0  0  0  0  0
  179.7680  179.8250  141.8950 C   0  0  0  0  0  2  0  0  0  0  0  0
  179.9550  178.8290  143.3590 S   0  0  0  0  0  0  0  0  0  0  0  0
  179.6790  177.3840  143.0420 O   0  0  0  0  0  0  0  0  0  0  0  0
  181.6150  179.0020  143.9810 C   0  0  0  0  0  1  0  0  0  0  0  0
  178.9850  179.3060  144.4030 O   0  0  0  0  0  0  0  0  0  0  0  0
  1 29  1  6  0  0  0
  1  2  1  0  0  0  0
  2  9  1  0  0  0  0
  3 13  1  0  0  0  0
  3  1  1  0  0  0  0
  4  8  1  0  0  0  0
  5 11  1  0  0  0  0
  6  4  1  0  0  0  0
  7 19  1  1  0  0  0
  8  7  1  0  0  0  0
  9  7  1  0  0  0  0
 10  5  2  0  0  0  0
 10 12  1  0  0  0  0
 11 13  1  0  0  0  0
 11  4  2  0  0  0  0
 12  6  2  0  0  0  0
 14 16  1  0  0  0  0
 14 18  2  0  0  0  0
 15 14  1  0  0  0  0
 16 20  1  0  0  0  0
 17 21  1  0  0  0  0
 19 17  2  0  0  0  0
 19 15  1  0  0  0  0
 21 16  2  0  0  0  0
 22 10  1  0  0  0  0
 23 22  2  0  0  0  0
 24 23  1  0  0  0  0
 25 24  1  0  0  0  0
 25 26  1  0  0  0  0
 26 27  3  0  0  0  0
 29 28  2  0  0  0  0
 30 29  1  0  0  0  0
 30 31  1  0  0  0  0
 31 32  1  0  0  0  0
 32 33  1  0  0  0  0
 33 35  1  0  0  0  0
 33 36  2  0  0  0  0
 34 33  2  0  0  0  0
M  END
>  <MODEL>
7

>  <REMARK>
 VINA RESULT:      -7.1      4.033      7.575
  Name = 
  10 active torsions:
  status: ('A' for Active; 'I' for Inactive)
    1  A    between atoms: C_2  and  O_10
    2  A    between atoms: N_3  and  C_26
    3  A    between atoms: C_4  and  C_36
    4  A    between atoms: C_7  and  S_17
    5  A    between atoms: C_7  and  C_25
    6  A    between atoms: O_10  and  C_30
    7  A    between atoms: C_15  and  C_20
    8  A    between atoms: C_25  and  C_29
    9  A    between atoms: C_29  and  C_36
   10  A    between atoms: C_30  and  C_31
                            x       y       z     vdW  Elec       q    Type
                         _______ _______ _______ _____ _____    ______ ____

>  <TORSDO>
F 10

$$$$
=
 OpenBabel10222415583D

 36 38  0  0  1  0  0  0  0  0999 V2000
  189.1950  177.9100  141.4490 C   0  0  1  0  0  3  0  0  0  0  0  0
  188.0950  177.1250  141.9950 N   0  0  0  0  0  2  0  0  0  0  0  0
  190.1350  178.3740  142.5580 C   0  0  0  0  0  2  0  0  0  0  0  0
  187.7340  178.0300  145.1370 C   0  0  0  0  0  0  0  0  0  0  0  0
  190.0890  177.6040  145.5160 C   0  0  0  0  0  3  0  0  0  0  0  0
  187.4210  177.2910  146.2820 C   0  0  0  0  0  3  0  0  0  0  0  0
  186.0960  177.8090  143.2370 C   0  0  2  0  0  3  0  0  0  0  0  0
  186.6820  178.5720  144.3370 N   0  0  0  0  0  2  0  0  0  0  0  0
  186.9160  177.9760  141.9600 C   0  0  0  0  0  2  0  0  0  0  0  0
  189.7770  176.8630  146.6680 C   0  0  0  0  0  0  0  0  0  0  0  0
  189.0710  178.1960  144.7560 C   0  0  0  0  0  0  0  0  0  0  0  0
  188.4390  176.7150  147.0470 C   0  0  0  0  0  3  0  0  0  0  0  0
  189.3810  178.9450  143.6210 O   0  0  0  0  0  0  0  0  0  0  0  0
  182.7210  178.6430  141.4660 C   0  0  0  0  0  0  0  0  0  0  0  0
  184.1770  178.2830  141.5840 C   0  0  0  0  0  2  0  0  0  0  0  0
  181.9520  179.0710  142.6500 C   0  0  0  0  0  0  0  0  0  0  0  0
  183.9140  178.6240  144.0420 C   0  0  0  0  0  3  0  0  0  0  0  0
  182.1690  178.5970  140.3350 O   0  0  0  0  0  0  0  0  0  0  0  0
  184.6820  178.2430  143.0080 C   0  0  0  0  0  0  0  0  0  0  0  0
  180.5340  179.5140  142.5220 C   0  0  0  0  0  1  0  0  0  0  0  0
  182.5210  179.0600  143.8550 C   0  0  0  0  0  3  0  0  0  0  0  0
  190.7970  176.2550  147.4690 N   0  0  0  0  0  0  0  0  0  0  0  0
  192.0030  176.0520  147.0430 C   0  0  0  0  0  3  0  0  0  0  0  0
  193.0190  175.4270  147.9280 C   0  0  0  0  0  2  0  0  0  0  0  0
  192.8060  175.8400  149.2690 O   0  0  0  0  0  0  0  0  0  0  0  0
  193.6540  176.7390  149.8570 C   0  0  0  0  0  0  0  0  0  0  0  0
  194.3670  177.5020  150.3550 N   0  0  0  0  0  0  0  0  0  0  0  0
  190.4970  176.0630  140.7480 O   0  0  0  0  0  0  0  0  0  0  0  0
  189.9490  177.1100  140.4320 C   0  0  0  0  0  0  0  0  0  0  0  0
  190.0210  177.6030  139.0210 C   0  0  0  0  0  2  0  0  0  0  0  0
  189.2540  176.6800  138.0880 C   0  0  0  0  0  2  0  0  0  0  0  0
  187.7670  176.9720  138.1690 C   0  0  0  0  0  2  0  0  0  0  0  0
  187.2570  177.9390  136.7630 S   0  0  0  0  0  0  0  0  0  0  0  0
  187.6100  179.3870  136.9740 O   0  0  0  0  0  0  0  0  0  0  0  0
  188.0720  177.3280  135.3020 C   0  0  0  0  0  1  0  0  0  0  0  0
  185.7700  177.8060  136.5900 O   0  0  0  0  0  0  0  0  0  0  0  0
  1 29  1  6  0  0  0
  1  2  1  0  0  0  0
  1  3  1  0  0  0  0
  3 13  1  0  0  0  0
  4  6  1  0  0  0  0
  5 10  2  0  0  0  0
  6 12  2  0  0  0  0
  7 19  1  6  0  0  0
  7  8  1  0  0  0  0
  8  4  1  0  0  0  0
  9  2  1  0  0  0  0
  9  7  1  0  0  0  0
 10 12  1  0  0  0  0
 10 22  1  0  0  0  0
 11  4  2  0  0  0  0
 11  5  1  0  0  0  0
 13 11  1  0  0  0  0
 14 15  1  0  0  0  0
 14 16  1  0  0  0  0
 15 19  1  0  0  0  0
 16 21  2  0  0  0  0
 18 14  2  0  0  0  0
 19 17  2  0  0  0  0
 20 16  1  0  0  0  0
 21 17  1  0  0  0  0
 23 22  2  0  0  0  0
 23 24  1  0  0  0  0
 24 25  1  0  0  0  0
 25 26  1  0  0  0  0
 26 27  3  0  0  0  0
 29 28  2  0  0  0  0
 30 29  1  0  0  0  0
 31 32  1  0  0  0  0
 31 30  1  0  0  0  0
 33 34  2  0  0  0  0
 33 32  1  0  0  0  0
 35 33  1  0  0  0  0
 36 33  2  0  0  0  0
M  END
>  <MODEL>
8

>  <REMARK>
 VINA RESULT:      -7.1      4.537      9.780
  Name = 
  10 active torsions:
  status: ('A' for Active; 'I' for Inactive)
    1  A    between atoms: C_2  and  O_10
    2  A    between atoms: N_3  and  C_26
    3  A    between atoms: C_4  and  C_36
    4  A    between atoms: C_7  and  S_17
    5  A    between atoms: C_7  and  C_25
    6  A    between atoms: O_10  and  C_30
    7  A    between atoms: C_15  and  C_20
    8  A    between atoms: C_25  and  C_29
    9  A    between atoms: C_29  and  C_36
   10  A    between atoms: C_30  and  C_31
                            x       y       z     vdW  Elec       q    Type
                         _______ _______ _______ _____ _____    ______ ____

>  <TORSDO>
F 10

$$$$
=
 OpenBabel10222415583D

 36 38  0  0  1  0  0  0  0  0999 V2000
  187.5130  177.7200  137.4530 C   0  0  1  0  0  3  0  0  0  0  0  0
  186.4460  177.2260  138.3150 N   0  0  0  0  0  2  0  0  0  0  0  0
  188.7140  178.1700  138.2790 C   0  0  0  0  0  2  0  0  0  0  0  0
  186.8630  178.6280  141.2620 C   0  0  0  0  0  0  0  0  0  0  0  0
  189.1610  177.8580  141.2860 C   0  0  0  0  0  3  0  0  0  0  0  0
  186.6870  178.1290  142.5560 C   0  0  0  0  0  3  0  0  0  0  0  0
  184.8590  178.4210  139.7510 C   0  0  2  0  0  3  0  0  0  0  0  0
  185.7580  179.2220  140.5780 N   0  0  0  0  0  2  0  0  0  0  0  0
  185.4180  178.2550  138.3400 C   0  0  0  0  0  2  0  0  0  0  0  0
  188.9870  177.3590  142.5880 C   0  0  0  0  0  0  0  0  0  0  0  0
  188.1050  178.5020  140.6270 C   0  0  0  0  0  0  0  0  0  0  0  0
  187.7470  177.5020  143.2180 C   0  0  0  0  0  3  0  0  0  0  0  0
  188.2810  179.0120  139.3400 O   0  0  0  0  0  0  0  0  0  0  0  0
  181.1900  179.3900  140.6600 C   0  0  0  0  0  0  0  0  0  0  0  0
  182.4870  178.6290  140.7350 C   0  0  0  0  0  2  0  0  0  0  0  0
  180.9330  180.3340  139.5570 C   0  0  0  0  0  0  0  0  0  0  0  0
  183.2070  179.9440  138.7400 C   0  0  0  0  0  3  0  0  0  0  0  0
  180.3140  179.1930  141.5430 O   0  0  0  0  0  0  0  0  0  0  0  0
  183.5040  179.0560  139.7030 C   0  0  0  0  0  0  0  0  0  0  0  0
  179.6160  181.0220  139.4290 C   0  0  0  0  0  1  0  0  0  0  0  0
  181.8850  180.5860  138.6590 C   0  0  0  0  0  3  0  0  0  0  0  0
  190.0510  176.7060  143.2900 N   0  0  0  0  0  0  0  0  0  0  0  0
  190.4820  177.0990  144.4460 C   0  0  0  0  0  3  0  0  0  0  0  0
  191.5820  176.3700  145.1280 C   0  0  0  0  0  2  0  0  0  0  0  0
  191.5940  176.7060  146.5070 O   0  0  0  0  0  0  0  0  0  0  0  0
  190.4230  176.9690  147.1630 C   0  0  0  0  0  0  0  0  0  0  0  0
  189.4340  177.1950  147.7210 N   0  0  0  0  0  0  0  0  0  0  0  0
  187.2710  175.6320  136.3670 O   0  0  0  0  0  0  0  0  0  0  0  0
  187.9220  176.6620  136.4760 C   0  0  0  0  0  0  0  0  0  0  0  0
  189.1370  176.8800  135.6290 C   0  0  0  0  0  2  0  0  0  0  0  0
  190.0020  175.6300  135.5950 C   0  0  0  0  0  2  0  0  0  0  0  0
  191.4430  175.9820  135.9120 C   0  0  0  0  0  2  0  0  0  0  0  0
  191.8630  175.4190  137.5480 S   0  0  0  0  0  0  0  0  0  0  0  0
  192.6260  174.1230  137.4710 O   0  0  0  0  0  0  0  0  0  0  0  0
  192.8580  176.6550  138.3590 C   0  0  0  0  0  1  0  0  0  0  0  0
  190.6000  175.2100  138.3340 O   0  0  0  0  0  0  0  0  0  0  0  0
  1 29  1  6  0  0  0
  1  3  1  0  0  0  0
  1  2  1  0  0  0  0
  2  9  1  0  0  0  0
  3 13  1  0  0  0  0
  4  6  1  0  0  0  0
  5 10  2  0  0  0  0
  6 12  2  0  0  0  0
  7 19  1  6  0  0  0
  7  8  1  0  0  0  0
  8  4  1  0  0  0  0
  9  7  1  0  0  0  0
 10 12  1  0  0  0  0
 10 22  1  0  0  0  0
 11  4  2  0  0  0  0
 11  5  1  0  0  0  0
 13 11  1  0  0  0  0
 14 15  1  0  0  0  0
 14 18  2  0  0  0  0
 16 14  1  0  0  0  0
 17 19  2  0  0  0  0
 19 15  1  0  0  0  0
 20 16  1  0  0  0  0
 21 17  1  0  0  0  0
 21 16  2  0  0  0  0
 22 23  2  0  0  0  0
 23 24  1  0  0  0  0
 24 25  1  0  0  0  0
 25 26  1  0  0  0  0
 26 27  3  0  0  0  0
 28 29  2  0  0  0  0
 30 29  1  0  0  0  0
 31 30  1  0  0  0  0
 31 32  1  0  0  0  0
 32 33  1  0  0  0  0
 33 36  2  0  0  0  0
 33 35  1  0  0  0  0
 34 33  2  0  0  0  0
M  END
>  <MODEL>
9

>  <REMARK>
 VINA RESULT:      -7.0      3.315      7.992
  Name = 
  10 active torsions:
  status: ('A' for Active; 'I' for Inactive)
    1  A    between atoms: C_2  and  O_10
    2  A    between atoms: N_3  and  C_26
    3  A    between atoms: C_4  and  C_36
    4  A    between atoms: C_7  and  S_17
    5  A    between atoms: C_7  and  C_25
    6  A    between atoms: O_10  and  C_30
    7  A    between atoms: C_15  and  C_20
    8  A    between atoms: C_25  and  C_29
    9  A    between atoms: C_29  and  C_36
   10  A    between atoms: C_30  and  C_31
                            x       y       z     vdW  Elec       q    Type
                         _______ _______ _______ _____ _____    ______ ____

>  <TORSDO>
F 10

$$$$
