=
 OpenBabel10222417503D

 53 57  0  0  1  0  0  0  0  0999 V2000
  193.0630  172.6030  136.1440 N   0  0  0  0  0  2  0  0  0  0  0  0
  194.4990  172.5790  136.1230 C   0  0  0  0  0  0  0  0  0  0  0  0
  190.5650  176.0410  136.1300 C   0  0  0  0  0  0  0  0  0  0  0  0
  190.9040  173.6970  135.8570 O   0  0  0  0  0  0  0  0  0  0  0  0
  191.9270  176.1150  136.7970 C   0  0  2  0  0  3  0  0  0  0  0  0
  190.1020  174.8350  135.7190 C   0  0  0  0  0  0  0  0  0  0  0  0
  195.2570  173.7910  136.1420 N   0  0  0  0  0  2  0  0  0  0  0  0
  195.0960  171.4660  136.0720 O   0  0  0  0  0  0  0  0  0  0  0  0
  192.7360  174.9060  136.6360 N   0  0  0  0  0  0  0  0  0  0  0  0
  192.2440  173.7750  136.2330 C   0  0  0  0  0  0  0  0  0  0  0  0
  192.8020  177.3320  140.2960 C   0  0  0  0  0  3  0  0  0  0  0  0
  192.8950  177.0680  138.9260 C   0  0  0  0  0  3  0  0  0  0  0  0
  190.6590  176.1410  138.9550 C   0  0  0  0  0  3  0  0  0  0  0  0
  190.5660  176.4020  140.3230 C   0  0  0  0  0  3  0  0  0  0  0  0
  191.8220  176.4720  138.2530 C   0  0  0  0  0  0  0  0  0  0  0  0
  191.6350  177.0130  140.9990 C   0  0  0  0  0  0  0  0  0  0  0  0
  189.6200  177.9650  143.7380 C   0  0  2  0  0  0  0  0  0  0  0  0
  189.8250  175.7220  142.9740 O   0  0  0  0  0  0  0  0  0  0  0  0
  188.4170  178.2470  143.1080 F   0  0  0  0  0  0  0  0  0  0  0  0
  191.7870  178.6470  142.8150 N   0  0  0  0  0  0  0  0  0  0  0  0
  191.5970  177.2350  142.4840 C   0  0  1  0  0  3  0  0  0  0  0  0
  190.5810  179.1280  143.5100 C   0  0  0  0  0  3  0  0  0  0  0  0
  190.2880  176.8500  143.0470 C   0  0  0  0  0  0  0  0  0  0  0  0
  187.7060  177.2190  147.1150 C   0  0  0  0  0  2  0  0  0  0  0  0
  190.4830  177.2530  145.9460 C   0  0  0  0  0  3  0  0  0  0  0  0
  189.4140  177.6500  145.2090 C   0  0  0  0  0  0  0  0  0  0  0  0
  190.4860  176.7980  147.3830 C   0  0  0  0  0  2  0  0  0  0  0  0
  188.0100  177.8390  145.7580 C   0  0  0  0  0  2  0  0  0  0  0  0
  188.5200  177.9060  148.1700 C   0  0  0  0  0  3  0  0  0  0  0  0
  189.7900  177.7200  148.2550 N   0  0  0  0  0  0  0  0  0  0  0  0
  189.8340  177.3680  135.9830 C   0  0  2  0  0  3  0  0  0  0  0  0
  188.5050  177.3030  136.6550 C   0  0  2  0  0  3  0  0  0  0  0  0
  188.6360  177.2560  135.2520 O   0  0  0  0  0  0  0  0  0  0  0  0
  187.8830  178.6540  137.0040 C   0  0  0  0  0  2  0  0  0  0  0  0
  187.7690  177.8770  139.4010 C   0  0  0  0  0  1  0  0  0  0  0  0
  187.0790  178.6730  138.3040 C   0  0  2  0  0  3  0  0  0  0  0  0
  184.5760  179.8080  139.2640 O   0  0  0  0  0  0  0  0  0  0  0  0
  185.7310  178.1670  138.0560 N   0  0  0  0  0  2  0  0  0  0  0  0
  184.5290  178.7440  138.5870 C   0  0  0  0  0  0  0  0  0  0  0  0
  183.2630  178.1520  138.3020 N   0  0  0  0  0  2  0  0  0  0  0  0
  183.0960  176.7410  137.2510 S   0  0  0  0  0  0  0  0  0  0  0  0
  182.9250  175.6180  138.6680 C   0  0  0  0  0  1  0  0  0  0  0  0
  196.6950  173.8260  135.8980 C   0  0  0  0  0  2  0  0  0  0  0  0
  197.6860  175.9690  136.2450 O   0  0  0  0  0  0  0  0  0  0  0  0
  197.9220  175.6410  138.9740 O   0  0  0  0  0  1  0  0  0  0  0  0
  197.3290  174.8740  136.7570 C   0  0  0  0  0  0  0  0  0  0  0  0
  197.4740  174.6550  138.1600 N   0  0  0  0  0  2  0  0  0  0  0  0
  188.7600  174.6450  135.0930 C   0  0  0  0  0  2  0  0  0  0  0  0
  187.8320  173.9220  136.0570 C   0  0  0  0  0  2  0  0  0  0  0  0
  187.4600  172.5540  135.5140 C   0  0  0  0  0  2  0  0  0  0  0  0
  186.0650  172.1600  135.9630 C   0  0  0  0  0  2  0  0  0  0  0  0
  185.0370  172.8240  137.9930 O   0  0  0  0  0  1  0  0  0  0  0  0
  185.4550  173.2990  136.7500 C   0  0  0  0  0  2  0  0  0  0  0  0
  1 10  1  0  0  0  0
  2  7  1  0  0  0  0
  2  1  1  0  0  0  0
  3  5  1  0  0  0  0
  4 10  1  0  0  0  0
  5 15  1  1  0  0  0
  6  4  1  0  0  0  0
  6  3  2  0  0  0  0
  8  2  2  0  0  0  0
  9  5  1  0  0  0  0
 10  9  2  0  0  0  0
 11 16  1  0  0  0  0
 12 11  2  0  0  0  0
 13 14  1  0  0  0  0
 14 16  2  0  0  0  0
 15 12  1  0  0  0  0
 15 13  2  0  0  0  0
 17 19  1  6  0  0  0
 17 26  1  0  0  0  0
 18 23  2  0  0  0  0
 20 22  2  0  0  0  0
 21 16  1  6  0  0  0
 21 20  1  0  0  0  0
 21 23  1  0  0  0  0
 22 17  1  0  0  0  0
 23 17  1  0  0  0  0
 24 29  1  0  0  0  0
 25 27  1  0  0  0  0
 26 28  1  0  0  0  0
 26 25  2  0  0  0  0
 27 30  1  0  0  0  0
 28 24  1  0  0  0  0
 29 30  2  0  0  0  0
 31  3  1  1  0  0  0
 31 32  1  0  0  0  0
 32 34  1  6  0  0  0
 33 31  1  0  0  0  0
 33 32  1  0  0  0  0
 34 36  1  0  0  0  0
 36 35  1  1  0  0  0
 38 36  1  0  0  0  0
 38 39  1  0  0  0  0
 39 37  2  0  0  0  0
 40 39  1  0  0  0  0
 41 40  1  0  0  0  0
 41 42  1  0  0  0  0
 43  7  1  0  0  0  0
 43 46  1  0  0  0  0
 44 46  2  0  0  0  0
 46 47  1  0  0  0  0
 47 45  1  0  0  0  0
 48  6  1  0  0  0  0
 48 49  1  0  0  0  0
 50 51  1  0  0  0  0
 50 49  1  0  0  0  0
 51 53  1  0  0  0  0
 53 52  1  0  0  0  0
M  END
>  <MODEL>
1

>  <REMARK>
 VINA RESULT:      -7.9      0.000      0.000
  Name = 
  15 active torsions:
  status: ('A' for Active; 'I' for Inactive)
    1  A    between atoms: C_2  and  C_7
    2  A    between atoms: C_5  and  C_33
    3  A    between atoms: C_5  and  N_44
    4  A    between atoms: C_8  and  C_39
    5  A    between atoms: C_8  and  C_48
    6  A    between atoms: C_9  and  C_16
    7  A    between atoms: C_9  and  C_52
    8  A    between atoms: C_11  and  C_21
    9  A    between atoms: S_14  and  N_28
   10  A    between atoms: N_18  and  C_52
   11  A    between atoms: C_29  and  C_35
   12  A    between atoms: C_29  and  C_48
   13  A    between atoms: C_37  and  C_46
   14  A    between atoms: C_38  and  C_51
   15  A    between atoms: C_39  and  C_43
                            x       y       z     vdW  Elec       q    Type
                         _______ _______ _______ _____ _____    ______ ____

>  <TORSDO>
F 15

$$$$
=
 OpenBabel10222417503D

 53 57  0  0  1  0  0  0  0  0999 V2000
  192.7260  173.0320  135.7460 N   0  0  0  0  0  2  0  0  0  0  0  0
  194.0900  173.3250  135.4080 C   0  0  0  0  0  0  0  0  0  0  0  0
  189.6280  175.8350  136.5250 C   0  0  0  0  0  0  0  0  0  0  0  0
  190.3780  173.6290  136.0180 O   0  0  0  0  0  0  0  0  0  0  0  0
  191.0600  176.1930  136.8800 C   0  0  2  0  0  3  0  0  0  0  0  0
  189.3450  174.5660  136.1410 C   0  0  0  0  0  0  0  0  0  0  0  0
  194.5610  174.6730  135.3460 N   0  0  0  0  0  2  0  0  0  0  0  0
  194.8800  172.3730  135.1480 O   0  0  0  0  0  0  0  0  0  0  0  0
  192.0450  175.1950  136.4590 N   0  0  0  0  0  0  0  0  0  0  0  0
  191.7220  173.9930  136.0950 C   0  0  0  0  0  0  0  0  0  0  0  0
  190.2810  176.7600  140.5620 C   0  0  0  0  0  3  0  0  0  0  0  0
  190.1250  176.4220  139.2150 C   0  0  0  0  0  3  0  0  0  0  0  0
  192.4670  176.8910  138.8280 C   0  0  0  0  0  3  0  0  0  0  0  0
  192.6240  177.2340  140.1730 C   0  0  0  0  0  3  0  0  0  0  0  0
  191.2200  176.4860  138.3450 C   0  0  0  0  0  0  0  0  0  0  0  0
  191.5310  177.1570  141.0510 C   0  0  0  0  0  0  0  0  0  0  0  0
  189.9530  177.1850  144.2100 C   0  0  2  0  0  0  0  0  0  0  0  0
  191.3970  175.4430  143.4780 O   0  0  0  0  0  0  0  0  0  0  0  0
  188.7570  176.5420  143.9250 F   0  0  0  0  0  0  0  0  0  0  0  0
  190.9450  178.8550  142.7140 N   0  0  0  0  0  0  0  0  0  0  0  0
  191.6460  177.5920  142.4840 C   0  0  1  0  0  3  0  0  0  0  0  0
  189.8760  178.6210  143.6980 C   0  0  0  0  0  3  0  0  0  0  0  0
  191.0310  176.6050  143.3920 C   0  0  0  0  0  0  0  0  0  0  0  0
  189.4570  177.4650  148.1210 C   0  0  0  0  0  2  0  0  0  0  0  0
  191.4090  176.4400  146.0670 C   0  0  0  0  0  3  0  0  0  0  0  0
  190.2860  177.1030  145.6880 C   0  0  0  0  0  0  0  0  0  0  0  0
  191.8740  176.1530  147.4720 C   0  0  0  0  0  2  0  0  0  0  0  0
  189.3390  177.8100  146.6430 C   0  0  0  0  0  2  0  0  0  0  0  0
  190.7850  177.9330  148.6380 C   0  0  0  0  0  3  0  0  0  0  0  0
  191.8750  177.3360  148.3060 N   0  0  0  0  0  0  0  0  0  0  0  0
  188.6210  176.9710  136.6370 C   0  0  2  0  0  3  0  0  0  0  0  0
  187.4760  176.7400  135.7110 C   0  0  2  0  0  3  0  0  0  0  0  0
  188.4760  177.6950  135.4390 O   0  0  0  0  0  0  0  0  0  0  0  0
  186.1990  177.5090  136.0470 C   0  0  0  0  0  2  0  0  0  0  0  0
  184.1570  176.0620  135.7320 C   0  0  0  0  0  1  0  0  0  0  0  0
  185.1150  176.6800  136.7380 C   0  0  2  0  0  3  0  0  0  0  0  0
  186.2750  178.5660  138.6280 O   0  0  0  0  0  0  0  0  0  0  0  0
  184.4000  177.5130  137.7020 N   0  0  0  0  0  2  0  0  0  0  0  0
  185.0240  178.4000  138.6400 C   0  0  0  0  0  0  0  0  0  0  0  0
  184.2290  179.1500  139.5570 N   0  0  0  0  0  2  0  0  0  0  0  0
  182.4630  179.0800  139.5510 S   0  0  0  0  0  0  0  0  0  0  0  0
  182.3360  180.5900  138.5490 C   0  0  0  0  0  1  0  0  0  0  0  0
  195.8640  175.0300  134.7960 C   0  0  0  0  0  2  0  0  0  0  0  0
  197.3260  176.4050  136.0870 O   0  0  0  0  0  0  0  0  0  0  0  0
  196.0700  178.7550  135.3760 O   0  0  0  0  0  1  0  0  0  0  0  0
  196.3060  176.3480  135.3500 C   0  0  0  0  0  0  0  0  0  0  0  0
  195.6070  177.5410  134.9950 N   0  0  0  0  0  2  0  0  0  0  0  0
  187.9660  174.0980  135.8130 C   0  0  0  0  0  2  0  0  0  0  0  0
  187.4910  173.1000  136.8580 C   0  0  0  0  0  2  0  0  0  0  0  0
  186.1420  172.5220  136.4680 C   0  0  0  0  0  2  0  0  0  0  0  0
  185.0920  172.8580  137.5100 C   0  0  0  0  0  2  0  0  0  0  0  0
  182.7620  173.0210  137.1070 O   0  0  0  0  0  1  0  0  0  0  0  0
  183.8150  172.1110  137.1900 C   0  0  0  0  0  2  0  0  0  0  0  0
  1 10  1  0  0  0  0
  2  1  1  0  0  0  0
  3  5  1  0  0  0  0
  4 10  1  0  0  0  0
  4  6  1  0  0  0  0
  5 15  1  1  0  0  0
  6  3  2  0  0  0  0
  7  2  1  0  0  0  0
  8  2  2  0  0  0  0
  9  5  1  0  0  0  0
 10  9  2  0  0  0  0
 11 16  1  0  0  0  0
 12 11  2  0  0  0  0
 13 14  1  0  0  0  0
 14 16  2  0  0  0  0
 15 13  2  0  0  0  0
 15 12  1  0  0  0  0
 17 19  1  6  0  0  0
 17 26  1  0  0  0  0
 20 22  2  0  0  0  0
 21 16  1  6  0  0  0
 21 20  1  0  0  0  0
 21 23  1  0  0  0  0
 22 17  1  0  0  0  0
 23 18  2  0  0  0  0
 23 17  1  0  0  0  0
 24 29  1  0  0  0  0
 25 27  1  0  0  0  0
 26 25  2  0  0  0  0
 26 28  1  0  0  0  0
 27 30  1  0  0  0  0
 28 24  1  0  0  0  0
 30 29  2  0  0  0  0
 31  3  1  6  0  0  0
 32 34  1  1  0  0  0
 32 31  1  0  0  0  0
 33 32  1  0  0  0  0
 33 31  1  0  0  0  0
 34 36  1  0  0  0  0
 36 35  1  6  0  0  0
 36 38  1  0  0  0  0
 37 39  2  0  0  0  0
 38 39  1  0  0  0  0
 39 40  1  0  0  0  0
 41 40  1  0  0  0  0
 42 41  1  0  0  0  0
 43  7  1  0  0  0  0
 43 46  1  0  0  0  0
 46 44  2  0  0  0  0
 47 46  1  0  0  0  0
 47 45  1  0  0  0  0
 48  6  1  0  0  0  0
 48 49  1  0  0  0  0
 50 49  1  0  0  0  0
 50 51  1  0  0  0  0
 52 53  1  0  0  0  0
 53 51  1  0  0  0  0
M  END
>  <MODEL>
2

>  <REMARK>
 VINA RESULT:      -7.2      1.623      2.121
  Name = 
  15 active torsions:
  status: ('A' for Active; 'I' for Inactive)
    1  A    between atoms: C_2  and  C_7
    2  A    between atoms: C_5  and  C_33
    3  A    between atoms: C_5  and  N_44
    4  A    between atoms: C_8  and  C_39
    5  A    between atoms: C_8  and  C_48
    6  A    between atoms: C_9  and  C_16
    7  A    between atoms: C_9  and  C_52
    8  A    between atoms: C_11  and  C_21
    9  A    between atoms: S_14  and  N_28
   10  A    between atoms: N_18  and  C_52
   11  A    between atoms: C_29  and  C_35
   12  A    between atoms: C_29  and  C_48
   13  A    between atoms: C_37  and  C_46
   14  A    between atoms: C_38  and  C_51
   15  A    between atoms: C_39  and  C_43
                            x       y       z     vdW  Elec       q    Type
                         _______ _______ _______ _____ _____    ______ ____

>  <TORSDO>
F 15

$$$$
=
 OpenBabel10222417503D

 53 57  0  0  1  0  0  0  0  0999 V2000
  191.8250  172.8070  135.3320 N   0  0  0  0  0  2  0  0  0  0  0  0
  193.1980  173.1870  135.1530 C   0  0  0  0  0  0  0  0  0  0  0  0
  188.4460  175.3830  135.3800 C   0  0  0  0  0  0  0  0  0  0  0  0
  189.4240  173.2150  135.2180 O   0  0  0  0  0  0  0  0  0  0  0  0
  189.7810  175.9000  135.8860 C   0  0  2  0  0  3  0  0  0  0  0  0
  188.3170  174.0630  135.0990 C   0  0  0  0  0  0  0  0  0  0  0  0
  193.5700  174.5600  135.0120 N   0  0  0  0  0  2  0  0  0  0  0  0
  194.0860  172.2880  135.1060 O   0  0  0  0  0  0  0  0  0  0  0  0
  190.8880  174.9580  135.7120 N   0  0  0  0  0  0  0  0  0  0  0  0
  190.7120  173.7030  135.4380 C   0  0  0  0  0  0  0  0  0  0  0  0
  188.4370  177.1470  139.2210 C   0  0  0  0  0  3  0  0  0  0  0  0
  188.4790  176.6750  137.9070 C   0  0  0  0  0  3  0  0  0  0  0  0
  190.8870  176.4890  138.0520 C   0  0  0  0  0  3  0  0  0  0  0  0
  190.8480  176.9640  139.3650 C   0  0  0  0  0  3  0  0  0  0  0  0
  189.7060  176.3430  137.3200 C   0  0  0  0  0  0  0  0  0  0  0  0
  189.6170  177.2840  139.9610 C   0  0  0  0  0  0  0  0  0  0  0  0
  188.3580  176.8570  143.2330 C   0  0  2  0  0  0  0  0  0  0  0  0
  190.4610  176.0110  142.5130 O   0  0  0  0  0  0  0  0  0  0  0  0
  187.6470  175.6740  143.1010 F   0  0  0  0  0  0  0  0  0  0  0  0
  188.3090  178.6260  141.5360 N   0  0  0  0  0  0  0  0  0  0  0  0
  189.5460  177.8710  141.3420 C   0  0  1  0  0  3  0  0  0  0  0  0
  187.5430  177.9940  142.6230 C   0  0  0  0  0  3  0  0  0  0  0  0
  189.5510  176.8130  142.3710 C   0  0  0  0  0  0  0  0  0  0  0  0
  190.6620  177.5230  146.3750 C   0  0  0  0  0  2  0  0  0  0  0  0
  187.7620  177.4380  145.5630 C   0  0  0  0  0  3  0  0  0  0  0  0
  188.7400  177.1140  144.6790 C   0  0  0  0  0  0  0  0  0  0  0  0
  187.9260  177.8280  147.0100 C   0  0  0  0  0  2  0  0  0  0  0  0
  190.2080  176.9530  145.0380 C   0  0  0  0  0  2  0  0  0  0  0  0
  190.0100  176.7600  147.4900 C   0  0  0  0  0  3  0  0  0  0  0  0
  188.7570  176.8950  147.7420 N   0  0  0  0  0  0  0  0  0  0  0  0
  187.3510  176.4300  135.2330 C   0  0  2  0  0  3  0  0  0  0  0  0
  186.1820  176.0800  136.0900 C   0  0  2  0  0  3  0  0  0  0  0  0
  186.1620  175.9080  134.6910 O   0  0  0  0  0  0  0  0  0  0  0  0
  185.2400  177.2390  136.4140 C   0  0  0  0  0  2  0  0  0  0  0  0
  183.7920  175.8670  137.9570 C   0  0  0  0  0  1  0  0  0  0  0  0
  184.5750  177.1590  137.7880 C   0  0  2  0  0  3  0  0  0  0  0  0
  185.0830  179.4380  139.5270 O   0  0  0  0  0  0  0  0  0  0  0  0
  183.7150  178.3230  137.9860 N   0  0  0  0  0  2  0  0  0  0  0  0
  183.9950  179.4050  138.8870 C   0  0  0  0  0  0  0  0  0  0  0  0
  183.0710  180.4830  139.0230 N   0  0  0  0  0  2  0  0  0  0  0  0
  181.5900  180.5830  138.0650 S   0  0  0  0  0  0  0  0  0  0  0  0
  180.5670  180.8370  139.5440 C   0  0  0  0  0  1  0  0  0  0  0  0
  194.9090  174.9770  134.6090 C   0  0  0  0  0  2  0  0  0  0  0  0
  195.2380  175.8990  136.7860 O   0  0  0  0  0  0  0  0  0  0  0  0
  197.7900  174.8850  137.0480 O   0  0  0  0  0  1  0  0  0  0  0  0
  195.7390  175.2600  135.8220 C   0  0  0  0  0  0  0  0  0  0  0  0
  197.0710  174.7560  135.9080 N   0  0  0  0  0  2  0  0  0  0  0  0
  187.0390  173.4450  134.6390 C   0  0  0  0  0  2  0  0  0  0  0  0
  186.6050  172.3580  135.6100 C   0  0  0  0  0  2  0  0  0  0  0  0
  185.0980  172.1760  135.5660 C   0  0  0  0  0  2  0  0  0  0  0  0
  184.4940  172.3780  136.9430 C   0  0  0  0  0  2  0  0  0  0  0  0
  182.6660  171.3340  135.8500 O   0  0  0  0  0  1  0  0  0  0  0  0
  183.2830  171.4820  137.0920 C   0  0  0  0  0  2  0  0  0  0  0  0
  1 10  1  0  0  0  0
  2  1  1  0  0  0  0
  3  5  1  0  0  0  0
  4 10  1  0  0  0  0
  5 15  1  1  0  0  0
  6  4  1  0  0  0  0
  6  3  2  0  0  0  0
  7  2  1  0  0  0  0
  8  2  2  0  0  0  0
  9  5  1  0  0  0  0
 10  9  2  0  0  0  0
 11 16  1  0  0  0  0
 12 11  2  0  0  0  0
 13 14  1  0  0  0  0
 14 16  2  0  0  0  0
 15 12  1  0  0  0  0
 15 13  2  0  0  0  0
 17 19  1  6  0  0  0
 17 26  1  0  0  0  0
 20 22  2  0  0  0  0
 21 16  1  6  0  0  0
 21 20  1  0  0  0  0
 21 23  1  0  0  0  0
 22 17  1  0  0  0  0
 23 18  2  0  0  0  0
 23 17  1  0  0  0  0
 24 29  1  0  0  0  0
 25 27  1  0  0  0  0
 26 28  1  0  0  0  0
 26 25  2  0  0  0  0
 27 30  1  0  0  0  0
 28 24  1  0  0  0  0
 29 30  2  0  0  0  0
 31  3  1  1  0  0  0
 31 32  1  0  0  0  0
 32 34  1  6  0  0  0
 33 31  1  0  0  0  0
 33 32  1  0  0  0  0
 34 36  1  0  0  0  0
 36 35  1  6  0  0  0
 36 38  1  0  0  0  0
 38 39  1  0  0  0  0
 39 40  1  0  0  0  0
 39 37  2  0  0  0  0
 41 40  1  0  0  0  0
 41 42  1  0  0  0  0
 43  7  1  0  0  0  0
 43 46  1  0  0  0  0
 46 47  1  0  0  0  0
 46 44  2  0  0  0  0
 47 45  1  0  0  0  0
 48  6  1  0  0  0  0
 48 49  1  0  0  0  0
 50 49  1  0  0  0  0
 50 51  1  0  0  0  0
 51 53  1  0  0  0  0
 52 53  1  0  0  0  0
M  END
>  <MODEL>
3

>  <REMARK>
 VINA RESULT:      -7.0      1.924      2.615
  Name = 
  15 active torsions:
  status: ('A' for Active; 'I' for Inactive)
    1  A    between atoms: C_2  and  C_7
    2  A    between atoms: C_5  and  C_33
    3  A    between atoms: C_5  and  N_44
    4  A    between atoms: C_8  and  C_39
    5  A    between atoms: C_8  and  C_48
    6  A    between atoms: C_9  and  C_16
    7  A    between atoms: C_9  and  C_52
    8  A    between atoms: C_11  and  C_21
    9  A    between atoms: S_14  and  N_28
   10  A    between atoms: N_18  and  C_52
   11  A    between atoms: C_29  and  C_35
   12  A    between atoms: C_29  and  C_48
   13  A    between atoms: C_37  and  C_46
   14  A    between atoms: C_38  and  C_51
   15  A    between atoms: C_39  and  C_43
                            x       y       z     vdW  Elec       q    Type
                         _______ _______ _______ _____ _____    ______ ____

>  <TORSDO>
F 15

$$$$
=
 OpenBabel10222417503D

 53 57  0  0  1  0  0  0  0  0999 V2000
  181.1020  177.6840  138.4160 N   0  0  0  0  0  2  0  0  0  0  0  0
  180.5660  178.2590  137.2140 C   0  0  0  0  0  0  0  0  0  0  0  0
  184.7400  178.7310  140.3470 C   0  0  0  0  0  0  0  0  0  0  0  0
  182.6050  177.6690  140.3350 O   0  0  0  0  0  0  0  0  0  0  0  0
  184.6390  178.8530  138.8370 C   0  0  2  0  0  3  0  0  0  0  0  0
  183.7370  178.1190  141.0240 C   0  0  0  0  0  0  0  0  0  0  0  0
  181.2820  179.2660  136.4960 N   0  0  0  0  0  2  0  0  0  0  0  0
  179.4360  177.8740  136.7970 O   0  0  0  0  0  0  0  0  0  0  0  0
  183.3040  178.5730  138.3060 N   0  0  0  0  0  0  0  0  0  0  0  0
  182.3760  177.9880  138.9980 C   0  0  0  0  0  0  0  0  0  0  0  0
  187.7860  177.7570  136.9980 C   0  0  0  0  0  3  0  0  0  0  0  0
  186.8770  178.5470  137.7070 C   0  0  0  0  0  3  0  0  0  0  0  0
  185.3570  176.6690  137.8470 C   0  0  0  0  0  3  0  0  0  0  0  0
  186.2620  175.8790  137.1360 C   0  0  0  0  0  3  0  0  0  0  0  0
  185.6590  178.0030  138.1340 C   0  0  0  0  0  0  0  0  0  0  0  0
  187.4900  176.4180  136.7190 C   0  0  0  0  0  0  0  0  0  0  0  0
  190.8930  175.7270  136.0790 C   0  0  2  0  0  0  0  0  0  0  0  0
  189.5890  174.5420  137.6770 O   0  0  0  0  0  0  0  0  0  0  0  0
  191.5200  176.5800  136.9750 F   0  0  0  0  0  0  0  0  0  0  0  0
  188.9460  176.4000  134.7510 N   0  0  0  0  0  0  0  0  0  0  0  0
  188.4520  175.6200  135.8850 C   0  0  1  0  0  3  0  0  0  0  0  0
  190.4070  176.5370  134.8820 C   0  0  0  0  0  3  0  0  0  0  0  0
  189.6390  175.2290  136.6680 C   0  0  0  0  0  0  0  0  0  0  0  0
  191.9690  172.1950  134.6660 C   0  0  0  0  0  2  0  0  0  0  0  0
  193.1440  174.7880  135.6540 C   0  0  0  0  0  3  0  0  0  0  0  0
  191.8030  174.5770  135.6840 C   0  0  0  0  0  0  0  0  0  0  0  0
  194.2130  173.8270  135.1980 C   0  0  0  0  0  2  0  0  0  0  0  0
  191.1320  173.2480  135.3800 C   0  0  0  0  0  2  0  0  0  0  0  0
  193.0850  171.7520  135.5660 C   0  0  0  0  0  3  0  0  0  0  0  0
  194.0820  172.5240  135.8150 N   0  0  0  0  0  0  0  0  0  0  0  0
  185.9940  179.3260  140.9710 C   0  0  2  0  0  3  0  0  0  0  0  0
  187.0860  178.3130  141.0040 C   0  0  2  0  0  3  0  0  0  0  0  0
  186.3730  178.6820  142.1630 O   0  0  0  0  0  0  0  0  0  0  0  0
  188.4990  178.8800  141.1460 C   0  0  0  0  0  2  0  0  0  0  0  0
  189.3180  176.5570  140.6010 C   0  0  0  0  0  1  0  0  0  0  0  0
  189.5880  177.8340  141.3820 C   0  0  2  0  0  3  0  0  0  0  0  0
  191.9360  176.8510  142.7950 O   0  0  0  0  0  0  0  0  0  0  0  0
  189.7040  177.5590  142.8130 N   0  0  0  0  0  2  0  0  0  0  0  0
  190.8760  177.0380  143.4540 C   0  0  0  0  0  0  0  0  0  0  0  0
  190.8720  176.7820  144.8570 N   0  0  0  0  0  2  0  0  0  0  0  0
  189.4760  177.1430  145.8790 S   0  0  0  0  0  0  0  0  0  0  0  0
  190.4250  176.8530  147.4000 C   0  0  0  0  0  1  0  0  0  0  0  0
  180.6870  180.0320  135.4070 C   0  0  0  0  0  2  0  0  0  0  0  0
  180.8770  182.4090  135.2960 O   0  0  0  0  0  0  0  0  0  0  0  0
  179.0220  182.8510  137.2890 O   0  0  0  0  0  1  0  0  0  0  0  0
  180.3630  181.4150  135.8770 C   0  0  0  0  0  0  0  0  0  0  0  0
  179.4300  181.6070  136.9390 N   0  0  0  0  0  2  0  0  0  0  0  0
  183.7570  177.9070  142.5020 C   0  0  0  0  0  2  0  0  0  0  0  0
  182.9430  178.9880  143.1960 C   0  0  0  0  0  2  0  0  0  0  0  0
  183.2440  179.0080  144.6840 C   0  0  0  0  0  2  0  0  0  0  0  0
  184.7220  179.2440  144.9290 C   0  0  0  0  0  2  0  0  0  0  0  0
  185.4520  179.4040  147.1790 O   0  0  0  0  0  1  0  0  0  0  0  0
  185.1480  178.4900  146.1710 C   0  0  0  0  0  2  0  0  0  0  0  0
  1 10  1  0  0  0  0
  2  1  1  0  0  0  0
  3  6  2  0  0  0  0
  4  6  1  0  0  0  0
  5 15  1  6  0  0  0
  5  3  1  0  0  0  0
  6 48  1  0  0  0  0
  7  2  1  0  0  0  0
  8  2  2  0  0  0  0
  9  5  1  0  0  0  0
  9 10  2  0  0  0  0
 10  4  1  0  0  0  0
 11 12  1  0  0  0  0
 12 15  2  0  0  0  0
 13 15  1  0  0  0  0
 14 13  2  0  0  0  0
 16 11  2  0  0  0  0
 16 14  1  0  0  0  0
 17 23  1  0  0  0  0
 17 19  1  1  0  0  0
 20 22  2  0  0  0  0
 20 21  1  0  0  0  0
 21 23  1  0  0  0  0
 21 16  1  1  0  0  0
 22 17  1  0  0  0  0
 23 18  2  0  0  0  0
 24 28  1  0  0  0  0
 24 29  1  0  0  0  0
 25 26  2  0  0  0  0
 26 17  1  0  0  0  0
 27 25  1  0  0  0  0
 27 30  1  0  0  0  0
 28 26  1  0  0  0  0
 29 30  2  0  0  0  0
 31  3  1  6  0  0  0
 31 32  1  0  0  0  0
 31 33  1  0  0  0  0
 32 34  1  1  0  0  0
 32 33  1  0  0  0  0
 34 36  1  0  0  0  0
 36 35  1  6  0  0  0
 36 38  1  0  0  0  0
 37 39  2  0  0  0  0
 38 39  1  0  0  0  0
 39 40  1  0  0  0  0
 40 41  1  0  0  0  0
 41 42  1  0  0  0  0
 43 46  1  0  0  0  0
 43  7  1  0  0  0  0
 44 46  2  0  0  0  0
 46 47  1  0  0  0  0
 47 45  1  0  0  0  0
 48 49  1  0  0  0  0
 49 50  1  0  0  0  0
 50 51  1  0  0  0  0
 51 53  1  0  0  0  0
 53 52  1  0  0  0  0
M  END
>  <MODEL>
4

>  <REMARK>
 VINA RESULT:      -7.0      3.584     10.953
  Name = 
  15 active torsions:
  status: ('A' for Active; 'I' for Inactive)
    1  A    between atoms: C_2  and  C_7
    2  A    between atoms: C_5  and  C_33
    3  A    between atoms: C_5  and  N_44
    4  A    between atoms: C_8  and  C_39
    5  A    between atoms: C_8  and  C_48
    6  A    between atoms: C_9  and  C_16
    7  A    between atoms: C_9  and  C_52
    8  A    between atoms: C_11  and  C_21
    9  A    between atoms: S_14  and  N_28
   10  A    between atoms: N_18  and  C_52
   11  A    between atoms: C_29  and  C_35
   12  A    between atoms: C_29  and  C_48
   13  A    between atoms: C_37  and  C_46
   14  A    between atoms: C_38  and  C_51
   15  A    between atoms: C_39  and  C_43
                            x       y       z     vdW  Elec       q    Type
                         _______ _______ _______ _____ _____    ______ ____

>  <TORSDO>
F 15

$$$$
=
 OpenBabel10222417503D

 53 57  0  0  1  0  0  0  0  0999 V2000
  193.2830  177.2820  138.3480 N   0  0  0  0  0  2  0  0  0  0  0  0
  193.6120  176.4130  137.2530 C   0  0  0  0  0  0  0  0  0  0  0  0
  190.2070  176.7140  141.2250 C   0  0  0  0  0  0  0  0  0  0  0  0
  192.2000  177.7850  140.4730 O   0  0  0  0  0  0  0  0  0  0  0  0
  190.0120  176.1850  139.8150 C   0  0  2  0  0  3  0  0  0  0  0  0
  191.2710  177.5130  141.4840 C   0  0  0  0  0  0  0  0  0  0  0  0
  192.8530  175.2290  136.9970 N   0  0  0  0  0  2  0  0  0  0  0  0
  194.5990  176.6970  136.5160 O   0  0  0  0  0  0  0  0  0  0  0  0
  191.1850  176.3410  138.9530 N   0  0  0  0  0  0  0  0  0  0  0  0
  192.1820  177.1170  139.2500 C   0  0  0  0  0  0  0  0  0  0  0  0
  187.0540  178.4570  139.0560 C   0  0  0  0  0  3  0  0  0  0  0  0
  188.2160  177.9520  139.6480 C   0  0  0  0  0  3  0  0  0  0  0  0
  188.2260  176.1230  138.0630 C   0  0  0  0  0  3  0  0  0  0  0  0
  187.0640  176.6250  137.4720 C   0  0  0  0  0  3  0  0  0  0  0  0
  188.8040  176.7830  139.1510 C   0  0  0  0  0  0  0  0  0  0  0  0
  186.4790  177.8040  137.9600 C   0  0  0  0  0  0  0  0  0  0  0  0
  183.0270  178.2490  138.5560 C   0  0  2  0  0  0  0  0  0  0  0  0
  184.6820  179.8480  139.1590 O   0  0  0  0  0  0  0  0  0  0  0  0
  182.8890  177.6710  139.8100 F   0  0  0  0  0  0  0  0  0  0  0  0
  184.4020  177.2550  136.7860 N   0  0  0  0  0  0  0  0  0  0  0  0
  185.1870  178.3270  137.3980 C   0  0  1  0  0  3  0  0  0  0  0  0
  183.1250  177.1430  137.5100 C   0  0  0  0  0  3  0  0  0  0  0  0
  184.3410  178.9060  138.4600 C   0  0  0  0  0  0  0  0  0  0  0  0
  180.3450  181.0740  139.2260 C   0  0  0  0  0  2  0  0  0  0  0  0
  181.5560  179.4680  136.9830 C   0  0  0  0  0  3  0  0  0  0  0  0
  181.9050  179.2310  138.2740 C   0  0  0  0  0  0  0  0  0  0  0  0
  180.5490  180.4680  136.4740 C   0  0  0  0  0  2  0  0  0  0  0  0
  181.2240  179.8570  139.4800 C   0  0  0  0  0  2  0  0  0  0  0  0
  179.1560  180.6680  138.4070 C   0  0  0  0  0  3  0  0  0  0  0  0
  179.2790  180.3700  137.1620 N   0  0  0  0  0  0  0  0  0  0  0  0
  189.1570  176.2810  142.2380 C   0  0  2  0  0  3  0  0  0  0  0  0
  188.2970  177.4370  142.6180 C   0  0  2  0  0  3  0  0  0  0  0  0
  189.2920  176.9310  143.4790 O   0  0  0  0  0  0  0  0  0  0  0  0
  186.9450  177.0720  143.2290 C   0  0  0  0  0  2  0  0  0  0  0  0
  186.6690  177.5050  145.6980 C   0  0  0  0  0  1  0  0  0  0  0  0
  186.4390  178.0440  144.2950 C   0  0  2  0  0  3  0  0  0  0  0  0
  185.3060  179.7260  142.2070 O   0  0  0  0  0  0  0  0  0  0  0  0
  185.0250  178.3310  144.0670 N   0  0  0  0  0  2  0  0  0  0  0  0
  184.5200  179.2010  143.0440 C   0  0  0  0  0  0  0  0  0  0  0  0
  183.1180  179.4320  142.9270 N   0  0  0  0  0  2  0  0  0  0  0  0
  181.9380  178.6300  143.9700 S   0  0  0  0  0  0  0  0  0  0  0  0
  180.5430  179.4380  143.1340 C   0  0  0  0  0  1  0  0  0  0  0  0
  193.2780  174.2090  136.0450 C   0  0  0  0  0  2  0  0  0  0  0  0
  195.0340  172.5950  135.9640 O   0  0  0  0  0  0  0  0  0  0  0  0
  195.4260  172.5880  138.6940 O   0  0  0  0  0  1  0  0  0  0  0  0
  194.2840  173.3060  136.6860 C   0  0  0  0  0  0  0  0  0  0  0  0
  194.4330  173.2960  138.1050 N   0  0  0  0  0  2  0  0  0  0  0  0
  191.5310  178.1210  142.8220 C   0  0  0  0  0  2  0  0  0  0  0  0
  192.0710  177.0690  143.7790 C   0  0  0  0  0  2  0  0  0  0  0  0
  191.6750  177.3960  145.2080 C   0  0  0  0  0  2  0  0  0  0  0  0
  191.6790  176.1440  146.0650 C   0  0  0  0  0  2  0  0  0  0  0  0
  189.6000  176.6130  147.1040 O   0  0  0  0  0  1  0  0  0  0  0  0
  190.9570  176.4270  147.3640 C   0  0  0  0  0  2  0  0  0  0  0  0
  1 10  1  0  0  0  0
  2  1  1  0  0  0  0
  3  6  2  0  0  0  0
  4  6  1  0  0  0  0
  5 15  1  6  0  0  0
  5  3  1  0  0  0  0
  6 48  1  0  0  0  0
  7  2  1  0  0  0  0
  8  2  2  0  0  0  0
  9 10  2  0  0  0  0
  9  5  1  0  0  0  0
 10  4  1  0  0  0  0
 11 12  1  0  0  0  0
 13 15  1  0  0  0  0
 14 16  1  0  0  0  0
 14 13  2  0  0  0  0
 15 12  2  0  0  0  0
 16 11  2  0  0  0  0
 17 19  1  1  0  0  0
 20 21  1  0  0  0  0
 20 22  2  0  0  0  0
 21 16  1  1  0  0  0
 21 23  1  0  0  0  0
 22 17  1  0  0  0  0
 23 17  1  0  0  0  0
 23 18  2  0  0  0  0
 24 28  1  0  0  0  0
 25 26  2  0  0  0  0
 26 17  1  0  0  0  0
 26 28  1  0  0  0  0
 27 25  1  0  0  0  0
 27 30  1  0  0  0  0
 29 24  1  0  0  0  0
 30 29  2  0  0  0  0
 31  3  1  6  0  0  0
 31 32  1  0  0  0  0
 31 33  1  0  0  0  0
 32 34  1  1  0  0  0
 32 33  1  0  0  0  0
 34 36  1  0  0  0  0
 36 35  1  1  0  0  0
 37 39  2  0  0  0  0
 38 36  1  0  0  0  0
 39 38  1  0  0  0  0
 40 39  1  0  0  0  0
 40 41  1  0  0  0  0
 42 41  1  0  0  0  0
 43 46  1  0  0  0  0
 43  7  1  0  0  0  0
 44 46  2  0  0  0  0
 46 47  1  0  0  0  0
 47 45  1  0  0  0  0
 48 49  1  0  0  0  0
 49 50  1  0  0  0  0
 50 51  1  0  0  0  0
 51 53  1  0  0  0  0
 52 53  1  0  0  0  0
M  END
>  <MODEL>
5

>  <REMARK>
 VINA RESULT:      -6.6      3.062      7.820
  Name = 
  15 active torsions:
  status: ('A' for Active; 'I' for Inactive)
    1  A    between atoms: C_2  and  C_7
    2  A    between atoms: C_5  and  C_33
    3  A    between atoms: C_5  and  N_44
    4  A    between atoms: C_8  and  C_39
    5  A    between atoms: C_8  and  C_48
    6  A    between atoms: C_9  and  C_16
    7  A    between atoms: C_9  and  C_52
    8  A    between atoms: C_11  and  C_21
    9  A    between atoms: S_14  and  N_28
   10  A    between atoms: N_18  and  C_52
   11  A    between atoms: C_29  and  C_35
   12  A    between atoms: C_29  and  C_48
   13  A    between atoms: C_37  and  C_46
   14  A    between atoms: C_38  and  C_51
   15  A    between atoms: C_39  and  C_43
                            x       y       z     vdW  Elec       q    Type
                         _______ _______ _______ _____ _____    ______ ____

>  <TORSDO>
F 15

$$$$
=
 OpenBabel10222417503D

 53 57  0  0  1  0  0  0  0  0999 V2000
  192.8140  172.2860  135.9770 N   0  0  0  0  0  2  0  0  0  0  0  0
  194.2190  172.5810  135.9360 C   0  0  0  0  0  0  0  0  0  0  0  0
  189.6110  175.0540  135.6080 C   0  0  0  0  0  0  0  0  0  0  0  0
  190.4680  172.8290  135.5990 O   0  0  0  0  0  0  0  0  0  0  0  0
  190.9140  175.5070  136.2410 C   0  0  2  0  0  3  0  0  0  0  0  0
  189.4330  173.7360  135.3440 C   0  0  0  0  0  0  0  0  0  0  0  0
  194.6870  173.9250  135.8050 N   0  0  0  0  0  2  0  0  0  0  0  0
  195.0510  171.6310  136.0040 O   0  0  0  0  0  0  0  0  0  0  0  0
  191.9750  174.4980  136.2070 N   0  0  0  0  0  0  0  0  0  0  0  0
  191.7530  173.2470  135.9430 C   0  0  0  0  0  0  0  0  0  0  0  0
  189.2890  176.8570  139.4070 C   0  0  0  0  0  3  0  0  0  0  0  0
  189.4440  176.3430  138.1160 C   0  0  0  0  0  3  0  0  0  0  0  0
  191.8310  176.1640  138.4750 C   0  0  0  0  0  3  0  0  0  0  0  0
  191.6790  176.6800  139.7640 C   0  0  0  0  0  3  0  0  0  0  0  0
  190.7170  175.9950  137.6480 C   0  0  0  0  0  0  0  0  0  0  0  0
  190.4020  177.0170  140.2410 C   0  0  0  0  0  0  0  0  0  0  0  0
  188.5530  176.9310  143.2480 C   0  0  2  0  0  0  0  0  0  0  0  0
  190.5460  175.6830  142.8950 O   0  0  0  0  0  0  0  0  0  0  0  0
  187.6620  175.9000  142.9930 F   0  0  0  0  0  0  0  0  0  0  0  0
  189.1270  178.6280  141.5740 N   0  0  0  0  0  0  0  0  0  0  0  0
  190.2130  177.6480  141.5920 C   0  0  1  0  0  3  0  0  0  0  0  0
  188.0830  178.1830  142.5130 C   0  0  0  0  0  3  0  0  0  0  0  0
  189.8430  176.6390  142.6030 C   0  0  0  0  0  0  0  0  0  0  0  0
  190.3920  177.5330  146.6950 C   0  0  0  0  0  2  0  0  0  0  0  0
  187.6330  177.4490  145.4870 C   0  0  0  0  0  3  0  0  0  0  0  0
  188.7270  177.1540  144.7400 C   0  0  0  0  0  0  0  0  0  0  0  0
  187.5910  177.8030  146.9520 C   0  0  0  0  0  2  0  0  0  0  0  0
  190.1330  176.9940  145.2950 C   0  0  0  0  0  2  0  0  0  0  0  0
  189.6000  176.7370  147.6900 C   0  0  0  0  0  3  0  0  0  0  0  0
  188.3220  176.8570  147.7690 N   0  0  0  0  0  0  0  0  0  0  0  0
  188.6030  176.1580  135.3220 C   0  0  2  0  0  3  0  0  0  0  0  0
  187.3020  175.8540  135.9830 C   0  0  2  0  0  3  0  0  0  0  0  0
  187.4860  175.7050  134.5940 O   0  0  0  0  0  0  0  0  0  0  0  0
  186.3790  177.0550  136.1890 C   0  0  0  0  0  2  0  0  0  0  0  0
  184.3310  177.2960  134.7360 C   0  0  0  0  0  1  0  0  0  0  0  0
  184.8880  176.7490  136.0410 C   0  0  2  0  0  3  0  0  0  0  0  0
  182.1310  176.1890  136.7850 O   0  0  0  0  0  0  0  0  0  0  0  0
  184.1600  177.2860  137.1880 N   0  0  0  0  0  2  0  0  0  0  0  0
  182.7850  177.0070  137.4890 C   0  0  0  0  0  0  0  0  0  0  0  0
  182.1640  177.6060  138.6240 N   0  0  0  0  0  2  0  0  0  0  0  0
  183.0460  178.6560  139.7400 S   0  0  0  0  0  0  0  0  0  0  0  0
  181.8510  178.3590  141.0750 C   0  0  0  0  0  1  0  0  0  0  0  0
  196.0830  174.2530  135.5380 C   0  0  0  0  0  2  0  0  0  0  0  0
  197.8340  175.3790  136.7030 O   0  0  0  0  0  0  0  0  0  0  0  0
  196.5610  175.2550  139.1470 O   0  0  0  0  0  1  0  0  0  0  0  0
  196.7270  174.7830  136.7800 C   0  0  0  0  0  0  0  0  0  0  0  0
  196.0590  174.6650  138.0350 N   0  0  0  0  0  2  0  0  0  0  0  0
  188.1750  173.1800  134.7650 C   0  0  0  0  0  2  0  0  0  0  0  0
  187.7810  171.9060  135.4960 C   0  0  0  0  0  2  0  0  0  0  0  0
  186.7130  172.1970  136.5350 C   0  0  0  0  0  2  0  0  0  0  0  0
  185.4640  172.7530  135.8790 C   0  0  0  0  0  2  0  0  0  0  0  0
  183.3370  172.4450  136.8800 O   0  0  0  0  0  1  0  0  0  0  0  0
  184.4990  173.2130  136.9500 C   0  0  0  0  0  2  0  0  0  0  0  0
  2  1  1  0  0  0  0
  2  8  2  0  0  0  0
  3  5  1  0  0  0  0
  4 10  1  0  0  0  0
  5 15  1  1  0  0  0
  6  4  1  0  0  0  0
  6  3  2  0  0  0  0
  7  2  1  0  0  0  0
  9  5  1  0  0  0  0
 10  1  1  0  0  0  0
 10  9  2  0  0  0  0
 11 16  1  0  0  0  0
 12 11  2  0  0  0  0
 13 14  1  0  0  0  0
 14 16  2  0  0  0  0
 15 12  1  0  0  0  0
 15 13  2  0  0  0  0
 17 19  1  6  0  0  0
 17 26  1  0  0  0  0
 20 21  1  0  0  0  0
 20 22  2  0  0  0  0
 21 16  1  6  0  0  0
 21 23  1  0  0  0  0
 22 17  1  0  0  0  0
 23 18  2  0  0  0  0
 23 17  1  0  0  0  0
 24 29  1  0  0  0  0
 25 27  1  0  0  0  0
 26 28  1  0  0  0  0
 26 25  2  0  0  0  0
 27 30  1  0  0  0  0
 28 24  1  0  0  0  0
 29 30  2  0  0  0  0
 31  3  1  1  0  0  0
 31 32  1  0  0  0  0
 32 34  1  6  0  0  0
 33 31  1  0  0  0  0
 33 32  1  0  0  0  0
 36 35  1  6  0  0  0
 36 34  1  0  0  0  0
 36 38  1  0  0  0  0
 37 39  2  0  0  0  0
 38 39  1  0  0  0  0
 39 40  1  0  0  0  0
 40 41  1  0  0  0  0
 41 42  1  0  0  0  0
 43  7  1  0  0  0  0
 43 46  1  0  0  0  0
 44 46  2  0  0  0  0
 46 47  1  0  0  0  0
 47 45  1  0  0  0  0
 48  6  1  0  0  0  0
 48 49  1  0  0  0  0
 49 50  1  0  0  0  0
 51 50  1  0  0  0  0
 51 53  1  0  0  0  0
 52 53  1  0  0  0  0
M  END
>  <MODEL>
6

>  <REMARK>
 VINA RESULT:      -6.6      1.713      2.201
  Name = 
  15 active torsions:
  status: ('A' for Active; 'I' for Inactive)
    1  A    between atoms: C_2  and  C_7
    2  A    between atoms: C_5  and  C_33
    3  A    between atoms: C_5  and  N_44
    4  A    between atoms: C_8  and  C_39
    5  A    between atoms: C_8  and  C_48
    6  A    between atoms: C_9  and  C_16
    7  A    between atoms: C_9  and  C_52
    8  A    between atoms: C_11  and  C_21
    9  A    between atoms: S_14  and  N_28
   10  A    between atoms: N_18  and  C_52
   11  A    between atoms: C_29  and  C_35
   12  A    between atoms: C_29  and  C_48
   13  A    between atoms: C_37  and  C_46
   14  A    between atoms: C_38  and  C_51
   15  A    between atoms: C_39  and  C_43
                            x       y       z     vdW  Elec       q    Type
                         _______ _______ _______ _____ _____    ______ ____

>  <TORSDO>
F 15

$$$$
=
 OpenBabel10222417503D

 53 57  0  0  1  0  0  0  0  0999 V2000
  193.2950  177.2500  138.5000 N   0  0  0  0  0  2  0  0  0  0  0  0
  193.5890  176.3650  137.4070 C   0  0  0  0  0  0  0  0  0  0  0  0
  190.2330  176.7850  141.4110 C   0  0  0  0  0  0  0  0  0  0  0  0
  192.2480  177.7960  140.6330 O   0  0  0  0  0  0  0  0  0  0  0  0
  190.0100  176.2520  140.0070 C   0  0  2  0  0  3  0  0  0  0  0  0
  191.3220  177.5560  141.6540 C   0  0  0  0  0  0  0  0  0  0  0  0
  192.7950  175.2010  137.1670 N   0  0  0  0  0  2  0  0  0  0  0  0
  194.5760  176.6170  136.6580 O   0  0  0  0  0  0  0  0  0  0  0  0
  191.1780  176.3710  139.1320 N   0  0  0  0  0  0  0  0  0  0  0  0
  192.1990  177.1210  139.4140 C   0  0  0  0  0  0  0  0  0  0  0  0
  187.1350  178.6240  139.2370 C   0  0  0  0  0  3  0  0  0  0  0  0
  188.2880  178.0900  139.8190 C   0  0  0  0  0  3  0  0  0  0  0  0
  188.1780  176.2070  138.3020 C   0  0  0  0  0  3  0  0  0  0  0  0
  187.0240  176.7380  137.7220 C   0  0  0  0  0  3  0  0  0  0  0  0
  188.8130  176.8790  139.3510 C   0  0  0  0  0  0  0  0  0  0  0  0
  186.5040  177.9590  138.1800 C   0  0  0  0  0  0  0  0  0  0  0  0
  183.0280  178.2940  138.7040 C   0  0  2  0  0  0  0  0  0  0  0  0
  184.6350  179.8470  139.5180 O   0  0  0  0  0  0  0  0  0  0  0  0
  182.8600  177.5910  139.8880 F   0  0  0  0  0  0  0  0  0  0  0  0
  184.4740  177.5020  136.8900 N   0  0  0  0  0  0  0  0  0  0  0  0
  185.2210  178.5170  137.6320 C   0  0  1  0  0  3  0  0  0  0  0  0
  183.1760  177.3000  137.5560 C   0  0  0  0  0  3  0  0  0  0  0  0
  184.3320  178.9750  138.7170 C   0  0  0  0  0  0  0  0  0  0  0  0
  180.2680  180.3710  136.7820 C   0  0  0  0  0  2  0  0  0  0  0  0
  181.2600  179.7950  139.5680 C   0  0  0  0  0  3  0  0  0  0  0  0
  181.8980  179.2840  138.4850 C   0  0  0  0  0  0  0  0  0  0  0  0
  180.0580  180.7060  139.5790 C   0  0  0  0  0  2  0  0  0  0  0  0
  181.5880  179.6590  137.0450 C   0  0  0  0  0  2  0  0  0  0  0  0
  180.2940  181.7240  137.4290 C   0  0  0  0  0  3  0  0  0  0  0  0
  180.2250  181.8490  138.7070 N   0  0  0  0  0  0  0  0  0  0  0  0
  189.1830  176.3870  142.4380 C   0  0  2  0  0  3  0  0  0  0  0  0
  188.0900  177.3990  142.4770 C   0  0  2  0  0  3  0  0  0  0  0  0
  189.0660  177.3140  143.4900 O   0  0  0  0  0  0  0  0  0  0  0  0
  186.7720  176.9130  143.0810 C   0  0  0  0  0  2  0  0  0  0  0  0
  185.8930  179.2520  142.7380 C   0  0  0  0  0  1  0  0  0  0  0  0
  185.8720  178.0200  143.6290 C   0  0  2  0  0  3  0  0  0  0  0  0
  184.1250  178.6410  145.8730 O   0  0  0  0  0  0  0  0  0  0  0  0
  186.2760  178.3520  144.9930 N   0  0  0  0  0  2  0  0  0  0  0  0
  185.3730  178.6890  146.0560 C   0  0  0  0  0  0  0  0  0  0  0  0
  185.8770  179.0220  147.3480 N   0  0  0  0  0  2  0  0  0  0  0  0
  187.6030  178.9810  147.7270 S   0  0  0  0  0  0  0  0  0  0  0  0
  187.5940  177.1730  147.8960 C   0  0  0  0  0  1  0  0  0  0  0  0
  193.1820  174.1640  136.2180 C   0  0  0  0  0  2  0  0  0  0  0  0
  195.0200  172.6520  136.0300 O   0  0  0  0  0  0  0  0  0  0  0  0
  195.6170  172.7280  138.7220 O   0  0  0  0  0  1  0  0  0  0  0  0
  194.2860  173.3340  136.7950 C   0  0  0  0  0  0  0  0  0  0  0  0
  194.5410  173.3650  138.1990 N   0  0  0  0  0  2  0  0  0  0  0  0
  191.6120  178.1650  142.9850 C   0  0  0  0  0  2  0  0  0  0  0  0
  191.7530  177.0770  144.0390 C   0  0  0  0  0  2  0  0  0  0  0  0
  191.4740  177.6370  145.4230 C   0  0  0  0  0  2  0  0  0  0  0  0
  191.0070  176.5390  146.3610 C   0  0  0  0  0  2  0  0  0  0  0  0
  192.7970  176.0230  147.8270 O   0  0  0  0  0  1  0  0  0  0  0  0
  192.1640  175.6090  146.6550 C   0  0  0  0  0  2  0  0  0  0  0  0
  1 10  1  0  0  0  0
  2  1  1  0  0  0  0
  3  6  2  0  0  0  0
  4  6  1  0  0  0  0
  5 15  1  6  0  0  0
  5  3  1  0  0  0  0
  6 48  1  0  0  0  0
  7  2  1  0  0  0  0
  8  2  2  0  0  0  0
  9 10  2  0  0  0  0
  9  5  1  0  0  0  0
 10  4  1  0  0  0  0
 11 12  1  0  0  0  0
 13 15  1  0  0  0  0
 14 16  1  0  0  0  0
 14 13  2  0  0  0  0
 15 12  2  0  0  0  0
 16 11  2  0  0  0  0
 17 23  1  0  0  0  0
 17 19  1  1  0  0  0
 20 22  2  0  0  0  0
 20 21  1  0  0  0  0
 21 16  1  1  0  0  0
 21 23  1  0  0  0  0
 22 17  1  0  0  0  0
 23 18  2  0  0  0  0
 24 28  1  0  0  0  0
 24 29  1  0  0  0  0
 25 27  1  0  0  0  0
 26 17  1  0  0  0  0
 26 25  2  0  0  0  0
 28 26  1  0  0  0  0
 29 30  2  0  0  0  0
 30 27  1  0  0  0  0
 31  3  1  6  0  0  0
 31 32  1  0  0  0  0
 31 33  1  0  0  0  0
 32 34  1  1  0  0  0
 32 33  1  0  0  0  0
 34 36  1  0  0  0  0
 36 35  1  6  0  0  0
 36 38  1  0  0  0  0
 37 39  2  0  0  0  0
 38 39  1  0  0  0  0
 39 40  1  0  0  0  0
 40 41  1  0  0  0  0
 41 42  1  0  0  0  0
 43 46  1  0  0  0  0
 43  7  1  0  0  0  0
 44 46  2  0  0  0  0
 46 47  1  0  0  0  0
 47 45  1  0  0  0  0
 48 49  1  0  0  0  0
 49 50  1  0  0  0  0
 50 51  1  0  0  0  0
 51 53  1  0  0  0  0
 53 52  1  0  0  0  0
M  END
>  <MODEL>
7

>  <REMARK>
 VINA RESULT:      -6.2      3.320      8.148
  Name = 
  15 active torsions:
  status: ('A' for Active; 'I' for Inactive)
    1  A    between atoms: C_2  and  C_7
    2  A    between atoms: C_5  and  C_33
    3  A    between atoms: C_5  and  N_44
    4  A    between atoms: C_8  and  C_39
    5  A    between atoms: C_8  and  C_48
    6  A    between atoms: C_9  and  C_16
    7  A    between atoms: C_9  and  C_52
    8  A    between atoms: C_11  and  C_21
    9  A    between atoms: S_14  and  N_28
   10  A    between atoms: N_18  and  C_52
   11  A    between atoms: C_29  and  C_35
   12  A    between atoms: C_29  and  C_48
   13  A    between atoms: C_37  and  C_46
   14  A    between atoms: C_38  and  C_51
   15  A    between atoms: C_39  and  C_43
                            x       y       z     vdW  Elec       q    Type
                         _______ _______ _______ _____ _____    ______ ____

>  <TORSDO>
F 15

$$$$
=
 OpenBabel10222417503D

 53 57  0  0  1  0  0  0  0  0999 V2000
  191.0880  174.2830  135.0570 N   0  0  0  0  0  2  0  0  0  0  0  0
  192.4620  174.6560  134.8740 C   0  0  0  0  0  0  0  0  0  0  0  0
  187.8150  176.8820  135.8280 C   0  0  0  0  0  0  0  0  0  0  0  0
  188.7010  174.7670  135.1760 O   0  0  0  0  0  0  0  0  0  0  0  0
  189.1940  177.2520  136.3430 C   0  0  2  0  0  3  0  0  0  0  0  0
  187.6220  175.6490  135.2970 C   0  0  0  0  0  0  0  0  0  0  0  0
  192.8770  176.0190  134.9870 N   0  0  0  0  0  2  0  0  0  0  0  0
  193.3120  173.7630  134.5940 O   0  0  0  0  0  0  0  0  0  0  0  0
  190.2540  176.3370  135.9160 N   0  0  0  0  0  0  0  0  0  0  0  0
  190.0170  175.1670  135.4080 C   0  0  0  0  0  0  0  0  0  0  0  0
  189.4130  176.4420  140.0560 C   0  0  0  0  0  3  0  0  0  0  0  0
  189.4610  176.2980  138.6660 C   0  0  0  0  0  3  0  0  0  0  0  0
  188.9200  178.6420  138.4060 C   0  0  0  0  0  3  0  0  0  0  0  0
  188.8670  178.7870  139.7940 C   0  0  0  0  0  3  0  0  0  0  0  0
  189.2150  177.3990  137.8380 C   0  0  0  0  0  0  0  0  0  0  0  0
  189.1270  177.6870  140.6270 C   0  0  0  0  0  0  0  0  0  0  0  0
  189.6650  176.0390  143.7030 C   0  0  2  0  0  0  0  0  0  0  0  0
  191.2930  177.4120  142.6460 O   0  0  0  0  0  0  0  0  0  0  0  0
  190.1710  174.8200  143.2760 F   0  0  0  0  0  0  0  0  0  0  0  0
  187.7780  177.1470  142.5970 N   0  0  0  0  0  0  0  0  0  0  0  0
  189.0020  177.7910  142.1210 C   0  0  1  0  0  3  0  0  0  0  0  0
  188.1520  176.0450  143.4980 C   0  0  0  0  0  3  0  0  0  0  0  0
  190.1210  177.1060  142.7970 C   0  0  0  0  0  0  0  0  0  0  0  0
  189.2830  177.0510  147.5050 C   0  0  0  0  0  2  0  0  0  0  0  0
  191.3090  175.9740  145.5520 C   0  0  0  0  0  3  0  0  0  0  0  0
  190.0670  176.3330  145.1370 C   0  0  0  0  0  0  0  0  0  0  0  0
  191.8760  176.0790  146.9450 C   0  0  0  0  0  2  0  0  0  0  0  0
  189.0420  177.0480  146.0020 C   0  0  0  0  0  2  0  0  0  0  0  0
  190.5180  177.8460  147.8100 C   0  0  0  0  0  3  0  0  0  0  0  0
  191.6870  177.3940  147.5200 N   0  0  0  0  0  0  0  0  0  0  0  0
  186.7530  177.9650  135.9600 C   0  0  2  0  0  3  0  0  0  0  0  0
  185.9660  177.7670  137.2100 C   0  0  2  0  0  3  0  0  0  0  0  0
  185.4430  177.4530  135.9400 O   0  0  0  0  0  0  0  0  0  0  0  0
  185.2180  179.0010  137.7130 C   0  0  0  0  0  2  0  0  0  0  0  0
  185.3290  178.6540  140.2090 C   0  0  0  0  0  1  0  0  0  0  0  0
  184.4190  178.7870  138.9980 C   0  0  2  0  0  3  0  0  0  0  0  0
  181.9630  178.2180  140.4540 O   0  0  0  0  0  0  0  0  0  0  0  0
  183.5630  177.6110  138.8540 N   0  0  0  0  0  2  0  0  0  0  0  0
  182.3800  177.3600  139.6260 C   0  0  0  0  0  0  0  0  0  0  0  0
  181.6300  176.1650  139.4220 N   0  0  0  0  0  2  0  0  0  0  0  0
  182.0670  174.9760  138.1890 S   0  0  0  0  0  0  0  0  0  0  0  0
  181.6300  176.1100  136.8400 C   0  0  0  0  0  1  0  0  0  0  0  0
  194.2060  176.4750  134.5940 C   0  0  0  0  0  2  0  0  0  0  0  0
  194.9070  176.3930  136.8740 O   0  0  0  0  0  0  0  0  0  0  0  0
  197.2730  175.0930  136.3090 O   0  0  0  0  0  1  0  0  0  0  0  0
  195.1930  176.1510  135.6700 C   0  0  0  0  0  0  0  0  0  0  0  0
  196.4270  175.5150  135.3390 N   0  0  0  0  0  2  0  0  0  0  0  0
  186.2980  175.1690  134.8020 C   0  0  0  0  0  2  0  0  0  0  0  0
  185.6820  174.2090  135.8080 C   0  0  0  0  0  2  0  0  0  0  0  0
  185.1760  172.9590  135.1090 C   0  0  0  0  0  2  0  0  0  0  0  0
  183.8330  172.5360  135.6730 C   0  0  0  0  0  2  0  0  0  0  0  0
  184.2990  170.2240  135.4420 O   0  0  0  0  0  1  0  0  0  0  0  0
  183.9840  171.2060  136.3800 C   0  0  0  0  0  2  0  0  0  0  0  0
  1 10  1  0  0  0  0
  2  7  1  0  0  0  0
  2  1  1  0  0  0  0
  3  5  1  0  0  0  0
  4  6  1  0  0  0  0
  4 10  1  0  0  0  0
  5 15  1  1  0  0  0
  6  3  2  0  0  0  0
  8  2  2  0  0  0  0
  9  5  1  0  0  0  0
 10  9  2  0  0  0  0
 11 16  1  0  0  0  0
 12 11  2  0  0  0  0
 13 14  1  0  0  0  0
 14 16  2  0  0  0  0
 15 13  2  0  0  0  0
 15 12  1  0  0  0  0
 17 19  1  6  0  0  0
 17 26  1  0  0  0  0
 18 23  2  0  0  0  0
 20 22  2  0  0  0  0
 21 16  1  6  0  0  0
 21 20  1  0  0  0  0
 21 23  1  0  0  0  0
 22 17  1  0  0  0  0
 23 17  1  0  0  0  0
 24 29  1  0  0  0  0
 25 27  1  0  0  0  0
 26 25  2  0  0  0  0
 26 28  1  0  0  0  0
 27 30  1  0  0  0  0
 28 24  1  0  0  0  0
 30 29  2  0  0  0  0
 31  3  1  1  0  0  0
 31 32  1  0  0  0  0
 32 34  1  6  0  0  0
 33 31  1  0  0  0  0
 33 32  1  0  0  0  0
 34 36  1  0  0  0  0
 36 35  1  1  0  0  0
 38 36  1  0  0  0  0
 38 39  1  0  0  0  0
 39 37  2  0  0  0  0
 40 39  1  0  0  0  0
 41 40  1  0  0  0  0
 42 41  1  0  0  0  0
 43  7  1  0  0  0  0
 43 46  1  0  0  0  0
 46 44  2  0  0  0  0
 47 46  1  0  0  0  0
 47 45  1  0  0  0  0
 48  6  1  0  0  0  0
 48 49  1  0  0  0  0
 50 51  1  0  0  0  0
 50 49  1  0  0  0  0
 51 53  1  0  0  0  0
 52 53  1  0  0  0  0
M  END
>  <MODEL>
8

>  <REMARK>
 VINA RESULT:      -6.0      2.216      2.793
  Name = 
  15 active torsions:
  status: ('A' for Active; 'I' for Inactive)
    1  A    between atoms: C_2  and  C_7
    2  A    between atoms: C_5  and  C_33
    3  A    between atoms: C_5  and  N_44
    4  A    between atoms: C_8  and  C_39
    5  A    between atoms: C_8  and  C_48
    6  A    between atoms: C_9  and  C_16
    7  A    between atoms: C_9  and  C_52
    8  A    between atoms: C_11  and  C_21
    9  A    between atoms: S_14  and  N_28
   10  A    between atoms: N_18  and  C_52
   11  A    between atoms: C_29  and  C_35
   12  A    between atoms: C_29  and  C_48
   13  A    between atoms: C_37  and  C_46
   14  A    between atoms: C_38  and  C_51
   15  A    between atoms: C_39  and  C_43
                            x       y       z     vdW  Elec       q    Type
                         _______ _______ _______ _____ _____    ______ ____

>  <TORSDO>
F 15

$$$$
=
 OpenBabel10222417503D

 53 57  0  0  1  0  0  0  0  0999 V2000
  188.7120  173.7380  136.1050 N   0  0  0  0  0  2  0  0  0  0  0  0
  190.0840  174.0150  135.7830 C   0  0  0  0  0  0  0  0  0  0  0  0
  185.5050  176.5240  136.2380 C   0  0  0  0  0  0  0  0  0  0  0  0
  186.3380  174.2910  136.1610 O   0  0  0  0  0  0  0  0  0  0  0  0
  186.9080  176.9880  136.5900 C   0  0  2  0  0  3  0  0  0  0  0  0
  185.2760  175.1980  136.0700 C   0  0  0  0  0  0  0  0  0  0  0  0
  190.5210  175.3470  135.5070 N   0  0  0  0  0  2  0  0  0  0  0  0
  190.9100  173.0600  135.7310 O   0  0  0  0  0  0  0  0  0  0  0  0
  187.9390  175.9670  136.3960 N   0  0  0  0  0  0  0  0  0  0  0  0
  187.6660  174.7090  136.2340 C   0  0  0  0  0  0  0  0  0  0  0  0
  188.1860  177.8680  140.0650 C   0  0  0  0  0  3  0  0  0  0  0  0
  188.1550  177.4080  138.7450 C   0  0  0  0  0  3  0  0  0  0  0  0
  185.8510  178.1230  138.5530 C   0  0  0  0  0  3  0  0  0  0  0  0
  185.8800  178.5800  139.8730 C   0  0  0  0  0  3  0  0  0  0  0  0
  186.9850  177.5360  137.9860 C   0  0  0  0  0  0  0  0  0  0  0  0
  187.0550  178.4650  140.6320 C   0  0  0  0  0  0  0  0  0  0  0  0
  186.9390  177.3260  143.9730 C   0  0  2  0  0  0  0  0  0  0  0  0
  188.9520  177.5300  142.7230 O   0  0  0  0  0  0  0  0  0  0  0  0
  186.7670  175.9620  143.7920 F   0  0  0  0  0  0  0  0  0  0  0  0
  185.7490  178.9990  142.6320 N   0  0  0  0  0  0  0  0  0  0  0  0
  187.0960  178.8740  142.0770 C   0  0  1  0  0  3  0  0  0  0  0  0
  185.6060  178.0290  143.7310 C   0  0  0  0  0  3  0  0  0  0  0  0
  187.7900  177.8620  142.8980 C   0  0  0  0  0  0  0  0  0  0  0  0
  189.6830  177.8690  146.7660 C   0  0  0  0  0  2  0  0  0  0  0  0
  186.7230  178.1710  146.2890 C   0  0  0  0  0  3  0  0  0  0  0  0
  187.5280  177.6330  145.3380 C   0  0  0  0  0  0  0  0  0  0  0  0
  187.1180  178.6410  147.6660 C   0  0  0  0  0  2  0  0  0  0  0  0
  188.9900  177.2750  145.5470 C   0  0  0  0  0  2  0  0  0  0  0  0
  189.0690  177.3040  148.0130 C   0  0  0  0  0  3  0  0  0  0  0  0
  187.8890  177.6500  148.3870 N   0  0  0  0  0  0  0  0  0  0  0  0
  184.4640  177.6260  136.1040 C   0  0  2  0  0  3  0  0  0  0  0  0
  183.3060  177.3550  137.0020 C   0  0  2  0  0  3  0  0  0  0  0  0
  183.2330  177.1590  135.6080 O   0  0  0  0  0  0  0  0  0  0  0  0
  182.4380  178.5690  137.3310 C   0  0  0  0  0  2  0  0  0  0  0  0
  180.0010  179.0570  136.9010 C   0  0  0  0  0  1  0  0  0  0  0  0
  180.9950  178.2410  137.7130 C   0  0  2  0  0  3  0  0  0  0  0  0
  180.5120  176.2110  139.7420 O   0  0  0  0  0  0  0  0  0  0  0  0
  180.8040  178.4570  139.1450 N   0  0  0  0  0  2  0  0  0  0  0  0
  180.5300  177.4210  140.1000 C   0  0  0  0  0  0  0  0  0  0  0  0
  180.3350  177.7460  141.4750 N   0  0  0  0  0  2  0  0  0  0  0  0
  180.4780  179.4000  142.0840 S   0  0  0  0  0  0  0  0  0  0  0  0
  181.9710  178.9950  143.0350 C   0  0  0  0  0  1  0  0  0  0  0  0
  191.8410  175.6480  134.9620 C   0  0  0  0  0  2  0  0  0  0  0  0
  193.9900  176.2310  135.8210 O   0  0  0  0  0  0  0  0  0  0  0  0
  193.0550  176.7480  138.3650 O   0  0  0  0  0  1  0  0  0  0  0  0
  192.7680  176.0420  136.0680 C   0  0  0  0  0  0  0  0  0  0  0  0
  192.2580  176.2620  137.3830 N   0  0  0  0  0  2  0  0  0  0  0  0
  183.9290  174.6320  135.7680 C   0  0  0  0  0  2  0  0  0  0  0  0
  183.9990  173.1140  135.7160 C   0  0  0  0  0  2  0  0  0  0  0  0
  182.6030  172.5170  135.6860 C   0  0  0  0  0  2  0  0  0  0  0  0
  181.5630  173.5670  136.0290 C   0  0  0  0  0  2  0  0  0  0  0  0
  181.2030  171.8360  137.6090 O   0  0  0  0  0  1  0  0  0  0  0  0
  180.7320  173.0820  137.1980 C   0  0  0  0  0  2  0  0  0  0  0  0
  1 10  1  0  0  0  0
  2  1  1  0  0  0  0
  3  5  1  0  0  0  0
  4 10  1  0  0  0  0
  5 15  1  1  0  0  0
  6  4  1  0  0  0  0
  6  3  2  0  0  0  0
  7  2  1  0  0  0  0
  8  2  2  0  0  0  0
  9  5  1  0  0  0  0
 10  9  2  0  0  0  0
 11 16  1  0  0  0  0
 12 11  2  0  0  0  0
 13 14  1  0  0  0  0
 14 16  2  0  0  0  0
 15 13  2  0  0  0  0
 15 12  1  0  0  0  0
 17 19  1  6  0  0  0
 17 26  1  0  0  0  0
 18 23  2  0  0  0  0
 20 22  2  0  0  0  0
 21 16  1  6  0  0  0
 21 20  1  0  0  0  0
 21 23  1  0  0  0  0
 22 17  1  0  0  0  0
 23 17  1  0  0  0  0
 24 29  1  0  0  0  0
 25 27  1  0  0  0  0
 26 28  1  0  0  0  0
 26 25  2  0  0  0  0
 27 30  1  0  0  0  0
 28 24  1  0  0  0  0
 29 30  2  0  0  0  0
 31  3  1  1  0  0  0
 31 32  1  0  0  0  0
 32 34  1  6  0  0  0
 33 31  1  0  0  0  0
 33 32  1  0  0  0  0
 34 36  1  0  0  0  0
 36 35  1  6  0  0  0
 36 38  1  0  0  0  0
 37 39  2  0  0  0  0
 38 39  1  0  0  0  0
 39 40  1  0  0  0  0
 40 41  1  0  0  0  0
 41 42  1  0  0  0  0
 43  7  1  0  0  0  0
 43 46  1  0  0  0  0
 44 46  2  0  0  0  0
 46 47  1  0  0  0  0
 47 45  1  0  0  0  0
 48  6  1  0  0  0  0
 49 48  1  0  0  0  0
 50 49  1  0  0  0  0
 50 51  1  0  0  0  0
 51 53  1  0  0  0  0
 53 52  1  0  0  0  0
M  END
>  <MODEL>
9

>  <REMARK>
 VINA RESULT:      -5.8      3.050      4.678
  Name = 
  15 active torsions:
  status: ('A' for Active; 'I' for Inactive)
    1  A    between atoms: C_2  and  C_7
    2  A    between atoms: C_5  and  C_33
    3  A    between atoms: C_5  and  N_44
    4  A    between atoms: C_8  and  C_39
    5  A    between atoms: C_8  and  C_48
    6  A    between atoms: C_9  and  C_16
    7  A    between atoms: C_9  and  C_52
    8  A    between atoms: C_11  and  C_21
    9  A    between atoms: S_14  and  N_28
   10  A    between atoms: N_18  and  C_52
   11  A    between atoms: C_29  and  C_35
   12  A    between atoms: C_29  and  C_48
   13  A    between atoms: C_37  and  C_46
   14  A    between atoms: C_38  and  C_51
   15  A    between atoms: C_39  and  C_43
                            x       y       z     vdW  Elec       q    Type
                         _______ _______ _______ _____ _____    ______ ____

>  <TORSDO>
F 15

$$$$
