=
 OpenBabel10222418433D

 41 46  0  0  1  0  0  0  0  0999 V2000
  191.0640  175.5740  136.5280 C   0  0  0  0  0  0  0  0  0  0  0  0
  192.5120  176.3750  138.4060 S   0  0  0  0  0  0  0  0  0  0  0  0
  188.3380  177.8380  139.8140 N   0  0  0  0  0  0  0  0  0  0  0  0
  193.1930  175.4190  137.1880 C   0  0  0  0  0  0  0  0  0  0  0  0
  187.3350  177.3490  137.7710 C   0  0  2  0  0  3  0  0  0  0  0  0
  189.8000  176.9220  138.1090 C   0  0  0  0  0  0  0  0  0  0  0  0
  189.9310  175.3710  135.7420 C   0  0  0  0  0  3  0  0  0  0  0  0
  192.2860  175.0540  136.2500 N   0  0  0  0  0  0  0  0  0  0  0  0
  190.9930  176.3360  137.6860 C   0  0  0  0  0  0  0  0  0  0  0  0
  187.5710  178.3930  138.7720 N   0  0  0  0  0  2  0  0  0  0  0  0
  189.7240  177.7620  139.3510 C   0  0  0  0  0  2  0  0  0  0  0  0
  188.6510  176.7550  137.3040 C   0  0  0  0  0  0  0  0  0  0  0  0
  188.7210  175.9580  136.1410 C   0  0  0  0  0  3  0  0  0  0  0  0
  194.6100  174.9650  137.1730 C   0  0  0  0  0  2  0  0  0  0  0  0
  195.8310  174.0270  138.7550 C   0  0  0  0  0  1  0  0  0  0  0  0
  195.2000  175.2270  138.4100 O   0  0  0  0  0  0  0  0  0  0  0  0
  186.5430  177.9450  136.6180 C   0  0  0  0  0  2  0  0  0  0  0  0
  185.4100  177.0140  136.2290 C   0  0  0  0  0  2  0  0  0  0  0  0
  183.0820  177.7180  139.0850 C   0  0  0  0  0  3  0  0  0  0  0  0
  183.7610  175.7510  137.6790 C   0  0  0  0  0  0  0  0  0  0  0  0
  184.0450  178.0180  138.1210 C   0  0  0  0  0  3  0  0  0  0  0  0
  182.7130  176.0780  138.9480 S   0  0  0  0  0  0  0  0  0  0  0  0
  184.4270  176.9160  137.3440 C   0  0  0  0  0  0  0  0  0  0  0  0
  183.9460  174.4820  137.0420 N   0  0  0  0  0  2  0  0  0  0  0  0
  186.1490  173.4930  137.2030 C   0  0  0  0  0  1  0  0  0  0  0  0
  184.7020  173.3960  137.6470 C   0  0  2  0  0  3  0  0  0  0  0  0
  183.0120  172.2700  136.3870 O   0  0  0  0  0  1  0  0  0  0  0  0
  184.1210  172.0620  137.2090 C   0  0  0  0  0  2  0  0  0  0  0  0
  188.3080  178.7910  140.9100 C   0  0  0  0  0  2  0  0  0  0  0  0
  186.3420  177.5270  143.7640 N   0  0  0  0  0  0  0  0  0  0  0  0
  188.4910  177.2740  142.8780 C   0  0  0  0  0  3  0  0  0  0  0  0
  187.7990  178.1230  142.1400 C   0  0  0  0  0  0  0  0  0  0  0  0
  186.4740  178.2540  142.7090 C   0  0  0  0  0  0  0  0  0  0  0  0
  187.5950  176.8080  143.9910 C   0  0  1  0  0  3  0  0  0  0  0  0
  185.3850  179.1240  142.1850 C   0  0  0  0  0  1  0  0  0  0  0  0
  187.4580  177.5300  146.4550 C   0  0  0  0  0  3  0  0  0  0  0  0
  188.3550  177.7480  147.4260 N   0  0  0  0  0  0  0  0  0  0  0  0
  188.0420  178.1350  148.7340 N   0  0  0  0  0  1  0  0  0  0  0  0
  188.1680  177.1550  145.3300 C   0  0  0  0  0  0  0  0  0  0  0  0
  189.5980  177.5230  146.9650 C   0  0  0  0  0  3  0  0  0  0  0  0
  189.5190  177.1470  145.6340 C   0  0  0  0  0  3  0  0  0  0  0  0
  1  9  1  0  0  0  0
  3 29  1  0  0  0  0
  4  2  1  0  0  0  0
  5 17  1  6  0  0  0
  5 10  1  0  0  0  0
  6 11  1  0  0  0  0
  7 13  1  0  0  0  0
  7  1  2  0  0  0  0
  8  1  1  0  0  0  0
  8  4  2  0  0  0  0
  9  6  2  0  0  0  0
  9  2  1  0  0  0  0
 10  3  1  0  0  0  0
 11  3  1  0  0  0  0
 12  5  1  0  0  0  0
 12  6  1  0  0  0  0
 13 12  2  0  0  0  0
 14  4  1  0  0  0  0
 14 16  1  0  0  0  0
 16 15  1  0  0  0  0
 18 17  1  0  0  0  0
 18 23  1  0  0  0  0
 20 22  1  0  0  0  0
 21 19  2  0  0  0  0
 22 19  1  0  0  0  0
 23 20  2  0  0  0  0
 23 21  1  0  0  0  0
 24 26  1  0  0  0  0
 24 20  1  0  0  0  0
 26 25  1  6  0  0  0
 27 28  1  0  0  0  0
 28 26  1  0  0  0  0
 29 32  1  0  0  0  0
 30 34  1  0  0  0  0
 31 34  1  0  0  0  0
 32 33  1  0  0  0  0
 32 31  2  0  0  0  0
 33 30  2  0  0  0  0
 34 39  1  1  0  0  0
 35 33  1  0  0  0  0
 36 37  1  0  0  0  0
 37 38  1  0  0  0  0
 39 41  1  0  0  0  0
 39 36  2  0  0  0  0
 40 37  1  0  0  0  0
 41 40  2  0  0  0  0
M  END
>  <MODEL>
1

>  <REMARK>
 VINA RESULT:      -8.0      0.000      0.000
  Name = 
  11 active torsions:
  status: ('A' for Active; 'I' for Inactive)
    1  A    between atoms: N_8  and  C_35
    2  A    between atoms: C_9  and  C_15
    3  A    between atoms: C_12  and  C_29
    4  A    between atoms: C_14  and  N_33
    5  A    between atoms: C_15  and  O_31
    6  A    between atoms: C_17  and  C_35
    7  A    between atoms: CA_20  and  C_27
    8  A    between atoms: CA_20  and  N_33
    9  A    between atoms: C_21  and  C_29
   10  A    between atoms: C_21  and  C_37
   11  A    between atoms: C_22  and  C_38
                            x       y       z     vdW  Elec       q    Type
                         _______ _______ _______ _____ _____    ______ ____

>  <TORSDO>
F 11

$$$$
=
 OpenBabel10222418433D

 41 46  0  0  1  0  0  0  0  0999 V2000
  183.0560  178.8890  140.9170 C   0  0  0  0  0  0  0  0  0  0  0  0
  184.0010  179.5020  138.6820 S   0  0  0  0  0  0  0  0  0  0  0  0
  187.8010  177.9730  140.8640 N   0  0  0  0  0  0  0  0  0  0  0  0
  182.3280  179.5850  138.9230 C   0  0  0  0  0  0  0  0  0  0  0  0
  186.7360  177.8890  142.9320 C   0  0  2  0  0  3  0  0  0  0  0  0
  185.4780  178.6710  140.8880 C   0  0  0  0  0  0  0  0  0  0  0  0
  183.0000  178.4680  142.2460 C   0  0  0  0  0  3  0  0  0  0  0  0
  181.9670  179.2130  140.1760 N   0  0  0  0  0  0  0  0  0  0  0  0
  184.2740  178.9870  140.2590 C   0  0  0  0  0  0  0  0  0  0  0  0
  187.8860  178.4210  142.1960 N   0  0  0  0  0  2  0  0  0  0  0  0
  186.7980  178.7940  140.1840 C   0  0  0  0  0  2  0  0  0  0  0  0
  185.4420  178.2780  142.2450 C   0  0  0  0  0  0  0  0  0  0  0  0
  184.1990  178.1540  142.9030 C   0  0  0  0  0  3  0  0  0  0  0  0
  181.3460  179.9570  137.8690 C   0  0  0  0  0  2  0  0  0  0  0  0
  181.0830  182.1470  137.7810 C   0  0  0  0  0  1  0  0  0  0  0  0
  180.5280  180.9870  138.3310 O   0  0  0  0  0  0  0  0  0  0  0  0
  186.7920  178.3990  144.3630 C   0  0  0  0  0  2  0  0  0  0  0  0
  186.8100  177.2320  145.3320 C   0  0  0  0  0  2  0  0  0  0  0  0
  188.8100  177.9060  148.4340 C   0  0  0  0  0  3  0  0  0  0  0  0
  189.2300  177.1460  146.0770 C   0  0  0  0  0  0  0  0  0  0  0  0
  187.6580  177.8360  147.6490 C   0  0  0  0  0  3  0  0  0  0  0  0
  190.1140  177.4370  147.4720 S   0  0  0  0  0  0  0  0  0  0  0  0
  187.8970  177.4190  146.3330 C   0  0  0  0  0  0  0  0  0  0  0  0
  189.7540  176.6920  144.8250 N   0  0  0  0  0  2  0  0  0  0  0  0
  190.8460  178.7300  144.1070 C   0  0  0  0  0  1  0  0  0  0  0  0
  190.9750  177.2240  144.2400 C   0  0  2  0  0  3  0  0  0  0  0  0
  190.2200  175.6440  142.6140 O   0  0  0  0  0  1  0  0  0  0  0  0
  191.1970  176.6070  142.8690 C   0  0  0  0  0  2  0  0  0  0  0  0
  189.0810  178.2630  140.2410 C   0  0  0  0  0  2  0  0  0  0  0  0
  189.3600  177.0330  136.7740 N   0  0  0  0  0  0  0  0  0  0  0  0
  189.4360  176.1660  138.9440 C   0  0  0  0  0  3  0  0  0  0  0  0
  189.2210  177.4680  138.9890 C   0  0  0  0  0  0  0  0  0  0  0  0
  189.1850  177.9760  137.6340 C   0  0  0  0  0  0  0  0  0  0  0  0
  189.5550  175.7780  137.4980 C   0  0  1  0  0  3  0  0  0  0  0  0
  188.9560  179.3950  137.2440 C   0  0  0  0  0  1  0  0  0  0  0  0
  188.7200  173.4720  136.7260 C   0  0  0  0  0  3  0  0  0  0  0  0
  187.5160  172.9390  136.4760 N   0  0  0  0  0  0  0  0  0  0  0  0
  187.2940  171.6190  136.0650 N   0  0  0  0  0  1  0  0  0  0  0  0
  188.5060  174.7800  137.1160 C   0  0  0  0  0  0  0  0  0  0  0  0
  186.5530  173.8510  136.6940 C   0  0  0  0  0  3  0  0  0  0  0  0
  187.1440  175.0360  137.1000 C   0  0  0  0  0  3  0  0  0  0  0  0
  1  7  1  0  0  0  0
  2  4  1  0  0  0  0
  2  9  1  0  0  0  0
  3 10  1  0  0  0  0
  4  8  2  0  0  0  0
  5 17  1  1  0  0  0
  6 12  2  0  0  0  0
  7 13  2  0  0  0  0
  8  1  1  0  0  0  0
  9  6  1  0  0  0  0
  9  1  2  0  0  0  0
 10  5  1  0  0  0  0
 11  3  1  0  0  0  0
 11  6  1  0  0  0  0
 12 13  1  0  0  0  0
 12  5  1  0  0  0  0
 14 16  1  0  0  0  0
 14  4  1  0  0  0  0
 15 16  1  0  0  0  0
 17 18  1  0  0  0  0
 18 23  1  0  0  0  0
 20 23  2  0  0  0  0
 20 22  1  0  0  0  0
 21 19  2  0  0  0  0
 22 19  1  0  0  0  0
 23 21  1  0  0  0  0
 24 20  1  0  0  0  0
 26 25  1  6  0  0  0
 26 24  1  0  0  0  0
 27 28  1  0  0  0  0
 28 26  1  0  0  0  0
 29  3  1  0  0  0  0
 30 34  1  0  0  0  0
 30 33  2  0  0  0  0
 31 32  2  0  0  0  0
 32 29  1  0  0  0  0
 33 32  1  0  0  0  0
 34 39  1  6  0  0  0
 34 31  1  0  0  0  0
 35 33  1  0  0  0  0
 36 39  2  0  0  0  0
 37 40  1  0  0  0  0
 37 36  1  0  0  0  0
 38 37  1  0  0  0  0
 40 41  2  0  0  0  0
 41 39  1  0  0  0  0
M  END
>  <MODEL>
2

>  <REMARK>
 VINA RESULT:      -7.7      3.397      9.473
  Name = 
  11 active torsions:
  status: ('A' for Active; 'I' for Inactive)
    1  A    between atoms: N_8  and  C_35
    2  A    between atoms: C_9  and  C_15
    3  A    between atoms: C_12  and  C_29
    4  A    between atoms: C_14  and  N_33
    5  A    between atoms: C_15  and  O_31
    6  A    between atoms: C_17  and  C_35
    7  A    between atoms: CA_20  and  C_27
    8  A    between atoms: CA_20  and  N_33
    9  A    between atoms: C_21  and  C_29
   10  A    between atoms: C_21  and  C_37
   11  A    between atoms: C_22  and  C_38
                            x       y       z     vdW  Elec       q    Type
                         _______ _______ _______ _____ _____    ______ ____

>  <TORSDO>
F 11

$$$$
=
 OpenBabel10222418433D

 41 46  0  0  1  0  0  0  0  0999 V2000
  191.1750  175.4970  136.3920 C   0  0  0  0  0  0  0  0  0  0  0  0
  192.6730  176.4450  138.1580 S   0  0  0  0  0  0  0  0  0  0  0  0
  188.5030  177.7050  139.7590 N   0  0  0  0  0  0  0  0  0  0  0  0
  193.3430  175.4890  136.9320 C   0  0  0  0  0  0  0  0  0  0  0  0
  187.4200  177.0900  137.7940 C   0  0  2  0  0  3  0  0  0  0  0  0
  189.9210  176.8200  138.0010 C   0  0  0  0  0  0  0  0  0  0  0  0
  190.0140  175.2010  135.6780 C   0  0  0  0  0  3  0  0  0  0  0  0
  192.4090  175.0400  136.0590 N   0  0  0  0  0  0  0  0  0  0  0  0
  191.1220  176.2910  137.5280 C   0  0  0  0  0  0  0  0  0  0  0  0
  187.6470  178.1790  138.7470 N   0  0  0  0  0  2  0  0  0  0  0  0
  189.8640  177.6950  139.2200 C   0  0  0  0  0  2  0  0  0  0  0  0
  188.7410  176.5600  137.2700 C   0  0  0  0  0  0  0  0  0  0  0  0
  188.7950  175.7300  136.1290 C   0  0  0  0  0  3  0  0  0  0  0  0
  194.7820  175.1200  136.8480 C   0  0  0  0  0  2  0  0  0  0  0  0
  195.1720  173.6430  138.4420 C   0  0  0  0  0  1  0  0  0  0  0  0
  195.3110  175.0000  138.1330 O   0  0  0  0  0  0  0  0  0  0  0  0
  186.5300  177.5990  136.6710 C   0  0  0  0  0  2  0  0  0  0  0  0
  185.1870  178.0350  137.2270 C   0  0  0  0  0  2  0  0  0  0  0  0
  183.2800  174.8890  136.4960 C   0  0  0  0  0  3  0  0  0  0  0  0
  183.4030  176.6090  138.3220 C   0  0  0  0  0  0  0  0  0  0  0  0
  184.1930  175.9140  136.2450 C   0  0  0  0  0  3  0  0  0  0  0  0
  182.5640  175.1930  137.9920 S   0  0  0  0  0  0  0  0  0  0  0  0
  184.2530  176.8760  137.2630 C   0  0  0  0  0  0  0  0  0  0  0  0
  183.2700  177.4140  139.4980 N   0  0  0  0  0  2  0  0  0  0  0  0
  182.3580  179.6110  139.0490 C   0  0  0  0  0  1  0  0  0  0  0  0
  182.1250  178.2790  139.7380 C   0  0  2  0  0  3  0  0  0  0  0  0
  180.6320  178.2530  141.6030 O   0  0  0  0  0  1  0  0  0  0  0  0
  181.9550  178.4990  141.2320 C   0  0  0  0  0  2  0  0  0  0  0  0
  188.4770  178.6910  140.8260 C   0  0  0  0  0  2  0  0  0  0  0  0
  186.3770  177.5950  143.6540 N   0  0  0  0  0  0  0  0  0  0  0  0
  188.5350  177.2210  142.8370 C   0  0  0  0  0  3  0  0  0  0  0  0
  187.9040  178.0800  142.0580 C   0  0  0  0  0  0  0  0  0  0  0  0
  186.5710  178.2860  142.5850 C   0  0  0  0  0  0  0  0  0  0  0  0
  187.5880  176.8260  143.9350 C   0  0  1  0  0  3  0  0  0  0  0  0
  185.5390  179.1900  142.0070 C   0  0  0  0  0  1  0  0  0  0  0  0
  187.4150  177.6030  146.3800 C   0  0  0  0  0  3  0  0  0  0  0  0
  188.2940  177.8130  147.3680 N   0  0  0  0  0  0  0  0  0  0  0  0
  187.9620  178.2370  148.6600 N   0  0  0  0  0  1  0  0  0  0  0  0
  188.1390  177.1820  145.2810 C   0  0  0  0  0  0  0  0  0  0  0  0
  189.5400  177.5400  146.9430 C   0  0  0  0  0  3  0  0  0  0  0  0
  189.4820  177.1380  145.6180 C   0  0  0  0  0  3  0  0  0  0  0  0
  1  9  1  0  0  0  0
  3 29  1  0  0  0  0
  4  2  1  0  0  0  0
  5 17  1  6  0  0  0
  5 10  1  0  0  0  0
  6 11  1  0  0  0  0
  7 13  1  0  0  0  0
  7  1  2  0  0  0  0
  8  1  1  0  0  0  0
  8  4  2  0  0  0  0
  9  6  2  0  0  0  0
  9  2  1  0  0  0  0
 10  3  1  0  0  0  0
 11  3  1  0  0  0  0
 12  5  1  0  0  0  0
 12  6  1  0  0  0  0
 13 12  2  0  0  0  0
 14  4  1  0  0  0  0
 14 16  1  0  0  0  0
 16 15  1  0  0  0  0
 17 18  1  0  0  0  0
 18 23  1  0  0  0  0
 19 22  1  0  0  0  0
 20 24  1  0  0  0  0
 21 19  2  0  0  0  0
 21 23  1  0  0  0  0
 22 20  1  0  0  0  0
 23 20  2  0  0  0  0
 24 26  1  0  0  0  0
 26 25  1  6  0  0  0
 26 28  1  0  0  0  0
 28 27  1  0  0  0  0
 29 32  1  0  0  0  0
 30 34  1  0  0  0  0
 31 34  1  0  0  0  0
 32 33  1  0  0  0  0
 32 31  2  0  0  0  0
 33 30  2  0  0  0  0
 34 39  1  1  0  0  0
 35 33  1  0  0  0  0
 36 37  1  0  0  0  0
 37 38  1  0  0  0  0
 39 41  1  0  0  0  0
 39 36  2  0  0  0  0
 40 37  1  0  0  0  0
 41 40  2  0  0  0  0
M  END
>  <MODEL>
3

>  <REMARK>
 VINA RESULT:      -7.7      1.709      2.547
  Name = 
  11 active torsions:
  status: ('A' for Active; 'I' for Inactive)
    1  A    between atoms: N_8  and  C_35
    2  A    between atoms: C_9  and  C_15
    3  A    between atoms: C_12  and  C_29
    4  A    between atoms: C_14  and  N_33
    5  A    between atoms: C_15  and  O_31
    6  A    between atoms: C_17  and  C_35
    7  A    between atoms: CA_20  and  C_27
    8  A    between atoms: CA_20  and  N_33
    9  A    between atoms: C_21  and  C_29
   10  A    between atoms: C_21  and  C_37
   11  A    between atoms: C_22  and  C_38
                            x       y       z     vdW  Elec       q    Type
                         _______ _______ _______ _____ _____    ______ ____

>  <TORSDO>
F 11

$$$$
=
 OpenBabel10222418433D

 41 46  0  0  1  0  0  0  0  0999 V2000
  183.7010  178.6760  141.7080 C   0  0  0  0  0  0  0  0  0  0  0  0
  183.9190  179.3470  139.3070 S   0  0  0  0  0  0  0  0  0  0  0  0
  188.2090  177.8170  140.1960 N   0  0  0  0  0  0  0  0  0  0  0  0
  182.3980  179.4050  140.0470 C   0  0  0  0  0  0  0  0  0  0  0  0
  187.8230  177.6770  142.4870 C   0  0  2  0  0  3  0  0  0  0  0  0
  186.0000  178.4870  140.9410 C   0  0  0  0  0  0  0  0  0  0  0  0
  184.0520  178.2270  142.9810 C   0  0  0  0  0  3  0  0  0  0  0  0
  182.4360  179.0030  141.3400 N   0  0  0  0  0  0  0  0  0  0  0  0
  184.6610  178.8020  140.7140 C   0  0  0  0  0  0  0  0  0  0  0  0
  188.6930  178.2380  141.4500 N   0  0  0  0  0  2  0  0  0  0  0  0
  187.0440  178.6400  139.8720 C   0  0  0  0  0  2  0  0  0  0  0  0
  186.3790  178.0660  142.2350 C   0  0  0  0  0  0  0  0  0  0  0  0
  185.3960  177.9140  143.2360 C   0  0  0  0  0  3  0  0  0  0  0  0
  181.1410  179.7880  139.3480 C   0  0  0  0  0  2  0  0  0  0  0  0
  180.2270  180.9770  137.7280 C   0  0  0  0  0  1  0  0  0  0  0  0
  181.3810  180.8780  138.5130 O   0  0  0  0  0  0  0  0  0  0  0  0
  188.3090  178.1580  143.8460 C   0  0  0  0  0  2  0  0  0  0  0  0
  188.3910  176.9910  144.8120 C   0  0  0  0  0  2  0  0  0  0  0  0
  186.9280  178.5720  147.8830 C   0  0  0  0  0  3  0  0  0  0  0  0
  188.8640  177.0840  147.2990 C   0  0  0  0  0  0  0  0  0  0  0  0
  187.0290  178.2850  146.5210 C   0  0  0  0  0  3  0  0  0  0  0  0
  188.1950  177.7840  148.6690 S   0  0  0  0  0  0  0  0  0  0  0  0
  188.1150  177.4610  146.1990 C   0  0  0  0  0  0  0  0  0  0  0  0
  190.0180  176.2360  147.2620 N   0  0  0  0  0  2  0  0  0  0  0  0
  191.6740  176.9090  145.6300 C   0  0  0  0  0  1  0  0  0  0  0  0
  191.3700  176.7500  147.1080 C   0  0  2  0  0  3  0  0  0  0  0  0
  193.0520  176.4030  148.7700 O   0  0  0  0  0  1  0  0  0  0  0  0
  192.3600  175.7790  147.7310 C   0  0  0  0  0  2  0  0  0  0  0  0
  189.2380  178.1350  139.2210 C   0  0  0  0  0  2  0  0  0  0  0  0
  188.5590  176.5570  135.9560 N   0  0  0  0  0  0  0  0  0  0  0  0
  189.5880  176.0030  137.9810 C   0  0  0  0  0  3  0  0  0  0  0  0
  189.1090  177.2320  138.0430 C   0  0  0  0  0  0  0  0  0  0  0  0
  188.4850  177.5480  136.7760 C   0  0  0  0  0  0  0  0  0  0  0  0
  189.2780  175.4660  136.6120 C   0  0  1  0  0  3  0  0  0  0  0  0
  187.8130  178.8320  136.4350 C   0  0  0  0  0  1  0  0  0  0  0  0
  187.0400  174.2030  136.6880 C   0  0  0  0  0  3  0  0  0  0  0  0
  186.6870  172.9140  136.7740 N   0  0  0  0  0  0  0  0  0  0  0  0
  185.3680  172.4430  136.7880 N   0  0  0  0  0  1  0  0  0  0  0  0
  188.4220  174.2410  136.6910 C   0  0  0  0  0  0  0  0  0  0  0  0
  187.7830  172.1370  136.8270 C   0  0  0  0  0  3  0  0  0  0  0  0
  188.9060  172.9460  136.7790 C   0  0  0  0  0  3  0  0  0  0  0  0
  1  7  1  0  0  0  0
  2  4  1  0  0  0  0
  2  9  1  0  0  0  0
  3 10  1  0  0  0  0
  4  8  2  0  0  0  0
  5 17  1  1  0  0  0
  6 12  2  0  0  0  0
  7 13  2  0  0  0  0
  8  1  1  0  0  0  0
  9  6  1  0  0  0  0
  9  1  2  0  0  0  0
 10  5  1  0  0  0  0
 11  3  1  0  0  0  0
 11  6  1  0  0  0  0
 12  5  1  0  0  0  0
 12 13  1  0  0  0  0
 14  4  1  0  0  0  0
 15 16  1  0  0  0  0
 16 14  1  0  0  0  0
 17 18  1  0  0  0  0
 18 23  1  0  0  0  0
 19 22  1  0  0  0  0
 20 22  1  0  0  0  0
 21 19  2  0  0  0  0
 23 21  1  0  0  0  0
 23 20  2  0  0  0  0
 24 20  1  0  0  0  0
 26 25  1  6  0  0  0
 26 24  1  0  0  0  0
 26 28  1  0  0  0  0
 28 27  1  0  0  0  0
 29  3  1  0  0  0  0
 30 34  1  0  0  0  0
 30 33  2  0  0  0  0
 31 32  2  0  0  0  0
 32 29  1  0  0  0  0
 33 32  1  0  0  0  0
 34 39  1  1  0  0  0
 34 31  1  0  0  0  0
 35 33  1  0  0  0  0
 36 39  2  0  0  0  0
 36 37  1  0  0  0  0
 37 38  1  0  0  0  0
 37 40  1  0  0  0  0
 39 41  1  0  0  0  0
 41 40  2  0  0  0  0
M  END
>  <MODEL>
4

>  <REMARK>
 VINA RESULT:      -7.5      3.573      9.883
  Name = 
  11 active torsions:
  status: ('A' for Active; 'I' for Inactive)
    1  A    between atoms: N_8  and  C_35
    2  A    between atoms: C_9  and  C_15
    3  A    between atoms: C_12  and  C_29
    4  A    between atoms: C_14  and  N_33
    5  A    between atoms: C_15  and  O_31
    6  A    between atoms: C_17  and  C_35
    7  A    between atoms: CA_20  and  C_27
    8  A    between atoms: CA_20  and  N_33
    9  A    between atoms: C_21  and  C_29
   10  A    between atoms: C_21  and  C_37
   11  A    between atoms: C_22  and  C_38
                            x       y       z     vdW  Elec       q    Type
                         _______ _______ _______ _____ _____    ______ ____

>  <TORSDO>
F 11

$$$$
=
 OpenBabel10222418433D

 41 46  0  0  1  0  0  0  0  0999 V2000
  185.5730  178.4520  145.3840 C   0  0  0  0  0  0  0  0  0  0  0  0
  187.7980  177.3110  145.2880 S   0  0  0  0  0  0  0  0  0  0  0  0
  187.2830  178.6260  140.8670 N   0  0  0  0  0  0  0  0  0  0  0  0
  187.0420  177.5230  146.7870 C   0  0  0  0  0  0  0  0  0  0  0  0
  185.0590  179.2400  141.1750 C   0  0  2  0  0  3  0  0  0  0  0  0
  186.3930  178.2970  143.0990 C   0  0  0  0  0  0  0  0  0  0  0  0
  184.4180  179.1100  144.9620 C   0  0  0  0  0  3  0  0  0  0  0  0
  185.8530  178.1640  146.6800 N   0  0  0  0  0  0  0  0  0  0  0  0
  186.5360  178.0560  144.4650 C   0  0  0  0  0  0  0  0  0  0  0  0
  185.9770  178.4180  140.3810 N   0  0  0  0  0  2  0  0  0  0  0  0
  187.4240  177.8540  142.1020 C   0  0  0  0  0  2  0  0  0  0  0  0
  185.2120  178.9300  142.6510 C   0  0  0  0  0  0  0  0  0  0  0  0
  184.2470  179.3550  143.5910 C   0  0  0  0  0  3  0  0  0  0  0  0
  187.6350  177.1170  148.0900 C   0  0  0  0  0  2  0  0  0  0  0  0
  189.3100  178.5060  148.4690 C   0  0  0  0  0  1  0  0  0  0  0  0
  187.9800  178.2520  148.8230 O   0  0  0  0  0  0  0  0  0  0  0  0
  183.6390  178.9950  140.6890 C   0  0  0  0  0  2  0  0  0  0  0  0
  183.3280  177.5100  140.7160 C   0  0  0  0  0  2  0  0  0  0  0  0
  180.8010  176.5110  138.1290 C   0  0  0  0  0  3  0  0  0  0  0  0
  180.8080  177.4080  140.4750 C   0  0  0  0  0  0  0  0  0  0  0  0
  182.0790  176.7320  138.6460 C   0  0  0  0  0  3  0  0  0  0  0  0
  179.6860  176.9460  139.3170 S   0  0  0  0  0  0  0  0  0  0  0  0
  182.0780  177.2400  139.9520 C   0  0  0  0  0  0  0  0  0  0  0  0
  180.5140  177.8960  141.7880 N   0  0  0  0  0  2  0  0  0  0  0  0
  179.8440  180.1920  141.4090 C   0  0  0  0  0  1  0  0  0  0  0  0
  179.4660  178.8700  142.0520 C   0  0  2  0  0  3  0  0  0  0  0  0
  179.6800  177.8920  144.2220 O   0  0  0  0  0  1  0  0  0  0  0  0
  179.3090  179.0590  143.5520 C   0  0  0  0  0  2  0  0  0  0  0  0
  188.1900  178.0400  139.8950 C   0  0  0  0  0  2  0  0  0  0  0  0
  191.6640  177.1280  140.7360 N   0  0  0  0  0  0  0  0  0  0  0  0
  189.9150  178.3740  141.6610 C   0  0  0  0  0  3  0  0  0  0  0  0
  189.5300  177.8430  140.5150 C   0  0  0  0  0  0  0  0  0  0  0  0
  190.6330  177.0840  139.9650 C   0  0  0  0  0  0  0  0  0  0  0  0
  191.3400  177.9600  141.8940 C   0  0  1  0  0  3  0  0  0  0  0  0
  190.6100  176.3200  138.6870 C   0  0  0  0  0  1  0  0  0  0  0  0
  191.5730  177.6930  144.4400 C   0  0  0  0  0  3  0  0  0  0  0  0
  191.6820  176.6510  145.2740 N   0  0  0  0  0  0  0  0  0  0  0  0
  191.7890  176.7450  146.6670 N   0  0  0  0  0  1  0  0  0  0  0  0
  191.4780  177.1770  143.1620 C   0  0  0  0  0  0  0  0  0  0  0  0
  191.6550  175.4990  144.5800 C   0  0  0  0  0  3  0  0  0  0  0  0
  191.5290  175.7940  143.2320 C   0  0  0  0  0  3  0  0  0  0  0  0
  1  8  1  0  0  0  0
  2  4  1  0  0  0  0
  3 11  1  0  0  0  0
  4 14  1  0  0  0  0
  5 17  1  6  0  0  0
  5 12  1  0  0  0  0
  6  9  1  0  0  0  0
  7  1  1  0  0  0  0
  8  4  2  0  0  0  0
  9  2  1  0  0  0  0
  9  1  2  0  0  0  0
 10  3  1  0  0  0  0
 10  5  1  0  0  0  0
 11  6  1  0  0  0  0
 12  6  2  0  0  0  0
 12 13  1  0  0  0  0
 13  7  2  0  0  0  0
 14 16  1  0  0  0  0
 15 16  1  0  0  0  0
 17 18  1  0  0  0  0
 19 21  2  0  0  0  0
 19 22  1  0  0  0  0
 20 24  1  0  0  0  0
 21 23  1  0  0  0  0
 22 20  1  0  0  0  0
 23 20  2  0  0  0  0
 23 18  1  0  0  0  0
 24 26  1  0  0  0  0
 26 25  1  6  0  0  0
 26 28  1  0  0  0  0
 28 27  1  0  0  0  0
 29 32  1  0  0  0  0
 29  3  1  0  0  0  0
 30 34  1  0  0  0  0
 31 34  1  0  0  0  0
 32 31  2  0  0  0  0
 33 32  1  0  0  0  0
 33 30  2  0  0  0  0
 34 39  1  1  0  0  0
 35 33  1  0  0  0  0
 36 37  1  0  0  0  0
 37 38  1  0  0  0  0
 39 41  1  0  0  0  0
 39 36  2  0  0  0  0
 40 37  1  0  0  0  0
 41 40  2  0  0  0  0
M  END
>  <MODEL>
5

>  <REMARK>
 VINA RESULT:      -7.5      4.110      7.293
  Name = 
  11 active torsions:
  status: ('A' for Active; 'I' for Inactive)
    1  A    between atoms: N_8  and  C_35
    2  A    between atoms: C_9  and  C_15
    3  A    between atoms: C_12  and  C_29
    4  A    between atoms: C_14  and  N_33
    5  A    between atoms: C_15  and  O_31
    6  A    between atoms: C_17  and  C_35
    7  A    between atoms: CA_20  and  C_27
    8  A    between atoms: CA_20  and  N_33
    9  A    between atoms: C_21  and  C_29
   10  A    between atoms: C_21  and  C_37
   11  A    between atoms: C_22  and  C_38
                            x       y       z     vdW  Elec       q    Type
                         _______ _______ _______ _____ _____    ______ ____

>  <TORSDO>
F 11

$$$$
=
 OpenBabel10222418433D

 41 46  0  0  1  0  0  0  0  0999 V2000
  190.6470  175.8160  138.6260 C   0  0  0  0  0  0  0  0  0  0  0  0
  189.2070  175.1410  136.6930 S   0  0  0  0  0  0  0  0  0  0  0  0
  186.6990  178.5990  138.5080 N   0  0  0  0  0  0  0  0  0  0  0  0
  190.7270  174.4230  136.8810 C   0  0  0  0  0  0  0  0  0  0  0  0
  188.0140  178.7200  140.4240 C   0  0  2  0  0  3  0  0  0  0  0  0
  188.5330  177.0180  138.6340 C   0  0  0  0  0  0  0  0  0  0  0  0
  191.0680  176.4780  139.7790 C   0  0  0  0  0  3  0  0  0  0  0  0
  191.3930  174.8960  137.9620 N   0  0  0  0  0  0  0  0  0  0  0  0
  189.4040  176.0850  138.0710 C   0  0  0  0  0  0  0  0  0  0  0  0
  186.6490  178.5620  139.9150 N   0  0  0  0  0  2  0  0  0  0  0  0
  187.1800  177.2970  138.0470 C   0  0  0  0  0  2  0  0  0  0  0  0
  188.9290  177.6710  139.8230 C   0  0  0  0  0  0  0  0  0  0  0  0
  190.2060  177.4140  140.3690 C   0  0  0  0  0  3  0  0  0  0  0  0
  191.3090  173.4320  135.9350 C   0  0  0  0  0  2  0  0  0  0  0  0
  193.3690  172.6410  136.0090 C   0  0  0  0  0  1  0  0  0  0  0  0
  192.6310  173.7750  135.6510 O   0  0  0  0  0  0  0  0  0  0  0  0
  187.9830  178.6400  141.9420 C   0  0  0  0  0  2  0  0  0  0  0  0
  186.9690  177.6030  142.3880 C   0  0  0  0  0  2  0  0  0  0  0  0
  184.8690  178.7920  145.2600 C   0  0  0  0  0  3  0  0  0  0  0  0
  187.0830  177.6580  144.9180 C   0  0  0  0  0  0  0  0  0  0  0  0
  185.1970  178.5860  143.9200 C   0  0  0  0  0  3  0  0  0  0  0  0
  186.1310  178.1810  146.1970 S   0  0  0  0  0  0  0  0  0  0  0  0
  186.4370  177.9600  143.7330 C   0  0  0  0  0  0  0  0  0  0  0  0
  188.3540  177.0070  145.0230 N   0  0  0  0  0  2  0  0  0  0  0  0
  190.6220  177.6030  144.4200 C   0  0  0  0  0  1  0  0  0  0  0  0
  189.5520  177.6850  145.4940 C   0  0  2  0  0  3  0  0  0  0  0  0
  189.4390  177.5920  147.8790 O   0  0  0  0  0  1  0  0  0  0  0  0
  190.0520  177.0180  146.7650 C   0  0  0  0  0  2  0  0  0  0  0  0
  185.3290  178.7340  138.0430 C   0  0  0  0  0  2  0  0  0  0  0  0
  182.8970  176.8760  140.1040 N   0  0  0  0  0  0  0  0  0  0  0  0
  184.2000  178.8120  140.2630 C   0  0  0  0  0  3  0  0  0  0  0  0
  184.3930  178.2360  139.0900 C   0  0  0  0  0  0  0  0  0  0  0  0
  183.5800  177.0400  139.0240 C   0  0  0  0  0  0  0  0  0  0  0  0
  183.2170  177.9670  141.0240 C   0  0  1  0  0  3  0  0  0  0  0  0
  183.5000  176.1080  137.8670 C   0  0  0  0  0  1  0  0  0  0  0  0
  181.1170  179.3470  140.4760 C   0  0  0  0  0  3  0  0  0  0  0  0
  180.1570  179.9340  141.2030 N   0  0  0  0  0  0  0  0  0  0  0  0
  179.0720  180.6430  140.6750 N   0  0  0  0  0  1  0  0  0  0  0  0
  181.9850  178.7460  141.3680 C   0  0  0  0  0  0  0  0  0  0  0  0
  180.3780  179.7260  142.5130 C   0  0  0  0  0  3  0  0  0  0  0  0
  181.5350  178.9770  142.6570 C   0  0  0  0  0  3  0  0  0  0  0  0
  1  7  1  0  0  0  0
  2  4  1  0  0  0  0
  2  9  1  0  0  0  0
  3 10  1  0  0  0  0
  4  8  2  0  0  0  0
  5 17  1  1  0  0  0
  6 12  2  0  0  0  0
  7 13  2  0  0  0  0
  8  1  1  0  0  0  0
  9  1  2  0  0  0  0
  9  6  1  0  0  0  0
 10  5  1  0  0  0  0
 11  3  1  0  0  0  0
 11  6  1  0  0  0  0
 12 13  1  0  0  0  0
 12  5  1  0  0  0  0
 14  4  1  0  0  0  0
 16 14  1  0  0  0  0
 16 15  1  0  0  0  0
 17 18  1  0  0  0  0
 18 23  1  0  0  0  0
 19 22  1  0  0  0  0
 20 24  1  0  0  0  0
 20 22  1  0  0  0  0
 21 19  2  0  0  0  0
 23 21  1  0  0  0  0
 23 20  2  0  0  0  0
 24 26  1  0  0  0  0
 26 25  1  6  0  0  0
 26 28  1  0  0  0  0
 28 27  1  0  0  0  0
 29  3  1  0  0  0  0
 29 32  1  0  0  0  0
 30 34  1  0  0  0  0
 31 34  1  0  0  0  0
 32 31  2  0  0  0  0
 33 32  1  0  0  0  0
 33 30  2  0  0  0  0
 34 39  1  6  0  0  0
 35 33  1  0  0  0  0
 36 37  1  0  0  0  0
 36 39  2  0  0  0  0
 37 40  1  0  0  0  0
 38 37  1  0  0  0  0
 39 41  1  0  0  0  0
 40 41  2  0  0  0  0
M  END
>  <MODEL>
6

>  <REMARK>
 VINA RESULT:      -7.4      3.463      6.772
  Name = 
  11 active torsions:
  status: ('A' for Active; 'I' for Inactive)
    1  A    between atoms: N_8  and  C_35
    2  A    between atoms: C_9  and  C_15
    3  A    between atoms: C_12  and  C_29
    4  A    between atoms: C_14  and  N_33
    5  A    between atoms: C_15  and  O_31
    6  A    between atoms: C_17  and  C_35
    7  A    between atoms: CA_20  and  C_27
    8  A    between atoms: CA_20  and  N_33
    9  A    between atoms: C_21  and  C_29
   10  A    between atoms: C_21  and  C_37
   11  A    between atoms: C_22  and  C_38
                            x       y       z     vdW  Elec       q    Type
                         _______ _______ _______ _____ _____    ______ ____

>  <TORSDO>
F 11

$$$$
=
 OpenBabel10222418433D

 41 46  0  0  1  0  0  0  0  0999 V2000
  188.1400  177.3380  144.2680 C   0  0  0  0  0  0  0  0  0  0  0  0
  186.9510  177.8800  146.4030 S   0  0  0  0  0  0  0  0  0  0  0  0
  183.5540  178.5190  143.3060 N   0  0  0  0  0  0  0  0  0  0  0  0
  188.5360  177.2910  146.4660 C   0  0  0  0  0  0  0  0  0  0  0  0
  185.0040  178.3660  141.4920 C   0  0  2  0  0  3  0  0  0  0  0  0
  185.8910  178.1630  143.8460 C   0  0  0  0  0  0  0  0  0  0  0  0
  188.3750  177.1790  142.9030 C   0  0  0  0  0  3  0  0  0  0  0  0
  189.0410  177.0330  145.2360 N   0  0  0  0  0  0  0  0  0  0  0  0
  186.9210  177.8210  144.7230 C   0  0  0  0  0  0  0  0  0  0  0  0
  183.9870  179.1930  142.1480 N   0  0  0  0  0  2  0  0  0  0  0  0
  184.5780  178.7030  144.3340 C   0  0  0  0  0  2  0  0  0  0  0  0
  186.1270  178.0420  142.4580 C   0  0  0  0  0  0  0  0  0  0  0  0
  187.3590  177.5250  142.0000 C   0  0  0  0  0  3  0  0  0  0  0  0
  189.2780  177.0170  147.7260 C   0  0  0  0  0  2  0  0  0  0  0  0
  191.3270  176.2630  147.3970 C   0  0  0  0  0  1  0  0  0  0  0  0
  190.6000  177.4420  147.5940 O   0  0  0  0  0  0  0  0  0  0  0  0
  185.5120  179.1000  140.2610 C   0  0  0  0  0  2  0  0  0  0  0  0
  184.4400  179.1210  139.1870 C   0  0  0  0  0  2  0  0  0  0  0  0
  183.6150  175.8300  137.5870 C   0  0  0  0  0  3  0  0  0  0  0  0
  185.5200  177.4670  137.6010 C   0  0  0  0  0  0  0  0  0  0  0  0
  183.4010  176.9390  138.4060 C   0  0  0  0  0  3  0  0  0  0  0  0
  185.1360  176.0010  136.8790 S   0  0  0  0  0  0  0  0  0  0  0  0
  184.4690  177.8460  138.4170 C   0  0  0  0  0  0  0  0  0  0  0  0
  186.7280  178.2100  137.4120 N   0  0  0  0  0  2  0  0  0  0  0  0
  188.4470  176.9350  138.5450 C   0  0  0  0  0  1  0  0  0  0  0  0
  188.0260  177.5760  137.2350 C   0  0  2  0  0  3  0  0  0  0  0  0
  188.9000  179.7710  137.5930 O   0  0  0  0  0  1  0  0  0  0  0  0
  189.0530  178.6180  136.8220 C   0  0  0  0  0  2  0  0  0  0  0  0
  182.3600  179.2060  143.7690 C   0  0  0  0  0  2  0  0  0  0  0  0
  179.1010  178.4980  142.1910 N   0  0  0  0  0  0  0  0  0  0  0  0
  181.3220  178.8240  141.5360 C   0  0  0  0  0  3  0  0  0  0  0  0
  181.2250  178.9110  142.8510 C   0  0  0  0  0  0  0  0  0  0  0  0
  179.8410  178.7110  143.2240 C   0  0  0  0  0  0  0  0  0  0  0  0
  179.9440  178.5590  140.9980 C   0  0  1  0  0  3  0  0  0  0  0  0
  179.3060  178.7200  144.6140 C   0  0  0  0  0  1  0  0  0  0  0  0
  179.7800  176.0000  140.8010 C   0  0  0  0  0  3  0  0  0  0  0  0
  179.7750  175.1310  139.7820 N   0  0  0  0  0  0  0  0  0  0  0  0
  179.6600  173.7420  139.9140 N   0  0  0  0  0  1  0  0  0  0  0  0
  179.8950  177.2630  140.2500 C   0  0  0  0  0  0  0  0  0  0  0  0
  179.8770  175.7880  138.6130 C   0  0  0  0  0  3  0  0  0  0  0  0
  179.9590  177.1470  138.8710 C   0  0  0  0  0  3  0  0  0  0  0  0
  1  9  1  0  0  0  0
  1  8  1  0  0  0  0
  2  4  1  0  0  0  0
  3 29  1  0  0  0  0
  3 11  1  0  0  0  0
  4 14  1  0  0  0  0
  5 17  1  6  0  0  0
  5 10  1  0  0  0  0
  5 12  1  0  0  0  0
  6 11  1  0  0  0  0
  6  9  2  0  0  0  0
  7  1  2  0  0  0  0
  8  4  2  0  0  0  0
  9  2  1  0  0  0  0
 10  3  1  0  0  0  0
 12  6  1  0  0  0  0
 13 12  2  0  0  0  0
 13  7  1  0  0  0  0
 15 16  1  0  0  0  0
 16 14  1  0  0  0  0
 18 17  1  0  0  0  0
 19 21  2  0  0  0  0
 20 23  2  0  0  0  0
 21 23  1  0  0  0  0
 22 19  1  0  0  0  0
 22 20  1  0  0  0  0
 23 18  1  0  0  0  0
 24 20  1  0  0  0  0
 26 24  1  0  0  0  0
 26 25  1  1  0  0  0
 28 26  1  0  0  0  0
 28 27  1  0  0  0  0
 30 33  2  0  0  0  0
 31 32  2  0  0  0  0
 32 33  1  0  0  0  0
 32 29  1  0  0  0  0
 33 35  1  0  0  0  0
 34 39  1  1  0  0  0
 34 31  1  0  0  0  0
 34 30  1  0  0  0  0
 37 38  1  0  0  0  0
 37 36  1  0  0  0  0
 39 36  2  0  0  0  0
 40 41  2  0  0  0  0
 40 37  1  0  0  0  0
 41 39  1  0  0  0  0
M  END
>  <MODEL>
7

>  <REMARK>
 VINA RESULT:      -7.4      3.850      7.889
  Name = 
  11 active torsions:
  status: ('A' for Active; 'I' for Inactive)
    1  A    between atoms: N_8  and  C_35
    2  A    between atoms: C_9  and  C_15
    3  A    between atoms: C_12  and  C_29
    4  A    between atoms: C_14  and  N_33
    5  A    between atoms: C_15  and  O_31
    6  A    between atoms: C_17  and  C_35
    7  A    between atoms: CA_20  and  C_27
    8  A    between atoms: CA_20  and  N_33
    9  A    between atoms: C_21  and  C_29
   10  A    between atoms: C_21  and  C_37
   11  A    between atoms: C_22  and  C_38
                            x       y       z     vdW  Elec       q    Type
                         _______ _______ _______ _____ _____    ______ ____

>  <TORSDO>
F 11

$$$$
=
 OpenBabel10222418433D

 41 46  0  0  1  0  0  0  0  0999 V2000
  189.7430  177.4380  140.2410 C   0  0  0  0  0  0  0  0  0  0  0  0
  189.0650  177.2970  137.8360 S   0  0  0  0  0  0  0  0  0  0  0  0
  185.3080  179.2830  139.7040 N   0  0  0  0  0  0  0  0  0  0  0  0
  190.6360  176.8540  138.2780 C   0  0  0  0  0  0  0  0  0  0  0  0
  186.0340  178.9050  141.8830 C   0  0  2  0  0  3  0  0  0  0  0  0
  187.4340  178.1370  139.9280 C   0  0  0  0  0  0  0  0  0  0  0  0
  189.6660  177.6770  141.6120 C   0  0  0  0  0  3  0  0  0  0  0  0
  190.8580  176.9940  139.6080 N   0  0  0  0  0  0  0  0  0  0  0  0
  188.6450  177.6650  139.4220 C   0  0  0  0  0  0  0  0  0  0  0  0
  184.9360  178.7050  140.9330 N   0  0  0  0  0  2  0  0  0  0  0  0
  186.2400  178.3650  139.0470 C   0  0  0  0  0  2  0  0  0  0  0  0
  187.3290  178.3500  141.3210 C   0  0  0  0  0  0  0  0  0  0  0  0
  188.4550  178.1430  142.1470 C   0  0  0  0  0  3  0  0  0  0  0  0
  191.6880  176.4220  137.3180 C   0  0  0  0  0  2  0  0  0  0  0  0
  193.6030  175.4030  137.7240 C   0  0  0  0  0  1  0  0  0  0  0  0
  192.9480  176.6300  137.8770 O   0  0  0  0  0  0  0  0  0  0  0  0
  185.6640  178.2490  143.2040 C   0  0  0  0  0  2  0  0  0  0  0  0
  186.8890  177.6090  143.8290 C   0  0  0  0  0  2  0  0  0  0  0  0
  186.0660  178.6280  147.3440 C   0  0  0  0  0  3  0  0  0  0  0  0
  187.9610  177.5220  146.1220 C   0  0  0  0  0  0  0  0  0  0  0  0
  185.8540  178.4980  145.9710 C   0  0  0  0  0  3  0  0  0  0  0  0
  187.5790  177.9700  147.6940 S   0  0  0  0  0  0  0  0  0  0  0  0
  186.9170  177.8880  145.2920 C   0  0  0  0  0  0  0  0  0  0  0  0
  189.1640  176.8710  145.6990 N   0  0  0  0  0  2  0  0  0  0  0  0
  191.3470  177.5160  144.8740 C   0  0  0  0  0  1  0  0  0  0  0  0
  190.4880  177.3140  146.1090 C   0  0  2  0  0  3  0  0  0  0  0  0
  192.0550  176.8650  147.8560 O   0  0  0  0  0  1  0  0  0  0  0  0
  191.1230  176.2660  147.0070 C   0  0  0  0  0  2  0  0  0  0  0  0
  184.1110  179.3300  138.8830 C   0  0  0  0  0  2  0  0  0  0  0  0
  182.7870  175.9500  138.2260 N   0  0  0  0  0  0  0  0  0  0  0  0
  184.3520  177.4200  137.3020 C   0  0  0  0  0  3  0  0  0  0  0  0
  183.8000  177.9670  138.3700 C   0  0  0  0  0  0  0  0  0  0  0  0
  182.8330  177.0380  138.9150 C   0  0  0  0  0  0  0  0  0  0  0  0
  183.7300  176.0660  137.1140 C   0  0  1  0  0  3  0  0  0  0  0  0
  181.9980  177.2640  140.1260 C   0  0  0  0  0  1  0  0  0  0  0  0
  186.0960  175.0960  136.8480 C   0  0  0  0  0  3  0  0  0  0  0  0
  186.6520  173.8950  137.0520 N   0  0  0  0  0  0  0  0  0  0  0  0
  188.0030  173.5910  136.8440 N   0  0  0  0  0  1  0  0  0  0  0  0
  184.7600  174.9810  137.1810 C   0  0  0  0  0  0  0  0  0  0  0  0
  185.7280  173.0290  137.5030 C   0  0  0  0  0  3  0  0  0  0  0  0
  184.5100  173.6830  137.5950 C   0  0  0  0  0  3  0  0  0  0  0  0
  1  7  1  0  0  0  0
  2  4  1  0  0  0  0
  2  9  1  0  0  0  0
  3 10  1  0  0  0  0
  4  8  2  0  0  0  0
  5 17  1  1  0  0  0
  6 12  2  0  0  0  0
  7 13  2  0  0  0  0
  8  1  1  0  0  0  0
  9  6  1  0  0  0  0
  9  1  2  0  0  0  0
 10  5  1  0  0  0  0
 11  3  1  0  0  0  0
 11  6  1  0  0  0  0
 12  5  1  0  0  0  0
 12 13  1  0  0  0  0
 14 16  1  0  0  0  0
 14  4  1  0  0  0  0
 15 16  1  0  0  0  0
 17 18  1  0  0  0  0
 18 23  1  0  0  0  0
 19 22  1  0  0  0  0
 20 22  1  0  0  0  0
 21 19  2  0  0  0  0
 23 21  1  0  0  0  0
 23 20  2  0  0  0  0
 24 26  1  0  0  0  0
 24 20  1  0  0  0  0
 26 25  1  6  0  0  0
 26 28  1  0  0  0  0
 28 27  1  0  0  0  0
 29  3  1  0  0  0  0
 30 33  2  0  0  0  0
 31 32  2  0  0  0  0
 32 29  1  0  0  0  0
 32 33  1  0  0  0  0
 33 35  1  0  0  0  0
 34 39  1  1  0  0  0
 34 31  1  0  0  0  0
 34 30  1  0  0  0  0
 36 37  1  0  0  0  0
 36 39  2  0  0  0  0
 37 40  1  0  0  0  0
 38 37  1  0  0  0  0
 39 41  1  0  0  0  0
 40 41  2  0  0  0  0
M  END
>  <MODEL>
8

>  <REMARK>
 VINA RESULT:      -7.4      2.849      7.744
  Name = 
  11 active torsions:
  status: ('A' for Active; 'I' for Inactive)
    1  A    between atoms: N_8  and  C_35
    2  A    between atoms: C_9  and  C_15
    3  A    between atoms: C_12  and  C_29
    4  A    between atoms: C_14  and  N_33
    5  A    between atoms: C_15  and  O_31
    6  A    between atoms: C_17  and  C_35
    7  A    between atoms: CA_20  and  C_27
    8  A    between atoms: CA_20  and  N_33
    9  A    between atoms: C_21  and  C_29
   10  A    between atoms: C_21  and  C_37
   11  A    between atoms: C_22  and  C_38
                            x       y       z     vdW  Elec       q    Type
                         _______ _______ _______ _____ _____    ______ ____

>  <TORSDO>
F 11

$$$$
=
 OpenBabel10222418433D

 41 46  0  0  1  0  0  0  0  0999 V2000
  185.3080  178.6210  145.3770 C   0  0  0  0  0  0  0  0  0  0  0  0
  187.5520  177.5200  145.5130 S   0  0  0  0  0  0  0  0  0  0  0  0
  187.3220  178.5130  140.9860 N   0  0  0  0  0  0  0  0  0  0  0  0
  186.6910  177.8210  146.9390 C   0  0  0  0  0  0  0  0  0  0  0  0
  185.0730  179.1040  141.0980 C   0  0  2  0  0  3  0  0  0  0  0  0
  186.2850  178.3240  143.1700 C   0  0  0  0  0  0  0  0  0  0  0  0
  184.1760  179.2250  144.8330 C   0  0  0  0  0  3  0  0  0  0  0  0
  185.5030  178.4300  146.7070 N   0  0  0  0  0  0  0  0  0  0  0  0
  186.3380  178.1810  144.5560 C   0  0  0  0  0  0  0  0  0  0  0  0
  186.0560  178.2470  140.4290 N   0  0  0  0  0  2  0  0  0  0  0  0
  187.3890  177.8320  142.2790 C   0  0  0  0  0  2  0  0  0  0  0  0
  185.1290  178.9010  142.6000 C   0  0  0  0  0  0  0  0  0  0  0  0
  184.0950  179.3710  143.4400 C   0  0  0  0  0  3  0  0  0  0  0  0
  187.1990  177.5190  148.3040 C   0  0  0  0  0  2  0  0  0  0  0  0
  189.2100  178.2860  148.7990 C   0  0  0  0  0  1  0  0  0  0  0  0
  188.5520  177.1860  148.2380 O   0  0  0  0  0  0  0  0  0  0  0  0
  183.6940  178.7970  140.5370 C   0  0  0  0  0  2  0  0  0  0  0  0
  183.7470  178.7460  139.0210 C   0  0  0  0  0  2  0  0  0  0  0  0
  182.4500  175.2610  138.5240 C   0  0  0  0  0  3  0  0  0  0  0  0
  184.1360  176.7880  137.4610 C   0  0  0  0  0  0  0  0  0  0  0  0
  182.5530  176.5070  139.1440 C   0  0  0  0  0  3  0  0  0  0  0  0
  183.5400  175.2350  137.2380 S   0  0  0  0  0  0  0  0  0  0  0  0
  183.5010  177.3530  138.5520 C   0  0  0  0  0  0  0  0  0  0  0  0
  185.1360  177.4310  136.6630 N   0  0  0  0  0  2  0  0  0  0  0  0
  187.2410  178.6260  136.6950 C   0  0  0  0  0  1  0  0  0  0  0  0
  186.5620  177.2870  136.9150 C   0  0  2  0  0  3  0  0  0  0  0  0
  188.4800  176.0030  136.2960 O   0  0  0  0  0  1  0  0  0  0  0  0
  187.1470  176.2540  135.9670 C   0  0  0  0  0  2  0  0  0  0  0  0
  188.3020  177.8790  140.1210 C   0  0  0  0  0  2  0  0  0  0  0  0
  191.8030  177.3390  141.1510 N   0  0  0  0  0  0  0  0  0  0  0  0
  189.8680  178.3370  142.0030 C   0  0  0  0  0  3  0  0  0  0  0  0
  189.6170  177.8120  140.8180 C   0  0  0  0  0  0  0  0  0  0  0  0
  190.8320  177.2080  140.3150 C   0  0  0  0  0  0  0  0  0  0  0  0
  191.3160  178.0810  142.3130 C   0  0  1  0  0  3  0  0  0  0  0  0
  190.9750  176.4990  139.0140 C   0  0  0  0  0  1  0  0  0  0  0  0
  191.5500  177.7530  144.8520 C   0  0  0  0  0  3  0  0  0  0  0  0
  191.6800  176.6920  145.6590 N   0  0  0  0  0  0  0  0  0  0  0  0
  191.7820  176.7520  147.0540 N   0  0  0  0  0  1  0  0  0  0  0  0
  191.4680  177.2680  143.5610 C   0  0  0  0  0  0  0  0  0  0  0  0
  191.6800  175.5590  144.9350 C   0  0  0  0  0  3  0  0  0  0  0  0
  191.5500  175.8860  143.5940 C   0  0  0  0  0  3  0  0  0  0  0  0
  1  8  1  0  0  0  0
  2  4  1  0  0  0  0
  3 11  1  0  0  0  0
  4 14  1  0  0  0  0
  5 17  1  6  0  0  0
  5 12  1  0  0  0  0
  6  9  1  0  0  0  0
  7  1  1  0  0  0  0
  8  4  2  0  0  0  0
  9  1  2  0  0  0  0
  9  2  1  0  0  0  0
 10  3  1  0  0  0  0
 10  5  1  0  0  0  0
 11  6  1  0  0  0  0
 12  6  2  0  0  0  0
 12 13  1  0  0  0  0
 13  7  2  0  0  0  0
 16 14  1  0  0  0  0
 16 15  1  0  0  0  0
 18 17  1  0  0  0  0
 19 21  2  0  0  0  0
 20 23  2  0  0  0  0
 22 20  1  0  0  0  0
 22 19  1  0  0  0  0
 23 18  1  0  0  0  0
 23 21  1  0  0  0  0
 24 26  1  0  0  0  0
 24 20  1  0  0  0  0
 26 25  1  6  0  0  0
 28 27  1  0  0  0  0
 28 26  1  0  0  0  0
 29 32  1  0  0  0  0
 29  3  1  0  0  0  0
 30 34  1  0  0  0  0
 31 34  1  0  0  0  0
 32 31  2  0  0  0  0
 33 32  1  0  0  0  0
 33 30  2  0  0  0  0
 34 39  1  1  0  0  0
 35 33  1  0  0  0  0
 36 37  1  0  0  0  0
 37 38  1  0  0  0  0
 39 41  1  0  0  0  0
 39 36  2  0  0  0  0
 40 37  1  0  0  0  0
 41 40  2  0  0  0  0
M  END
>  <MODEL>
9

>  <REMARK>
 VINA RESULT:      -7.4      3.236      6.684
  Name = 
  11 active torsions:
  status: ('A' for Active; 'I' for Inactive)
    1  A    between atoms: N_8  and  C_35
    2  A    between atoms: C_9  and  C_15
    3  A    between atoms: C_12  and  C_29
    4  A    between atoms: C_14  and  N_33
    5  A    between atoms: C_15  and  O_31
    6  A    between atoms: C_17  and  C_35
    7  A    between atoms: CA_20  and  C_27
    8  A    between atoms: CA_20  and  N_33
    9  A    between atoms: C_21  and  C_29
   10  A    between atoms: C_21  and  C_37
   11  A    between atoms: C_22  and  C_38
                            x       y       z     vdW  Elec       q    Type
                         _______ _______ _______ _____ _____    ______ ____

>  <TORSDO>
F 11

$$$$
