=
 OpenBabel10222421103D

 29 30  0  0  1  0  0  0  0  0999 V2000
  190.5150  177.2340  140.1280 C   0  0  0  0  0  3  0  0  0  0  0  0
  187.9550  177.6300  143.6470 C   0  0  1  0  0  3  0  0  0  0  0  0
  191.0840  176.7680  142.8160 C   0  0  0  0  0  0  0  0  0  0  0  0
  189.7670  176.6320  142.3080 C   0  0  0  0  0  0  0  0  0  0  0  0
  189.8710  178.1320  145.2280 C   0  0  0  0  0  2  0  0  0  0  0  0
  191.5090  176.4590  144.2310 C   0  0  0  0  0  2  0  0  0  0  0  0
  189.5270  176.8810  140.9910 N   0  0  0  0  0  0  0  0  0  0  0  0
  192.1040  177.1200  141.9290 C   0  0  0  0  0  3  0  0  0  0  0  0
  188.3630  177.9800  145.0770 C   0  0  0  0  0  2  0  0  0  0  0  0
  188.5930  176.3230  143.1790 C   0  0  0  0  0  2  0  0  0  0  0  0
  191.8260  177.3540  140.5830 C   0  0  0  0  0  0  0  0  0  0  0  0
  190.4940  176.7480  145.3370 C   0  0  1  0  0  3  0  0  0  0  0  0
  190.5760  177.1020  147.7170 N   0  0  0  0  0  1  0  0  0  0  0  0
  192.2850  175.7560  146.8310 N   0  0  0  0  0  2  0  0  0  0  0  0
  191.1120  176.5500  146.6810 C   0  0  0  0  0  0  0  0  0  0  0  0
  185.7770  178.2160  142.6710 C   0  0  0  0  0  3  0  0  0  0  0  0
  186.4670  177.5280  143.5790 C   0  0  0  0  0  3  0  0  0  0  0  0
  184.2910  178.1090  142.6080 C   0  0  0  0  0  2  0  0  0  0  0  0
  183.7530  179.2670  142.0430 O   0  0  0  0  0  0  0  0  0  0  0  0
  183.7890  177.2840  140.1230 F   0  0  0  0  0  0  0  0  0  0  0  0
  183.6090  178.9280  140.3890 P   0  0  1  0  0  0  0  0  0  0  0  0
  182.0920  179.4270  139.8310 O   0  0  0  0  0  1  0  0  0  0  0  0
  184.6850  179.6730  139.6340 O   0  0  0  0  0  0  0  0  0  0  0  0
  192.9120  177.7590  139.6500 C   0  0  0  0  0  2  0  0  0  0  0  0
  193.6000  176.5790  139.1560 N   0  0  0  0  0  2  0  0  0  0  0  0
  193.1280  176.3590  137.8010 C   0  0  0  0  0  2  0  0  0  0  0  0
  192.6230  174.9350  137.6670 C   0  0  0  0  0  2  0  0  0  0  0  0
  191.2400  174.9250  137.0460 C   0  0  0  0  0  2  0  0  0  0  0  0
  190.4500  173.9470  137.6510 O   0  0  0  0  0  1  0  0  0  0  0  0
  1 11  2  0  0  0  0
  1  7  1  0  0  0  0
  2 17  1  1  0  0  0
  2  9  1  0  0  0  0
  3  6  1  0  0  0  0
  4  3  1  0  0  0  0
  4 10  1  0  0  0  0
  5 12  1  0  0  0  0
  6 12  1  0  0  0  0
  7  4  2  0  0  0  0
  8  3  2  0  0  0  0
  9  5  1  0  0  0  0
 10  2  1  0  0  0  0
 11  8  1  0  0  0  0
 12 15  1  1  0  0  0
 15 14  2  0  0  0  0
 15 13  1  0  0  0  0
 16 17  2  0  0  0  0
 18 16  1  0  0  0  0
 19 18  1  0  0  0  0
 20 21  1  0  0  0  0
 21 23  2  6  0  0  0
 21 19  1  0  0  0  0
 22 21  1  0  0  0  0
 24 11  1  0  0  0  0
 25 24  1  0  0  0  0
 26 25  1  0  0  0  0
 27 26  1  0  0  0  0
 28 29  1  0  0  0  0
 28 27  1  0  0  0  0
M  END
>  <MODEL>
1

>  <REMARK>
 VINA RESULT:      -7.1      0.000      0.000
  Name = 
  10 active torsions:
  status: ('A' for Active; 'I' for Inactive)
    1  A    between atoms: C_2  and  C_23
    2  A    between atoms: P_7  and  O_19
    3  A    between atoms: C_13  and  C_16
    4  A    between atoms: C_14  and  C_24
    5  A    between atoms: C_16  and  O_19
    6  A    between atoms: N_18  and  C_20
    7  A    between atoms: N_18  and  C_25
    8  A    between atoms: C_20  and  C_28
    9  A    between atoms: C_24  and  C_25
   10  A    between atoms: C_27  and  C_29
                            x       y       z     vdW  Elec       q    Type
                         _______ _______ _______ _____ _____    ______ ____

>  <TORSDO>
F 10

$$$$
=
 OpenBabel10222421103D

 29 30  0  0  1  0  0  0  0  0999 V2000
  188.8400  177.3480  140.5890 C   0  0  0  0  0  3  0  0  0  0  0  0
  187.6410  177.9530  144.7470 C   0  0  1  0  0  3  0  0  0  0  0  0
  190.1830  176.7180  142.9480 C   0  0  0  0  0  0  0  0  0  0  0  0
  188.7660  176.7740  142.9000 C   0  0  0  0  0  0  0  0  0  0  0  0
  190.0150  178.1440  145.6110 C   0  0  0  0  0  2  0  0  0  0  0  0
  190.9990  176.3070  144.1500 C   0  0  0  0  0  2  0  0  0  0  0  0
  188.1480  177.0980  141.7300 N   0  0  0  0  0  0  0  0  0  0  0  0
  190.8970  176.9640  141.7730 C   0  0  0  0  0  3  0  0  0  0  0  0
  188.5340  178.1960  145.9610 C   0  0  0  0  0  2  0  0  0  0  0  0
  187.9090  176.5900  144.1090 C   0  0  0  0  0  2  0  0  0  0  0  0
  190.2320  177.2790  140.5890 C   0  0  0  0  0  0  0  0  0  0  0  0
  190.4470  176.6880  145.5240 C   0  0  1  0  0  3  0  0  0  0  0  0
  192.2420  175.3700  146.4390 N   0  0  0  0  0  2  0  0  0  0  0  0
  191.4970  177.1460  147.7840 N   0  0  0  0  0  1  0  0  0  0  0  0
  191.4350  176.3650  146.5940 C   0  0  0  0  0  0  0  0  0  0  0  0
  185.3070  178.6340  144.3860 C   0  0  0  0  0  3  0  0  0  0  0  0
  186.2120  178.0490  145.1690 C   0  0  0  0  0  3  0  0  0  0  0  0
  183.8810  178.7260  144.8130 C   0  0  0  0  0  2  0  0  0  0  0  0
  183.2560  179.7920  144.1640 O   0  0  0  0  0  0  0  0  0  0  0  0
  181.2500  177.8990  144.2720 F   0  0  0  0  0  0  0  0  0  0  0  0
  181.9470  179.1030  143.3390 P   0  0  1  0  0  0  0  0  0  0  0  0
  180.7920  180.2920  142.9990 O   0  0  0  0  0  1  0  0  0  0  0  0
  182.4370  178.5030  142.0410 O   0  0  0  0  0  0  0  0  0  0  0  0
  191.0000  177.5710  139.3490 C   0  0  0  0  0  2  0  0  0  0  0  0
  190.0880  177.7110  138.2280 N   0  0  0  0  0  2  0  0  0  0  0  0
  190.4740  176.7130  137.2480 C   0  0  0  0  0  2  0  0  0  0  0  0
  191.7250  175.9980  137.7220 C   0  0  0  0  0  2  0  0  0  0  0  0
  191.7390  174.5700  137.2100 C   0  0  0  0  0  2  0  0  0  0  0  0
  190.5920  173.8990  137.6340 O   0  0  0  0  0  1  0  0  0  0  0  0
  1 11  2  0  0  0  0
  1  7  1  0  0  0  0
  2 17  1  1  0  0  0
  2  9  1  0  0  0  0
  3  6  1  0  0  0  0
  4  3  1  0  0  0  0
  4 10  1  0  0  0  0
  5  9  1  0  0  0  0
  6 12  1  0  0  0  0
  7  4  2  0  0  0  0
  8  3  2  0  0  0  0
 10  2  1  0  0  0  0
 11  8  1  0  0  0  0
 12  5  1  0  0  0  0
 12 15  1  1  0  0  0
 13 15  2  0  0  0  0
 15 14  1  0  0  0  0
 16 18  1  0  0  0  0
 16 17  2  0  0  0  0
 19 18  1  0  0  0  0
 21 23  2  6  0  0  0
 21 19  1  0  0  0  0
 21 20  1  0  0  0  0
 22 21  1  0  0  0  0
 24 11  1  0  0  0  0
 25 24  1  0  0  0  0
 26 27  1  0  0  0  0
 26 25  1  0  0  0  0
 28 29  1  0  0  0  0
 28 27  1  0  0  0  0
M  END
>  <MODEL>
2

>  <REMARK>
 VINA RESULT:      -7.1      1.862      2.133
  Name = 
  10 active torsions:
  status: ('A' for Active; 'I' for Inactive)
    1  A    between atoms: C_2  and  C_23
    2  A    between atoms: P_7  and  O_19
    3  A    between atoms: C_13  and  C_16
    4  A    between atoms: C_14  and  C_24
    5  A    between atoms: C_16  and  O_19
    6  A    between atoms: N_18  and  C_20
    7  A    between atoms: N_18  and  C_25
    8  A    between atoms: C_20  and  C_28
    9  A    between atoms: C_24  and  C_25
   10  A    between atoms: C_27  and  C_29
                            x       y       z     vdW  Elec       q    Type
                         _______ _______ _______ _____ _____    ______ ____

>  <TORSDO>
F 10

$$$$
=
 OpenBabel10222421103D

 29 30  0  0  1  0  0  0  0  0999 V2000
  184.4270  178.6490  139.9350 C   0  0  0  0  0  3  0  0  0  0  0  0
  188.0370  177.4240  142.0700 C   0  0  1  0  0  3  0  0  0  0  0  0
  184.9870  178.6750  142.6650 C   0  0  0  0  0  0  0  0  0  0  0  0
  186.0210  178.7890  141.7000 C   0  0  0  0  0  0  0  0  0  0  0  0
  186.8080  176.8090  144.1990 C   0  0  0  0  0  2  0  0  0  0  0  0
  185.1770  178.7610  144.1600 C   0  0  0  0  0  2  0  0  0  0  0  0
  185.7070  178.7600  140.3750 N   0  0  0  0  0  0  0  0  0  0  0  0
  183.6690  178.5710  142.2160 C   0  0  0  0  0  3  0  0  0  0  0  0
  188.1530  176.8610  143.4840 C   0  0  0  0  0  2  0  0  0  0  0  0
  187.4670  178.8420  142.0690 C   0  0  0  0  0  2  0  0  0  0  0  0
  183.3810  178.5580  140.8510 C   0  0  0  0  0  0  0  0  0  0  0  0
  186.4800  178.1980  144.7260 C   0  0  1  0  0  3  0  0  0  0  0  0
  187.4220  177.6680  146.8780 N   0  0  0  0  0  2  0  0  0  0  0  0
  185.3610  178.7970  146.9200 N   0  0  0  0  0  1  0  0  0  0  0  0
  186.4500  178.2030  146.2180 C   0  0  0  0  0  0  0  0  0  0  0  0
  189.5160  177.4220  140.1070 C   0  0  0  0  0  3  0  0  0  0  0  0
  189.3870  177.4140  141.4330 C   0  0  0  0  0  3  0  0  0  0  0  0
  190.8680  177.4130  139.4760 C   0  0  0  0  0  2  0  0  0  0  0  0
  190.7600  177.0960  138.1210 O   0  0  0  0  0  0  0  0  0  0  0  0
  192.5120  176.2500  136.1640 F   0  0  0  0  0  0  0  0  0  0  0  0
  192.1060  176.1240  137.7840 P   0  0  1  0  0  0  0  0  0  0  0  0
  193.4190  176.6120  138.7330 O   0  0  0  0  0  1  0  0  0  0  0  0
  191.7730  174.6850  138.1000 O   0  0  0  0  0  0  0  0  0  0  0  0
  181.9780  178.4170  140.3800 C   0  0  0  0  0  2  0  0  0  0  0  0
  181.2000  179.5700  140.7970 N   0  0  0  0  0  2  0  0  0  0  0  0
  180.0510  179.0590  141.5210 C   0  0  0  0  0  2  0  0  0  0  0  0
  179.9970  179.6940  142.8970 C   0  0  0  0  0  2  0  0  0  0  0  0
  180.4920  178.7160  143.9460 C   0  0  0  0  0  2  0  0  0  0  0  0
  179.6640  177.5930  143.9820 O   0  0  0  0  0  1  0  0  0  0  0  0
  1  7  2  0  0  0  0
  1 11  1  0  0  0  0
  2 17  1  1  0  0  0
  2  9  1  0  0  0  0
  3  6  1  0  0  0  0
  4 10  1  0  0  0  0
  4  3  2  0  0  0  0
  5 12  1  0  0  0  0
  6 12  1  0  0  0  0
  7  4  1  0  0  0  0
  8  3  1  0  0  0  0
  9  5  1  0  0  0  0
 10  2  1  0  0  0  0
 11  8  2  0  0  0  0
 12 15  1  1  0  0  0
 15 13  2  0  0  0  0
 15 14  1  0  0  0  0
 16 17  2  0  0  0  0
 18 16  1  0  0  0  0
 19 18  1  0  0  0  0
 21 20  1  6  0  0  0
 21 23  2  0  0  0  0
 21 19  1  0  0  0  0
 21 22  1  0  0  0  0
 24 25  1  0  0  0  0
 24 11  1  0  0  0  0
 25 26  1  0  0  0  0
 26 27  1  0  0  0  0
 27 28  1  0  0  0  0
 28 29  1  0  0  0  0
M  END
>  <MODEL>
3

>  <REMARK>
 VINA RESULT:      -7.1      4.208      8.375
  Name = 
  10 active torsions:
  status: ('A' for Active; 'I' for Inactive)
    1  A    between atoms: C_2  and  C_23
    2  A    between atoms: P_7  and  O_19
    3  A    between atoms: C_13  and  C_16
    4  A    between atoms: C_14  and  C_24
    5  A    between atoms: C_16  and  O_19
    6  A    between atoms: N_18  and  C_20
    7  A    between atoms: N_18  and  C_25
    8  A    between atoms: C_20  and  C_28
    9  A    between atoms: C_24  and  C_25
   10  A    between atoms: C_27  and  C_29
                            x       y       z     vdW  Elec       q    Type
                         _______ _______ _______ _____ _____    ______ ____

>  <TORSDO>
F 10

$$$$
=
 OpenBabel10222421103D

 29 30  0  0  1  0  0  0  0  0999 V2000
  184.6950  178.6960  140.0640 C   0  0  0  0  0  3  0  0  0  0  0  0
  188.6650  177.2800  141.2130 C   0  0  1  0  0  3  0  0  0  0  0  0
  185.8110  178.3600  142.5950 C   0  0  0  0  0  0  0  0  0  0  0  0
  186.6210  178.6320  141.4630 C   0  0  0  0  0  0  0  0  0  0  0  0
  187.9050  176.3470  143.4430 C   0  0  0  0  0  2  0  0  0  0  0  0
  186.3090  178.2440  144.0160 C   0  0  0  0  0  2  0  0  0  0  0  0
  186.0380  178.7770  140.2410 N   0  0  0  0  0  0  0  0  0  0  0  0
  184.4280  178.2860  142.4190 C   0  0  0  0  0  3  0  0  0  0  0  0
  189.0710  176.5310  142.4800 C   0  0  0  0  0  2  0  0  0  0  0  0
  188.1130  178.6700  141.5280 C   0  0  0  0  0  2  0  0  0  0  0  0
  183.8620  178.4530  141.1550 C   0  0  0  0  0  0  0  0  0  0  0  0
  187.6990  177.6420  144.2150 C   0  0  1  0  0  3  0  0  0  0  0  0
  187.0270  177.5720  146.5270 N   0  0  0  0  0  1  0  0  0  0  0  0
  189.2920  177.1030  146.1110 N   0  0  0  0  0  2  0  0  0  0  0  0
  187.9810  177.4410  145.6670 C   0  0  0  0  0  0  0  0  0  0  0  0
  189.8390  176.8570  139.0950 C   0  0  0  0  0  3  0  0  0  0  0  0
  189.8530  177.3920  140.3150 C   0  0  0  0  0  3  0  0  0  0  0  0
  191.0290  176.9730  138.2030 C   0  0  0  0  0  2  0  0  0  0  0  0
  191.5720  175.7080  137.9660 O   0  0  0  0  0  0  0  0  0  0  0  0
  193.6490  176.6890  136.4370 F   0  0  0  0  0  0  0  0  0  0  0  0
  193.2460  175.9520  137.8860 P   0  0  1  0  0  0  0  0  0  0  0  0
  193.7460  176.9300  139.1740 O   0  0  0  0  0  1  0  0  0  0  0  0
  193.9470  174.6170  137.9760 O   0  0  0  0  0  0  0  0  0  0  0  0
  182.3910  178.3430  140.9690 C   0  0  0  0  0  2  0  0  0  0  0  0
  181.9310  179.3770  140.0600 N   0  0  0  0  0  2  0  0  0  0  0  0
  180.5000  179.5070  140.2640 C   0  0  0  0  0  2  0  0  0  0  0  0
  180.1030  178.7790  141.5340 C   0  0  0  0  0  2  0  0  0  0  0  0
  179.2760  179.6880  142.4230 C   0  0  0  0  0  2  0  0  0  0  0  0
  180.0300  180.7980  142.8050 O   0  0  0  0  0  1  0  0  0  0  0  0
  1  7  2  0  0  0  0
  1 11  1  0  0  0  0
  2 17  1  6  0  0  0
  2 10  1  0  0  0  0
  2  9  1  0  0  0  0
  3  6  1  0  0  0  0
  4 10  1  0  0  0  0
  4  3  2  0  0  0  0
  5 12  1  0  0  0  0
  6 12  1  0  0  0  0
  7  4  1  0  0  0  0
  8  3  1  0  0  0  0
  9  5  1  0  0  0  0
 11  8  2  0  0  0  0
 12 15  1  1  0  0  0
 15 14  2  0  0  0  0
 15 13  1  0  0  0  0
 16 17  2  0  0  0  0
 18 16  1  0  0  0  0
 19 18  1  0  0  0  0
 21 20  1  6  0  0  0
 21 19  1  0  0  0  0
 21 23  2  0  0  0  0
 21 22  1  0  0  0  0
 24 11  1  0  0  0  0
 25 26  1  0  0  0  0
 25 24  1  0  0  0  0
 26 27  1  0  0  0  0
 27 28  1  0  0  0  0
 28 29  1  0  0  0  0
M  END
>  <MODEL>
4

>  <REMARK>
 VINA RESULT:      -7.0      4.058      8.339
  Name = 
  10 active torsions:
  status: ('A' for Active; 'I' for Inactive)
    1  A    between atoms: C_2  and  C_23
    2  A    between atoms: P_7  and  O_19
    3  A    between atoms: C_13  and  C_16
    4  A    between atoms: C_14  and  C_24
    5  A    between atoms: C_16  and  O_19
    6  A    between atoms: N_18  and  C_20
    7  A    between atoms: N_18  and  C_25
    8  A    between atoms: C_20  and  C_28
    9  A    between atoms: C_24  and  C_25
   10  A    between atoms: C_27  and  C_29
                            x       y       z     vdW  Elec       q    Type
                         _______ _______ _______ _____ _____    ______ ____

>  <TORSDO>
F 10

$$$$
=
 OpenBabel10222421103D

 29 30  0  0  1  0  0  0  0  0999 V2000
  183.5510  178.6620  140.2820 C   0  0  0  0  0  3  0  0  0  0  0  0
  187.4180  177.6930  142.0690 C   0  0  1  0  0  3  0  0  0  0  0  0
  184.3770  178.7940  142.9400 C   0  0  0  0  0  0  0  0  0  0  0  0
  185.3010  178.9370  141.8740 C   0  0  0  0  0  0  0  0  0  0  0  0
  186.4440  177.0730  144.3240 C   0  0  0  0  0  2  0  0  0  0  0  0
  184.7090  178.9330  144.4060 C   0  0  0  0  0  2  0  0  0  0  0  0
  184.8590  178.8540  140.5890 N   0  0  0  0  0  0  0  0  0  0  0  0
  183.0290  178.6080  142.6290 C   0  0  0  0  0  3  0  0  0  0  0  0
  187.7060  177.1770  143.4770 C   0  0  0  0  0  2  0  0  0  0  0  0
  186.7720  179.0770  142.0930 C   0  0  0  0  0  2  0  0  0  0  0  0
  182.6080  178.5410  141.3010 C   0  0  0  0  0  0  0  0  0  0  0  0
  186.0920  178.4560  144.8500 C   0  0  1  0  0  3  0  0  0  0  0  0
  185.2720  179.0450  147.0360 N   0  0  0  0  0  1  0  0  0  0  0  0
  187.3490  177.9480  146.9910 N   0  0  0  0  0  2  0  0  0  0  0  0
  186.2110  178.5020  146.3370 C   0  0  0  0  0  0  0  0  0  0  0  0
  188.6900  177.8010  139.9680 C   0  0  0  0  0  3  0  0  0  0  0  0
  188.6970  177.7370  141.2990 C   0  0  0  0  0  3  0  0  0  0  0  0
  189.9720  177.8450  139.2050 C   0  0  0  0  0  2  0  0  0  0  0  0
  189.8660  177.0660  138.0520 O   0  0  0  0  0  0  0  0  0  0  0  0
  187.3190  177.4990  137.0820 F   0  0  0  0  0  0  0  0  0  0  0  0
  188.9210  177.9800  136.9840 P   0  0  1  0  0  0  0  0  0  0  0  0
  189.0410  179.6230  137.3720 O   0  0  0  0  0  1  0  0  0  0  0  0
  189.4170  177.7660  135.5730 O   0  0  0  0  0  0  0  0  0  0  0  0
  181.1750  178.3110  140.9770 C   0  0  0  0  0  2  0  0  0  0  0  0
  180.4210  179.5350  141.1870 N   0  0  0  0  0  2  0  0  0  0  0  0
  179.2590  179.1780  141.9810 C   0  0  0  0  0  2  0  0  0  0  0  0
  179.3170  179.8990  143.3140 C   0  0  0  0  0  2  0  0  0  0  0  0
  179.5380  178.9050  144.4380 C   0  0  0  0  0  2  0  0  0  0  0  0
  179.6360  177.6120  143.9220 O   0  0  0  0  0  1  0  0  0  0  0  0
  1  7  2  0  0  0  0
  1 11  1  0  0  0  0
  2 17  1  6  0  0  0
  2 10  1  0  0  0  0
  2  9  1  0  0  0  0
  3  6  1  0  0  0  0
  4 10  1  0  0  0  0
  4  3  2  0  0  0  0
  5 12  1  0  0  0  0
  6 12  1  0  0  0  0
  7  4  1  0  0  0  0
  8  3  1  0  0  0  0
  9  5  1  0  0  0  0
 11  8  2  0  0  0  0
 12 15  1  1  0  0  0
 15 14  2  0  0  0  0
 15 13  1  0  0  0  0
 16 17  2  0  0  0  0
 18 16  1  0  0  0  0
 19 18  1  0  0  0  0
 21 23  2  6  0  0  0
 21 20  1  0  0  0  0
 21 22  1  0  0  0  0
 21 19  1  0  0  0  0
 24 25  1  0  0  0  0
 24 11  1  0  0  0  0
 25 26  1  0  0  0  0
 26 27  1  0  0  0  0
 27 28  1  0  0  0  0
 29 28  1  0  0  0  0
M  END
>  <MODEL>
5

>  <REMARK>
 VINA RESULT:      -7.0      3.939      8.225
  Name = 
  10 active torsions:
  status: ('A' for Active; 'I' for Inactive)
    1  A    between atoms: C_2  and  C_23
    2  A    between atoms: P_7  and  O_19
    3  A    between atoms: C_13  and  C_16
    4  A    between atoms: C_14  and  C_24
    5  A    between atoms: C_16  and  O_19
    6  A    between atoms: N_18  and  C_20
    7  A    between atoms: N_18  and  C_25
    8  A    between atoms: C_20  and  C_28
    9  A    between atoms: C_24  and  C_25
   10  A    between atoms: C_27  and  C_29
                            x       y       z     vdW  Elec       q    Type
                         _______ _______ _______ _____ _____    ______ ____

>  <TORSDO>
F 10

$$$$
=
 OpenBabel10222421103D

 29 30  0  0  1  0  0  0  0  0999 V2000
  183.8450  178.6470  140.4760 C   0  0  0  0  0  3  0  0  0  0  0  0
  187.6400  177.5180  142.3230 C   0  0  1  0  0  3  0  0  0  0  0  0
  184.6600  178.8130  143.1350 C   0  0  0  0  0  0  0  0  0  0  0  0
  185.5980  178.8720  142.0730 C   0  0  0  0  0  0  0  0  0  0  0  0
  186.6180  177.0210  144.5870 C   0  0  0  0  0  2  0  0  0  0  0  0
  184.9890  178.9760  144.6000 C   0  0  0  0  0  2  0  0  0  0  0  0
  185.1600  178.7740  140.7870 N   0  0  0  0  0  0  0  0  0  0  0  0
  183.3050  178.6920  142.8190 C   0  0  0  0  0  3  0  0  0  0  0  0
  187.8890  177.0290  143.7480 C   0  0  0  0  0  2  0  0  0  0  0  0
  187.0720  178.9360  142.3010 C   0  0  0  0  0  2  0  0  0  0  0  0
  182.8900  178.6090  141.4900 C   0  0  0  0  0  0  0  0  0  0  0  0
  186.3400  178.4370  145.0690 C   0  0  1  0  0  3  0  0  0  0  0  0
  185.6490  179.2890  147.2130 N   0  0  0  0  0  2  0  0  0  0  0  0
  187.4320  177.7590  147.2530 N   0  0  0  0  0  1  0  0  0  0  0  0
  186.4510  178.5210  146.5550 C   0  0  0  0  0  0  0  0  0  0  0  0
  188.9280  177.4400  140.2310 C   0  0  0  0  0  3  0  0  0  0  0  0
  188.9250  177.4680  141.5630 C   0  0  0  0  0  3  0  0  0  0  0  0
  190.2150  177.3900  139.4770 C   0  0  0  0  0  2  0  0  0  0  0  0
  190.6860  176.0770  139.4250 O   0  0  0  0  0  0  0  0  0  0  0  0
  189.1710  176.2070  137.1210 F   0  0  0  0  0  0  0  0  0  0  0  0
  190.5980  175.6390  137.7910 P   0  0  1  0  0  0  0  0  0  0  0  0
  191.9140  176.2910  136.9500 O   0  0  0  0  0  0  0  0  0  0  0  0
  190.6330  174.1330  137.6770 O   0  0  0  0  0  1  0  0  0  0  0  0
  181.4480  178.4500  141.1610 C   0  0  0  0  0  2  0  0  0  0  0  0
  181.1470  179.1470  139.9240 N   0  0  0  0  0  2  0  0  0  0  0  0
  180.3390  180.2990  140.2800 C   0  0  0  0  0  2  0  0  0  0  0  0
  180.4510  181.3510  139.1940 C   0  0  0  0  0  2  0  0  0  0  0  0
  181.7060  181.1240  138.3710 C   0  0  0  0  0  2  0  0  0  0  0  0
  182.6730  182.0740  138.7030 O   0  0  0  0  0  1  0  0  0  0  0  0
  1  7  2  0  0  0  0
  1 11  1  0  0  0  0
  2 17  1  6  0  0  0
  2  9  1  0  0  0  0
  3  6  1  0  0  0  0
  4 10  1  0  0  0  0
  4  3  2  0  0  0  0
  5 12  1  0  0  0  0
  6 12  1  0  0  0  0
  7  4  1  0  0  0  0
  8  3  1  0  0  0  0
  9  5  1  0  0  0  0
 10  2  1  0  0  0  0
 11  8  2  0  0  0  0
 12 15  1  1  0  0  0
 15 13  2  0  0  0  0
 15 14  1  0  0  0  0
 16 17  2  0  0  0  0
 18 16  1  0  0  0  0
 19 18  1  0  0  0  0
 20 21  1  0  0  0  0
 21 22  2  6  0  0  0
 21 19  1  0  0  0  0
 23 21  1  0  0  0  0
 24 11  1  0  0  0  0
 25 26  1  0  0  0  0
 25 24  1  0  0  0  0
 27 26  1  0  0  0  0
 28 29  1  0  0  0  0
 28 27  1  0  0  0  0
M  END
>  <MODEL>
6

>  <REMARK>
 VINA RESULT:      -6.9      3.772      7.962
  Name = 
  10 active torsions:
  status: ('A' for Active; 'I' for Inactive)
    1  A    between atoms: C_2  and  C_23
    2  A    between atoms: P_7  and  O_19
    3  A    between atoms: C_13  and  C_16
    4  A    between atoms: C_14  and  C_24
    5  A    between atoms: C_16  and  O_19
    6  A    between atoms: N_18  and  C_20
    7  A    between atoms: N_18  and  C_25
    8  A    between atoms: C_20  and  C_28
    9  A    between atoms: C_24  and  C_25
   10  A    between atoms: C_27  and  C_29
                            x       y       z     vdW  Elec       q    Type
                         _______ _______ _______ _____ _____    ______ ____

>  <TORSDO>
F 10

$$$$
=
 OpenBabel10222421103D

 29 30  0  0  1  0  0  0  0  0999 V2000
  191.2930  176.3600  144.3760 C   0  0  0  0  0  3  0  0  0  0  0  0
  189.8890  177.6140  140.4330 C   0  0  1  0  0  3  0  0  0  0  0  0
  188.7550  177.1660  143.5520 C   0  0  0  0  0  0  0  0  0  0  0  0
  189.6650  176.5610  142.6480 C   0  0  0  0  0  0  0  0  0  0  0  0
  188.0560  179.1080  141.3420 C   0  0  0  0  0  2  0  0  0  0  0  0
  187.3340  177.5590  143.2270 C   0  0  0  0  0  2  0  0  0  0  0  0
  190.9000  176.1930  143.0870 N   0  0  0  0  0  0  0  0  0  0  0  0
  189.1510  177.3300  144.8820 C   0  0  0  0  0  3  0  0  0  0  0  0
  188.7670  178.5940  140.0970 C   0  0  0  0  0  2  0  0  0  0  0  0
  189.3680  176.3950  141.1940 C   0  0  0  0  0  2  0  0  0  0  0  0
  190.4190  176.9290  145.3010 C   0  0  0  0  0  0  0  0  0  0  0  0
  187.0610  178.0550  141.8080 C   0  0  1  0  0  3  0  0  0  0  0  0
  184.7930  178.2520  142.5900 N   0  0  0  0  0  1  0  0  0  0  0  0
  185.2780  179.3780  140.5860 N   0  0  0  0  0  2  0  0  0  0  0  0
  185.6620  178.5590  141.6870 C   0  0  0  0  0  0  0  0  0  0  0  0
  191.8090  176.7450  139.1670 C   0  0  0  0  0  3  0  0  0  0  0  0
  190.5500  177.1820  139.1650 C   0  0  0  0  0  3  0  0  0  0  0  0
  192.4640  176.3150  137.8980 C   0  0  0  0  0  2  0  0  0  0  0  0
  193.8520  176.3780  138.0330 O   0  0  0  0  0  0  0  0  0  0  0  0
  194.3250  173.6630  138.1880 F   0  0  0  0  0  0  0  0  0  0  0  0
  194.4400  175.0190  137.2110 P   0  0  1  0  0  0  0  0  0  0  0  0
  193.5440  174.7710  135.7960 O   0  0  0  0  0  0  0  0  0  0  0  0
  195.8880  175.2460  136.8470 O   0  0  0  0  0  1  0  0  0  0  0  0
  190.8460  177.1350  146.7110 C   0  0  0  0  0  2  0  0  0  0  0  0
  189.7220  176.9090  147.6020 N   0  0  0  0  0  2  0  0  0  0  0  0
  189.5350  178.1350  148.3570 C   0  0  0  0  0  2  0  0  0  0  0  0
  188.0830  178.2520  148.7790 C   0  0  0  0  0  2  0  0  0  0  0  0
  187.1700  177.8840  147.6260 C   0  0  0  0  0  2  0  0  0  0  0  0
  186.3310  178.9560  147.3190 O   0  0  0  0  0  1  0  0  0  0  0  0
  1 11  1  0  0  0  0
  2 17  1  6  0  0  0
  2 10  1  0  0  0  0
  3  8  1  0  0  0  0
  4  7  1  0  0  0  0
  4  3  2  0  0  0  0
  5 12  1  0  0  0  0
  6  3  1  0  0  0  0
  7  1  2  0  0  0  0
  8 11  2  0  0  0  0
  9  2  1  0  0  0  0
  9  5  1  0  0  0  0
 10  4  1  0  0  0  0
 11 24  1  0  0  0  0
 12 15  1  1  0  0  0
 12  6  1  0  0  0  0
 14 15  2  0  0  0  0
 15 13  1  0  0  0  0
 17 16  2  0  0  0  0
 18 19  1  0  0  0  0
 18 16  1  0  0  0  0
 21 22  2  6  0  0  0
 21 19  1  0  0  0  0
 21 20  1  0  0  0  0
 23 21  1  0  0  0  0
 24 25  1  0  0  0  0
 25 26  1  0  0  0  0
 26 27  1  0  0  0  0
 28 27  1  0  0  0  0
 29 28  1  0  0  0  0
M  END
>  <MODEL>
7

>  <REMARK>
 VINA RESULT:      -6.8      4.253      8.302
  Name = 
  10 active torsions:
  status: ('A' for Active; 'I' for Inactive)
    1  A    between atoms: C_2  and  C_23
    2  A    between atoms: P_7  and  O_19
    3  A    between atoms: C_13  and  C_16
    4  A    between atoms: C_14  and  C_24
    5  A    between atoms: C_16  and  O_19
    6  A    between atoms: N_18  and  C_20
    7  A    between atoms: N_18  and  C_25
    8  A    between atoms: C_20  and  C_28
    9  A    between atoms: C_24  and  C_25
   10  A    between atoms: C_27  and  C_29
                            x       y       z     vdW  Elec       q    Type
                         _______ _______ _______ _____ _____    ______ ____

>  <TORSDO>
F 10

$$$$
=
 OpenBabel10222421103D

 29 30  0  0  1  0  0  0  0  0999 V2000
  191.2990  176.3200  144.3790 C   0  0  0  0  0  3  0  0  0  0  0  0
  189.8900  177.5700  140.4370 C   0  0  1  0  0  3  0  0  0  0  0  0
  188.7710  177.1670  143.5680 C   0  0  0  0  0  0  0  0  0  0  0  0
  189.6630  176.5380  142.6620 C   0  0  0  0  0  0  0  0  0  0  0  0
  188.0920  179.1060  141.3480 C   0  0  0  0  0  2  0  0  0  0  0  0
  187.3560  177.5850  143.2500 C   0  0  0  0  0  2  0  0  0  0  0  0
  190.8950  176.1500  143.0940 N   0  0  0  0  0  0  0  0  0  0  0  0
  189.1800  177.3330  144.8930 C   0  0  0  0  0  3  0  0  0  0  0  0
  188.7850  178.5700  140.1020 C   0  0  0  0  0  2  0  0  0  0  0  0
  189.3520  176.3680  141.2110 C   0  0  0  0  0  2  0  0  0  0  0  0
  190.4440  176.9120  145.3060 C   0  0  0  0  0  0  0  0  0  0  0  0
  187.0820  178.0750  141.8290 C   0  0  1  0  0  3  0  0  0  0  0  0
  185.3810  179.3760  140.7290 N   0  0  0  0  0  2  0  0  0  0  0  0
  184.7030  178.2620  142.6840 N   0  0  0  0  0  1  0  0  0  0  0  0
  185.6920  178.6040  141.7150 C   0  0  0  0  0  0  0  0  0  0  0  0
  191.8330  176.8250  139.1290 C   0  0  0  0  0  3  0  0  0  0  0  0
  190.5340  177.1170  139.1680 C   0  0  0  0  0  3  0  0  0  0  0  0
  192.4700  176.3720  137.8580 C   0  0  0  0  0  2  0  0  0  0  0  0
  192.7980  175.0180  137.9450 O   0  0  0  0  0  0  0  0  0  0  0  0
  192.4670  172.8080  136.3270 F   0  0  0  0  0  0  0  0  0  0  0  0
  191.7720  174.2410  136.8450 P   0  0  1  0  0  0  0  0  0  0  0  0
  190.2840  173.9110  137.5820 O   0  0  0  0  0  1  0  0  0  0  0  0
  191.5460  175.1420  135.6530 O   0  0  0  0  0  0  0  0  0  0  0  0
  190.8850  177.1200  146.7110 C   0  0  0  0  0  2  0  0  0  0  0  0
  189.7720  176.8880  147.6150 N   0  0  0  0  0  2  0  0  0  0  0  0
  189.4870  178.1560  148.2610 C   0  0  0  0  0  2  0  0  0  0  0  0
  188.0340  178.1880  148.6930 C   0  0  0  0  0  2  0  0  0  0  0  0
  187.1290  177.8780  147.5150 C   0  0  0  0  0  2  0  0  0  0  0  0
  186.2370  178.9300  147.3080 O   0  0  0  0  0  1  0  0  0  0  0  0
  1 11  1  0  0  0  0
  2 17  1  6  0  0  0
  2 10  1  0  0  0  0
  3  8  1  0  0  0  0
  4  7  1  0  0  0  0
  4  3  2  0  0  0  0
  5 12  1  0  0  0  0
  6  3  1  0  0  0  0
  7  1  2  0  0  0  0
  8 11  2  0  0  0  0
  9  2  1  0  0  0  0
  9  5  1  0  0  0  0
 10  4  1  0  0  0  0
 11 24  1  0  0  0  0
 12 15  1  1  0  0  0
 12  6  1  0  0  0  0
 13 15  2  0  0  0  0
 15 14  1  0  0  0  0
 16 17  2  0  0  0  0
 18 19  1  0  0  0  0
 18 16  1  0  0  0  0
 20 21  1  0  0  0  0
 21 23  2  6  0  0  0
 21 22  1  0  0  0  0
 21 19  1  0  0  0  0
 24 25  1  0  0  0  0
 25 26  1  0  0  0  0
 26 27  1  0  0  0  0
 28 27  1  0  0  0  0
 29 28  1  0  0  0  0
M  END
>  <MODEL>
8

>  <REMARK>
 VINA RESULT:      -6.8      3.936      7.850
  Name = 
  10 active torsions:
  status: ('A' for Active; 'I' for Inactive)
    1  A    between atoms: C_2  and  C_23
    2  A    between atoms: P_7  and  O_19
    3  A    between atoms: C_13  and  C_16
    4  A    between atoms: C_14  and  C_24
    5  A    between atoms: C_16  and  O_19
    6  A    between atoms: N_18  and  C_20
    7  A    between atoms: N_18  and  C_25
    8  A    between atoms: C_20  and  C_28
    9  A    between atoms: C_24  and  C_25
   10  A    between atoms: C_27  and  C_29
                            x       y       z     vdW  Elec       q    Type
                         _______ _______ _______ _____ _____    ______ ____

>  <TORSDO>
F 10

$$$$
=
 OpenBabel10222421103D

 29 30  0  0  1  0  0  0  0  0999 V2000
  189.7770  177.1070  140.5290 C   0  0  0  0  0  3  0  0  0  0  0  0
  187.5180  177.7240  144.2180 C   0  0  1  0  0  3  0  0  0  0  0  0
  190.5540  176.7570  143.1830 C   0  0  0  0  0  0  0  0  0  0  0  0
  189.1980  176.6260  142.7890 C   0  0  0  0  0  0  0  0  0  0  0  0
  189.5640  178.2590  145.6150 C   0  0  0  0  0  2  0  0  0  0  0  0
  191.0870  176.5070  144.5730 C   0  0  0  0  0  2  0  0  0  0  0  0
  188.8570  176.8170  141.4850 N   0  0  0  0  0  0  0  0  0  0  0  0
  191.5050  177.0450  142.2010 C   0  0  0  0  0  3  0  0  0  0  0  0
  188.0460  178.1330  145.5920 C   0  0  0  0  0  2  0  0  0  0  0  0
  188.0930  176.3830  143.7660 C   0  0  0  0  0  2  0  0  0  0  0  0
  191.1230  177.2210  140.8710 C   0  0  0  0  0  0  0  0  0  0  0  0
  190.1700  176.8690  145.7410 C   0  0  1  0  0  3  0  0  0  0  0  0
  190.4800  177.3750  148.0740 N   0  0  0  0  0  1  0  0  0  0  0  0
  192.0260  175.8680  147.1460 N   0  0  0  0  0  2  0  0  0  0  0  0
  190.8910  176.7230  147.0390 C   0  0  0  0  0  0  0  0  0  0  0  0
  185.2810  178.7060  143.9560 C   0  0  0  0  0  3  0  0  0  0  0  0
  186.0280  177.6510  144.2740 C   0  0  0  0  0  3  0  0  0  0  0  0
  183.7920  178.6260  144.0140 C   0  0  0  0  0  2  0  0  0  0  0  0
  183.2330  179.4170  143.0090 O   0  0  0  0  0  0  0  0  0  0  0  0
  181.1940  178.1300  144.3520 F   0  0  0  0  0  0  0  0  0  0  0  0
  181.5920  179.0000  142.9770 P   0  0  1  0  0  0  0  0  0  0  0  0
  180.6440  180.4000  142.9030 O   0  0  0  0  0  1  0  0  0  0  0  0
  181.3180  178.1510  141.7580 O   0  0  0  0  0  0  0  0  0  0  0  0
  192.1370  177.5570  139.8360 C   0  0  0  0  0  2  0  0  0  0  0  0
  191.9100  176.7550  138.6470 N   0  0  0  0  0  2  0  0  0  0  0  0
  193.1340  176.0140  138.4050 C   0  0  0  0  0  2  0  0  0  0  0  0
  193.1240  175.4710  136.9890 C   0  0  0  0  0  2  0  0  0  0  0  0
  194.1300  176.2180  136.1330 C   0  0  0  0  0  2  0  0  0  0  0  0
  195.3660  175.5710  136.1740 O   0  0  0  0  0  1  0  0  0  0  0  0
  1 11  2  0  0  0  0
  1  7  1  0  0  0  0
  2 17  1  1  0  0  0
  2  9  1  0  0  0  0
  3  6  1  0  0  0  0
  4  3  1  0  0  0  0
  4 10  1  0  0  0  0
  5 12  1  0  0  0  0
  6 12  1  0  0  0  0
  7  4  2  0  0  0  0
  8  3  2  0  0  0  0
  9  5  1  0  0  0  0
 10  2  1  0  0  0  0
 11  8  1  0  0  0  0
 12 15  1  1  0  0  0
 15 14  2  0  0  0  0
 15 13  1  0  0  0  0
 16 18  1  0  0  0  0
 16 17  2  0  0  0  0
 19 18  1  0  0  0  0
 21 23  2  6  0  0  0
 21 19  1  0  0  0  0
 21 20  1  0  0  0  0
 22 21  1  0  0  0  0
 24 11  1  0  0  0  0
 25 24  1  0  0  0  0
 26 25  1  0  0  0  0
 27 26  1  0  0  0  0
 28 29  1  0  0  0  0
 28 27  1  0  0  0  0
M  END
>  <MODEL>
9

>  <REMARK>
 VINA RESULT:      -6.6      1.918      2.075
  Name = 
  10 active torsions:
  status: ('A' for Active; 'I' for Inactive)
    1  A    between atoms: C_2  and  C_23
    2  A    between atoms: P_7  and  O_19
    3  A    between atoms: C_13  and  C_16
    4  A    between atoms: C_14  and  C_24
    5  A    between atoms: C_16  and  O_19
    6  A    between atoms: N_18  and  C_20
    7  A    between atoms: N_18  and  C_25
    8  A    between atoms: C_20  and  C_28
    9  A    between atoms: C_24  and  C_25
   10  A    between atoms: C_27  and  C_29
                            x       y       z     vdW  Elec       q    Type
                         _______ _______ _______ _____ _____    ______ ____

>  <TORSDO>
F 10

$$$$
