=
 OpenBabel10222415533D

 29 30  0  0  1  0  0  0  0  0999 V2000
  191.1370  177.1810  145.0250 N   0  0  0  0  0  0  0  0  0  0  0  0
  192.3950  175.5350  146.0570 O   0  0  0  0  0  0  0  0  0  0  0  0
  191.5320  176.4390  146.1900 C   0  0  0  0  0  0  0  0  0  0  0  0
  189.9800  177.6890  144.6920 C   0  0  0  0  0  0  0  0  0  0  0  0
  188.7630  176.8180  146.7620 C   0  0  0  0  0  2  0  0  0  0  0  0
  188.7770  177.5090  145.4840 N   0  0  0  0  0  0  0  0  0  0  0  0
  189.7530  177.4800  147.6890 C   0  0  0  0  0  2  0  0  0  0  0  0
  191.0960  176.7850  147.5870 C   0  0  0  0  0  2  0  0  0  0  0  0
  186.5230  178.1630  146.2060 C   0  0  0  0  0  2  0  0  0  0  0  0
  186.8780  177.2180  143.9340 C   0  0  0  0  0  0  0  0  0  0  0  0
  187.5720  176.3360  143.3610 O   0  0  0  0  0  0  0  0  0  0  0  0
  185.6110  179.3130  145.9750 C   0  0  0  0  0  3  0  0  0  0  0  0
  187.4830  178.0350  145.0410 C   0  0  2  0  0  3  0  0  0  0  0  0
  184.7690  179.4090  144.9490 C   0  0  0  0  0  3  0  0  0  0  0  0
  183.5330  178.5410  143.1660 O   0  0  0  0  0  0  0  0  0  0  0  0
  185.5410  177.4380  143.4680 N   0  0  0  0  0  2  0  0  0  0  0  0
  184.5890  178.4460  143.8440 C   0  0  0  0  0  0  0  0  0  0  0  0
  189.8860  178.4210  143.5020 O   0  0  0  0  0  0  0  0  0  0  0  0
  190.6570  178.1210  142.3460 C   0  0  0  0  0  2  0  0  0  0  0  0
  189.7700  177.5270  141.2570 C   0  0  1  0  0  3  0  0  0  0  0  0
  188.9300  178.5870  140.5310 C   0  0  2  0  0  3  0  0  0  0  0  0
  187.7510  178.8050  141.2500 O   0  0  0  0  0  1  0  0  0  0  0  0
  188.6060  178.2430  139.0680 C   0  0  2  0  0  3  0  0  0  0  0  0
  189.0380  179.3170  138.1890 N   0  0  0  0  0  1  0  0  0  0  0  0
  187.1110  178.0220  138.8850 C   0  0  0  0  0  2  0  0  0  0  0  0
  186.7190  177.7300  137.1330 S   0  0  0  0  0  0  0  0  0  0  0  0
  187.3280  176.0200  137.1900 C   0  0  0  0  0  1  0  0  0  0  0  0
  190.5160  176.5680  140.3240 C   0  0  0  0  0  2  0  0  0  0  0  0
  191.7670  177.0760  139.9710 O   0  0  0  0  0  1  0  0  0  0  0  0
  1  3  1  0  0  0  0
  2  3  2  0  0  0  0
  3  8  1  0  0  0  0
  4  1  2  0  0  0  0
  4  6  1  0  0  0  0
  5  7  1  0  0  0  0
  6  5  1  0  0  0  0
  8  7  1  0  0  0  0
 10 13  1  0  0  0  0
 11 10  2  0  0  0  0
 12  9  1  0  0  0  0
 13  6  1  1  0  0  0
 13  9  1  0  0  0  0
 14 12  2  0  0  0  0
 15 17  2  0  0  0  0
 16 17  1  0  0  0  0
 16 10  1  0  0  0  0
 17 14  1  0  0  0  0
 18  4  1  0  0  0  0
 19 18  1  0  0  0  0
 20 28  1  6  0  0  0
 20 19  1  0  0  0  0
 21 22  1  1  0  0  0
 21 20  1  0  0  0  0
 23 24  1  6  0  0  0
 23 21  1  0  0  0  0
 25 23  1  0  0  0  0
 26 27  1  0  0  0  0
 26 25  1  0  0  0  0
 29 28  1  0  0  0  0
M  END
>  <MODEL>
1

>  <REMARK>
 VINA RESULT:      -7.2      0.000      0.000
  Name = 
  9 active torsions:
  status: ('A' for Active; 'I' for Inactive)
    1  A    between atoms: C_2  and  C_4
    2  A    between atoms: C_2  and  C_18
    3  A    between atoms: C_4  and  C_17
    4  A    between atoms: C_5  and  C_18
    5  A    between atoms: S_9  and  C_17
    6  A    between atoms: C_10  and  O_12
    7  A    between atoms: O_12  and  C_16
    8  A    between atoms: C_16  and  C_18
    9  A    between atoms: C_19  and  N_22
                            x       y       z     vdW  Elec       q    Type
                         _______ _______ _______ _____ _____    ______ ____

>  <TORSDO>
F 9

$$$$
=
 OpenBabel10222415533D

 29 30  0  0  1  0  0  0  0  0999 V2000
  187.3010  178.1690  139.4880 N   0  0  0  0  0  0  0  0  0  0  0  0
  186.9500  177.0020  137.5200 O   0  0  0  0  0  0  0  0  0  0  0  0
  187.7830  177.5560  138.2820 C   0  0  0  0  0  0  0  0  0  0  0  0
  187.8510  178.2710  140.6690 C   0  0  0  0  0  0  0  0  0  0  0  0
  189.9480  176.9560  140.0390 C   0  0  0  0  0  2  0  0  0  0  0  0
  189.1250  177.6640  141.0060 N   0  0  0  0  0  0  0  0  0  0  0  0
  190.2410  177.8750  138.8780 C   0  0  0  0  0  2  0  0  0  0  0  0
  189.2000  177.6780  137.7930 C   0  0  0  0  0  2  0  0  0  0  0  0
  191.1900  177.6800  142.3360 C   0  0  0  0  0  2  0  0  0  0  0  0
  189.1120  176.6860  143.2720 C   0  0  0  0  0  0  0  0  0  0  0  0
  188.1220  176.0030  142.8950 O   0  0  0  0  0  0  0  0  0  0  0  0
  191.7380  178.4820  143.4590 C   0  0  0  0  0  3  0  0  0  0  0  0
  189.6760  177.7400  142.3610 C   0  0  2  0  0  3  0  0  0  0  0  0
  191.5030  178.2330  144.7450 C   0  0  0  0  0  3  0  0  0  0  0  0
  190.8170  176.8830  146.5250 O   0  0  0  0  0  0  0  0  0  0  0  0
  189.6330  176.4570  144.5870 N   0  0  0  0  0  2  0  0  0  0  0  0
  190.6520  177.1660  145.3110 C   0  0  0  0  0  0  0  0  0  0  0  0
  187.1690  178.9770  141.6680 O   0  0  0  0  0  0  0  0  0  0  0  0
  185.8250  179.4170  141.5240 C   0  0  0  0  0  2  0  0  0  0  0  0
  184.8820  178.5040  142.3010 C   0  0  1  0  0  3  0  0  0  0  0  0
  184.3480  179.1540  143.5850 C   0  0  2  0  0  3  0  0  0  0  0  0
  184.9300  180.4160  143.7330 O   0  0  0  0  0  1  0  0  0  0  0  0
  184.5620  178.3140  144.8540 C   0  0  2  0  0  3  0  0  0  0  0  0
  183.7730  178.8470  145.9520 N   0  0  0  0  0  1  0  0  0  0  0  0
  186.0320  178.3100  145.2550 C   0  0  0  0  0  2  0  0  0  0  0  0
  186.2210  178.8250  146.9890 S   0  0  0  0  0  0  0  0  0  0  0  0
  187.4800  177.5590  147.3200 C   0  0  0  0  0  1  0  0  0  0  0  0
  183.8020  177.8630  141.4250 C   0  0  0  0  0  2  0  0  0  0  0  0
  183.4510  178.6960  140.3620 O   0  0  0  0  0  1  0  0  0  0  0  0
  1  4  2  0  0  0  0
  2  3  2  0  0  0  0
  3  1  1  0  0  0  0
  4  6  1  0  0  0  0
  4 18  1  0  0  0  0
  5  6  1  0  0  0  0
  7  5  1  0  0  0  0
  8  3  1  0  0  0  0
  8  7  1  0  0  0  0
  9 13  1  0  0  0  0
  9 12  1  0  0  0  0
 10 16  1  0  0  0  0
 11 10  2  0  0  0  0
 12 14  2  0  0  0  0
 13  6  1  6  0  0  0
 13 10  1  0  0  0  0
 14 17  1  0  0  0  0
 16 17  1  0  0  0  0
 17 15  2  0  0  0  0
 19 18  1  0  0  0  0
 19 20  1  0  0  0  0
 20 28  1  6  0  0  0
 20 21  1  0  0  0  0
 21 22  1  1  0  0  0
 21 23  1  0  0  0  0
 23 25  1  0  0  0  0
 23 24  1  1  0  0  0
 25 26  1  0  0  0  0
 26 27  1  0  0  0  0
 29 28  1  0  0  0  0
M  END
>  <MODEL>
2

>  <REMARK>
 VINA RESULT:      -7.0      2.681      6.903
  Name = 
  9 active torsions:
  status: ('A' for Active; 'I' for Inactive)
    1  A    between atoms: C_2  and  C_4
    2  A    between atoms: C_2  and  C_18
    3  A    between atoms: C_4  and  C_17
    4  A    between atoms: C_5  and  C_18
    5  A    between atoms: S_9  and  C_17
    6  A    between atoms: C_10  and  O_12
    7  A    between atoms: O_12  and  C_16
    8  A    between atoms: C_16  and  C_18
    9  A    between atoms: C_19  and  N_22
                            x       y       z     vdW  Elec       q    Type
                         _______ _______ _______ _____ _____    ______ ____

>  <TORSDO>
F 9

$$$$
=
 OpenBabel10222415533D

 29 30  0  0  1  0  0  0  0  0999 V2000
  191.1850  177.2300  145.1980 N   0  0  0  0  0  0  0  0  0  0  0  0
  192.4250  175.5860  146.2550 O   0  0  0  0  0  0  0  0  0  0  0  0
  191.5430  176.4750  146.3660 C   0  0  0  0  0  0  0  0  0  0  0  0
  190.0350  177.7270  144.8270 C   0  0  0  0  0  0  0  0  0  0  0  0
  188.7480  176.8060  146.8320 C   0  0  0  0  0  2  0  0  0  0  0  0
  188.8040  177.5180  145.5660 N   0  0  0  0  0  0  0  0  0  0  0  0
  189.6900  177.4680  147.8080 C   0  0  0  0  0  2  0  0  0  0  0  0
  191.0470  176.7930  147.7510 C   0  0  0  0  0  2  0  0  0  0  0  0
  186.5220  178.1550  146.2120 C   0  0  0  0  0  2  0  0  0  0  0  0
  186.9590  177.2070  143.9550 C   0  0  0  0  0  0  0  0  0  0  0  0
  187.6790  176.3300  143.4080 O   0  0  0  0  0  0  0  0  0  0  0  0
  185.6090  179.2980  145.9480 C   0  0  0  0  0  3  0  0  0  0  0  0
  187.5210  178.0320  145.0790 C   0  0  2  0  0  3  0  0  0  0  0  0
  184.8010  179.3840  144.8940 C   0  0  0  0  0  3  0  0  0  0  0  0
  183.6310  178.5020  143.0740 O   0  0  0  0  0  0  0  0  0  0  0  0
  185.6370  177.4160  143.4450 N   0  0  0  0  0  2  0  0  0  0  0  0
  184.6650  178.4170  143.7850 C   0  0  0  0  0  0  0  0  0  0  0  0
  189.9780  178.4770  143.6450 O   0  0  0  0  0  0  0  0  0  0  0  0
  190.8080  178.2130  142.5210 C   0  0  0  0  0  2  0  0  0  0  0  0
  189.9690  178.1360  141.2500 C   0  0  1  0  0  3  0  0  0  0  0  0
  189.9180  176.7210  140.6560 C   0  0  2  0  0  3  0  0  0  0  0  0
  190.4370  175.8170  141.5880 O   0  0  0  0  0  1  0  0  0  0  0  0
  190.6440  176.5750  139.3090 C   0  0  2  0  0  3  0  0  0  0  0  0
  192.0570  176.8800  139.4620 N   0  0  0  0  0  1  0  0  0  0  0  0
  190.0430  177.5120  138.2690 C   0  0  0  0  0  2  0  0  0  0  0  0
  189.6290  176.5990  136.7520 S   0  0  0  0  0  0  0  0  0  0  0  0
  188.0730  175.9730  137.4480 C   0  0  0  0  0  1  0  0  0  0  0  0
  188.6010  178.8110  141.3840 C   0  0  0  0  0  2  0  0  0  0  0  0
  187.6570  178.2110  140.5480 O   0  0  0  0  0  1  0  0  0  0  0  0
  1  3  1  0  0  0  0
  2  3  2  0  0  0  0
  3  8  1  0  0  0  0
  4  1  2  0  0  0  0
  4  6  1  0  0  0  0
  5  7  1  0  0  0  0
  6  5  1  0  0  0  0
  8  7  1  0  0  0  0
 10 13  1  0  0  0  0
 11 10  2  0  0  0  0
 12  9  1  0  0  0  0
 13  6  1  1  0  0  0
 13  9  1  0  0  0  0
 14 12  2  0  0  0  0
 15 17  2  0  0  0  0
 16 17  1  0  0  0  0
 16 10  1  0  0  0  0
 17 14  1  0  0  0  0
 18  4  1  0  0  0  0
 19 18  1  0  0  0  0
 20 28  1  1  0  0  0
 20 19  1  0  0  0  0
 21 20  1  0  0  0  0
 21 22  1  1  0  0  0
 23 24  1  1  0  0  0
 23 21  1  0  0  0  0
 25 23  1  0  0  0  0
 26 27  1  0  0  0  0
 26 25  1  0  0  0  0
 29 28  1  0  0  0  0
M  END
>  <MODEL>
3

>  <REMARK>
 VINA RESULT:      -7.0      1.267      1.793
  Name = 
  9 active torsions:
  status: ('A' for Active; 'I' for Inactive)
    1  A    between atoms: C_2  and  C_4
    2  A    between atoms: C_2  and  C_18
    3  A    between atoms: C_4  and  C_17
    4  A    between atoms: C_5  and  C_18
    5  A    between atoms: S_9  and  C_17
    6  A    between atoms: C_10  and  O_12
    7  A    between atoms: O_12  and  C_16
    8  A    between atoms: C_16  and  C_18
    9  A    between atoms: C_19  and  N_22
                            x       y       z     vdW  Elec       q    Type
                         _______ _______ _______ _____ _____    ______ ____

>  <TORSDO>
F 9

$$$$
=
 OpenBabel10222415533D

 29 30  0  0  1  0  0  0  0  0999 V2000
  185.8880  179.1070  140.3330 N   0  0  0  0  0  0  0  0  0  0  0  0
  184.2190  180.1290  139.0970 O   0  0  0  0  0  0  0  0  0  0  0  0
  184.5050  179.3050  140.0020 C   0  0  0  0  0  0  0  0  0  0  0  0
  186.4610  178.8480  141.4790 C   0  0  0  0  0  0  0  0  0  0  0  0
  184.2880  178.9160  142.8200 C   0  0  0  0  0  2  0  0  0  0  0  0
  185.7330  178.7830  142.7320 N   0  0  0  0  0  0  0  0  0  0  0  0
  183.6440  177.8790  141.9320 C   0  0  0  0  0  2  0  0  0  0  0  0
  183.3860  178.4680  140.5590 C   0  0  0  0  0  2  0  0  0  0  0  0
  186.9290  177.1360  144.1070 C   0  0  0  0  0  2  0  0  0  0  0  0
  185.5630  178.9080  145.1920 C   0  0  0  0  0  0  0  0  0  0  0  0
  184.4790  179.5250  145.0150 O   0  0  0  0  0  0  0  0  0  0  0  0
  188.1800  177.1110  144.9070 C   0  0  0  0  0  3  0  0  0  0  0  0
  186.4200  178.5600  144.0070 C   0  0  2  0  0  3  0  0  0  0  0  0
  188.2660  177.4940  146.1790 C   0  0  0  0  0  3  0  0  0  0  0  0
  187.3700  178.0240  148.2710 O   0  0  0  0  0  0  0  0  0  0  0  0
  185.9600  178.6040  146.5340 N   0  0  0  0  0  2  0  0  0  0  0  0
  187.1850  178.0370  147.0270 C   0  0  0  0  0  0  0  0  0  0  0  0
  187.8470  178.6490  141.5070 O   0  0  0  0  0  0  0  0  0  0  0  0
  188.4760  177.5040  140.9450 C   0  0  0  0  0  2  0  0  0  0  0  0
  189.5110  177.9240  139.9080 C   0  0  1  0  0  3  0  0  0  0  0  0
  190.7820  177.0630  139.9540 C   0  0  2  0  0  3  0  0  0  0  0  0
  191.7890  177.7740  140.6140 O   0  0  0  0  0  1  0  0  0  0  0  0
  191.2760  176.5920  138.5780 C   0  0  2  0  0  3  0  0  0  0  0  0
  190.8690  175.2170  138.3390 N   0  0  0  0  0  1  0  0  0  0  0  0
  192.7940  176.6840  138.4890 C   0  0  0  0  0  2  0  0  0  0  0  0
  193.3820  176.0070  136.9070 S   0  0  0  0  0  0  0  0  0  0  0  0
  194.4760  174.8110  137.7240 C   0  0  0  0  0  1  0  0  0  0  0  0
  188.9250  178.1050  138.5050 C   0  0  0  0  0  2  0  0  0  0  0  0
  189.0560  179.4240  138.0680 O   0  0  0  0  0  1  0  0  0  0  0  0
  1  4  2  0  0  0  0
  2  3  2  0  0  0  0
  3  1  1  0  0  0  0
  3  8  1  0  0  0  0
  4 18  1  0  0  0  0
  4  6  1  0  0  0  0
  6  5  1  0  0  0  0
  7  5  1  0  0  0  0
  8  7  1  0  0  0  0
  9 12  1  0  0  0  0
 10 16  1  0  0  0  0
 11 10  2  0  0  0  0
 12 14  2  0  0  0  0
 13  6  1  6  0  0  0
 13  9  1  0  0  0  0
 13 10  1  0  0  0  0
 14 17  1  0  0  0  0
 16 17  1  0  0  0  0
 17 15  2  0  0  0  0
 19 18  1  0  0  0  0
 20 28  1  6  0  0  0
 20 21  1  0  0  0  0
 20 19  1  0  0  0  0
 21 22  1  6  0  0  0
 23 24  1  1  0  0  0
 23 21  1  0  0  0  0
 25 23  1  0  0  0  0
 26 27  1  0  0  0  0
 26 25  1  0  0  0  0
 29 28  1  0  0  0  0
M  END
>  <MODEL>
4

>  <REMARK>
 VINA RESULT:      -6.8      2.878      5.622
  Name = 
  9 active torsions:
  status: ('A' for Active; 'I' for Inactive)
    1  A    between atoms: C_2  and  C_4
    2  A    between atoms: C_2  and  C_18
    3  A    between atoms: C_4  and  C_17
    4  A    between atoms: C_5  and  C_18
    5  A    between atoms: S_9  and  C_17
    6  A    between atoms: C_10  and  O_12
    7  A    between atoms: O_12  and  C_16
    8  A    between atoms: C_16  and  C_18
    9  A    between atoms: C_19  and  N_22
                            x       y       z     vdW  Elec       q    Type
                         _______ _______ _______ _____ _____    ______ ____

>  <TORSDO>
F 9

$$$$
=
 OpenBabel10222415533D

 29 30  0  0  1  0  0  0  0  0999 V2000
  186.3200  178.6420  139.9450 N   0  0  0  0  0  0  0  0  0  0  0  0
  184.9420  179.4190  138.2550 O   0  0  0  0  0  0  0  0  0  0  0  0
  185.0370  178.7370  139.3070 C   0  0  0  0  0  0  0  0  0  0  0  0
  186.6380  178.5640  141.2100 C   0  0  0  0  0  0  0  0  0  0  0  0
  184.2280  178.7230  142.0430 C   0  0  0  0  0  2  0  0  0  0  0  0
  185.6600  178.6380  142.2790 N   0  0  0  0  0  0  0  0  0  0  0  0
  183.8010  177.5500  141.1940 C   0  0  0  0  0  2  0  0  0  0  0  0
  183.8350  177.9370  139.7280 C   0  0  0  0  0  2  0  0  0  0  0  0
  186.4250  177.2140  144.1280 C   0  0  0  0  0  2  0  0  0  0  0  0
  185.0190  179.2120  144.5930 C   0  0  0  0  0  0  0  0  0  0  0  0
  184.0440  179.8340  144.0940 O   0  0  0  0  0  0  0  0  0  0  0  0
  187.4870  177.2770  145.1650 C   0  0  0  0  0  3  0  0  0  0  0  0
  186.0620  178.6180  143.6880 C   0  0  2  0  0  3  0  0  0  0  0  0
  187.3500  177.8780  146.3450 C   0  0  0  0  0  3  0  0  0  0  0  0
  186.1040  178.8150  148.0850 O   0  0  0  0  0  0  0  0  0  0  0  0
  185.1170  179.1370  146.0210 N   0  0  0  0  0  2  0  0  0  0  0  0
  186.1700  178.6130  146.8460 C   0  0  0  0  0  0  0  0  0  0  0  0
  187.9880  178.4270  141.5560 O   0  0  0  0  0  0  0  0  0  0  0  0
  188.6630  177.1760  141.5610 C   0  0  0  0  0  2  0  0  0  0  0  0
  190.1720  177.3880  141.5850 C   0  0  1  0  0  3  0  0  0  0  0  0
  190.8700  176.5830  142.6910 C   0  0  2  0  0  3  0  0  0  0  0  0
  190.2140  175.3580  142.8460 O   0  0  0  0  0  1  0  0  0  0  0  0
  190.9620  177.3130  144.0400 C   0  0  2  0  0  3  0  0  0  0  0  0
  191.6810  178.5680  143.8870 N   0  0  0  0  0  1  0  0  0  0  0  0
  191.6810  176.4530  145.0710 C   0  0  0  0  0  2  0  0  0  0  0  0
  191.0070  176.7510  146.7330 S   0  0  0  0  0  0  0  0  0  0  0  0
  192.2050  175.6350  147.5160 C   0  0  0  0  0  1  0  0  0  0  0  0
  190.8250  177.2550  140.2050 C   0  0  0  0  0  2  0  0  0  0  0  0
  190.5550  176.0090  139.6350 O   0  0  0  0  0  1  0  0  0  0  0  0
  1  4  2  0  0  0  0
  2  3  2  0  0  0  0
  3  8  1  0  0  0  0
  3  1  1  0  0  0  0
  4 18  1  0  0  0  0
  4  6  1  0  0  0  0
  5  6  1  0  0  0  0
  7  5  1  0  0  0  0
  8  7  1  0  0  0  0
  9 12  1  0  0  0  0
 10 16  1  0  0  0  0
 11 10  2  0  0  0  0
 12 14  2  0  0  0  0
 13  6  1  6  0  0  0
 13  9  1  0  0  0  0
 13 10  1  0  0  0  0
 14 17  1  0  0  0  0
 16 17  1  0  0  0  0
 17 15  2  0  0  0  0
 18 19  1  0  0  0  0
 19 20  1  0  0  0  0
 20 28  1  6  0  0  0
 20 21  1  0  0  0  0
 21 22  1  1  0  0  0
 21 23  1  0  0  0  0
 23 24  1  6  0  0  0
 23 25  1  0  0  0  0
 25 26  1  0  0  0  0
 26 27  1  0  0  0  0
 29 28  1  0  0  0  0
M  END
>  <MODEL>
5

>  <REMARK>
 VINA RESULT:      -6.7      2.932      6.161
  Name = 
  9 active torsions:
  status: ('A' for Active; 'I' for Inactive)
    1  A    between atoms: C_2  and  C_4
    2  A    between atoms: C_2  and  C_18
    3  A    between atoms: C_4  and  C_17
    4  A    between atoms: C_5  and  C_18
    5  A    between atoms: S_9  and  C_17
    6  A    between atoms: C_10  and  O_12
    7  A    between atoms: O_12  and  C_16
    8  A    between atoms: C_16  and  C_18
    9  A    between atoms: C_19  and  N_22
                            x       y       z     vdW  Elec       q    Type
                         _______ _______ _______ _____ _____    ______ ____

>  <TORSDO>
F 9

$$$$
=
 OpenBabel10222415533D

 29 30  0  0  1  0  0  0  0  0999 V2000
  191.9860  176.2210  138.3180 N   0  0  0  0  0  0  0  0  0  0  0  0
  193.9490  176.8290  137.2540 O   0  0  0  0  0  0  0  0  0  0  0  0
  192.8100  176.3080  137.1450 C   0  0  0  0  0  0  0  0  0  0  0  0
  190.6890  176.3120  138.4550 C   0  0  0  0  0  0  0  0  0  0  0  0
  190.2460  176.7630  135.9800 C   0  0  0  0  0  2  0  0  0  0  0  0
  189.7940  176.6140  137.3530 N   0  0  0  0  0  0  0  0  0  0  0  0
  190.9760  175.5080  135.5660 C   0  0  0  0  0  2  0  0  0  0  0  0
  192.4610  175.6670  135.8300 C   0  0  0  0  0  2  0  0  0  0  0  0
  187.5730  176.2720  136.3640 C   0  0  0  0  0  2  0  0  0  0  0  0
  187.9750  178.1960  137.8860 C   0  0  0  0  0  0  0  0  0  0  0  0
  188.8780  179.0340  138.1530 O   0  0  0  0  0  0  0  0  0  0  0  0
  186.2670  175.7260  136.8160 C   0  0  0  0  0  3  0  0  0  0  0  0
  188.3530  176.7780  137.5600 C   0  0  2  0  0  3  0  0  0  0  0  0
  185.3310  176.4400  137.4380 C   0  0  0  0  0  3  0  0  0  0  0  0
  184.3110  178.4370  138.0950 O   0  0  0  0  0  0  0  0  0  0  0  0
  186.6100  178.6240  137.9520 N   0  0  0  0  0  2  0  0  0  0  0  0
  185.3980  177.8630  137.8270 C   0  0  0  0  0  0  0  0  0  0  0  0
  190.1350  176.1350  139.7290 O   0  0  0  0  0  0  0  0  0  0  0  0
  190.2840  177.0850  140.7760 C   0  0  0  0  0  2  0  0  0  0  0  0
  189.0000  177.1810  141.5930 C   0  0  1  0  0  3  0  0  0  0  0  0
  189.1370  176.5640  142.9920 C   0  0  2  0  0  3  0  0  0  0  0  0
  187.9920  175.8140  143.2730 O   0  0  0  0  0  1  0  0  0  0  0  0
  189.3930  177.5860  144.1100 C   0  0  2  0  0  3  0  0  0  0  0  0
  190.7680  177.4920  144.5750 N   0  0  0  0  0  1  0  0  0  0  0  0
  188.4540  177.3470  145.2850 C   0  0  0  0  0  2  0  0  0  0  0  0
  189.4000  177.1080  146.8200 S   0  0  0  0  0  0  0  0  0  0  0  0
  188.0110  177.6390  147.8620 C   0  0  0  0  0  1  0  0  0  0  0  0
  188.3770  178.5800  141.5810 C   0  0  0  0  0  2  0  0  0  0  0  0
  186.9980  178.5180  141.3750 O   0  0  0  0  0  1  0  0  0  0  0  0
  1  4  2  0  0  0  0
  3  2  2  0  0  0  0
  3  1  1  0  0  0  0
  4 18  1  0  0  0  0
  5  6  1  0  0  0  0
  6 13  1  0  0  0  0
  6  4  1  0  0  0  0
  7  8  1  0  0  0  0
  7  5  1  0  0  0  0
  8  3  1  0  0  0  0
  9 12  1  0  0  0  0
 10 16  1  0  0  0  0
 10 11  2  0  0  0  0
 12 14  2  0  0  0  0
 13  9  1  6  0  0  0
 13 10  1  0  0  0  0
 14 17  1  0  0  0  0
 17 16  1  0  0  0  0
 17 15  2  0  0  0  0
 18 19  1  0  0  0  0
 20 19  1  1  0  0  0
 20 21  1  0  0  0  0
 21 22  1  1  0  0  0
 21 23  1  0  0  0  0
 23 24  1  1  0  0  0
 23 25  1  0  0  0  0
 25 26  1  0  0  0  0
 26 27  1  0  0  0  0
 28 20  1  0  0  0  0
 29 28  1  0  0  0  0
M  END
>  <MODEL>
6

>  <REMARK>
 VINA RESULT:      -6.7      3.195      7.535
  Name = 
  9 active torsions:
  status: ('A' for Active; 'I' for Inactive)
    1  A    between atoms: C_2  and  C_4
    2  A    between atoms: C_2  and  C_18
    3  A    between atoms: C_4  and  C_17
    4  A    between atoms: C_5  and  C_18
    5  A    between atoms: S_9  and  C_17
    6  A    between atoms: C_10  and  O_12
    7  A    between atoms: O_12  and  C_16
    8  A    between atoms: C_16  and  C_18
    9  A    between atoms: C_19  and  N_22
                            x       y       z     vdW  Elec       q    Type
                         _______ _______ _______ _____ _____    ______ ____

>  <TORSDO>
F 9

$$$$
=
 OpenBabel10222415533D

 29 30  0  0  1  0  0  0  0  0999 V2000
  187.6670  177.9840  139.3580 N   0  0  0  0  0  0  0  0  0  0  0  0
  187.4780  176.7260  137.4250 O   0  0  0  0  0  0  0  0  0  0  0  0
  188.2470  177.3040  138.2350 C   0  0  0  0  0  0  0  0  0  0  0  0
  188.1060  178.1370  140.5800 C   0  0  0  0  0  0  0  0  0  0  0  0
  190.2250  176.7580  140.2160 C   0  0  0  0  0  2  0  0  0  0  0  0
  189.3300  177.5270  141.0650 N   0  0  0  0  0  0  0  0  0  0  0  0
  190.6440  177.6120  139.0440 C   0  0  0  0  0  2  0  0  0  0  0  0
  189.7060  177.3770  137.8760 C   0  0  0  0  0  2  0  0  0  0  0  0
  191.2600  177.7790  142.5620 C   0  0  0  0  0  2  0  0  0  0  0  0
  189.2400  176.5480  143.3290 C   0  0  0  0  0  0  0  0  0  0  0  0
  188.3710  175.7560  142.8760 O   0  0  0  0  0  0  0  0  0  0  0  0
  191.6160  178.6360  143.7220 C   0  0  0  0  0  3  0  0  0  0  0  0
  189.7530  177.6630  142.4610 C   0  0  2  0  0  3  0  0  0  0  0  0
  191.3040  178.3570  144.9860 C   0  0  0  0  0  3  0  0  0  0  0  0
  190.6330  176.9330  146.7110 O   0  0  0  0  0  0  0  0  0  0  0  0
  189.6730  176.3780  144.6840 N   0  0  0  0  0  2  0  0  0  0  0  0
  190.5380  177.1980  145.4860 C   0  0  0  0  0  0  0  0  0  0  0  0
  187.3490  178.9040  141.4740 O   0  0  0  0  0  0  0  0  0  0  0  0
  186.3080  178.3560  142.2740 C   0  0  0  0  0  2  0  0  0  0  0  0
  184.9850  179.0490  141.9680 C   0  0  1  0  0  3  0  0  0  0  0  0
  184.4280  178.6850  140.5830 C   0  0  2  0  0  3  0  0  0  0  0  0
  184.6540  179.7520  139.7080 O   0  0  0  0  0  1  0  0  0  0  0  0
  182.9410  178.2990  140.5810 C   0  0  2  0  0  3  0  0  0  0  0  0
  182.7820  176.9060  140.1950 N   0  0  0  0  0  1  0  0  0  0  0  0
  182.1580  179.1760  139.6130 C   0  0  0  0  0  2  0  0  0  0  0  0
  180.3750  179.0620  139.9490 S   0  0  0  0  0  0  0  0  0  0  0  0
  180.5990  179.3670  141.7250 C   0  0  0  0  0  1  0  0  0  0  0  0
  183.9640  178.9350  143.1040 C   0  0  0  0  0  2  0  0  0  0  0  0
  184.3150  179.7500  144.1820 O   0  0  0  0  0  1  0  0  0  0  0  0
  1  4  2  0  0  0  0
  2  3  2  0  0  0  0
  3  1  1  0  0  0  0
  4  6  1  0  0  0  0
  4 18  1  0  0  0  0
  5  6  1  0  0  0  0
  7  5  1  0  0  0  0
  8  3  1  0  0  0  0
  8  7  1  0  0  0  0
  9 12  1  0  0  0  0
 10 16  1  0  0  0  0
 11 10  2  0  0  0  0
 12 14  2  0  0  0  0
 13  6  1  6  0  0  0
 13  9  1  0  0  0  0
 13 10  1  0  0  0  0
 14 17  1  0  0  0  0
 16 17  1  0  0  0  0
 17 15  2  0  0  0  0
 18 19  1  0  0  0  0
 20 19  1  1  0  0  0
 20 28  1  0  0  0  0
 21 22  1  6  0  0  0
 21 20  1  0  0  0  0
 23 24  1  6  0  0  0
 23 21  1  0  0  0  0
 25 26  1  0  0  0  0
 25 23  1  0  0  0  0
 26 27  1  0  0  0  0
 28 29  1  0  0  0  0
M  END
>  <MODEL>
7

>  <REMARK>
 VINA RESULT:      -6.7      2.813      6.446
  Name = 
  9 active torsions:
  status: ('A' for Active; 'I' for Inactive)
    1  A    between atoms: C_2  and  C_4
    2  A    between atoms: C_2  and  C_18
    3  A    between atoms: C_4  and  C_17
    4  A    between atoms: C_5  and  C_18
    5  A    between atoms: S_9  and  C_17
    6  A    between atoms: C_10  and  O_12
    7  A    between atoms: O_12  and  C_16
    8  A    between atoms: C_16  and  C_18
    9  A    between atoms: C_19  and  N_22
                            x       y       z     vdW  Elec       q    Type
                         _______ _______ _______ _____ _____    ______ ____

>  <TORSDO>
F 9

$$$$
=
 OpenBabel10222415533D

 29 30  0  0  1  0  0  0  0  0999 V2000
  185.6770  179.2990  140.2190 N   0  0  0  0  0  0  0  0  0  0  0  0
  183.9260  180.2170  139.0150 O   0  0  0  0  0  0  0  0  0  0  0  0
  184.2840  179.3760  139.8770 C   0  0  0  0  0  0  0  0  0  0  0  0
  186.2600  179.0330  141.3580 C   0  0  0  0  0  0  0  0  0  0  0  0
  184.0770  178.8060  142.6650 C   0  0  0  0  0  2  0  0  0  0  0  0
  185.5290  178.8230  142.5930 N   0  0  0  0  0  0  0  0  0  0  0  0
  183.5520  177.7620  141.7090 C   0  0  0  0  0  2  0  0  0  0  0  0
  183.2500  178.4000  140.3670 C   0  0  0  0  0  2  0  0  0  0  0  0
  186.6500  177.1510  144.0000 C   0  0  0  0  0  2  0  0  0  0  0  0
  185.4030  179.0280  145.0500 C   0  0  0  0  0  0  0  0  0  0  0  0
  184.3530  179.7010  144.8700 O   0  0  0  0  0  0  0  0  0  0  0  0
  187.9090  177.0760  144.7840 C   0  0  0  0  0  3  0  0  0  0  0  0
  186.2210  178.5980  143.8650 C   0  0  2  0  0  3  0  0  0  0  0  0
  188.0350  177.4900  146.0430 C   0  0  0  0  0  3  0  0  0  0  0  0
  187.2020  178.1300  148.1300 O   0  0  0  0  0  0  0  0  0  0  0  0
  185.8020  178.7410  146.3960 N   0  0  0  0  0  2  0  0  0  0  0  0
  187.0000  178.1180  146.8890 C   0  0  0  0  0  0  0  0  0  0  0  0
  187.6590  178.9740  141.3980 O   0  0  0  0  0  0  0  0  0  0  0  0
  188.3960  177.8270  140.9920 C   0  0  0  0  0  2  0  0  0  0  0  0
  189.2940  178.1670  139.8070 C   0  0  1  0  0  3  0  0  0  0  0  0
  190.6010  177.3610  139.8000 C   0  0  2  0  0  3  0  0  0  0  0  0
  190.2950  175.9980  139.8540 O   0  0  0  0  0  1  0  0  0  0  0  0
  191.5790  177.7340  140.9250 C   0  0  2  0  0  3  0  0  0  0  0  0
  192.9500  177.5000  140.5010 N   0  0  0  0  0  1  0  0  0  0  0  0
  191.2990  176.9130  142.1770 C   0  0  0  0  0  2  0  0  0  0  0  0
  191.4880  177.9370  143.6670 S   0  0  0  0  0  0  0  0  0  0  0  0
  191.6790  176.4890  144.7460 C   0  0  0  0  0  1  0  0  0  0  0  0
  188.5520  178.1740  138.4670 C   0  0  0  0  0  2  0  0  0  0  0  0
  188.7230  179.3890  137.8000 O   0  0  0  0  0  1  0  0  0  0  0  0
  1  4  2  0  0  0  0
  2  3  2  0  0  0  0
  3  1  1  0  0  0  0
  3  8  1  0  0  0  0
  4 18  1  0  0  0  0
  4  6  1  0  0  0  0
  6  5  1  0  0  0  0
  7  5  1  0  0  0  0
  8  7  1  0  0  0  0
  9 12  1  0  0  0  0
 10 16  1  0  0  0  0
 11 10  2  0  0  0  0
 12 14  2  0  0  0  0
 13  6  1  6  0  0  0
 13  9  1  0  0  0  0
 13 10  1  0  0  0  0
 14 17  1  0  0  0  0
 16 17  1  0  0  0  0
 17 15  2  0  0  0  0
 19 18  1  0  0  0  0
 20 28  1  6  0  0  0
 20 19  1  0  0  0  0
 21 20  1  0  0  0  0
 21 22  1  1  0  0  0
 21 23  1  0  0  0  0
 23 24  1  6  0  0  0
 23 25  1  0  0  0  0
 25 26  1  0  0  0  0
 26 27  1  0  0  0  0
 29 28  1  0  0  0  0
M  END
>  <MODEL>
8

>  <REMARK>
 VINA RESULT:      -6.7      2.883      5.845
  Name = 
  9 active torsions:
  status: ('A' for Active; 'I' for Inactive)
    1  A    between atoms: C_2  and  C_4
    2  A    between atoms: C_2  and  C_18
    3  A    between atoms: C_4  and  C_17
    4  A    between atoms: C_5  and  C_18
    5  A    between atoms: S_9  and  C_17
    6  A    between atoms: C_10  and  O_12
    7  A    between atoms: O_12  and  C_16
    8  A    between atoms: C_16  and  C_18
    9  A    between atoms: C_19  and  N_22
                            x       y       z     vdW  Elec       q    Type
                         _______ _______ _______ _____ _____    ______ ____

>  <TORSDO>
F 9

$$$$
=
 OpenBabel10222415533D

 29 30  0  0  1  0  0  0  0  0999 V2000
  188.6450  177.1190  146.3750 N   0  0  0  0  0  0  0  0  0  0  0  0
  189.4100  177.8790  148.4230 O   0  0  0  0  0  0  0  0  0  0  0  0
  189.7000  177.3460  147.3220 C   0  0  0  0  0  0  0  0  0  0  0  0
  188.6490  177.1660  145.0680 C   0  0  0  0  0  0  0  0  0  0  0  0
  191.1010  177.8610  144.8900 C   0  0  0  0  0  2  0  0  0  0  0  0
  189.8110  177.5610  144.2930 N   0  0  0  0  0  0  0  0  0  0  0  0
  191.5530  176.6730  145.7050 C   0  0  0  0  0  2  0  0  0  0  0  0
  191.1050  176.8380  147.1440 C   0  0  0  0  0  2  0  0  0  0  0  0
  188.4010  178.1710  142.3770 C   0  0  0  0  0  2  0  0  0  0  0  0
  190.1100  176.3800  142.1450 C   0  0  0  0  0  0  0  0  0  0  0  0
  190.6030  175.4340  142.8160 O   0  0  0  0  0  0  0  0  0  0  0  0
  188.5590  178.9780  141.1390 C   0  0  0  0  0  3  0  0  0  0  0  0
  189.7560  177.6700  142.8330 C   0  0  2  0  0  3  0  0  0  0  0  0
  189.0470  178.5060  139.9940 C   0  0  0  0  0  3  0  0  0  0  0  0
  189.6480  176.7960  138.5200 O   0  0  0  0  0  0  0  0  0  0  0  0
  189.9520  176.2020  140.7330 N   0  0  0  0  0  2  0  0  0  0  0  0
  189.5460  177.1420  139.7250 C   0  0  0  0  0  0  0  0  0  0  0  0
  187.4720  176.8460  144.3810 O   0  0  0  0  0  0  0  0  0  0  0  0
  186.1770  177.1500  144.8830 C   0  0  0  0  0  2  0  0  0  0  0  0
  186.0020  178.6580  145.0200 C   0  0  1  0  0  3  0  0  0  0  0  0
  185.1760  179.2690  143.8790 C   0  0  2  0  0  3  0  0  0  0  0  0
  184.5430  180.4250  144.3430 O   0  0  0  0  0  1  0  0  0  0  0  0
  184.1480  178.3090  143.2600 C   0  0  2  0  0  3  0  0  0  0  0  0
  184.3400  178.2200  141.8220 N   0  0  0  0  0  1  0  0  0  0  0  0
  182.7290  178.7840  143.5430 C   0  0  0  0  0  2  0  0  0  0  0  0
  181.7120  178.6870  142.0390 S   0  0  0  0  0  0  0  0  0  0  0  0
  180.4110  179.7400  142.7440 C   0  0  0  0  0  1  0  0  0  0  0  0
  185.5580  179.0930  146.4200 C   0  0  0  0  0  2  0  0  0  0  0  0
  184.5600  178.2530  146.9170 O   0  0  0  0  0  1  0  0  0  0  0  0
  1  3  1  0  0  0  0
  3  2  2  0  0  0  0
  4  1  2  0  0  0  0
  5  7  1  0  0  0  0
  6  5  1  0  0  0  0
  6  4  1  0  0  0  0
  7  8  1  0  0  0  0
  8  3  1  0  0  0  0
 10 11  2  0  0  0  0
 10 13  1  0  0  0  0
 12  9  1  0  0  0  0
 13  9  1  1  0  0  0
 13  6  1  0  0  0  0
 14 12  2  0  0  0  0
 15 17  2  0  0  0  0
 16 10  1  0  0  0  0
 17 14  1  0  0  0  0
 17 16  1  0  0  0  0
 18 19  1  0  0  0  0
 18  4  1  0  0  0  0
 20 19  1  1  0  0  0
 20 28  1  0  0  0  0
 21 22  1  1  0  0  0
 21 20  1  0  0  0  0
 23 24  1  6  0  0  0
 23 25  1  0  0  0  0
 23 21  1  0  0  0  0
 26 27  1  0  0  0  0
 26 25  1  0  0  0  0
 28 29  1  0  0  0  0
M  END
>  <MODEL>
9

>  <REMARK>
 VINA RESULT:      -6.6      2.468      5.449
  Name = 
  9 active torsions:
  status: ('A' for Active; 'I' for Inactive)
    1  A    between atoms: C_2  and  C_4
    2  A    between atoms: C_2  and  C_18
    3  A    between atoms: C_4  and  C_17
    4  A    between atoms: C_5  and  C_18
    5  A    between atoms: S_9  and  C_17
    6  A    between atoms: C_10  and  O_12
    7  A    between atoms: O_12  and  C_16
    8  A    between atoms: C_16  and  C_18
    9  A    between atoms: C_19  and  N_22
                            x       y       z     vdW  Elec       q    Type
                         _______ _______ _______ _____ _____    ______ ____

>  <TORSDO>
F 9

$$$$
