=
 OpenBabel10222415553D

 58 62  0  0  1  0  0  0  0  0999 V2000
  187.7800  178.0700  141.3540 C   0  0  0  0  0  3  0  0  0  0  0  0
  186.5800  178.4490  141.8360 C   0  0  0  0  0  0  0  0  0  0  0  0
  185.5320  179.0840  140.9620 C   0  0  0  0  0  2  0  0  0  0  0  0
  184.2900  178.2040  140.8610 C   0  0  0  0  0  2  0  0  0  0  0  0
  183.8580  178.0640  139.4100 C   0  0  0  0  0  2  0  0  0  0  0  0
  182.4300  178.5580  139.2250 C   0  0  2  0  0  3  0  0  0  0  0  0
  181.8860  179.1440  140.5220 C   0  0  0  0  0  1  0  0  0  0  0  0
  181.5320  177.4490  138.6530 C   0  0  2  0  0  3  0  0  0  0  0  0
  181.1830  177.5270  136.0750 C   0  0  1  0  0  3  0  0  0  0  0  0
  180.6680  177.9200  137.4720 C   0  0  2  0  0  3  0  0  0  0  0  0
  181.4310  178.9210  136.6270 C   0  0  0  0  0  2  0  0  0  0  0  0
  187.2810  176.1100  135.5520 C   0  0  1  0  0  3  0  0  0  0  0  0
  187.1350  174.9600  136.3520 O   0  0  0  0  0  0  0  0  0  0  0  0
  184.7460  175.0850  135.9880 C   0  0  0  0  0  0  0  0  0  0  0  0
  183.7070  177.2820  136.0040 C   0  0  0  0  0  3  0  0  0  0  0  0
  183.4740  174.4940  135.9890 C   0  0  0  0  0  3  0  0  0  0  0  0
  182.4380  176.6880  136.0630 C   0  0  0  0  0  0  0  0  0  0  0  0
  184.8560  176.4890  135.9560 C   0  0  0  0  0  0  0  0  0  0  0  0
  186.0120  174.2560  135.8620 C   0  0  2  0  0  3  0  0  0  0  0  0
  186.2060  177.1410  135.9170 C   0  0  0  0  0  2  0  0  0  0  0  0
  182.3270  175.2920  136.0300 C   0  0  0  0  0  3  0  0  0  0  0  0
  185.7600  172.8940  137.9860 N   0  0  0  0  0  1  0  0  0  0  0  0
  185.9060  172.9420  136.5690 C   0  0  0  0  0  0  0  0  0  0  0  0
  185.9330  171.8730  135.9050 O   0  0  0  0  0  0  0  0  0  0  0  0
  188.6020  178.0380  136.1160 O   0  0  0  0  0  1  0  0  0  0  0  0
  188.6750  176.6980  135.7230 C   0  0  0  0  0  2  0  0  0  0  0  0
  180.7170  176.6770  139.7030 C   0  0  0  0  0  2  0  0  0  0  0  0
  180.7720  175.1690  139.5100 C   0  0  0  0  0  1  0  0  0  0  0  0
  188.1660  178.2140  139.9160 C   0  0  0  0  0  2  0  0  0  0  0  0
  190.4540  177.5960  139.2430 C   0  0  1  0  0  3  0  0  0  0  0  0
  189.0620  177.0610  139.5160 C   0  0  1  0  0  3  0  0  0  0  0  0
  190.1550  176.9050  140.5550 C   0  0  0  0  0  2  0  0  0  0  0  0
  192.5700  176.5430  138.3570 C   0  0  0  0  0  0  0  0  0  0  0  0
  193.2790  177.2310  139.1440 O   0  0  0  0  0  0  0  0  0  0  0  0
  191.1480  176.6730  138.3590 N   0  0  0  0  0  2  0  0  0  0  0  0
  192.3200  174.3980  137.1060 C   0  0  0  0  0  2  0  0  0  0  0  0
  195.2170  174.6370  136.7840 C   0  0  1  0  0  3  0  0  0  0  0  0
  193.1610  173.1880  136.6800 C   0  0  2  0  0  3  0  0  0  0  0  0
  193.2140  175.6140  137.3840 C   0  0  2  0  0  3  0  0  0  0  0  0
  194.4810  175.2110  137.8570 O   0  0  0  0  0  0  0  0  0  0  0  0
  194.4110  173.6380  135.9300 C   0  0  0  0  0  2  0  0  0  0  0  0
  197.3700  175.5390  135.9010 C   0  0  0  0  0  1  0  0  0  0  0  0
  195.8630  175.7060  135.9070 C   0  0  0  0  0  2  0  0  0  0  0  0
  192.3410  172.2470  135.8130 C   0  0  0  0  0  2  0  0  0  0  0  0
  188.9020  172.6970  134.6170 O   0  0  0  0  0  0  0  0  0  0  0  0
  190.1060  170.7460  134.6820 O   0  0  0  0  0  1  0  0  0  0  0  0
  189.9810  172.1150  134.9040 C   0  0  0  0  0  0  0  0  0  0  0  0
  191.0710  172.8680  135.4500 N   0  0  0  0  0  2  0  0  0  0  0  0
  186.2560  178.2690  143.2920 C   0  0  2  0  0  3  0  0  0  0  0  0
  185.3780  179.4220  143.7820 C   0  0  0  0  0  2  0  0  0  0  0  0
  185.2420  179.0950  146.2080 C   0  0  0  0  0  2  0  0  0  0  0  0
  184.6240  179.0720  145.0270 C   0  0  0  0  0  0  0  0  0  0  0  0
  183.2860  178.4200  144.9010 C   0  0  0  0  0  2  0  0  0  0  0  0
  182.4130  179.1720  143.9160 C   0  0  0  0  0  1  0  0  0  0  0  0
  187.5310  178.1340  144.1180 C   0  0  0  0  0  2  0  0  0  0  0  0
  187.5430  176.8100  144.8620 C   0  0  0  0  0  2  0  0  0  0  0  0
  189.5020  178.0230  145.8260 C   0  0  0  0  0  1  0  0  0  0  0  0
  188.5540  176.8470  145.9950 C   0  0  0  0  0  2  0  0  0  0  0  0
  1  2  2  0  0  0  0
  2 49  1  0  0  0  0
  3  2  1  0  0  0  0
  4  3  1  0  0  0  0
  5  4  1  0  0  0  0
  6  5  1  0  0  0  0
  6  7  1  1  0  0  0
  8  6  1  0  0  0  0
  8 27  1  1  0  0  0
  9 17  1  1  0  0  0
  9 11  1  0  0  0  0
  9 10  1  0  0  0  0
 10  8  1  1  0  0  0
 11 10  1  0  0  0  0
 12 26  1  1  0  0  0
 12 20  1  0  0  0  0
 12 13  1  0  0  0  0
 14 16  1  0  0  0  0
 15 17  2  0  0  0  0
 16 21  2  0  0  0  0
 18 14  2  0  0  0  0
 18 15  1  0  0  0  0
 19 14  1  0  0  0  0
 19 13  1  0  0  0  0
 19 23  1  1  0  0  0
 20 18  1  0  0  0  0
 21 17  1  0  0  0  0
 23 22  1  0  0  0  0
 24 23  2  0  0  0  0
 26 25  1  0  0  0  0
 28 27  1  0  0  0  0
 29  1  1  0  0  0  0
 30 35  1  6  0  0  0
 30 31  1  0  0  0  0
 30 32  1  0  0  0  0
 31 29  1  1  0  0  0
 31 32  1  0  0  0  0
 33 35  1  0  0  0  0
 33 34  2  0  0  0  0
 36 39  1  0  0  0  0
 37 43  1  6  0  0  0
 37 40  1  0  0  0  0
 38 44  1  6  0  0  0
 38 36  1  0  0  0  0
 39 40  1  0  0  0  0
 39 33  1  1  0  0  0
 41 38  1  0  0  0  0
 41 37  1  0  0  0  0
 42 43  1  0  0  0  0
 45 47  2  0  0  0  0
 46 47  1  0  0  0  0
 47 48  1  0  0  0  0
 48 44  1  0  0  0  0
 49 50  1  1  0  0  0
 49 55  1  0  0  0  0
 50 52  1  0  0  0  0
 52 51  2  0  0  0  0
 53 52  1  0  0  0  0
 54 53  1  0  0  0  0
 55 56  1  0  0  0  0
 56 58  1  0  0  0  0
 57 58  1  0  0  0  0
M  END
>  <MODEL>
1

>  <REMARK>
 VINA RESULT:      -6.2      0.000      0.000
  Name = 
  24 active torsions:
  status: ('A' for Active; 'I' for Inactive)
    1  A    between atoms: C_1  and  C_39
    2  A    between atoms: C_2  and  C_37
    3  A    between atoms: C_2  and  N_56
    4  A    between atoms: C_3  and  C_38
    5  A    between atoms: C_3  and  C_47
    6  A    between atoms: C_4  and  C_33
    7  A    between atoms: C_5  and  C_48
    8  A    between atoms: C_7  and  C_41
    9  A    between atoms: C_12  and  C_55
   10  A    between atoms: C_13  and  C_38
   11  A    between atoms: C_15  and  C_26
   12  A    between atoms: C_15  and  C_28
   13  A    between atoms: C_15  and  C_54
   14  A    between atoms: C_16  and  C_49
   15  A    between atoms: C_17  and  C_28
   16  A    between atoms: C_17  and  C_32
   17  A    between atoms: C_18  and  C_46
   18  A    between atoms: C_19  and  C_38
   19  A    between atoms: C_21  and  N_52
   20  A    between atoms: C_26  and  C_30
   21  A    between atoms: C_30  and  C_44
   22  A    between atoms: C_31  and  C_55
   23  A    between atoms: C_32  and  C_47
   24  A    between atoms: C_33  and  C_54
                            x       y       z     vdW  Elec       q    Type
                         _______ _______ _______ _____ _____    ______ ____

>  <TORSDO>
F 24

$$$$
=
 OpenBabel10222415553D

 58 62  0  0  1  0  0  0  0  0999 V2000
  188.0000  178.1370  141.4700 C   0  0  0  0  0  3  0  0  0  0  0  0
  186.8720  178.4260  142.1470 C   0  0  0  0  0  0  0  0  0  0  0  0
  185.6410  178.9540  141.4600 C   0  0  0  0  0  2  0  0  0  0  0  0
  184.4550  178.0140  141.6540 C   0  0  0  0  0  2  0  0  0  0  0  0
  183.7000  177.8370  140.3460 C   0  0  0  0  0  2  0  0  0  0  0  0
  182.3340  178.5040  140.4210 C   0  0  2  0  0  3  0  0  0  0  0  0
  181.9400  178.7740  141.8690 C   0  0  0  0  0  1  0  0  0  0  0  0
  181.2770  177.6840  139.6630 C   0  0  2  0  0  3  0  0  0  0  0  0
  180.8460  178.3600  137.1870 C   0  0  1  0  0  3  0  0  0  0  0  0
  180.4600  178.5250  138.6690 C   0  0  2  0  0  3  0  0  0  0  0  0
  181.3490  179.5490  137.9890 C   0  0  0  0  0  2  0  0  0  0  0  0
  186.5570  176.1470  135.7880 C   0  0  1  0  0  3  0  0  0  0  0  0
  186.2920  174.9180  136.4220 O   0  0  0  0  0  0  0  0  0  0  0  0
  183.9340  175.4570  136.3480 C   0  0  0  0  0  0  0  0  0  0  0  0
  183.2790  177.7540  136.8010 C   0  0  0  0  0  3  0  0  0  0  0  0
  182.5860  175.0720  136.4050 C   0  0  0  0  0  3  0  0  0  0  0  0
  181.9380  177.3560  136.9130 C   0  0  0  0  0  0  0  0  0  0  0  0
  184.2720  176.8150  136.5100 C   0  0  0  0  0  0  0  0  0  0  0  0
  185.0300  174.4790  135.9630 C   0  0  2  0  0  3  0  0  0  0  0  0
  185.7030  177.2550  136.4160 C   0  0  0  0  0  2  0  0  0  0  0  0
  181.5960  176.0160  136.6890 C   0  0  0  0  0  3  0  0  0  0  0  0
  185.0190  172.7790  137.8450 N   0  0  0  0  0  1  0  0  0  0  0  0
  184.7690  173.0990  136.4790 C   0  0  0  0  0  0  0  0  0  0  0  0
  184.3150  172.2190  135.7020 O   0  0  0  0  0  0  0  0  0  0  0  0
  188.2240  177.8630  136.0180 O   0  0  0  0  0  1  0  0  0  0  0  0
  188.0390  176.4840  135.8860 C   0  0  0  0  0  2  0  0  0  0  0  0
  180.3870  176.8020  140.5530 C   0  0  0  0  0  2  0  0  0  0  0  0
  179.7920  175.6150  139.8110 C   0  0  0  0  0  1  0  0  0  0  0  0
  188.1220  178.2780  139.9860 C   0  0  0  0  0  2  0  0  0  0  0  0
  190.3050  177.6230  139.0480 C   0  0  1  0  0  3  0  0  0  0  0  0
  188.9270  177.1210  139.4340 C   0  0  1  0  0  3  0  0  0  0  0  0
  190.1120  176.8660  140.3440 C   0  0  0  0  0  2  0  0  0  0  0  0
  192.2730  176.5090  137.9290 C   0  0  0  0  0  0  0  0  0  0  0  0
  193.0820  177.0830  138.7100 O   0  0  0  0  0  0  0  0  0  0  0  0
  190.8680  176.7300  138.0470 N   0  0  0  0  0  2  0  0  0  0  0  0
  194.3050  175.7320  136.7050 C   0  0  0  0  0  2  0  0  0  0  0  0
  192.3570  174.8560  134.7080 C   0  0  1  0  0  3  0  0  0  0  0  0
  194.7510  175.3870  135.2790 C   0  0  2  0  0  3  0  0  0  0  0  0
  192.7810  175.6200  136.8430 C   0  0  2  0  0  3  0  0  0  0  0  0
  192.1400  175.9220  135.6230 O   0  0  0  0  0  0  0  0  0  0  0  0
  193.8150  174.3560  134.6560 C   0  0  0  0  0  2  0  0  0  0  0  0
  192.0890  172.5850  135.7060 C   0  0  0  0  0  1  0  0  0  0  0  0
  191.3930  173.6980  134.9490 C   0  0  0  0  0  2  0  0  0  0  0  0
  196.1790  174.8660  135.2770 C   0  0  0  0  0  2  0  0  0  0  0  0
  198.3020  175.3170  138.2350 O   0  0  0  0  0  1  0  0  0  0  0  0
  197.5880  173.3350  137.3260 O   0  0  0  0  0  0  0  0  0  0  0  0
  197.6430  174.7270  137.3390 C   0  0  0  0  0  0  0  0  0  0  0  0
  196.9490  175.4930  136.3460 N   0  0  0  0  0  2  0  0  0  0  0  0
  186.8160  178.2550  143.6390 C   0  0  2  0  0  3  0  0  0  0  0  0
  185.9500  179.3510  144.2630 C   0  0  0  0  0  2  0  0  0  0  0  0
  183.9170  178.3750  145.2250 C   0  0  0  0  0  2  0  0  0  0  0  0
  185.1470  178.8480  145.4230 C   0  0  0  0  0  0  0  0  0  0  0  0
  185.6120  179.1540  146.8090 C   0  0  0  0  0  2  0  0  0  0  0  0
  186.5730  178.0890  147.3000 C   0  0  0  0  0  1  0  0  0  0  0  0
  188.2200  178.2300  144.2340 C   0  0  0  0  0  2  0  0  0  0  0  0
  188.6680  176.7990  144.4790 C   0  0  0  0  0  2  0  0  0  0  0  0
  191.1440  176.5200  144.6490 C   0  0  0  0  0  1  0  0  0  0  0  0
  189.8590  176.7700  145.4210 C   0  0  0  0  0  2  0  0  0  0  0  0
  1  2  2  0  0  0  0
  2 49  1  0  0  0  0
  3  4  1  0  0  0  0
  3  2  1  0  0  0  0
  5  6  1  0  0  0  0
  5  4  1  0  0  0  0
  6  7  1  1  0  0  0
  8  6  1  0  0  0  0
  8 27  1  1  0  0  0
  9 17  1  1  0  0  0
  9 11  1  0  0  0  0
  9 10  1  0  0  0  0
 10  8  1  1  0  0  0
 11 10  1  0  0  0  0
 12 26  1  1  0  0  0
 12 20  1  0  0  0  0
 12 13  1  0  0  0  0
 14 16  2  0  0  0  0
 14 18  1  0  0  0  0
 15 17  1  0  0  0  0
 16 21  1  0  0  0  0
 18 15  2  0  0  0  0
 19 14  1  0  0  0  0
 19 13  1  0  0  0  0
 19 23  1  1  0  0  0
 20 18  1  0  0  0  0
 21 17  2  0  0  0  0
 23 22  1  0  0  0  0
 24 23  2  0  0  0  0
 26 25  1  0  0  0  0
 28 27  1  0  0  0  0
 29  1  1  0  0  0  0
 30 35  1  6  0  0  0
 30 31  1  0  0  0  0
 30 32  1  0  0  0  0
 31 29  1  1  0  0  0
 31 32  1  0  0  0  0
 33 35  1  0  0  0  0
 33 34  2  0  0  0  0
 36 39  1  0  0  0  0
 37 43  1  1  0  0  0
 37 40  1  0  0  0  0
 38 44  1  1  0  0  0
 38 36  1  0  0  0  0
 39 33  1  1  0  0  0
 40 39  1  0  0  0  0
 41 37  1  0  0  0  0
 41 38  1  0  0  0  0
 43 42  1  0  0  0  0
 44 48  1  0  0  0  0
 46 47  2  0  0  0  0
 47 45  1  0  0  0  0
 48 47  1  0  0  0  0
 49 55  1  1  0  0  0
 49 50  1  0  0  0  0
 50 52  1  0  0  0  0
 51 52  2  0  0  0  0
 52 53  1  0  0  0  0
 53 54  1  0  0  0  0
 55 56  1  0  0  0  0
 56 58  1  0  0  0  0
 57 58  1  0  0  0  0
M  END
>  <MODEL>
2

>  <REMARK>
 VINA RESULT:      -6.1      1.562      2.943
  Name = 
  24 active torsions:
  status: ('A' for Active; 'I' for Inactive)
    1  A    between atoms: C_1  and  C_39
    2  A    between atoms: C_2  and  C_37
    3  A    between atoms: C_2  and  N_56
    4  A    between atoms: C_3  and  C_38
    5  A    between atoms: C_3  and  C_47
    6  A    between atoms: C_4  and  C_33
    7  A    between atoms: C_5  and  C_48
    8  A    between atoms: C_7  and  C_41
    9  A    between atoms: C_12  and  C_55
   10  A    between atoms: C_13  and  C_38
   11  A    between atoms: C_15  and  C_26
   12  A    between atoms: C_15  and  C_28
   13  A    between atoms: C_15  and  C_54
   14  A    between atoms: C_16  and  C_49
   15  A    between atoms: C_17  and  C_28
   16  A    between atoms: C_17  and  C_32
   17  A    between atoms: C_18  and  C_46
   18  A    between atoms: C_19  and  C_38
   19  A    between atoms: C_21  and  N_52
   20  A    between atoms: C_26  and  C_30
   21  A    between atoms: C_30  and  C_44
   22  A    between atoms: C_31  and  C_55
   23  A    between atoms: C_32  and  C_47
   24  A    between atoms: C_33  and  C_54
                            x       y       z     vdW  Elec       q    Type
                         _______ _______ _______ _____ _____    ______ ____

>  <TORSDO>
F 24

$$$$
=
 OpenBabel10222415553D

 58 62  0  0  1  0  0  0  0  0999 V2000
  188.3820  176.9410  138.2660 C   0  0  0  0  0  3  0  0  0  0  0  0
  188.0440  176.8570  136.9650 C   0  0  0  0  0  0  0  0  0  0  0  0
  187.1030  177.8370  136.3190 C   0  0  0  0  0  2  0  0  0  0  0  0
  185.7900  177.9330  137.0910 C   0  0  0  0  0  2  0  0  0  0  0  0
  185.1170  176.5720  137.1620 C   0  0  0  0  0  2  0  0  0  0  0  0
  184.1260  176.4040  136.0190 C   0  0  2  0  0  3  0  0  0  0  0  0
  184.4060  177.4050  134.9050 C   0  0  0  0  0  1  0  0  0  0  0  0
  182.6770  176.4760  136.5300 C   0  0  2  0  0  3  0  0  0  0  0  0
  181.1940  174.7650  137.8140 C   0  0  1  0  0  3  0  0  0  0  0  0
  181.9670  175.1130  136.5270 C   0  0  2  0  0  3  0  0  0  0  0  0
  182.5820  174.1960  137.5680 C   0  0  0  0  0  2  0  0  0  0  0  0
  183.3820  178.4690  142.3920 C   0  0  1  0  0  3  0  0  0  0  0  0
  182.4070  179.4520  142.1330 O   0  0  0  0  0  0  0  0  0  0  0  0
  181.1520  177.7950  140.8940 C   0  0  0  0  0  0  0  0  0  0  0  0
  182.3920  176.2490  139.4860 C   0  0  0  0  0  3  0  0  0  0  0  0
  179.9550  177.3380  140.3230 C   0  0  0  0  0  3  0  0  0  0  0  0
  181.1980  175.8360  138.8770 C   0  0  0  0  0  0  0  0  0  0  0  0
  182.3730  177.2150  140.4960 C   0  0  0  0  0  0  0  0  0  0  0  0
  181.1640  178.7880  142.0430 C   0  0  2  0  0  3  0  0  0  0  0  0
  183.6620  177.6610  141.1190 C   0  0  0  0  0  2  0  0  0  0  0  0
  179.9790  176.3670  139.3190 C   0  0  0  0  0  3  0  0  0  0  0  0
  178.9410  179.7470  142.7990 N   0  0  0  0  0  1  0  0  0  0  0  0
  180.0690  179.8020  141.9300 C   0  0  0  0  0  0  0  0  0  0  0  0
  180.1520  180.7150  141.0680 O   0  0  0  0  0  0  0  0  0  0  0  0
  184.3810  179.9370  144.0120 O   0  0  0  0  0  1  0  0  0  0  0  0
  184.6570  179.1150  142.9150 C   0  0  0  0  0  2  0  0  0  0  0  0
  181.8240  177.5810  135.8880 C   0  0  0  0  0  2  0  0  0  0  0  0
  181.8840  178.8980  136.6470 C   0  0  0  0  0  1  0  0  0  0  0  0
  187.8850  178.0230  139.1720 C   0  0  0  0  0  2  0  0  0  0  0  0
  189.3220  176.7940  140.7530 C   0  0  1  0  0  3  0  0  0  0  0  0
  188.8280  178.1690  140.3470 C   0  0  1  0  0  3  0  0  0  0  0  0
  190.2100  177.7040  139.9320 C   0  0  0  0  0  2  0  0  0  0  0  0
  188.8490  176.5520  143.2200 C   0  0  0  0  0  0  0  0  0  0  0  0
  187.6470  176.2400  142.9900 O   0  0  0  0  0  0  0  0  0  0  0  0
  189.7440  176.8370  142.1440 N   0  0  0  0  0  2  0  0  0  0  0  0
  188.2620  177.2670  145.5380 C   0  0  0  0  0  2  0  0  0  0  0  0
  191.1600  177.2340  145.9230 C   0  0  1  0  0  3  0  0  0  0  0  0
  188.8980  177.9760  146.7390 C   0  0  2  0  0  3  0  0  0  0  0  0
  189.3390  176.6670  144.6240 C   0  0  2  0  0  3  0  0  0  0  0  0
  190.5220  177.4350  144.6680 O   0  0  0  0  0  0  0  0  0  0  0  0
  190.2080  177.3000  147.1330 C   0  0  0  0  0  2  0  0  0  0  0  0
  192.3880  175.6040  147.3600 C   0  0  0  0  0  1  0  0  0  0  0  0
  191.9750  175.9430  145.9410 C   0  0  0  0  0  2  0  0  0  0  0  0
  187.9400  177.9900  147.9190 C   0  0  0  0  0  2  0  0  0  0  0  0
  184.4590  178.4180  146.8460 O   0  0  0  0  0  0  0  0  0  0  0  0
  185.9400  180.0640  147.4480 O   0  0  0  0  0  1  0  0  0  0  0  0
  185.6150  178.7250  147.2390 C   0  0  0  0  0  0  0  0  0  0  0  0
  186.5820  177.6950  147.4750 N   0  0  0  0  0  2  0  0  0  0  0  0
  188.5860  175.7460  136.1100 C   0  0  2  0  0  3  0  0  0  0  0  0
  189.8590  176.2040  135.3950 C   0  0  0  0  0  2  0  0  0  0  0  0
  191.2120  174.1610  135.3310 C   0  0  0  0  0  2  0  0  0  0  0  0
  191.0560  175.4000  135.7960 C   0  0  0  0  0  0  0  0  0  0  0  0
  191.8970  175.8780  136.9340 C   0  0  0  0  0  2  0  0  0  0  0  0
  192.5990  174.7140  137.6080 C   0  0  0  0  0  1  0  0  0  0  0  0
  187.5280  175.2540  135.1280 C   0  0  0  0  0  2  0  0  0  0  0  0
  186.9600  173.9210  135.5840 C   0  0  0  0  0  2  0  0  0  0  0  0
  187.3440  171.9080  137.0120 C   0  0  0  0  0  1  0  0  0  0  0  0
  187.9040  173.2490  136.5650 C   0  0  0  0  0  2  0  0  0  0  0  0
  1 29  1  0  0  0  0
  2  1  2  0  0  0  0
  3  2  1  0  0  0  0
  3  4  1  0  0  0  0
  4  5  1  0  0  0  0
  6  7  1  6  0  0  0
  6  8  1  0  0  0  0
  6  5  1  0  0  0  0
  8 27  1  6  0  0  0
  9 17  1  1  0  0  0
 10  8  1  1  0  0  0
 10 11  1  0  0  0  0
 10  9  1  0  0  0  0
 11  9  1  0  0  0  0
 12 26  1  6  0  0  0
 13 12  1  0  0  0  0
 14 19  1  0  0  0  0
 15 18  2  0  0  0  0
 16 14  2  0  0  0  0
 17 21  2  0  0  0  0
 17 15  1  0  0  0  0
 18 14  1  0  0  0  0
 18 20  1  0  0  0  0
 19 23  1  6  0  0  0
 19 13  1  0  0  0  0
 20 12  1  0  0  0  0
 21 16  1  0  0  0  0
 23 22  1  0  0  0  0
 24 23  2  0  0  0  0
 26 25  1  0  0  0  0
 27 28  1  0  0  0  0
 30 35  1  1  0  0  0
 31 29  1  6  0  0  0
 31 30  1  0  0  0  0
 32 31  1  0  0  0  0
 32 30  1  0  0  0  0
 34 33  2  0  0  0  0
 35 33  1  0  0  0  0
 36 38  1  0  0  0  0
 37 43  1  6  0  0  0
 37 41  1  0  0  0  0
 38 41  1  0  0  0  0
 38 44  1  1  0  0  0
 39 33  1  6  0  0  0
 39 40  1  0  0  0  0
 39 36  1  0  0  0  0
 40 37  1  0  0  0  0
 43 42  1  0  0  0  0
 45 47  2  0  0  0  0
 47 46  1  0  0  0  0
 47 48  1  0  0  0  0
 48 44  1  0  0  0  0
 49 55  1  6  0  0  0
 49  2  1  0  0  0  0
 50 52  1  0  0  0  0
 50 49  1  0  0  0  0
 51 52  2  0  0  0  0
 52 53  1  0  0  0  0
 53 54  1  0  0  0  0
 55 56  1  0  0  0  0
 56 58  1  0  0  0  0
 58 57  1  0  0  0  0
M  END
>  <MODEL>
3

>  <REMARK>
 VINA RESULT:      -5.8      4.079      8.771
  Name = 
  24 active torsions:
  status: ('A' for Active; 'I' for Inactive)
    1  A    between atoms: C_1  and  C_39
    2  A    between atoms: C_2  and  C_37
    3  A    between atoms: C_2  and  N_56
    4  A    between atoms: C_3  and  C_38
    5  A    between atoms: C_3  and  C_47
    6  A    between atoms: C_4  and  C_33
    7  A    between atoms: C_5  and  C_48
    8  A    between atoms: C_7  and  C_41
    9  A    between atoms: C_12  and  C_55
   10  A    between atoms: C_13  and  C_38
   11  A    between atoms: C_15  and  C_26
   12  A    between atoms: C_15  and  C_28
   13  A    between atoms: C_15  and  C_54
   14  A    between atoms: C_16  and  C_49
   15  A    between atoms: C_17  and  C_28
   16  A    between atoms: C_17  and  C_32
   17  A    between atoms: C_18  and  C_46
   18  A    between atoms: C_19  and  C_38
   19  A    between atoms: C_21  and  N_52
   20  A    between atoms: C_26  and  C_30
   21  A    between atoms: C_30  and  C_44
   22  A    between atoms: C_31  and  C_55
   23  A    between atoms: C_32  and  C_47
   24  A    between atoms: C_33  and  C_54
                            x       y       z     vdW  Elec       q    Type
                         _______ _______ _______ _____ _____    ______ ____

>  <TORSDO>
F 24

$$$$
=
 OpenBabel10222415553D

 58 62  0  0  1  0  0  0  0  0999 V2000
  186.2520  177.8870  145.2460 C   0  0  0  0  0  3  0  0  0  0  0  0
  187.1390  177.6150  144.2700 C   0  0  0  0  0  0  0  0  0  0  0  0
  186.7200  177.4450  142.8340 C   0  0  0  0  0  2  0  0  0  0  0  0
  187.5240  178.3580  141.9130 C   0  0  0  0  0  2  0  0  0  0  0  0
  186.8210  178.5090  140.5730 C   0  0  0  0  0  2  0  0  0  0  0  0
  187.6600  177.9030  139.4560 C   0  0  2  0  0  3  0  0  0  0  0  0
  188.9350  178.7100  139.2360 C   0  0  0  0  0  1  0  0  0  0  0  0
  186.8320  177.7400  138.1710 C   0  0  2  0  0  3  0  0  0  0  0  0
  187.2330  178.0410  135.6170 C   0  0  1  0  0  3  0  0  0  0  0  0
  187.3070  178.6530  137.0280 C   0  0  2  0  0  3  0  0  0  0  0  0
  188.5500  178.0790  136.3760 C   0  0  0  0  0  2  0  0  0  0  0  0
  187.0830  171.7720  135.2330 C   0  0  1  0  0  3  0  0  0  0  0  0
  185.8110  171.7150  135.8340 O   0  0  0  0  0  0  0  0  0  0  0  0
  185.5460  174.0720  135.3570 C   0  0  0  0  0  0  0  0  0  0  0  0
  187.4790  175.5160  135.6540 C   0  0  0  0  0  3  0  0  0  0  0  0
  184.7360  175.2060  135.1940 C   0  0  0  0  0  3  0  0  0  0  0  0
  186.6570  176.6480  135.5470 C   0  0  0  0  0  0  0  0  0  0  0  0
  186.9320  174.2350  135.5500 C   0  0  0  0  0  0  0  0  0  0  0  0
  185.0000  172.6670  135.1780 C   0  0  2  0  0  3  0  0  0  0  0  0
  187.8230  173.0360  135.6900 C   0  0  0  0  0  2  0  0  0  0  0  0
  185.2890  176.4860  135.2920 C   0  0  0  0  0  3  0  0  0  0  0  0
  183.3000  172.6110  137.0590 N   0  0  0  0  0  1  0  0  0  0  0  0
  183.5920  172.5360  135.6660 C   0  0  0  0  0  0  0  0  0  0  0  0
  182.6580  172.3710  134.8380 O   0  0  0  0  0  0  0  0  0  0  0  0
  189.1270  170.5440  134.9310 O   0  0  0  0  0  1  0  0  0  0  0  0
  187.8850  170.5230  135.5720 C   0  0  0  0  0  2  0  0  0  0  0  0
  185.3100  177.8010  138.3740 C   0  0  0  0  0  2  0  0  0  0  0  0
  184.7270  179.1800  138.1060 C   0  0  0  0  0  1  0  0  0  0  0  0
  184.7900  178.0770  144.9930 C   0  0  0  0  0  2  0  0  0  0  0  0
  183.1180  178.7250  143.3020 C   0  0  1  0  0  3  0  0  0  0  0  0
  184.5930  178.7530  143.6540 C   0  0  1  0  0  3  0  0  0  0  0  0
  183.7400  179.9910  143.8480 C   0  0  0  0  0  2  0  0  0  0  0  0
  181.7020  178.8050  141.2160 C   0  0  0  0  0  0  0  0  0  0  0  0
  180.6430  178.6810  141.8930 O   0  0  0  0  0  0  0  0  0  0  0  0
  182.9750  178.8390  141.8600 N   0  0  0  0  0  2  0  0  0  0  0  0
  181.4140  180.3170  139.2510 C   0  0  0  0  0  2  0  0  0  0  0  0
  180.8150  177.8230  137.8440 C   0  0  1  0  0  3  0  0  0  0  0  0
  180.7190  180.3390  137.8850 C   0  0  2  0  0  3  0  0  0  0  0  0
  181.6370  178.8750  139.7270 C   0  0  2  0  0  3  0  0  0  0  0  0
  180.6260  178.0200  139.2400 O   0  0  0  0  0  0  0  0  0  0  0  0
  181.1120  179.1170  137.0590 C   0  0  0  0  0  2  0  0  0  0  0  0
  181.2210  175.4870  137.0670 C   0  0  0  0  0  1  0  0  0  0  0  0
  181.8750  176.7610  137.5620 C   0  0  0  0  0  2  0  0  0  0  0  0
  181.0630  181.6120  137.1310 C   0  0  0  0  0  2  0  0  0  0  0  0
  179.3880  184.8400  137.6180 O   0  0  0  0  0  1  0  0  0  0  0  0
  181.6420  184.4600  137.4190 O   0  0  0  0  0  0  0  0  0  0  0  0
  180.3240  184.0120  137.4590 C   0  0  0  0  0  0  0  0  0  0  0  0
  180.0240  182.6170  137.3290 N   0  0  0  0  0  2  0  0  0  0  0  0
  188.5960  177.4430  144.5940 C   0  0  2  0  0  3  0  0  0  0  0  0
  189.2390  176.4520  143.6210 C   0  0  0  0  0  2  0  0  0  0  0  0
  191.6090  175.9040  143.9290 C   0  0  0  0  0  2  0  0  0  0  0  0
  190.6960  176.7260  143.4120 C   0  0  0  0  0  0  0  0  0  0  0  0
  191.1110  178.0620  142.8890 C   0  0  0  0  0  2  0  0  0  0  0  0
  191.7560  178.8900  143.9830 C   0  0  0  0  0  1  0  0  0  0  0  0
  188.7810  177.0150  146.0460 C   0  0  0  0  0  2  0  0  0  0  0  0
  189.6410  178.0210  146.7910 C   0  0  0  0  0  2  0  0  0  0  0  0
  187.8750  178.0770  148.5560 C   0  0  0  0  0  1  0  0  0  0  0  0
  189.3650  177.9540  148.2830 C   0  0  0  0  0  2  0  0  0  0  0  0
  2 49  1  0  0  0  0
  2  1  2  0  0  0  0
  3  2  1  0  0  0  0
  4  3  1  0  0  0  0
  5  4  1  0  0  0  0
  6  7  1  6  0  0  0
  6  5  1  0  0  0  0
  8 27  1  1  0  0  0
  8  6  1  0  0  0  0
  9 17  1  1  0  0  0
  9 11  1  0  0  0  0
  9 10  1  0  0  0  0
 10  8  1  1  0  0  0
 11 10  1  0  0  0  0
 12 26  1  1  0  0  0
 12 20  1  0  0  0  0
 12 13  1  0  0  0  0
 14 18  1  0  0  0  0
 16 21  1  0  0  0  0
 16 14  2  0  0  0  0
 17 15  1  0  0  0  0
 18 15  2  0  0  0  0
 18 20  1  0  0  0  0
 19 14  1  0  0  0  0
 19 23  1  1  0  0  0
 19 13  1  0  0  0  0
 21 17  2  0  0  0  0
 23 22  1  0  0  0  0
 24 23  2  0  0  0  0
 25 26  1  0  0  0  0
 28 27  1  0  0  0  0
 29  1  1  0  0  0  0
 30 35  1  6  0  0  0
 30 31  1  0  0  0  0
 30 32  1  0  0  0  0
 31 32  1  0  0  0  0
 31 29  1  1  0  0  0
 33 35  1  0  0  0  0
 33 34  2  0  0  0  0
 36 39  1  0  0  0  0
 37 43  1  1  0  0  0
 37 40  1  0  0  0  0
 38 44  1  6  0  0  0
 38 36  1  0  0  0  0
 39 33  1  1  0  0  0
 40 39  1  0  0  0  0
 41 37  1  0  0  0  0
 41 38  1  0  0  0  0
 42 43  1  0  0  0  0
 44 48  1  0  0  0  0
 46 47  2  0  0  0  0
 47 45  1  0  0  0  0
 48 47  1  0  0  0  0
 49 50  1  6  0  0  0
 49 55  1  0  0  0  0
 52 50  1  0  0  0  0
 52 51  2  0  0  0  0
 53 52  1  0  0  0  0
 53 54  1  0  0  0  0
 55 56  1  0  0  0  0
 56 58  1  0  0  0  0
 58 57  1  0  0  0  0
M  END
>  <MODEL>
4

>  <REMARK>
 VINA RESULT:      -5.8      3.721      8.613
  Name = 
  24 active torsions:
  status: ('A' for Active; 'I' for Inactive)
    1  A    between atoms: C_1  and  C_39
    2  A    between atoms: C_2  and  C_37
    3  A    between atoms: C_2  and  N_56
    4  A    between atoms: C_3  and  C_38
    5  A    between atoms: C_3  and  C_47
    6  A    between atoms: C_4  and  C_33
    7  A    between atoms: C_5  and  C_48
    8  A    between atoms: C_7  and  C_41
    9  A    between atoms: C_12  and  C_55
   10  A    between atoms: C_13  and  C_38
   11  A    between atoms: C_15  and  C_26
   12  A    between atoms: C_15  and  C_28
   13  A    between atoms: C_15  and  C_54
   14  A    between atoms: C_16  and  C_49
   15  A    between atoms: C_17  and  C_28
   16  A    between atoms: C_17  and  C_32
   17  A    between atoms: C_18  and  C_46
   18  A    between atoms: C_19  and  C_38
   19  A    between atoms: C_21  and  N_52
   20  A    between atoms: C_26  and  C_30
   21  A    between atoms: C_30  and  C_44
   22  A    between atoms: C_31  and  C_55
   23  A    between atoms: C_32  and  C_47
   24  A    between atoms: C_33  and  C_54
                            x       y       z     vdW  Elec       q    Type
                         _______ _______ _______ _____ _____    ______ ____

>  <TORSDO>
F 24

$$$$
=
 OpenBabel10222415553D

 58 62  0  0  1  0  0  0  0  0999 V2000
  183.2870  179.5560  139.3840 C   0  0  0  0  0  3  0  0  0  0  0  0
  182.1080  179.2010  138.8390 C   0  0  0  0  0  0  0  0  0  0  0  0
  181.8090  177.7810  138.4370 C   0  0  0  0  0  2  0  0  0  0  0  0
  182.0700  176.8150  139.5880 C   0  0  0  0  0  2  0  0  0  0  0  0
  181.5350  175.4320  139.2490 C   0  0  0  0  0  2  0  0  0  0  0  0
  180.1360  175.5280  138.6590 C   0  0  2  0  0  3  0  0  0  0  0  0
  179.0840  175.5830  139.7610 C   0  0  0  0  0  1  0  0  0  0  0  0
  179.8820  174.3930  137.6530 C   0  0  2  0  0  3  0  0  0  0  0  0
  179.8910  175.1940  135.1770 C   0  0  1  0  0  3  0  0  0  0  0  0
  179.0660  174.8420  136.4300 C   0  0  2  0  0  3  0  0  0  0  0  0
  179.3720  176.2890  136.0950 C   0  0  0  0  0  2  0  0  0  0  0  0
  185.9930  176.6630  135.4430 C   0  0  1  0  0  3  0  0  0  0  0  0
  186.2930  175.5010  136.1810 O   0  0  0  0  0  0  0  0  0  0  0  0
  184.1570  174.5910  135.5000 C   0  0  0  0  0  0  0  0  0  0  0  0
  182.2480  176.0940  135.4410 C   0  0  0  0  0  3  0  0  0  0  0  0
  183.2930  173.5020  135.3120 C   0  0  0  0  0  3  0  0  0  0  0  0
  181.3810  174.9990  135.3100 C   0  0  0  0  0  0  0  0  0  0  0  0
  183.6280  175.8960  135.5260 C   0  0  0  0  0  0  0  0  0  0  0  0
  185.6650  174.4210  135.5230 C   0  0  2  0  0  3  0  0  0  0  0  0
  184.5380  177.0780  135.6880 C   0  0  0  0  0  2  0  0  0  0  0  0
  181.9130  173.7060  135.2210 C   0  0  0  0  0  3  0  0  0  0  0  0
  186.3130  171.9720  135.3830 N   0  0  0  0  0  1  0  0  0  0  0  0
  186.0840  173.1380  136.1700 C   0  0  0  0  0  0  0  0  0  0  0  0
  186.2460  173.0940  137.4170 O   0  0  0  0  0  0  0  0  0  0  0  0
  186.7370  178.1950  137.1380 O   0  0  0  0  0  1  0  0  0  0  0  0
  186.9480  177.7880  135.8180 C   0  0  0  0  0  2  0  0  0  0  0  0
  179.3410  173.0950  138.2730 C   0  0  0  0  0  2  0  0  0  0  0  0
  179.6380  171.8630  137.4310 C   0  0  0  0  0  1  0  0  0  0  0  0
  184.3840  178.5810  139.6680 C   0  0  0  0  0  2  0  0  0  0  0  0
  185.8810  177.8610  141.4890 C   0  0  1  0  0  3  0  0  0  0  0  0
  185.1840  179.0530  140.8640 C   0  0  1  0  0  3  0  0  0  0  0  0
  186.6560  178.8080  140.6000 C   0  0  0  0  0  2  0  0  0  0  0  0
  187.1950  177.4860  143.6110 C   0  0  0  0  0  0  0  0  0  0  0  0
  187.9000  176.5990  143.0540 O   0  0  0  0  0  0  0  0  0  0  0  0
  186.1690  178.1620  142.8830 N   0  0  0  0  0  2  0  0  0  0  0  0
  188.8140  177.4350  145.5100 C   0  0  0  0  0  2  0  0  0  0  0  0
  186.4040  177.7580  147.1350 C   0  0  1  0  0  3  0  0  0  0  0  0
  188.8420  177.1440  147.0140 C   0  0  2  0  0  3  0  0  0  0  0  0
  187.3980  177.8120  145.0530 C   0  0  2  0  0  3  0  0  0  0  0  0
  186.4240  177.1650  145.8430 O   0  0  0  0  0  0  0  0  0  0  0  0
  187.8010  177.9850  147.7470 C   0  0  0  0  0  2  0  0  0  0  0  0
  184.6770  179.1070  145.9400 C   0  0  0  0  0  1  0  0  0  0  0  0
  185.5880  179.0480  147.1510 C   0  0  0  0  0  2  0  0  0  0  0  0
  190.2260  177.4110  147.5840 C   0  0  0  0  0  2  0  0  0  0  0  0
  192.6560  174.9170  146.4320 O   0  0  0  0  0  1  0  0  0  0  0  0
  192.0930  176.8880  145.4010 O   0  0  0  0  0  0  0  0  0  0  0  0
  191.9640  175.9690  146.4400 C   0  0  0  0  0  0  0  0  0  0  0  0
  191.0450  176.2070  147.5140 N   0  0  0  0  0  2  0  0  0  0  0  0
  181.0450  180.2330  138.5870 C   0  0  2  0  0  3  0  0  0  0  0  0
  181.6820  181.5380  138.1050 C   0  0  0  0  0  2  0  0  0  0  0  0
  180.0890  181.8640  136.2690 C   0  0  0  0  0  2  0  0  0  0  0  0
  180.7240  182.3810  137.3210 C   0  0  0  0  0  0  0  0  0  0  0  0
  180.7160  183.8580  137.5420 C   0  0  0  0  0  2  0  0  0  0  0  0
  179.6050  184.5130  136.7450 C   0  0  0  0  0  1  0  0  0  0  0  0
  180.1900  180.4440  139.8320 C   0  0  0  0  0  2  0  0  0  0  0  0
  179.2630  179.2590  140.0470 C   0  0  0  0  0  2  0  0  0  0  0  0
  180.6060  179.3110  142.1520 C   0  0  0  0  0  1  0  0  0  0  0  0
  179.3570  178.7650  141.4790 C   0  0  0  0  0  2  0  0  0  0  0  0
  1 29  1  0  0  0  0
  2  1  2  0  0  0  0
  3  2  1  0  0  0  0
  3  4  1  0  0  0  0
  5  4  1  0  0  0  0
  6  5  1  0  0  0  0
  6  7  1  1  0  0  0
  8 27  1  1  0  0  0
  8  6  1  0  0  0  0
  9 17  1  1  0  0  0
  9 11  1  0  0  0  0
  9 10  1  0  0  0  0
 10  8  1  1  0  0  0
 11 10  1  0  0  0  0
 12 20  1  0  0  0  0
 12 26  1  1  0  0  0
 12 13  1  0  0  0  0
 14 19  1  0  0  0  0
 14 18  1  0  0  0  0
 15 18  2  0  0  0  0
 16 14  2  0  0  0  0
 17 15  1  0  0  0  0
 18 20  1  0  0  0  0
 19 23  1  1  0  0  0
 19 13  1  0  0  0  0
 21 17  2  0  0  0  0
 21 16  1  0  0  0  0
 22 23  1  0  0  0  0
 23 24  2  0  0  0  0
 26 25  1  0  0  0  0
 28 27  1  0  0  0  0
 30 35  1  1  0  0  0
 31 29  1  6  0  0  0
 31 30  1  0  0  0  0
 32 31  1  0  0  0  0
 32 30  1  0  0  0  0
 34 33  2  0  0  0  0
 35 33  1  0  0  0  0
 36 38  1  0  0  0  0
 37 43  1  6  0  0  0
 37 41  1  0  0  0  0
 38 44  1  1  0  0  0
 38 41  1  0  0  0  0
 39 33  1  6  0  0  0
 39 36  1  0  0  0  0
 39 40  1  0  0  0  0
 40 37  1  0  0  0  0
 42 43  1  0  0  0  0
 45 47  1  0  0  0  0
 46 47  2  0  0  0  0
 47 48  1  0  0  0  0
 48 44  1  0  0  0  0
 49 50  1  1  0  0  0
 49  2  1  0  0  0  0
 49 55  1  0  0  0  0
 51 52  2  0  0  0  0
 52 53  1  0  0  0  0
 52 50  1  0  0  0  0
 54 53  1  0  0  0  0
 55 56  1  0  0  0  0
 56 58  1  0  0  0  0
 58 57  1  0  0  0  0
M  END
>  <MODEL>
5

>  <REMARK>
 VINA RESULT:      -5.8      3.987      7.804
  Name = 
  24 active torsions:
  status: ('A' for Active; 'I' for Inactive)
    1  A    between atoms: C_1  and  C_39
    2  A    between atoms: C_2  and  C_37
    3  A    between atoms: C_2  and  N_56
    4  A    between atoms: C_3  and  C_38
    5  A    between atoms: C_3  and  C_47
    6  A    between atoms: C_4  and  C_33
    7  A    between atoms: C_5  and  C_48
    8  A    between atoms: C_7  and  C_41
    9  A    between atoms: C_12  and  C_55
   10  A    between atoms: C_13  and  C_38
   11  A    between atoms: C_15  and  C_26
   12  A    between atoms: C_15  and  C_28
   13  A    between atoms: C_15  and  C_54
   14  A    between atoms: C_16  and  C_49
   15  A    between atoms: C_17  and  C_28
   16  A    between atoms: C_17  and  C_32
   17  A    between atoms: C_18  and  C_46
   18  A    between atoms: C_19  and  C_38
   19  A    between atoms: C_21  and  N_52
   20  A    between atoms: C_26  and  C_30
   21  A    between atoms: C_30  and  C_44
   22  A    between atoms: C_31  and  C_55
   23  A    between atoms: C_32  and  C_47
   24  A    between atoms: C_33  and  C_54
                            x       y       z     vdW  Elec       q    Type
                         _______ _______ _______ _____ _____    ______ ____

>  <TORSDO>
F 24

$$$$
=
 OpenBabel10222415553D

 58 62  0  0  1  0  0  0  0  0999 V2000
  181.2290  179.8050  140.9880 C   0  0  0  0  0  3  0  0  0  0  0  0
  180.5720  179.0740  140.0670 C   0  0  0  0  0  0  0  0  0  0  0  0
  180.3820  177.5880  140.2150 C   0  0  0  0  0  2  0  0  0  0  0  0
  181.2450  176.8190  139.2200 C   0  0  0  0  0  2  0  0  0  0  0  0
  180.9050  175.3380  139.2580 C   0  0  0  0  0  2  0  0  0  0  0  0
  180.2070  174.9140  137.9730 C   0  0  2  0  0  3  0  0  0  0  0  0
  178.9380  174.1270  138.2780 C   0  0  0  0  0  1  0  0  0  0  0  0
  181.1690  174.1510  137.0480 C   0  0  2  0  0  3  0  0  0  0  0  0
  181.7950  175.0160  134.6740 C   0  0  1  0  0  3  0  0  0  0  0  0
  180.7900  174.2590  135.5620 C   0  0  2  0  0  3  0  0  0  0  0  0
  180.5410  175.7060  135.1850 C   0  0  0  0  0  2  0  0  0  0  0  0
  187.6000  174.8930  137.0730 C   0  0  1  0  0  3  0  0  0  0  0  0
  187.7180  176.2950  136.9940 O   0  0  0  0  0  0  0  0  0  0  0  0
  185.3130  176.4220  136.7510 C   0  0  0  0  0  0  0  0  0  0  0  0
  184.2210  174.7490  135.3660 C   0  0  0  0  0  3  0  0  0  0  0  0
  184.1120  177.1440  136.8080 C   0  0  0  0  0  3  0  0  0  0  0  0
  183.0380  175.5030  135.3780 C   0  0  0  0  0  0  0  0  0  0  0  0
  185.3510  175.1970  136.0550 C   0  0  0  0  0  0  0  0  0  0  0  0
  186.5380  176.8400  137.5460 C   0  0  2  0  0  3  0  0  0  0  0  0
  186.6140  174.3890  136.0120 C   0  0  0  0  0  2  0  0  0  0  0  0
  182.9830  176.6880  136.1230 C   0  0  0  0  0  3  0  0  0  0  0  0
  187.5150  179.0320  136.7260 N   0  0  0  0  0  1  0  0  0  0  0  0
  186.6770  178.3270  137.6370 C   0  0  0  0  0  0  0  0  0  0  0  0
  186.0380  178.9590  138.5190 O   0  0  0  0  0  0  0  0  0  0  0  0
  189.0290  173.5480  135.6850 O   0  0  0  0  0  1  0  0  0  0  0  0
  188.9640  174.2380  136.8990 C   0  0  0  0  0  2  0  0  0  0  0  0
  181.4590  172.7040  137.4750 C   0  0  0  0  0  2  0  0  0  0  0  0
  182.7430  172.1510  136.8760 C   0  0  0  0  0  1  0  0  0  0  0  0
  181.7940  179.2220  142.2450 C   0  0  0  0  0  2  0  0  0  0  0  0
  183.8400  177.8620  142.0510 C   0  0  1  0  0  3  0  0  0  0  0  0
  183.3060  179.2750  142.1900 C   0  0  1  0  0  3  0  0  0  0  0  0
  183.7670  178.7640  140.8380 C   0  0  0  0  0  2  0  0  0  0  0  0
  185.5160  177.8830  143.9360 C   0  0  0  0  0  0  0  0  0  0  0  0
  184.5950  177.9590  144.7970 O   0  0  0  0  0  0  0  0  0  0  0  0
  185.2070  177.8250  142.5440 N   0  0  0  0  0  2  0  0  0  0  0  0
  187.8680  177.4440  143.2230 C   0  0  0  0  0  2  0  0  0  0  0  0
  188.3760  177.3840  146.1030 C   0  0  1  0  0  3  0  0  0  0  0  0
  189.1630  176.8370  143.7750 C   0  0  2  0  0  3  0  0  0  0  0  0
  186.9460  177.8940  144.3650 C   0  0  2  0  0  3  0  0  0  0  0  0
  187.1210  177.0810  145.5050 O   0  0  0  0  0  0  0  0  0  0  0  0
  189.5430  177.4890  145.1010 C   0  0  0  0  0  2  0  0  0  0  0  0
  188.7170  178.3010  148.3980 C   0  0  0  0  0  1  0  0  0  0  0  0
  188.2970  178.6300  146.9800 C   0  0  0  0  0  2  0  0  0  0  0  0
  190.2950  176.9920  142.7720 C   0  0  0  0  0  2  0  0  0  0  0  0
  189.6670  177.9920  139.2990 O   0  0  0  0  0  0  0  0  0  0  0  0
  190.7940  176.1300  140.0270 O   0  0  0  0  0  1  0  0  0  0  0  0
  190.0880  177.3070  140.2680 C   0  0  0  0  0  0  0  0  0  0  0  0
  189.8430  177.7480  141.6090 N   0  0  0  0  0  2  0  0  0  0  0  0
  180.0230  179.7260  138.8300 C   0  0  2  0  0  3  0  0  0  0  0  0
  181.0410  179.6350  137.6910 C   0  0  0  0  0  2  0  0  0  0  0  0
  179.2730  178.6470  136.3090 C   0  0  0  0  0  2  0  0  0  0  0  0
  180.3900  179.3710  136.3690 C   0  0  0  0  0  0  0  0  0  0  0  0
  181.1530  179.6630  135.1180 C   0  0  0  0  0  2  0  0  0  0  0  0
  180.8280  181.0530  134.6050 C   0  0  0  0  0  1  0  0  0  0  0  0
  179.6140  181.1680  139.1140 C   0  0  0  0  0  2  0  0  0  0  0  0
  180.6140  182.1330  138.5010 C   0  0  0  0  0  2  0  0  0  0  0  0
  180.9110  184.0660  136.9470 C   0  0  0  0  0  1  0  0  0  0  0  0
  179.9080  183.1200  137.5880 C   0  0  0  0  0  2  0  0  0  0  0  0
  1 29  1  0  0  0  0
  2  3  1  0  0  0  0
  2  1  2  0  0  0  0
  4  5  1  0  0  0  0
  4  3  1  0  0  0  0
  6  7  1  1  0  0  0
  6  5  1  0  0  0  0
  8 27  1  1  0  0  0
  8  6  1  0  0  0  0
  9 11  1  0  0  0  0
  9 17  1  1  0  0  0
  9 10  1  0  0  0  0
 10  8  1  1  0  0  0
 11 10  1  0  0  0  0
 12 26  1  6  0  0  0
 13 12  1  0  0  0  0
 13 19  1  0  0  0  0
 14 16  1  0  0  0  0
 14 19  1  0  0  0  0
 15 17  2  0  0  0  0
 15 18  1  0  0  0  0
 17 21  1  0  0  0  0
 18 14  2  0  0  0  0
 19 23  1  6  0  0  0
 20 18  1  0  0  0  0
 20 12  1  0  0  0  0
 21 16  2  0  0  0  0
 22 23  1  0  0  0  0
 23 24  2  0  0  0  0
 25 26  1  0  0  0  0
 28 27  1  0  0  0  0
 30 31  1  0  0  0  0
 30 35  1  1  0  0  0
 31 29  1  6  0  0  0
 32 30  1  0  0  0  0
 32 31  1  0  0  0  0
 33 34  2  0  0  0  0
 35 33  1  0  0  0  0
 36 38  1  0  0  0  0
 36 39  1  0  0  0  0
 37 43  1  6  0  0  0
 38 44  1  6  0  0  0
 38 41  1  0  0  0  0
 39 33  1  6  0  0  0
 39 40  1  0  0  0  0
 40 37  1  0  0  0  0
 41 37  1  0  0  0  0
 43 42  1  0  0  0  0
 45 47  2  0  0  0  0
 46 47  1  0  0  0  0
 47 48  1  0  0  0  0
 48 44  1  0  0  0  0
 49 50  1  6  0  0  0
 49 55  1  0  0  0  0
 49  2  1  0  0  0  0
 51 52  2  0  0  0  0
 52 50  1  0  0  0  0
 53 52  1  0  0  0  0
 54 53  1  0  0  0  0
 56 55  1  0  0  0  0
 57 58  1  0  0  0  0
 58 56  1  0  0  0  0
M  END
>  <MODEL>
6

>  <REMARK>
 VINA RESULT:      -5.6      3.028      7.670
  Name = 
  24 active torsions:
  status: ('A' for Active; 'I' for Inactive)
    1  A    between atoms: C_1  and  C_39
    2  A    between atoms: C_2  and  C_37
    3  A    between atoms: C_2  and  N_56
    4  A    between atoms: C_3  and  C_38
    5  A    between atoms: C_3  and  C_47
    6  A    between atoms: C_4  and  C_33
    7  A    between atoms: C_5  and  C_48
    8  A    between atoms: C_7  and  C_41
    9  A    between atoms: C_12  and  C_55
   10  A    between atoms: C_13  and  C_38
   11  A    between atoms: C_15  and  C_26
   12  A    between atoms: C_15  and  C_28
   13  A    between atoms: C_15  and  C_54
   14  A    between atoms: C_16  and  C_49
   15  A    between atoms: C_17  and  C_28
   16  A    between atoms: C_17  and  C_32
   17  A    between atoms: C_18  and  C_46
   18  A    between atoms: C_19  and  C_38
   19  A    between atoms: C_21  and  N_52
   20  A    between atoms: C_26  and  C_30
   21  A    between atoms: C_30  and  C_44
   22  A    between atoms: C_31  and  C_55
   23  A    between atoms: C_32  and  C_47
   24  A    between atoms: C_33  and  C_54
                            x       y       z     vdW  Elec       q    Type
                         _______ _______ _______ _____ _____    ______ ____

>  <TORSDO>
F 24

$$$$
=
 OpenBabel10222415553D

 58 62  0  0  1  0  0  0  0  0999 V2000
  187.7850  177.0530  138.6310 C   0  0  0  0  0  3  0  0  0  0  0  0
  187.6350  176.8110  137.3150 C   0  0  0  0  0  0  0  0  0  0  0  0
  186.8650  177.7400  136.4140 C   0  0  0  0  0  2  0  0  0  0  0  0
  185.4010  177.8260  136.8310 C   0  0  0  0  0  2  0  0  0  0  0  0
  184.8350  176.4350  137.0690 C   0  0  0  0  0  2  0  0  0  0  0  0
  183.8830  176.0440  135.9480 C   0  0  2  0  0  3  0  0  0  0  0  0
  184.3740  176.5800  134.6080 C   0  0  0  0  0  1  0  0  0  0  0  0
  182.4440  176.4780  136.2690 C   0  0  2  0  0  3  0  0  0  0  0  0
  180.5670  175.0960  137.4290 C   0  0  1  0  0  3  0  0  0  0  0  0
  181.4310  175.3250  136.1730 C   0  0  2  0  0  3  0  0  0  0  0  0
  181.7860  174.2280  137.1590 C   0  0  0  0  0  2  0  0  0  0  0  0
  183.6430  178.2400  141.9140 C   0  0  1  0  0  3  0  0  0  0  0  0
  182.7220  179.3050  141.8700 O   0  0  0  0  0  0  0  0  0  0  0  0
  181.1840  177.8480  140.7010 C   0  0  0  0  0  0  0  0  0  0  0  0
  182.0960  176.3470  139.0200 C   0  0  0  0  0  3  0  0  0  0  0  0
  179.8880  177.5240  140.2740 C   0  0  0  0  0  3  0  0  0  0  0  0
  180.8010  176.0690  138.5580 C   0  0  0  0  0  0  0  0  0  0  0  0
  182.2900  177.2230  140.0920 C   0  0  0  0  0  0  0  0  0  0  0  0
  181.4300  178.7360  141.9080 C   0  0  2  0  0  3  0  0  0  0  0  0
  183.6830  177.5260  140.5580 C   0  0  0  0  0  2  0  0  0  0  0  0
  179.6990  176.6420  139.2060 C   0  0  0  0  0  3  0  0  0  0  0  0
  180.3700  180.8830  141.0710 N   0  0  0  0  0  1  0  0  0  0  0  0
  180.4130  179.8280  142.0280 C   0  0  0  0  0  0  0  0  0  0  0  0
  179.5840  179.8050  142.9740 O   0  0  0  0  0  0  0  0  0  0  0  0
  185.5510  178.0060  143.3570 O   0  0  0  0  0  1  0  0  0  0  0  0
  185.0250  178.7520  142.2980 C   0  0  0  0  0  2  0  0  0  0  0  0
  181.9700  177.7350  135.5230 C   0  0  0  0  0  2  0  0  0  0  0  0
  180.5160  178.0820  135.8030 C   0  0  0  0  0  1  0  0  0  0  0  0
  187.2380  178.2710  139.3060 C   0  0  0  0  0  2  0  0  0  0  0  0
  188.5930  177.2200  141.0770 C   0  0  1  0  0  3  0  0  0  0  0  0
  188.0100  178.5300  140.5820 C   0  0  1  0  0  3  0  0  0  0  0  0
  189.4730  178.2110  140.3460 C   0  0  0  0  0  2  0  0  0  0  0  0
  189.7230  176.4410  143.1940 C   0  0  0  0  0  0  0  0  0  0  0  0
  190.3440  175.5370  142.5670 O   0  0  0  0  0  0  0  0  0  0  0  0
  188.8350  177.3230  142.5070 N   0  0  0  0  0  2  0  0  0  0  0  0
  188.5810  177.0630  145.3240 C   0  0  0  0  0  2  0  0  0  0  0  0
  191.3160  177.2690  146.3390 C   0  0  1  0  0  3  0  0  0  0  0  0
  188.8730  177.8030  146.6350 C   0  0  2  0  0  3  0  0  0  0  0  0
  189.8810  176.5730  144.6720 C   0  0  2  0  0  3  0  0  0  0  0  0
  190.9540  177.4370  144.9740 O   0  0  0  0  0  0  0  0  0  0  0  0
  190.1180  177.2330  147.3090 C   0  0  0  0  0  2  0  0  0  0  0  0
  191.4350  174.9270  147.1930 C   0  0  0  0  0  1  0  0  0  0  0  0
  192.2140  176.0510  146.5400 C   0  0  0  0  0  2  0  0  0  0  0  0
  187.6820  177.7150  147.5740 C   0  0  0  0  0  2  0  0  0  0  0  0
  184.5630  179.0370  146.1660 O   0  0  0  0  0  0  0  0  0  0  0  0
  186.0020  180.1030  147.6010 O   0  0  0  0  0  1  0  0  0  0  0  0
  185.6260  178.9980  146.8400 C   0  0  0  0  0  0  0  0  0  0  0  0
  186.4350  177.8150  146.8240 N   0  0  0  0  0  2  0  0  0  0  0  0
  188.2170  175.5700  136.6990 C   0  0  2  0  0  3  0  0  0  0  0  0
  187.3460  174.3570  137.0330 C   0  0  0  0  0  2  0  0  0  0  0  0
  187.1570  173.9970  134.6150 C   0  0  0  0  0  2  0  0  0  0  0  0
  187.1160  173.4790  135.8420 C   0  0  0  0  0  0  0  0  0  0  0  0
  186.5550  172.1110  136.0530 C   0  0  0  0  0  2  0  0  0  0  0  0
  185.0460  172.1200  135.8990 C   0  0  0  0  0  1  0  0  0  0  0  0
  189.6620  175.3720  137.1450 C   0  0  0  0  0  2  0  0  0  0  0  0
  190.5050  176.5770  136.7630 C   0  0  0  0  0  2  0  0  0  0  0  0
  192.5460  176.0300  135.4320 C   0  0  0  0  0  1  0  0  0  0  0  0
  191.9830  176.2340  136.8290 C   0  0  0  0  0  2  0  0  0  0  0  0
  1 29  1  0  0  0  0
  2  1  2  0  0  0  0
  3  4  1  0  0  0  0
  3  2  1  0  0  0  0
  4  5  1  0  0  0  0
  6  7  1  6  0  0  0
  6  8  1  0  0  0  0
  6  5  1  0  0  0  0
  8 27  1  6  0  0  0
  9 17  1  1  0  0  0
 10  8  1  1  0  0  0
 10 11  1  0  0  0  0
 10  9  1  0  0  0  0
 11  9  1  0  0  0  0
 12 26  1  6  0  0  0
 13 19  1  0  0  0  0
 13 12  1  0  0  0  0
 14 19  1  0  0  0  0
 15 18  1  0  0  0  0
 16 14  1  0  0  0  0
 17 15  2  0  0  0  0
 17 21  1  0  0  0  0
 18 20  1  0  0  0  0
 18 14  2  0  0  0  0
 19 23  1  6  0  0  0
 20 12  1  0  0  0  0
 21 16  2  0  0  0  0
 22 23  1  0  0  0  0
 23 24  2  0  0  0  0
 26 25  1  0  0  0  0
 27 28  1  0  0  0  0
 30 35  1  1  0  0  0
 31 29  1  6  0  0  0
 31 30  1  0  0  0  0
 32 31  1  0  0  0  0
 32 30  1  0  0  0  0
 34 33  2  0  0  0  0
 35 33  1  0  0  0  0
 36 38  1  0  0  0  0
 37 43  1  6  0  0  0
 37 41  1  0  0  0  0
 38 41  1  0  0  0  0
 38 44  1  1  0  0  0
 39 33  1  6  0  0  0
 39 40  1  0  0  0  0
 39 36  1  0  0  0  0
 40 37  1  0  0  0  0
 43 42  1  0  0  0  0
 45 47  2  0  0  0  0
 47 46  1  0  0  0  0
 48 47  1  0  0  0  0
 48 44  1  0  0  0  0
 49 50  1  1  0  0  0
 49 55  1  0  0  0  0
 49  2  1  0  0  0  0
 51 52  2  0  0  0  0
 52 53  1  0  0  0  0
 52 50  1  0  0  0  0
 54 53  1  0  0  0  0
 56 58  1  0  0  0  0
 56 55  1  0  0  0  0
 57 58  1  0  0  0  0
M  END
>  <MODEL>
7

>  <REMARK>
 VINA RESULT:      -5.1      3.980      8.488
  Name = 
  24 active torsions:
  status: ('A' for Active; 'I' for Inactive)
    1  A    between atoms: C_1  and  C_39
    2  A    between atoms: C_2  and  C_37
    3  A    between atoms: C_2  and  N_56
    4  A    between atoms: C_3  and  C_38
    5  A    between atoms: C_3  and  C_47
    6  A    between atoms: C_4  and  C_33
    7  A    between atoms: C_5  and  C_48
    8  A    between atoms: C_7  and  C_41
    9  A    between atoms: C_12  and  C_55
   10  A    between atoms: C_13  and  C_38
   11  A    between atoms: C_15  and  C_26
   12  A    between atoms: C_15  and  C_28
   13  A    between atoms: C_15  and  C_54
   14  A    between atoms: C_16  and  C_49
   15  A    between atoms: C_17  and  C_28
   16  A    between atoms: C_17  and  C_32
   17  A    between atoms: C_18  and  C_46
   18  A    between atoms: C_19  and  C_38
   19  A    between atoms: C_21  and  N_52
   20  A    between atoms: C_26  and  C_30
   21  A    between atoms: C_30  and  C_44
   22  A    between atoms: C_31  and  C_55
   23  A    between atoms: C_32  and  C_47
   24  A    between atoms: C_33  and  C_54
                            x       y       z     vdW  Elec       q    Type
                         _______ _______ _______ _____ _____    ______ ____

>  <TORSDO>
F 24

$$$$
=
 OpenBabel10222415553D

 58 62  0  0  1  0  0  0  0  0999 V2000
  183.2390  179.3830  139.8440 C   0  0  0  0  0  3  0  0  0  0  0  0
  182.1620  178.6440  139.5180 C   0  0  0  0  0  0  0  0  0  0  0  0
  182.2590  177.4430  138.6150 C   0  0  0  0  0  2  0  0  0  0  0  0
  182.5280  176.1720  139.4130 C   0  0  0  0  0  2  0  0  0  0  0  0
  182.1150  174.9470  138.6130 C   0  0  0  0  0  2  0  0  0  0  0  0
  180.7410  175.1500  137.9920 C   0  0  2  0  0  3  0  0  0  0  0  0
  179.6410  174.9490  139.0290 C   0  0  0  0  0  1  0  0  0  0  0  0
  180.5570  174.2570  136.7530 C   0  0  2  0  0  3  0  0  0  0  0  0
  181.2100  175.5550  134.5940 C   0  0  1  0  0  3  0  0  0  0  0  0
  180.0880  175.0350  135.5130 C   0  0  2  0  0  3  0  0  0  0  0  0
  180.5390  176.4810  135.5960 C   0  0  0  0  0  2  0  0  0  0  0  0
  187.1580  176.3010  136.4730 C   0  0  1  0  0  3  0  0  0  0  0  0
  187.2000  175.0050  137.0230 O   0  0  0  0  0  0  0  0  0  0  0  0
  185.2310  174.4560  135.7280 C   0  0  0  0  0  0  0  0  0  0  0  0
  183.4900  176.1420  135.5380 C   0  0  0  0  0  3  0  0  0  0  0  0
  184.3680  173.5140  135.1500 C   0  0  0  0  0  3  0  0  0  0  0  0
  182.6110  175.1830  135.0130 C   0  0  0  0  0  0  0  0  0  0  0  0
  184.7960  175.7870  135.8850 C   0  0  0  0  0  0  0  0  0  0  0  0
  186.6780  174.1250  136.0500 C   0  0  2  0  0  3  0  0  0  0  0  0
  185.7150  176.8200  136.4670 C   0  0  0  0  0  2  0  0  0  0  0  0
  183.0650  173.8760  134.7970 C   0  0  0  0  0  3  0  0  0  0  0  0
  187.8720  171.8900  135.9650 N   0  0  0  0  0  1  0  0  0  0  0  0
  186.8490  172.7140  136.5160 C   0  0  0  0  0  0  0  0  0  0  0  0
  186.0900  172.2580  137.4110 O   0  0  0  0  0  0  0  0  0  0  0  0
  189.0370  176.5140  137.9560 O   0  0  0  0  0  1  0  0  0  0  0  0
  188.0670  177.2380  137.2570 C   0  0  0  0  0  2  0  0  0  0  0  0
  179.7280  172.9860  136.9950 C   0  0  0  0  0  2  0  0  0  0  0  0
  180.5720  171.7210  137.0290 C   0  0  0  0  0  1  0  0  0  0  0  0
  184.6230  179.0650  139.3720 C   0  0  0  0  0  2  0  0  0  0  0  0
  186.4890  177.9530  140.5350 C   0  0  1  0  0  3  0  0  0  0  0  0
  185.5890  179.1740  140.5310 C   0  0  1  0  0  3  0  0  0  0  0  0
  187.0010  179.2670  139.9880 C   0  0  0  0  0  2  0  0  0  0  0  0
  188.3890  177.5010  142.1320 C   0  0  0  0  0  0  0  0  0  0  0  0
  189.2180  177.4500  141.1810 O   0  0  0  0  0  0  0  0  0  0  0  0
  187.0070  177.7550  141.8790 N   0  0  0  0  0  2  0  0  0  0  0  0
  187.6860  177.4540  144.5270 C   0  0  0  0  0  2  0  0  0  0  0  0
  190.5640  177.6020  145.0270 C   0  0  1  0  0  3  0  0  0  0  0  0
  188.2190  177.8470  145.9100 C   0  0  2  0  0  3  0  0  0  0  0  0
  188.8390  177.2550  143.5340 C   0  0  2  0  0  3  0  0  0  0  0  0
  189.9300  178.0910  143.8520 O   0  0  0  0  0  0  0  0  0  0  0  0
  189.5880  177.2210  146.1580 C   0  0  0  0  0  2  0  0  0  0  0  0
  191.9020  176.4680  143.2510 C   0  0  0  0  0  1  0  0  0  0  0  0
  191.5150  176.4490  144.7170 C   0  0  0  0  0  2  0  0  0  0  0  0
  187.2450  177.4240  146.9970 C   0  0  0  0  0  2  0  0  0  0  0  0
  184.0390  179.0440  146.2550 O   0  0  0  0  0  0  0  0  0  0  0  0
  185.8940  180.0040  147.2060 O   0  0  0  0  0  1  0  0  0  0  0  0
  185.2240  178.9110  146.6590 C   0  0  0  0  0  0  0  0  0  0  0  0
  185.8700  177.6360  146.5580 N   0  0  0  0  0  2  0  0  0  0  0  0
  180.8000  179.0160  140.0330 C   0  0  2  0  0  3  0  0  0  0  0  0
  180.5150  180.4920  139.7490 C   0  0  0  0  0  2  0  0  0  0  0  0
  179.1570  179.9610  137.7770 C   0  0  0  0  0  2  0  0  0  0  0  0
  180.0980  180.7260  138.3300 C   0  0  0  0  0  0  0  0  0  0  0  0
  180.9410  181.6070  137.4670 C   0  0  0  0  0  2  0  0  0  0  0  0
  180.7560  181.2590  136.0020 C   0  0  0  0  0  1  0  0  0  0  0  0
  180.6760  178.6890  141.5180 C   0  0  0  0  0  2  0  0  0  0  0  0
  182.0510  178.5220  142.1420 C   0  0  0  0  0  2  0  0  0  0  0  0
  180.5530  178.5980  144.1390 C   0  0  0  0  0  1  0  0  0  0  0  0
  181.9830  178.7430  143.6430 C   0  0  0  0  0  2  0  0  0  0  0  0
  2  1  2  0  0  0  0
  2 49  1  0  0  0  0
  3  4  1  0  0  0  0
  3  2  1  0  0  0  0
  5  4  1  0  0  0  0
  6  5  1  0  0  0  0
  6  7  1  1  0  0  0
  8 27  1  1  0  0  0
  8  6  1  0  0  0  0
  9 17  1  1  0  0  0
  9 10  1  0  0  0  0
  9 11  1  0  0  0  0
 10 11  1  0  0  0  0
 10  8  1  1  0  0  0
 12 13  1  0  0  0  0
 12 26  1  1  0  0  0
 14 18  1  0  0  0  0
 14 19  1  0  0  0  0
 15 18  2  0  0  0  0
 16 14  2  0  0  0  0
 17 15  1  0  0  0  0
 18 20  1  0  0  0  0
 19 23  1  1  0  0  0
 19 13  1  0  0  0  0
 20 12  1  0  0  0  0
 21 17  2  0  0  0  0
 21 16  1  0  0  0  0
 22 23  1  0  0  0  0
 23 24  2  0  0  0  0
 26 25  1  0  0  0  0
 27 28  1  0  0  0  0
 29  1  1  0  0  0  0
 30 35  1  1  0  0  0
 31 29  1  6  0  0  0
 31 30  1  0  0  0  0
 32 31  1  0  0  0  0
 32 30  1  0  0  0  0
 34 33  2  0  0  0  0
 35 33  1  0  0  0  0
 36 38  1  0  0  0  0
 37 43  1  6  0  0  0
 37 41  1  0  0  0  0
 38 41  1  0  0  0  0
 38 44  1  1  0  0  0
 39 33  1  6  0  0  0
 39 40  1  0  0  0  0
 39 36  1  0  0  0  0
 40 37  1  0  0  0  0
 42 43  1  0  0  0  0
 45 47  2  0  0  0  0
 47 46  1  0  0  0  0
 48 47  1  0  0  0  0
 48 44  1  0  0  0  0
 49 50  1  1  0  0  0
 49 55  1  0  0  0  0
 51 52  2  0  0  0  0
 52 50  1  0  0  0  0
 53 52  1  0  0  0  0
 54 53  1  0  0  0  0
 55 56  1  0  0  0  0
 56 58  1  0  0  0  0
 58 57  1  0  0  0  0
M  END
>  <MODEL>
8

>  <REMARK>
 VINA RESULT:      -4.7      3.377      6.959
  Name = 
  24 active torsions:
  status: ('A' for Active; 'I' for Inactive)
    1  A    between atoms: C_1  and  C_39
    2  A    between atoms: C_2  and  C_37
    3  A    between atoms: C_2  and  N_56
    4  A    between atoms: C_3  and  C_38
    5  A    between atoms: C_3  and  C_47
    6  A    between atoms: C_4  and  C_33
    7  A    between atoms: C_5  and  C_48
    8  A    between atoms: C_7  and  C_41
    9  A    between atoms: C_12  and  C_55
   10  A    between atoms: C_13  and  C_38
   11  A    between atoms: C_15  and  C_26
   12  A    between atoms: C_15  and  C_28
   13  A    between atoms: C_15  and  C_54
   14  A    between atoms: C_16  and  C_49
   15  A    between atoms: C_17  and  C_28
   16  A    between atoms: C_17  and  C_32
   17  A    between atoms: C_18  and  C_46
   18  A    between atoms: C_19  and  C_38
   19  A    between atoms: C_21  and  N_52
   20  A    between atoms: C_26  and  C_30
   21  A    between atoms: C_30  and  C_44
   22  A    between atoms: C_31  and  C_55
   23  A    between atoms: C_32  and  C_47
   24  A    between atoms: C_33  and  C_54
                            x       y       z     vdW  Elec       q    Type
                         _______ _______ _______ _____ _____    ______ ____

>  <TORSDO>
F 24

$$$$
=
 OpenBabel10222415553D

 58 62  0  0  1  0  0  0  0  0999 V2000
  184.3740  179.4230  139.9720 C   0  0  0  0  0  3  0  0  0  0  0  0
  183.1960  179.0080  139.4680 C   0  0  0  0  0  0  0  0  0  0  0  0
  183.0610  177.7100  138.7180 C   0  0  0  0  0  2  0  0  0  0  0  0
  182.6980  176.5640  139.6570 C   0  0  0  0  0  2  0  0  0  0  0  0
  181.9620  175.4710  138.8990 C   0  0  0  0  0  2  0  0  0  0  0  0
  180.9230  176.0730  137.9630 C   0  0  2  0  0  3  0  0  0  0  0  0
  179.6140  176.3330  138.7000 C   0  0  0  0  0  1  0  0  0  0  0  0
  180.7350  175.2000  136.7120 C   0  0  2  0  0  3  0  0  0  0  0  0
  181.6620  176.4560  134.6290 C   0  0  1  0  0  3  0  0  0  0  0  0
  180.4320  176.0180  135.4460 C   0  0  2  0  0  3  0  0  0  0  0  0
  180.9810  177.4240  135.5820 C   0  0  0  0  0  2  0  0  0  0  0  0
  187.5930  176.7230  136.6870 C   0  0  1  0  0  3  0  0  0  0  0  0
  187.4540  175.5140  137.3970 O   0  0  0  0  0  0  0  0  0  0  0  0
  185.4750  175.0410  136.0870 C   0  0  0  0  0  0  0  0  0  0  0  0
  183.9660  176.8830  135.6020 C   0  0  0  0  0  3  0  0  0  0  0  0
  184.5210  174.1410  135.5910 C   0  0  0  0  0  3  0  0  0  0  0  0
  182.9920  175.9770  135.1590 C   0  0  0  0  0  0  0  0  0  0  0  0
  185.2060  176.4230  136.0540 C   0  0  0  0  0  0  0  0  0  0  0  0
  186.8580  174.5840  136.5180 C   0  0  2  0  0  3  0  0  0  0  0  0
  186.2270  177.4060  136.5450 C   0  0  0  0  0  2  0  0  0  0  0  0
  183.2850  174.6070  135.1330 C   0  0  0  0  0  3  0  0  0  0  0  0
  185.7620  172.8650  138.0260 N   0  0  0  0  0  1  0  0  0  0  0  0
  186.8360  173.2350  137.1660 C   0  0  0  0  0  0  0  0  0  0  0  0
  187.7670  172.4200  136.9390 O   0  0  0  0  0  0  0  0  0  0  0  0
  189.8480  177.5460  136.7960 O   0  0  0  0  0  1  0  0  0  0  0  0
  188.5860  177.6380  137.3900 C   0  0  0  0  0  2  0  0  0  0  0  0
  179.7680  174.0190  136.8910 C   0  0  0  0  0  2  0  0  0  0  0  0
  179.5160  173.2540  135.6010 C   0  0  0  0  0  1  0  0  0  0  0  0
  185.6360  178.6270  139.8650 C   0  0  0  0  0  2  0  0  0  0  0  0
  187.1740  177.6330  141.5140 C   0  0  1  0  0  3  0  0  0  0  0  0
  186.5230  178.9230  141.0550 C   0  0  1  0  0  3  0  0  0  0  0  0
  187.9620  178.6230  140.6840 C   0  0  0  0  0  2  0  0  0  0  0  0
  186.5880  177.7560  143.9650 C   0  0  0  0  0  0  0  0  0  0  0  0
  185.3590  177.6160  143.7100 O   0  0  0  0  0  0  0  0  0  0  0  0
  187.5520  177.7670  142.9120 N   0  0  0  0  0  2  0  0  0  0  0  0
  188.5120  177.5330  145.5390 C   0  0  0  0  0  2  0  0  0  0  0  0
  186.4280  177.7180  147.5830 C   0  0  1  0  0  3  0  0  0  0  0  0
  188.7970  177.1090  146.9850 C   0  0  2  0  0  3  0  0  0  0  0  0
  187.0450  177.9520  145.3720 C   0  0  2  0  0  3  0  0  0  0  0  0
  186.2120  177.2410  146.2610 O   0  0  0  0  0  0  0  0  0  0  0  0
  187.9140  177.8850  147.9580 C   0  0  0  0  0  2  0  0  0  0  0  0
  186.1640  180.1220  146.9690 C   0  0  0  0  0  1  0  0  0  0  0  0
  185.6510  179.0030  147.8530 C   0  0  0  0  0  2  0  0  0  0  0  0
  190.2630  177.3220  147.3250 C   0  0  0  0  0  2  0  0  0  0  0  0
  192.9790  174.9260  146.7410 O   0  0  0  0  0  0  0  0  0  0  0  0
  192.7920  176.4200  148.4730 O   0  0  0  0  0  1  0  0  0  0  0  0
  192.3160  175.8390  147.2990 C   0  0  0  0  0  0  0  0  0  0  0  0
  191.0810  176.2770  146.7180 N   0  0  0  0  0  2  0  0  0  0  0  0
  181.9640  179.8560  139.6180 C   0  0  2  0  0  3  0  0  0  0  0  0
  180.9220  179.1250  140.4670 C   0  0  0  0  0  2  0  0  0  0  0  0
  182.0340  178.6610  142.6020 C   0  0  0  0  0  2  0  0  0  0  0  0
  181.1180  179.3590  141.9320 C   0  0  0  0  0  0  0  0  0  0  0  0
  180.0940  180.1480  142.6800 C   0  0  0  0  0  2  0  0  0  0  0  0
  179.3960  179.2820  143.7110 C   0  0  0  0  0  1  0  0  0  0  0  0
  181.4110  180.2520  138.2540 C   0  0  0  0  0  2  0  0  0  0  0  0
  180.3890  181.3670  138.3990 C   0  0  0  0  0  2  0  0  0  0  0  0
  180.2450  183.6740  137.4540 C   0  0  0  0  0  1  0  0  0  0  0  0
  180.3190  182.1920  137.1260 C   0  0  0  0  0  2  0  0  0  0  0  0
  2 49  1  0  0  0  0
  2  1  2  0  0  0  0
  3  2  1  0  0  0  0
  3  4  1  0  0  0  0
  5  4  1  0  0  0  0
  6  7  1  1  0  0  0
  6  5  1  0  0  0  0
  8 27  1  1  0  0  0
  8  6  1  0  0  0  0
  9 17  1  1  0  0  0
  9 10  1  0  0  0  0
  9 11  1  0  0  0  0
 10 11  1  0  0  0  0
 10  8  1  1  0  0  0
 12 26  1  1  0  0  0
 12 13  1  0  0  0  0
 14 19  1  0  0  0  0
 15 18  2  0  0  0  0
 16 14  2  0  0  0  0
 17 15  1  0  0  0  0
 18 14  1  0  0  0  0
 18 20  1  0  0  0  0
 19 23  1  1  0  0  0
 19 13  1  0  0  0  0
 20 12  1  0  0  0  0
 21 17  2  0  0  0  0
 21 16  1  0  0  0  0
 23 22  1  0  0  0  0
 24 23  2  0  0  0  0
 25 26  1  0  0  0  0
 28 27  1  0  0  0  0
 29  1  1  0  0  0  0
 30 35  1  1  0  0  0
 31 29  1  6  0  0  0
 31 30  1  0  0  0  0
 32 31  1  0  0  0  0
 32 30  1  0  0  0  0
 34 33  2  0  0  0  0
 35 33  1  0  0  0  0
 36 38  1  0  0  0  0
 37 43  1  6  0  0  0
 37 41  1  0  0  0  0
 38 44  1  1  0  0  0
 38 41  1  0  0  0  0
 39 33  1  6  0  0  0
 39 36  1  0  0  0  0
 39 40  1  0  0  0  0
 40 37  1  0  0  0  0
 42 43  1  0  0  0  0
 45 47  2  0  0  0  0
 47 46  1  0  0  0  0
 48 47  1  0  0  0  0
 48 44  1  0  0  0  0
 49 55  1  6  0  0  0
 49 50  1  0  0  0  0
 50 52  1  0  0  0  0
 52 51  2  0  0  0  0
 52 53  1  0  0  0  0
 53 54  1  0  0  0  0
 55 56  1  0  0  0  0
 58 57  1  0  0  0  0
 58 56  1  0  0  0  0
M  END
>  <MODEL>
9

>  <REMARK>
 VINA RESULT:      -4.7      3.301      7.643
  Name = 
  24 active torsions:
  status: ('A' for Active; 'I' for Inactive)
    1  A    between atoms: C_1  and  C_39
    2  A    between atoms: C_2  and  C_37
    3  A    between atoms: C_2  and  N_56
    4  A    between atoms: C_3  and  C_38
    5  A    between atoms: C_3  and  C_47
    6  A    between atoms: C_4  and  C_33
    7  A    between atoms: C_5  and  C_48
    8  A    between atoms: C_7  and  C_41
    9  A    between atoms: C_12  and  C_55
   10  A    between atoms: C_13  and  C_38
   11  A    between atoms: C_15  and  C_26
   12  A    between atoms: C_15  and  C_28
   13  A    between atoms: C_15  and  C_54
   14  A    between atoms: C_16  and  C_49
   15  A    between atoms: C_17  and  C_28
   16  A    between atoms: C_17  and  C_32
   17  A    between atoms: C_18  and  C_46
   18  A    between atoms: C_19  and  C_38
   19  A    between atoms: C_21  and  N_52
   20  A    between atoms: C_26  and  C_30
   21  A    between atoms: C_30  and  C_44
   22  A    between atoms: C_31  and  C_55
   23  A    between atoms: C_32  and  C_47
   24  A    between atoms: C_33  and  C_54
                            x       y       z     vdW  Elec       q    Type
                         _______ _______ _______ _____ _____    ______ ____

>  <TORSDO>
F 24

$$$$
