=
 OpenBabel10222420213D

 47 52  0  0  1  0  0  0  0  0999 V2000
  190.8380  177.2800  139.1970 C   0  0  1  0  0  3  0  0  0  0  0  0
  190.0850  176.2760  141.0270 O   0  0  0  0  0  0  0  0  0  0  0  0
  189.3580  177.5620  138.8690 C   0  0  1  0  0  3  0  0  0  0  0  0
  188.9690  177.1020  141.3170 C   0  0  2  0  0  3  0  0  0  0  0  0
  191.0590  177.0640  140.5830 O   0  0  0  0  0  0  0  0  0  0  0  0
  188.6450  178.0250  140.1410 C   0  0  0  0  0  2  0  0  0  0  0  0
  192.3780  174.3140  136.1660 C   0  0  1  0  0  3  0  0  0  0  0  0
  190.5040  175.1350  137.7230 C   0  0  0  0  0  2  0  0  0  0  0  0
  192.6350  176.6020  137.4420 C   0  0  1  0  0  3  0  0  0  0  0  0
  191.2320  173.9360  137.1170 C   0  0  0  0  0  2  0  0  0  0  0  0
  191.4520  176.1860  138.3140 C   0  0  1  0  0  0  0  0  0  0  0  0
  192.8610  175.7480  138.6920 C   0  0  0  0  0  2  0  0  0  0  0  0
  192.6920  175.8170  136.1130 C   0  0  0  0  0  2  0  0  0  0  0  0
  193.6370  173.5390  136.5210 C   0  0  0  0  0  2  0  0  0  0  0  0
  196.1540  173.8790  136.7420 C   0  0  1  0  0  0  0  0  0  0  0  0
  197.2590  174.9120  136.6470 C   0  0  0  0  0  1  0  0  0  0  0  0
  194.8840  174.2220  135.9650 C   0  0  1  0  0  3  0  0  0  0  0  0
  195.8580  173.1720  135.4350 C   0  0  0  0  0  2  0  0  0  0  0  0
  195.7540  173.6100  139.1950 O   0  0  0  0  0  1  0  0  0  0  0  0
  196.0760  173.0270  137.9770 C   0  0  0  0  0  0  0  0  0  0  0  0
  196.3040  171.7880  137.9200 O   0  0  0  0  0  0  0  0  0  0  0  0
  189.2490  178.6550  137.8180 C   0  0  0  0  0  2  0  0  0  0  0  0
  188.7830  178.1210  136.4620 C   0  0  0  0  0  2  0  0  0  0  0  0
  186.8720  179.5350  136.7770 O   0  0  0  0  0  1  0  0  0  0  0  0
  187.2910  178.3360  136.1890 C   0  0  2  0  0  3  0  0  0  0  0  0
  186.9810  176.0020  136.8110 C   0  0  0  0  0  2  0  0  0  0  0  0
  186.4300  177.1980  136.6560 C   0  0  0  0  0  0  0  0  0  0  0  0
  184.4970  177.4340  138.2480 N   0  0  0  0  0  0  0  0  0  0  0  0
  185.0360  178.4640  139.1280 C   0  0  0  0  0  2  0  0  0  0  0  0
  182.6880  179.0450  139.7060 C   0  0  0  0  0  2  0  0  0  0  0  0
  184.1760  177.4350  135.9280 O   0  0  0  0  0  0  0  0  0  0  0  0
  184.0240  179.6000  139.2140 C   0  0  0  0  0  2  0  0  0  0  0  0
  182.1660  177.9530  138.7610 C   0  0  1  0  0  3  0  0  0  0  0  0
  183.2160  176.8440  138.6200 C   0  0  0  0  0  2  0  0  0  0  0  0
  184.9830  177.3580  136.9010 C   0  0  0  0  0  0  0  0  0  0  0  0
  180.8560  177.3740  139.2880 C   0  0  0  0  0  3  0  0  0  0  0  0
  180.8580  177.3880  140.6850 O   0  0  0  0  0  1  0  0  0  0  0  0
  179.7790  178.1280  138.8240 O   0  0  0  0  0  1  0  0  0  0  0  0
  189.2020  177.9400  142.5760 C   0  0  0  0  0  2  0  0  0  0  0  0
  189.1010  176.9880  144.7750 O   0  0  0  0  0  0  0  0  0  0  0  0
  188.4690  177.4190  143.7750 C   0  0  0  0  0  0  0  0  0  0  0  0
  187.0760  177.5220  143.8040 O   0  0  0  0  0  0  0  0  0  0  0  0
  186.3660  178.0840  144.9040 C   0  0  0  0  0  2  0  0  0  0  0  0
  184.1360  179.1390  145.3800 O   0  0  0  0  0  1  0  0  0  0  0  0
  184.4600  178.2280  143.1260 C   0  0  0  0  0  2  0  0  0  0  0  0
  185.0520  178.6950  144.4370 C   0  0  0  0  0  0  0  0  0  0  0  0
  185.1520  179.5820  143.2240 C   0  0  0  0  0  2  0  0  0  0  0  0
  1  5  1  1  0  0  0
  2  4  1  0  0  0  0
  3 22  1  6  0  0  0
  3  1  1  0  0  0  0
  3  6  1  0  0  0  0
  4 39  1  1  0  0  0
  5  2  1  0  0  0  0
  6  4  1  0  0  0  0
  7 14  1  1  0  0  0
  7 10  1  0  0  0  0
  9 13  1  6  0  0  0
  9 11  1  0  0  0  0
  9 12  1  0  0  0  0
 10  8  1  0  0  0  0
 11  8  1  6  0  0  0
 11 12  1  0  0  0  0
 11  1  1  0  0  0  0
 13  7  1  0  0  0  0
 15 16  1  6  0  0  0
 15 20  1  0  0  0  0
 17 14  1  1  0  0  0
 17 15  1  0  0  0  0
 18 17  1  0  0  0  0
 18 15  1  0  0  0  0
 20 19  1  0  0  0  0
 21 20  2  0  0  0  0
 23 22  1  0  0  0  0
 25 23  1  0  0  0  0
 25 27  1  0  0  0  0
 25 24  1  1  0  0  0
 27 26  2  0  0  0  0
 27 35  1  0  0  0  0
 28 34  1  0  0  0  0
 28 29  1  0  0  0  0
 29 32  1  0  0  0  0
 31 35  2  0  0  0  0
 32 30  1  0  0  0  0
 33 36  1  1  0  0  0
 33 30  1  0  0  0  0
 34 33  1  0  0  0  0
 35 28  1  0  0  0  0
 36 37  1  0  0  0  0
 38 36  1  0  0  0  0
 39 41  1  0  0  0  0
 41 42  1  0  0  0  0
 41 40  2  0  0  0  0
 42 43  1  0  0  0  0
 45 47  1  0  0  0  0
 45 46  1  0  0  0  0
 46 43  1  0  0  0  0
 46 44  1  0  0  0  0
 47 46  1  0  0  0  0
M  END
>  <MODEL>
1

>  <REMARK>
 VINA RESULT:      -7.0      0.000      0.000
  Name = 
  15 active torsions:
  status: ('A' for Active; 'I' for Inactive)
    1  A    between atoms: C_1  and  C_30
    2  A    between atoms: C_4  and  C_32
    3  A    between atoms: C_8  and  C_18
    4  A    between atoms: C_10  and  C_22
    5  A    between atoms: C_15  and  C_19
    6  A    between atoms: C_15  and  C_34
    7  A    between atoms: C_23  and  C_44
    8  A    between atoms: O_24  and  C_40
    9  A    between atoms: O_24  and  C_47
   10  A    between atoms: C_29  and  C_39
   11  A    between atoms: C_29  and  C_42
   12  A    between atoms: C_32  and  C_35
   13  A    between atoms: C_34  and  C_42
   14  A    between atoms: C_40  and  C_41
   15  A    between atoms: C_44  and  C_47
                            x       y       z     vdW  Elec       q    Type
                         _______ _______ _______ _____ _____    ______ ____

>  <TORSDO>
F 15

$$$$
=
 OpenBabel10222420213D

 47 52  0  0  1  0  0  0  0  0999 V2000
  187.5990  178.6290  141.1520 C   0  0  1  0  0  3  0  0  0  0  0  0
  188.7010  177.1770  142.4180 O   0  0  0  0  0  0  0  0  0  0  0  0
  186.3200  178.0650  141.8020 C   0  0  1  0  0  3  0  0  0  0  0  0
  187.8840  177.1940  143.5780 C   0  0  2  0  0  3  0  0  0  0  0  0
  188.7550  178.4200  141.9500 O   0  0  0  0  0  0  0  0  0  0  0  0
  186.5540  177.9010  143.3040 C   0  0  0  0  0  2  0  0  0  0  0  0
  188.1160  177.8480  136.7380 C   0  0  1  0  0  3  0  0  0  0  0  0
  186.5870  178.3220  138.7500 C   0  0  0  0  0  2  0  0  0  0  0  0
  189.1660  178.4030  139.0870 C   0  0  1  0  0  3  0  0  0  0  0  0
  186.7690  177.5790  137.4270 C   0  0  0  0  0  2  0  0  0  0  0  0
  187.7850  178.1760  139.6980 C   0  0  1  0  0  0  0  0  0  0  0  0
  188.7230  176.9940  139.4900 C   0  0  0  0  0  2  0  0  0  0  0  0
  189.1010  178.6840  137.5700 C   0  0  0  0  0  2  0  0  0  0  0  0
  188.7710  176.5380  136.3300 C   0  0  0  0  0  2  0  0  0  0  0  0
  191.1740  175.7110  136.1380 C   0  0  1  0  0  0  0  0  0  0  0  0
  192.6200  176.1630  136.0900 C   0  0  0  0  0  1  0  0  0  0  0  0
  190.1550  176.7730  135.7310 C   0  0  1  0  0  3  0  0  0  0  0  0
  190.5090  175.6330  134.7790 C   0  0  0  0  0  2  0  0  0  0  0  0
  190.2320  173.4520  136.6490 O   0  0  0  0  0  0  0  0  0  0  0  0
  190.7930  174.6340  137.1140 C   0  0  0  0  0  0  0  0  0  0  0  0
  190.9750  174.7930  138.3510 O   0  0  0  0  0  1  0  0  0  0  0  0
  185.1550  179.0170  141.5870 C   0  0  0  0  0  2  0  0  0  0  0  0
  183.8380  178.2840  141.3200 C   0  0  0  0  0  2  0  0  0  0  0  0
  182.2140  178.7160  143.0310 O   0  0  0  0  0  1  0  0  0  0  0  0
  182.5920  179.0750  141.7320 C   0  0  2  0  0  3  0  0  0  0  0  0
  180.9110  177.6950  140.6360 C   0  0  0  0  0  2  0  0  0  0  0  0
  181.4390  178.9020  140.7870 C   0  0  0  0  0  0  0  0  0  0  0  0
  181.5510  180.3870  138.7590 N   0  0  0  0  0  0  0  0  0  0  0  0
  181.7150  179.3710  137.7280 C   0  0  0  0  0  2  0  0  0  0  0  0
  180.7680  181.0100  136.1150 C   0  0  0  0  0  2  0  0  0  0  0  0
  179.8770  180.6520  140.3760 O   0  0  0  0  0  0  0  0  0  0  0  0
  180.6470  179.5890  136.6630 C   0  0  0  0  0  2  0  0  0  0  0  0
  180.6060  182.0470  137.2370 C   0  0  1  0  0  3  0  0  0  0  0  0
  181.6370  181.7820  138.3410 C   0  0  0  0  0  2  0  0  0  0  0  0
  180.9050  180.0220  139.9860 C   0  0  0  0  0  0  0  0  0  0  0  0
  180.7770  183.4600  136.6840 C   0  0  0  0  0  3  0  0  0  0  0  0
  179.5550  184.1360  136.7200 O   0  0  0  0  0  1  0  0  0  0  0  0
  181.7120  184.1600  137.4460 O   0  0  0  0  0  1  0  0  0  0  0  0
  188.5910  177.8710  144.7540 C   0  0  0  0  0  2  0  0  0  0  0  0
  186.9050  177.4820  146.4150 O   0  0  0  0  0  0  0  0  0  0  0  0
  188.1160  177.3800  146.0880 C   0  0  0  0  0  0  0  0  0  0  0  0
  189.0230  176.7130  146.9150 O   0  0  0  0  0  0  0  0  0  0  0  0
  189.9580  177.3960  147.7460 C   0  0  0  0  0  2  0  0  0  0  0  0
  192.3560  177.1760  148.4590 O   0  0  0  0  0  1  0  0  0  0  0  0
  191.8210  176.4650  146.1740 C   0  0  0  0  0  2  0  0  0  0  0  0
  191.3540  176.8180  147.5680 C   0  0  0  0  0  0  0  0  0  0  0  0
  191.4030  175.3730  147.1500 C   0  0  0  0  0  2  0  0  0  0  0  0
  1  3  1  0  0  0  0
  1  5  1  1  0  0  0
  2  4  1  0  0  0  0
  3 22  1  1  0  0  0
  3  6  1  0  0  0  0
  4 39  1  1  0  0  0
  5  2  1  0  0  0  0
  6  4  1  0  0  0  0
  7 14  1  1  0  0  0
  7 10  1  0  0  0  0
  7 13  1  0  0  0  0
  9 13  1  6  0  0  0
  9 12  1  0  0  0  0
  9 11  1  0  0  0  0
 10  8  1  0  0  0  0
 11  8  1  6  0  0  0
 11  1  1  0  0  0  0
 12 11  1  0  0  0  0
 15 16  1  1  0  0  0
 15 20  1  0  0  0  0
 17 15  1  0  0  0  0
 17 14  1  1  0  0  0
 18 17  1  0  0  0  0
 18 15  1  0  0  0  0
 19 20  2  0  0  0  0
 20 21  1  0  0  0  0
 23 22  1  0  0  0  0
 23 25  1  0  0  0  0
 25 24  1  1  0  0  0
 26 27  2  0  0  0  0
 27 25  1  0  0  0  0
 28 35  1  0  0  0  0
 29 28  1  0  0  0  0
 30 32  1  0  0  0  0
 30 33  1  0  0  0  0
 32 29  1  0  0  0  0
 33 36  1  6  0  0  0
 33 34  1  0  0  0  0
 34 28  1  0  0  0  0
 35 31  2  0  0  0  0
 35 27  1  0  0  0  0
 36 37  1  0  0  0  0
 36 38  1  0  0  0  0
 39 41  1  0  0  0  0
 41 40  2  0  0  0  0
 41 42  1  0  0  0  0
 42 43  1  0  0  0  0
 45 47  1  0  0  0  0
 45 46  1  0  0  0  0
 46 43  1  0  0  0  0
 46 44  1  0  0  0  0
 47 46  1  0  0  0  0
M  END
>  <MODEL>
2

>  <REMARK>
 VINA RESULT:      -6.9      3.055      5.578
  Name = 
  15 active torsions:
  status: ('A' for Active; 'I' for Inactive)
    1  A    between atoms: C_1  and  C_30
    2  A    between atoms: C_4  and  C_32
    3  A    between atoms: C_8  and  C_18
    4  A    between atoms: C_10  and  C_22
    5  A    between atoms: C_15  and  C_19
    6  A    between atoms: C_15  and  C_34
    7  A    between atoms: C_23  and  C_44
    8  A    between atoms: O_24  and  C_40
    9  A    between atoms: O_24  and  C_47
   10  A    between atoms: C_29  and  C_39
   11  A    between atoms: C_29  and  C_42
   12  A    between atoms: C_32  and  C_35
   13  A    between atoms: C_34  and  C_42
   14  A    between atoms: C_40  and  C_41
   15  A    between atoms: C_44  and  C_47
                            x       y       z     vdW  Elec       q    Type
                         _______ _______ _______ _____ _____    ______ ____

>  <TORSDO>
F 15

$$$$
=
 OpenBabel10222420213D

 47 52  0  0  1  0  0  0  0  0999 V2000
  188.6900  177.3380  136.2420 C   0  0  1  0  0  3  0  0  0  0  0  0
  189.3980  175.2620  135.9030 O   0  0  0  0  0  0  0  0  0  0  0  0
  189.3200  177.2130  137.6430 C   0  0  1  0  0  3  0  0  0  0  0  0
  190.6120  175.2950  136.6370 C   0  0  2  0  0  3  0  0  0  0  0  0
  189.2630  176.4410  135.3020 O   0  0  0  0  0  0  0  0  0  0  0  0
  190.6910  176.5460  137.5160 C   0  0  0  0  0  2  0  0  0  0  0  0
  184.2350  176.6260  136.1870 C   0  0  1  0  0  3  0  0  0  0  0  0
  186.4330  177.0660  134.9290 C   0  0  0  0  0  2  0  0  0  0  0  0
  186.5180  176.6430  137.4950 C   0  0  1  0  0  3  0  0  0  0  0  0
  184.9290  177.3240  135.0070 C   0  0  0  0  0  2  0  0  0  0  0  0
  187.1570  177.2830  136.2650 C   0  0  1  0  0  0  0  0  0  0  0  0
  186.4820  178.1620  137.3110 C   0  0  0  0  0  2  0  0  0  0  0  0
  185.1910  175.9260  137.1660 C   0  0  0  0  0  2  0  0  0  0  0  0
  183.3580  177.6120  136.9420 C   0  0  0  0  0  2  0  0  0  0  0  0
  182.9620  178.2410  139.3800 C   0  0  1  0  0  0  0  0  0  0  0  0
  183.2450  177.8220  140.8100 C   0  0  0  0  0  1  0  0  0  0  0  0
  183.0510  177.1140  138.3520 C   0  0  1  0  0  3  0  0  0  0  0  0
  181.6930  177.6450  138.8050 C   0  0  0  0  0  2  0  0  0  0  0  0
  182.2790  180.4140  138.3530 O   0  0  0  0  0  0  0  0  0  0  0  0
  183.2600  179.6560  138.9770 C   0  0  0  0  0  0  0  0  0  0  0  0
  184.3940  180.1630  139.1960 O   0  0  0  0  0  1  0  0  0  0  0  0
  189.4990  178.5880  138.2670 C   0  0  0  0  0  2  0  0  0  0  0  0
  189.1090  178.6170  139.7460 C   0  0  0  0  0  2  0  0  0  0  0  0
  188.1330  177.0480  141.2750 O   0  0  0  0  0  1  0  0  0  0  0  0
  189.2440  177.2640  140.4510 C   0  0  2  0  0  3  0  0  0  0  0  0
  191.6530  177.5250  140.6930 C   0  0  0  0  0  2  0  0  0  0  0  0
  190.5120  177.1280  141.2410 C   0  0  0  0  0  0  0  0  0  0  0  0
  190.7700  177.3530  143.7330 N   0  0  0  0  0  0  0  0  0  0  0  0
  189.8870  178.4890  143.9630 C   0  0  0  0  0  2  0  0  0  0  0  0
  189.6480  177.6900  146.3060 C   0  0  0  0  0  2  0  0  0  0  0  0
  190.3460  175.2790  142.7320 O   0  0  0  0  0  0  0  0  0  0  0  0
  188.8870  178.1090  145.0490 C   0  0  0  0  0  2  0  0  0  0  0  0
  190.5780  176.5030  146.0150 C   0  0  1  0  0  3  0  0  0  0  0  0
  191.5370  176.8640  144.8740 C   0  0  0  0  0  2  0  0  0  0  0  0
  190.5380  176.5230  142.5880 C   0  0  0  0  0  0  0  0  0  0  0  0
  191.3670  176.1260  147.2660 C   0  0  0  0  0  3  0  0  0  0  0  0
  192.4560  175.3240  146.9180 O   0  0  0  0  0  1  0  0  0  0  0  0
  191.8290  177.2760  147.9050 O   0  0  0  0  0  1  0  0  0  0  0  0
  191.8290  175.2420  135.7120 C   0  0  0  0  0  2  0  0  0  0  0  0
  192.0300  172.9010  136.1930 O   0  0  0  0  0  0  0  0  0  0  0  0
  192.6000  173.9620  135.8250 C   0  0  0  0  0  0  0  0  0  0  0  0
  193.9350  173.9470  135.4120 O   0  0  0  0  0  0  0  0  0  0  0  0
  194.9560  173.2560  136.1270 C   0  0  0  0  0  2  0  0  0  0  0  0
  195.4780  175.5480  137.0120 O   0  0  0  0  0  1  0  0  0  0  0  0
  196.8570  173.7050  137.8580 C   0  0  0  0  0  2  0  0  0  0  0  0
  195.6030  174.1730  137.1550 C   0  0  0  0  0  0  0  0  0  0  0  0
  195.5160  173.7010  138.5820 C   0  0  0  0  0  2  0  0  0  0  0  0
  1  5  1  6  0  0  0
  1 11  1  0  0  0  0
  1  3  1  0  0  0  0
  2  4  1  0  0  0  0
  3 22  1  6  0  0  0
  4 39  1  6  0  0  0
  4  6  1  0  0  0  0
  5  2  1  0  0  0  0
  6  3  1  0  0  0  0
  7 14  1  1  0  0  0
  7 13  1  0  0  0  0
  8 10  1  0  0  0  0
  9 13  1  6  0  0  0
 10  7  1  0  0  0  0
 11  8  1  6  0  0  0
 11 12  1  0  0  0  0
 11  9  1  0  0  0  0
 12  9  1  0  0  0  0
 15 16  1  1  0  0  0
 17 14  1  6  0  0  0
 17 18  1  0  0  0  0
 17 15  1  0  0  0  0
 18 15  1  0  0  0  0
 19 20  2  0  0  0  0
 20 21  1  0  0  0  0
 20 15  1  0  0  0  0
 22 23  1  0  0  0  0
 23 25  1  0  0  0  0
 25 27  1  0  0  0  0
 25 24  1  1  0  0  0
 26 27  2  0  0  0  0
 27 35  1  0  0  0  0
 28 29  1  0  0  0  0
 28 34  1  0  0  0  0
 29 32  1  0  0  0  0
 32 30  1  0  0  0  0
 33 30  1  0  0  0  0
 33 36  1  1  0  0  0
 34 33  1  0  0  0  0
 35 31  2  0  0  0  0
 35 28  1  0  0  0  0
 36 38  1  0  0  0  0
 37 36  1  0  0  0  0
 39 41  1  0  0  0  0
 41 40  2  0  0  0  0
 42 41  1  0  0  0  0
 42 43  1  0  0  0  0
 43 46  1  0  0  0  0
 44 46  1  0  0  0  0
 45 47  1  0  0  0  0
 46 45  1  0  0  0  0
 46 47  1  0  0  0  0
M  END
>  <MODEL>
3

>  <REMARK>
 VINA RESULT:      -6.8      2.638     10.018
  Name = 
  15 active torsions:
  status: ('A' for Active; 'I' for Inactive)
    1  A    between atoms: C_1  and  C_30
    2  A    between atoms: C_4  and  C_32
    3  A    between atoms: C_8  and  C_18
    4  A    between atoms: C_10  and  C_22
    5  A    between atoms: C_15  and  C_19
    6  A    between atoms: C_15  and  C_34
    7  A    between atoms: C_23  and  C_44
    8  A    between atoms: O_24  and  C_40
    9  A    between atoms: O_24  and  C_47
   10  A    between atoms: C_29  and  C_39
   11  A    between atoms: C_29  and  C_42
   12  A    between atoms: C_32  and  C_35
   13  A    between atoms: C_34  and  C_42
   14  A    between atoms: C_40  and  C_41
   15  A    between atoms: C_44  and  C_47
                            x       y       z     vdW  Elec       q    Type
                         _______ _______ _______ _____ _____    ______ ____

>  <TORSDO>
F 15

$$$$
=
 OpenBabel10222420213D

 47 52  0  0  1  0  0  0  0  0999 V2000
  188.1020  178.5680  141.1770 C   0  0  1  0  0  3  0  0  0  0  0  0
  189.4110  177.2140  142.3490 O   0  0  0  0  0  0  0  0  0  0  0  0
  186.9370  177.9830  141.9990 C   0  0  1  0  0  3  0  0  0  0  0  0
  188.7420  177.2470  143.5990 C   0  0  2  0  0  3  0  0  0  0  0  0
  189.3540  178.4380  141.8330 O   0  0  0  0  0  0  0  0  0  0  0  0
  187.3600  177.8910  143.4660 C   0  0  0  0  0  2  0  0  0  0  0  0
  188.1660  177.6300  136.7640 C   0  0  1  0  0  3  0  0  0  0  0  0
  186.8560  178.2450  138.8890 C   0  0  0  0  0  2  0  0  0  0  0  0
  189.4560  178.1970  138.9860 C   0  0  1  0  0  3  0  0  0  0  0  0
  186.8770  177.4550  137.5810 C   0  0  0  0  0  2  0  0  0  0  0  0
  188.1280  178.0630  139.7280 C   0  0  1  0  0  0  0  0  0  0  0  0
  188.9810  176.8260  139.4770 C   0  0  0  0  0  2  0  0  0  0  0  0
  189.2660  178.4360  137.4720 C   0  0  0  0  0  2  0  0  0  0  0  0
  188.7120  176.2750  136.3430 C   0  0  0  0  0  2  0  0  0  0  0  0
  191.1250  175.5120  136.0350 C   0  0  1  0  0  0  0  0  0  0  0  0
  192.5250  175.9950  135.7110 C   0  0  0  0  0  1  0  0  0  0  0  0
  190.0020  176.4220  135.5400 C   0  0  1  0  0  3  0  0  0  0  0  0
  190.3150  175.1130  134.8180 C   0  0  0  0  0  2  0  0  0  0  0  0
  190.1780  173.4970  137.1710 O   0  0  0  0  0  0  0  0  0  0  0  0
  190.9250  174.6640  137.2580 C   0  0  0  0  0  0  0  0  0  0  0  0
  191.4260  175.0010  138.3640 O   0  0  0  0  0  1  0  0  0  0  0  0
  185.7140  178.8800  141.8950 C   0  0  0  0  0  2  0  0  0  0  0  0
  184.4090  178.0870  141.8010 C   0  0  0  0  0  2  0  0  0  0  0  0
  182.6680  178.7300  143.3200 O   0  0  0  0  0  1  0  0  0  0  0  0
  183.1510  178.9320  142.0210 C   0  0  2  0  0  3  0  0  0  0  0  0
  180.8270  179.0290  141.3010 C   0  0  0  0  0  2  0  0  0  0  0  0
  182.0690  178.6630  141.0160 C   0  0  0  0  0  0  0  0  0  0  0  0
  182.1130  176.5490  139.6540 N   0  0  0  0  0  0  0  0  0  0  0  0
  180.7920  176.0270  139.9780 C   0  0  0  0  0  2  0  0  0  0  0  0
  180.8870  174.7590  137.8410 C   0  0  0  0  0  2  0  0  0  0  0  0
  182.7500  178.6080  138.7350 O   0  0  0  0  0  0  0  0  0  0  0  0
  180.0580  175.7350  138.6750 C   0  0  0  0  0  2  0  0  0  0  0  0
  182.2760  175.3410  137.5370 C   0  0  1  0  0  3  0  0  0  0  0  0
  182.9850  175.7010  138.8480 C   0  0  0  0  0  2  0  0  0  0  0  0
  182.3360  177.9630  139.7440 C   0  0  0  0  0  0  0  0  0  0  0  0
  183.1110  174.3390  136.7440 C   0  0  0  0  0  3  0  0  0  0  0  0
  182.3320  173.7600  135.7390 O   0  0  0  0  0  1  0  0  0  0  0  0
  184.2040  174.9810  136.1640 O   0  0  0  0  0  1  0  0  0  0  0  0
  189.5570  177.9990  144.6530 C   0  0  0  0  0  2  0  0  0  0  0  0
  189.9510  176.6770  146.6150 O   0  0  0  0  0  0  0  0  0  0  0  0
  189.2530  177.5630  146.0540 C   0  0  0  0  0  0  0  0  0  0  0  0
  188.2520  178.2330  146.7610 O   0  0  0  0  0  0  0  0  0  0  0  0
  186.9550  177.6820  146.9730 C   0  0  0  0  0  2  0  0  0  0  0  0
  185.9770  179.8480  147.7850 O   0  0  0  0  0  1  0  0  0  0  0  0
  184.4970  178.4000  146.4710 C   0  0  0  0  0  2  0  0  0  0  0  0
  185.8940  178.7710  146.9130 C   0  0  0  0  0  0  0  0  0  0  0  0
  185.4350  179.1450  145.5290 C   0  0  0  0  0  2  0  0  0  0  0  0
  1  5  1  1  0  0  0
  1  3  1  0  0  0  0
  2  4  1  0  0  0  0
  3 22  1  1  0  0  0
  3  6  1  0  0  0  0
  4 39  1  1  0  0  0
  5  2  1  0  0  0  0
  6  4  1  0  0  0  0
  7 14  1  1  0  0  0
  7 13  1  0  0  0  0
  7 10  1  0  0  0  0
  9 13  1  6  0  0  0
  9 12  1  0  0  0  0
  9 11  1  0  0  0  0
 10  8  1  0  0  0  0
 11  8  1  6  0  0  0
 11  1  1  0  0  0  0
 12 11  1  0  0  0  0
 15 16  1  6  0  0  0
 15 20  1  0  0  0  0
 17 15  1  0  0  0  0
 17 14  1  1  0  0  0
 18 17  1  0  0  0  0
 18 15  1  0  0  0  0
 19 20  2  0  0  0  0
 20 21  1  0  0  0  0
 23 22  1  0  0  0  0
 23 25  1  0  0  0  0
 25 24  1  1  0  0  0
 27 26  2  0  0  0  0
 27 25  1  0  0  0  0
 28 35  1  0  0  0  0
 28 29  1  0  0  0  0
 30 32  1  0  0  0  0
 31 35  2  0  0  0  0
 32 29  1  0  0  0  0
 33 36  1  1  0  0  0
 33 30  1  0  0  0  0
 33 34  1  0  0  0  0
 34 28  1  0  0  0  0
 35 27  1  0  0  0  0
 37 36  1  0  0  0  0
 38 36  1  0  0  0  0
 39 41  1  0  0  0  0
 41 40  2  0  0  0  0
 41 42  1  0  0  0  0
 42 43  1  0  0  0  0
 45 46  1  0  0  0  0
 46 43  1  0  0  0  0
 46 44  1  0  0  0  0
 47 45  1  0  0  0  0
 47 46  1  0  0  0  0
M  END
>  <MODEL>
4

>  <REMARK>
 VINA RESULT:      -6.7      2.542      4.706
  Name = 
  15 active torsions:
  status: ('A' for Active; 'I' for Inactive)
    1  A    between atoms: C_1  and  C_30
    2  A    between atoms: C_4  and  C_32
    3  A    between atoms: C_8  and  C_18
    4  A    between atoms: C_10  and  C_22
    5  A    between atoms: C_15  and  C_19
    6  A    between atoms: C_15  and  C_34
    7  A    between atoms: C_23  and  C_44
    8  A    between atoms: O_24  and  C_40
    9  A    between atoms: O_24  and  C_47
   10  A    between atoms: C_29  and  C_39
   11  A    between atoms: C_29  and  C_42
   12  A    between atoms: C_32  and  C_35
   13  A    between atoms: C_34  and  C_42
   14  A    between atoms: C_40  and  C_41
   15  A    between atoms: C_44  and  C_47
                            x       y       z     vdW  Elec       q    Type
                         _______ _______ _______ _____ _____    ______ ____

>  <TORSDO>
F 15

$$$$
=
 OpenBabel10222420213D

 47 52  0  0  1  0  0  0  0  0999 V2000
  188.6070  177.8400  137.1650 C   0  0  1  0  0  3  0  0  0  0  0  0
  189.8020  176.0130  136.7700 O   0  0  0  0  0  0  0  0  0  0  0  0
  188.8130  177.5250  138.6600 C   0  0  1  0  0  3  0  0  0  0  0  0
  190.7140  176.0780  137.8550 C   0  0  2  0  0  3  0  0  0  0  0  0
  189.6040  177.2550  136.3400 O   0  0  0  0  0  0  0  0  0  0  0  0
  190.2690  177.1170  138.8870 C   0  0  0  0  0  2  0  0  0  0  0  0
  184.6070  176.4700  135.5880 C   0  0  1  0  0  3  0  0  0  0  0  0
  186.9550  177.4280  135.1660 C   0  0  0  0  0  2  0  0  0  0  0  0
  186.3340  176.6370  137.5670 C   0  0  1  0  0  3  0  0  0  0  0  0
  185.4790  177.4370  134.7720 C   0  0  0  0  0  2  0  0  0  0  0  0
  187.1800  177.5480  136.6790 C   0  0  1  0  0  0  0  0  0  0  0  0
  186.0620  178.1430  137.5250 C   0  0  0  0  0  2  0  0  0  0  0  0
  185.3350  175.7840  136.7550 C   0  0  0  0  0  2  0  0  0  0  0  0
  183.3680  177.1830  136.1050 C   0  0  0  0  0  2  0  0  0  0  0  0
  181.9540  176.7340  138.1780 C   0  0  1  0  0  0  0  0  0  0  0  0
  181.5360  175.6580  139.1610 C   0  0  0  0  0  1  0  0  0  0  0  0
  182.4290  176.2160  136.8220 C   0  0  1  0  0  3  0  0  0  0  0  0
  181.0470  176.8480  136.9690 C   0  0  0  0  0  2  0  0  0  0  0  0
  181.9620  179.2330  138.2620 O   0  0  0  0  0  0  0  0  0  0  0  0
  182.4850  178.0300  138.7190 C   0  0  0  0  0  0  0  0  0  0  0  0
  183.4040  178.0390  139.5820 O   0  0  0  0  0  1  0  0  0  0  0  0
  188.5080  178.7520  139.5040 C   0  0  0  0  0  2  0  0  0  0  0  0
  188.2260  178.4030  140.9670 C   0  0  0  0  0  2  0  0  0  0  0  0
  186.0680  179.4490  141.0090 O   0  0  0  0  0  1  0  0  0  0  0  0
  186.7370  178.2530  141.2940 C   0  0  2  0  0  3  0  0  0  0  0  0
  185.3030  178.1230  143.2580 C   0  0  0  0  0  2  0  0  0  0  0  0
  186.4780  177.8370  142.7120 C   0  0  0  0  0  0  0  0  0  0  0  0
  188.0930  177.8580  144.6400 N   0  0  0  0  0  0  0  0  0  0  0  0
  187.2190  178.3860  145.6800 C   0  0  0  0  0  2  0  0  0  0  0  0
  188.7150  177.2970  147.3410 C   0  0  0  0  0  2  0  0  0  0  0  0
  187.8540  175.9760  143.2670 O   0  0  0  0  0  0  0  0  0  0  0  0
  187.2670  177.4420  146.8740 C   0  0  0  0  0  2  0  0  0  0  0  0
  189.6030  176.7540  146.2110 C   0  0  1  0  0  3  0  0  0  0  0  0
  189.4980  177.6680  144.9840 C   0  0  0  0  0  2  0  0  0  0  0  0
  187.5030  177.1630  143.5330 C   0  0  0  0  0  0  0  0  0  0  0  0
  191.0550  176.6590  146.6740 C   0  0  0  0  0  3  0  0  0  0  0  0
  191.8830  177.3540  145.7900 O   0  0  0  0  0  1  0  0  0  0  0  0
  191.1850  177.2060  147.9510 O   0  0  0  0  0  1  0  0  0  0  0  0
  192.1310  176.4050  137.3790 C   0  0  0  0  0  2  0  0  0  0  0  0
  192.6890  174.0810  137.5780 O   0  0  0  0  0  0  0  0  0  0  0  0
  193.0940  175.2730  137.5740 C   0  0  0  0  0  0  0  0  0  0  0  0
  194.4590  175.5620  137.6450 O   0  0  0  0  0  0  0  0  0  0  0  0
  195.4100  175.0260  136.7280 C   0  0  0  0  0  2  0  0  0  0  0  0
  197.8470  175.2090  137.3060 O   0  0  0  0  0  1  0  0  0  0  0  0
  196.7660  173.0590  137.7770 C   0  0  0  0  0  2  0  0  0  0  0  0
  196.6460  174.5340  137.4670 C   0  0  0  0  0  0  0  0  0  0  0  0
  196.4040  174.0530  138.8730 C   0  0  0  0  0  2  0  0  0  0  0  0
  1  5  1  6  0  0  0
  1  3  1  0  0  0  0
  2  4  1  0  0  0  0
  3  6  1  0  0  0  0
  3 22  1  1  0  0  0
  4 39  1  6  0  0  0
  4  6  1  0  0  0  0
  5  2  1  0  0  0  0
  7 14  1  1  0  0  0
  7 13  1  0  0  0  0
  9 13  1  6  0  0  0
 10  8  1  0  0  0  0
 10  7  1  0  0  0  0
 11  8  1  6  0  0  0
 11  1  1  0  0  0  0
 11 12  1  0  0  0  0
 11  9  1  0  0  0  0
 12  9  1  0  0  0  0
 15 20  1  0  0  0  0
 15 16  1  1  0  0  0
 17 14  1  6  0  0  0
 17 18  1  0  0  0  0
 17 15  1  0  0  0  0
 18 15  1  0  0  0  0
 19 20  2  0  0  0  0
 20 21  1  0  0  0  0
 22 23  1  0  0  0  0
 23 25  1  0  0  0  0
 25 24  1  1  0  0  0
 25 27  1  0  0  0  0
 27 26  2  0  0  0  0
 27 35  1  0  0  0  0
 28 34  1  0  0  0  0
 28 29  1  0  0  0  0
 29 32  1  0  0  0  0
 31 35  2  0  0  0  0
 32 30  1  0  0  0  0
 33 36  1  1  0  0  0
 33 30  1  0  0  0  0
 34 33  1  0  0  0  0
 35 28  1  0  0  0  0
 36 38  1  0  0  0  0
 37 36  1  0  0  0  0
 39 41  1  0  0  0  0
 41 40  2  0  0  0  0
 41 42  1  0  0  0  0
 43 46  1  0  0  0  0
 43 42  1  0  0  0  0
 44 46  1  0  0  0  0
 45 47  1  0  0  0  0
 46 45  1  0  0  0  0
 46 47  1  0  0  0  0
M  END
>  <MODEL>
5

>  <REMARK>
 VINA RESULT:      -6.7      2.393      9.834
  Name = 
  15 active torsions:
  status: ('A' for Active; 'I' for Inactive)
    1  A    between atoms: C_1  and  C_30
    2  A    between atoms: C_4  and  C_32
    3  A    between atoms: C_8  and  C_18
    4  A    between atoms: C_10  and  C_22
    5  A    between atoms: C_15  and  C_19
    6  A    between atoms: C_15  and  C_34
    7  A    between atoms: C_23  and  C_44
    8  A    between atoms: O_24  and  C_40
    9  A    between atoms: O_24  and  C_47
   10  A    between atoms: C_29  and  C_39
   11  A    between atoms: C_29  and  C_42
   12  A    between atoms: C_32  and  C_35
   13  A    between atoms: C_34  and  C_42
   14  A    between atoms: C_40  and  C_41
   15  A    between atoms: C_44  and  C_47
                            x       y       z     vdW  Elec       q    Type
                         _______ _______ _______ _____ _____    ______ ____

>  <TORSDO>
F 15

$$$$
=
 OpenBabel10222420213D

 47 52  0  0  1  0  0  0  0  0999 V2000
  189.1700  177.6640  137.5720 C   0  0  1  0  0  3  0  0  0  0  0  0
  190.6640  176.0260  137.6670 O   0  0  0  0  0  0  0  0  0  0  0  0
  188.9650  177.4230  139.0810 C   0  0  1  0  0  3  0  0  0  0  0  0
  191.1970  176.2560  138.9610 C   0  0  2  0  0  3  0  0  0  0  0  0
  190.4360  177.2130  137.1130 O   0  0  0  0  0  0  0  0  0  0  0  0
  190.3310  177.2430  139.7460 C   0  0  0  0  0  2  0  0  0  0  0  0
  186.1290  176.0400  134.6600 C   0  0  1  0  0  3  0  0  0  0  0  0
  187.6040  177.9760  135.4880 C   0  0  0  0  0  2  0  0  0  0  0  0
  187.8750  175.6330  136.5870 C   0  0  1  0  0  3  0  0  0  0  0  0
  186.2660  177.5530  134.8840 C   0  0  0  0  0  2  0  0  0  0  0  0
  188.0040  177.1490  136.7170 C   0  0  1  0  0  0  0  0  0  0  0  0
  186.9050  176.4160  137.4760 C   0  0  0  0  0  2  0  0  0  0  0  0
  187.2900  175.2050  135.2240 C   0  0  0  0  0  2  0  0  0  0  0  0
  184.8130  175.5370  135.2300 C   0  0  0  0  0  2  0  0  0  0  0  0
  183.8170  173.5610  136.4950 C   0  0  1  0  0  0  0  0  0  0  0  0
  184.1640  172.2670  137.2050 C   0  0  0  0  0  1  0  0  0  0  0  0
  184.8530  174.0310  135.4740 C   0  0  1  0  0  3  0  0  0  0  0  0
  183.5420  173.3960  135.0140 C   0  0  0  0  0  2  0  0  0  0  0  0
  183.5030  175.3430  138.2200 O   0  0  0  0  0  1  0  0  0  0  0  0
  182.9560  174.5610  137.2110 C   0  0  0  0  0  0  0  0  0  0  0  0
  181.7390  174.6960  136.9090 O   0  0  0  0  0  0  0  0  0  0  0  0
  188.2620  178.6120  139.7150 C   0  0  0  0  0  2  0  0  0  0  0  0
  188.0850  178.4530  141.2270 C   0  0  0  0  0  2  0  0  0  0  0  0
  185.9860  179.5840  141.4920 O   0  0  0  0  0  1  0  0  0  0  0  0
  186.6230  178.3500  141.6730 C   0  0  2  0  0  3  0  0  0  0  0  0
  185.3310  178.1480  143.7270 C   0  0  0  0  0  2  0  0  0  0  0  0
  186.4650  177.8860  143.0910 C   0  0  0  0  0  0  0  0  0  0  0  0
  188.2650  177.8790  144.8480 N   0  0  0  0  0  0  0  0  0  0  0  0
  187.5160  178.4450  145.9620 C   0  0  0  0  0  2  0  0  0  0  0  0
  189.1380  177.3290  147.4800 C   0  0  0  0  0  2  0  0  0  0  0  0
  187.8350  175.9890  143.5320 O   0  0  0  0  0  0  0  0  0  0  0  0
  187.6550  177.5130  147.1590 C   0  0  0  0  0  2  0  0  0  0  0  0
  189.8920  176.7470  146.2750 C   0  0  1  0  0  3  0  0  0  0  0  0
  189.6920  177.6500  145.0520 C   0  0  0  0  0  2  0  0  0  0  0  0
  187.5470  177.1900  143.8150 C   0  0  0  0  0  0  0  0  0  0  0  0
  191.3800  176.6130  146.5930 C   0  0  0  0  0  3  0  0  0  0  0  0
  191.5580  175.7620  147.6870 O   0  0  0  0  0  1  0  0  0  0  0  0
  192.0580  176.0910  145.4910 O   0  0  0  0  0  1  0  0  0  0  0  0
  192.6340  176.7790  138.8930 C   0  0  0  0  0  2  0  0  0  0  0  0
  193.8970  176.7790  136.8540 O   0  0  0  0  0  0  0  0  0  0  0  0
  193.4520  176.1150  137.8270 C   0  0  0  0  0  0  0  0  0  0  0  0
  193.8000  174.7720  137.9910 O   0  0  0  0  0  0  0  0  0  0  0  0
  195.1350  174.3470  138.2540 C   0  0  0  0  0  2  0  0  0  0  0  0
  195.5710  171.8820  138.4680 O   0  0  0  0  0  1  0  0  0  0  0  0
  196.1010  172.9070  136.3040 C   0  0  0  0  0  2  0  0  0  0  0  0
  195.3920  172.9800  137.6370 C   0  0  0  0  0  0  0  0  0  0  0  0
  194.5980  172.6760  136.3940 C   0  0  0  0  0  2  0  0  0  0  0  0
  1  5  1  6  0  0  0
  1  3  1  0  0  0  0
  2  4  1  0  0  0  0
  3 22  1  1  0  0  0
  3  6  1  0  0  0  0
  4 39  1  6  0  0  0
  4  6  1  0  0  0  0
  5  2  1  0  0  0  0
  7 10  1  0  0  0  0
  7 13  1  0  0  0  0
  7 14  1  1  0  0  0
  9 13  1  6  0  0  0
  9 11  1  0  0  0  0
  9 12  1  0  0  0  0
 10  8  1  0  0  0  0
 11  8  1  6  0  0  0
 11 12  1  0  0  0  0
 11  1  1  0  0  0  0
 15 16  1  1  0  0  0
 15 20  1  0  0  0  0
 17 14  1  6  0  0  0
 17 15  1  0  0  0  0
 18 17  1  0  0  0  0
 18 15  1  0  0  0  0
 20 19  1  0  0  0  0
 21 20  2  0  0  0  0
 22 23  1  0  0  0  0
 23 25  1  0  0  0  0
 25 24  1  1  0  0  0
 25 27  1  0  0  0  0
 27 26  2  0  0  0  0
 27 35  1  0  0  0  0
 28 34  1  0  0  0  0
 28 29  1  0  0  0  0
 29 32  1  0  0  0  0
 31 35  2  0  0  0  0
 32 30  1  0  0  0  0
 33 36  1  1  0  0  0
 33 30  1  0  0  0  0
 34 33  1  0  0  0  0
 35 28  1  0  0  0  0
 36 37  1  0  0  0  0
 38 36  1  0  0  0  0
 40 41  2  0  0  0  0
 41 42  1  0  0  0  0
 41 39  1  0  0  0  0
 42 43  1  0  0  0  0
 45 47  1  0  0  0  0
 45 46  1  0  0  0  0
 46 43  1  0  0  0  0
 46 44  1  0  0  0  0
 47 46  1  0  0  0  0
M  END
>  <MODEL>
6

>  <REMARK>
 VINA RESULT:      -6.7      2.714      9.249
  Name = 
  15 active torsions:
  status: ('A' for Active; 'I' for Inactive)
    1  A    between atoms: C_1  and  C_30
    2  A    between atoms: C_4  and  C_32
    3  A    between atoms: C_8  and  C_18
    4  A    between atoms: C_10  and  C_22
    5  A    between atoms: C_15  and  C_19
    6  A    between atoms: C_15  and  C_34
    7  A    between atoms: C_23  and  C_44
    8  A    between atoms: O_24  and  C_40
    9  A    between atoms: O_24  and  C_47
   10  A    between atoms: C_29  and  C_39
   11  A    between atoms: C_29  and  C_42
   12  A    between atoms: C_32  and  C_35
   13  A    between atoms: C_34  and  C_42
   14  A    between atoms: C_40  and  C_41
   15  A    between atoms: C_44  and  C_47
                            x       y       z     vdW  Elec       q    Type
                         _______ _______ _______ _____ _____    ______ ____

>  <TORSDO>
F 15

$$$$
=
 OpenBabel10222420213D

 47 52  0  0  1  0  0  0  0  0999 V2000
  190.6200  175.8780  138.2340 C   0  0  1  0  0  3  0  0  0  0  0  0
  189.0890  176.8380  136.9460 O   0  0  0  0  0  0  0  0  0  0  0  0
  190.7790  177.2610  138.8960 C   0  0  1  0  0  3  0  0  0  0  0  0
  188.5280  177.7530  137.8730 C   0  0  2  0  0  3  0  0  0  0  0  0
  189.3570  175.7150  137.6050 O   0  0  0  0  0  0  0  0  0  0  0  0
  189.3940  177.8650  139.1300 C   0  0  0  0  0  2  0  0  0  0  0  0
  194.0260  175.3100  135.3300 C   0  0  1  0  0  3  0  0  0  0  0  0
  191.5040  175.3150  135.8280 C   0  0  0  0  0  2  0  0  0  0  0  0
  193.1490  176.1220  137.6750 C   0  0  1  0  0  3  0  0  0  0  0  0
  192.6580  174.6650  135.0650 C   0  0  0  0  0  2  0  0  0  0  0  0
  191.7970  175.5080  137.3210 C   0  0  1  0  0  0  0  0  0  0  0  0
  192.8770  174.6430  137.9580 C   0  0  0  0  0  2  0  0  0  0  0  0
  194.0220  176.3850  136.4280 C   0  0  0  0  0  2  0  0  0  0  0  0
  195.0580  174.2440  135.6610 C   0  0  0  0  0  2  0  0  0  0  0  0
  196.9620  173.9270  137.3260 C   0  0  1  0  0  0  0  0  0  0  0  0
  197.7850  174.6310  138.3870 C   0  0  0  0  0  1  0  0  0  0  0  0
  196.2990  174.8530  136.3080 C   0  0  1  0  0  3  0  0  0  0  0  0
  197.5350  174.0410  135.9270 C   0  0  0  0  0  2  0  0  0  0  0  0
  195.4300  172.5270  138.7190 O   0  0  0  0  0  1  0  0  0  0  0  0
  196.3330  172.6070  137.6670 C   0  0  0  0  0  0  0  0  0  0  0  0
  196.6180  171.5690  137.0110 O   0  0  0  0  0  0  0  0  0  0  0  0
  191.4910  177.1280  140.2330 C   0  0  0  0  0  2  0  0  0  0  0  0
  190.5620  177.3920  141.4210 C   0  0  0  0  0  2  0  0  0  0  0  0
  190.2910  175.4350  142.7810 O   0  0  0  0  0  1  0  0  0  0  0  0
  190.9700  176.6570  142.7010 C   0  0  2  0  0  3  0  0  0  0  0  0
  191.6760  178.3190  144.3360 C   0  0  0  0  0  2  0  0  0  0  0  0
  190.7410  177.4620  143.9480 C   0  0  0  0  0  0  0  0  0  0  0  0
  188.4060  178.1570  144.5710 N   0  0  0  0  0  0  0  0  0  0  0  0
  187.8120  178.2240  143.2420 C   0  0  0  0  0  2  0  0  0  0  0  0
  185.6030  177.8760  144.3290 C   0  0  0  0  0  2  0  0  0  0  0  0
  189.4870  176.3910  145.6650 O   0  0  0  0  0  0  0  0  0  0  0  0
  186.5470  177.3750  143.2370 C   0  0  0  0  0  2  0  0  0  0  0  0
  186.2730  177.8050  145.7090 C   0  0  1  0  0  3  0  0  0  0  0  0
  187.5830  178.6020  145.6910 C   0  0  0  0  0  2  0  0  0  0  0  0
  189.5330  177.2950  144.7790 C   0  0  0  0  0  0  0  0  0  0  0  0
  185.3380  178.3520  146.7840 C   0  0  0  0  0  3  0  0  0  0  0  0
  185.8840  179.5090  147.3460 O   0  0  0  0  0  1  0  0  0  0  0  0
  184.0950  178.6540  146.2270 O   0  0  0  0  0  1  0  0  0  0  0  0
  187.1050  177.3510  138.2660 C   0  0  0  0  0  2  0  0  0  0  0  0
  186.2750  177.1750  136.0230 O   0  0  0  0  0  0  0  0  0  0  0  0
  186.0980  177.6170  137.1880 C   0  0  0  0  0  0  0  0  0  0  0  0
  184.9120  178.2720  137.5290 O   0  0  0  0  0  0  0  0  0  0  0  0
  184.0590  177.8270  138.5810 C   0  0  0  0  0  2  0  0  0  0  0  0
  184.5500  180.1260  139.4650 O   0  0  0  0  0  1  0  0  0  0  0  0
  183.7480  178.4730  141.0900 C   0  0  0  0  0  2  0  0  0  0  0  0
  183.9240  178.9010  139.6500 C   0  0  0  0  0  0  0  0  0  0  0  0
  182.5650  179.0040  140.2900 C   0  0  0  0  0  2  0  0  0  0  0  0
  1  5  1  6  0  0  0
  1  3  1  0  0  0  0
  2  5  1  0  0  0  0
  2  4  1  0  0  0  0
  3  6  1  0  0  0  0
  3 22  1  1  0  0  0
  4 39  1  1  0  0  0
  4  6  1  0  0  0  0
  7 14  1  1  0  0  0
  7 13  1  0  0  0  0
  9 13  1  6  0  0  0
  9 12  1  0  0  0  0
 10  7  1  0  0  0  0
 10  8  1  0  0  0  0
 11  8  1  6  0  0  0
 11  9  1  0  0  0  0
 11 12  1  0  0  0  0
 11  1  1  0  0  0  0
 15 20  1  0  0  0  0
 15 16  1  1  0  0  0
 17 14  1  6  0  0  0
 17 15  1  0  0  0  0
 18 17  1  0  0  0  0
 18 15  1  0  0  0  0
 20 19  1  0  0  0  0
 21 20  2  0  0  0  0
 22 23  1  0  0  0  0
 23 25  1  0  0  0  0
 25 24  1  1  0  0  0
 25 27  1  0  0  0  0
 27 26  2  0  0  0  0
 27 35  1  0  0  0  0
 28 35  1  0  0  0  0
 28 34  1  0  0  0  0
 29 28  1  0  0  0  0
 30 33  1  0  0  0  0
 32 29  1  0  0  0  0
 32 30  1  0  0  0  0
 33 36  1  1  0  0  0
 34 33  1  0  0  0  0
 35 31  2  0  0  0  0
 36 37  1  0  0  0  0
 38 36  1  0  0  0  0
 40 41  2  0  0  0  0
 41 42  1  0  0  0  0
 41 39  1  0  0  0  0
 42 43  1  0  0  0  0
 43 46  1  0  0  0  0
 44 46  1  0  0  0  0
 46 47  1  0  0  0  0
 46 45  1  0  0  0  0
 47 45  1  0  0  0  0
M  END
>  <MODEL>
7

>  <REMARK>
 VINA RESULT:      -6.6      2.080      5.547
  Name = 
  15 active torsions:
  status: ('A' for Active; 'I' for Inactive)
    1  A    between atoms: C_1  and  C_30
    2  A    between atoms: C_4  and  C_32
    3  A    between atoms: C_8  and  C_18
    4  A    between atoms: C_10  and  C_22
    5  A    between atoms: C_15  and  C_19
    6  A    between atoms: C_15  and  C_34
    7  A    between atoms: C_23  and  C_44
    8  A    between atoms: O_24  and  C_40
    9  A    between atoms: O_24  and  C_47
   10  A    between atoms: C_29  and  C_39
   11  A    between atoms: C_29  and  C_42
   12  A    between atoms: C_32  and  C_35
   13  A    between atoms: C_34  and  C_42
   14  A    between atoms: C_40  and  C_41
   15  A    between atoms: C_44  and  C_47
                            x       y       z     vdW  Elec       q    Type
                         _______ _______ _______ _____ _____    ______ ____

>  <TORSDO>
F 15

$$$$
=
 OpenBabel10222420213D

 47 52  0  0  1  0  0  0  0  0999 V2000
  191.2000  177.0680  138.4870 C   0  0  1  0  0  3  0  0  0  0  0  0
  190.6300  176.1590  140.4300 O   0  0  0  0  0  0  0  0  0  0  0  0
  189.6870  177.1690  138.2100 C   0  0  1  0  0  3  0  0  0  0  0  0
  189.4460  176.8910  140.7040 C   0  0  2  0  0  3  0  0  0  0  0  0
  191.4980  176.9990  139.8740 O   0  0  0  0  0  0  0  0  0  0  0  0
  188.9810  177.6700  139.4710 C   0  0  0  0  0  2  0  0  0  0  0  0
  192.9970  174.0770  135.6270 C   0  0  1  0  0  3  0  0  0  0  0  0
  190.9950  174.9080  137.0100 C   0  0  0  0  0  2  0  0  0  0  0  0
  193.1410  176.3770  136.8970 C   0  0  1  0  0  3  0  0  0  0  0  0
  191.7750  173.7050  136.4800 C   0  0  0  0  0  2  0  0  0  0  0  0
  191.8880  175.9670  137.6700 C   0  0  1  0  0  0  0  0  0  0  0  0
  193.2610  175.5350  138.1710 C   0  0  0  0  0  2  0  0  0  0  0  0
  193.3120  175.5800  135.5860 C   0  0  0  0  0  2  0  0  0  0  0  0
  194.2220  173.3080  136.0950 C   0  0  0  0  0  2  0  0  0  0  0  0
  196.6320  173.8260  136.7410 C   0  0  1  0  0  0  0  0  0  0  0  0
  197.6770  174.9240  136.7760 C   0  0  0  0  0  1  0  0  0  0  0  0
  195.5100  174.0400  135.7270 C   0  0  1  0  0  3  0  0  0  0  0  0
  196.6210  173.0290  135.4530 C   0  0  0  0  0  2  0  0  0  0  0  0
  195.8790  173.6880  139.1210 O   0  0  0  0  0  1  0  0  0  0  0  0
  196.3760  173.0420  137.9960 C   0  0  0  0  0  0  0  0  0  0  0  0
  196.6120  171.8050  138.0420 O   0  0  0  0  0  0  0  0  0  0  0  0
  189.4220  178.1480  137.0770 C   0  0  0  0  0  2  0  0  0  0  0  0
  188.4670  177.5830  136.0230 C   0  0  0  0  0  2  0  0  0  0  0  0
  187.0050  179.2470  136.9420 O   0  0  0  0  0  1  0  0  0  0  0  0
  187.0270  178.0900  136.1540 C   0  0  2  0  0  3  0  0  0  0  0  0
  186.5410  175.8480  136.9700 C   0  0  0  0  0  2  0  0  0  0  0  0
  186.0830  177.0640  136.7090 C   0  0  0  0  0  0  0  0  0  0  0  0
  184.1610  177.5340  138.2630 N   0  0  0  0  0  0  0  0  0  0  0  0
  184.7740  178.5590  139.0980 C   0  0  0  0  0  2  0  0  0  0  0  0
  182.4760  179.3560  139.6170 C   0  0  0  0  0  2  0  0  0  0  0  0
  183.8610  177.4460  135.9410 O   0  0  0  0  0  0  0  0  0  0  0  0
  183.8570  179.7770  139.1160 C   0  0  0  0  0  2  0  0  0  0  0  0
  181.8750  178.2640  138.7200 C   0  0  1  0  0  3  0  0  0  0  0  0
  182.8330  177.0690  138.6460 C   0  0  0  0  0  2  0  0  0  0  0  0
  184.6510  177.3520  136.9280 C   0  0  0  0  0  0  0  0  0  0  0  0
  180.5180  177.8190  139.2580 C   0  0  0  0  0  3  0  0  0  0  0  0
  180.1160  176.6420  138.6230 O   0  0  0  0  0  1  0  0  0  0  0  0
  180.6000  177.5940  140.6320 O   0  0  0  0  0  1  0  0  0  0  0  0
  189.6420  177.8570  141.8750 C   0  0  0  0  0  2  0  0  0  0  0  0
  187.4450  177.5350  142.7820 O   0  0  0  0  0  0  0  0  0  0  0  0
  188.6820  177.6190  143.0010 C   0  0  0  0  0  0  0  0  0  0  0  0
  189.1970  177.3870  144.2790 O   0  0  0  0  0  0  0  0  0  0  0  0
  188.5860  177.8980  145.4620 C   0  0  0  0  0  2  0  0  0  0  0  0
  190.7090  177.1260  146.5620 O   0  0  0  0  0  1  0  0  0  0  0  0
  188.6340  176.7940  147.8260 C   0  0  0  0  0  2  0  0  0  0  0  0
  189.3710  177.4730  146.6940 C   0  0  0  0  0  0  0  0  0  0  0  0
  189.0680  178.2490  147.9480 C   0  0  0  0  0  2  0  0  0  0  0  0
  1  5  1  1  0  0  0
  2  4  1  0  0  0  0
  3 22  1  6  0  0  0
  3  1  1  0  0  0  0
  3  6  1  0  0  0  0
  4 39  1  1  0  0  0
  5  2  1  0  0  0  0
  6  4  1  0  0  0  0
  7 14  1  1  0  0  0
  7 10  1  0  0  0  0
  9 13  1  6  0  0  0
  9 11  1  0  0  0  0
  9 12  1  0  0  0  0
 10  8  1  0  0  0  0
 11  8  1  6  0  0  0
 11 12  1  0  0  0  0
 11  1  1  0  0  0  0
 13  7  1  0  0  0  0
 15 16  1  1  0  0  0
 15 20  1  0  0  0  0
 17 14  1  1  0  0  0
 17 15  1  0  0  0  0
 18 17  1  0  0  0  0
 18 15  1  0  0  0  0
 20 21  2  0  0  0  0
 20 19  1  0  0  0  0
 23 25  1  0  0  0  0
 23 22  1  0  0  0  0
 25 27  1  0  0  0  0
 25 24  1  1  0  0  0
 27 35  1  0  0  0  0
 27 26  2  0  0  0  0
 28 34  1  0  0  0  0
 28 29  1  0  0  0  0
 29 32  1  0  0  0  0
 31 35  2  0  0  0  0
 32 30  1  0  0  0  0
 33 36  1  1  0  0  0
 33 30  1  0  0  0  0
 34 33  1  0  0  0  0
 35 28  1  0  0  0  0
 36 38  1  0  0  0  0
 37 36  1  0  0  0  0
 39 41  1  0  0  0  0
 40 41  2  0  0  0  0
 41 42  1  0  0  0  0
 42 43  1  0  0  0  0
 43 46  1  0  0  0  0
 44 46  1  0  0  0  0
 45 47  1  0  0  0  0
 46 45  1  0  0  0  0
 46 47  1  0  0  0  0
M  END
>  <MODEL>
8

>  <REMARK>
 VINA RESULT:      -6.5      1.400      2.049
  Name = 
  15 active torsions:
  status: ('A' for Active; 'I' for Inactive)
    1  A    between atoms: C_1  and  C_30
    2  A    between atoms: C_4  and  C_32
    3  A    between atoms: C_8  and  C_18
    4  A    between atoms: C_10  and  C_22
    5  A    between atoms: C_15  and  C_19
    6  A    between atoms: C_15  and  C_34
    7  A    between atoms: C_23  and  C_44
    8  A    between atoms: O_24  and  C_40
    9  A    between atoms: O_24  and  C_47
   10  A    between atoms: C_29  and  C_39
   11  A    between atoms: C_29  and  C_42
   12  A    between atoms: C_32  and  C_35
   13  A    between atoms: C_34  and  C_42
   14  A    between atoms: C_40  and  C_41
   15  A    between atoms: C_44  and  C_47
                            x       y       z     vdW  Elec       q    Type
                         _______ _______ _______ _____ _____    ______ ____

>  <TORSDO>
F 15

$$$$
=
 OpenBabel10222420213D

 47 52  0  0  1  0  0  0  0  0999 V2000
  189.4440  177.9800  140.7080 C   0  0  1  0  0  3  0  0  0  0  0  0
  190.5190  176.2150  141.5150 O   0  0  0  0  0  0  0  0  0  0  0  0
  188.2430  177.5030  141.5490 C   0  0  1  0  0  3  0  0  0  0  0  0
  189.9620  176.1650  142.8190 C   0  0  2  0  0  3  0  0  0  0  0  0
  190.6840  177.4970  141.2010 O   0  0  0  0  0  0  0  0  0  0  0  0
  188.7410  177.0800  142.9320 C   0  0  0  0  0  2  0  0  0  0  0  0
  189.4260  177.4730  136.2240 C   0  0  1  0  0  3  0  0  0  0  0  0
  189.1220  178.9650  138.2960 C   0  0  0  0  0  2  0  0  0  0  0  0
  189.9990  176.5360  138.6160 C   0  0  1  0  0  3  0  0  0  0  0  0
  188.6490  178.6230  136.8840 C   0  0  0  0  0  2  0  0  0  0  0  0
  189.2600  177.7360  139.2040 C   0  0  1  0  0  0  0  0  0  0  0  0
  188.4850  176.4780  138.8310 C   0  0  0  0  0  2  0  0  0  0  0  0
  190.4290  176.7680  137.1510 C   0  0  0  0  0  2  0  0  0  0  0  0
  188.4630  176.4520  135.6380 C   0  0  0  0  0  2  0  0  0  0  0  0
  187.8800  173.9940  135.9740 C   0  0  1  0  0  0  0  0  0  0  0  0
  188.2900  172.7320  136.7070 C   0  0  0  0  0  1  0  0  0  0  0  0
  188.9910  175.0300  135.8100 C   0  0  1  0  0  3  0  0  0  0  0  0
  188.5530  174.1690  134.6270 C   0  0  0  0  0  2  0  0  0  0  0  0
  185.8660  174.6820  137.2850 O   0  0  0  0  0  1  0  0  0  0  0  0
  186.4450  174.4310  136.0480 C   0  0  0  0  0  0  0  0  0  0  0  0
  185.7580  174.5680  135.0000 O   0  0  0  0  0  0  0  0  0  0  0  0
  187.2320  178.6260  141.7120 C   0  0  0  0  0  2  0  0  0  0  0  0
  185.9720  178.1800  142.4570 C   0  0  0  0  0  2  0  0  0  0  0  0
  184.8990  179.8080  143.8520 O   0  0  0  0  0  1  0  0  0  0  0  0
  184.8960  179.2640  142.5620 C   0  0  2  0  0  3  0  0  0  0  0  0
  182.5130  179.0590  143.0190 C   0  0  0  0  0  2  0  0  0  0  0  0
  183.5220  178.7760  142.2060 C   0  0  0  0  0  0  0  0  0  0  0  0
  183.3430  178.5520  139.7080 N   0  0  0  0  0  0  0  0  0  0  0  0
  184.5760  179.2220  139.3170 C   0  0  0  0  0  2  0  0  0  0  0  0
  184.4880  177.9190  137.2010 C   0  0  0  0  0  2  0  0  0  0  0  0
  182.9920  176.7220  141.1270 O   0  0  0  0  0  0  0  0  0  0  0  0
  185.3600  178.2920  138.4000 C   0  0  0  0  0  2  0  0  0  0  0  0
  183.1930  177.2310  137.6580 C   0  0  1  0  0  3  0  0  0  0  0  0
  182.4410  178.1410  138.6370 C   0  0  0  0  0  2  0  0  0  0  0  0
  183.2670  177.9530  141.0080 C   0  0  0  0  0  0  0  0  0  0  0  0
  182.3100  176.9070  136.4560 C   0  0  0  0  0  3  0  0  0  0  0  0
  182.5550  177.8190  135.4260 O   0  0  0  0  0  1  0  0  0  0  0  0
  182.5800  175.6170  135.9990 O   0  0  0  0  0  1  0  0  0  0  0  0
  190.9900  176.5510  143.8840 C   0  0  0  0  0  2  0  0  0  0  0  0
  191.4430  178.8790  144.2460 O   0  0  0  0  0  0  0  0  0  0  0  0
  190.7170  177.8850  144.5120 C   0  0  0  0  0  0  0  0  0  0  0  0
  189.5800  178.0260  145.3110 O   0  0  0  0  0  0  0  0  0  0  0  0
  189.4740  177.4530  146.6110 C   0  0  0  0  0  2  0  0  0  0  0  0
  187.8130  177.4790  148.4960 O   0  0  0  0  0  1  0  0  0  0  0  0
  186.9150  177.0950  146.2460 C   0  0  0  0  0  2  0  0  0  0  0  0
  188.0480  177.5650  147.1300 C   0  0  0  0  0  0  0  0  0  0  0  0
  187.1870  178.5820  146.4300 C   0  0  0  0  0  2  0  0  0  0  0  0
  1  5  1  1  0  0  0
  1  3  1  0  0  0  0
  2  4  1  0  0  0  0
  3 22  1  1  0  0  0
  3  6  1  0  0  0  0
  4  6  1  0  0  0  0
  4 39  1  1  0  0  0
  5  2  1  0  0  0  0
  7 14  1  1  0  0  0
  7 10  1  0  0  0  0
  7 13  1  0  0  0  0
  9 13  1  6  0  0  0
  9 12  1  0  0  0  0
  9 11  1  0  0  0  0
 10  8  1  0  0  0  0
 11  8  1  6  0  0  0
 11  1  1  0  0  0  0
 12 11  1  0  0  0  0
 15 20  1  0  0  0  0
 15 16  1  1  0  0  0
 17 14  1  6  0  0  0
 17 15  1  0  0  0  0
 18 17  1  0  0  0  0
 18 15  1  0  0  0  0
 20 19  1  0  0  0  0
 21 20  2  0  0  0  0
 22 23  1  0  0  0  0
 23 25  1  0  0  0  0
 25 24  1  1  0  0  0
 27 25  1  0  0  0  0
 27 26  2  0  0  0  0
 28 35  1  0  0  0  0
 29 28  1  0  0  0  0
 30 33  1  0  0  0  0
 30 32  1  0  0  0  0
 32 29  1  0  0  0  0
 33 36  1  6  0  0  0
 33 34  1  0  0  0  0
 34 28  1  0  0  0  0
 35 31  2  0  0  0  0
 35 27  1  0  0  0  0
 37 36  1  0  0  0  0
 38 36  1  0  0  0  0
 39 41  1  0  0  0  0
 40 41  2  0  0  0  0
 41 42  1  0  0  0  0
 42 43  1  0  0  0  0
 43 46  1  0  0  0  0
 45 47  1  0  0  0  0
 45 46  1  0  0  0  0
 46 44  1  0  0  0  0
 47 46  1  0  0  0  0
M  END
>  <MODEL>
9

>  <REMARK>
 VINA RESULT:      -6.5      3.216      5.209
  Name = 
  15 active torsions:
  status: ('A' for Active; 'I' for Inactive)
    1  A    between atoms: C_1  and  C_30
    2  A    between atoms: C_4  and  C_32
    3  A    between atoms: C_8  and  C_18
    4  A    between atoms: C_10  and  C_22
    5  A    between atoms: C_15  and  C_19
    6  A    between atoms: C_15  and  C_34
    7  A    between atoms: C_23  and  C_44
    8  A    between atoms: O_24  and  C_40
    9  A    between atoms: O_24  and  C_47
   10  A    between atoms: C_29  and  C_39
   11  A    between atoms: C_29  and  C_42
   12  A    between atoms: C_32  and  C_35
   13  A    between atoms: C_34  and  C_42
   14  A    between atoms: C_40  and  C_41
   15  A    between atoms: C_44  and  C_47
                            x       y       z     vdW  Elec       q    Type
                         _______ _______ _______ _____ _____    ______ ____

>  <TORSDO>
F 15

$$$$
