=
 OpenBabel10222419203D

 65 72  0  0  1  0  0  0  0  0999 V2000
  187.6970  178.6500  139.1920 C   0  0  2  0  0  3  0  0  0  0  0  0
  188.4780  178.2240  136.7770 C   0  0  0  0  0  0  0  0  0  0  0  0
  188.1930  176.0430  135.8050 N   0  0  0  0  0  0  0  0  0  0  0  0
  188.9800  179.5190  136.7110 O   0  0  0  0  0  1  0  0  0  0  0  0
  187.1270  175.6920  136.7540 C   0  0  0  0  0  2  0  0  0  0  0  0
  188.7050  177.3800  135.7680 C   0  0  0  0  0  3  0  0  0  0  0  0
  187.1680  176.5590  137.9830 C   0  0  0  0  0  3  0  0  0  0  0  0
  187.7340  177.7730  137.9690 C   0  0  0  0  0  0  0  0  0  0  0  0
  188.6190  175.1350  134.7380 C   0  0  0  0  0  2  0  0  0  0  0  0
  189.7760  174.2230  135.1340 C   0  0  0  0  0  2  0  0  0  0  0  0
  190.4630  174.7530  136.2260 O   0  0  0  0  0  0  0  0  0  0  0  0
  190.9670  173.6360  136.8920 C   0  0  0  0  0  2  0  0  0  0  0  0
  195.8130  174.4860  135.8540 C   0  0  0  0  0  2  0  0  0  0  0  0
  196.2190  173.9860  138.7270 C   0  0  0  0  0  2  0  0  0  0  0  0
  197.0980  174.9670  136.5250 C   0  0  0  0  0  2  0  0  0  0  0  0
  194.7180  174.3710  136.8220 N   0  0  0  0  0  0  0  0  0  0  0  0
  197.4050  174.1110  137.7540 C   0  0  0  0  0  2  0  0  0  0  0  0
  193.1740  173.8700  135.1410 O   0  0  0  0  0  0  0  0  0  0  0  0
  193.3970  174.0410  136.3710 C   0  0  0  0  0  0  0  0  0  0  0  0
  194.9510  174.6810  138.2330 C   0  0  0  0  0  2  0  0  0  0  0  0
  192.3320  173.8960  137.3140 N   0  0  0  0  0  2  0  0  0  0  0  0
  189.0480  178.6610  139.8870 C   0  0  0  0  0  2  0  0  0  0  0  0
  189.5200  176.5110  140.9360 O   0  0  0  0  0  0  0  0  0  0  0  0
  192.6210  177.9480  142.1460 C   0  0  0  0  0  1  0  0  0  0  0  0
  191.4470  176.9910  142.3470 C   0  0  2  0  0  3  0  0  0  0  0  0
  190.9310  176.5740  140.9620 C   0  0  0  0  0  2  0  0  0  0  0  0
  189.6080  178.5360  142.3470 C   0  0  0  0  0  2  0  0  0  0  0  0
  190.3510  177.5710  143.1520 N   0  0  0  0  0  0  0  0  0  0  0  0
  188.9810  177.8100  141.1470 C   0  0  1  0  0  3  0  0  0  0  0  0
  190.8500  178.2400  144.3480 C   0  0  0  0  0  2  0  0  0  0  0  0
  191.7460  175.8040  144.6400 O   0  0  0  0  0  0  0  0  0  0  0  0
  191.4590  177.0140  145.5190 S   0  0  2  0  0  0  0  0  0  0  0  0
  189.9730  176.5450  146.4270 C   0  0  0  0  0  2  0  0  0  0  0  0
  187.8190  177.7580  145.8190 C   0  0  2  0  0  3  0  0  0  0  0  0
  189.0870  177.7580  146.6780 C   0  0  1  0  0  3  0  0  0  0  0  0
  188.9000  177.9940  148.1890 C   0  0  1  0  0  3  0  0  0  0  0  0
  186.5210  178.9310  147.5960 C   0  0  2  0  0  3  0  0  0  0  0  0
  185.8570  180.1140  147.9170 O   0  0  0  0  0  1  0  0  0  0  0  0
  187.6340  178.6750  148.6220 C   0  0  1  0  0  3  0  0  0  0  0  0
  187.8120  177.2750  148.7170 O   0  0  0  0  0  0  0  0  0  0  0  0
  187.0050  178.9960  146.1550 C   0  0  0  0  0  2  0  0  0  0  0  0
  187.0670  176.5930  146.0230 O   0  0  0  0  0  0  0  0  0  0  0  0
  187.3700  176.3340  143.6810 C   0  0  0  0  0  1  0  0  0  0  0  0
  186.3800  176.3890  144.8240 C   0  0  0  0  0  2  0  0  0  0  0  0
  186.6100  178.2400  140.1740 C   0  0  0  0  0  2  0  0  0  0  0  0
  185.4020  179.1540  140.0410 C   0  0  0  0  0  2  0  0  0  0  0  0
  183.3650  178.8780  143.3480 C   0  0  0  0  0  0  0  0  0  0  0  0
  182.1460  178.6070  142.8650 C   0  0  0  0  0  3  0  0  0  0  0  0
  181.9680  178.0730  141.4680 C   0  0  2  0  0  3  0  0  0  0  0  0
  183.0900  178.4380  140.5710 C   0  0  0  0  0  0  0  0  0  0  0  0
  185.7090  178.9630  142.9180 O   0  0  0  0  0  0  0  0  0  0  0  0
  183.1130  178.7830  138.1980 O   0  0  0  0  0  0  0  0  0  0  0  0
  181.0270  178.6240  139.4670 C   0  0  1  0  0  3  0  0  0  0  0  0
  184.5470  178.8300  142.4510 C   0  0  0  0  0  0  0  0  0  0  0  0
  182.5000  178.6340  139.2900 C   0  0  0  0  0  0  0  0  0  0  0  0
  184.3320  178.7200  140.9920 C   0  0  0  0  0  0  0  0  0  0  0  0
  183.5040  179.3250  144.7620 C   0  0  0  0  0  1  0  0  0  0  0  0
  180.7690  178.5270  140.8630 O   0  0  0  0  0  0  0  0  0  0  0  0
  179.5720  181.3010  137.4000 C   0  0  0  0  0  0  0  0  0  0  0  0
  180.3910  179.8670  138.9250 C   0  0  0  0  0  0  0  0  0  0  0  0
  179.1480  181.7400  136.0380 C   0  0  0  0  0  1  0  0  0  0  0  0
  179.4650  182.0990  138.5340 C   0  0  0  0  0  0  0  0  0  0  0  0
  180.0420  181.2280  139.8520 S   0  0  0  0  0  0  0  0  0  0  0  0
  178.9330  183.4890  138.5950 C   0  0  0  0  0  1  0  0  0  0  0  0
  180.0930  180.0660  137.6180 N   0  0  0  0  0  0  0  0  0  0  0  0
  1 22  1  1  0  0  0
  1 45  1  0  0  0  0
  2  8  1  0  0  0  0
  3  5  1  0  0  0  0
  4  2  1  0  0  0  0
  5  7  1  0  0  0  0
  6  3  1  0  0  0  0
  6  2  2  0  0  0  0
  8  7  2  0  0  0  0
  8  1  1  0  0  0  0
  9 10  1  0  0  0  0
  9  3  1  0  0  0  0
 10 11  1  0  0  0  0
 11 12  1  0  0  0  0
 12 21  1  0  0  0  0
 13 15  1  0  0  0  0
 13 16  1  0  0  0  0
 15 17  1  0  0  0  0
 16 20  1  0  0  0  0
 17 14  1  0  0  0  0
 18 19  2  0  0  0  0
 19 16  1  0  0  0  0
 19 21  1  0  0  0  0
 20 14  1  0  0  0  0
 23 26  1  0  0  0  0
 23 29  1  0  0  0  0
 25 24  1  6  0  0  0
 25 28  1  0  0  0  0
 26 25  1  0  0  0  0
 27 28  1  0  0  0  0
 28 30  1  0  0  0  0
 29 22  1  6  0  0  0
 29 27  1  0  0  0  0
 30 32  1  0  0  0  0
 32 31  2  6  0  0  0
 32 33  1  0  0  0  0
 34 42  1  1  0  0  0
 34 41  1  0  0  0  0
 34 35  1  0  0  0  0
 35 33  1  1  0  0  0
 35 36  1  0  0  0  0
 36 39  1  0  0  0  0
 36 40  1  1  0  0  0
 37 38  1  1  0  0  0
 37 39  1  0  0  0  0
 39 40  1  1  0  0  0
 41 37  1  0  0  0  0
 43 44  1  0  0  0  0
 44 42  1  0  0  0  0
 46 45  1  0  0  0  0
 46 56  1  0  0  0  0
 47 57  1  0  0  0  0
 48 47  2  0  0  0  0
 49 48  1  1  0  0  0
 50 56  2  0  0  0  0
 50 49  1  0  0  0  0
 52 55  2  0  0  0  0
 53 60  1  1  0  0  0
 53 58  1  0  0  0  0
 54 51  2  0  0  0  0
 54 47  1  0  0  0  0
 55 53  1  0  0  0  0
 55 50  1  0  0  0  0
 56 54  1  0  0  0  0
 58 49  1  0  0  0  0
 59 65  1  0  0  0  0
 59 62  2  0  0  0  0
 60 63  1  0  0  0  0
 61 59  1  0  0  0  0
 62 64  1  0  0  0  0
 62 63  1  0  0  0  0
 65 60  2  0  0  0  0
M  END
>  <MODEL>
1

>  <REMARK>
 VINA RESULT:      -5.8      0.000      0.000
  Name = 
  18 active torsions:
  status: ('A' for Active; 'I' for Inactive)
    1  A    between atoms: C_1  and  O_34
    2  A    between atoms: C_2  and  S_30
    3  A    between atoms: C_2  and  N_46
    4  A    between atoms: C_3  and  C_41
    5  A    between atoms: C_3  and  O_47
    6  A    between atoms: C_10  and  C_40
    7  A    between atoms: C_13  and  C_28
    8  A    between atoms: C_13  and  C_59
    9  A    between atoms: N_15  and  C_41
   10  A    between atoms: C_20  and  C_52
   11  A    between atoms: C_25  and  O_47
   12  A    between atoms: C_25  and  N_63
   13  A    between atoms: C_28  and  C_32
   14  A    between atoms: C_28  and  C_65
   15  A    between atoms: S_30  and  C_52
   16  A    between atoms: C_32  and  C_62
   17  A    between atoms: O_34  and  C_36
   18  A    between atoms: C_56  and  C_59
                            x       y       z     vdW  Elec       q    Type
                         _______ _______ _______ _____ _____    ______ ____

>  <TORSDO>
F 18

$$$$
=
 OpenBabel10222419203D

 65 72  0  0  1  0  0  0  0  0999 V2000
  186.7600  178.2670  139.3600 C   0  0  2  0  0  3  0  0  0  0  0  0
  187.7360  178.2540  136.9780 C   0  0  0  0  0  0  0  0  0  0  0  0
  189.0030  176.3530  136.2260 N   0  0  0  0  0  0  0  0  0  0  0  0
  187.2630  179.5460  136.7770 O   0  0  0  0  0  1  0  0  0  0  0  0
  188.3910  175.4710  137.2290 C   0  0  0  0  0  2  0  0  0  0  0  0
  188.5080  177.6860  136.0490 C   0  0  0  0  0  3  0  0  0  0  0  0
  187.7960  176.2520  138.3690 C   0  0  0  0  0  3  0  0  0  0  0  0
  187.4210  177.5300  138.2260 C   0  0  0  0  0  0  0  0  0  0  0  0
  189.9690  175.8640  135.2400 C   0  0  0  0  0  2  0  0  0  0  0  0
  189.6840  174.4480  134.7520 C   0  0  0  0  0  2  0  0  0  0  0  0
  188.3110  174.2510  134.6000 O   0  0  0  0  0  0  0  0  0  0  0  0
  188.0950  172.9510  135.0550 C   0  0  0  0  0  2  0  0  0  0  0  0
  184.2200  169.7560  135.3030 C   0  0  0  0  0  2  0  0  0  0  0  0
  182.6040  172.1130  134.5940 C   0  0  0  0  0  2  0  0  0  0  0  0
  182.7160  169.7430  135.5680 C   0  0  0  0  0  2  0  0  0  0  0  0
  184.7440  171.1260  135.2820 N   0  0  0  0  0  0  0  0  0  0  0  0
  182.0020  170.6980  134.6110 C   0  0  0  0  0  2  0  0  0  0  0  0
  186.9460  170.3680  135.0870 O   0  0  0  0  0  0  0  0  0  0  0  0
  186.1550  171.3490  135.1590 C   0  0  0  0  0  0  0  0  0  0  0  0
  183.8410  172.2600  135.4790 C   0  0  0  0  0  2  0  0  0  0  0  0
  186.6690  172.6820  135.1050 N   0  0  0  0  0  2  0  0  0  0  0  0
  187.4130  177.9110  140.6850 C   0  0  0  0  0  2  0  0  0  0  0  0
  189.0220  179.0580  142.1140 O   0  0  0  0  0  0  0  0  0  0  0  0
  190.7000  175.8710  142.5340 C   0  0  0  0  0  1  0  0  0  0  0  0
  190.7730  177.3940  142.4280 C   0  0  2  0  0  3  0  0  0  0  0  0
  189.4350  177.9690  142.9140 C   0  0  0  0  0  2  0  0  0  0  0  0
  189.8900  177.7320  140.2210 C   0  0  0  0  0  2  0  0  0  0  0  0
  191.0740  177.8720  141.0620 N   0  0  0  0  0  0  0  0  0  0  0  0
  188.7630  178.6060  140.7910 C   0  0  1  0  0  3  0  0  0  0  0  0
  192.1740  177.1300  140.4570 C   0  0  0  0  0  2  0  0  0  0  0  0
  191.4630  175.2440  138.7950 O   0  0  0  0  0  0  0  0  0  0  0  0
  191.7690  176.7350  138.7460 S   0  0  2  0  0  0  0  0  0  0  0  0
  193.3690  176.8210  137.9180 C   0  0  0  0  0  2  0  0  0  0  0  0
  194.1180  175.8550  135.6850 C   0  0  2  0  0  3  0  0  0  0  0  0
  193.6260  175.5590  137.1050 C   0  0  1  0  0  3  0  0  0  0  0  0
  194.4430  174.5400  137.9230 C   0  0  1  0  0  3  0  0  0  0  0  0
  195.4860  173.7700  135.6410 C   0  0  2  0  0  3  0  0  0  0  0  0
  195.6290  172.5240  135.0320 O   0  0  0  0  0  1  0  0  0  0  0  0
  195.3060  173.5820  137.1540 C   0  0  1  0  0  3  0  0  0  0  0  0
  195.8310  174.7300  137.7910 O   0  0  0  0  0  0  0  0  0  0  0  0
  194.3550  174.5360  134.9700 C   0  0  0  0  0  2  0  0  0  0  0  0
  195.2830  176.6330  135.7030 O   0  0  0  0  0  0  0  0  0  0  0  0
  196.2630  178.5580  134.7160 C   0  0  0  0  0  1  0  0  0  0  0  0
  195.0420  177.6690  134.7980 C   0  0  0  0  0  2  0  0  0  0  0  0
  185.2630  178.0090  139.4320 C   0  0  0  0  0  2  0  0  0  0  0  0
  184.5330  179.2490  139.9240 C   0  0  0  0  0  2  0  0  0  0  0  0
  181.6220  178.7730  142.4660 C   0  0  0  0  0  0  0  0  0  0  0  0
  180.5650  178.8470  141.6470 C   0  0  0  0  0  3  0  0  0  0  0  0
  180.7180  178.6300  140.1640 C   0  0  2  0  0  3  0  0  0  0  0  0
  182.0900  178.9240  139.6830 C   0  0  0  0  0  0  0  0  0  0  0  0
  183.9790  178.4670  142.6610 O   0  0  0  0  0  0  0  0  0  0  0  0
  182.8350  179.6940  137.5390 O   0  0  0  0  0  0  0  0  0  0  0  0
  180.4730  179.7200  138.1790 C   0  0  1  0  0  3  0  0  0  0  0  0
  182.9910  178.6580  141.9040 C   0  0  0  0  0  0  0  0  0  0  0  0
  181.9230  179.4690  138.3790 C   0  0  0  0  0  0  0  0  0  0  0  0
  183.1870  178.8680  140.4520 C   0  0  0  0  0  0  0  0  0  0  0  0
  181.4140  178.9120  143.9340 C   0  0  0  0  0  1  0  0  0  0  0  0
  179.8180  179.4180  139.4050 O   0  0  0  0  0  0  0  0  0  0  0  0
  180.3400  183.0610  136.6340 C   0  0  0  0  0  0  0  0  0  0  0  0
  180.2020  181.1450  137.8030 C   0  0  0  0  0  0  0  0  0  0  0  0
  180.7590  183.9310  135.4960 C   0  0  0  0  0  1  0  0  0  0  0  0
  179.5510  183.5020  137.6920 C   0  0  0  0  0  0  0  0  0  0  0  0
  179.3050  182.2140  138.7450 S   0  0  0  0  0  0  0  0  0  0  0  0
  179.0060  184.8750  137.8800 C   0  0  0  0  0  1  0  0  0  0  0  0
  180.7050  181.7540  136.7020 N   0  0  0  0  0  0  0  0  0  0  0  0
  1 45  1  1  0  0  0
  1 22  1  0  0  0  0
  2  8  1  0  0  0  0
  3  5  1  0  0  0  0
  4  2  1  0  0  0  0
  5  7  1  0  0  0  0
  6  3  1  0  0  0  0
  6  2  2  0  0  0  0
  8  7  2  0  0  0  0
  8  1  1  0  0  0  0
  9  3  1  0  0  0  0
 10  9  1  0  0  0  0
 11 10  1  0  0  0  0
 11 12  1  0  0  0  0
 12 21  1  0  0  0  0
 13 15  1  0  0  0  0
 14 17  1  0  0  0  0
 14 20  1  0  0  0  0
 16 13  1  0  0  0  0
 16 20  1  0  0  0  0
 17 15  1  0  0  0  0
 18 19  2  0  0  0  0
 19 16  1  0  0  0  0
 21 19  1  0  0  0  0
 23 26  1  0  0  0  0
 25 24  1  6  0  0  0
 25 26  1  0  0  0  0
 27 29  1  0  0  0  0
 27 28  1  0  0  0  0
 28 25  1  0  0  0  0
 29 22  1  1  0  0  0
 29 23  1  0  0  0  0
 30 28  1  0  0  0  0
 32 31  2  1  0  0  0
 32 30  1  0  0  0  0
 33 32  1  0  0  0  0
 34 42  1  1  0  0  0
 34 35  1  0  0  0  0
 35 33  1  1  0  0  0
 35 36  1  0  0  0  0
 36 40  1  1  0  0  0
 37 38  1  6  0  0  0
 37 39  1  0  0  0  0
 39 40  1  1  0  0  0
 39 36  1  0  0  0  0
 41 37  1  0  0  0  0
 41 34  1  0  0  0  0
 43 44  1  0  0  0  0
 44 42  1  0  0  0  0
 45 46  1  0  0  0  0
 46 56  1  0  0  0  0
 47 57  1  0  0  0  0
 48 47  2  0  0  0  0
 49 48  1  1  0  0  0
 50 49  1  0  0  0  0
 50 56  2  0  0  0  0
 52 55  2  0  0  0  0
 53 60  1  1  0  0  0
 53 55  1  0  0  0  0
 53 58  1  0  0  0  0
 54 47  1  0  0  0  0
 54 51  2  0  0  0  0
 55 50  1  0  0  0  0
 56 54  1  0  0  0  0
 58 49  1  0  0  0  0
 59 65  1  0  0  0  0
 59 62  2  0  0  0  0
 60 63  1  0  0  0  0
 61 59  1  0  0  0  0
 62 64  1  0  0  0  0
 62 63  1  0  0  0  0
 65 60  2  0  0  0  0
M  END
>  <MODEL>
2

>  <REMARK>
 VINA RESULT:      -5.7      2.910      7.522
  Name = 
  18 active torsions:
  status: ('A' for Active; 'I' for Inactive)
    1  A    between atoms: C_1  and  O_34
    2  A    between atoms: C_2  and  S_30
    3  A    between atoms: C_2  and  N_46
    4  A    between atoms: C_3  and  C_41
    5  A    between atoms: C_3  and  O_47
    6  A    between atoms: C_10  and  C_40
    7  A    between atoms: C_13  and  C_28
    8  A    between atoms: C_13  and  C_59
    9  A    between atoms: N_15  and  C_41
   10  A    between atoms: C_20  and  C_52
   11  A    between atoms: C_25  and  O_47
   12  A    between atoms: C_25  and  N_63
   13  A    between atoms: C_28  and  C_32
   14  A    between atoms: C_28  and  C_65
   15  A    between atoms: S_30  and  C_52
   16  A    between atoms: C_32  and  C_62
   17  A    between atoms: O_34  and  C_36
   18  A    between atoms: C_56  and  C_59
                            x       y       z     vdW  Elec       q    Type
                         _______ _______ _______ _____ _____    ______ ____

>  <TORSDO>
F 18

$$$$
=
 OpenBabel10222419203D

 65 73  0  0  1  0  0  0  0  0999 V2000
  185.8290  178.9800  141.1950 C   0  0  2  0  0  3  0  0  0  0  0  0
  186.4810  177.7700  143.3710 C   0  0  0  0  0  0  0  0  0  0  0  0
  185.4210  178.3930  145.4380 N   0  0  0  0  0  0  0  0  0  0  0  0
  187.4410  177.0410  142.6780 O   0  0  0  0  0  1  0  0  0  0  0  0
  184.2670  178.9770  144.7410 C   0  0  0  0  0  2  0  0  0  0  0  0
  186.4060  177.6610  144.6990 C   0  0  0  0  0  3  0  0  0  0  0  0
  184.5890  179.3070  143.3090 C   0  0  0  0  0  3  0  0  0  0  0  0
  185.5750  178.6850  142.6490 C   0  0  0  0  0  0  0  0  0  0  0  0
  185.5100  178.3420  146.8990 C   0  0  0  0  0  2  0  0  0  0  0  0
  186.8960  178.6770  147.4410 C   0  0  0  0  0  2  0  0  0  0  0  0
  187.0990  178.0590  148.6750 O   0  0  0  0  0  0  0  0  0  0  0  0
  188.4720  177.8200  148.7200 C   0  0  0  0  0  2  0  0  0  0  0  0
  191.4050  176.3600  144.9050 C   0  0  0  0  0  2  0  0  0  0  0  0
  191.0560  179.1260  143.9570 C   0  0  0  0  0  2  0  0  0  0  0  0
  191.6940  176.6950  143.4440 C   0  0  0  0  0  2  0  0  0  0  0  0
  190.4470  177.3050  145.4870 N   0  0  0  0  0  0  0  0  0  0  0  0
  192.0690  178.1710  143.3030 C   0  0  0  0  0  2  0  0  0  0  0  0
  190.3370  176.0930  147.4820 O   0  0  0  0  0  0  0  0  0  0  0  0
  189.9570  177.0980  146.8190 C   0  0  0  0  0  0  0  0  0  0  0  0
  189.9190  178.4060  144.6800 C   0  0  0  0  0  2  0  0  0  0  0  0
  189.0470  178.0330  147.4040 N   0  0  0  0  0  2  0  0  0  0  0  0
  184.7970  178.2900  140.3190 C   0  0  0  0  0  2  0  0  0  0  0  0
  183.3850  180.1640  139.6560 O   0  0  0  0  0  0  0  0  0  0  0  0
  181.9090  177.9820  137.1650 C   0  0  0  0  0  2  0  0  0  0  0  0
  181.7640  179.1370  138.1550 C   0  0  2  0  0  3  0  0  0  0  0  0
  183.1390  179.8030  138.3130 C   0  0  0  0  0  2  0  0  0  0  0  0
  182.2870  178.0250  140.2180 C   0  0  0  0  0  2  0  0  0  0  0  0
  181.2410  178.7180  139.4720 N   0  0  2  0  0  0  0  0  0  0  0  0
  183.4550  178.9940  140.4600 C   0  0  1  0  0  3  0  0  0  0  0  0
  180.0900  177.8320  139.3420 C   0  0  0  0  0  2  0  0  0  0  0  0
  178.9330  177.5570  137.0160 O   0  0  0  0  0  1  0  0  0  0  0  0
  180.1450  176.9960  137.7470 S   0  0  1  0  0  0  0  0  0  0  0  0
  179.6600  175.3070  138.1550 C   0  0  0  0  0  2  0  0  0  0  0  0
  181.2810  174.3850  136.4220 C   0  0  2  0  0  3  0  0  0  0  0  0
  179.8460  174.3860  136.9570 C   0  0  1  0  0  3  0  0  0  0  0  0
  179.2040  173.0110  137.2200 C   0  0  1  0  0  3  0  0  0  0  0  0
  181.0940  172.0030  135.7040 C   0  0  2  0  0  3  0  0  0  0  0  0
  181.0770  171.1540  134.6000 O   0  0  0  0  0  1  0  0  0  0  0  0
  179.7940  171.8320  136.5020 C   0  0  1  0  0  3  0  0  0  0  0  0
  180.0850  172.1170  137.8560 O   0  0  0  0  0  0  0  0  0  0  0  0
  181.3590  173.4290  135.2430 C   0  0  0  0  0  2  0  0  0  0  0  0
  182.1950  174.0240  137.4210 O   0  0  0  0  0  0  0  0  0  0  0  0
  184.5170  174.0400  137.9210 C   0  0  0  0  0  1  0  0  0  0  0  0
  183.4320  174.4870  136.9660 C   0  0  0  0  0  2  0  0  0  0  0  0
  187.2310  178.5900  140.7540 C   0  0  0  0  0  2  0  0  0  0  0  0
  187.1710  177.6650  139.5490 C   0  0  0  0  0  2  0  0  0  0  0  0
  191.0030  177.1710  139.0570 C   0  0  0  0  0  0  0  0  0  0  0  0
  191.0480  176.8820  137.7510 C   0  0  0  0  0  3  0  0  0  0  0  0
  189.9030  177.2380  136.8380 C   0  0  2  0  0  3  0  0  0  0  0  0
  188.6130  177.3510  137.5600 C   0  0  0  0  0  0  0  0  0  0  0  0
  189.7260  178.0730  140.8590 O   0  0  0  0  0  0  0  0  0  0  0  0
  186.3780  176.9620  136.7830 O   0  0  0  0  0  0  0  0  0  0  0  0
  188.3390  176.2680  135.4950 C   0  0  1  0  0  3  0  0  0  0  0  0
  189.7470  177.6840  139.6610 C   0  0  0  0  0  0  0  0  0  0  0  0
  187.6290  176.8770  136.6470 C   0  0  0  0  0  0  0  0  0  0  0  0
  188.5010  177.6390  138.8650 C   0  0  0  0  0  0  0  0  0  0  0  0
  192.1880  176.8780  139.9080 C   0  0  0  0  0  1  0  0  0  0  0  0
  189.7300  176.2970  135.7930 O   0  0  0  0  0  0  0  0  0  0  0  0
  186.5110  173.1200  134.9420 C   0  0  0  0  0  0  0  0  0  0  0  0
  187.9070  174.8530  135.2580 C   0  0  0  0  0  0  0  0  0  0  0  0
  185.1890  172.4630  134.7180 C   0  0  0  0  0  1  0  0  0  0  0  0
  187.7140  172.4250  135.0130 C   0  0  0  0  0  0  0  0  0  0  0  0
  188.9530  173.5340  135.2640 S   0  0  0  0  0  0  0  0  0  0  0  0
  187.8980  170.9530  134.8900 C   0  0  0  0  0  1  0  0  0  0  0  0
  186.6200  174.4660  135.0850 N   0  0  0  0  0  0  0  0  0  0  0  0
  1 22  1  6  0  0  0
  1  8  1  0  0  0  0
  2  6  2  0  0  0  0
  3  9  1  0  0  0  0
  4  2  1  0  0  0  0
  5  3  1  0  0  0  0
  6  3  1  0  0  0  0
  7  5  1  0  0  0  0
  8  7  2  0  0  0  0
  8  2  1  0  0  0  0
  9 10  1  0  0  0  0
 10 11  1  0  0  0  0
 11 12  1  0  0  0  0
 13 16  1  0  0  0  0
 14 20  1  0  0  0  0
 15 13  1  0  0  0  0
 16 19  1  0  0  0  0
 17 15  1  0  0  0  0
 17 14  1  0  0  0  0
 19 21  1  0  0  0  0
 19 18  2  0  0  0  0
 20 16  1  0  0  0  0
 21 12  1  0  0  0  0
 23 29  1  0  0  0  0
 24 32  1  0  0  0  0
 25 24  1  6  0  0  0
 25 26  1  0  0  0  0
 25 28  1  0  0  0  0
 26 23  1  0  0  0  0
 27 29  1  0  0  0  0
 28 30  1  6  0  0  0
 28 27  1  0  0  0  0
 29 22  1  6  0  0  0
 32 31  1  6  0  0  0
 32 33  1  0  0  0  0
 32 30  1  0  0  0  0
 34 35  1  0  0  0  0
 34 42  1  1  0  0  0
 35 36  1  0  0  0  0
 35 33  1  1  0  0  0
 36 40  1  1  0  0  0
 37 38  1  6  0  0  0
 37 39  1  0  0  0  0
 39 36  1  0  0  0  0
 39 40  1  1  0  0  0
 41 37  1  0  0  0  0
 41 34  1  0  0  0  0
 44 42  1  0  0  0  0
 44 43  1  0  0  0  0
 45  1  1  0  0  0  0
 46 45  1  0  0  0  0
 47 54  1  0  0  0  0
 47 57  1  0  0  0  0
 48 47  2  0  0  0  0
 49 50  1  0  0  0  0
 49 48  1  1  0  0  0
 50 56  2  0  0  0  0
 53 60  1  1  0  0  0
 53 58  1  0  0  0  0
 53 55  1  0  0  0  0
 54 51  2  0  0  0  0
 55 52  2  0  0  0  0
 55 50  1  0  0  0  0
 56 46  1  0  0  0  0
 56 54  1  0  0  0  0
 58 49  1  0  0  0  0
 59 62  2  0  0  0  0
 59 65  1  0  0  0  0
 60 63  1  0  0  0  0
 61 59  1  0  0  0  0
 62 63  1  0  0  0  0
 64 62  1  0  0  0  0
 65 60  2  0  0  0  0
M  END
>  <MODEL>
3

>  <REMARK>
 VINA RESULT:      -5.6      3.545     10.446
  Name = 
  18 active torsions:
  status: ('A' for Active; 'I' for Inactive)
    1  A    between atoms: C_1  and  O_34
    2  A    between atoms: C_2  and  S_30
    3  A    between atoms: C_2  and  N_46
    4  A    between atoms: C_3  and  C_41
    5  A    between atoms: C_3  and  O_47
    6  A    between atoms: C_10  and  C_40
    7  A    between atoms: C_13  and  C_28
    8  A    between atoms: C_13  and  C_59
    9  A    between atoms: N_15  and  C_41
   10  A    between atoms: C_20  and  C_52
   11  A    between atoms: C_25  and  O_47
   12  A    between atoms: C_25  and  N_63
   13  A    between atoms: C_28  and  C_32
   14  A    between atoms: C_28  and  C_65
   15  A    between atoms: S_30  and  C_52
   16  A    between atoms: C_32  and  C_62
   17  A    between atoms: O_34  and  C_36
   18  A    between atoms: C_56  and  C_59
                            x       y       z     vdW  Elec       q    Type
                         _______ _______ _______ _____ _____    ______ ____

>  <TORSDO>
F 18

$$$$
=
 OpenBabel10222419203D

 65 72  0  0  1  0  0  0  0  0999 V2000
  185.8960  178.0780  139.5970 C   0  0  2  0  0  3  0  0  0  0  0  0
  187.9960  178.2630  138.1200 C   0  0  0  0  0  0  0  0  0  0  0  0
  188.0560  177.1340  135.9970 N   0  0  0  0  0  0  0  0  0  0  0  0
  188.6290  179.0020  139.1130 O   0  0  0  0  0  1  0  0  0  0  0  0
  186.5900  177.0720  135.9200 C   0  0  0  0  0  2  0  0  0  0  0  0
  188.6850  177.8890  137.0400 C   0  0  0  0  0  3  0  0  0  0  0  0
  185.9530  177.2370  137.2730 C   0  0  0  0  0  3  0  0  0  0  0  0
  186.5840  177.8620  138.2760 C   0  0  0  0  0  0  0  0  0  0  0  0
  188.9180  176.6290  134.9270 C   0  0  0  0  0  2  0  0  0  0  0  0
  190.4060  176.8450  135.1850 C   0  0  0  0  0  2  0  0  0  0  0  0
  191.0110  175.6520  135.5790 O   0  0  0  0  0  0  0  0  0  0  0  0
  191.8710  176.0250  136.6120 C   0  0  0  0  0  2  0  0  0  0  0  0
  196.6320  174.4930  137.1310 C   0  0  0  0  0  2  0  0  0  0  0  0
  195.4960  171.7950  136.8170 C   0  0  0  0  0  2  0  0  0  0  0  0
  197.4390  173.2800  137.5900 C   0  0  0  0  0  2  0  0  0  0  0  0
  195.1940  174.2100  137.1420 N   0  0  0  0  0  0  0  0  0  0  0  0
  197.0150  172.0360  136.8090 C   0  0  0  0  0  2  0  0  0  0  0  0
  194.6700  176.4230  136.6040 O   0  0  0  0  0  0  0  0  0  0  0  0
  194.2570  175.2560  136.8510 C   0  0  0  0  0  0  0  0  0  0  0  0
  194.7090  172.8870  137.5390 C   0  0  0  0  0  2  0  0  0  0  0  0
  192.8540  174.9790  136.8290 N   0  0  0  0  0  2  0  0  0  0  0  0
  184.6970  178.9960  139.4340 C   0  0  0  0  0  2  0  0  0  0  0  0
  182.4940  178.9920  140.4800 O   0  0  0  0  0  0  0  0  0  0  0  0
  181.1240  179.9370  137.2580 C   0  0  0  0  0  1  0  0  0  0  0  0
  180.9770  179.1910  138.5840 C   0  0  2  0  0  3  0  0  0  0  0  0
  181.8360  179.9120  139.6330 C   0  0  0  0  0  2  0  0  0  0  0  0
  182.8100  177.6470  138.4340 C   0  0  0  0  0  2  0  0  0  0  0  0
  181.3570  177.7650  138.4990 N   0  0  0  0  0  0  0  0  0  0  0  0
  183.4180  178.2230  139.7220 C   0  0  1  0  0  3  0  0  0  0  0  0
  180.7780  177.1180  137.3270 C   0  0  0  0  0  2  0  0  0  0  0  0
  180.8120  175.1590  139.0560 O   0  0  0  0  0  0  0  0  0  0  0  0
  180.0310  175.5500  137.8080 S   0  0  2  0  0  0  0  0  0  0  0  0
  180.6330  174.4080  136.5470 C   0  0  0  0  0  2  0  0  0  0  0  0
  182.1320  172.3670  136.8030 C   0  0  2  0  0  3  0  0  0  0  0  0
  182.0200  173.8910  136.9030 C   0  0  1  0  0  3  0  0  0  0  0  0
  183.1090  174.7140  136.1890 C   0  0  1  0  0  3  0  0  0  0  0  0
  184.5310  172.5090  136.1380 C   0  0  2  0  0  3  0  0  0  0  0  0
  185.8340  172.2060  136.5320 O   0  0  0  0  0  1  0  0  0  0  0  0
  184.4080  174.0190  135.8950 C   0  0  1  0  0  3  0  0  0  0  0  0
  183.4130  174.2120  134.9090 O   0  0  0  0  0  0  0  0  0  0  0  0
  183.5500  171.9600  137.1640 C   0  0  0  0  0  2  0  0  0  0  0  0
  181.7910  171.9150  135.5210 O   0  0  0  0  0  0  0  0  0  0  0  0
  179.7440  170.7120  135.4820 C   0  0  0  0  0  1  0  0  0  0  0  0
  181.2360  170.6490  135.7180 C   0  0  0  0  0  2  0  0  0  0  0  0
  186.8320  178.6280  140.6620 C   0  0  0  0  0  2  0  0  0  0  0  0
  187.1210  177.5690  141.7140 C   0  0  0  0  0  2  0  0  0  0  0  0
  185.5110  178.2330  145.1960 C   0  0  0  0  0  0  0  0  0  0  0  0
  186.5950  178.5570  145.9120 C   0  0  0  0  0  3  0  0  0  0  0  0
  187.8660  178.9990  145.2350 C   0  0  2  0  0  3  0  0  0  0  0  0
  187.9800  178.4890  143.8470 C   0  0  0  0  0  0  0  0  0  0  0  0
  184.5630  177.9460  143.0260 O   0  0  0  0  0  0  0  0  0  0  0  0
  189.9320  177.9710  142.5560 O   0  0  0  0  0  0  0  0  0  0  0  0
  190.0410  178.3750  144.9670 C   0  0  1  0  0  3  0  0  0  0  0  0
  185.6000  178.1300  143.7180 C   0  0  0  0  0  0  0  0  0  0  0  0
  189.3690  178.2430  143.6500 C   0  0  0  0  0  0  0  0  0  0  0  0
  186.9340  178.1480  143.0800 C   0  0  0  0  0  0  0  0  0  0  0  0
  184.2500  177.8820  145.9060 C   0  0  0  0  0  1  0  0  0  0  0  0
  189.0260  178.5920  145.9400 O   0  0  0  0  0  0  0  0  0  0  0  0
  192.0540  175.7390  146.5660 C   0  0  0  0  0  0  0  0  0  0  0  0
  190.8190  177.1450  145.3200 C   0  0  0  0  0  0  0  0  0  0  0  0
  192.7190  175.2540  147.8120 C   0  0  0  0  0  1  0  0  0  0  0  0
  192.0850  175.0500  145.3580 C   0  0  0  0  0  0  0  0  0  0  0  0
  191.2120  175.9300  144.2220 S   0  0  0  0  0  0  0  0  0  0  0  0
  192.7680  173.7530  145.0930 C   0  0  0  0  0  1  0  0  0  0  0  0
  191.3570  176.9050  146.5410 N   0  0  0  0  0  0  0  0  0  0  0  0
  1 22  1  6  0  0  0
  1 45  1  0  0  0  0
  2  8  1  0  0  0  0
  2  4  1  0  0  0  0
  3  6  1  0  0  0  0
  5  3  1  0  0  0  0
  5  7  1  0  0  0  0
  6  2  2  0  0  0  0
  7  8  2  0  0  0  0
  8  1  1  0  0  0  0
  9 10  1  0  0  0  0
  9  3  1  0  0  0  0
 10 11  1  0  0  0  0
 11 12  1  0  0  0  0
 12 21  1  0  0  0  0
 13 16  1  0  0  0  0
 13 15  1  0  0  0  0
 14 20  1  0  0  0  0
 16 20  1  0  0  0  0
 17 14  1  0  0  0  0
 17 15  1  0  0  0  0
 18 19  2  0  0  0  0
 19 16  1  0  0  0  0
 21 19  1  0  0  0  0
 25 24  1  6  0  0  0
 25 26  1  0  0  0  0
 26 23  1  0  0  0  0
 27 28  1  0  0  0  0
 27 29  1  0  0  0  0
 28 25  1  0  0  0  0
 29 22  1  6  0  0  0
 29 23  1  0  0  0  0
 30 32  1  0  0  0  0
 30 28  1  0  0  0  0
 32 31  2  1  0  0  0
 33 32  1  0  0  0  0
 34 42  1  6  0  0  0
 34 35  1  0  0  0  0
 34 41  1  0  0  0  0
 35 33  1  6  0  0  0
 36 40  1  6  0  0  0
 36 35  1  0  0  0  0
 37 38  1  1  0  0  0
 37 41  1  0  0  0  0
 39 40  1  6  0  0  0
 39 37  1  0  0  0  0
 39 36  1  0  0  0  0
 42 44  1  0  0  0  0
 43 44  1  0  0  0  0
 45 46  1  0  0  0  0
 46 56  1  0  0  0  0
 47 57  1  0  0  0  0
 47 48  2  0  0  0  0
 49 48  1  1  0  0  0
 49 58  1  0  0  0  0
 50 49  1  0  0  0  0
 51 54  2  0  0  0  0
 52 55  2  0  0  0  0
 53 60  1  1  0  0  0
 53 58  1  0  0  0  0
 54 47  1  0  0  0  0
 55 50  1  0  0  0  0
 55 53  1  0  0  0  0
 56 54  1  0  0  0  0
 56 50  2  0  0  0  0
 59 61  1  0  0  0  0
 60 65  2  0  0  0  0
 62 59  2  0  0  0  0
 63 60  1  0  0  0  0
 63 62  1  0  0  0  0
 64 62  1  0  0  0  0
 65 59  1  0  0  0  0
M  END
>  <MODEL>
4

>  <REMARK>
 VINA RESULT:      -4.5      3.197      9.241
  Name = 
  18 active torsions:
  status: ('A' for Active; 'I' for Inactive)
    1  A    between atoms: C_1  and  O_34
    2  A    between atoms: C_2  and  S_30
    3  A    between atoms: C_2  and  N_46
    4  A    between atoms: C_3  and  C_41
    5  A    between atoms: C_3  and  O_47
    6  A    between atoms: C_10  and  C_40
    7  A    between atoms: C_13  and  C_28
    8  A    between atoms: C_13  and  C_59
    9  A    between atoms: N_15  and  C_41
   10  A    between atoms: C_20  and  C_52
   11  A    between atoms: C_25  and  O_47
   12  A    between atoms: C_25  and  N_63
   13  A    between atoms: C_28  and  C_32
   14  A    between atoms: C_28  and  C_65
   15  A    between atoms: S_30  and  C_52
   16  A    between atoms: C_32  and  C_62
   17  A    between atoms: O_34  and  C_36
   18  A    between atoms: C_56  and  C_59
                            x       y       z     vdW  Elec       q    Type
                         _______ _______ _______ _____ _____    ______ ____

>  <TORSDO>
F 18

$$$$
=
 OpenBabel10222419203D

 65 72  0  0  1  0  0  0  0  0999 V2000
  185.2750  179.0320  141.1450 C   0  0  2  0  0  3  0  0  0  0  0  0
  185.2410  179.4050  143.6920 C   0  0  0  0  0  0  0  0  0  0  0  0
  186.0700  177.6840  145.1530 N   0  0  0  0  0  0  0  0  0  0  0  0
  184.6050  180.6270  143.5040 O   0  0  0  0  0  1  0  0  0  0  0  0
  186.8760  177.0790  144.0840 C   0  0  0  0  0  2  0  0  0  0  0  0
  185.4120  178.9370  144.9300 C   0  0  0  0  0  3  0  0  0  0  0  0
  186.3870  177.4850  142.7200 C   0  0  0  0  0  3  0  0  0  0  0  0
  185.6880  178.6120  142.5290 C   0  0  0  0  0  0  0  0  0  0  0  0
  186.0750  177.1680  146.5240 C   0  0  0  0  0  2  0  0  0  0  0  0
  186.2420  178.2510  147.5850 C   0  0  0  0  0  2  0  0  0  0  0  0
  187.5940  178.4830  147.8370 O   0  0  0  0  0  0  0  0  0  0  0  0
  188.1300  177.2130  148.0480 C   0  0  0  0  0  2  0  0  0  0  0  0
  190.8760  178.5880  144.0670 C   0  0  0  0  0  2  0  0  0  0  0  0
  191.4970  175.7170  143.8660 C   0  0  0  0  0  2  0  0  0  0  0  0
  192.0900  178.1370  143.2580 C   0  0  0  0  0  2  0  0  0  0  0  0
  190.5320  177.6070  145.1010 N   0  0  0  0  0  0  0  0  0  0  0  0
  191.8910  176.7060  142.7560 C   0  0  0  0  0  2  0  0  0  0  0  0
  188.8820  179.0010  145.9910 O   0  0  0  0  0  0  0  0  0  0  0  0
  189.4900  177.8960  146.0420 C   0  0  0  0  0  0  0  0  0  0  0  0
  191.3120  176.3750  145.2320 C   0  0  0  0  0  2  0  0  0  0  0  0
  189.1280  176.9300  147.0320 N   0  0  0  0  0  2  0  0  0  0  0  0
  183.8150  179.4550  141.1250 C   0  0  0  0  0  2  0  0  0  0  0  0
  182.4940  178.1990  142.7440 O   0  0  0  0  0  0  0  0  0  0  0  0
  179.5810  179.9890  141.5360 C   0  0  0  0  0  1  0  0  0  0  0  0
  180.1990  178.7140  142.1090 C   0  0  2  0  0  3  0  0  0  0  0  0
  181.4330  179.1120  142.9320 C   0  0  0  0  0  2  0  0  0  0  0  0
  181.7740  178.1650  140.3820 C   0  0  0  0  0  2  0  0  0  0  0  0
  180.5670  177.7250  141.0740 N   0  0  0  0  0  0  0  0  0  0  0  0
  182.9290  178.2470  141.3920 C   0  0  1  0  0  3  0  0  0  0  0  0
  179.5020  177.5420  140.0950 C   0  0  0  0  0  2  0  0  0  0  0  0
  180.2570  175.0780  140.5250 O   0  0  0  0  0  0  0  0  0  0  0  0
  179.0070  175.8100  140.0550 S   0  0  2  0  0  0  0  0  0  0  0  0
  178.9310  175.4480  138.2900 C   0  0  0  0  0  2  0  0  0  0  0  0
  181.1140  176.6160  137.6950 C   0  0  2  0  0  3  0  0  0  0  0  0
  179.5980  176.5530  137.4820 C   0  0  1  0  0  3  0  0  0  0  0  0
  179.1040  176.5360  136.0230 C   0  0  1  0  0  3  0  0  0  0  0  0
  181.4860  177.4170  135.3620 C   0  0  2  0  0  3  0  0  0  0  0  0
  181.9240  178.4940  134.5940 O   0  0  0  0  0  1  0  0  0  0  0  0
  180.0420  177.0660  134.9780 C   0  0  1  0  0  3  0  0  0  0  0  0
  179.8650  175.6820  135.2040 O   0  0  0  0  0  0  0  0  0  0  0  0
  181.6780  177.7360  136.8380 C   0  0  0  0  0  2  0  0  0  0  0  0
  181.7220  175.3920  137.3840 O   0  0  0  0  0  0  0  0  0  0  0  0
  183.8690  174.5620  137.9680 C   0  0  0  0  0  1  0  0  0  0  0  0
  182.5530  175.1130  138.4710 C   0  0  0  0  0  2  0  0  0  0  0  0
  185.5160  177.9480  140.1070 C   0  0  0  0  0  2  0  0  0  0  0  0
  185.7260  178.5640  138.7330 C   0  0  0  0  0  2  0  0  0  0  0  0
  189.3570  177.1590  138.6470 C   0  0  0  0  0  0  0  0  0  0  0  0
  189.3870  176.6290  137.4190 C   0  0  0  0  0  3  0  0  0  0  0  0
  188.3930  177.0510  136.3680 C   0  0  2  0  0  3  0  0  0  0  0  0
  187.1360  177.5770  136.9520 C   0  0  0  0  0  0  0  0  0  0  0  0
  188.2510  178.6380  140.1570 O   0  0  0  0  0  0  0  0  0  0  0  0
  184.9050  177.5500  136.0740 O   0  0  0  0  0  0  0  0  0  0  0  0
  186.7030  176.2150  135.0890 C   0  0  1  0  0  3  0  0  0  0  0  0
  188.2300  178.0380  139.0500 C   0  0  0  0  0  0  0  0  0  0  0  0
  186.1060  177.1680  136.0570 C   0  0  0  0  0  0  0  0  0  0  0  0
  187.0400  178.1200  138.1740 C   0  0  0  0  0  0  0  0  0  0  0  0
  190.4080  176.7760  139.6300 C   0  0  0  0  0  1  0  0  0  0  0  0
  188.0500  175.9940  135.4890 O   0  0  0  0  0  0  0  0  0  0  0  0
  185.6520  172.6860  135.1510 C   0  0  0  0  0  0  0  0  0  0  0  0
  185.9670  174.9110  135.0650 C   0  0  0  0  0  0  0  0  0  0  0  0
  186.0520  171.2650  135.3670 C   0  0  0  0  0  1  0  0  0  0  0  0
  184.3610  173.0800  134.8100 C   0  0  0  0  0  0  0  0  0  0  0  0
  184.3370  174.7560  134.6710 S   0  0  0  0  0  0  0  0  0  0  0  0
  183.1880  172.1880  134.5990 C   0  0  0  0  0  1  0  0  0  0  0  0
  186.5420  173.7040  135.2850 N   0  0  0  0  0  0  0  0  0  0  0  0
  1 45  1  6  0  0  0
  1  8  1  0  0  0  0
  2  6  2  0  0  0  0
  3  9  1  0  0  0  0
  4  2  1  0  0  0  0
  5  3  1  0  0  0  0
  6  3  1  0  0  0  0
  7  5  1  0  0  0  0
  8  7  2  0  0  0  0
  8  2  1  0  0  0  0
  9 10  1  0  0  0  0
 10 11  1  0  0  0  0
 11 12  1  0  0  0  0
 13 16  1  0  0  0  0
 14 20  1  0  0  0  0
 15 13  1  0  0  0  0
 16 20  1  0  0  0  0
 16 19  1  0  0  0  0
 17 15  1  0  0  0  0
 17 14  1  0  0  0  0
 18 19  2  0  0  0  0
 19 21  1  0  0  0  0
 21 12  1  0  0  0  0
 22  1  1  0  0  0  0
 23 26  1  0  0  0  0
 25 24  1  6  0  0  0
 25 26  1  0  0  0  0
 27 28  1  0  0  0  0
 27 29  1  0  0  0  0
 28 25  1  0  0  0  0
 29 22  1  1  0  0  0
 29 23  1  0  0  0  0
 30 28  1  0  0  0  0
 32 30  1  0  0  0  0
 32 31  2  1  0  0  0
 33 32  1  0  0  0  0
 34 42  1  6  0  0  0
 35 34  1  0  0  0  0
 35 33  1  6  0  0  0
 36 40  1  6  0  0  0
 36 35  1  0  0  0  0
 37 38  1  6  0  0  0
 37 41  1  0  0  0  0
 39 40  1  6  0  0  0
 39 37  1  0  0  0  0
 39 36  1  0  0  0  0
 41 34  1  0  0  0  0
 42 44  1  0  0  0  0
 43 44  1  0  0  0  0
 46 45  1  0  0  0  0
 47 54  1  0  0  0  0
 47 57  1  0  0  0  0
 48 47  2  0  0  0  0
 49 50  1  0  0  0  0
 49 48  1  1  0  0  0
 50 56  2  0  0  0  0
 53 60  1  1  0  0  0
 53 58  1  0  0  0  0
 53 55  1  0  0  0  0
 54 51  2  0  0  0  0
 55 52  2  0  0  0  0
 55 50  1  0  0  0  0
 56 46  1  0  0  0  0
 56 54  1  0  0  0  0
 58 49  1  0  0  0  0
 59 65  1  0  0  0  0
 59 61  1  0  0  0  0
 60 65  2  0  0  0  0
 62 59  2  0  0  0  0
 63 62  1  0  0  0  0
 63 60  1  0  0  0  0
 64 62  1  0  0  0  0
M  END
>  <MODEL>
5

>  <REMARK>
 VINA RESULT:      -4.5      3.685      9.916
  Name = 
  18 active torsions:
  status: ('A' for Active; 'I' for Inactive)
    1  A    between atoms: C_1  and  O_34
    2  A    between atoms: C_2  and  S_30
    3  A    between atoms: C_2  and  N_46
    4  A    between atoms: C_3  and  C_41
    5  A    between atoms: C_3  and  O_47
    6  A    between atoms: C_10  and  C_40
    7  A    between atoms: C_13  and  C_28
    8  A    between atoms: C_13  and  C_59
    9  A    between atoms: N_15  and  C_41
   10  A    between atoms: C_20  and  C_52
   11  A    between atoms: C_25  and  O_47
   12  A    between atoms: C_25  and  N_63
   13  A    between atoms: C_28  and  C_32
   14  A    between atoms: C_28  and  C_65
   15  A    between atoms: S_30  and  C_52
   16  A    between atoms: C_32  and  C_62
   17  A    between atoms: O_34  and  C_36
   18  A    between atoms: C_56  and  C_59
                            x       y       z     vdW  Elec       q    Type
                         _______ _______ _______ _____ _____    ______ ____

>  <TORSDO>
F 18

$$$$
=
 OpenBabel10222419203D

 65 72  0  0  1  0  0  0  0  0999 V2000
  184.6560  177.7560  141.6170 C   0  0  2  0  0  3  0  0  0  0  0  0
  186.9830  177.5150  142.6900 C   0  0  0  0  0  0  0  0  0  0  0  0
  188.9470  177.6850  141.3130 N   0  0  0  0  0  0  0  0  0  0  0  0
  186.3890  177.2470  143.9180 O   0  0  0  0  0  1  0  0  0  0  0  0
  188.2260  178.4280  140.2700 C   0  0  0  0  0  2  0  0  0  0  0  0
  188.3070  177.4080  142.5640 C   0  0  0  0  0  3  0  0  0  0  0  0
  186.7380  178.2290  140.3720 C   0  0  0  0  0  3  0  0  0  0  0  0
  186.1530  177.8760  141.5240 C   0  0  0  0  0  0  0  0  0  0  0  0
  190.3780  177.3910  141.2160 C   0  0  0  0  0  2  0  0  0  0  0  0
  190.8830  177.2650  139.7820 C   0  0  0  0  0  2  0  0  0  0  0  0
  190.5090  176.0350  139.2400 O   0  0  0  0  0  0  0  0  0  0  0  0
  190.6340  176.2130  137.8620 C   0  0  0  0  0  2  0  0  0  0  0  0
  195.3310  174.6320  137.0130 C   0  0  0  0  0  2  0  0  0  0  0  0
  194.0470  172.7020  135.1970 C   0  0  0  0  0  2  0  0  0  0  0  0
  196.0970  173.3830  136.5810 C   0  0  0  0  0  2  0  0  0  0  0  0
  193.8820  174.4170  136.9470 N   0  0  0  0  0  0  0  0  0  0  0  0
  195.5740  172.8820  135.2350 C   0  0  0  0  0  2  0  0  0  0  0  0
  193.4460  176.5020  137.9070 O   0  0  0  0  0  0  0  0  0  0  0  0
  192.9870  175.4320  137.4190 C   0  0  0  0  0  0  0  0  0  0  0  0
  193.3510  173.1330  136.4880 C   0  0  0  0  0  2  0  0  0  0  0  0
  191.5720  175.2420  137.3280 N   0  0  0  0  0  2  0  0  0  0  0  0
  184.0220  177.8500  140.2390 C   0  0  0  0  0  2  0  0  0  0  0  0
  182.7020  175.8240  140.5520 O   0  0  0  0  0  0  0  0  0  0  0  0
  180.3150  177.1900  138.1890 C   0  0  0  0  0  1  0  0  0  0  0  0
  181.0220  175.9780  138.7950 C   0  0  2  0  0  3  0  0  0  0  0  0
  181.4230  176.3330  140.2340 C   0  0  0  0  0  2  0  0  0  0  0  0
  183.3060  176.4720  138.2470 C   0  0  0  0  0  2  0  0  0  0  0  0
  182.2040  175.5420  138.0230 N   0  0  0  0  0  0  0  0  0  0  0  0
  183.6810  176.4550  139.7370 C   0  0  1  0  0  3  0  0  0  0  0  0
  181.9260  175.4780  136.5930 C   0  0  0  0  0  2  0  0  0  0  0  0
  183.0280  174.1230  134.6490 O   0  0  0  0  0  0  0  0  0  0  0  0
  183.4520  175.1490  135.6920 S   0  0  2  0  0  0  0  0  0  0  0  0
  184.4220  174.1900  136.8720 C   0  0  0  0  0  2  0  0  0  0  0  0
  186.6590  174.7840  135.8120 C   0  0  2  0  0  3  0  0  0  0  0  0
  185.6970  173.6660  136.2260 C   0  0  1  0  0  3  0  0  0  0  0  0
  186.2930  172.5100  137.0520 C   0  0  1  0  0  3  0  0  0  0  0  0
  188.6460  173.3370  136.2350 C   0  0  2  0  0  3  0  0  0  0  0  0
  189.7240  172.6930  135.6310 O   0  0  0  0  0  1  0  0  0  0  0  0
  187.7780  172.3040  136.9670 C   0  0  1  0  0  3  0  0  0  0  0  0
  187.1650  172.9610  138.0600 O   0  0  0  0  0  0  0  0  0  0  0  0
  187.8960  174.1560  135.1940 C   0  0  0  0  0  2  0  0  0  0  0  0
  187.0000  175.5910  136.9060 O   0  0  0  0  0  0  0  0  0  0  0  0
  186.4180  177.8380  136.4000 C   0  0  0  0  0  1  0  0  0  0  0  0
  187.4910  176.7730  136.3460 C   0  0  0  0  0  2  0  0  0  0  0  0
  184.0410  178.7920  142.5450 C   0  0  0  0  0  2  0  0  0  0  0  0
  183.2620  179.8250  141.7470 C   0  0  0  0  0  2  0  0  0  0  0  0
  179.6430  179.2980  143.0850 C   0  0  0  0  0  0  0  0  0  0  0  0
  178.9360  179.4920  141.9650 C   0  0  0  0  0  3  0  0  0  0  0  0
  179.5870  179.3880  140.6100 C   0  0  2  0  0  3  0  0  0  0  0  0
  181.0460  179.6480  140.6570 C   0  0  0  0  0  0  0  0  0  0  0  0
  181.7820  178.8550  144.0440 O   0  0  0  0  0  0  0  0  0  0  0  0
  182.5010  180.5500  138.9780 O   0  0  0  0  0  0  0  0  0  0  0  0
  180.0650  180.6480  138.7720 C   0  0  1  0  0  3  0  0  0  0  0  0
  181.1200  179.1570  143.0160 C   0  0  0  0  0  0  0  0  0  0  0  0
  181.3510  180.3060  139.4310 C   0  0  0  0  0  0  0  0  0  0  0  0
  181.8090  179.4730  141.7450 C   0  0  0  0  0  0  0  0  0  0  0  0
  178.9460  179.3280  144.3990 C   0  0  0  0  0  1  0  0  0  0  0  0
  179.0210  180.2820  139.6660 O   0  0  0  0  0  0  0  0  0  0  0  0
  180.4900  184.0850  137.5220 C   0  0  0  0  0  0  0  0  0  0  0  0
  179.9700  182.1100  138.4620 C   0  0  0  0  0  0  0  0  0  0  0  0
  181.2190  184.9970  136.5920 C   0  0  0  0  0  1  0  0  0  0  0  0
  179.4930  184.5100  138.3950 C   0  0  0  0  0  0  0  0  0  0  0  0
  178.9310  183.1750  139.2490 S   0  0  0  0  0  0  0  0  0  0  0  0
  178.9940  185.9030  138.5610 C   0  0  0  0  0  1  0  0  0  0  0  0
  180.7570  182.7540  137.5660 N   0  0  0  0  0  0  0  0  0  0  0  0
  1 22  1  6  0  0  0
  1 45  1  0  0  0  0
  2  4  1  0  0  0  0
  3  6  1  0  0  0  0
  5  7  1  0  0  0  0
  5  3  1  0  0  0  0
  6  2  2  0  0  0  0
  7  8  2  0  0  0  0
  8  1  1  0  0  0  0
  8  2  1  0  0  0  0
  9  3  1  0  0  0  0
 10  9  1  0  0  0  0
 11 10  1  0  0  0  0
 12 11  1  0  0  0  0
 14 17  1  0  0  0  0
 14 20  1  0  0  0  0
 15 13  1  0  0  0  0
 16 13  1  0  0  0  0
 16 19  1  0  0  0  0
 17 15  1  0  0  0  0
 19 18  2  0  0  0  0
 20 16  1  0  0  0  0
 21 19  1  0  0  0  0
 21 12  1  0  0  0  0
 25 24  1  6  0  0  0
 25 26  1  0  0  0  0
 26 23  1  0  0  0  0
 27 29  1  0  0  0  0
 28 27  1  0  0  0  0
 28 25  1  0  0  0  0
 29 22  1  1  0  0  0
 29 23  1  0  0  0  0
 30 28  1  0  0  0  0
 32 31  2  6  0  0  0
 32 30  1  0  0  0  0
 32 33  1  0  0  0  0
 34 35  1  0  0  0  0
 34 42  1  1  0  0  0
 35 33  1  1  0  0  0
 35 36  1  0  0  0  0
 36 40  1  1  0  0  0
 37 38  1  6  0  0  0
 37 39  1  0  0  0  0
 39 36  1  0  0  0  0
 39 40  1  1  0  0  0
 41 34  1  0  0  0  0
 41 37  1  0  0  0  0
 44 43  1  0  0  0  0
 44 42  1  0  0  0  0
 46 45  1  0  0  0  0
 47 57  1  0  0  0  0
 48 47  2  0  0  0  0
 49 50  1  0  0  0  0
 49 48  1  1  0  0  0
 50 56  2  0  0  0  0
 52 55  2  0  0  0  0
 53 60  1  1  0  0  0
 53 55  1  0  0  0  0
 53 58  1  0  0  0  0
 54 47  1  0  0  0  0
 54 51  2  0  0  0  0
 55 50  1  0  0  0  0
 56 46  1  0  0  0  0
 56 54  1  0  0  0  0
 58 49  1  0  0  0  0
 59 65  1  0  0  0  0
 59 62  2  0  0  0  0
 60 63  1  0  0  0  0
 61 59  1  0  0  0  0
 62 64  1  0  0  0  0
 62 63  1  0  0  0  0
 65 60  2  0  0  0  0
M  END
>  <MODEL>
6

>  <REMARK>
 VINA RESULT:      -4.4      3.061      7.150
  Name = 
  18 active torsions:
  status: ('A' for Active; 'I' for Inactive)
    1  A    between atoms: C_1  and  O_34
    2  A    between atoms: C_2  and  S_30
    3  A    between atoms: C_2  and  N_46
    4  A    between atoms: C_3  and  C_41
    5  A    between atoms: C_3  and  O_47
    6  A    between atoms: C_10  and  C_40
    7  A    between atoms: C_13  and  C_28
    8  A    between atoms: C_13  and  C_59
    9  A    between atoms: N_15  and  C_41
   10  A    between atoms: C_20  and  C_52
   11  A    between atoms: C_25  and  O_47
   12  A    between atoms: C_25  and  N_63
   13  A    between atoms: C_28  and  C_32
   14  A    between atoms: C_28  and  C_65
   15  A    between atoms: S_30  and  C_52
   16  A    between atoms: C_32  and  C_62
   17  A    between atoms: O_34  and  C_36
   18  A    between atoms: C_56  and  C_59
                            x       y       z     vdW  Elec       q    Type
                         _______ _______ _______ _____ _____    ______ ____

>  <TORSDO>
F 18

$$$$
=
 OpenBabel10222419203D

 65 72  0  0  1  0  0  0  0  0999 V2000
  185.5160  179.0320  140.7640 C   0  0  2  0  0  3  0  0  0  0  0  0
  184.9610  179.3570  143.2570 C   0  0  0  0  0  0  0  0  0  0  0  0
  185.6360  177.6870  144.8500 N   0  0  0  0  0  0  0  0  0  0  0  0
  184.2730  180.5260  142.9500 O   0  0  0  0  0  1  0  0  0  0  0  0
  186.6810  177.1690  143.9560 C   0  0  0  0  0  2  0  0  0  0  0  0
  184.9290  178.8840  144.5040 C   0  0  0  0  0  3  0  0  0  0  0  0
  186.4310  177.5550  142.5240 C   0  0  0  0  0  3  0  0  0  0  0  0
  185.6890  178.6240  142.2020 C   0  0  0  0  0  0  0  0  0  0  0  0
  185.4200  177.1500  146.1950 C   0  0  0  0  0  2  0  0  0  0  0  0
  185.1090  178.2190  147.2380 C   0  0  0  0  0  2  0  0  0  0  0  0
  185.6730  179.4400  146.8700 O   0  0  0  0  0  0  0  0  0  0  0  0
  186.8800  179.4870  147.5680 C   0  0  0  0  0  2  0  0  0  0  0  0
  190.9350  176.5150  147.6810 C   0  0  0  0  0  2  0  0  0  0  0  0
  190.8960  176.8360  144.7540 C   0  0  0  0  0  2  0  0  0  0  0  0
  191.6940  175.5190  146.8060 C   0  0  0  0  0  2  0  0  0  0  0  0
  189.8280  177.1330  146.9450 N   0  0  0  0  0  0  0  0  0  0  0  0
  192.0790  176.1690  145.4770 C   0  0  0  0  0  2  0  0  0  0  0  0
  189.0690  178.2440  148.8560 O   0  0  0  0  0  0  0  0  0  0  0  0
  188.9230  178.0150  147.6230 C   0  0  0  0  0  0  0  0  0  0  0  0
  189.5900  176.7800  145.5440 C   0  0  0  0  0  2  0  0  0  0  0  0
  187.8600  178.6460  146.9030 N   0  0  0  0  0  2  0  0  0  0  0  0
  184.0650  179.3790  140.4750 C   0  0  0  0  0  2  0  0  0  0  0  0
  182.7030  177.8450  141.7930 O   0  0  0  0  0  0  0  0  0  0  0  0
  179.7930  179.6860  140.6580 C   0  0  0  0  0  1  0  0  0  0  0  0
  180.4320  178.3630  141.0800 C   0  0  2  0  0  3  0  0  0  0  0  0
  181.5900  178.6790  142.0380 C   0  0  0  0  0  2  0  0  0  0  0  0
  182.1400  178.1400  139.4070 C   0  0  0  0  0  2  0  0  0  0  0  0
  180.9130  177.5560  139.9390 N   0  0  0  0  0  0  0  0  0  0  0  0
  183.2220  178.1120  140.4970 C   0  0  1  0  0  3  0  0  0  0  0  0
  179.9240  177.4820  138.8700 C   0  0  0  0  0  2  0  0  0  0  0  0
  179.7160  175.1790  140.0870 O   0  0  0  0  0  0  0  0  0  0  0  0
  178.9310  175.9910  139.0650 S   0  0  2  0  0  0  0  0  0  0  0  0
  179.2050  175.1130  137.5130 C   0  0  0  0  0  2  0  0  0  0  0  0
  181.3840  173.9570  136.8840 C   0  0  2  0  0  3  0  0  0  0  0  0
  180.6410  175.2880  137.0390 C   0  0  1  0  0  3  0  0  0  0  0  0
  180.7080  176.2610  135.8470 C   0  0  1  0  0  3  0  0  0  0  0  0
  182.7560  174.8530  135.0040 C   0  0  2  0  0  3  0  0  0  0  0  0
  184.0480  175.1940  134.6100 O   0  0  0  0  0  1  0  0  0  0  0  0
  181.8420  176.0800  134.8800 C   0  0  1  0  0  3  0  0  0  0  0  0
  180.5350  175.6130  134.6100 O   0  0  0  0  0  0  0  0  0  0  0  0
  182.7940  174.2420  136.3970 C   0  0  0  0  0  2  0  0  0  0  0  0
  180.7120  173.1010  136.0020 O   0  0  0  0  0  0  0  0  0  0  0  0
  180.7050  170.7480  135.6710 C   0  0  0  0  0  1  0  0  0  0  0  0
  181.5480  171.9890  135.8680 C   0  0  0  0  0  2  0  0  0  0  0  0
  186.0000  177.9680  139.7910 C   0  0  0  0  0  2  0  0  0  0  0  0
  186.6130  178.6140  138.5590 C   0  0  0  0  0  2  0  0  0  0  0  0
  190.1810  177.3880  139.5230 C   0  0  0  0  0  0  0  0  0  0  0  0
  190.4930  176.6630  138.4420 C   0  0  0  0  0  3  0  0  0  0  0  0
  189.7590  176.8560  137.1410 C   0  0  2  0  0  3  0  0  0  0  0  0
  188.3970  177.4120  137.3320 C   0  0  0  0  0  0  0  0  0  0  0  0
  188.7510  179.0440  140.4710 O   0  0  0  0  0  0  0  0  0  0  0  0
  186.4230  177.1330  136.0010 O   0  0  0  0  0  0  0  0  0  0  0  0
  188.4090  175.7400  135.6840 C   0  0  1  0  0  3  0  0  0  0  0  0
  188.9850  178.2670  139.5080 C   0  0  0  0  0  0  0  0  0  0  0  0
  187.6000  176.8120  136.3170 C   0  0  0  0  0  0  0  0  0  0  0  0
  188.0240  178.1460  138.3900 C   0  0  0  0  0  0  0  0  0  0  0  0
  190.9860  177.2250  140.7650 C   0  0  0  0  0  1  0  0  0  0  0  0
  189.6320  175.6520  136.4050 O   0  0  0  0  0  0  0  0  0  0  0  0
  186.2960  172.8200  136.4400 C   0  0  0  0  0  0  0  0  0  0  0  0
  187.7080  174.4160  135.7240 C   0  0  0  0  0  0  0  0  0  0  0  0
  185.1950  172.2540  137.2730 C   0  0  0  0  0  1  0  0  0  0  0  0
  186.9650  172.0990  135.4550 C   0  0  0  0  0  0  0  0  0  0  0  0
  188.1180  173.1030  134.7540 S   0  0  0  0  0  0  0  0  0  0  0  0
  186.7190  170.6820  135.0710 C   0  0  0  0  0  1  0  0  0  0  0  0
  186.7150  174.1030  136.5920 N   0  0  0  0  0  0  0  0  0  0  0  0
  1 45  1  6  0  0  0
  1  8  1  0  0  0  0
  2  6  2  0  0  0  0
  3  9  1  0  0  0  0
  4  2  1  0  0  0  0
  5  3  1  0  0  0  0
  6  3  1  0  0  0  0
  7  5  1  0  0  0  0
  8  7  2  0  0  0  0
  8  2  1  0  0  0  0
  9 10  1  0  0  0  0
 11 10  1  0  0  0  0
 11 12  1  0  0  0  0
 14 17  1  0  0  0  0
 14 20  1  0  0  0  0
 15 13  1  0  0  0  0
 16 19  1  0  0  0  0
 16 13  1  0  0  0  0
 17 15  1  0  0  0  0
 19 18  2  0  0  0  0
 20 16  1  0  0  0  0
 21 12  1  0  0  0  0
 21 19  1  0  0  0  0
 22  1  1  0  0  0  0
 23 26  1  0  0  0  0
 25 24  1  6  0  0  0
 25 26  1  0  0  0  0
 27 28  1  0  0  0  0
 27 29  1  0  0  0  0
 28 25  1  0  0  0  0
 29 22  1  1  0  0  0
 29 23  1  0  0  0  0
 30 32  1  0  0  0  0
 30 28  1  0  0  0  0
 32 31  2  1  0  0  0
 33 32  1  0  0  0  0
 34 42  1  6  0  0  0
 34 35  1  0  0  0  0
 35 33  1  6  0  0  0
 36 40  1  6  0  0  0
 36 35  1  0  0  0  0
 37 38  1  1  0  0  0
 37 41  1  0  0  0  0
 39 40  1  6  0  0  0
 39 37  1  0  0  0  0
 39 36  1  0  0  0  0
 41 34  1  0  0  0  0
 43 44  1  0  0  0  0
 44 42  1  0  0  0  0
 46 45  1  0  0  0  0
 47 57  1  0  0  0  0
 48 47  2  0  0  0  0
 49 50  1  0  0  0  0
 49 48  1  1  0  0  0
 50 56  2  0  0  0  0
 52 55  2  0  0  0  0
 53 60  1  1  0  0  0
 53 55  1  0  0  0  0
 53 58  1  0  0  0  0
 54 47  1  0  0  0  0
 54 51  2  0  0  0  0
 55 50  1  0  0  0  0
 56 46  1  0  0  0  0
 56 54  1  0  0  0  0
 58 49  1  0  0  0  0
 59 65  1  0  0  0  0
 59 61  1  0  0  0  0
 60 65  2  0  0  0  0
 62 59  2  0  0  0  0
 63 62  1  0  0  0  0
 63 60  1  0  0  0  0
 64 62  1  0  0  0  0
M  END
>  <MODEL>
7

>  <REMARK>
 VINA RESULT:      -4.3      3.488     10.557
  Name = 
  18 active torsions:
  status: ('A' for Active; 'I' for Inactive)
    1  A    between atoms: C_1  and  O_34
    2  A    between atoms: C_2  and  S_30
    3  A    between atoms: C_2  and  N_46
    4  A    between atoms: C_3  and  C_41
    5  A    between atoms: C_3  and  O_47
    6  A    between atoms: C_10  and  C_40
    7  A    between atoms: C_13  and  C_28
    8  A    between atoms: C_13  and  C_59
    9  A    between atoms: N_15  and  C_41
   10  A    between atoms: C_20  and  C_52
   11  A    between atoms: C_25  and  O_47
   12  A    between atoms: C_25  and  N_63
   13  A    between atoms: C_28  and  C_32
   14  A    between atoms: C_28  and  C_65
   15  A    between atoms: S_30  and  C_52
   16  A    between atoms: C_32  and  C_62
   17  A    between atoms: O_34  and  C_36
   18  A    between atoms: C_56  and  C_59
                            x       y       z     vdW  Elec       q    Type
                         _______ _______ _______ _____ _____    ______ ____

>  <TORSDO>
F 18

$$$$
=
 OpenBabel10222419203D

 65 72  0  0  1  0  0  0  0  0999 V2000
  189.3230  176.6750  137.3500 C   0  0  2  0  0  3  0  0  0  0  0  0
  190.8490  176.1560  135.3430 C   0  0  0  0  0  0  0  0  0  0  0  0
  192.5700  174.4910  135.5610 N   0  0  0  0  0  0  0  0  0  0  0  0
  190.2250  177.1600  134.6100 O   0  0  0  0  0  1  0  0  0  0  0  0
  191.8880  173.8460  136.6910 C   0  0  0  0  0  2  0  0  0  0  0  0
  191.9130  175.5340  134.8310 C   0  0  0  0  0  3  0  0  0  0  0  0
  190.9030  174.7730  137.3500 C   0  0  0  0  0  3  0  0  0  0  0  0
  190.3610  175.8070  136.6920 C   0  0  0  0  0  0  0  0  0  0  0  0
  193.8200  173.9720  135.0020 C   0  0  0  0  0  2  0  0  0  0  0  0
  193.7510  172.5000  134.6070 C   0  0  0  0  0  2  0  0  0  0  0  0
  194.9800  171.8780  134.8240 O   0  0  0  0  0  0  0  0  0  0  0  0
  194.9650  171.5450  136.1780 C   0  0  0  0  0  2  0  0  0  0  0  0
  196.6130  174.6150  139.8040 C   0  0  0  0  0  2  0  0  0  0  0  0
  199.1200  174.6240  138.2590 C   0  0  0  0  0  2  0  0  0  0  0  0
  197.9100  175.0540  140.4800 C   0  0  0  0  0  2  0  0  0  0  0  0
  196.8790  173.7130  138.6790 N   0  0  0  0  0  0  0  0  0  0  0  0
  198.8960  175.5850  139.4390 C   0  0  0  0  0  2  0  0  0  0  0  0
  194.5990  173.3210  138.3470 O   0  0  0  0  0  0  0  0  0  0  0  0
  195.7860  173.0990  137.9820 C   0  0  0  0  0  0  0  0  0  0  0  0
  198.2560  173.3650  138.3270 C   0  0  0  0  0  2  0  0  0  0  0  0
  196.0380  172.2430  136.8640 N   0  0  0  0  0  2  0  0  0  0  0  0
  189.1050  176.2520  138.7930 C   0  0  0  0  0  2  0  0  0  0  0  0
  188.7530  178.6600  138.9440 O   0  0  0  0  0  0  0  0  0  0  0  0
  185.3120  177.9520  139.8430 C   0  0  0  0  0  1  0  0  0  0  0  0
  186.5510  178.8370  139.9720 C   0  0  2  0  0  3  0  0  0  0  0  0
  187.3660  178.7060  138.6780 C   0  0  0  0  0  2  0  0  0  0  0  0
  188.1250  177.2710  140.8870 C   0  0  0  0  0  2  0  0  0  0  0  0
  187.3880  178.5040  141.1440 N   0  0  0  0  0  0  0  0  0  0  0  0
  189.0570  177.4850  139.6850 C   0  0  1  0  0  3  0  0  0  0  0  0
  186.5890  178.3320  142.3520 C   0  0  0  0  0  2  0  0  0  0  0  0
  186.8760  178.0360  144.9320 O   0  0  0  0  0  0  0  0  0  0  0  0
  187.6110  177.6320  143.6610 S   0  0  2  0  0  0  0  0  0  0  0  0
  189.0700  178.6940  143.6500 C   0  0  0  0  0  2  0  0  0  0  0  0
  190.4690  177.6880  145.5240 C   0  0  2  0  0  3  0  0  0  0  0  0
  190.3180  177.9030  144.0150 C   0  0  1  0  0  3  0  0  0  0  0  0
  190.4540  176.6550  143.1210 C   0  0  1  0  0  3  0  0  0  0  0  0
  191.5930  175.4890  145.1780 C   0  0  2  0  0  3  0  0  0  0  0  0
  192.7910  174.7950  145.3360 O   0  0  0  0  0  1  0  0  0  0  0  0
  191.1860  175.4780  143.6980 C   0  0  1  0  0  3  0  0  0  0  0  0
  189.7740  175.5400  143.6440 O   0  0  0  0  0  0  0  0  0  0  0  0
  191.7310  176.8820  145.7760 C   0  0  0  0  0  2  0  0  0  0  0  0
  189.3460  177.0430  146.0600 O   0  0  0  0  0  0  0  0  0  0  0  0
  189.0480  178.4070  147.9820 C   0  0  0  0  0  1  0  0  0  0  0  0
  189.5330  177.0790  147.4440 C   0  0  0  0  0  2  0  0  0  0  0  0
  187.9990  176.6740  136.6020 C   0  0  0  0  0  2  0  0  0  0  0  0
  187.0450  175.6590  137.2110 C   0  0  0  0  0  2  0  0  0  0  0  0
  185.8490  172.6360  135.0670 C   0  0  0  0  0  0  0  0  0  0  0  0
  184.6870  173.1090  134.6010 C   0  0  0  0  0  3  0  0  0  0  0  0
  184.3990  174.5880  134.5940 C   0  0  2  0  0  3  0  0  0  0  0  0
  185.1780  175.3250  135.6180 C   0  0  0  0  0  0  0  0  0  0  0  0
  187.9440  173.1410  136.0880 O   0  0  0  0  0  0  0  0  0  0  0  0
  184.6430  177.3410  136.8000 O   0  0  0  0  0  0  0  0  0  0  0  0
  182.9730  176.1210  135.4920 C   0  0  1  0  0  3  0  0  0  0  0  0
  186.8000  173.5460  135.7540 C   0  0  0  0  0  0  0  0  0  0  0  0
  184.3200  176.3710  136.0620 C   0  0  0  0  0  0  0  0  0  0  0  0
  186.3460  174.9050  136.1240 C   0  0  0  0  0  0  0  0  0  0  0  0
  186.1260  171.1760  134.9800 C   0  0  0  0  0  1  0  0  0  0  0  0
  183.0280  174.8760  134.8070 O   0  0  0  0  0  0  0  0  0  0  0  0
  180.4280  175.1530  137.9720 C   0  0  0  0  0  0  0  0  0  0  0  0
  181.9200  176.0610  136.5560 C   0  0  0  0  0  0  0  0  0  0  0  0
  179.7270  174.0390  138.6750 C   0  0  0  0  0  1  0  0  0  0  0  0
  180.1550  176.4990  138.1950 C   0  0  0  0  0  0  0  0  0  0  0  0
  181.1670  177.4160  137.2140 S   0  0  0  0  0  0  0  0  0  0  0  0
  179.1450  177.0550  139.1370 C   0  0  0  0  0  1  0  0  0  0  0  0
  181.4030  174.9130  137.0560 N   0  0  0  0  0  0  0  0  0  0  0  0
  1 45  1  6  0  0  0
  1 22  1  0  0  0  0
  2  8  1  0  0  0  0
  3  5  1  0  0  0  0
  4  2  1  0  0  0  0
  5  7  1  0  0  0  0
  6  2  2  0  0  0  0
  6  3  1  0  0  0  0
  8  1  1  0  0  0  0
  8  7  2  0  0  0  0
  9  3  1  0  0  0  0
 10 11  1  0  0  0  0
 10  9  1  0  0  0  0
 11 12  1  0  0  0  0
 12 21  1  0  0  0  0
 13 15  1  0  0  0  0
 14 20  1  0  0  0  0
 14 17  1  0  0  0  0
 16 13  1  0  0  0  0
 17 15  1  0  0  0  0
 19 18  2  0  0  0  0
 19 16  1  0  0  0  0
 20 16  1  0  0  0  0
 21 19  1  0  0  0  0
 23 29  1  0  0  0  0
 25 24  1  6  0  0  0
 25 28  1  0  0  0  0
 26 23  1  0  0  0  0
 26 25  1  0  0  0  0
 27 28  1  0  0  0  0
 28 30  1  0  0  0  0
 29 22  1  6  0  0  0
 29 27  1  0  0  0  0
 30 32  1  0  0  0  0
 32 31  2  1  0  0  0
 33 32  1  0  0  0  0
 34 41  1  0  0  0  0
 34 42  1  6  0  0  0
 35 33  1  1  0  0  0
 35 34  1  0  0  0  0
 36 40  1  1  0  0  0
 36 39  1  0  0  0  0
 36 35  1  0  0  0  0
 37 38  1  6  0  0  0
 37 41  1  0  0  0  0
 39 40  1  1  0  0  0
 39 37  1  0  0  0  0
 42 44  1  0  0  0  0
 44 43  1  0  0  0  0
 45 46  1  0  0  0  0
 47 54  1  0  0  0  0
 48 47  2  0  0  0  0
 49 48  1  1  0  0  0
 49 58  1  0  0  0  0
 49 50  1  0  0  0  0
 50 55  1  0  0  0  0
 50 56  2  0  0  0  0
 53 55  1  0  0  0  0
 53 60  1  1  0  0  0
 54 51  2  0  0  0  0
 54 56  1  0  0  0  0
 55 52  2  0  0  0  0
 56 46  1  0  0  0  0
 57 47  1  0  0  0  0
 58 53  1  0  0  0  0
 59 62  2  0  0  0  0
 59 61  1  0  0  0  0
 60 65  2  0  0  0  0
 60 63  1  0  0  0  0
 62 64  1  0  0  0  0
 63 62  1  0  0  0  0
 65 59  1  0  0  0  0
M  END
>  <MODEL>
8

>  <REMARK>
 VINA RESULT:      -4.0      2.891      5.535
  Name = 
  18 active torsions:
  status: ('A' for Active; 'I' for Inactive)
    1  A    between atoms: C_1  and  O_34
    2  A    between atoms: C_2  and  S_30
    3  A    between atoms: C_2  and  N_46
    4  A    between atoms: C_3  and  C_41
    5  A    between atoms: C_3  and  O_47
    6  A    between atoms: C_10  and  C_40
    7  A    between atoms: C_13  and  C_28
    8  A    between atoms: C_13  and  C_59
    9  A    between atoms: N_15  and  C_41
   10  A    between atoms: C_20  and  C_52
   11  A    between atoms: C_25  and  O_47
   12  A    between atoms: C_25  and  N_63
   13  A    between atoms: C_28  and  C_32
   14  A    between atoms: C_28  and  C_65
   15  A    between atoms: S_30  and  C_52
   16  A    between atoms: C_32  and  C_62
   17  A    between atoms: O_34  and  C_36
   18  A    between atoms: C_56  and  C_59
                            x       y       z     vdW  Elec       q    Type
                         _______ _______ _______ _____ _____    ______ ____

>  <TORSDO>
F 18

$$$$
=
 OpenBabel10222419203D

 65 72  0  0  1  0  0  0  0  0999 V2000
  190.8940  176.6940  138.9510 C   0  0  2  0  0  3  0  0  0  0  0  0
  192.5530  174.9970  137.9560 C   0  0  0  0  0  0  0  0  0  0  0  0
  194.9150  175.3220  138.2730 N   0  0  0  0  0  0  0  0  0  0  0  0
  191.4970  174.3060  137.3730 O   0  0  0  0  0  1  0  0  0  0  0  0
  194.7010  176.1780  139.4490 C   0  0  0  0  0  2  0  0  0  0  0  0
  193.8070  174.6340  137.6800 C   0  0  0  0  0  3  0  0  0  0  0  0
  193.3080  176.7440  139.4800 C   0  0  0  0  0  3  0  0  0  0  0  0
  192.2910  176.1480  138.8430 C   0  0  0  0  0  0  0  0  0  0  0  0
  196.2540  174.9680  137.7960 C   0  0  0  0  0  2  0  0  0  0  0  0
  196.5820  175.5290  136.4170 C   0  0  0  0  0  2  0  0  0  0  0  0
  197.6960  174.8840  135.8800 O   0  0  0  0  0  0  0  0  0  0  0  0
  197.2770  174.4640  134.6170 C   0  0  0  0  0  2  0  0  0  0  0  0
  192.9430  171.9160  134.7120 C   0  0  0  0  0  2  0  0  0  0  0  0
  194.5970  169.7080  135.7410 C   0  0  0  0  0  2  0  0  0  0  0  0
  192.4130  170.4850  134.6430 C   0  0  0  0  0  2  0  0  0  0  0  0
  194.4090  171.9390  134.7340 N   0  0  0  0  0  0  0  0  0  0  0  0
  193.0610  169.6280  135.7310 C   0  0  0  0  0  2  0  0  0  0  0  0
  194.4560  174.2720  134.6040 O   0  0  0  0  0  0  0  0  0  0  0  0
  195.1050  173.1920  134.6850 C   0  0  0  0  0  0  0  0  0  0  0  0
  195.1630  170.6850  134.7130 C   0  0  0  0  0  2  0  0  0  0  0  0
  196.5340  173.2230  134.7390 N   0  0  0  0  0  2  0  0  0  0  0  0
  190.1800  176.1110  140.1590 C   0  0  0  0  0  2  0  0  0  0  0  0
  189.8460  178.4970  140.5320 O   0  0  0  0  0  0  0  0  0  0  0  0
  186.2850  177.9030  140.1920 C   0  0  0  0  0  1  0  0  0  0  0  0
  187.4350  178.6820  140.8300 C   0  0  2  0  0  3  0  0  0  0  0  0
  188.6190  178.6660  139.8520 C   0  0  0  0  0  2  0  0  0  0  0  0
  188.6010  176.9130  141.9600 C   0  0  0  0  0  2  0  0  0  0  0  0
  187.8460  178.1480  142.1460 N   0  0  0  0  0  0  0  0  0  0  0  0
  189.8730  177.2190  141.1560 C   0  0  1  0  0  3  0  0  0  0  0  0
  186.6980  177.8750  143.0030 C   0  0  0  0  0  2  0  0  0  0  0  0
  186.6750  178.5860  145.5170 O   0  0  0  0  0  0  0  0  0  0  0  0
  187.2660  177.4710  144.6650 S   0  0  2  0  0  0  0  0  0  0  0  0
  189.0260  177.8640  144.6000 C   0  0  0  0  0  2  0  0  0  0  0  0
  191.3140  176.8190  144.9880 C   0  0  2  0  0  3  0  0  0  0  0  0
  189.8370  176.8450  145.3900 C   0  0  1  0  0  3  0  0  0  0  0  0
  189.5310  176.9530  146.8960 C   0  0  1  0  0  3  0  0  0  0  0  0
  192.0140  176.2060  147.3020 C   0  0  2  0  0  3  0  0  0  0  0  0
  192.5910  175.2050  148.0810 O   0  0  0  0  0  1  0  0  0  0  0  0
  190.6160  176.5350  147.8450 C   0  0  1  0  0  3  0  0  0  0  0  0
  190.3520  177.8910  147.5480 O   0  0  0  0  0  0  0  0  0  0  0  0
  192.0310  175.7850  145.8400 C   0  0  0  0  0  2  0  0  0  0  0  0
  191.9030  178.0820  145.1320 O   0  0  0  0  0  0  0  0  0  0  0  0
  191.3920  180.0830  143.9590 C   0  0  0  0  0  1  0  0  0  0  0  0
  191.8630  178.6500  143.8560 C   0  0  0  0  0  2  0  0  0  0  0  0
  190.0720  176.4530  137.6940 C   0  0  0  0  0  2  0  0  0  0  0  0
  188.6290  176.1370  138.0540 C   0  0  0  0  0  2  0  0  0  0  0  0
  187.3530  173.0160  136.1070 C   0  0  0  0  0  0  0  0  0  0  0  0
  186.3480  173.5560  135.4070 C   0  0  0  0  0  3  0  0  0  0  0  0
  186.2720  175.0440  135.1830 C   0  0  2  0  0  3  0  0  0  0  0  0
  186.9860  175.8150  136.2290 C   0  0  0  0  0  0  0  0  0  0  0  0
  189.3260  173.4020  137.3890 O   0  0  0  0  0  0  0  0  0  0  0  0
  186.5680  178.0220  137.0680 O   0  0  0  0  0  0  0  0  0  0  0  0
  184.9550  176.8420  135.6560 C   0  0  1  0  0  3  0  0  0  0  0  0
  188.3100  173.8910  136.8290 C   0  0  0  0  0  0  0  0  0  0  0  0
  186.2260  177.0060  136.4050 C   0  0  0  0  0  0  0  0  0  0  0  0
  187.9990  175.3320  136.9630 C   0  0  0  0  0  0  0  0  0  0  0  0
  187.4360  171.5350  136.2340 C   0  0  0  0  0  1  0  0  0  0  0  0
  184.9370  175.5180  135.1360 O   0  0  0  0  0  0  0  0  0  0  0  0
  182.5330  177.0990  138.4180 C   0  0  0  0  0  0  0  0  0  0  0  0
  183.7600  177.0520  136.5350 C   0  0  0  0  0  0  0  0  0  0  0  0
  182.2970  177.0000  139.8890 C   0  0  0  0  0  1  0  0  0  0  0  0
  181.5370  177.4080  137.4970 C   0  0  0  0  0  0  0  0  0  0  0  0
  182.2220  177.4260  135.9610 S   0  0  0  0  0  0  0  0  0  0  0  0
  180.1050  177.6810  137.7970 C   0  0  0  0  0  1  0  0  0  0  0  0
  183.7640  176.8950  137.8810 N   0  0  0  0  0  0  0  0  0  0  0  0
  1 45  1  6  0  0  0
  1 22  1  0  0  0  0
  2  8  1  0  0  0  0
  3  5  1  0  0  0  0
  4  2  1  0  0  0  0
  5  7  1  0  0  0  0
  6  2  2  0  0  0  0
  6  3  1  0  0  0  0
  8  1  1  0  0  0  0
  8  7  2  0  0  0  0
  9  3  1  0  0  0  0
 10  9  1  0  0  0  0
 11 10  1  0  0  0  0
 12 21  1  0  0  0  0
 12 11  1  0  0  0  0
 13 16  1  0  0  0  0
 15 13  1  0  0  0  0
 15 17  1  0  0  0  0
 17 14  1  0  0  0  0
 18 19  2  0  0  0  0
 19 16  1  0  0  0  0
 19 21  1  0  0  0  0
 20 16  1  0  0  0  0
 20 14  1  0  0  0  0
 23 29  1  0  0  0  0
 25 24  1  6  0  0  0
 25 28  1  0  0  0  0
 26 23  1  0  0  0  0
 26 25  1  0  0  0  0
 27 28  1  0  0  0  0
 28 30  1  0  0  0  0
 29 22  1  6  0  0  0
 29 27  1  0  0  0  0
 30 32  1  0  0  0  0
 32 31  2  1  0  0  0
 33 32  1  0  0  0  0
 34 42  1  1  0  0  0
 34 35  1  0  0  0  0
 34 41  1  0  0  0  0
 35 33  1  6  0  0  0
 35 36  1  0  0  0  0
 36 40  1  1  0  0  0
 36 39  1  0  0  0  0
 37 39  1  0  0  0  0
 37 38  1  1  0  0  0
 39 40  1  1  0  0  0
 41 37  1  0  0  0  0
 44 43  1  0  0  0  0
 44 42  1  0  0  0  0
 45 46  1  0  0  0  0
 47 57  1  0  0  0  0
 47 54  1  0  0  0  0
 48 47  2  0  0  0  0
 49 48  1  1  0  0  0
 49 50  1  0  0  0  0
 50 55  1  0  0  0  0
 50 56  2  0  0  0  0
 53 55  1  0  0  0  0
 53 60  1  1  0  0  0
 54 56  1  0  0  0  0
 54 51  2  0  0  0  0
 55 52  2  0  0  0  0
 56 46  1  0  0  0  0
 58 49  1  0  0  0  0
 58 53  1  0  0  0  0
 59 61  1  0  0  0  0
 60 65  2  0  0  0  0
 62 64  1  0  0  0  0
 62 59  2  0  0  0  0
 63 60  1  0  0  0  0
 63 62  1  0  0  0  0
 65 59  1  0  0  0  0
M  END
>  <MODEL>
9

>  <REMARK>
 VINA RESULT:      -3.4      2.792      5.836
  Name = 
  18 active torsions:
  status: ('A' for Active; 'I' for Inactive)
    1  A    between atoms: C_1  and  O_34
    2  A    between atoms: C_2  and  S_30
    3  A    between atoms: C_2  and  N_46
    4  A    between atoms: C_3  and  C_41
    5  A    between atoms: C_3  and  O_47
    6  A    between atoms: C_10  and  C_40
    7  A    between atoms: C_13  and  C_28
    8  A    between atoms: C_13  and  C_59
    9  A    between atoms: N_15  and  C_41
   10  A    between atoms: C_20  and  C_52
   11  A    between atoms: C_25  and  O_47
   12  A    between atoms: C_25  and  N_63
   13  A    between atoms: C_28  and  C_32
   14  A    between atoms: C_28  and  C_65
   15  A    between atoms: S_30  and  C_52
   16  A    between atoms: C_32  and  C_62
   17  A    between atoms: O_34  and  C_36
   18  A    between atoms: C_56  and  C_59
                            x       y       z     vdW  Elec       q    Type
                         _______ _______ _______ _____ _____    ______ ____

>  <TORSDO>
F 18

$$$$
