=
 OpenBabel10222416373D

 32 37  0  0  1  0  0  0  0  0999 V2000
  186.2020  178.3750  142.3910 C   0  0  0  0  0  3  0  0  0  0  0  0
  188.7670  177.1320  146.6010 C   0  0  0  0  0  3  0  0  0  0  0  0
  184.6930  178.6420  145.5780 C   0  0  0  0  0  0  0  0  0  0  0  0
  191.0120  176.4470  145.5380 C   0  0  2  0  0  3  0  0  0  0  0  0
  189.1930  177.1820  144.2560 N   0  0  0  0  0  0  0  0  0  0  0  0
  185.3580  178.5840  143.4760 C   0  0  0  0  0  0  0  0  0  0  0  0
  187.4720  177.6040  146.3610 C   0  0  0  0  0  3  0  0  0  0  0  0
  187.5060  177.9030  142.6270 C   0  0  0  0  0  0  0  0  0  0  0  0
  187.9390  177.6410  143.9610 C   0  0  0  0  0  0  0  0  0  0  0  0
  184.6650  178.5360  146.9970 N   0  0  0  0  0  1  0  0  0  0  0  0
  191.3710  176.4280  144.0390 C   0  0  0  0  0  2  0  0  0  0  0  0
  187.0450  177.8640  145.0480 C   0  0  0  0  0  0  0  0  0  0  0  0
  184.0530  179.0400  143.4670 C   0  0  0  0  0  3  0  0  0  0  0  0
  185.7600  178.3370  144.7620 C   0  0  0  0  0  0  0  0  0  0  0  0
  189.6060  176.9340  145.5080 C   0  0  0  0  0  0  0  0  0  0  0  0
  190.2020  176.9030  143.3770 O   0  0  0  0  0  0  0  0  0  0  0  0
  183.6340  179.0770  144.7970 C   0  0  0  0  0  3  0  0  0  0  0  0
  191.8180  177.3780  146.1970 O   0  0  0  0  0  0  0  0  0  0  0  0
  191.8660  176.9440  147.4780 N   0  0  0  0  0  2  0  0  0  0  0  0
  192.4540  175.6170  147.4490 C   0  0  0  0  0  1  0  0  0  0  0  0
  188.3790  177.6630  141.4400 C   0  0  0  0  0  2  0  0  0  0  0  0
  187.7480  178.2670  140.1980 C   0  0  0  0  0  2  0  0  0  0  0  0
  188.7870  178.7130  139.2880 N   0  0  0  0  0  2  0  0  0  0  0  0
  189.9310  177.8310  139.4750 C   0  0  0  0  0  2  0  0  0  0  0  0
  190.5780  175.7000  138.2880 C   0  0  0  0  0  2  0  0  0  0  0  0
  188.2030  175.1440  135.1920 S   0  0  0  0  0  0  0  0  0  0  0  0
  189.1530  177.5640  136.8090 S   0  0  0  0  0  0  0  0  0  0  0  0
  190.3670  177.2130  138.1520 C   0  0  1  0  0  3  0  0  0  0  0  0
  189.7700  173.6700  136.9280 C   0  0  0  0  0  2  0  0  0  0  0  0
  188.7830  175.8020  136.7630 C   0  0  2  0  0  3  0  0  0  0  0  0
  190.0810  175.1360  136.9890 C   0  0  1  0  0  3  0  0  0  0  0  0
  188.8960  173.5090  135.6810 C   0  0  0  0  0  2  0  0  0  0  0  0
  1  8  1  0  0  0  0
  1  6  2  0  0  0  0
  3 10  1  0  0  0  0
  4 18  1  1  0  0  0
  5 15  1  0  0  0  0
  6 14  1  0  0  0  0
  7  2  1  0  0  0  0
  8  9  2  0  0  0  0
  9  5  1  0  0  0  0
  9 12  1  0  0  0  0
 11  4  1  0  0  0  0
 12  7  2  0  0  0  0
 13  6  1  0  0  0  0
 13 17  2  0  0  0  0
 14 12  1  0  0  0  0
 14  3  2  0  0  0  0
 15  4  1  0  0  0  0
 15  2  2  0  0  0  0
 16 11  1  0  0  0  0
 16  5  1  0  0  0  0
 17  3  1  0  0  0  0
 18 19  1  0  0  0  0
 20 19  1  0  0  0  0
 21  8  1  0  0  0  0
 22 21  1  0  0  0  0
 23 24  1  0  0  0  0
 23 22  1  0  0  0  0
 26 32  1  0  0  0  0
 27 28  1  0  0  0  0
 28 25  1  0  0  0  0
 28 24  1  1  0  0  0
 30 26  1  6  0  0  0
 30 27  1  0  0  0  0
 30 31  1  0  0  0  0
 31 29  1  1  0  0  0
 31 25  1  0  0  0  0
 32 29  1  0  0  0  0
M  END
>  <MODEL>
1

>  <REMARK>
 VINA RESULT:      -9.9      0.000      0.000
  Name = 
  7 active torsions:
  status: ('A' for Active; 'I' for Inactive)
    1  A    between atoms: O_3  and  N_4
    2  A    between atoms: O_3  and  C_12
    3  A    between atoms: C_5  and  C_16
    4  A    between atoms: C_5  and  C_28
    5  A    between atoms: C_8  and  C_25
    6  A    between atoms: N_20  and  C_25
    7  A    between atoms: N_20  and  C_28
                            x       y       z     vdW  Elec       q    Type
                         _______ _______ _______ _____ _____    ______ ____

>  <TORSDO>
F 7

$$$$
=
 OpenBabel10222416373D

 32 37  0  0  1  0  0  0  0  0999 V2000
  186.2930  178.3070  142.4200 C   0  0  0  0  0  3  0  0  0  0  0  0
  188.7690  177.1320  146.7030 C   0  0  0  0  0  3  0  0  0  0  0  0
  184.7190  178.6290  145.5710 C   0  0  0  0  0  0  0  0  0  0  0  0
  191.0350  176.4280  145.6970 C   0  0  2  0  0  3  0  0  0  0  0  0
  189.2430  177.1430  144.3660 N   0  0  0  0  0  0  0  0  0  0  0  0
  185.4260  178.5350  143.4840 C   0  0  0  0  0  0  0  0  0  0  0  0
  187.4800  177.6010  146.4280 C   0  0  0  0  0  3  0  0  0  0  0  0
  187.5910  177.8380  142.6910 C   0  0  0  0  0  0  0  0  0  0  0  0
  187.9960  177.5980  144.0380 C   0  0  0  0  0  0  0  0  0  0  0  0
  184.6620  178.5460  146.9910 N   0  0  0  0  0  1  0  0  0  0  0  0
  191.4250  176.3840  144.2060 C   0  0  0  0  0  2  0  0  0  0  0  0
  187.0800  177.8400  145.1020 C   0  0  0  0  0  0  0  0  0  0  0  0
  184.1230  178.9910  143.4410 C   0  0  0  0  0  3  0  0  0  0  0  0
  185.8020  178.3090  144.7820 C   0  0  0  0  0  0  0  0  0  0  0  0
  189.6300  176.9160  145.6300 C   0  0  0  0  0  0  0  0  0  0  0  0
  190.2700  176.8490  143.5130 O   0  0  0  0  0  0  0  0  0  0  0  0
  183.6770  179.0510  144.7610 C   0  0  0  0  0  3  0  0  0  0  0  0
  191.8280  177.3690  146.3570 O   0  0  0  0  0  0  0  0  0  0  0  0
  191.9050  176.9200  147.6310 N   0  0  0  0  0  2  0  0  0  0  0  0
  192.4890  175.5920  147.5720 C   0  0  0  0  0  1  0  0  0  0  0  0
  188.4880  177.5780  141.5260 C   0  0  0  0  0  2  0  0  0  0  0  0
  188.0040  178.3500  140.3120 C   0  0  0  0  0  2  0  0  0  0  0  0
  189.0580  178.4090  139.3160 N   0  0  0  0  0  2  0  0  0  0  0  0
  189.7970  177.1570  139.3980 C   0  0  0  0  0  2  0  0  0  0  0  0
  192.0240  176.4550  138.4390 C   0  0  0  0  0  2  0  0  0  0  0  0
  191.5150  173.3530  136.0610 S   0  0  0  0  0  0  0  0  0  0  0  0
  189.7630  175.6650  137.0410 S   0  0  0  0  0  0  0  0  0  0  0  0
  190.5930  176.9070  138.1230 C   0  0  1  0  0  3  0  0  0  0  0  0
  193.4890  174.5050  137.6180 C   0  0  0  0  0  2  0  0  0  0  0  0
  191.1500  174.5570  137.3470 C   0  0  2  0  0  3  0  0  0  0  0  0
  192.3350  175.4350  137.3830 C   0  0  1  0  0  3  0  0  0  0  0  0
  193.2670  173.3540  136.6320 C   0  0  0  0  0  2  0  0  0  0  0  0
  1  8  1  0  0  0  0
  1  6  2  0  0  0  0
  3 10  1  0  0  0  0
  4 18  1  1  0  0  0
  5 15  1  0  0  0  0
  6 14  1  0  0  0  0
  7  2  1  0  0  0  0
  8  9  2  0  0  0  0
  9  5  1  0  0  0  0
  9 12  1  0  0  0  0
 11  4  1  0  0  0  0
 12  7  2  0  0  0  0
 13  6  1  0  0  0  0
 13 17  2  0  0  0  0
 14 12  1  0  0  0  0
 14  3  2  0  0  0  0
 15  4  1  0  0  0  0
 15  2  2  0  0  0  0
 16 11  1  0  0  0  0
 16  5  1  0  0  0  0
 17  3  1  0  0  0  0
 18 19  1  0  0  0  0
 20 19  1  0  0  0  0
 21  8  1  0  0  0  0
 22 21  1  0  0  0  0
 23 24  1  0  0  0  0
 23 22  1  0  0  0  0
 26 32  1  0  0  0  0
 27 30  1  0  0  0  0
 27 28  1  0  0  0  0
 28 25  1  0  0  0  0
 28 24  1  1  0  0  0
 30 26  1  6  0  0  0
 30 31  1  0  0  0  0
 31 29  1  1  0  0  0
 31 25  1  0  0  0  0
 32 29  1  0  0  0  0
M  END
>  <MODEL>
2

>  <REMARK>
 VINA RESULT:      -9.9      1.264      1.486
  Name = 
  7 active torsions:
  status: ('A' for Active; 'I' for Inactive)
    1  A    between atoms: O_3  and  N_4
    2  A    between atoms: O_3  and  C_12
    3  A    between atoms: C_5  and  C_16
    4  A    between atoms: C_5  and  C_28
    5  A    between atoms: C_8  and  C_25
    6  A    between atoms: N_20  and  C_25
    7  A    between atoms: N_20  and  C_28
                            x       y       z     vdW  Elec       q    Type
                         _______ _______ _______ _____ _____    ______ ____

>  <TORSDO>
F 7

$$$$
=
 OpenBabel10222416373D

 32 37  0  0  1  0  0  0  0  0999 V2000
  187.6050  177.5200  143.0270 C   0  0  0  0  0  3  0  0  0  0  0  0
  188.9700  177.2010  147.9150 C   0  0  0  0  0  3  0  0  0  0  0  0
  185.3870  178.5120  145.5980 C   0  0  0  0  0  0  0  0  0  0  0  0
  191.3520  176.2610  147.6250 C   0  0  2  0  0  3  0  0  0  0  0  0
  189.9570  176.7230  145.7990 N   0  0  0  0  0  0  0  0  0  0  0  0
  186.5380  177.9780  143.7940 C   0  0  0  0  0  0  0  0  0  0  0  0
  187.8090  177.6280  147.2610 C   0  0  0  0  0  3  0  0  0  0  0  0
  188.7750  177.0910  143.6810 C   0  0  0  0  0  0  0  0  0  0  0  0
  188.8490  177.1250  145.1050 C   0  0  0  0  0  0  0  0  0  0  0  0
  185.0070  178.7240  146.9530 N   0  0  0  0  0  1  0  0  0  0  0  0
  192.0630  175.9040  146.3050 C   0  0  0  0  0  2  0  0  0  0  0  0
  187.7350  177.5980  145.8570 C   0  0  0  0  0  0  0  0  0  0  0  0
  185.3110  178.4410  143.3590 C   0  0  0  0  0  3  0  0  0  0  0  0
  186.5960  178.0170  145.1620 C   0  0  0  0  0  0  0  0  0  0  0  0
  190.0340  176.7520  147.1370 C   0  0  0  0  0  0  0  0  0  0  0  0
  191.1280  176.2390  145.2830 O   0  0  0  0  0  0  0  0  0  0  0  0
  184.5850  178.7790  144.5000 C   0  0  0  0  0  3  0  0  0  0  0  0
  192.0370  177.3020  148.2550 O   0  0  0  0  0  0  0  0  0  0  0  0
  193.0980  176.7050  148.8460 N   0  0  0  0  0  2  0  0  0  0  0  0
  193.4600  177.5290  149.9850 C   0  0  0  0  0  1  0  0  0  0  0  0
  189.8910  176.5800  142.8320 C   0  0  0  0  0  2  0  0  0  0  0  0
  190.6770  177.7400  142.2500 C   0  0  0  0  0  2  0  0  0  0  0  0
  191.3780  177.3080  141.0540 N   0  0  0  0  0  2  0  0  0  0  0  0
  190.3830  176.7330  140.1580 C   0  0  0  0  0  2  0  0  0  0  0  0
  190.3410  177.3830  137.7190 C   0  0  0  0  0  2  0  0  0  0  0  0
  186.6050  177.7770  136.5260 S   0  0  0  0  0  0  0  0  0  0  0  0
  188.0760  177.9780  139.2030 S   0  0  0  0  0  0  0  0  0  0  0  0
  189.9060  177.7620  139.1400 C   0  0  1  0  0  3  0  0  0  0  0  0
  189.0980  177.2080  135.4730 C   0  0  0  0  0  2  0  0  0  0  0  0
  187.9930  177.2660  137.5510 C   0  0  2  0  0  3  0  0  0  0  0  0
  189.1840  177.7870  136.8540 C   0  0  1  0  0  3  0  0  0  0  0  0
  187.6460  177.4400  135.0430 C   0  0  0  0  0  2  0  0  0  0  0  0
  1  8  1  0  0  0  0
  1  6  2  0  0  0  0
  3 10  1  0  0  0  0
  4 18  1  6  0  0  0
  5 15  1  0  0  0  0
  6 14  1  0  0  0  0
  7  2  1  0  0  0  0
  8  9  2  0  0  0  0
  9  5  1  0  0  0  0
  9 12  1  0  0  0  0
 11  4  1  0  0  0  0
 12  7  2  0  0  0  0
 13  6  1  0  0  0  0
 13 17  2  0  0  0  0
 14  3  2  0  0  0  0
 14 12  1  0  0  0  0
 15  4  1  0  0  0  0
 15  2  2  0  0  0  0
 16  5  1  0  0  0  0
 16 11  1  0  0  0  0
 17  3  1  0  0  0  0
 18 19  1  0  0  0  0
 19 20  1  0  0  0  0
 21  8  1  0  0  0  0
 22 21  1  0  0  0  0
 23 22  1  0  0  0  0
 24 23  1  0  0  0  0
 25 28  1  0  0  0  0
 28 27  1  0  0  0  0
 28 24  1  1  0  0  0
 30 26  1  6  0  0  0
 30 27  1  0  0  0  0
 31 29  1  6  0  0  0
 31 30  1  0  0  0  0
 31 25  1  0  0  0  0
 32 29  1  0  0  0  0
 32 26  1  0  0  0  0
M  END
>  <MODEL>
3

>  <REMARK>
 VINA RESULT:      -9.8      1.865      2.225
  Name = 
  7 active torsions:
  status: ('A' for Active; 'I' for Inactive)
    1  A    between atoms: O_3  and  N_4
    2  A    between atoms: O_3  and  C_12
    3  A    between atoms: C_5  and  C_16
    4  A    between atoms: C_5  and  C_28
    5  A    between atoms: C_8  and  C_25
    6  A    between atoms: N_20  and  C_25
    7  A    between atoms: N_20  and  C_28
                            x       y       z     vdW  Elec       q    Type
                         _______ _______ _______ _____ _____    ______ ____

>  <TORSDO>
F 7

$$$$
=
 OpenBabel10222416373D

 32 37  0  0  1  0  0  0  0  0999 V2000
  189.7230  176.9950  144.1500 C   0  0  0  0  0  3  0  0  0  0  0  0
  185.1620  178.8550  145.4130 C   0  0  0  0  0  3  0  0  0  0  0  0
  188.8760  177.5790  147.5340 C   0  0  0  0  0  0  0  0  0  0  0  0
  184.1280  179.0630  143.0610 C   0  0  2  0  0  3  0  0  0  0  0  0
  186.3020  178.2550  143.4060 N   0  0  0  0  0  0  0  0  0  0  0  0
  189.6840  177.1130  145.5360 C   0  0  0  0  0  0  0  0  0  0  0  0
  186.2900  178.4760  146.1490 C   0  0  0  0  0  3  0  0  0  0  0  0
  188.5910  177.3730  143.4060 C   0  0  0  0  0  0  0  0  0  0  0  0
  187.4320  177.8730  144.0730 C   0  0  0  0  0  0  0  0  0  0  0  0
  188.0130  177.9920  148.5880 N   0  0  0  0  0  1  0  0  0  0  0  0
  184.7920  178.7200  141.7130 C   0  0  0  0  0  2  0  0  0  0  0  0
  187.4310  177.9820  145.4940 C   0  0  0  0  0  0  0  0  0  0  0  0
  190.6750  176.8000  146.4470 C   0  0  0  0  0  3  0  0  0  0  0  0
  188.5790  177.5900  146.1900 C   0  0  0  0  0  0  0  0  0  0  0  0
  185.2100  178.7250  144.0270 C   0  0  0  0  0  0  0  0  0  0  0  0
  186.0870  178.2330  142.0560 O   0  0  0  0  0  0  0  0  0  0  0  0
  190.1630  177.0950  147.7100 C   0  0  0  0  0  3  0  0  0  0  0  0
  183.0340  178.2200  143.2670 O   0  0  0  0  0  0  0  0  0  0  0  0
  181.9970  179.0570  143.5040 N   0  0  0  0  0  2  0  0  0  0  0  0
  181.1200  178.9730  142.3500 C   0  0  0  0  0  1  0  0  0  0  0  0
  188.6730  177.2600  141.9200 C   0  0  0  0  0  2  0  0  0  0  0  0
  190.1240  177.2910  141.4740 C   0  0  0  0  0  2  0  0  0  0  0  0
  190.3200  176.3610  140.3770 N   0  0  0  0  0  2  0  0  0  0  0  0
  191.0700  177.0640  139.3450 C   0  0  0  0  0  2  0  0  0  0  0  0
  189.5510  175.8210  137.7580 C   0  0  0  0  0  2  0  0  0  0  0  0
  186.1830  177.8220  137.3220 S   0  0  0  0  0  0  0  0  0  0  0  0
  189.0620  178.5320  138.0820 S   0  0  0  0  0  0  0  0  0  0  0  0
  190.2740  177.1420  138.0480 C   0  0  1  0  0  3  0  0  0  0  0  0
  187.1270  175.2300  137.1280 C   0  0  0  0  0  2  0  0  0  0  0  0
  187.7430  177.3060  138.0540 C   0  0  2  0  0  3  0  0  0  0  0  0
  188.2370  176.2380  137.1630 C   0  0  1  0  0  3  0  0  0  0  0  0
  185.8580  176.0580  136.9010 C   0  0  0  0  0  2  0  0  0  0  0  0
  1  6  2  0  0  0  0
  2  7  1  0  0  0  0
  3 17  1  0  0  0  0
  3 10  1  0  0  0  0
  4 18  1  1  0  0  0
  4 15  1  0  0  0  0
  5 15  1  0  0  0  0
  5  9  1  0  0  0  0
  6 14  1  0  0  0  0
  6 13  1  0  0  0  0
  8  9  2  0  0  0  0
  8  1  1  0  0  0  0
  9 12  1  0  0  0  0
 11 16  1  0  0  0  0
 11  4  1  0  0  0  0
 12  7  2  0  0  0  0
 12 14  1  0  0  0  0
 13 17  2  0  0  0  0
 14  3  2  0  0  0  0
 15  2  2  0  0  0  0
 16  5  1  0  0  0  0
 18 19  1  0  0  0  0
 20 19  1  0  0  0  0
 21  8  1  0  0  0  0
 22 21  1  0  0  0  0
 23 22  1  0  0  0  0
 24 23  1  0  0  0  0
 25 28  1  0  0  0  0
 28 27  1  0  0  0  0
 28 24  1  1  0  0  0
 30 26  1  6  0  0  0
 30 27  1  0  0  0  0
 31 29  1  1  0  0  0
 31 25  1  0  0  0  0
 31 30  1  0  0  0  0
 32 29  1  0  0  0  0
 32 26  1  0  0  0  0
M  END
>  <MODEL>
4

>  <REMARK>
 VINA RESULT:      -9.3      2.418      5.123
  Name = 
  7 active torsions:
  status: ('A' for Active; 'I' for Inactive)
    1  A    between atoms: O_3  and  N_4
    2  A    between atoms: O_3  and  C_12
    3  A    between atoms: C_5  and  C_16
    4  A    between atoms: C_5  and  C_28
    5  A    between atoms: C_8  and  C_25
    6  A    between atoms: N_20  and  C_25
    7  A    between atoms: N_20  and  C_28
                            x       y       z     vdW  Elec       q    Type
                         _______ _______ _______ _____ _____    ______ ____

>  <TORSDO>
F 7

$$$$
=
 OpenBabel10222416373D

 32 37  0  0  1  0  0  0  0  0999 V2000
  189.0380  177.0290  144.1680 C   0  0  0  0  0  3  0  0  0  0  0  0
  184.7790  179.0060  146.1170 C   0  0  0  0  0  3  0  0  0  0  0  0
  188.7480  177.6460  147.6380 C   0  0  0  0  0  0  0  0  0  0  0  0
  183.3930  179.2300  143.9550 C   0  0  2  0  0  3  0  0  0  0  0  0
  185.5740  178.3710  143.9610 N   0  0  0  0  0  0  0  0  0  0  0  0
  189.2210  177.1530  145.5410 C   0  0  0  0  0  0  0  0  0  0  0  0
  185.9990  178.6020  146.6690 C   0  0  0  0  0  3  0  0  0  0  0  0
  187.8130  177.4320  143.6080 C   0  0  0  0  0  0  0  0  0  0  0  0
  186.7860  177.9620  144.4440 C   0  0  0  0  0  0  0  0  0  0  0  0
  188.0710  178.0850  148.8110 N   0  0  0  0  0  1  0  0  0  0  0  0
  183.8290  178.8660  142.5220 C   0  0  0  0  0  2  0  0  0  0  0  0
  187.0100  178.0770  145.8470 C   0  0  0  0  0  0  0  0  0  0  0  0
  190.3350  176.8190  146.2880 C   0  0  0  0  0  3  0  0  0  0  0  0
  188.2440  177.6600  146.3570 C   0  0  0  0  0  0  0  0  0  0  0  0
  184.6050  178.8700  144.7410 C   0  0  0  0  0  0  0  0  0  0  0  0
  185.1490  178.3490  142.6610 O   0  0  0  0  0  0  0  0  0  0  0  0
  190.0350  177.1310  147.6140 C   0  0  0  0  0  3  0  0  0  0  0  0
  182.3260  178.4160  144.3370 O   0  0  0  0  0  0  0  0  0  0  0  0
  181.3330  178.7240  143.4700 N   0  0  0  0  0  2  0  0  0  0  0  0
  180.0880  178.3210  144.0990 C   0  0  0  0  0  1  0  0  0  0  0  0
  187.6580  177.3110  142.1280 C   0  0  0  0  0  2  0  0  0  0  0  0
  188.3270  178.4850  141.4360 C   0  0  0  0  0  2  0  0  0  0  0  0
  187.8380  178.5940  140.0730 N   0  0  0  0  0  2  0  0  0  0  0  0
  189.0020  178.5880  139.1970 C   0  0  0  0  0  2  0  0  0  0  0  0
  189.3650  176.9820  137.2850 C   0  0  0  0  0  2  0  0  0  0  0  0
  193.0240  175.5280  137.4640 S   0  0  0  0  0  0  0  0  0  0  0  0
  191.0410  176.7050  139.4770 S   0  0  0  0  0  0  0  0  0  0  0  0
  189.3860  177.1660  138.8070 C   0  0  1  0  0  3  0  0  0  0  0  0
  191.0400  175.9980  135.5970 C   0  0  0  0  0  2  0  0  0  0  0  0
  191.6440  176.6370  137.7810 C   0  0  2  0  0  3  0  0  0  0  0  0
  190.5250  176.0710  137.0040 C   0  0  1  0  0  3  0  0  0  0  0  0
  192.4340  175.3770  135.7250 C   0  0  0  0  0  2  0  0  0  0  0  0
  1  6  2  0  0  0  0
  2  7  1  0  0  0  0
  3 10  1  0  0  0  0
  4 18  1  1  0  0  0
  4 15  1  0  0  0  0
  5  9  1  0  0  0  0
  5 15  1  0  0  0  0
  6 13  1  0  0  0  0
  6 14  1  0  0  0  0
  8  1  1  0  0  0  0
  8  9  2  0  0  0  0
  9 12  1  0  0  0  0
 11 16  1  0  0  0  0
 11  4  1  0  0  0  0
 12 14  1  0  0  0  0
 12  7  2  0  0  0  0
 13 17  2  0  0  0  0
 14  3  2  0  0  0  0
 15  2  2  0  0  0  0
 16  5  1  0  0  0  0
 17  3  1  0  0  0  0
 19 20  1  0  0  0  0
 19 18  1  0  0  0  0
 21  8  1  0  0  0  0
 22 21  1  0  0  0  0
 23 22  1  0  0  0  0
 24 23  1  0  0  0  0
 25 28  1  0  0  0  0
 28 24  1  6  0  0  0
 28 27  1  0  0  0  0
 29 32  1  0  0  0  0
 30 26  1  1  0  0  0
 30 27  1  0  0  0  0
 31 29  1  6  0  0  0
 31 25  1  0  0  0  0
 31 30  1  0  0  0  0
 32 26  1  0  0  0  0
M  END
>  <MODEL>
5

>  <REMARK>
 VINA RESULT:      -9.3      2.638      5.306
  Name = 
  7 active torsions:
  status: ('A' for Active; 'I' for Inactive)
    1  A    between atoms: O_3  and  N_4
    2  A    between atoms: O_3  and  C_12
    3  A    between atoms: C_5  and  C_16
    4  A    between atoms: C_5  and  C_28
    5  A    between atoms: C_8  and  C_25
    6  A    between atoms: N_20  and  C_25
    7  A    between atoms: N_20  and  C_28
                            x       y       z     vdW  Elec       q    Type
                         _______ _______ _______ _____ _____    ______ ____

>  <TORSDO>
F 7

$$$$
=
 OpenBabel10222416373D

 32 37  0  0  1  0  0  0  0  0999 V2000
  186.8500  177.9250  145.4440 C   0  0  0  0  0  3  0  0  0  0  0  0
  191.3570  176.7960  143.3810 C   0  0  0  0  0  3  0  0  0  0  0  0
  189.6990  177.4180  147.4780 C   0  0  0  0  0  0  0  0  0  0  0  0
  190.6920  176.8040  140.8910 C   0  0  2  0  0  3  0  0  0  0  0  0
  189.1500  177.2450  142.6000 N   0  0  0  0  0  0  0  0  0  0  0  0
  187.7660  177.7870  146.4820 C   0  0  0  0  0  0  0  0  0  0  0  0
  190.9130  176.9740  144.6950 C   0  0  0  0  0  3  0  0  0  0  0  0
  187.2920  177.7480  144.1210 C   0  0  0  0  0  0  0  0  0  0  0  0
  188.6590  177.4280  143.8620 C   0  0  0  0  0  0  0  0  0  0  0  0
  191.0720  177.1270  147.7110 N   0  0  0  0  0  1  0  0  0  0  0  0
  189.2940  177.0620  140.2960 C   0  0  0  0  0  2  0  0  0  0  0  0
  189.5680  177.2920  144.9510 C   0  0  0  0  0  0  0  0  0  0  0  0
  187.5450  177.9190  147.8400 C   0  0  0  0  0  3  0  0  0  0  0  0
  189.0810  177.4810  146.2490 C   0  0  0  0  0  0  0  0  0  0  0  0
  190.4330  176.9440  142.3490 C   0  0  0  0  0  0  0  0  0  0  0  0
  188.4610  177.3280  141.4210 O   0  0  0  0  0  0  0  0  0  0  0  0
  188.7670  177.6850  148.4680 C   0  0  0  0  0  3  0  0  0  0  0  0
  191.5680  177.8070  140.4700 O   0  0  0  0  0  0  0  0  0  0  0  0
  192.6810  177.1460  140.0730 N   0  0  0  0  0  2  0  0  0  0  0  0
  192.4560  176.7400  138.6970 C   0  0  0  0  0  1  0  0  0  0  0  0
  186.2790  177.8760  143.0320 C   0  0  0  0  0  2  0  0  0  0  0  0
  184.9300  178.2520  143.6160 C   0  0  0  0  0  2  0  0  0  0  0  0
  184.2540  179.1820  142.7290 N   0  0  0  0  0  2  0  0  0  0  0  0
  183.5140  178.3880  141.7570 C   0  0  0  0  0  2  0  0  0  0  0  0
  185.1220  178.9490  139.8950 C   0  0  0  0  0  2  0  0  0  0  0  0
  184.0080  177.1080  136.5930 S   0  0  0  0  0  0  0  0  0  0  0  0
  182.6050  178.0660  139.1390 S   0  0  0  0  0  0  0  0  0  0  0  0
  183.6600  178.9660  140.3550 C   0  0  1  0  0  3  0  0  0  0  0  0
  186.2980  178.1350  137.7550 C   0  0  0  0  0  2  0  0  0  0  0  0
  184.1140  177.4820  138.3490 C   0  0  2  0  0  3  0  0  0  0  0  0
  185.0500  178.6200  138.4320 C   0  0  1  0  0  3  0  0  0  0  0  0
  185.8070  177.4820  136.4590 C   0  0  0  0  0  2  0  0  0  0  0  0
  1  6  2  0  0  0  0
  2  7  1  0  0  0  0
  3 10  1  0  0  0  0
  3 17  1  0  0  0  0
  4 18  1  6  0  0  0
  4 15  1  0  0  0  0
  5  9  1  0  0  0  0
  6 13  1  0  0  0  0
  7 12  2  0  0  0  0
  8  1  1  0  0  0  0
  9  8  2  0  0  0  0
  9 12  1  0  0  0  0
 11  4  1  0  0  0  0
 11 16  1  0  0  0  0
 12 14  1  0  0  0  0
 13 17  2  0  0  0  0
 14  6  1  0  0  0  0
 14  3  2  0  0  0  0
 15  5  1  0  0  0  0
 15  2  2  0  0  0  0
 16  5  1  0  0  0  0
 19 18  1  0  0  0  0
 20 19  1  0  0  0  0
 21 22  1  0  0  0  0
 21  8  1  0  0  0  0
 23 22  1  0  0  0  0
 24 23  1  0  0  0  0
 25 28  1  0  0  0  0
 27 28  1  0  0  0  0
 28 24  1  1  0  0  0
 30 26  1  6  0  0  0
 30 31  1  0  0  0  0
 30 27  1  0  0  0  0
 31 29  1  1  0  0  0
 31 25  1  0  0  0  0
 32 26  1  0  0  0  0
 32 29  1  0  0  0  0
M  END
>  <MODEL>
6

>  <REMARK>
 VINA RESULT:      -9.2      2.737      5.171
  Name = 
  7 active torsions:
  status: ('A' for Active; 'I' for Inactive)
    1  A    between atoms: O_3  and  N_4
    2  A    between atoms: O_3  and  C_12
    3  A    between atoms: C_5  and  C_16
    4  A    between atoms: C_5  and  C_28
    5  A    between atoms: C_8  and  C_25
    6  A    between atoms: N_20  and  C_25
    7  A    between atoms: N_20  and  C_28
                            x       y       z     vdW  Elec       q    Type
                         _______ _______ _______ _____ _____    ______ ____

>  <TORSDO>
F 7

$$$$
=
 OpenBabel10222416373D

 32 37  0  0  1  0  0  0  0  0999 V2000
  189.4070  177.1280  144.1440 C   0  0  0  0  0  3  0  0  0  0  0  0
  184.8990  178.8140  145.7820 C   0  0  0  0  0  3  0  0  0  0  0  0
  188.7770  177.5550  147.5980 C   0  0  0  0  0  0  0  0  0  0  0  0
  183.7040  179.0860  143.5150 C   0  0  2  0  0  3  0  0  0  0  0  0
  185.9140  178.3240  143.6820 N   0  0  0  0  0  0  0  0  0  0  0  0
  189.4590  177.1900  145.5330 C   0  0  0  0  0  0  0  0  0  0  0  0
  186.0820  178.4360  146.4260 C   0  0  0  0  0  3  0  0  0  0  0  0
  188.2190  177.5040  143.4930 C   0  0  0  0  0  0  0  0  0  0  0  0
  187.0960  177.9460  144.2550 C   0  0  0  0  0  0  0  0  0  0  0  0
  187.9770  177.9030  148.7220 N   0  0  0  0  0  1  0  0  0  0  0  0
  184.2830  178.8140  142.1120 C   0  0  0  0  0  2  0  0  0  0  0  0
  187.1880  177.9990  145.6760 C   0  0  0  0  0  0  0  0  0  0  0  0
  190.5160  176.8680  146.3630 C   0  0  0  0  0  3  0  0  0  0  0  0
  188.3900  177.6110  146.2780 C   0  0  0  0  0  0  0  0  0  0  0  0
  184.8550  178.7400  144.3920 C   0  0  0  0  0  0  0  0  0  0  0  0
  185.6090  178.3500  142.3490 O   0  0  0  0  0  0  0  0  0  0  0  0
  190.0840  177.0990  147.6680 C   0  0  0  0  0  3  0  0  0  0  0  0
  182.6460  178.2070  143.7590 O   0  0  0  0  0  0  0  0  0  0  0  0
  181.5570  179.0020  143.8640 N   0  0  0  0  0  2  0  0  0  0  0  0
  180.6430  178.6020  142.8100 C   0  0  0  0  0  1  0  0  0  0  0  0
  188.2030  177.4520  142.0010 C   0  0  0  0  0  2  0  0  0  0  0  0
  189.5270  176.9200  141.4830 C   0  0  0  0  0  2  0  0  0  0  0  0
  189.8580  177.5680  140.2270 N   0  0  0  0  0  2  0  0  0  0  0  0
  188.6550  178.2440  139.7610 C   0  0  0  0  0  2  0  0  0  0  0  0
  189.8120  177.6250  137.6050 C   0  0  0  0  0  2  0  0  0  0  0  0
  187.1780  176.1400  135.0770 S   0  0  0  0  0  0  0  0  0  0  0  0
  187.0740  178.0440  137.4720 S   0  0  0  0  0  0  0  0  0  0  0  0
  188.6940  178.4520  138.2520 C   0  0  1  0  0  3  0  0  0  0  0  0
  189.8920  176.0190  135.5960 C   0  0  0  0  0  2  0  0  0  0  0  0
  187.8850  176.6640  136.6460 C   0  0  2  0  0  3  0  0  0  0  0  0
  189.2290  177.1660  136.3010 C   0  0  1  0  0  3  0  0  0  0  0  0
  188.8450  175.5220  134.5940 C   0  0  0  0  0  2  0  0  0  0  0  0
  1  6  2  0  0  0  0
  2  7  1  0  0  0  0
  3 17  1  0  0  0  0
  3 10  1  0  0  0  0
  4 18  1  1  0  0  0
  4 15  1  0  0  0  0
  5  9  1  0  0  0  0
  5 15  1  0  0  0  0
  6 14  1  0  0  0  0
  6 13  1  0  0  0  0
  8  1  1  0  0  0  0
  8  9  2  0  0  0  0
  9 12  1  0  0  0  0
 11 16  1  0  0  0  0
 11  4  1  0  0  0  0
 12 14  1  0  0  0  0
 12  7  2  0  0  0  0
 13 17  2  0  0  0  0
 14  3  2  0  0  0  0
 15  2  2  0  0  0  0
 16  5  1  0  0  0  0
 18 19  1  0  0  0  0
 20 19  1  0  0  0  0
 21  8  1  0  0  0  0
 22 21  1  0  0  0  0
 23 22  1  0  0  0  0
 24 23  1  0  0  0  0
 25 28  1  0  0  0  0
 27 28  1  0  0  0  0
 28 24  1  1  0  0  0
 30 26  1  6  0  0  0
 30 27  1  0  0  0  0
 31 29  1  1  0  0  0
 31 30  1  0  0  0  0
 31 25  1  0  0  0  0
 32 26  1  0  0  0  0
 32 29  1  0  0  0  0
M  END
>  <MODEL>
7

>  <REMARK>
 VINA RESULT:      -9.1      2.410      5.112
  Name = 
  7 active torsions:
  status: ('A' for Active; 'I' for Inactive)
    1  A    between atoms: O_3  and  N_4
    2  A    between atoms: O_3  and  C_12
    3  A    between atoms: C_5  and  C_16
    4  A    between atoms: C_5  and  C_28
    5  A    between atoms: C_8  and  C_25
    6  A    between atoms: N_20  and  C_25
    7  A    between atoms: N_20  and  C_28
                            x       y       z     vdW  Elec       q    Type
                         _______ _______ _______ _____ _____    ______ ____

>  <TORSDO>
F 7

$$$$
=
 OpenBabel10222416373D

 32 37  0  0  1  0  0  0  0  0999 V2000
  187.3090  177.7500  146.0170 C   0  0  0  0  0  3  0  0  0  0  0  0
  190.0880  177.2490  141.7880 C   0  0  0  0  0  3  0  0  0  0  0  0
  190.6970  176.7480  146.1820 C   0  0  0  0  0  0  0  0  0  0  0  0
  188.3140  177.9100  140.0400 C   0  0  2  0  0  3  0  0  0  0  0  0
  187.8530  177.8690  142.3370 N   0  0  0  0  0  0  0  0  0  0  0  0
  188.5870  177.3500  146.3960 C   0  0  0  0  0  0  0  0  0  0  0  0
  190.3570  177.0690  143.1490 C   0  0  0  0  0  3  0  0  0  0  0  0
  187.0350  177.9340  144.6490 C   0  0  0  0  0  0  0  0  0  0  0  0
  188.0560  177.7060  143.6800 C   0  0  0  0  0  0  0  0  0  0  0  0
  191.9660  176.4180  145.6270 N   0  0  0  0  0  1  0  0  0  0  0  0
  186.8460  178.3040  140.2980 C   0  0  0  0  0  2  0  0  0  0  0  0
  189.3520  177.2950  144.1060 C   0  0  0  0  0  0  0  0  0  0  0  0
  189.0640  177.1160  147.6720 C   0  0  0  0  0  3  0  0  0  0  0  0
  189.5770  177.1290  145.4770 C   0  0  0  0  0  0  0  0  0  0  0  0
  188.8080  177.6560  141.4210 C   0  0  0  0  0  0  0  0  0  0  0  0
  186.6980  178.2550  141.7140 O   0  0  0  0  0  0  0  0  0  0  0  0
  190.3980  176.7350  147.5350 C   0  0  0  0  0  3  0  0  0  0  0  0
  188.9960  178.9960  139.4880 O   0  0  0  0  0  0  0  0  0  0  0  0
  188.6540  178.9870  138.1790 N   0  0  0  0  0  2  0  0  0  0  0  0
  189.0160  177.6800  137.6620 C   0  0  0  0  0  1  0  0  0  0  0  0
  185.6480  178.3370  144.2720 C   0  0  0  0  0  2  0  0  0  0  0  0
  184.9780  179.0510  145.4330 C   0  0  0  0  0  2  0  0  0  0  0  0
  183.6000  179.3560  145.0910 N   0  0  0  0  0  2  0  0  0  0  0  0
  183.2030  178.4320  144.0380 C   0  0  0  0  0  2  0  0  0  0  0  0
  182.7630  178.6240  141.5600 C   0  0  0  0  0  2  0  0  0  0  0  0
  178.9320  178.0230  140.8530 S   0  0  0  0  0  0  0  0  0  0  0  0
  180.5880  178.9860  143.2410 S   0  0  0  0  0  0  0  0  0  0  0  0
  182.4020  179.1470  142.9560 C   0  0  1  0  0  3  0  0  0  0  0  0
  181.3660  177.8080  139.5590 C   0  0  0  0  0  2  0  0  0  0  0  0
  180.4970  177.9960  141.7390 C   0  0  2  0  0  3  0  0  0  0  0  0
  181.4600  178.6240  140.8140 C   0  0  1  0  0  3  0  0  0  0  0  0
  179.8630  177.6560  139.3060 C   0  0  0  0  0  2  0  0  0  0  0  0
  1  6  2  0  0  0  0
  2  7  1  0  0  0  0
  3 17  1  0  0  0  0
  4 18  1  1  0  0  0
  4 11  1  0  0  0  0
  4 15  1  0  0  0  0
  5  9  1  0  0  0  0
  6 13  1  0  0  0  0
  7 12  2  0  0  0  0
  8  1  1  0  0  0  0
  9 12  1  0  0  0  0
  9  8  2  0  0  0  0
 10  3  1  0  0  0  0
 11 16  1  0  0  0  0
 12 14  1  0  0  0  0
 14  3  2  0  0  0  0
 14  6  1  0  0  0  0
 15  2  2  0  0  0  0
 15  5  1  0  0  0  0
 16  5  1  0  0  0  0
 17 13  2  0  0  0  0
 19 18  1  0  0  0  0
 20 19  1  0  0  0  0
 21  8  1  0  0  0  0
 21 22  1  0  0  0  0
 23 22  1  0  0  0  0
 24 23  1  0  0  0  0
 25 28  1  0  0  0  0
 28 27  1  0  0  0  0
 28 24  1  1  0  0  0
 30 26  1  6  0  0  0
 30 27  1  0  0  0  0
 31 29  1  6  0  0  0
 31 25  1  0  0  0  0
 31 30  1  0  0  0  0
 32 29  1  0  0  0  0
 32 26  1  0  0  0  0
M  END
>  <MODEL>
8

>  <REMARK>
 VINA RESULT:      -9.0      3.584      7.282
  Name = 
  7 active torsions:
  status: ('A' for Active; 'I' for Inactive)
    1  A    between atoms: O_3  and  N_4
    2  A    between atoms: O_3  and  C_12
    3  A    between atoms: C_5  and  C_16
    4  A    between atoms: C_5  and  C_28
    5  A    between atoms: C_8  and  C_25
    6  A    between atoms: N_20  and  C_25
    7  A    between atoms: N_20  and  C_28
                            x       y       z     vdW  Elec       q    Type
                         _______ _______ _______ _____ _____    ______ ____

>  <TORSDO>
F 7

$$$$
=
 OpenBabel10222416373D

 32 37  0  0  1  0  0  0  0  0999 V2000
  188.4670  177.5560  143.9240 C   0  0  0  0  0  3  0  0  0  0  0  0
  183.6380  179.0170  143.2940 C   0  0  0  0  0  3  0  0  0  0  0  0
  186.3910  178.2070  146.7130 C   0  0  0  0  0  0  0  0  0  0  0  0
  183.5320  179.0160  140.7190 C   0  0  2  0  0  3  0  0  0  0  0  0
  185.4780  178.4410  141.8920 N   0  0  0  0  0  0  0  0  0  0  0  0
  187.9120  177.7320  145.1870 C   0  0  0  0  0  0  0  0  0  0  0  0
  184.4400  178.7840  144.4170 C   0  0  0  0  0  3  0  0  0  0  0  0
  187.6650  177.7870  142.7920 C   0  0  0  0  0  0  0  0  0  0  0  0
  186.3090  178.2010  142.9520 C   0  0  0  0  0  0  0  0  0  0  0  0
  185.1720  178.5820  147.3450 N   0  0  0  0  0  1  0  0  0  0  0  0
  184.6700  178.6790  139.7350 C   0  0  0  0  0  2  0  0  0  0  0  0
  185.7750  178.3740  144.2620 C   0  0  0  0  0  0  0  0  0  0  0  0
  188.5170  177.5590  146.4180 C   0  0  0  0  0  3  0  0  0  0  0  0
  186.6110  178.1280  145.3560 C   0  0  0  0  0  0  0  0  0  0  0  0
  184.2030  178.8300  142.0350 C   0  0  0  0  0  0  0  0  0  0  0  0
  185.7790  178.3370  140.5620 O   0  0  0  0  0  0  0  0  0  0  0  0
  187.5540  177.8590  147.3820 C   0  0  0  0  0  3  0  0  0  0  0  0
  182.5050  178.0810  140.5790 O   0  0  0  0  0  0  0  0  0  0  0  0
  181.3740  178.8210  140.5130 N   0  0  0  0  0  2  0  0  0  0  0  0
  180.3070  178.0040  141.0630 C   0  0  0  0  0  1  0  0  0  0  0  0
  188.2980  177.6160  141.4510 C   0  0  0  0  0  2  0  0  0  0  0  0
  189.7670  177.2670  141.6080 C   0  0  0  0  0  2  0  0  0  0  0  0
  190.1810  176.3900  140.5280 N   0  0  0  0  0  2  0  0  0  0  0  0
  190.9880  177.1850  139.6140 C   0  0  0  0  0  2  0  0  0  0  0  0
  189.8400  175.7290  137.9030 C   0  0  0  0  0  2  0  0  0  0  0  0
  186.5290  177.4880  136.6860 S   0  0  0  0  0  0  0  0  0  0  0  0
  189.1880  178.4240  137.8800 S   0  0  0  0  0  0  0  0  0  0  0  0
  190.4420  177.1090  138.1930 C   0  0  1  0  0  3  0  0  0  0  0  0
  187.5990  174.9480  136.9060 C   0  0  0  0  0  2  0  0  0  0  0  0
  187.9480  177.1260  137.7300 C   0  0  2  0  0  3  0  0  0  0  0  0
  188.6420  176.0180  137.0460 C   0  0  1  0  0  3  0  0  0  0  0  0
  186.3610  175.6790  136.3790 C   0  0  0  0  0  2  0  0  0  0  0  0
  1  6  2  0  0  0  0
  2  7  1  0  0  0  0
  3 10  1  0  0  0  0
  3 17  1  0  0  0  0
  4 18  1  1  0  0  0
  4 15  1  0  0  0  0
  5 15  1  0  0  0  0
  5  9  1  0  0  0  0
  6 14  1  0  0  0  0
  6 13  1  0  0  0  0
  8  9  2  0  0  0  0
  8  1  1  0  0  0  0
  9 12  1  0  0  0  0
 11 16  1  0  0  0  0
 11  4  1  0  0  0  0
 12  7  2  0  0  0  0
 12 14  1  0  0  0  0
 13 17  2  0  0  0  0
 14  3  2  0  0  0  0
 15  2  2  0  0  0  0
 16  5  1  0  0  0  0
 19 18  1  0  0  0  0
 19 20  1  0  0  0  0
 21 22  1  0  0  0  0
 21  8  1  0  0  0  0
 23 22  1  0  0  0  0
 24 23  1  0  0  0  0
 25 28  1  0  0  0  0
 27 28  1  0  0  0  0
 28 24  1  1  0  0  0
 30 26  1  6  0  0  0
 30 27  1  0  0  0  0
 31 29  1  1  0  0  0
 31 30  1  0  0  0  0
 31 25  1  0  0  0  0
 32 26  1  0  0  0  0
 32 29  1  0  0  0  0
M  END
>  <MODEL>
9

>  <REMARK>
 VINA RESULT:      -9.0      2.792      5.361
  Name = 
  7 active torsions:
  status: ('A' for Active; 'I' for Inactive)
    1  A    between atoms: O_3  and  N_4
    2  A    between atoms: O_3  and  C_12
    3  A    between atoms: C_5  and  C_16
    4  A    between atoms: C_5  and  C_28
    5  A    between atoms: C_8  and  C_25
    6  A    between atoms: N_20  and  C_25
    7  A    between atoms: N_20  and  C_28
                            x       y       z     vdW  Elec       q    Type
                         _______ _______ _______ _____ _____    ______ ____

>  <TORSDO>
F 7

$$$$
