=
 OpenBabel10222418123D

 45 48  0  0  1  0  0  0  0  0999 V2000
  185.5210  178.6230  140.3160 C   0  0  0  0  0  0  0  0  0  0  0  0
  182.9360  177.8260  137.8490 N   0  0  0  0  0  0  0  0  0  0  0  0
  188.3280  177.0420  137.3860 C   0  0  1  0  0  3  0  0  0  0  0  0
  189.1590  177.6880  139.6920 C   0  0  0  0  0  0  0  0  0  0  0  0
  184.7770  179.1990  141.3490 C   0  0  0  0  0  3  0  0  0  0  0  0
  183.6120  174.3920  136.3190 O   0  0  0  0  0  0  0  0  0  0  0  0
  189.7760  177.9590  140.8440 C   0  0  0  0  0  3  0  0  0  0  0  0
  187.3310  177.5930  138.2970 N   0  0  0  0  0  0  0  0  0  0  0  0
  183.4300  179.3250  141.2120 N   0  0  0  0  0  0  0  0  0  0  0  0
  186.6710  172.6250  137.3030 C   0  0  0  0  0  2  0  0  0  0  0  0
  181.1900  177.0720  136.2720 N   0  0  0  0  0  0  0  0  0  0  0  0
  184.8750  178.2080  139.1950 N   0  0  0  0  0  0  0  0  0  0  0  0
  182.5440  175.1220  136.8470 C   0  0  0  0  0  0  0  0  0  0  0  0
  185.8160  173.4100  136.6480 C   0  0  0  0  0  0  0  0  0  0  0  0
  187.7510  177.9230  139.4710 C   0  0  0  0  0  0  0  0  0  0  0  0
  182.2950  175.0810  138.0840 O   0  0  0  0  0  0  0  0  0  0  0  0
  189.9420  176.9630  138.2600 S   0  0  0  0  0  0  0  0  0  0  0  0
  183.5340  178.3350  139.0440 C   0  0  0  0  0  0  0  0  0  0  0  0
  182.7900  178.9010  140.0880 C   0  0  0  0  0  2  0  0  0  0  0  0
  181.6750  175.9030  135.9440 C   0  0  0  0  0  0  0  0  0  0  0  0
  186.6060  175.6870  136.2980 N   0  0  0  0  0  2  0  0  0  0  0  0
  184.3880  173.5140  137.1310 C   0  0  2  0  0  3  0  0  0  0  0  0
  186.9080  178.4650  140.4550 O   0  0  0  0  0  0  0  0  0  0  0  0
  181.5670  177.8540  137.4150 C   0  0  0  0  0  0  0  0  0  0  0  0
  187.9170  175.6480  136.9340 C   0  0  0  0  0  2  0  0  0  0  0  0
  186.3750  174.3960  135.6640 C   0  0  0  0  0  2  0  0  0  0  0  0
  180.5420  179.0240  137.9230 S   0  0  0  0  0  0  0  0  0  0  0  0
  180.5720  174.1570  134.5940 C   0  0  0  0  0  1  0  0  0  0  0  0
  181.3530  175.3370  134.7090 O   0  0  0  0  0  0  0  0  0  0  0  0
  183.3600  171.5810  135.8630 C   0  0  0  0  0  1  0  0  0  0  0  0
  183.7050  172.1470  137.2320 C   0  0  0  0  0  2  0  0  0  0  0  0
  191.2340  177.7120  141.0690 C   0  0  0  0  0  2  0  0  0  0  0  0
  190.5810  177.7470  143.4430 C   0  0  0  0  0  3  0  0  0  0  0  0
  191.5330  177.5670  142.5280 C   0  0  0  0  0  3  0  0  0  0  0  0
  191.6930  176.3430  145.1360 C   0  0  0  0  0  2  0  0  0  0  0  0
  190.7050  176.1530  147.4280 C   0  0  0  0  0  2  0  0  0  0  0  0
  189.5940  177.5800  145.7060 C   0  0  0  0  0  2  0  0  0  0  0  0
  190.8910  177.6200  144.8980 C   0  0  2  0  0  3  0  0  0  0  0  0
  192.0010  176.1860  146.6240 C   0  0  0  0  0  2  0  0  0  0  0  0
  189.9020  177.4360  147.1990 C   0  0  1  0  0  3  0  0  0  0  0  0
  188.6070  177.4090  148.0150 C   0  0  1  0  0  3  0  0  0  0  0  0
  188.6870  178.3080  149.0820 O   0  0  0  0  0  1  0  0  0  0  0  0
  187.0280  176.9770  146.3030 O   0  0  0  0  0  0  0  0  0  0  0  0
  187.4130  177.7460  147.1710 C   0  0  0  0  0  0  0  0  0  0  0  0
  186.6900  179.0290  147.3950 C   0  0  0  0  0  1  0  0  0  0  0  0
  1 23  1  0  0  0  0
  1  5  1  0  0  0  0
  2 18  2  0  0  0  0
  3 25  1  1  0  0  0
  3 17  1  0  0  0  0
  3  8  1  0  0  0  0
  4  7  2  0  0  0  0
  6 13  1  0  0  0  0
  6 22  1  0  0  0  0
  7 32  1  0  0  0  0
  8 15  2  0  0  0  0
  9  5  2  0  0  0  0
 11 24  1  0  0  0  0
 12  1  2  0  0  0  0
 13 16  2  0  0  0  0
 14 22  1  0  0  0  0
 14 10  2  0  0  0  0
 15  4  1  0  0  0  0
 15 23  1  0  0  0  0
 17  4  1  0  0  0  0
 18 12  1  0  0  0  0
 18 19  1  0  0  0  0
 19  9  1  0  0  0  0
 20 11  2  0  0  0  0
 20 13  1  0  0  0  0
 21 25  1  0  0  0  0
 22 31  1  6  0  0  0
 24  2  1  0  0  0  0
 24 27  2  0  0  0  0
 26 21  1  0  0  0  0
 26 14  1  0  0  0  0
 28 29  1  0  0  0  0
 29 20  1  0  0  0  0
 30 31  1  0  0  0  0
 32 34  1  0  0  0  0
 34 33  2  0  0  0  0
 35 39  1  0  0  0  0
 37 40  1  0  0  0  0
 38 33  1  6  0  0  0
 38 35  1  0  0  0  0
 38 37  1  0  0  0  0
 39 36  1  0  0  0  0
 40 36  1  0  0  0  0
 40 41  1  1  0  0  0
 41 42  1  1  0  0  0
 43 44  2  0  0  0  0
 44 45  1  0  0  0  0
 44 41  1  0  0  0  0
M  END
>  <MODEL>
1

>  <REMARK>
 VINA RESULT:      -8.6      0.000      0.000
  Name = 
  7 active torsions:
  status: ('A' for Active; 'I' for Inactive)
    1  A    between atoms: C_2  and  C_7
    2  A    between atoms: C_2  and  C_14
    3  A    between atoms: C_3  and  C_25
    4  A    between atoms: C_17  and  C_29
    5  A    between atoms: C_17  and  C_45
    6  A    between atoms: O_33  and  C_34
    7  A    between atoms: C_37  and  C_39
                            x       y       z     vdW  Elec       q    Type
                         _______ _______ _______ _____ _____    ______ ____

>  <TORSDO>
F 7

$$$$
=
 OpenBabel10222418123D

 45 48  0  0  1  0  0  0  0  0999 V2000
  185.3280  178.1820  139.5310 C   0  0  0  0  0  0  0  0  0  0  0  0
  183.2020  177.1130  136.7490 N   0  0  0  0  0  0  0  0  0  0  0  0
  181.6820  178.0910  141.9100 C   0  0  1  0  0  3  0  0  0  0  0  0
  183.8200  178.9910  142.9320 C   0  0  0  0  0  0  0  0  0  0  0  0
  186.5920  178.2270  138.9370 C   0  0  0  0  0  3  0  0  0  0  0  0
  179.9320  179.0870  136.7770 O   0  0  0  0  0  0  0  0  0  0  0  0
  184.8320  179.5050  143.6320 C   0  0  0  0  0  3  0  0  0  0  0  0
  182.8650  178.0570  141.0580 N   0  0  0  0  0  0  0  0  0  0  0  0
  186.7260  177.8930  137.6250 N   0  0  0  0  0  0  0  0  0  0  0  0
  179.3430  181.4310  139.5350 C   0  0  0  0  0  2  0  0  0  0  0  0
  181.7180  176.6160  134.8370 N   0  0  0  0  0  0  0  0  0  0  0  0
  184.2630  177.7990  138.7790 N   0  0  0  0  0  0  0  0  0  0  0  0
  180.9120  178.6790  135.8680 C   0  0  0  0  0  0  0  0  0  0  0  0
  179.3610  180.3210  138.7970 C   0  0  0  0  0  0  0  0  0  0  0  0
  183.9550  178.5140  141.5760 C   0  0  0  0  0  0  0  0  0  0  0  0
  181.9320  179.3970  135.6680 O   0  0  0  0  0  0  0  0  0  0  0  0
  182.1410  178.8410  143.5220 S   0  0  0  0  0  0  0  0  0  0  0  0
  184.3860  177.4570  137.4730 C   0  0  0  0  0  0  0  0  0  0  0  0
  185.6530  177.5160  136.8780 C   0  0  0  0  0  2  0  0  0  0  0  0
  180.7280  177.4280  135.1060 C   0  0  0  0  0  0  0  0  0  0  0  0
  180.2550  178.3650  139.9410 N   0  0  0  0  0  2  0  0  0  0  0  0
  180.0000  180.3540  137.4280 C   0  0  2  0  0  3  0  0  0  0  0  0
  185.1720  178.5470  140.8770 O   0  0  0  0  0  0  0  0  0  0  0  0
  183.0420  176.6850  135.3870 C   0  0  0  0  0  0  0  0  0  0  0  0
  180.5820  178.9120  141.2530 C   0  0  0  0  0  2  0  0  0  0  0  0
  179.0400  179.0190  139.4720 C   0  0  0  0  0  2  0  0  0  0  0  0
  184.2480  175.9150  134.5940 S   0  0  0  0  0  0  0  0  0  0  0  0
  178.9340  175.8140  134.5940 C   0  0  0  0  0  1  0  0  0  0  0  0
  179.4440  177.1380  134.6430 O   0  0  0  0  0  0  0  0  0  0  0  0
  180.3810  182.5760  136.2800 C   0  0  0  0  0  1  0  0  0  0  0  0
  179.4010  181.4400  136.5300 C   0  0  0  0  0  2  0  0  0  0  0  0
  184.6870  180.0000  145.0370 C   0  0  0  0  0  2  0  0  0  0  0  0
  186.4680  178.3620  145.4950 C   0  0  0  0  0  3  0  0  0  0  0  0
  185.6770  179.3370  145.9430 C   0  0  0  0  0  3  0  0  0  0  0  0
  187.3570  178.3280  147.7940 C   0  0  0  0  0  2  0  0  0  0  0  0
  189.7740  177.8000  148.1780 C   0  0  0  0  0  2  0  0  0  0  0  0
  188.8570  177.8280  145.8550 C   0  0  0  0  0  2  0  0  0  0  0  0
  187.4390  177.6910  146.4090 C   0  0  2  0  0  3  0  0  0  0  0  0
  188.3600  177.6670  148.7370 C   0  0  0  0  0  2  0  0  0  0  0  0
  189.8620  177.1540  146.7930 C   0  0  1  0  0  3  0  0  0  0  0  0
  191.2830  177.2750  146.2360 C   0  0  1  0  0  3  0  0  0  0  0  0
  192.0970  176.2660  146.7570 O   0  0  0  0  0  1  0  0  0  0  0  0
  191.2410  176.1230  144.1670 O   0  0  0  0  0  0  0  0  0  0  0  0
  191.2990  177.2020  144.7380 C   0  0  0  0  0  0  0  0  0  0  0  0
  191.3860  178.4560  143.9400 C   0  0  0  0  0  1  0  0  0  0  0  0
  1 23  1  0  0  0  0
  2 18  2  0  0  0  0
  3 25  1  6  0  0  0
  3 17  1  0  0  0  0
  4 17  1  0  0  0  0
  4  7  2  0  0  0  0
  5  1  1  0  0  0  0
  6 22  1  0  0  0  0
  7 32  1  0  0  0  0
  8 15  2  0  0  0  0
  8  3  1  0  0  0  0
  9  5  2  0  0  0  0
 11 20  2  0  0  0  0
 11 24  1  0  0  0  0
 12  1  2  0  0  0  0
 13  6  1  0  0  0  0
 14 26  1  0  0  0  0
 14 10  2  0  0  0  0
 15  4  1  0  0  0  0
 16 13  2  0  0  0  0
 18 12  1  0  0  0  0
 19 18  1  0  0  0  0
 19  9  1  0  0  0  0
 20 13  1  0  0  0  0
 21 25  1  0  0  0  0
 22 31  1  6  0  0  0
 22 14  1  0  0  0  0
 23 15  1  0  0  0  0
 24  2  1  0  0  0  0
 26 21  1  0  0  0  0
 27 24  2  0  0  0  0
 28 29  1  0  0  0  0
 29 20  1  0  0  0  0
 30 31  1  0  0  0  0
 32 34  1  0  0  0  0
 33 34  2  0  0  0  0
 35 39  1  0  0  0  0
 36 39  1  0  0  0  0
 37 38  1  0  0  0  0
 37 40  1  0  0  0  0
 38 33  1  6  0  0  0
 38 35  1  0  0  0  0
 40 41  1  6  0  0  0
 40 36  1  0  0  0  0
 41 42  1  1  0  0  0
 43 44  2  0  0  0  0
 44 41  1  0  0  0  0
 45 44  1  0  0  0  0
M  END
>  <MODEL>
2

>  <REMARK>
 VINA RESULT:      -8.4      2.999      5.894
  Name = 
  7 active torsions:
  status: ('A' for Active; 'I' for Inactive)
    1  A    between atoms: C_2  and  C_7
    2  A    between atoms: C_2  and  C_14
    3  A    between atoms: C_3  and  C_25
    4  A    between atoms: C_17  and  C_29
    5  A    between atoms: C_17  and  C_45
    6  A    between atoms: O_33  and  C_34
    7  A    between atoms: C_37  and  C_39
                            x       y       z     vdW  Elec       q    Type
                         _______ _______ _______ _____ _____    ______ ____

>  <TORSDO>
F 7

$$$$
=
 OpenBabel10222418123D

 45 48  0  0  1  0  0  0  0  0999 V2000
  186.2440  178.2560  142.1260 C   0  0  0  0  0  0  0  0  0  0  0  0
  182.8820  178.5560  140.7100 N   0  0  0  0  0  0  0  0  0  0  0  0
  187.6330  178.4740  138.0060 C   0  0  1  0  0  3  0  0  0  0  0  0
  189.2920  177.9940  139.8600 C   0  0  0  0  0  0  0  0  0  0  0  0
  185.9850  178.2130  143.4990 C   0  0  0  0  0  3  0  0  0  0  0  0
  182.5670  176.3310  137.6210 O   0  0  0  0  0  0  0  0  0  0  0  0
  190.3020  177.7240  140.6890 C   0  0  0  0  0  3  0  0  0  0  0  0
  187.0930  178.4490  139.3600 N   0  0  0  0  0  0  0  0  0  0  0  0
  184.7000  178.2930  143.9390 N   0  0  0  0  0  0  0  0  0  0  0  0
  185.5470  174.5310  136.4680 C   0  0  0  0  0  2  0  0  0  0  0  0
  180.6160  178.5280  139.7250 N   0  0  0  0  0  0  0  0  0  0  0  0
  185.2010  178.3830  141.2650 N   0  0  0  0  0  0  0  0  0  0  0  0
  181.8460  176.6420  138.7770 C   0  0  0  0  0  0  0  0  0  0  0  0
  184.6140  175.4710  136.6220 C   0  0  0  0  0  0  0  0  0  0  0  0
  187.9350  178.2060  140.3060 C   0  0  0  0  0  0  0  0  0  0  0  0
  182.0470  175.9960  139.8440 O   0  0  0  0  0  0  0  0  0  0  0  0
  189.4300  178.1010  138.0830 S   0  0  0  0  0  0  0  0  0  0  0  0
  183.9170  178.4720  141.6930 C   0  0  0  0  0  0  0  0  0  0  0  0
  183.6600  178.4150  143.0690 C   0  0  0  0  0  2  0  0  0  0  0  0
  180.8140  177.6960  138.7350 C   0  0  0  0  0  0  0  0  0  0  0  0
  185.4910  177.6870  137.1210 N   0  0  0  0  0  2  0  0  0  0  0  0
  183.4700  175.2290  137.5790 C   0  0  2  0  0  3  0  0  0  0  0  0
  187.5630  178.1490  141.6590 O   0  0  0  0  0  0  0  0  0  0  0  0
  181.4610  178.6910  140.8730 C   0  0  0  0  0  0  0  0  0  0  0  0
  186.9280  177.4420  137.1370 C   0  0  0  0  0  2  0  0  0  0  0  0
  184.9020  176.8440  136.0890 C   0  0  0  0  0  2  0  0  0  0  0  0
  180.8250  179.3990  142.2050 S   0  0  0  0  0  0  0  0  0  0  0  0
  180.1760  178.7840  136.6140 C   0  0  0  0  0  1  0  0  0  0  0  0
  180.0130  177.7700  137.5930 O   0  0  0  0  0  0  0  0  0  0  0  0
  181.8660  174.0630  136.0090 C   0  0  0  0  0  1  0  0  0  0  0  0
  182.7100  173.9370  137.2680 C   0  0  0  0  0  2  0  0  0  0  0  0
  191.7070  177.5030  140.2230 C   0  0  0  0  0  2  0  0  0  0  0  0
  192.8060  176.4020  138.3140 C   0  0  0  0  0  3  0  0  0  0  0  0
  191.7540  176.4830  139.1290 C   0  0  0  0  0  3  0  0  0  0  0  0
  191.5690  174.5480  137.2610 C   0  0  0  0  0  2  0  0  0  0  0  0
  192.8280  172.6110  136.2970 C   0  0  0  0  0  2  0  0  0  0  0  0
  194.0680  174.5010  137.3580 C   0  0  0  0  0  2  0  0  0  0  0  0
  192.8380  175.3960  137.2120 C   0  0  2  0  0  3  0  0  0  0  0  0
  191.5950  173.4990  136.1520 C   0  0  0  0  0  2  0  0  0  0  0  0
  194.1030  173.4560  136.2390 C   0  0  1  0  0  3  0  0  0  0  0  0
  195.3410  172.5660  136.3720 C   0  0  1  0  0  3  0  0  0  0  0  0
  196.5000  173.3450  136.3880 O   0  0  0  0  0  1  0  0  0  0  0  0
  195.4300  172.2370  138.7170 O   0  0  0  0  0  0  0  0  0  0  0  0
  195.2900  171.7270  137.6150 C   0  0  0  0  0  0  0  0  0  0  0  0
  195.0650  170.2590  137.5040 C   0  0  0  0  0  1  0  0  0  0  0  0
  1  5  1  0  0  0  0
  2 24  1  0  0  0  0
  2 18  2  0  0  0  0
  3 25  1  6  0  0  0
  3 17  1  0  0  0  0
  3  8  1  0  0  0  0
  4 15  1  0  0  0  0
  4  7  2  0  0  0  0
  5  9  2  0  0  0  0
  6 13  1  0  0  0  0
  8 15  2  0  0  0  0
 10 14  2  0  0  0  0
 11 24  1  0  0  0  0
 12 18  1  0  0  0  0
 12  1  2  0  0  0  0
 13 16  2  0  0  0  0
 14 22  1  0  0  0  0
 15 23  1  0  0  0  0
 17  4  1  0  0  0  0
 18 19  1  0  0  0  0
 19  9  1  0  0  0  0
 20 13  1  0  0  0  0
 20 11  2  0  0  0  0
 21 25  1  0  0  0  0
 22 31  1  6  0  0  0
 22  6  1  0  0  0  0
 23  1  1  0  0  0  0
 24 27  2  0  0  0  0
 26 14  1  0  0  0  0
 26 21  1  0  0  0  0
 28 29  1  0  0  0  0
 29 20  1  0  0  0  0
 30 31  1  0  0  0  0
 32  7  1  0  0  0  0
 33 34  2  0  0  0  0
 34 32  1  0  0  0  0
 38 35  1  0  0  0  0
 38 37  1  0  0  0  0
 38 33  1  1  0  0  0
 39 36  1  0  0  0  0
 39 35  1  0  0  0  0
 40 36  1  0  0  0  0
 40 41  1  1  0  0  0
 40 37  1  0  0  0  0
 41 42  1  1  0  0  0
 41 44  1  0  0  0  0
 44 43  2  0  0  0  0
 45 44  1  0  0  0  0
M  END
>  <MODEL>
3

>  <REMARK>
 VINA RESULT:      -7.2      4.120      6.583
  Name = 
  7 active torsions:
  status: ('A' for Active; 'I' for Inactive)
    1  A    between atoms: C_2  and  C_7
    2  A    between atoms: C_2  and  C_14
    3  A    between atoms: C_3  and  C_25
    4  A    between atoms: C_17  and  C_29
    5  A    between atoms: C_17  and  C_45
    6  A    between atoms: O_33  and  C_34
    7  A    between atoms: C_37  and  C_39
                            x       y       z     vdW  Elec       q    Type
                         _______ _______ _______ _____ _____    ______ ____

>  <TORSDO>
F 7

$$$$
=
 OpenBabel10222418123D

 45 48  0  0  1  0  0  0  0  0999 V2000
  187.3450  175.8750  137.0950 C   0  0  0  0  0  0  0  0  0  0  0  0
  190.0880  177.1290  139.1700 N   0  0  0  0  0  2  0  0  0  0  0  0
  184.9580  179.0090  138.9480 C   0  0  1  0  0  3  0  0  0  0  0  0
  183.8390  177.3230  137.4220 C   0  0  0  0  0  0  0  0  0  0  0  0
  187.9640  174.8500  136.3740 C   0  0  0  0  0  3  0  0  0  0  0  0
  188.8240  177.8440  142.7030 O   0  0  0  0  0  0  0  0  0  0  0  0
  183.0780  176.5290  136.6670 C   0  0  0  0  0  3  0  0  0  0  0  0
  185.8330  178.0120  138.3430 N   0  0  0  0  0  0  0  0  0  0  0  0
  189.2840  174.5930  136.5770 N   0  0  0  0  0  0  0  0  0  0  0  0
  185.2450  177.4260  143.3840 C   0  0  0  0  0  2  0  0  0  0  0  0
  191.8580  177.8380  140.7410 N   0  0  0  0  0  0  0  0  0  0  0  0
  188.0850  176.5930  137.9790 N   0  0  0  0  0  0  0  0  0  0  0  0
  189.9060  177.2220  142.0730 C   0  0  0  0  0  0  0  0  0  0  0  0
  186.4180  177.9670  143.0510 C   0  0  0  0  0  0  0  0  0  0  0  0
  185.2660  177.1530  137.5650 C   0  0  0  0  0  0  0  0  0  0  0  0
  189.8390  176.0030  141.7530 O   0  0  0  0  0  0  0  0  0  0  0  0
  183.2340  178.6860  138.4050 S   0  0  0  0  0  0  0  0  0  0  0  0
  189.4030  176.3510  138.1840 C   0  0  0  0  0  0  0  0  0  0  0  0
  190.0160  175.3150  137.4690 C   0  0  0  0  0  3  0  0  0  0  0  0
  191.1460  177.9840  141.8280 C   0  0  0  0  0  0  0  0  0  0  0  0
  186.4200  179.1220  140.9070 N   0  0  0  0  0  2  0  0  0  0  0  0
  187.6630  177.1120  143.0860 C   0  0  2  0  0  3  0  0  0  0  0  0
  185.9780  176.1330  136.9120 O   0  0  0  0  0  0  0  0  0  0  0  0
  191.4680  177.1110  139.5660 C   0  0  0  0  0  0  0  0  0  0  0  0
  185.0430  178.9340  140.4660 C   0  0  0  0  0  2  0  0  0  0  0  0
  186.4090  179.2960  142.3540 C   0  0  0  0  0  2  0  0  0  0  0  0
  192.6410  176.6350  138.5290 S   0  0  0  0  0  0  0  0  0  0  0  0
  191.7400  178.4660  144.1740 C   0  0  0  0  0  1  0  0  0  0  0  0
  191.5680  178.8680  142.8230 O   0  0  0  0  0  0  0  0  0  0  0  0
  188.2250  177.4740  145.5260 C   0  0  0  0  0  1  0  0  0  0  0  0
  187.8820  176.4540  144.4520 C   0  0  0  0  0  2  0  0  0  0  0  0
  181.5990  176.7080  136.5230 C   0  0  0  0  0  2  0  0  0  0  0  0
  180.2700  178.7810  136.5560 C   0  0  0  0  0  3  0  0  0  0  0  0
  181.2720  178.0800  136.0250 C   0  0  0  0  0  3  0  0  0  0  0  0
  181.0500  180.6220  135.1150 C   0  0  0  0  0  2  0  0  0  0  0  0
  180.5640  182.9900  135.7610 C   0  0  0  0  0  2  0  0  0  0  0  0
  179.7710  181.1150  137.2070 C   0  0  0  0  0  2  0  0  0  0  0  0
  179.9360  180.1410  136.0410 C   0  0  2  0  0  3  0  0  0  0  0  0
  180.7340  182.0220  134.5940 C   0  0  0  0  0  2  0  0  0  0  0  0
  179.4410  182.5170  136.6870 C   0  0  1  0  0  3  0  0  0  0  0  0
  179.2610  183.4940  137.8510 C   0  0  1  0  0  3  0  0  0  0  0  0
  179.8210  182.9690  139.0180 O   0  0  0  0  0  1  0  0  0  0  0  0
  181.0250  185.0740  137.9220 O   0  0  0  0  0  0  0  0  0  0  0  0
  179.8840  184.8270  137.5580 C   0  0  0  0  0  0  0  0  0  0  0  0
  179.1060  185.8580  136.8160 C   0  0  0  0  0  1  0  0  0  0  0  0
  1 12  2  0  0  0  0
  2 24  1  0  0  0  0
  3 25  1  1  0  0  0
  4 15  1  0  0  0  0
  4 17  1  0  0  0  0
  5  9  2  0  0  0  0
  5  1  1  0  0  0  0
  6 22  1  0  0  0  0
  7  4  2  0  0  0  0
  8  3  1  0  0  0  0
  9 19  1  0  0  0  0
 11 20  2  0  0  0  0
 12 18  1  0  0  0  0
 13  6  1  0  0  0  0
 14 22  1  0  0  0  0
 14 10  2  0  0  0  0
 15  8  2  0  0  0  0
 16 13  2  0  0  0  0
 17  3  1  0  0  0  0
 18  2  1  0  0  0  0
 19 18  2  0  0  0  0
 20 13  1  0  0  0  0
 20 29  1  0  0  0  0
 21 26  1  0  0  0  0
 22 31  1  1  0  0  0
 23  1  1  0  0  0  0
 23 15  1  0  0  0  0
 24 11  1  0  0  0  0
 25 21  1  0  0  0  0
 26 14  1  0  0  0  0
 27 24  2  0  0  0  0
 29 28  1  0  0  0  0
 31 30  1  0  0  0  0
 32  7  1  0  0  0  0
 34 32  1  0  0  0  0
 34 33  2  0  0  0  0
 35 38  1  0  0  0  0
 36 40  1  0  0  0  0
 38 33  1  1  0  0  0
 38 37  1  0  0  0  0
 39 35  1  0  0  0  0
 39 36  1  0  0  0  0
 40 37  1  0  0  0  0
 40 41  1  1  0  0  0
 41 42  1  1  0  0  0
 44 41  1  0  0  0  0
 44 43  2  0  0  0  0
 45 44  1  0  0  0  0
M  END
>  <MODEL>
4

>  <REMARK>
 VINA RESULT:      -6.9      3.754     10.694
  Name = 
  7 active torsions:
  status: ('A' for Active; 'I' for Inactive)
    1  A    between atoms: C_2  and  C_7
    2  A    between atoms: C_2  and  C_14
    3  A    between atoms: C_3  and  C_25
    4  A    between atoms: C_17  and  C_29
    5  A    between atoms: C_17  and  C_45
    6  A    between atoms: O_33  and  C_34
    7  A    between atoms: C_37  and  C_39
                            x       y       z     vdW  Elec       q    Type
                         _______ _______ _______ _____ _____    ______ ____

>  <TORSDO>
F 7

$$$$
=
 OpenBabel10222418123D

 45 48  0  0  1  0  0  0  0  0999 V2000
  187.4090  175.7770  137.1530 C   0  0  0  0  0  0  0  0  0  0  0  0
  190.0330  177.1050  139.3340 N   0  0  0  0  0  2  0  0  0  0  0  0
  184.9470  179.0120  138.7120 C   0  0  1  0  0  3  0  0  0  0  0  0
  183.9050  177.2650  137.1980 C   0  0  0  0  0  0  0  0  0  0  0  0
  188.0610  174.7160  136.5190 C   0  0  0  0  0  3  0  0  0  0  0  0
  188.5640  177.9920  142.7460 O   0  0  0  0  0  0  0  0  0  0  0  0
  183.1840  176.4430  136.4340 C   0  0  0  0  0  3  0  0  0  0  0  0
  185.8460  177.9810  138.2070 N   0  0  0  0  0  0  0  0  0  0  0  0
  189.3630  174.4590  136.8150 N   0  0  0  0  0  0  0  0  0  0  0  0
  184.9460  177.6330  143.2250 C   0  0  0  0  0  2  0  0  0  0  0  0
  191.7120  177.8730  140.9760 N   0  0  0  0  0  0  0  0  0  0  0  0
  188.1010  176.5310  138.0480 N   0  0  0  0  0  0  0  0  0  0  0  0
  189.6750  177.3340  142.2130 C   0  0  0  0  0  0  0  0  0  0  0  0
  186.1420  178.1490  142.9400 C   0  0  0  0  0  0  0  0  0  0  0  0
  185.3190  177.0910  137.4360 C   0  0  0  0  0  0  0  0  0  0  0  0
  189.6160  176.1020  141.9450 O   0  0  0  0  0  0  0  0  0  0  0  0
  183.2550  178.6770  138.0780 S   0  0  0  0  0  0  0  0  0  0  0  0
  189.4020  176.2880  138.3440 C   0  0  0  0  0  0  0  0  0  0  0  0
  190.0470  175.2150  137.7160 C   0  0  0  0  0  3  0  0  0  0  0  0
  190.9360  178.0740  142.0100 C   0  0  0  0  0  0  0  0  0  0  0  0
  186.2870  179.2040  140.7500 N   0  0  0  0  0  2  0  0  0  0  0  0
  187.3740  177.2870  143.0900 C   0  0  2  0  0  3  0  0  0  0  0  0
  186.0590  176.0380  136.8750 O   0  0  0  0  0  0  0  0  0  0  0  0
  191.3870  177.0960  139.8140 C   0  0  0  0  0  0  0  0  0  0  0  0
  184.9380  179.0060  140.2340 C   0  0  0  0  0  2  0  0  0  0  0  0
  186.1900  179.4450  142.1840 C   0  0  0  0  0  2  0  0  0  0  0  0
  192.6160  176.5630  138.8740 S   0  0  0  0  0  0  0  0  0  0  0  0
  191.6790  178.6110  144.3010 C   0  0  0  0  0  1  0  0  0  0  0  0
  191.3060  179.0000  142.9880 O   0  0  0  0  0  0  0  0  0  0  0  0
  187.8300  177.7520  145.5350 C   0  0  0  0  0  1  0  0  0  0  0  0
  187.5020  176.6910  144.4950 C   0  0  0  0  0  2  0  0  0  0  0  0
  181.7190  176.6260  136.1920 C   0  0  0  0  0  2  0  0  0  0  0  0
  179.8840  178.0310  137.0430 C   0  0  0  0  0  3  0  0  0  0  0  0
  181.1240  177.5670  137.1930 C   0  0  0  0  0  3  0  0  0  0  0  0
  179.9480  180.3560  137.8580 C   0  0  0  0  0  2  0  0  0  0  0  0
  179.6170  180.8230  140.2940 C   0  0  0  0  0  2  0  0  0  0  0  0
  179.5450  178.4730  139.4540 C   0  0  0  0  0  2  0  0  0  0  0  0
  179.3030  178.9840  138.0340 C   0  0  2  0  0  3  0  0  0  0  0  0
  179.3800  181.3390  138.8780 C   0  0  0  0  0  2  0  0  0  0  0  0
  178.9640  179.4510  140.4780 C   0  0  1  0  0  3  0  0  0  0  0  0
  179.1910  178.9370  141.9020 C   0  0  1  0  0  3  0  0  0  0  0  0
  179.3220  177.5460  141.9020 O   0  0  0  0  0  1  0  0  0  0  0  0
  180.3190  180.5570  143.2130 O   0  0  0  0  0  0  0  0  0  0  0  0
  180.4100  179.5500  142.5250 C   0  0  0  0  0  0  0  0  0  0  0  0
  181.7440  178.9260  142.3040 C   0  0  0  0  0  1  0  0  0  0  0  0
  1 12  2  0  0  0  0
  2 24  1  0  0  0  0
  3 25  1  1  0  0  0
  4 15  1  0  0  0  0
  4 17  1  0  0  0  0
  5  9  2  0  0  0  0
  5  1  1  0  0  0  0
  6 22  1  0  0  0  0
  7  4  2  0  0  0  0
  8  3  1  0  0  0  0
  9 19  1  0  0  0  0
 11 20  2  0  0  0  0
 12 18  1  0  0  0  0
 13  6  1  0  0  0  0
 14 22  1  0  0  0  0
 14 10  2  0  0  0  0
 15  8  2  0  0  0  0
 16 13  2  0  0  0  0
 17  3  1  0  0  0  0
 18  2  1  0  0  0  0
 19 18  2  0  0  0  0
 20 13  1  0  0  0  0
 20 29  1  0  0  0  0
 21 26  1  0  0  0  0
 22 31  1  1  0  0  0
 23  1  1  0  0  0  0
 23 15  1  0  0  0  0
 24 11  1  0  0  0  0
 25 21  1  0  0  0  0
 26 14  1  0  0  0  0
 27 24  2  0  0  0  0
 29 28  1  0  0  0  0
 31 30  1  0  0  0  0
 32  7  1  0  0  0  0
 32 34  1  0  0  0  0
 33 34  2  0  0  0  0
 35 38  1  0  0  0  0
 35 39  1  0  0  0  0
 36 40  1  0  0  0  0
 37 40  1  0  0  0  0
 38 33  1  6  0  0  0
 38 37  1  0  0  0  0
 39 36  1  0  0  0  0
 40 41  1  1  0  0  0
 41 42  1  6  0  0  0
 41 44  1  0  0  0  0
 44 43  2  0  0  0  0
 45 44  1  0  0  0  0
M  END
>  <MODEL>
5

>  <REMARK>
 VINA RESULT:      -6.8      2.947      9.730
  Name = 
  7 active torsions:
  status: ('A' for Active; 'I' for Inactive)
    1  A    between atoms: C_2  and  C_7
    2  A    between atoms: C_2  and  C_14
    3  A    between atoms: C_3  and  C_25
    4  A    between atoms: C_17  and  C_29
    5  A    between atoms: C_17  and  C_45
    6  A    between atoms: O_33  and  C_34
    7  A    between atoms: C_37  and  C_39
                            x       y       z     vdW  Elec       q    Type
                         _______ _______ _______ _____ _____    ______ ____

>  <TORSDO>
F 7

$$$$
=
 OpenBabel10222418123D

 45 48  0  0  1  0  0  0  0  0999 V2000
  182.8750  177.1380  140.1460 C   0  0  0  0  0  0  0  0  0  0  0  0
  184.6020  177.4060  136.9300 N   0  0  0  0  0  0  0  0  0  0  0  0
  186.0720  179.6590  141.6900 C   0  0  1  0  0  3  0  0  0  0  0  0
  184.3740  178.6720  143.2920 C   0  0  0  0  0  0  0  0  0  0  0  0
  181.7570  176.3650  139.8190 C   0  0  0  0  0  3  0  0  0  0  0  0
  188.3660  177.0050  137.4370 O   0  0  0  0  0  0  0  0  0  0  0  0
  183.5900  178.2390  144.2810 C   0  0  0  0  0  3  0  0  0  0  0  0
  185.0150  178.8530  141.0890 N   0  0  0  0  0  0  0  0  0  0  0  0
  181.5850  175.9500  138.5350 N   0  0  0  0  0  0  0  0  0  0  0  0
  189.6310  176.6730  140.8630 C   0  0  0  0  0  2  0  0  0  0  0  0
  185.9000  177.4080  134.8270 N   0  0  0  0  0  0  0  0  0  0  0  0
  183.7590  177.4600  139.1670 N   0  0  0  0  0  0  0  0  0  0  0  0
  187.3600  176.5430  136.5840 C   0  0  0  0  0  0  0  0  0  0  0  0
  189.2400  177.1970  139.7010 C   0  0  0  0  0  0  0  0  0  0  0  0
  184.1490  178.3500  141.9020 C   0  0  0  0  0  0  0  0  0  0  0  0
  186.6990  175.5090  136.8830 O   0  0  0  0  0  0  0  0  0  0  0  0
  185.8350  179.6750  143.5110 S   0  0  0  0  0  0  0  0  0  0  0  0
  183.5940  177.0580  137.8820 C   0  0  0  0  0  0  0  0  0  0  0  0
  182.4790  176.2730  137.5610 C   0  0  0  0  0  2  0  0  0  0  0  0
  187.1040  177.2400  135.3090 C   0  0  0  0  0  0  0  0  0  0  0  0
  187.6110  178.9960  139.9070 N   0  0  0  0  0  2  0  0  0  0  0  0
  188.7420  176.2820  138.6070 C   0  0  2  0  0  3  0  0  0  0  0  0
  183.0770  177.5520  141.4720 O   0  0  0  0  0  0  0  0  0  0  0  0
  184.6690  177.1470  135.5190 C   0  0  0  0  0  0  0  0  0  0  0  0
  187.4370  179.0770  141.3520 C   0  0  0  0  0  2  0  0  0  0  0  0
  189.0070  178.6790  139.6380 C   0  0  0  0  0  2  0  0  0  0  0  0
  183.3100  176.9500  134.6280 S   0  0  0  0  0  0  0  0  0  0  0  0
  189.4880  177.0950  134.6880 C   0  0  0  0  0  1  0  0  0  0  0  0
  188.2100  177.7060  134.5950 O   0  0  0  0  0  0  0  0  0  0  0  0
  191.0760  175.7780  137.7710 C   0  0  0  0  0  1  0  0  0  0  0  0
  189.7570  175.1930  138.2500 C   0  0  0  0  0  2  0  0  0  0  0  0
  183.8270  178.5730  145.7200 C   0  0  0  0  0  2  0  0  0  0  0  0
  186.1280  178.5850  146.5980 C   0  0  0  0  0  3  0  0  0  0  0  0
  185.0520  177.8860  146.2340 C   0  0  0  0  0  3  0  0  0  0  0  0
  187.9510  178.6820  148.2540 C   0  0  0  0  0  2  0  0  0  0  0  0
  190.2360  177.8730  147.6280 C   0  0  0  0  0  2  0  0  0  0  0  0
  188.3770  177.7710  145.9630 C   0  0  0  0  0  2  0  0  0  0  0  0
  187.3540  177.8920  147.0920 C   0  0  2  0  0  3  0  0  0  0  0  0
  189.2190  177.9980  148.7590 C   0  0  0  0  0  2  0  0  0  0  0  0
  189.6440  177.0740  146.4650 C   0  0  1  0  0  3  0  0  0  0  0  0
  190.6670  176.9380  145.3340 C   0  0  1  0  0  3  0  0  0  0  0  0
  191.3650  178.1350  145.1630 O   0  0  0  0  0  1  0  0  0  0  0  0
  192.0150  175.5860  146.7380 O   0  0  0  0  0  0  0  0  0  0  0  0
  191.6420  175.8290  145.6000 C   0  0  0  0  0  0  0  0  0  0  0  0
  192.1600  175.0150  144.4650 C   0  0  0  0  0  1  0  0  0  0  0  0
  1 23  1  0  0  0  0
  2 18  2  0  0  0  0
  3 25  1  1  0  0  0
  3 17  1  0  0  0  0
  4 17  1  0  0  0  0
  4  7  2  0  0  0  0
  5  1  1  0  0  0  0
  6 22  1  0  0  0  0
  7 32  1  0  0  0  0
  8  3  1  0  0  0  0
  8 15  2  0  0  0  0
  9  5  2  0  0  0  0
 11 20  2  0  0  0  0
 11 24  1  0  0  0  0
 12  1  2  0  0  0  0
 13 16  2  0  0  0  0
 13  6  1  0  0  0  0
 14 10  2  0  0  0  0
 15  4  1  0  0  0  0
 18 12  1  0  0  0  0
 19 18  1  0  0  0  0
 19  9  1  0  0  0  0
 20 13  1  0  0  0  0
 21 25  1  0  0  0  0
 22 31  1  6  0  0  0
 22 14  1  0  0  0  0
 23 15  1  0  0  0  0
 24  2  1  0  0  0  0
 26 14  1  0  0  0  0
 26 21  1  0  0  0  0
 27 24  2  0  0  0  0
 29 28  1  0  0  0  0
 29 20  1  0  0  0  0
 30 31  1  0  0  0  0
 32 34  1  0  0  0  0
 34 33  2  0  0  0  0
 35 39  1  0  0  0  0
 36 39  1  0  0  0  0
 37 40  1  0  0  0  0
 37 38  1  0  0  0  0
 38 33  1  6  0  0  0
 38 35  1  0  0  0  0
 40 41  1  6  0  0  0
 40 36  1  0  0  0  0
 41 42  1  1  0  0  0
 41 44  1  0  0  0  0
 44 43  2  0  0  0  0
 45 44  1  0  0  0  0
M  END
>  <MODEL>
6

>  <REMARK>
 VINA RESULT:      -6.7      2.894      5.377
  Name = 
  7 active torsions:
  status: ('A' for Active; 'I' for Inactive)
    1  A    between atoms: C_2  and  C_7
    2  A    between atoms: C_2  and  C_14
    3  A    between atoms: C_3  and  C_25
    4  A    between atoms: C_17  and  C_29
    5  A    between atoms: C_17  and  C_45
    6  A    between atoms: O_33  and  C_34
    7  A    between atoms: C_37  and  C_39
                            x       y       z     vdW  Elec       q    Type
                         _______ _______ _______ _____ _____    ______ ____

>  <TORSDO>
F 7

$$$$
=
 OpenBabel10222418123D

 45 48  0  0  1  0  0  0  0  0999 V2000
  187.0430  172.9460  135.7840 C   0  0  0  0  0  0  0  0  0  0  0  0
  190.5550  173.9580  135.5690 N   0  0  0  0  0  2  0  0  0  0  0  0
  186.1710  177.2100  135.8790 C   0  0  1  0  0  3  0  0  0  0  0  0
  184.2950  175.5420  136.2300 C   0  0  0  0  0  0  0  0  0  0  0  0
  187.1330  171.5530  135.7240 C   0  0  0  0  0  3  0  0  0  0  0  0
  191.2390  176.8120  138.0140 O   0  0  0  0  0  0  0  0  0  0  0  0
  183.1900  174.8260  136.4450 C   0  0  0  0  0  3  0  0  0  0  0  0
  186.5410  175.8020  135.8000 N   0  0  0  0  0  0  0  0  0  0  0  0
  188.3540  170.9660  135.6040 N   0  0  0  0  0  0  0  0  0  0  0  0
  188.4170  178.1850  139.9120 C   0  0  0  0  0  2  0  0  0  0  0  0
  192.9240  174.6540  135.6560 N   0  0  0  0  0  0  0  0  0  0  0  0
  188.1850  173.6800  135.7140 N   0  0  0  0  0  0  0  0  0  0  0  0
  191.8130  175.6020  137.6140 C   0  0  0  0  0  0  0  0  0  0  0  0
  189.3270  177.9880  138.9580 C   0  0  0  0  0  0  0  0  0  0  0  0
  185.5880  174.9510  135.9780 C   0  0  0  0  0  0  0  0  0  0  0  0
  191.4820  174.5240  138.1810 O   0  0  0  0  0  0  0  0  0  0  0  0
  184.3770  177.3260  136.2560 S   0  0  0  0  0  0  0  0  0  0  0  0
  189.4070  173.1060  135.5870 C   0  0  0  0  0  0  0  0  0  0  0  0
  189.4930  171.7090  135.5400 C   0  0  0  0  0  3  0  0  0  0  0  0
  192.8460  175.5960  136.5600 C   0  0  0  0  0  0  0  0  0  0  0  0
  188.4020  177.7650  136.7160 N   0  0  0  0  0  2  0  0  0  0  0  0
  190.3440  176.8820  139.1220 C   0  0  2  0  0  3  0  0  0  0  0  0
  185.7920  173.5620  135.9320 O   0  0  0  0  0  0  0  0  0  0  0  0
  191.9450  173.6330  135.4140 C   0  0  0  0  0  0  0  0  0  0  0  0
  186.9730  177.9070  136.9680 C   0  0  0  0  0  2  0  0  0  0  0  0
  189.1110  178.6520  137.6290 C   0  0  0  0  0  2  0  0  0  0  0  0
  192.4160  172.2890  134.6060 S   0  0  0  0  0  0  0  0  0  0  0  0
  194.6480  176.8840  135.4700 C   0  0  0  0  0  1  0  0  0  0  0  0
  193.7810  176.6330  136.5670 O   0  0  0  0  0  0  0  0  0  0  0  0
  192.5600  177.4680  140.1910 C   0  0  0  0  0  1  0  0  0  0  0  0
  191.1320  177.0020  140.4290 C   0  0  0  0  0  2  0  0  0  0  0  0
  181.8530  175.4430  136.7070 C   0  0  0  0  0  2  0  0  0  0  0  0
  181.8800  176.9910  138.6220 C   0  0  0  0  0  3  0  0  0  0  0  0
  181.6840  175.7560  138.1600 C   0  0  0  0  0  3  0  0  0  0  0  0
  180.6700  178.3760  140.2620 C   0  0  0  0  0  2  0  0  0  0  0  0
  181.8530  179.1750  142.3190 C   0  0  0  0  0  2  0  0  0  0  0  0
  183.0630  177.7620  140.6540 C   0  0  0  0  0  2  0  0  0  0  0  0
  181.7290  177.2930  140.0760 C   0  0  2  0  0  3  0  0  0  0  0  0
  180.5170  178.7130  141.7440 C   0  0  0  0  0  2  0  0  0  0  0  0
  182.9140  178.0870  142.1420 C   0  0  1  0  0  3  0  0  0  0  0  0
  184.2520  178.5450  142.7300 C   0  0  1  0  0  3  0  0  0  0  0  0
  184.8640  179.4710  141.8820 O   0  0  0  0  0  1  0  0  0  0  0  0
  184.0960  180.3690  144.2340 O   0  0  0  0  0  0  0  0  0  0  0  0
  184.0800  179.1550  144.0890 C   0  0  0  0  0  0  0  0  0  0  0  0
  183.8870  178.2730  145.2740 C   0  0  0  0  0  1  0  0  0  0  0  0
  1 23  1  0  0  0  0
  2 18  1  0  0  0  0
  3 17  1  0  0  0  0
  3 25  1  1  0  0  0
  4 17  1  0  0  0  0
  4  7  2  0  0  0  0
  5  1  1  0  0  0  0
  6 22  1  0  0  0  0
  7 32  1  0  0  0  0
  8  3  1  0  0  0  0
  8 15  2  0  0  0  0
  9  5  2  0  0  0  0
 11 20  2  0  0  0  0
 12  1  2  0  0  0  0
 13  6  1  0  0  0  0
 13 16  2  0  0  0  0
 14 22  1  0  0  0  0
 14 10  2  0  0  0  0
 15  4  1  0  0  0  0
 18 12  1  0  0  0  0
 19 18  2  0  0  0  0
 19  9  1  0  0  0  0
 20 29  1  0  0  0  0
 20 13  1  0  0  0  0
 21 25  1  0  0  0  0
 21 26  1  0  0  0  0
 22 31  1  1  0  0  0
 23 15  1  0  0  0  0
 24  2  1  0  0  0  0
 24 11  1  0  0  0  0
 26 14  1  0  0  0  0
 27 24  2  0  0  0  0
 28 29  1  0  0  0  0
 30 31  1  0  0  0  0
 32 34  1  0  0  0  0
 34 33  2  0  0  0  0
 35 39  1  0  0  0  0
 37 40  1  0  0  0  0
 38 33  1  6  0  0  0
 38 35  1  0  0  0  0
 38 37  1  0  0  0  0
 39 36  1  0  0  0  0
 40 36  1  0  0  0  0
 40 41  1  6  0  0  0
 41 42  1  6  0  0  0
 41 44  1  0  0  0  0
 44 43  2  0  0  0  0
 44 45  1  0  0  0  0
M  END
>  <MODEL>
7

>  <REMARK>
 VINA RESULT:      -6.6      3.812      8.955
  Name = 
  7 active torsions:
  status: ('A' for Active; 'I' for Inactive)
    1  A    between atoms: C_2  and  C_7
    2  A    between atoms: C_2  and  C_14
    3  A    between atoms: C_3  and  C_25
    4  A    between atoms: C_17  and  C_29
    5  A    between atoms: C_17  and  C_45
    6  A    between atoms: O_33  and  C_34
    7  A    between atoms: C_37  and  C_39
                            x       y       z     vdW  Elec       q    Type
                         _______ _______ _______ _____ _____    ______ ____

>  <TORSDO>
F 7

$$$$
=
 OpenBabel10222418123D

 45 48  0  0  1  0  0  0  0  0999 V2000
  188.2350  177.5350  141.6520 C   0  0  0  0  0  0  0  0  0  0  0  0
  184.7840  178.7270  141.9210 N   0  0  0  0  0  0  0  0  0  0  0  0
  187.8940  178.5320  137.4270 C   0  0  1  0  0  3  0  0  0  0  0  0
  189.9680  177.3420  138.2670 C   0  0  0  0  0  0  0  0  0  0  0  0
  188.5360  177.1980  142.9740 C   0  0  0  0  0  3  0  0  0  0  0  0
  182.7230  177.4170  138.9840 O   0  0  0  0  0  0  0  0  0  0  0  0
  191.1170  176.7120  138.5160 C   0  0  0  0  0  3  0  0  0  0  0  0
  187.9440  178.2630  138.8600 N   0  0  0  0  0  0  0  0  0  0  0  0
  187.5950  177.3780  143.9400 N   0  0  0  0  0  0  0  0  0  0  0  0
  184.4410  175.4910  136.3790 C   0  0  0  0  0  2  0  0  0  0  0  0
  182.3880  179.3170  142.0390 N   0  0  0  0  0  0  0  0  0  0  0  0
  187.0070  178.0420  141.3670 N   0  0  0  0  0  0  0  0  0  0  0  0
  182.6210  177.5480  140.3710 C   0  0  0  0  0  0  0  0  0  0  0  0
  183.9170  176.5050  137.0680 C   0  0  0  0  0  0  0  0  0  0  0  0
  188.9990  177.6580  139.2900 C   0  0  0  0  0  0  0  0  0  0  0  0
  183.0540  176.6340  141.1290 O   0  0  0  0  0  0  0  0  0  0  0  0
  189.4160  177.8600  136.6490 S   0  0  0  0  0  0  0  0  0  0  0  0
  186.0650  178.2330  142.3230 C   0  0  0  0  0  0  0  0  0  0  0  0
  186.3650  177.8810  143.6450 C   0  0  0  0  0  2  0  0  0  0  0  0
  181.9610  178.7350  140.9480 C   0  0  0  0  0  0  0  0  0  0  0  0
  185.4530  178.3530  137.4650 N   0  0  0  0  0  2  0  0  0  0  0  0
  183.2230  176.2260  138.3810 C   0  0  2  0  0  3  0  0  0  0  0  0
  189.1880  177.3310  140.6430 O   0  0  0  0  0  0  0  0  0  0  0  0
  183.6280  179.0500  142.7100 C   0  0  0  0  0  0  0  0  0  0  0  0
  186.6660  177.8770  136.8100 C   0  0  0  0  0  2  0  0  0  0  0  0
  184.3120  177.9000  136.6810 C   0  0  0  0  0  2  0  0  0  0  0  0
  183.7720  179.5020  144.2760 S   0  0  0  0  0  0  0  0  0  0  0  0
  179.6250  179.5280  140.9970 C   0  0  0  0  0  1  0  0  0  0  0  0
  180.8230  179.2190  140.3010 O   0  0  0  0  0  0  0  0  0  0  0  0
  180.9080  175.7520  137.4800 C   0  0  0  0  0  1  0  0  0  0  0  0
  182.1000  175.1950  138.2410 C   0  0  0  0  0  2  0  0  0  0  0  0
  192.1180  176.3850  137.4530 C   0  0  0  0  0  2  0  0  0  0  0  0
  194.2600  175.1800  137.2950 C   0  0  0  0  0  3  0  0  0  0  0  0
  193.1140  175.3820  137.9450 C   0  0  0  0  0  3  0  0  0  0  0  0
  196.6300  174.5050  137.2480 C   0  0  0  0  0  2  0  0  0  0  0  0
  197.2240  172.0740  137.2480 C   0  0  0  0  0  2  0  0  0  0  0  0
  194.8270  172.7720  137.3060 C   0  0  0  0  0  2  0  0  0  0  0  0
  195.2400  174.1650  137.7800 C   0  0  2  0  0  3  0  0  0  0  0  0
  197.6430  173.4640  137.7180 C   0  0  0  0  0  2  0  0  0  0  0  0
  195.8350  171.7250  137.7880 C   0  0  1  0  0  3  0  0  0  0  0  0
  195.4190  170.3260  137.3290 C   0  0  1  0  0  3  0  0  0  0  0  0
  194.6800  169.6850  138.3270 O   0  0  0  0  0  1  0  0  0  0  0  0
  193.3880  170.3730  136.1100 O   0  0  0  0  0  0  0  0  0  0  0  0
  194.6090  170.3740  136.0660 C   0  0  0  0  0  0  0  0  0  0  0  0
  195.3010  170.4260  134.7480 C   0  0  0  0  0  1  0  0  0  0  0  0
  1  5  1  0  0  0  0
  2 18  2  0  0  0  0
  2 24  1  0  0  0  0
  3 25  1  6  0  0  0
  3  8  1  0  0  0  0
  4  7  2  0  0  0  0
  4 15  1  0  0  0  0
  5  9  2  0  0  0  0
  6 13  1  0  0  0  0
  8 15  2  0  0  0  0
 10 14  2  0  0  0  0
 11 24  1  0  0  0  0
 12  1  2  0  0  0  0
 12 18  1  0  0  0  0
 13 20  1  0  0  0  0
 13 16  2  0  0  0  0
 14 22  1  0  0  0  0
 15 23  1  0  0  0  0
 17  3  1  0  0  0  0
 17  4  1  0  0  0  0
 18 19  1  0  0  0  0
 19  9  1  0  0  0  0
 20 11  2  0  0  0  0
 22 31  1  6  0  0  0
 22  6  1  0  0  0  0
 23  1  1  0  0  0  0
 24 27  2  0  0  0  0
 25 21  1  0  0  0  0
 26 14  1  0  0  0  0
 26 21  1  0  0  0  0
 29 20  1  0  0  0  0
 29 28  1  0  0  0  0
 30 31  1  0  0  0  0
 32 34  1  0  0  0  0
 32  7  1  0  0  0  0
 33 34  2  0  0  0  0
 35 39  1  0  0  0  0
 35 38  1  0  0  0  0
 36 39  1  0  0  0  0
 36 40  1  0  0  0  0
 37 38  1  0  0  0  0
 37 40  1  0  0  0  0
 38 33  1  6  0  0  0
 40 41  1  6  0  0  0
 41 42  1  1  0  0  0
 44 43  2  0  0  0  0
 44 41  1  0  0  0  0
 45 44  1  0  0  0  0
M  END
>  <MODEL>
8

>  <REMARK>
 VINA RESULT:      -6.2      5.051      7.583
  Name = 
  7 active torsions:
  status: ('A' for Active; 'I' for Inactive)
    1  A    between atoms: C_2  and  C_7
    2  A    between atoms: C_2  and  C_14
    3  A    between atoms: C_3  and  C_25
    4  A    between atoms: C_17  and  C_29
    5  A    between atoms: C_17  and  C_45
    6  A    between atoms: O_33  and  C_34
    7  A    between atoms: C_37  and  C_39
                            x       y       z     vdW  Elec       q    Type
                         _______ _______ _______ _____ _____    ______ ____

>  <TORSDO>
F 7

$$$$
=
 OpenBabel10222418123D

 45 48  0  0  1  0  0  0  0  0999 V2000
  188.8230  177.0690  141.7020 C   0  0  0  0  0  0  0  0  0  0  0  0
  185.8200  178.6750  143.0440 N   0  0  0  0  0  0  0  0  0  0  0  0
  187.7040  178.9070  137.9160 C   0  0  1  0  0  3  0  0  0  0  0  0
  189.6520  177.2870  137.9920 C   0  0  0  0  0  0  0  0  0  0  0  0
  189.3530  176.4410  142.8320 C   0  0  0  0  0  3  0  0  0  0  0  0
  182.9220  178.2760  140.5870 O   0  0  0  0  0  0  0  0  0  0  0  0
  190.6870  176.4600  137.8320 C   0  0  0  0  0  3  0  0  0  0  0  0
  188.0340  178.3600  139.2270 N   0  0  0  0  0  0  0  0  0  0  0  0
  188.7140  176.5650  144.0260 N   0  0  0  0  0  0  0  0  0  0  0  0
  183.5900  176.6630  137.3620 C   0  0  0  0  0  2  0  0  0  0  0  0
  183.6730  179.5740  143.8740 N   0  0  0  0  0  0  0  0  0  0  0  0
  187.6810  177.7940  141.8290 N   0  0  0  0  0  0  0  0  0  0  0  0
  183.1720  178.1470  141.9560 C   0  0  0  0  0  0  0  0  0  0  0  0
  183.4430  177.5890  138.3100 C   0  0  0  0  0  0  0  0  0  0  0  0
  189.0260  177.5360  139.2690 C   0  0  0  0  0  0  0  0  0  0  0  0
  183.5870  177.0510  142.4260 O   0  0  0  0  0  0  0  0  0  0  0  0
  188.8480  178.1840  136.6740 S   0  0  0  0  0  0  0  0  0  0  0  0
  187.0400  177.9310  143.0160 C   0  0  0  0  0  0  0  0  0  0  0  0
  187.5680  177.2890  144.1440 C   0  0  0  0  0  2  0  0  0  0  0  0
  182.9020  179.2830  142.8590 C   0  0  0  0  0  0  0  0  0  0  0  0
  185.3510  179.0810  138.5650 N   0  0  0  0  0  2  0  0  0  0  0  0
  183.0330  177.1640  139.7010 C   0  0  2  0  0  3  0  0  0  0  0  0
  189.4590  176.9280  140.4590 O   0  0  0  0  0  0  0  0  0  0  0  0
  184.9620  179.0040  144.1480 C   0  0  0  0  0  0  0  0  0  0  0  0
  186.2650  178.5700  137.5510 C   0  0  0  0  0  2  0  0  0  0  0  0
  183.9940  178.9600  138.0490 C   0  0  0  0  0  2  0  0  0  0  0  0
  185.5480  179.1170  145.6720 S   0  0  0  0  0  0  0  0  0  0  0  0
  180.4520  179.5700  142.9050 C   0  0  0  0  0  1  0  0  0  0  0  0
  181.7580  180.0440  142.6140 O   0  0  0  0  0  0  0  0  0  0  0  0
  180.5050  177.2510  139.7230 C   0  0  0  0  0  1  0  0  0  0  0  0
  181.7340  176.3550  139.7060 C   0  0  0  0  0  2  0  0  0  0  0  0
  191.3320  176.2030  136.5070 C   0  0  0  0  0  2  0  0  0  0  0  0
  192.9530  174.6360  135.5180 C   0  0  0  0  0  3  0  0  0  0  0  0
  192.3350  175.0980  136.6050 C   0  0  0  0  0  3  0  0  0  0  0  0
  193.2680  172.3070  136.2620 C   0  0  0  0  0  2  0  0  0  0  0  0
  195.4690  171.6030  137.2250 C   0  0  0  0  0  2  0  0  0  0  0  0
  195.1390  173.9560  136.4570 C   0  0  0  0  0  2  0  0  0  0  0  0
  193.9380  173.5190  135.6200 C   0  0  2  0  0  3  0  0  0  0  0  0
  194.2680  171.1610  136.3930 C   0  0  0  0  0  2  0  0  0  0  0  0
  196.1490  172.8120  136.5780 C   0  0  1  0  0  3  0  0  0  0  0  0
  197.3610  173.2490  137.4050 C   0  0  1  0  0  3  0  0  0  0  0  0
  198.3430  172.2550  137.3910 O   0  0  0  0  0  1  0  0  0  0  0  0
  198.0170  175.5150  137.6170 O   0  0  0  0  0  0  0  0  0  0  0  0
  197.9470  174.5320  136.8940 C   0  0  0  0  0  0  0  0  0  0  0  0
  198.4480  174.6070  135.4930 C   0  0  0  0  0  1  0  0  0  0  0  0
  1 12  2  0  0  0  0
  1  5  1  0  0  0  0
  2 24  1  0  0  0  0
  3 25  1  6  0  0  0
  3  8  1  0  0  0  0
  4 15  1  0  0  0  0
  5  9  2  0  0  0  0
  6 13  1  0  0  0  0
  7  4  2  0  0  0  0
  8 15  2  0  0  0  0
  9 19  1  0  0  0  0
 10 14  2  0  0  0  0
 11 24  1  0  0  0  0
 12 18  1  0  0  0  0
 13 16  2  0  0  0  0
 13 20  1  0  0  0  0
 14 22  1  0  0  0  0
 15 23  1  0  0  0  0
 17  3  1  0  0  0  0
 17  4  1  0  0  0  0
 18  2  2  0  0  0  0
 18 19  1  0  0  0  0
 20 11  2  0  0  0  0
 22 31  1  6  0  0  0
 22  6  1  0  0  0  0
 23  1  1  0  0  0  0
 24 27  2  0  0  0  0
 25 21  1  0  0  0  0
 26 14  1  0  0  0  0
 26 21  1  0  0  0  0
 29 20  1  0  0  0  0
 29 28  1  0  0  0  0
 31 30  1  0  0  0  0
 32 34  1  0  0  0  0
 32  7  1  0  0  0  0
 33 34  2  0  0  0  0
 35 39  1  0  0  0  0
 37 40  1  0  0  0  0
 38 33  1  1  0  0  0
 38 35  1  0  0  0  0
 38 37  1  0  0  0  0
 39 36  1  0  0  0  0
 40 36  1  0  0  0  0
 40 41  1  1  0  0  0
 41 42  1  6  0  0  0
 44 41  1  0  0  0  0
 44 43  2  0  0  0  0
 45 44  1  0  0  0  0
M  END
>  <MODEL>
9

>  <REMARK>
 VINA RESULT:      -6.0      5.311      8.371
  Name = 
  7 active torsions:
  status: ('A' for Active; 'I' for Inactive)
    1  A    between atoms: C_2  and  C_7
    2  A    between atoms: C_2  and  C_14
    3  A    between atoms: C_3  and  C_25
    4  A    between atoms: C_17  and  C_29
    5  A    between atoms: C_17  and  C_45
    6  A    between atoms: O_33  and  C_34
    7  A    between atoms: C_37  and  C_39
                            x       y       z     vdW  Elec       q    Type
                         _______ _______ _______ _____ _____    ______ ____

>  <TORSDO>
F 7

$$$$
