=
 OpenBabel10222418283D

 28 32  0  0  1  0  0  0  0  0999 V2000
  188.7660  178.9680  139.8410 C   0  0  0  0  0  2  0  0  0  0  0  0
  183.9960  179.3370  140.2090 N   0  0  0  0  0  2  0  0  0  0  0  0
  188.7810  177.8330  145.9000 C   0  0  0  0  0  3  0  0  0  0  0  0
  187.4780  178.2410  140.2780 C   0  0  2  0  0  3  0  0  0  0  0  0
  185.2450  178.7110  140.5090 C   0  0  0  0  0  0  0  0  0  0  0  0
  188.0770  176.9830  142.3260 N   0  0  0  0  0  2  0  0  0  0  0  0
  191.7600  177.2790  141.6350 S   0  0  0  0  0  0  0  0  0  0  0  0
  190.8830  176.0000  142.6430 C   0  0  0  0  0  2  0  0  0  0  0  0
  185.5240  177.9270  142.1010 S   0  0  0  0  0  0  0  0  0  0  0  0
  189.9140  178.0890  140.0660 N   0  0  0  0  0  0  0  0  0  0  0  0
  188.7490  177.0620  143.5990 C   0  0  0  0  0  0  0  0  0  0  0  0
  190.2570  178.0760  141.3880 O   0  0  0  0  0  0  0  0  0  0  0  0
  190.0790  177.3270  146.0390 C   0  0  0  0  0  3  0  0  0  0  0  0
  190.6820  176.7110  144.9890 N   0  0  0  0  0  0  0  0  0  0  0  0
  190.0770  176.5950  143.7730 C   0  0  0  0  0  0  0  0  0  0  0  0
  188.1220  177.6940  144.6780 C   0  0  0  0  0  3  0  0  0  0  0  0
  186.2900  178.8900  139.7670 N   0  0  0  0  0  0  0  0  0  0  0  0
  187.3160  178.1190  141.8010 C   0  0  2  0  0  3  0  0  0  0  0  0
  191.0790  176.4170  138.7580 C   0  0  0  0  0  3  0  0  0  0  0  0
  189.8540  174.5250  137.6380 O   0  0  0  0  0  0  0  0  0  0  0  0
  192.3120  174.4870  137.6420 C   0  0  0  0  0  2  0  0  0  0  0  0
  191.0420  175.2900  137.7670 C   0  0  0  0  0  0  0  0  0  0  0  0
  188.8060  175.4440  137.4780 C   0  0  0  0  0  2  0  0  0  0  0  0
  188.6220  176.2450  138.7890 C   0  0  0  0  0  2  0  0  0  0  0  0
  189.9170  176.9000  139.2300 C   0  0  0  0  0  0  0  0  0  0  0  0
  191.8790  175.4190  136.4980 C   0  0  0  0  0  2  0  0  0  0  0  0
  183.7740  180.1060  139.0210 C   0  0  0  0  0  3  0  0  0  0  0  0
  182.5350  180.4060  138.6560 C   0  0  0  0  0  2  0  0  0  0  0  0
  1 10  1  0  0  0  0
  2  5  1  0  0  0  0
  3 13  1  0  0  0  0
  4  1  1  1  0  0  0
  4 18  1  0  0  0  0
  5  9  1  0  0  0  0
  6 11  1  0  0  0  0
  7  8  1  0  0  0  0
  8 15  1  0  0  0  0
 10 12  1  0  0  0  0
 11 15  2  0  0  0  0
 11 16  1  0  0  0  0
 12  7  1  0  0  0  0
 14 13  2  0  0  0  0
 15 14  1  0  0  0  0
 16  3  2  0  0  0  0
 17  4  1  0  0  0  0
 17  5  2  0  0  0  0
 18  9  1  6  0  0  0
 18  6  1  0  0  0  0
 19 25  2  0  0  0  0
 20 22  1  0  0  0  0
 21 22  1  0  0  0  0
 22 19  1  0  0  0  0
 23 20  1  0  0  0  0
 23 24  1  0  0  0  0
 24 25  1  0  0  0  0
 25 10  1  0  0  0  0
 26 21  1  0  0  0  0
 26 22  1  0  0  0  0
 27  2  1  0  0  0  0
 28 27  2  0  0  0  0
M  END
>  <MODEL>
1

>  <REMARK>
 VINA RESULT:      -6.5      0.000      0.000
  Name = 
  2 active torsions:
  status: ('A' for Active; 'I' for Inactive)
    1  A    between atoms: N_2  and  C_7
    2  A    between atoms: N_16  and  C_24
                            x       y       z     vdW  Elec       q    Type
                         _______ _______ _______ _____ _____    ______ ____

>  <TORSDO>
F 2

$$$$
=
 OpenBabel10222418283D

 28 32  0  0  1  0  0  0  0  0999 V2000
  188.3010  178.5670  139.1430 C   0  0  0  0  0  2  0  0  0  0  0  0
  189.3790  177.3620  143.6600 N   0  0  0  0  0  2  0  0  0  0  0  0
  193.8430  176.3440  137.6110 C   0  0  0  0  0  3  0  0  0  0  0  0
  188.7140  177.4070  140.0700 C   0  0  2  0  0  3  0  0  0  0  0  0
  189.3480  177.1080  142.2540 C   0  0  0  0  0  0  0  0  0  0  0  0
  190.2960  176.0250  138.7560 N   0  0  0  0  0  2  0  0  0  0  0  0
  189.2140  177.5760  135.5070 S   0  0  0  0  0  0  0  0  0  0  0  0
  189.9880  175.9190  135.7830 C   0  0  0  0  0  2  0  0  0  0  0  0
  190.6500  176.1570  141.4610 S   0  0  0  0  0  0  0  0  0  0  0  0
  188.1500  178.0610  137.7780 N   0  0  0  0  0  0  0  0  0  0  0  0
  191.4490  176.0610  137.8910 C   0  0  0  0  0  0  0  0  0  0  0  0
  189.3710  177.9000  137.1880 O   0  0  0  0  0  0  0  0  0  0  0  0
  193.6800  176.2480  136.2240 C   0  0  0  0  0  3  0  0  0  0  0  0
  192.4410  176.0650  135.6980 N   0  0  0  0  0  0  0  0  0  0  0  0
  191.3250  176.0040  136.4790 C   0  0  0  0  0  0  0  0  0  0  0  0
  192.7230  176.2470  138.4380 C   0  0  0  0  0  3  0  0  0  0  0  0
  188.5400  177.7420  141.4660 N   0  0  0  0  0  0  0  0  0  0  0  0
  190.1700  176.9490  139.8850 C   0  0  2  0  0  3  0  0  0  0  0  0
  187.3200  175.8210  137.3790 C   0  0  0  0  0  3  0  0  0  0  0  0
  184.8560  175.3070  137.3710 O   0  0  0  0  0  0  0  0  0  0  0  0
  186.4420  173.4320  137.2700 C   0  0  0  0  0  2  0  0  0  0  0  0
  186.1780  174.9000  137.0570 C   0  0  0  0  0  0  0  0  0  0  0  0
  184.7000  176.5970  136.8410 C   0  0  0  0  0  2  0  0  0  0  0  0
  185.6120  177.5810  137.6130 C   0  0  0  0  0  2  0  0  0  0  0  0
  187.0570  177.1170  137.6180 C   0  0  0  0  0  0  0  0  0  0  0  0
  186.3120  173.9870  135.8420 C   0  0  0  0  0  2  0  0  0  0  0  0
  188.4540  178.2380  144.3150 C   0  0  0  0  0  3  0  0  0  0  0  0
  187.5050  177.7300  145.0880 C   0  0  0  0  0  2  0  0  0  0  0  0
  2 27  1  0  0  0  0
  3 16  1  0  0  0  0
  4  1  1  6  0  0  0
  4 17  1  0  0  0  0
  5  2  1  0  0  0  0
  7  8  1  0  0  0  0
  7 12  1  0  0  0  0
  8 15  1  0  0  0  0
  9  5  1  0  0  0  0
 10  1  1  0  0  0  0
 11 16  2  0  0  0  0
 11  6  1  0  0  0  0
 12 10  1  0  0  0  0
 13  3  2  0  0  0  0
 14 13  1  0  0  0  0
 14 15  2  0  0  0  0
 15 11  1  0  0  0  0
 17  5  2  0  0  0  0
 18  6  1  6  0  0  0
 18  4  1  0  0  0  0
 18  9  1  0  0  0  0
 19 25  2  0  0  0  0
 22 21  1  0  0  0  0
 22 20  1  0  0  0  0
 22 19  1  0  0  0  0
 23 20  1  0  0  0  0
 23 24  1  0  0  0  0
 24 25  1  0  0  0  0
 25 10  1  0  0  0  0
 26 22  1  0  0  0  0
 26 21  1  0  0  0  0
 27 28  2  0  0  0  0
M  END
>  <MODEL>
2

>  <REMARK>
 VINA RESULT:      -6.2      2.810      6.032
  Name = 
  2 active torsions:
  status: ('A' for Active; 'I' for Inactive)
    1  A    between atoms: N_2  and  C_7
    2  A    between atoms: N_16  and  C_24
                            x       y       z     vdW  Elec       q    Type
                         _______ _______ _______ _____ _____    ______ ____

>  <TORSDO>
F 2

$$$$
=
 OpenBabel10222418283D

 28 32  0  0  1  0  0  0  0  0999 V2000
  187.3630  178.3950  137.3020 C   0  0  0  0  0  2  0  0  0  0  0  0
  187.0240  178.7250  142.0770 N   0  0  0  0  0  2  0  0  0  0  0  0
  193.2320  176.7340  138.1970 C   0  0  0  0  0  3  0  0  0  0  0  0
  187.5320  177.6310  138.6300 C   0  0  2  0  0  3  0  0  0  0  0  0
  187.4570  178.0760  140.8790 C   0  0  0  0  0  0  0  0  0  0  0  0
  189.5320  176.1990  138.3340 N   0  0  0  0  0  2  0  0  0  0  0  0
  189.4440  176.5580  134.5940 S   0  0  0  0  0  0  0  0  0  0  0  0
  190.1910  175.1950  135.5960 C   0  0  0  0  0  2  0  0  0  0  0  0
  189.0000  177.1570  140.8360 S   0  0  0  0  0  0  0  0  0  0  0  0
  187.6860  177.5010  136.1890 N   0  0  0  0  0  0  0  0  0  0  0  0
  190.8960  176.1670  137.8670 C   0  0  0  0  0  0  0  0  0  0  0  0
  189.0380  177.3720  136.0520 O   0  0  0  0  0  0  0  0  0  0  0  0
  193.5240  176.2190  136.9290 C   0  0  0  0  0  3  0  0  0  0  0  0
  192.5310  175.6980  136.1630 N   0  0  0  0  0  0  0  0  0  0  0  0
  191.2300  175.6880  136.5730 C   0  0  0  0  0  0  0  0  0  0  0  0
  191.9160  176.7020  138.6600 C   0  0  0  0  0  3  0  0  0  0  0  0
  186.9030  178.3210  139.7350 N   0  0  0  0  0  0  0  0  0  0  0  0
  188.9970  177.3760  139.0220 C   0  0  2  0  0  3  0  0  0  0  0  0
  186.9410  175.2670  136.7570 C   0  0  0  0  0  3  0  0  0  0  0  0
  184.8680  174.2660  135.7390 O   0  0  0  0  0  0  0  0  0  0  0  0
  185.9750  173.0530  137.5680 C   0  0  0  0  0  2  0  0  0  0  0  0
  186.0710  174.0780  136.4660 C   0  0  0  0  0  0  0  0  0  0  0  0
  185.2070  175.0030  134.5940 C   0  0  0  0  0  2  0  0  0  0  0  0
  185.6450  176.4270  135.0130 C   0  0  0  0  0  2  0  0  0  0  0  0
  186.7600  176.3890  136.0400 C   0  0  0  0  0  0  0  0  0  0  0  0
  186.7450  172.7220  136.2780 C   0  0  0  0  0  2  0  0  0  0  0  0
  185.8860  179.5950  142.1250 C   0  0  0  0  0  3  0  0  0  0  0  0
  184.9530  179.4010  143.0460 C   0  0  0  0  0  2  0  0  0  0  0  0
  2 27  1  0  0  0  0
  3 16  1  0  0  0  0
  4  1  1  6  0  0  0
  4 18  1  0  0  0  0
  4 17  1  0  0  0  0
  5  2  1  0  0  0  0
  7  8  1  0  0  0  0
  7 12  1  0  0  0  0
  8 15  1  0  0  0  0
  9  5  1  0  0  0  0
 10  1  1  0  0  0  0
 11  6  1  0  0  0  0
 11 16  2  0  0  0  0
 12 10  1  0  0  0  0
 13  3  2  0  0  0  0
 14 15  2  0  0  0  0
 14 13  1  0  0  0  0
 15 11  1  0  0  0  0
 17  5  2  0  0  0  0
 18  6  1  6  0  0  0
 18  9  1  0  0  0  0
 20 22  1  0  0  0  0
 22 19  1  0  0  0  0
 22 21  1  0  0  0  0
 23 24  1  0  0  0  0
 23 20  1  0  0  0  0
 24 25  1  0  0  0  0
 25 10  1  0  0  0  0
 25 19  2  0  0  0  0
 26 22  1  0  0  0  0
 26 21  1  0  0  0  0
 27 28  2  0  0  0  0
M  END
>  <MODEL>
3

>  <REMARK>
 VINA RESULT:      -6.2      3.218      5.654
  Name = 
  2 active torsions:
  status: ('A' for Active; 'I' for Inactive)
    1  A    between atoms: N_2  and  C_7
    2  A    between atoms: N_16  and  C_24
                            x       y       z     vdW  Elec       q    Type
                         _______ _______ _______ _____ _____    ______ ____

>  <TORSDO>
F 2

$$$$
=
 OpenBabel10222418283D

 28 32  0  0  1  0  0  0  0  0999 V2000
  182.5630  177.5070  138.0360 C   0  0  0  0  0  2  0  0  0  0  0  0
  187.0860  178.3850  139.3770 N   0  0  0  0  0  2  0  0  0  0  0  0
  181.0430  178.2580  143.9630 C   0  0  0  0  0  3  0  0  0  0  0  0
  183.4950  178.5220  138.7290 C   0  0  2  0  0  3  0  0  0  0  0  0
  185.6810  178.6430  139.4140 C   0  0  0  0  0  0  0  0  0  0  0  0
  182.1870  179.4620  140.6110 N   0  0  0  0  0  2  0  0  0  0  0  0
  178.9320  178.2470  139.1770 S   0  0  0  0  0  0  0  0  0  0  0  0
  179.2140  179.6530  140.3450 C   0  0  0  0  0  2  0  0  0  0  0  0
  184.8910  179.2360  140.9160 S   0  0  0  0  0  0  0  0  0  0  0  0
  181.2000  178.0400  138.0210 N   0  0  0  0  0  0  0  0  0  0  0  0
  181.3230  179.1380  141.7190 C   0  0  0  0  0  0  0  0  0  0  0  0
  180.6110  177.8880  139.2440 O   0  0  0  0  0  0  0  0  0  0  0  0
  179.6560  178.3960  143.8320 C   0  0  0  0  0  3  0  0  0  0  0  0
  179.1300  178.8900  142.6810 N   0  0  0  0  0  0  0  0  0  0  0  0
  179.9100  179.2290  141.6150 C   0  0  0  0  0  0  0  0  0  0  0  0
  181.8700  178.6330  142.9030 C   0  0  0  0  0  3  0  0  0  0  0  0
  184.8900  178.2370  138.4730 N   0  0  0  0  0  0  0  0  0  0  0  0
  183.3130  178.5960  140.2530 C   0  0  2  0  0  3  0  0  0  0  0  0
  181.0240  180.4430  137.7810 C   0  0  0  0  0  3  0  0  0  0  0  0
  180.7880  181.5330  135.5250 O   0  0  0  0  0  0  0  0  0  0  0  0
  181.1480  182.9710  137.4850 C   0  0  0  0  0  2  0  0  0  0  0  0
  180.6980  181.6410  136.9360 C   0  0  0  0  0  0  0  0  0  0  0  0
  180.0650  180.3830  135.1680 C   0  0  0  0  0  2  0  0  0  0  0  0
  180.7950  179.1310  135.7090 C   0  0  0  0  0  2  0  0  0  0  0  0
  181.0430  179.2310  137.2020 C   0  0  0  0  0  0  0  0  0  0  0  0
  179.6500  182.6230  137.4530 C   0  0  0  0  0  2  0  0  0  0  0  0
  187.7370  177.7690  138.2600 C   0  0  0  0  0  3  0  0  0  0  0  0
  188.7360  178.3980  137.6560 C   0  0  0  0  0  2  0  0  0  0  0  0
  2  5  1  0  0  0  0
  4  1  1  1  0  0  0
  4 18  1  0  0  0  0
  5  9  1  0  0  0  0
  6 11  1  0  0  0  0
  7 12  1  0  0  0  0
  7  8  1  0  0  0  0
  8 15  1  0  0  0  0
 10  1  1  0  0  0  0
 10 12  1  0  0  0  0
 11 16  1  0  0  0  0
 13  3  1  0  0  0  0
 14 13  2  0  0  0  0
 15 11  2  0  0  0  0
 15 14  1  0  0  0  0
 16  3  2  0  0  0  0
 17  4  1  0  0  0  0
 17  5  2  0  0  0  0
 18  6  1  6  0  0  0
 18  9  1  0  0  0  0
 20 22  1  0  0  0  0
 22 26  1  0  0  0  0
 22 21  1  0  0  0  0
 22 19  1  0  0  0  0
 23 20  1  0  0  0  0
 23 24  1  0  0  0  0
 24 25  1  0  0  0  0
 25 19  2  0  0  0  0
 25 10  1  0  0  0  0
 26 21  1  0  0  0  0
 27  2  1  0  0  0  0
 28 27  2  0  0  0  0
M  END
>  <MODEL>
4

>  <REMARK>
 VINA RESULT:      -6.0      4.965      9.126
  Name = 
  2 active torsions:
  status: ('A' for Active; 'I' for Inactive)
    1  A    between atoms: N_2  and  C_7
    2  A    between atoms: N_16  and  C_24
                            x       y       z     vdW  Elec       q    Type
                         _______ _______ _______ _____ _____    ______ ____

>  <TORSDO>
F 2

$$$$
=
 OpenBabel10222418283D

 28 32  0  0  1  0  0  0  0  0999 V2000
  186.7780  176.2820  143.8350 C   0  0  0  0  0  2  0  0  0  0  0  0
  183.1500  179.3030  142.9750 N   0  0  0  0  0  2  0  0  0  0  0  0
  188.8890  177.8030  138.2460 C   0  0  0  0  0  3  0  0  0  0  0  0
  186.4100  177.7350  143.4730 C   0  0  2  0  0  3  0  0  0  0  0  0
  184.5320  178.9410  142.9430 C   0  0  0  0  0  0  0  0  0  0  0  0
  188.1220  178.4780  141.8440 N   0  0  0  0  0  2  0  0  0  0  0  0
  190.4550  175.6770  142.7630 S   0  0  0  0  0  0  0  0  0  0  0  0
  190.8720  177.3170  142.0160 C   0  0  0  0  0  2  0  0  0  0  0  0
  185.6020  179.5050  141.6140 S   0  0  0  0  0  0  0  0  0  0  0  0
  188.2330  176.1630  143.9260 N   0  0  0  0  0  0  0  0  0  0  0  0
  188.8470  178.1130  140.6530 C   0  0  0  0  0  0  0  0  0  0  0  0
  188.7890  176.0940  142.6810 O   0  0  0  0  0  0  0  0  0  0  0  0
  190.1930  177.3020  138.3450 C   0  0  0  0  0  3  0  0  0  0  0  0
  190.7940  177.2140  139.5600 N   0  0  0  0  0  0  0  0  0  0  0  0
  190.1550  177.5670  140.7120 C   0  0  0  0  0  0  0  0  0  0  0  0
  188.2240  178.2080  139.4040 C   0  0  0  0  0  3  0  0  0  0  0  0
  185.0100  178.0130  143.7090 N   0  0  0  0  0  0  0  0  0  0  0  0
  186.7140  178.1120  142.0150 C   0  0  2  0  0  3  0  0  0  0  0  0
  188.1980  176.9660  146.2110 C   0  0  0  0  0  3  0  0  0  0  0  0
  190.0540  178.3890  147.1400 O   0  0  0  0  0  0  0  0  0  0  0  0
  188.3310  177.5600  148.6850 C   0  0  0  0  0  2  0  0  0  0  0  0
  188.7340  177.8870  147.2690 C   0  0  0  0  0  0  0  0  0  0  0  0
  190.1550  178.9130  145.8420 C   0  0  0  0  0  2  0  0  0  0  0  0
  190.0680  177.7580  144.8160 C   0  0  0  0  0  2  0  0  0  0  0  0
  188.8180  176.9230  145.0190 C   0  0  0  0  0  0  0  0  0  0  0  0
  187.7510  178.8040  147.9910 C   0  0  0  0  0  2  0  0  0  0  0  0
  182.2230  178.7580  143.9220 C   0  0  0  0  0  3  0  0  0  0  0  0
  180.9250  178.7770  143.6530 C   0  0  0  0  0  2  0  0  0  0  0  0
  1 10  1  0  0  0  0
  2 27  1  0  0  0  0
  3 13  2  0  0  0  0
  3 16  1  0  0  0  0
  4 17  1  0  0  0  0
  4  1  1  6  0  0  0
  5  2  1  0  0  0  0
  5 17  2  0  0  0  0
  6 18  1  0  0  0  0
  8  7  1  0  0  0  0
  9  5  1  0  0  0  0
 10 25  1  0  0  0  0
 11 15  1  0  0  0  0
 11  6  1  0  0  0  0
 12  7  1  0  0  0  0
 12 10  1  0  0  0  0
 13 14  1  0  0  0  0
 14 15  2  0  0  0  0
 15  8  1  0  0  0  0
 16 11  2  0  0  0  0
 18  9  1  1  0  0  0
 18  4  1  0  0  0  0
 19 22  1  0  0  0  0
 20 22  1  0  0  0  0
 22 26  1  0  0  0  0
 22 21  1  0  0  0  0
 23 20  1  0  0  0  0
 24 25  1  0  0  0  0
 24 23  1  0  0  0  0
 25 19  2  0  0  0  0
 26 21  1  0  0  0  0
 28 27  2  0  0  0  0
M  END
>  <MODEL>
5

>  <REMARK>
 VINA RESULT:      -5.9      2.507      6.288
  Name = 
  2 active torsions:
  status: ('A' for Active; 'I' for Inactive)
    1  A    between atoms: N_2  and  C_7
    2  A    between atoms: N_16  and  C_24
                            x       y       z     vdW  Elec       q    Type
                         _______ _______ _______ _____ _____    ______ ____

>  <TORSDO>
F 2

$$$$
=
 OpenBabel10222418283D

 28 32  0  0  1  0  0  0  0  0999 V2000
  188.3410  178.6950  138.2020 C   0  0  0  0  0  2  0  0  0  0  0  0
  183.9920  179.5610  140.0340 N   0  0  0  0  0  2  0  0  0  0  0  0
  190.4270  178.9050  143.9990 C   0  0  0  0  0  3  0  0  0  0  0  0
  187.2760  178.1980  139.1980 C   0  0  2  0  0  3  0  0  0  0  0  0
  185.2620  178.9050  140.0410 C   0  0  0  0  0  0  0  0  0  0  0  0
  188.5290  177.3660  141.1670 N   0  0  0  0  0  2  0  0  0  0  0  0
  191.7530  177.1740  139.2430 S   0  0  0  0  0  0  0  0  0  0  0  0
  191.2640  176.2290  140.7550 C   0  0  0  0  0  2  0  0  0  0  0  0
  186.0640  178.4640  141.5870 S   0  0  0  0  0  0  0  0  0  0  0  0
  189.4880  177.7870  138.2330 N   0  0  0  0  0  0  0  0  0  0  0  0
  189.5980  177.6590  142.0880 C   0  0  0  0  0  0  0  0  0  0  0  0
  190.2650  178.0300  139.3290 O   0  0  0  0  0  0  0  0  0  0  0  0
  191.6890  178.3270  143.8140 C   0  0  0  0  0  3  0  0  0  0  0  0
  191.8880  177.4470  142.7990 N   0  0  0  0  0  0  0  0  0  0  0  0
  190.9010  177.1240  141.9150 C   0  0  0  0  0  0  0  0  0  0  0  0
  189.3870  178.5640  143.1340 C   0  0  0  0  0  3  0  0  0  0  0  0
  185.9910  178.8250  138.9740 N   0  0  0  0  0  0  0  0  0  0  0  0
  187.6460  178.4250  140.6730 C   0  0  2  0  0  3  0  0  0  0  0  0
  190.1750  175.6940  137.2260 C   0  0  0  0  0  3  0  0  0  0  0  0
  188.5490  173.8070  136.8610 O   0  0  0  0  0  0  0  0  0  0  0  0
  190.9370  173.3870  136.4590 C   0  0  0  0  0  2  0  0  0  0  0  0
  189.8140  174.3850  136.5840 C   0  0  0  0  0  0  0  0  0  0  0  0
  187.5960  174.8150  136.6470 C   0  0  0  0  0  2  0  0  0  0  0  0
  187.7710  175.9190  137.7170 C   0  0  0  0  0  2  0  0  0  0  0  0
  189.1930  176.4490  137.7460 C   0  0  0  0  0  0  0  0  0  0  0  0
  190.3850  174.0800  135.2020 C   0  0  0  0  0  2  0  0  0  0  0  0
  183.3840  180.0700  138.8420 C   0  0  0  0  0  3  0  0  0  0  0  0
  182.1050  179.8150  138.5990 C   0  0  0  0  0  2  0  0  0  0  0  0
  1 10  1  0  0  0  0
  2  5  1  0  0  0  0
  4  1  1  6  0  0  0
  4 18  1  0  0  0  0
  5  9  1  0  0  0  0
  6 11  1  0  0  0  0
  7 12  1  0  0  0  0
  7  8  1  0  0  0  0
  8 15  1  0  0  0  0
 10 12  1  0  0  0  0
 11 16  1  0  0  0  0
 13  3  1  0  0  0  0
 14 13  2  0  0  0  0
 15 11  2  0  0  0  0
 15 14  1  0  0  0  0
 16  3  2  0  0  0  0
 17  4  1  0  0  0  0
 17  5  2  0  0  0  0
 18  6  1  1  0  0  0
 18  9  1  0  0  0  0
 19 25  2  0  0  0  0
 21 22  1  0  0  0  0
 22 20  1  0  0  0  0
 22 19  1  0  0  0  0
 23 20  1  0  0  0  0
 23 24  1  0  0  0  0
 24 25  1  0  0  0  0
 25 10  1  0  0  0  0
 26 21  1  0  0  0  0
 26 22  1  0  0  0  0
 27  2  1  0  0  0  0
 28 27  2  0  0  0  0
M  END
>  <MODEL>
6

>  <REMARK>
 VINA RESULT:      -5.9      1.668      1.798
  Name = 
  2 active torsions:
  status: ('A' for Active; 'I' for Inactive)
    1  A    between atoms: N_2  and  C_7
    2  A    between atoms: N_16  and  C_24
                            x       y       z     vdW  Elec       q    Type
                         _______ _______ _______ _____ _____    ______ ____

>  <TORSDO>
F 2

$$$$
=
 OpenBabel10222418283D

 28 32  0  0  1  0  0  0  0  0999 V2000
  188.1520  178.3170  138.1300 C   0  0  0  0  0  2  0  0  0  0  0  0
  189.1770  177.5030  142.7460 N   0  0  0  0  0  2  0  0  0  0  0  0
  193.9390  176.5740  136.9140 C   0  0  0  0  0  3  0  0  0  0  0  0
  188.6440  177.2630  139.1420 C   0  0  2  0  0  3  0  0  0  0  0  0
  189.2240  177.1620  141.3590 C   0  0  0  0  0  0  0  0  0  0  0  0
  190.4020  175.9700  137.9680 N   0  0  0  0  0  2  0  0  0  0  0  0
  189.2920  177.2030  134.5950 S   0  0  0  0  0  0  0  0  0  0  0  0
  190.2150  175.6520  135.0010 C   0  0  0  0  0  2  0  0  0  0  0  0
  190.6410  176.3010  140.6690 S   0  0  0  0  0  0  0  0  0  0  0  0
  188.1030  177.7160  136.7970 N   0  0  0  0  0  0  0  0  0  0  0  0
  191.5760  176.0690  137.1390 C   0  0  0  0  0  0  0  0  0  0  0  0
  189.3550  177.6430  136.2560 O   0  0  0  0  0  0  0  0  0  0  0  0
  193.8380  176.3780  135.5310 C   0  0  0  0  0  3  0  0  0  0  0  0
  192.6430  176.0390  134.9810 N   0  0  0  0  0  0  0  0  0  0  0  0
  191.5100  175.9140  135.7300 C   0  0  0  0  0  0  0  0  0  0  0  0
  192.8050  176.4150  137.7110 C   0  0  0  0  0  3  0  0  0  0  0  0
  188.3870  177.6630  140.5080 N   0  0  0  0  0  0  0  0  0  0  0  0
  190.1440  176.9430  139.0320 C   0  0  2  0  0  3  0  0  0  0  0  0
  185.8210  176.9710  136.4720 C   0  0  0  0  0  3  0  0  0  0  0  0
  185.2330  174.5260  136.3550 O   0  0  0  0  0  0  0  0  0  0  0  0
  183.4890  176.1750  135.8250 C   0  0  0  0  0  2  0  0  0  0  0  0
  184.8010  175.8690  136.5020 C   0  0  0  0  0  0  0  0  0  0  0  0
  186.2800  174.3430  137.2730 C   0  0  0  0  0  2  0  0  0  0  0  0
  187.4940  175.2000  136.8420 C   0  0  0  0  0  2  0  0  0  0  0  0
  187.1140  176.6580  136.6640 C   0  0  0  0  0  0  0  0  0  0  0  0
  183.5540  176.0670  137.3580 C   0  0  0  0  0  2  0  0  0  0  0  0
  188.1470  178.3210  143.3150 C   0  0  0  0  0  3  0  0  0  0  0  0
  187.1520  177.7510  143.9800 C   0  0  0  0  0  2  0  0  0  0  0  0
  2 27  1  0  0  0  0
  3 16  1  0  0  0  0
  4  1  1  6  0  0  0
  4 17  1  0  0  0  0
  5  2  1  0  0  0  0
  7  8  1  0  0  0  0
  7 12  1  0  0  0  0
  8 15  1  0  0  0  0
  9  5  1  0  0  0  0
 10  1  1  0  0  0  0
 11 16  2  0  0  0  0
 11  6  1  0  0  0  0
 12 10  1  0  0  0  0
 13  3  2  0  0  0  0
 14 13  1  0  0  0  0
 14 15  2  0  0  0  0
 15 11  1  0  0  0  0
 17  5  2  0  0  0  0
 18  6  1  6  0  0  0
 18  4  1  0  0  0  0
 18  9  1  0  0  0  0
 19 22  1  0  0  0  0
 19 25  2  0  0  0  0
 20 22  1  0  0  0  0
 20 23  1  0  0  0  0
 21 22  1  0  0  0  0
 21 26  1  0  0  0  0
 22 26  1  0  0  0  0
 24 23  1  0  0  0  0
 25 10  1  0  0  0  0
 25 24  1  0  0  0  0
 27 28  2  0  0  0  0
M  END
>  <MODEL>
7

>  <REMARK>
 VINA RESULT:      -5.8      3.175      6.560
  Name = 
  2 active torsions:
  status: ('A' for Active; 'I' for Inactive)
    1  A    between atoms: N_2  and  C_7
    2  A    between atoms: N_16  and  C_24
                            x       y       z     vdW  Elec       q    Type
                         _______ _______ _______ _____ _____    ______ ____

>  <TORSDO>
F 2

$$$$
=
 OpenBabel10222418283D

 28 32  0  0  1  0  0  0  0  0999 V2000
  187.8000  176.3040  143.0780 C   0  0  0  0  0  2  0  0  0  0  0  0
  184.0260  179.1510  143.8970 N   0  0  0  0  0  2  0  0  0  0  0  0
  187.6180  178.3430  137.2640 C   0  0  0  0  0  3  0  0  0  0  0  0
  187.2810  177.7540  143.0090 C   0  0  2  0  0  3  0  0  0  0  0  0
  185.3060  178.8780  143.3220 C   0  0  0  0  0  0  0  0  0  0  0  0
  188.2350  178.7140  140.9340 N   0  0  0  0  0  2  0  0  0  0  0  0
  190.8240  176.0020  140.6700 S   0  0  0  0  0  0  0  0  0  0  0  0
  190.8830  177.7130  139.9700 C   0  0  0  0  0  2  0  0  0  0  0  0
  185.7820  179.5990  141.7470 S   0  0  0  0  0  0  0  0  0  0  0  0
  189.1870  176.2680  142.6130 N   0  0  0  0  0  0  0  0  0  0  0  0
  188.4700  178.4790  139.5310 C   0  0  0  0  0  0  0  0  0  0  0  0
  189.2370  176.3210  141.2490 O   0  0  0  0  0  0  0  0  0  0  0  0
  188.8790  177.9170  136.8270 C   0  0  0  0  0  3  0  0  0  0  0  0
  189.8930  177.7810  137.7200 N   0  0  0  0  0  0  0  0  0  0  0  0
  189.7220  178.0110  139.0530 C   0  0  0  0  0  0  0  0  0  0  0  0
  187.4230  178.6250  138.6160 C   0  0  0  0  0  3  0  0  0  0  0  0
  186.0630  177.9290  143.7710 N   0  0  0  0  0  0  0  0  0  0  0  0
  187.0050  178.2510  141.5810 C   0  0  2  0  0  3  0  0  0  0  0  0
  190.4710  176.4560  144.6580 C   0  0  0  0  0  3  0  0  0  0  0  0
  191.9890  178.4160  145.0900 O   0  0  0  0  0  0  0  0  0  0  0  0
  192.0560  176.5190  146.6510 C   0  0  0  0  0  2  0  0  0  0  0  0
  191.2990  177.2850  145.5960 C   0  0  0  0  0  0  0  0  0  0  0  0
  191.0480  179.1640  144.3650 C   0  0  0  0  0  2  0  0  0  0  0  0
  190.6170  178.3680  143.1110 C   0  0  0  0  0  2  0  0  0  0  0  0
  190.1150  176.9820  143.4740 C   0  0  0  0  0  0  0  0  0  0  0  0
  190.8520  177.3880  147.0510 C   0  0  0  0  0  2  0  0  0  0  0  0
  183.5380  178.4850  145.0670 C   0  0  0  0  0  3  0  0  0  0  0  0
  184.1810  178.6280  146.2180 C   0  0  0  0  0  2  0  0  0  0  0  0
  2 27  1  0  0  0  0
  3 16  1  0  0  0  0
  4  1  1  6  0  0  0
  4 17  1  0  0  0  0
  5 17  2  0  0  0  0
  5  2  1  0  0  0  0
  7 12  1  0  0  0  0
  8  7  1  0  0  0  0
  9  5  1  0  0  0  0
 10  1  1  0  0  0  0
 10 25  1  0  0  0  0
 11  6  1  0  0  0  0
 12 10  1  0  0  0  0
 13  3  2  0  0  0  0
 13 14  1  0  0  0  0
 14 15  2  0  0  0  0
 15 11  1  0  0  0  0
 15  8  1  0  0  0  0
 16 11  2  0  0  0  0
 18  6  1  1  0  0  0
 18  9  1  0  0  0  0
 18  4  1  0  0  0  0
 19 22  1  0  0  0  0
 20 22  1  0  0  0  0
 21 26  1  0  0  0  0
 22 21  1  0  0  0  0
 22 26  1  0  0  0  0
 23 20  1  0  0  0  0
 24 25  1  0  0  0  0
 24 23  1  0  0  0  0
 25 19  2  0  0  0  0
 27 28  2  0  0  0  0
M  END
>  <MODEL>
8

>  <REMARK>
 VINA RESULT:      -5.8      2.562      5.948
  Name = 
  2 active torsions:
  status: ('A' for Active; 'I' for Inactive)
    1  A    between atoms: N_2  and  C_7
    2  A    between atoms: N_16  and  C_24
                            x       y       z     vdW  Elec       q    Type
                         _______ _______ _______ _____ _____    ______ ____

>  <TORSDO>
F 2

$$$$
=
 OpenBabel10222418283D

 28 32  0  0  1  0  0  0  0  0999 V2000
  181.5250  175.9600  139.7610 C   0  0  0  0  0  2  0  0  0  0  0  0
  180.2270  173.4330  135.8950 N   0  0  0  0  0  2  0  0  0  0  0  0
  187.1110  176.3510  137.1820 C   0  0  0  0  0  3  0  0  0  0  0  0
  181.4320  175.9760  138.2230 C   0  0  2  0  0  3  0  0  0  0  0  0
  180.9000  174.5230  136.5280 C   0  0  0  0  0  0  0  0  0  0  0  0
  183.4660  177.1510  137.4350 N   0  0  0  0  0  2  0  0  0  0  0  0
  184.1290  178.6290  140.8270 S   0  0  0  0  0  0  0  0  0  0  0  0
  184.6740  179.2600  139.1760 C   0  0  0  0  0  2  0  0  0  0  0  0
  182.4300  175.1800  135.8530 S   0  0  0  0  0  0  0  0  0  0  0  0
  182.0750  177.2360  140.2220 N   0  0  0  0  0  0  0  0  0  0  0  0
  184.8950  177.2550  137.5870 C   0  0  0  0  0  0  0  0  0  0  0  0
  183.4290  177.2670  140.0460 O   0  0  0  0  0  0  0  0  0  0  0  0
  187.6590  177.3730  137.9660 C   0  0  0  0  0  3  0  0  0  0  0  0
  186.8450  178.2990  138.5360 N   0  0  0  0  0  0  0  0  0  0  0  0
  185.4890  178.2530  138.4030 C   0  0  0  0  0  0  0  0  0  0  0  0
  185.7290  176.3000  136.9950 C   0  0  0  0  0  3  0  0  0  0  0  0
  180.5860  174.9150  137.7210 N   0  0  0  0  0  0  0  0  0  0  0  0
  182.7900  175.8540  137.5130 C   0  0  2  0  0  3  0  0  0  0  0  0
  181.4040  179.1280  138.8680 C   0  0  0  0  0  3  0  0  0  0  0  0
  179.4360  180.5690  139.4920 O   0  0  0  0  0  0  0  0  0  0  0  0
  180.4980  180.9240  137.3040 C   0  0  0  0  0  2  0  0  0  0  0  0
  180.6060  180.3910  138.7100 C   0  0  0  0  0  0  0  0  0  0  0  0
  179.8030  180.3020  140.8210 C   0  0  0  0  0  2  0  0  0  0  0  0
  180.1520  178.8010  140.9640 C   0  0  0  0  0  2  0  0  0  0  0  0
  181.2110  178.3760  139.9640 C   0  0  0  0  0  0  0  0  0  0  0  0
  181.3500  181.6710  138.3430 C   0  0  0  0  0  2  0  0  0  0  0  0
  179.0940  172.7740  136.4720 C   0  0  0  0  0  3  0  0  0  0  0  0
  179.1940  171.5050  136.8430 C   0  0  0  0  0  2  0  0  0  0  0  0
  1 10  1  0  0  0  0
  2 27  1  0  0  0  0
  2  5  1  0  0  0  0
  3 13  1  0  0  0  0
  4  1  1  1  0  0  0
  5 17  2  0  0  0  0
  6 18  1  0  0  0  0
  6 11  1  0  0  0  0
  8  7  1  0  0  0  0
  9  5  1  0  0  0  0
 11 15  2  0  0  0  0
 12 10  1  0  0  0  0
 12  7  1  0  0  0  0
 13 14  2  0  0  0  0
 15 14  1  0  0  0  0
 15  8  1  0  0  0  0
 16  3  2  0  0  0  0
 16 11  1  0  0  0  0
 17  4  1  0  0  0  0
 18  9  1  6  0  0  0
 18  4  1  0  0  0  0
 19 25  2  0  0  0  0
 20 23  1  0  0  0  0
 21 26  1  0  0  0  0
 21 22  1  0  0  0  0
 22 19  1  0  0  0  0
 22 20  1  0  0  0  0
 23 24  1  0  0  0  0
 25 10  1  0  0  0  0
 25 24  1  0  0  0  0
 26 22  1  0  0  0  0
 27 28  2  0  0  0  0
M  END
>  <MODEL>
9

>  <REMARK>
 VINA RESULT:      -5.7      5.079      8.890
  Name = 
  2 active torsions:
  status: ('A' for Active; 'I' for Inactive)
    1  A    between atoms: N_2  and  C_7
    2  A    between atoms: N_16  and  C_24
                            x       y       z     vdW  Elec       q    Type
                         _______ _______ _______ _____ _____    ______ ____

>  <TORSDO>
F 2

$$$$
