=
 OpenBabel10222415153D

 65 73  0  0  1  0  0  0  0  0999 V2000
  190.1360  178.8040  142.8080 C   0  0  2  0  0  3  0  0  0  0  0  0
  190.1610  178.6660  144.3330 C   0  0  2  0  0  3  0  0  0  0  0  0
  190.3390  177.5020  142.0270 C   0  0  2  0  0  3  0  0  0  0  0  0
  192.3840  177.9320  143.2190 C   0  0  0  0  0  2  0  0  0  0  0  0
  191.4300  179.0720  143.5710 C   0  0  1  0  0  3  0  0  0  0  0  0
  191.8400  177.2870  141.9660 C   0  0  0  0  0  2  0  0  0  0  0  0
  190.5180  177.4370  139.5070 C   0  0  0  0  0  3  0  0  0  0  0  0
  189.8630  177.5430  138.2960 C   0  0  0  0  0  0  0  0  0  0  0  0
  189.6960  177.5510  140.6610 C   0  0  0  0  0  0  0  0  0  0  0  0
  190.4250  176.0480  136.4350 C   0  0  1  0  0  3  0  0  0  0  0  0
  187.6380  177.9150  139.2780 C   0  0  0  0  0  3  0  0  0  0  0  0
  190.0040  177.4750  136.8130 C   0  0  1  0  0  3  0  0  0  0  0  0
  188.2500  175.6670  135.3700 C   0  0  0  0  0  3  0  0  0  0  0  0
  187.7040  176.6720  136.0710 C   0  0  0  0  0  0  0  0  0  0  0  0
  188.5620  177.7630  136.6940 C   0  0  1  0  0  3  0  0  0  0  0  0
  189.7310  175.6020  135.1580 C   0  0  0  0  0  2  0  0  0  0  0  0
  188.2870  177.8080  140.5330 C   0  0  0  0  0  3  0  0  0  0  0  0
  188.4670  177.7690  138.1850 C   0  0  0  0  0  0  0  0  0  0  0  0
  192.1990  174.6420  138.1470 O   0  0  0  0  0  0  0  0  0  0  0  0
  194.1150  175.2460  136.9590 N   0  0  0  0  0  2  0  0  0  0  0  0
  191.8680  175.9870  136.2700 N   0  0  0  0  0  2  0  0  0  0  0  0
  192.7030  175.2600  137.1700 C   0  0  0  0  0  0  0  0  0  0  0  0
  195.0320  174.5660  137.8620 C   0  0  1  0  0  3  0  0  0  0  0  0
  197.3140  171.9940  136.4660 O   0  0  0  0  0  1  0  0  0  0  0  0
  196.6710  173.0990  137.0060 C   0  0  0  0  0  0  0  0  0  0  0  0
  195.2320  173.1200  137.3890 C   0  0  1  0  0  3  0  0  0  0  0  0
  196.3220  175.1580  137.7710 O   0  0  0  0  0  0  0  0  0  0  0  0
  195.0150  172.2160  138.5070 N   0  0  0  0  0  1  0  0  0  0  0  0
  197.2380  174.2670  137.2490 C   0  0  0  0  0  0  0  0  0  0  0  0
  198.5760  174.6170  137.0270 O   0  0  0  0  0  0  0  0  0  0  0  0
  199.1790  174.6480  135.7430 C   0  0  0  0  0  1  0  0  0  0  0  0
  185.7640  178.1130  136.1770 N   0  0  0  0  0  1  0  0  0  0  0  0
  186.2170  176.7340  136.2320 C   0  0  0  0  0  2  0  0  0  0  0  0
  190.1800  177.2310  144.8790 C   0  0  0  0  0  2  0  0  0  0  0  0
  188.8070  176.8280  145.3950 C   0  0  0  0  0  2  0  0  0  0  0  0
  187.8520  176.5020  144.2560 C   0  0  0  0  0  2  0  0  0  0  0  0
  187.0500  177.7240  143.8290 C   0  0  0  0  0  2  0  0  0  0  0  0
  185.5610  177.4160  143.7370 C   0  0  0  0  0  2  0  0  0  0  0  0
  184.7920  178.6600  143.3000 C   0  0  0  0  0  2  0  0  0  0  0  0
  183.7890  179.1320  144.3500 C   0  0  1  0  0  3  0  0  0  0  0  0
  182.4190  178.9480  143.8820 N   0  0  0  0  0  2  0  0  0  0  0  0
  183.0010  178.8800  141.5820 N   0  0  0  0  0  0  0  0  0  0  0  0
  180.4160  178.6230  141.9500 S   0  0  0  0  0  0  0  0  0  0  0  0
  182.0960  178.8260  142.4950 C   0  0  0  0  0  0  0  0  0  0  0  0
  180.9860  178.9050  140.2430 C   0  0  1  0  0  3  0  0  0  0  0  0
  182.5100  178.7540  140.2230 C   0  0  1  0  0  3  0  0  0  0  0  0
  184.4670  179.7420  139.0630 C   0  0  0  0  0  2  0  0  0  0  0  0
  183.1620  179.7690  139.3310 C   0  0  0  0  0  3  0  0  0  0  0  0
  180.3780  177.9180  139.3640 N   0  0  0  0  0  2  0  0  0  0  0  0
  181.5350  175.7900  139.3440 C   0  0  0  0  0  2  0  0  0  0  0  0
  178.9320  175.5940  138.4710 O   0  0  0  0  0  0  0  0  0  0  0  0
  180.4630  176.6170  140.0120 C   0  0  2  0  0  3  0  0  0  0  0  0
  180.9620  174.4840  139.0360 N   0  0  0  0  0  0  0  0  0  0  0  0
  179.5070  174.5480  139.2280 C   0  0  1  0  0  3  0  0  0  0  0  0
  179.1630  175.8520  139.8360 C   0  0  2  0  0  3  0  0  0  0  0  0
  180.3890  173.0380  136.8690 O   0  0  0  0  0  0  0  0  0  0  0  0
  181.2020  175.3230  136.5340 O   0  0  0  0  0  0  0  0  0  0  0  0
  181.3340  174.0890  137.3820 S   0  0  0  0  0  0  0  0  0  0  0  0
  183.9020  174.5430  137.3610 O   0  0  0  0  0  1  0  0  0  0  0  0
  183.0050  173.4810  137.2580 C   0  0  0  0  0  2  0  0  0  0  0  0
  184.0150  178.4070  145.6740 C   0  0  0  0  0  2  0  0  0  0  0  0
  185.1750  178.9900  146.4060 C   0  0  0  0  0  0  0  0  0  0  0  0
  185.5720  180.1530  146.1190 O   0  0  0  0  0  0  0  0  0  0  0  0
  187.1790  178.4200  147.7090 C   0  0  0  0  0  1  0  0  0  0  0  0
  185.8060  178.2410  147.3980 O   0  0  0  0  0  0  0  0  0  0  0  0
  1  5  1  0  0  0  0
  1  2  1  0  0  0  0
  2 34  1  0  0  0  0
  3  1  1  0  0  0  0
  4  5  1  0  0  0  0
  5  2  1  0  0  0  0
  6  3  1  0  0  0  0
  6  4  1  0  0  0  0
  7  9  1  0  0  0  0
  8  7  2  0  0  0  0
  9  3  1  0  0  0  0
 10 12  1  0  0  0  0
 11 17  1  0  0  0  0
 12  8  1  0  0  0  0
 13 14  2  0  0  0  0
 14 33  1  0  0  0  0
 14 15  1  0  0  0  0
 15 12  1  0  0  0  0
 15 18  1  0  0  0  0
 16 13  1  0  0  0  0
 16 10  1  0  0  0  0
 17  9  2  0  0  0  0
 18  8  1  0  0  0  0
 18 11  2  0  0  0  0
 20 22  1  0  0  0  0
 20 23  1  0  0  0  0
 21 10  1  0  0  0  0
 21 22  1  0  0  0  0
 22 19  2  0  0  0  0
 24 25  1  0  0  0  0
 25 29  2  0  0  0  0
 25 26  1  0  0  0  0
 26 23  1  0  0  0  0
 26 28  1  0  0  0  0
 27 23  1  0  0  0  0
 29 27  1  0  0  0  0
 30 29  1  0  0  0  0
 31 30  1  0  0  0  0
 32 33  1  0  0  0  0
 34 35  1  0  0  0  0
 36 35  1  0  0  0  0
 37 36  1  0  0  0  0
 38 37  1  0  0  0  0
 39 38  1  0  0  0  0
 39 40  1  0  0  0  0
 40 61  1  0  0  0  0
 41 40  1  0  0  0  0
 42 44  2  0  0  0  0
 43 44  1  0  0  0  0
 44 41  1  0  0  0  0
 45 43  1  0  0  0  0
 46 45  1  0  0  0  0
 46 42  1  0  0  0  0
 47 48  2  0  0  0  0
 48 46  1  0  0  0  0
 49 52  1  0  0  0  0
 49 45  1  0  0  0  0
 50 52  1  0  0  0  0
 51 54  1  0  0  0  0
 51 55  1  0  0  0  0
 53 54  1  0  0  0  0
 53 50  1  0  0  0  0
 54 55  1  0  0  0  0
 55 52  1  0  0  0  0
 56 58  2  0  0  0  0
 57 58  2  0  0  0  0
 58 53  1  0  0  0  0
 60 59  1  0  0  0  0
 60 58  1  0  0  0  0
 61 62  1  0  0  0  0
 62 65  1  0  0  0  0
 63 62  2  0  0  0  0
 65 64  1  0  0  0  0
M  END
>  <MODEL>
1

>  <REMARK>
 VINA RESULT:      -6.8      0.000      0.000
  Name = 
  21 active torsions:
  status: ('A' for Active; 'I' for Inactive)
    1  A    between atoms: N_8  and  C_44
    2  A    between atoms: C_9  and  N_35
    3  A    between atoms: C_11  and  C_34
    4  A    between atoms: S_12  and  N_24
    5  A    between atoms: S_12  and  C_57
    6  A    between atoms: C_14  and  C_16
    7  A    between atoms: C_18  and  N_27
    8  A    between atoms: C_20  and  C_42
    9  A    between atoms: C_20  and  C_44
   10  A    between atoms: O_21  and  C_42
   11  A    between atoms: C_23  and  C_45
   12  A    between atoms: C_23  and  C_48
   13  A    between atoms: C_26  and  C_44
   14  A    between atoms: C_26  and  C_48
   15  A    between atoms: N_27  and  C_52
   16  A    between atoms: C_29  and  N_58
   17  A    between atoms: C_34  and  C_47
   18  A    between atoms: C_39  and  C_62
   19  A    between atoms: O_41  and  C_60
   20  A    between atoms: C_45  and  C_47
   21  A    between atoms: C_54  and  C_59
                            x       y       z     vdW  Elec       q    Type
                         _______ _______ _______ _____ _____    ______ ____

>  <TORSDO>
F 21

$$$$
=
 OpenBabel10222415153D

 65 73  0  0  1  0  0  0  0  0999 V2000
  184.7920  177.6170  140.8600 C   0  0  2  0  0  3  0  0  0  0  0  0
  184.2770  178.0060  142.2480 C   0  0  2  0  0  3  0  0  0  0  0  0
  185.3780  178.7640  140.0310 C   0  0  2  0  0  3  0  0  0  0  0  0
  183.0390  179.2390  140.3330 C   0  0  0  0  0  2  0  0  0  0  0  0
  183.3110  177.9220  141.0590 C   0  0  1  0  0  3  0  0  0  0  0  0
  184.1920  179.4500  139.3800 C   0  0  0  0  0  2  0  0  0  0  0  0
  187.7720  178.2610  139.3960 C   0  0  0  0  0  3  0  0  0  0  0  0
  188.6470  177.8530  138.4090 C   0  0  0  0  0  0  0  0  0  0  0  0
  186.3990  178.2780  139.0290 C   0  0  0  0  0  0  0  0  0  0  0  0
  190.5130  176.3510  138.9360 C   0  0  1  0  0  3  0  0  0  0  0  0
  186.9120  177.5180  136.6970 C   0  0  0  0  0  3  0  0  0  0  0  0
  190.0680  177.5440  138.0780 C   0  0  1  0  0  3  0  0  0  0  0  0
  190.6550  174.9410  136.9350 C   0  0  0  0  0  3  0  0  0  0  0  0
  189.8450  175.7730  136.2630 C   0  0  0  0  0  0  0  0  0  0  0  0
  189.6440  177.2150  136.7040 C   0  0  1  0  0  3  0  0  0  0  0  0
  191.4100  175.4180  138.1370 C   0  0  0  0  0  2  0  0  0  0  0  0
  185.9950  177.9310  137.6930 C   0  0  0  0  0  3  0  0  0  0  0  0
  188.2310  177.4870  137.1040 C   0  0  0  0  0  0  0  0  0  0  0  0
  189.2560  177.4540  141.2290 O   0  0  0  0  0  0  0  0  0  0  0  0
  191.2580  177.8290  142.3700 N   0  0  0  0  0  2  0  0  0  0  0  0
  191.2100  176.8270  140.1190 N   0  0  0  0  0  2  0  0  0  0  0  0
  190.5150  177.3710  141.2400 C   0  0  0  0  0  0  0  0  0  0  0  0
  190.6200  178.4390  143.5270 C   0  0  1  0  0  3  0  0  0  0  0  0
  188.7490  176.2580  145.8760 O   0  0  0  0  0  1  0  0  0  0  0  0
  189.6230  177.0860  145.1840 C   0  0  0  0  0  0  0  0  0  0  0  0
  189.3250  177.6820  143.8520 C   0  0  1  0  0  3  0  0  0  0  0  0
  191.4390  178.2630  144.6760 O   0  0  0  0  0  0  0  0  0  0  0  0
  188.2330  178.6320  143.9800 N   0  0  0  0  0  1  0  0  0  0  0  0
  190.8200  177.4510  145.6050 C   0  0  0  0  0  0  0  0  0  0  0  0
  191.4340  177.0950  146.8120 O   0  0  0  0  0  0  0  0  0  0  0  0
  192.3080  175.9860  146.9540 C   0  0  0  0  0  1  0  0  0  0  0  0
  189.5470  173.9200  134.7370 N   0  0  0  0  0  1  0  0  0  0  0  0
  189.1360  175.2790  135.0410 C   0  0  0  0  0  2  0  0  0  0  0  0
  184.5950  179.4360  142.7090 C   0  0  0  0  0  2  0  0  0  0  0  0
  183.8440  179.7740  143.9880 C   0  0  0  0  0  2  0  0  0  0  0  0
  182.7960  178.7220  144.3190 C   0  0  0  0  0  2  0  0  0  0  0  0
  181.3990  179.1750  143.9150 C   0  0  0  0  0  2  0  0  0  0  0  0
  180.6580  178.0920  143.1420 C   0  0  0  0  0  2  0  0  0  0  0  0
  179.5080  178.7050  142.3470 C   0  0  0  0  0  2  0  0  0  0  0  0
  179.7030  178.5840  140.8380 C   0  0  1  0  0  3  0  0  0  0  0  0
  179.3030  177.2630  140.3650 N   0  0  0  0  0  2  0  0  0  0  0  0
  180.1890  177.5540  138.1840 N   0  0  0  0  0  0  0  0  0  0  0  0
  179.0600  175.2040  138.4800 S   0  0  0  0  0  0  0  0  0  0  0  0
  179.5770  176.8110  139.0380 C   0  0  0  0  0  0  0  0  0  0  0  0
  179.5060  175.7020  136.7850 C   0  0  1  0  0  3  0  0  0  0  0  0
  180.3790  176.9560  136.8750 C   0  0  1  0  0  3  0  0  0  0  0  0
  179.1710  178.9250  135.9730 C   0  0  0  0  0  2  0  0  0  0  0  0
  180.0550  177.9430  135.7930 C   0  0  0  0  0  3  0  0  0  0  0  0
  180.2480  174.6240  136.1480 N   0  0  0  0  0  2  0  0  0  0  0  0
  182.3900  174.0780  137.1380 C   0  0  0  0  0  2  0  0  0  0  0  0
  181.3010  171.9770  135.7320 O   0  0  0  0  0  0  0  0  0  0  0  0
  180.8990  173.8430  137.1890 C   0  0  2  0  0  3  0  0  0  0  0  0
  183.0470  172.7760  137.1430 N   0  0  0  0  0  0  0  0  0  0  0  0
  182.0350  171.7350  136.9150 C   0  0  1  0  0  3  0  0  0  0  0  0
  180.6940  172.3580  136.9450 C   0  0  2  0  0  3  0  0  0  0  0  0
  184.7410  171.3470  135.6580 O   0  0  0  0  0  0  0  0  0  0  0  0
  183.6120  173.2420  134.5970 O   0  0  0  0  0  0  0  0  0  0  0  0
  184.2360  172.7470  135.8710 S   0  0  0  0  0  0  0  0  0  0  0  0
  186.1220  173.4370  137.5340 O   0  0  0  0  0  1  0  0  0  0  0  0
  185.6080  173.8040  136.2910 C   0  0  0  0  0  2  0  0  0  0  0  0
  178.9350  179.6820  140.1070 C   0  0  0  0  0  2  0  0  0  0  0  0
  179.7060  180.9570  140.1050 C   0  0  0  0  0  0  0  0  0  0  0  0
  179.5760  181.7650  141.0640 O   0  0  0  0  0  0  0  0  0  0  0  0
  180.4720  182.4570  138.3160 C   0  0  0  0  0  1  0  0  0  0  0  0
  180.5590  181.2400  139.0400 O   0  0  0  0  0  0  0  0  0  0  0  0
  1  5  1  0  0  0  0
  1  2  1  0  0  0  0
  2 34  1  0  0  0  0
  3  1  1  0  0  0  0
  4  5  1  0  0  0  0
  5  2  1  0  0  0  0
  6  3  1  0  0  0  0
  6  4  1  0  0  0  0
  8  7  2  0  0  0  0
  9  7  1  0  0  0  0
  9  3  1  0  0  0  0
 10 21  1  0  0  0  0
 11 18  2  0  0  0  0
 11 17  1  0  0  0  0
 12  8  1  0  0  0  0
 12 10  1  0  0  0  0
 13 16  1  0  0  0  0
 14 15  1  0  0  0  0
 14 13  2  0  0  0  0
 15 18  1  0  0  0  0
 15 12  1  0  0  0  0
 16 10  1  0  0  0  0
 17  9  2  0  0  0  0
 18  8  1  0  0  0  0
 19 22  2  0  0  0  0
 20 23  1  0  0  0  0
 21 22  1  0  0  0  0
 22 20  1  0  0  0  0
 23 26  1  0  0  0  0
 23 27  1  0  0  0  0
 25 29  2  0  0  0  0
 25 24  1  0  0  0  0
 26 28  1  0  0  0  0
 26 25  1  0  0  0  0
 27 29  1  0  0  0  0
 29 30  1  0  0  0  0
 30 31  1  0  0  0  0
 32 33  1  0  0  0  0
 33 14  1  0  0  0  0
 34 35  1  0  0  0  0
 35 36  1  0  0  0  0
 37 36  1  0  0  0  0
 38 37  1  0  0  0  0
 39 38  1  0  0  0  0
 40 39  1  0  0  0  0
 41 40  1  0  0  0  0
 42 44  2  0  0  0  0
 43 44  1  0  0  0  0
 44 41  1  0  0  0  0
 45 46  1  0  0  0  0
 45 43  1  0  0  0  0
 46 42  1  0  0  0  0
 48 47  2  0  0  0  0
 48 46  1  0  0  0  0
 49 45  1  0  0  0  0
 49 52  1  0  0  0  0
 50 53  1  0  0  0  0
 50 52  1  0  0  0  0
 51 54  1  0  0  0  0
 51 55  1  0  0  0  0
 54 55  1  0  0  0  0
 54 53  1  0  0  0  0
 55 52  1  0  0  0  0
 56 58  2  0  0  0  0
 57 58  2  0  0  0  0
 58 60  1  0  0  0  0
 58 53  1  0  0  0  0
 60 59  1  0  0  0  0
 61 40  1  0  0  0  0
 62 61  1  0  0  0  0
 62 63  2  0  0  0  0
 64 65  1  0  0  0  0
 65 62  1  0  0  0  0
M  END
>  <MODEL>
2

>  <REMARK>
 VINA RESULT:      -5.7      3.635      6.531
  Name = 
  21 active torsions:
  status: ('A' for Active; 'I' for Inactive)
    1  A    between atoms: N_8  and  C_44
    2  A    between atoms: C_9  and  N_35
    3  A    between atoms: C_11  and  C_34
    4  A    between atoms: S_12  and  N_24
    5  A    between atoms: S_12  and  C_57
    6  A    between atoms: C_14  and  C_16
    7  A    between atoms: C_18  and  N_27
    8  A    between atoms: C_20  and  C_42
    9  A    between atoms: C_20  and  C_44
   10  A    between atoms: O_21  and  C_42
   11  A    between atoms: C_23  and  C_45
   12  A    between atoms: C_23  and  C_48
   13  A    between atoms: C_26  and  C_44
   14  A    between atoms: C_26  and  C_48
   15  A    between atoms: N_27  and  C_52
   16  A    between atoms: C_29  and  N_58
   17  A    between atoms: C_34  and  C_47
   18  A    between atoms: C_39  and  C_62
   19  A    between atoms: O_41  and  C_60
   20  A    between atoms: C_45  and  C_47
   21  A    between atoms: C_54  and  C_59
                            x       y       z     vdW  Elec       q    Type
                         _______ _______ _______ _____ _____    ______ ____

>  <TORSDO>
F 21

$$$$
=
 OpenBabel10222415153D

 65 73  0  0  1  0  0  0  0  0999 V2000
  183.0020  179.0880  143.3140 C   0  0  2  0  0  3  0  0  0  0  0  0
  183.3690  178.7800  144.7690 C   0  0  2  0  0  3  0  0  0  0  0  0
  183.8230  178.3430  142.2570 C   0  0  2  0  0  3  0  0  0  0  0  0
  185.3400  179.7990  143.4270 C   0  0  0  0  0  2  0  0  0  0  0  0
  183.9650  180.0050  144.0620 C   0  0  1  0  0  3  0  0  0  0  0  0
  185.1000  179.1450  142.0870 C   0  0  0  0  0  2  0  0  0  0  0  0
  183.5660  177.2740  139.9820 C   0  0  0  0  0  3  0  0  0  0  0  0
  182.8410  177.2080  138.8090 C   0  0  0  0  0  0  0  0  0  0  0  0
  183.0620  178.1680  140.9640 C   0  0  0  0  0  0  0  0  0  0  0  0
  182.4150  175.0510  137.7220 C   0  0  1  0  0  3  0  0  0  0  0  0
  181.1720  178.8840  139.4830 C   0  0  0  0  0  3  0  0  0  0  0  0
  182.7090  176.5380  137.4830 C   0  0  1  0  0  3  0  0  0  0  0  0
  180.1500  175.3340  136.8260 C   0  0  0  0  0  3  0  0  0  0  0  0
  180.2030  176.6570  137.0470 C   0  0  0  0  0  0  0  0  0  0  0  0
  181.5300  177.3820  137.2100 C   0  0  1  0  0  3  0  0  0  0  0  0
  181.4080  174.5310  136.7080 C   0  0  0  0  0  2  0  0  0  0  0  0
  181.8970  178.9680  140.6960 C   0  0  0  0  0  3  0  0  0  0  0  0
  181.6790  177.9830  138.5680 C   0  0  0  0  0  0  0  0  0  0  0  0
  184.1960  175.0540  135.5120 O   0  0  0  0  0  0  0  0  0  0  0  0
  185.6930  173.5500  136.4840 N   0  0  0  0  0  2  0  0  0  0  0  0
  183.6470  174.2850  137.6450 N   0  0  0  0  0  2  0  0  0  0  0  0
  184.4990  174.3330  136.5020 C   0  0  0  0  0  0  0  0  0  0  0  0
  186.5830  173.5110  135.3340 C   0  0  1  0  0  3  0  0  0  0  0  0
  190.2460  173.4390  135.9290 O   0  0  0  0  0  1  0  0  0  0  0  0
  188.9060  173.2210  135.6400 C   0  0  0  0  0  0  0  0  0  0  0  0
  187.8670  174.2880  135.6580 C   0  0  1  0  0  3  0  0  0  0  0  0
  187.0170  172.1760  135.1060 O   0  0  0  0  0  0  0  0  0  0  0  0
  188.1330  175.2410  134.5940 N   0  0  0  0  0  1  0  0  0  0  0  0
  188.3760  172.0560  135.3160 C   0  0  0  0  0  0  0  0  0  0  0  0
  189.0450  170.8310  135.1890 O   0  0  0  0  0  0  0  0  0  0  0  0
  190.4360  170.7160  134.9320 C   0  0  0  0  0  1  0  0  0  0  0  0
  179.0040  178.5950  136.2390 N   0  0  0  0  0  1  0  0  0  0  0  0
  178.9310  177.4410  137.1180 C   0  0  0  0  0  2  0  0  0  0  0  0
  184.3610  177.6270  144.9840 C   0  0  0  0  0  2  0  0  0  0  0  0
  184.9070  177.6380  146.4040 C   0  0  0  0  0  2  0  0  0  0  0  0
  186.3640  178.0740  146.4430 C   0  0  0  0  0  2  0  0  0  0  0  0
  186.5830  179.2120  147.4300 C   0  0  0  0  0  2  0  0  0  0  0  0
  187.8140  178.9770  148.2960 C   0  0  0  0  0  2  0  0  0  0  0  0
  188.2720  177.5250  148.1770 C   0  0  0  0  0  2  0  0  0  0  0  0
  189.6290  177.3900  147.4930 C   0  0  1  0  0  3  0  0  0  0  0  0
  189.6550  178.1300  146.2350 N   0  0  0  0  0  2  0  0  0  0  0  0
  189.9730  176.2100  144.8780 N   0  0  0  0  0  0  0  0  0  0  0  0
  189.8740  178.4130  143.4570 S   0  0  0  0  0  0  0  0  0  0  0  0
  189.8260  177.4850  144.9720 C   0  0  0  0  0  0  0  0  0  0  0  0
  190.4230  176.9000  142.6040 C   0  0  1  0  0  3  0  0  0  0  0  0
  190.1480  175.7100  143.5280 C   0  0  1  0  0  3  0  0  0  0  0  0
  192.2700  174.7180  144.3430 C   0  0  0  0  0  2  0  0  0  0  0  0
  191.2540  174.6970  143.4800 C   0  0  0  0  0  3  0  0  0  0  0  0
  189.6760  176.7490  141.3640 N   0  0  0  0  0  2  0  0  0  0  0  0
  188.6310  178.4860  140.0380 C   0  0  0  0  0  2  0  0  0  0  0  0
  189.9610  176.6300  138.5010 O   0  0  0  0  0  0  0  0  0  0  0  0
  189.9380  177.9130  140.5310 C   0  0  2  0  0  3  0  0  0  0  0  0
  188.7420  178.6740  138.5960 N   0  0  0  0  0  0  0  0  0  0  0  0
  189.9530  177.9910  138.1220 C   0  0  1  0  0  3  0  0  0  0  0  0
  190.7210  177.5130  139.2920 C   0  0  2  0  0  3  0  0  0  0  0  0
  187.1280  176.5740  138.2810 O   0  0  0  0  0  0  0  0  0  0  0  0
  186.1230  178.8050  138.2150 O   0  0  0  0  0  0  0  0  0  0  0  0
  187.3310  177.9950  137.8350 S   0  0  0  0  0  0  0  0  0  0  0  0
  186.3800  178.5970  135.4820 O   0  0  0  0  0  1  0  0  0  0  0  0
  187.5140  178.0300  136.0630 C   0  0  0  0  0  2  0  0  0  0  0  0
  190.7490  177.8520  148.4220 C   0  0  0  0  0  2  0  0  0  0  0  0
  191.9150  176.9280  148.3460 C   0  0  0  0  0  0  0  0  0  0  0  0
  191.8070  175.8380  147.7200 O   0  0  0  0  0  0  0  0  0  0  0  0
  193.6180  176.5510  150.0770 C   0  0  0  0  0  1  0  0  0  0  0  0
  193.1100  177.2810  148.9710 O   0  0  0  0  0  0  0  0  0  0  0  0
  1  5  1  0  0  0  0
  1  2  1  0  0  0  0
  2 34  1  0  0  0  0
  3  1  1  0  0  0  0
  4  5  1  0  0  0  0
  5  2  1  0  0  0  0
  6  3  1  0  0  0  0
  6  4  1  0  0  0  0
  7  9  1  0  0  0  0
  8  7  2  0  0  0  0
  9  3  1  0  0  0  0
 11 17  1  0  0  0  0
 12 10  1  0  0  0  0
 12  8  1  0  0  0  0
 13 14  2  0  0  0  0
 14 33  1  0  0  0  0
 14 15  1  0  0  0  0
 15 12  1  0  0  0  0
 15 18  1  0  0  0  0
 16 13  1  0  0  0  0
 16 10  1  0  0  0  0
 17  9  2  0  0  0  0
 18  8  1  0  0  0  0
 18 11  2  0  0  0  0
 19 22  2  0  0  0  0
 20 22  1  0  0  0  0
 21 10  1  0  0  0  0
 22 21  1  0  0  0  0
 23 26  1  0  0  0  0
 23 20  1  0  0  0  0
 25 26  1  0  0  0  0
 25 24  1  0  0  0  0
 27 29  1  0  0  0  0
 27 23  1  0  0  0  0
 28 26  1  0  0  0  0
 29 25  2  0  0  0  0
 30 29  1  0  0  0  0
 31 30  1  0  0  0  0
 32 33  1  0  0  0  0
 34 35  1  0  0  0  0
 35 36  1  0  0  0  0
 36 37  1  0  0  0  0
 37 38  1  0  0  0  0
 39 38  1  0  0  0  0
 40 39  1  0  0  0  0
 40 61  1  0  0  0  0
 41 40  1  0  0  0  0
 42 44  2  0  0  0  0
 43 44  1  0  0  0  0
 44 41  1  0  0  0  0
 45 43  1  0  0  0  0
 45 46  1  0  0  0  0
 46 42  1  0  0  0  0
 48 46  1  0  0  0  0
 48 47  2  0  0  0  0
 49 45  1  0  0  0  0
 50 52  1  0  0  0  0
 51 55  1  0  0  0  0
 52 49  1  0  0  0  0
 53 50  1  0  0  0  0
 54 51  1  0  0  0  0
 54 53  1  0  0  0  0
 54 55  1  0  0  0  0
 55 52  1  0  0  0  0
 58 57  2  0  0  0  0
 58 56  2  0  0  0  0
 58 53  1  0  0  0  0
 59 60  1  0  0  0  0
 60 58  1  0  0  0  0
 62 61  1  0  0  0  0
 62 65  1  0  0  0  0
 63 62  2  0  0  0  0
 65 64  1  0  0  0  0
M  END
>  <MODEL>
3

>  <REMARK>
 VINA RESULT:      -5.3      4.127      7.953
  Name = 
  21 active torsions:
  status: ('A' for Active; 'I' for Inactive)
    1  A    between atoms: N_8  and  C_44
    2  A    between atoms: C_9  and  N_35
    3  A    between atoms: C_11  and  C_34
    4  A    between atoms: S_12  and  N_24
    5  A    between atoms: S_12  and  C_57
    6  A    between atoms: C_14  and  C_16
    7  A    between atoms: C_18  and  N_27
    8  A    between atoms: C_20  and  C_42
    9  A    between atoms: C_20  and  C_44
   10  A    between atoms: O_21  and  C_42
   11  A    between atoms: C_23  and  C_45
   12  A    between atoms: C_23  and  C_48
   13  A    between atoms: C_26  and  C_44
   14  A    between atoms: C_26  and  C_48
   15  A    between atoms: N_27  and  C_52
   16  A    between atoms: C_29  and  N_58
   17  A    between atoms: C_34  and  C_47
   18  A    between atoms: C_39  and  C_62
   19  A    between atoms: O_41  and  C_60
   20  A    between atoms: C_45  and  C_47
   21  A    between atoms: C_54  and  C_59
                            x       y       z     vdW  Elec       q    Type
                         _______ _______ _______ _____ _____    ______ ____

>  <TORSDO>
F 21

$$$$
=
 OpenBabel10222415153D

 65 73  0  0  1  0  0  0  0  0999 V2000
  188.4450  173.8220  136.6630 C   0  0  2  0  0  3  0  0  0  0  0  0
  189.9460  173.6130  136.4410 C   0  0  2  0  0  3  0  0  0  0  0  0
  187.5710  173.6910  135.4120 C   0  0  2  0  0  3  0  0  0  0  0  0
  188.9930  175.6030  135.0790 C   0  0  0  0  0  2  0  0  0  0  0  0
  189.3530  175.0290  136.4490 C   0  0  1  0  0  3  0  0  0  0  0  0
  187.6380  175.0400  134.7200 C   0  0  0  0  0  2  0  0  0  0  0  0
  185.1820  174.2730  135.9980 C   0  0  0  0  0  3  0  0  0  0  0  0
  183.9300  173.8090  136.3450 C   0  0  0  0  0  0  0  0  0  0  0  0
  186.1590  173.2710  135.7450 C   0  0  0  0  0  0  0  0  0  0  0  0
  181.9100  174.8500  135.4220 C   0  0  1  0  0  3  0  0  0  0  0  0
  184.5420  171.4280  136.2600 C   0  0  0  0  0  3  0  0  0  0  0  0
  182.5240  174.1900  136.6650 C   0  0  1  0  0  3  0  0  0  0  0  0
  180.4020  172.9390  135.1280 C   0  0  0  0  0  3  0  0  0  0  0  0
  181.2030  172.1620  135.8720 C   0  0  0  0  0  0  0  0  0  0  0  0
  182.2100  172.7600  136.8440 C   0  0  1  0  0  3  0  0  0  0  0  0
  180.4590  174.4300  135.2500 C   0  0  0  0  0  2  0  0  0  0  0  0
  185.8350  171.8790  135.8990 C   0  0  0  0  0  3  0  0  0  0  0  0
  183.6170  172.4310  136.4670 C   0  0  0  0  0  0  0  0  0  0  0  0
  180.3960  176.4480  137.2140 O   0  0  0  0  0  0  0  0  0  0  0  0
  181.3490  178.4600  136.5120 N   0  0  0  0  0  2  0  0  0  0  0  0
  182.0060  176.2960  135.5320 N   0  0  0  0  0  2  0  0  0  0  0  0
  181.2140  177.0390  136.4570 C   0  0  0  0  0  0  0  0  0  0  0  0
  180.5400  179.2860  137.3950 C   0  0  1  0  0  3  0  0  0  0  0  0
  181.7850  182.6660  138.2910 O   0  0  0  0  0  1  0  0  0  0  0  0
  181.1510  181.5280  137.8100 C   0  0  0  0  0  0  0  0  0  0  0  0
  181.4610  180.1460  138.2710 C   0  0  1  0  0  3  0  0  0  0  0  0
  179.7950  180.2230  136.6260 O   0  0  0  0  0  0  0  0  0  0  0  0
  181.0710  180.0000  139.6640 N   0  0  0  0  0  1  0  0  0  0  0  0
  180.2020  181.5150  136.8930 C   0  0  0  0  0  0  0  0  0  0  0  0
  179.6460  182.6220  136.2390 O   0  0  0  0  0  0  0  0  0  0  0  0
  180.3710  183.4600  135.3520 C   0  0  0  0  0  1  0  0  0  0  0  0
  179.7170  170.2560  135.9460 N   0  0  0  0  0  1  0  0  0  0  0  0
  181.0950  170.6730  135.7590 C   0  0  0  0  0  2  0  0  0  0  0  0
  190.3570  173.1050  135.0510 C   0  0  0  0  0  2  0  0  0  0  0  0
  191.6510  173.7620  134.5940 C   0  0  0  0  0  2  0  0  0  0  0  0
  192.8370  172.8170  134.7240 C   0  0  0  0  0  2  0  0  0  0  0  0
  192.7920  172.0360  136.0300 C   0  0  0  0  0  2  0  0  0  0  0  0
  193.8470  172.5240  137.0150 C   0  0  0  0  0  2  0  0  0  0  0  0
  193.5070  173.9330  137.4960 C   0  0  0  0  0  2  0  0  0  0  0  0
  194.6960  174.8860  137.4160 C   0  0  1  0  0  3  0  0  0  0  0  0
  194.7000  175.8100  138.5460 N   0  0  0  0  0  2  0  0  0  0  0  0
  192.3390  176.0280  138.6350 N   0  0  0  0  0  0  0  0  0  0  0  0
  193.5300  177.4770  140.4700 S   0  0  0  0  0  0  0  0  0  0  0  0
  193.4960  176.3370  139.1060 C   0  0  0  0  0  0  0  0  0  0  0  0
  191.7520  177.7740  140.2030 C   0  0  1  0  0  3  0  0  0  0  0  0
  191.2150  176.6560  139.3050 C   0  0  1  0  0  3  0  0  0  0  0  0
  189.5500  178.3050  138.4930 C   0  0  0  0  0  2  0  0  0  0  0  0
  190.2250  177.1710  138.3030 C   0  0  0  0  0  3  0  0  0  0  0  0
  191.0650  177.7550  141.4860 N   0  0  0  0  0  2  0  0  0  0  0  0
  188.7040  177.2390  141.6520 C   0  0  0  0  0  2  0  0  0  0  0  0
  190.1340  176.3970  143.8480 O   0  0  0  0  0  0  0  0  0  0  0  0
  190.0910  176.6730  141.4630 C   0  0  2  0  0  3  0  0  0  0  0  0
  188.0470  176.4670  142.7010 N   0  0  0  0  0  0  0  0  0  0  0  0
  189.0500  175.6270  143.3690 C   0  0  1  0  0  3  0  0  0  0  0  0
  190.3250  175.7240  142.6250 C   0  0  2  0  0  3  0  0  0  0  0  0
  187.0810  176.8810  145.1530 O   0  0  0  0  0  0  0  0  0  0  0  0
  188.2690  178.7260  144.0680 O   0  0  0  0  0  0  0  0  0  0  0  0
  187.3330  177.5720  143.8420 S   0  0  0  0  0  0  0  0  0  0  0  0
  185.0730  178.8140  144.2300 O   0  0  0  0  0  1  0  0  0  0  0  0
  185.7900  178.1970  143.2060 C   0  0  0  0  0  2  0  0  0  0  0  0
  196.0060  174.1070  137.3430 C   0  0  0  0  0  2  0  0  0  0  0  0
  197.0130  174.8390  136.5230 C   0  0  0  0  0  0  0  0  0  0  0  0
  198.1500  174.3280  136.3300 O   0  0  0  0  0  0  0  0  0  0  0  0
  196.8020  176.3460  134.5940 C   0  0  0  0  0  1  0  0  0  0  0  0
  196.6840  176.0810  135.9830 O   0  0  0  0  0  0  0  0  0  0  0  0
  2  5  1  0  0  0  0
  2  1  1  0  0  0  0
  3  9  1  0  0  0  0
  3  1  1  0  0  0  0
  4  5  1  0  0  0  0
  5  1  1  0  0  0  0
  6  4  1  0  0  0  0
  6  3  1  0  0  0  0
  7  8  1  0  0  0  0
  8 18  2  0  0  0  0
  8 12  1  0  0  0  0
  9 17  1  0  0  0  0
  9  7  2  0  0  0  0
 10 21  1  0  0  0  0
 10 12  1  0  0  0  0
 11 18  1  0  0  0  0
 12 15  1  0  0  0  0
 13 16  1  0  0  0  0
 13 14  2  0  0  0  0
 14 15  1  0  0  0  0
 16 10  1  0  0  0  0
 17 11  2  0  0  0  0
 18 15  1  0  0  0  0
 20 23  1  0  0  0  0
 21 22  1  0  0  0  0
 22 20  1  0  0  0  0
 22 19  2  0  0  0  0
 23 26  1  0  0  0  0
 25 26  1  0  0  0  0
 25 24  1  0  0  0  0
 26 28  1  0  0  0  0
 27 29  1  0  0  0  0
 27 23  1  0  0  0  0
 29 25  2  0  0  0  0
 30 29  1  0  0  0  0
 31 30  1  0  0  0  0
 33 14  1  0  0  0  0
 33 32  1  0  0  0  0
 34  2  1  0  0  0  0
 35 36  1  0  0  0  0
 35 34  1  0  0  0  0
 36 37  1  0  0  0  0
 37 38  1  0  0  0  0
 38 39  1  0  0  0  0
 40 39  1  0  0  0  0
 40 41  1  0  0  0  0
 41 44  1  0  0  0  0
 42 44  2  0  0  0  0
 42 46  1  0  0  0  0
 44 43  1  0  0  0  0
 45 43  1  0  0  0  0
 45 49  1  0  0  0  0
 46 45  1  0  0  0  0
 48 47  2  0  0  0  0
 48 46  1  0  0  0  0
 50 53  1  0  0  0  0
 52 49  1  0  0  0  0
 52 50  1  0  0  0  0
 52 55  1  0  0  0  0
 53 54  1  0  0  0  0
 53 58  1  0  0  0  0
 54 51  1  0  0  0  0
 55 54  1  0  0  0  0
 55 51  1  0  0  0  0
 58 57  2  0  0  0  0
 58 56  2  0  0  0  0
 60 58  1  0  0  0  0
 60 59  1  0  0  0  0
 61 40  1  0  0  0  0
 62 61  1  0  0  0  0
 63 62  2  0  0  0  0
 64 65  1  0  0  0  0
 65 62  1  0  0  0  0
M  END
>  <MODEL>
4

>  <REMARK>
 VINA RESULT:      -4.1      3.583     11.886
  Name = 
  21 active torsions:
  status: ('A' for Active; 'I' for Inactive)
    1  A    between atoms: N_8  and  C_44
    2  A    between atoms: C_9  and  N_35
    3  A    between atoms: C_11  and  C_34
    4  A    between atoms: S_12  and  N_24
    5  A    between atoms: S_12  and  C_57
    6  A    between atoms: C_14  and  C_16
    7  A    between atoms: C_18  and  N_27
    8  A    between atoms: C_20  and  C_42
    9  A    between atoms: C_20  and  C_44
   10  A    between atoms: O_21  and  C_42
   11  A    between atoms: C_23  and  C_45
   12  A    between atoms: C_23  and  C_48
   13  A    between atoms: C_26  and  C_44
   14  A    between atoms: C_26  and  C_48
   15  A    between atoms: N_27  and  C_52
   16  A    between atoms: C_29  and  N_58
   17  A    between atoms: C_34  and  C_47
   18  A    between atoms: C_39  and  C_62
   19  A    between atoms: O_41  and  C_60
   20  A    between atoms: C_45  and  C_47
   21  A    between atoms: C_54  and  C_59
                            x       y       z     vdW  Elec       q    Type
                         _______ _______ _______ _____ _____    ______ ____

>  <TORSDO>
F 21

$$$$
=
 OpenBabel10222415153D

 65 73  0  0  1  0  0  0  0  0999 V2000
  186.2490  178.2600  136.3790 C   0  0  2  0  0  3  0  0  0  0  0  0
  187.6960  178.0690  135.9140 C   0  0  2  0  0  3  0  0  0  0  0  0
  185.7640  177.2680  137.4410 C   0  0  2  0  0  3  0  0  0  0  0  0
  186.2070  176.0000  135.4440 C   0  0  0  0  0  2  0  0  0  0  0  0
  186.5380  177.4550  135.1160 C   0  0  1  0  0  3  0  0  0  0  0  0
  185.3380  176.0260  136.6800 C   0  0  0  0  0  2  0  0  0  0  0  0
  183.3180  177.7750  137.8260 C   0  0  0  0  0  3  0  0  0  0  0  0
  182.3730  178.3670  138.6380 C   0  0  0  0  0  0  0  0  0  0  0  0
  184.6590  177.8430  138.2940 C   0  0  0  0  0  0  0  0  0  0  0  0
  180.2120  177.2790  139.0410 C   0  0  1  0  0  3  0  0  0  0  0  0
  183.9830  179.1370  140.3310 C   0  0  0  0  0  3  0  0  0  0  0  0
  180.9190  178.6270  138.8430 C   0  0  1  0  0  3  0  0  0  0  0  0
  179.7500  177.8430  141.3820 C   0  0  0  0  0  3  0  0  0  0  0  0
  180.7280  178.7610  141.3790 C   0  0  0  0  0  0  0  0  0  0  0  0
  181.2550  179.3550  140.0810 C   0  0  1  0  0  3  0  0  0  0  0  0
  179.1250  177.3900  140.0980 C   0  0  0  0  0  2  0  0  0  0  0  0
  184.9720  178.5340  139.5160 C   0  0  0  0  0  3  0  0  0  0  0  0
  182.6930  179.0220  139.8540 C   0  0  0  0  0  0  0  0  0  0  0  0
  181.1950  175.1100  137.4960 O   0  0  0  0  0  0  0  0  0  0  0  0
  179.5890  175.3410  135.8180 N   0  0  0  0  0  2  0  0  0  0  0  0
  179.6440  176.8290  137.7810 N   0  0  0  0  0  2  0  0  0  0  0  0
  180.1880  175.7290  137.0540 C   0  0  0  0  0  0  0  0  0  0  0  0
  180.1200  174.2610  134.9990 C   0  0  1  0  0  3  0  0  0  0  0  0
  181.6750  171.3500  136.6980 O   0  0  0  0  0  1  0  0  0  0  0  0
  180.9010  172.2780  136.0130 C   0  0  0  0  0  0  0  0  0  0  0  0
  181.3520  173.6590  135.6880 C   0  0  1  0  0  3  0  0  0  0  0  0
  179.1810  173.1950  134.9440 O   0  0  0  0  0  0  0  0  0  0  0  0
  182.4510  173.6000  134.7390 N   0  0  0  0  0  1  0  0  0  0  0  0
  179.6770  172.0660  135.5650 C   0  0  0  0  0  0  0  0  0  0  0  0
  178.9310  170.8860  135.6760 O   0  0  0  0  0  0  0  0  0  0  0  0
  179.3600  169.6310  135.1700 C   0  0  0  0  0  1  0  0  0  0  0  0
  180.4690  178.7850  143.7830 N   0  0  0  0  0  1  0  0  0  0  0  0
  181.3050  179.2250  142.6790 C   0  0  0  0  0  2  0  0  0  0  0  0
  188.5300  177.0530  136.7070 C   0  0  0  0  0  2  0  0  0  0  0  0
  189.1620  176.0260  135.7770 C   0  0  0  0  0  2  0  0  0  0  0  0
  190.1640  176.6690  134.8300 C   0  0  0  0  0  2  0  0  0  0  0  0
  191.5200  175.9770  134.8930 C   0  0  0  0  0  2  0  0  0  0  0  0
  192.3760  176.5200  136.0290 C   0  0  0  0  0  2  0  0  0  0  0  0
  192.3100  175.5830  137.2330 C   0  0  0  0  0  2  0  0  0  0  0  0
  192.2590  176.3330  138.5610 C   0  0  1  0  0  3  0  0  0  0  0  0
  191.1800  175.8270  139.4040 N   0  0  0  0  0  2  0  0  0  0  0  0
  191.2690  177.6280  140.9460 N   0  0  0  0  0  0  0  0  0  0  0  0
  189.4300  175.8710  141.5920 S   0  0  0  0  0  0  0  0  0  0  0  0
  190.7340  176.5190  140.5710 C   0  0  0  0  0  0  0  0  0  0  0  0
  189.8370  177.1400  142.8340 C   0  0  1  0  0  3  0  0  0  0  0  0
  190.7130  178.2000  142.1590 C   0  0  1  0  0  3  0  0  0  0  0  0
  192.0800  178.0830  144.2240 C   0  0  0  0  0  2  0  0  0  0  0  0
  191.8080  178.6800  143.0640 C   0  0  0  0  0  3  0  0  0  0  0  0
  188.6070  177.7490  143.3190 N   0  0  0  0  0  2  0  0  0  0  0  0
  186.5850  177.1620  144.5170 C   0  0  0  0  0  2  0  0  0  0  0  0
  188.3660  178.5780  146.0660 O   0  0  0  0  0  0  0  0  0  0  0  0
  188.0660  176.9020  144.3720 C   0  0  2  0  0  3  0  0  0  0  0  0
  186.3080  177.3860  145.9310 N   0  0  0  0  0  0  0  0  0  0  0  0
  187.5830  177.5530  146.6420 C   0  0  1  0  0  3  0  0  0  0  0  0
  188.6920  177.2550  145.7100 C   0  0  2  0  0  3  0  0  0  0  0  0
  183.9150  178.4640  146.4110 O   0  0  0  0  0  0  0  0  0  0  0  0
  185.8910  179.6770  147.1960 O   0  0  0  0  0  0  0  0  0  0  0  0
  185.3390  178.8240  146.0890 S   0  0  0  0  0  0  0  0  0  0  0  0
  184.0800  180.1290  144.2140 O   0  0  0  0  0  1  0  0  0  0  0  0
  185.3760  179.7570  144.5700 C   0  0  0  0  0  2  0  0  0  0  0  0
  193.6010  176.2430  139.2820 C   0  0  0  0  0  2  0  0  0  0  0  0
  194.5390  175.3500  138.5440 C   0  0  0  0  0  0  0  0  0  0  0  0
  195.0050  175.7190  137.4310 O   0  0  0  0  0  0  0  0  0  0  0  0
  195.3350  173.0390  138.2870 C   0  0  0  0  0  1  0  0  0  0  0  0
  194.8870  174.1180  139.0940 O   0  0  0  0  0  0  0  0  0  0  0  0
  1  3  1  0  0  0  0
  2  1  1  0  0  0  0
  2 34  1  0  0  0  0
  3  9  1  0  0  0  0
  4  6  1  0  0  0  0
  5  4  1  0  0  0  0
  5  2  1  0  0  0  0
  5  1  1  0  0  0  0
  6  3  1  0  0  0  0
  7  9  2  0  0  0  0
  7  8  1  0  0  0  0
  8 12  1  0  0  0  0
  8 18  2  0  0  0  0
  9 17  1  0  0  0  0
 10 16  1  0  0  0  0
 12 10  1  0  0  0  0
 12 15  1  0  0  0  0
 14 13  2  0  0  0  0
 14 33  1  0  0  0  0
 15 14  1  0  0  0  0
 16 13  1  0  0  0  0
 17 11  2  0  0  0  0
 18 15  1  0  0  0  0
 18 11  1  0  0  0  0
 20 22  1  0  0  0  0
 21 10  1  0  0  0  0
 22 19  2  0  0  0  0
 22 21  1  0  0  0  0
 23 26  1  0  0  0  0
 23 20  1  0  0  0  0
 25 24  1  0  0  0  0
 26 25  1  0  0  0  0
 27 23  1  0  0  0  0
 27 29  1  0  0  0  0
 28 26  1  0  0  0  0
 29 30  1  0  0  0  0
 29 25  2  0  0  0  0
 31 30  1  0  0  0  0
 33 32  1  0  0  0  0
 35 34  1  0  0  0  0
 36 37  1  0  0  0  0
 36 35  1  0  0  0  0
 37 38  1  0  0  0  0
 38 39  1  0  0  0  0
 39 40  1  0  0  0  0
 40 61  1  0  0  0  0
 40 41  1  0  0  0  0
 41 44  1  0  0  0  0
 42 46  1  0  0  0  0
 43 45  1  0  0  0  0
 44 42  2  0  0  0  0
 44 43  1  0  0  0  0
 45 49  1  0  0  0  0
 46 45  1  0  0  0  0
 46 48  1  0  0  0  0
 48 47  2  0  0  0  0
 49 52  1  0  0  0  0
 50 53  1  0  0  0  0
 51 54  1  0  0  0  0
 52 50  1  0  0  0  0
 52 55  1  0  0  0  0
 53 58  1  0  0  0  0
 53 54  1  0  0  0  0
 55 51  1  0  0  0  0
 55 54  1  0  0  0  0
 58 56  2  0  0  0  0
 58 57  2  0  0  0  0
 59 60  1  0  0  0  0
 60 58  1  0  0  0  0
 62 65  1  0  0  0  0
 62 61  1  0  0  0  0
 63 62  2  0  0  0  0
 64 65  1  0  0  0  0
M  END
>  <MODEL>
5

>  <REMARK>
 VINA RESULT:      -4.1      2.672     11.159
  Name = 
  21 active torsions:
  status: ('A' for Active; 'I' for Inactive)
    1  A    between atoms: N_8  and  C_44
    2  A    between atoms: C_9  and  N_35
    3  A    between atoms: C_11  and  C_34
    4  A    between atoms: S_12  and  N_24
    5  A    between atoms: S_12  and  C_57
    6  A    between atoms: C_14  and  C_16
    7  A    between atoms: C_18  and  N_27
    8  A    between atoms: C_20  and  C_42
    9  A    between atoms: C_20  and  C_44
   10  A    between atoms: O_21  and  C_42
   11  A    between atoms: C_23  and  C_45
   12  A    between atoms: C_23  and  C_48
   13  A    between atoms: C_26  and  C_44
   14  A    between atoms: C_26  and  C_48
   15  A    between atoms: N_27  and  C_52
   16  A    between atoms: C_29  and  N_58
   17  A    between atoms: C_34  and  C_47
   18  A    between atoms: C_39  and  C_62
   19  A    between atoms: O_41  and  C_60
   20  A    between atoms: C_45  and  C_47
   21  A    between atoms: C_54  and  C_59
                            x       y       z     vdW  Elec       q    Type
                         _______ _______ _______ _____ _____    ______ ____

>  <TORSDO>
F 21

$$$$
