=
 OpenBabel10222417513D

 53 56  0  0  1  0  0  0  0  0999 V2000
  183.5460  178.7070  144.2970 C   0  0  0  0  0  3  0  0  0  0  0  0
  184.9120  178.4740  144.0750 C   0  0  0  0  0  0  0  0  0  0  0  0
  185.3770  178.3810  142.7360 C   0  0  0  0  0  0  0  0  0  0  0  0
  184.4760  178.5370  141.6760 C   0  0  0  0  0  3  0  0  0  0  0  0
  183.1230  178.7740  141.9140 C   0  0  0  0  0  0  0  0  0  0  0  0
  182.6580  178.8540  143.2310 C   0  0  0  0  0  3  0  0  0  0  0  0
  185.5040  178.6960  146.5760 C   0  0  0  0  0  3  0  0  0  0  0  0
  187.4710  177.8560  146.4700 N   0  0  0  0  0  0  0  0  0  0  0  0
  187.0320  177.8260  145.2240 N   0  0  0  0  0  0  0  0  0  0  0  0
  186.5870  178.3690  147.3070 N   0  0  0  0  0  0  0  0  0  0  0  0
  185.7920  178.3520  145.2650 C   0  0  0  0  0  0  0  0  0  0  0  0
  188.7750  177.3610  146.8740 C   0  0  0  0  0  2  0  0  0  0  0  0
  189.7910  177.8370  145.9480 N   0  0  0  0  0  2  0  0  0  0  0  0
  191.3500  176.7990  144.4130 C   0  0  0  0  0  1  0  0  0  0  0  0
  191.8110  176.9780  146.7350 O   0  0  0  0  0  1  0  0  0  0  0  0
  190.7790  176.7810  145.8150 C   0  0  1  0  0  3  0  0  0  0  0  0
  186.8070  178.1300  142.3830 C   0  0  0  0  0  2  0  0  0  0  0  0
  187.0230  178.3310  140.8970 C   0  0  0  0  0  2  0  0  0  0  0  0
  188.4530  178.7770  140.6620 C   0  0  0  0  0  2  0  0  0  0  0  0
  188.5190  178.0070  138.2250 C   0  0  0  0  0  0  0  0  0  0  0  0
  189.3740  177.2330  137.4630 C   0  0  0  0  0  0  0  0  0  0  0  0
  190.3920  176.8270  138.3100 C   0  0  0  0  0  0  0  0  0  0  0  0
  187.4110  178.6550  137.7860 F   0  0  0  0  0  0  0  0  0  0  0  0
  190.1840  177.3260  139.5480 N   0  0  0  0  0  0  0  0  0  0  0  0
  191.0480  177.1520  140.7070 C   0  0  0  0  0  1  0  0  0  0  0  0
  189.0390  178.0390  139.5040 C   0  0  0  0  0  0  0  0  0  0  0  0
  189.2770  176.9930  135.9960 C   0  0  0  0  0  2  0  0  0  0  0  0
  188.1850  176.1710  135.7280 O   0  0  0  0  0  1  0  0  0  0  0  0
  191.5950  176.0350  137.9090 C   0  0  0  0  0  2  0  0  0  0  0  0
  191.3520  174.6750  138.1140 O   0  0  0  0  0  1  0  0  0  0  0  0
  182.2000  178.9420  140.7460 C   0  0  2  0  0  3  0  0  0  0  0  0
  180.1230  177.8270  141.0920 O   0  0  0  0  0  0  0  0  0  0  0  0
  181.7200  176.5870  139.9270 N   0  0  0  0  0  2  0  0  0  0  0  0
  181.2810  177.7680  140.6010 C   0  0  0  0  0  0  0  0  0  0  0  0
  180.8600  175.4230  139.7800 C   0  0  0  0  0  2  0  0  0  0  0  0
  180.4070  175.2900  138.3340 C   0  0  0  0  0  2  0  0  0  0  0  0
  180.4230  173.8910  137.9260 N   0  0  0  0  0  2  0  0  0  0  0  0
  183.4060  173.6960  136.5550 C   0  0  1  0  0  3  0  0  0  0  0  0
  183.8060  174.1950  135.2970 O   0  0  0  0  0  0  0  0  0  0  0  0
  180.8610  173.8210  136.5350 C   0  0  2  0  0  3  0  0  0  0  0  0
  181.8190  175.2330  134.8030 O   0  0  0  0  0  0  0  0  0  0  0  0
  183.1680  175.3810  135.0320 N   0  0  0  0  0  0  0  0  0  0  0  0
  182.0940  172.9090  136.4000 C   0  0  2  0  0  3  0  0  0  0  0  0
  182.0070  171.8290  137.2840 O   0  0  0  0  0  1  0  0  0  0  0  0
  181.1240  175.2400  136.0260 C   0  0  0  0  0  2  0  0  0  0  0  0
  182.4870  177.9510  136.0070 O   0  0  0  0  0  1  0  0  0  0  0  0
  183.6740  176.7480  136.0540 P   0  0  0  0  0  0  0  0  0  0  0  0
  183.9010  176.2540  137.6580 O   0  0  0  0  0  1  0  0  0  0  0  0
  184.9710  177.3130  135.5200 O   0  0  0  0  0  0  0  0  0  0  0  0
  184.8070  172.6820  137.2690 P   0  0  0  0  0  2  0  0  0  0  0  0
  186.0620  173.7160  136.6600 O   0  0  0  0  0  1  0  0  0  0  0  0
  182.9730  179.2360  139.4660 C   0  0  0  0  0  2  0  0  0  0  0  0
  182.3490  180.2630  138.7580 O   0  0  0  0  0  1  0  0  0  0  0  0
  2  1  1  0  0  0  0
  2 11  1  0  0  0  0
  3  2  2  0  0  0  0
  4  5  2  0  0  0  0
  4  3  1  0  0  0  0
  5  6  1  0  0  0  0
  6  1  2  0  0  0  0
  7 10  2  0  0  0  0
  8 12  1  0  0  0  0
  8 10  1  0  0  0  0
  9 11  2  0  0  0  0
  9  8  1  0  0  0  0
 11  7  1  0  0  0  0
 13 12  1  0  0  0  0
 16 14  1  6  0  0  0
 16 13  1  0  0  0  0
 16 15  1  0  0  0  0
 17  3  1  0  0  0  0
 18 17  1  0  0  0  0
 19 18  1  0  0  0  0
 20 26  2  0  0  0  0
 21 20  1  0  0  0  0
 21 22  2  0  0  0  0
 22 24  1  0  0  0  0
 23 20  1  0  0  0  0
 24 25  1  0  0  0  0
 26 24  1  0  0  0  0
 26 19  1  0  0  0  0
 27 21  1  0  0  0  0
 28 27  1  0  0  0  0
 29 30  1  0  0  0  0
 29 22  1  0  0  0  0
 31 52  1  6  0  0  0
 31  5  1  0  0  0  0
 33 34  1  0  0  0  0
 34 31  1  0  0  0  0
 34 32  2  0  0  0  0
 35 33  1  0  0  0  0
 36 35  1  0  0  0  0
 37 36  1  0  0  0  0
 38 50  1  6  0  0  0
 39 38  1  0  0  0  0
 40 37  1  1  0  0  0
 41 42  1  0  0  0  0
 41 45  1  0  0  0  0
 42 39  1  0  0  0  0
 42 47  1  0  0  0  0
 43 40  1  0  0  0  0
 43 38  1  0  0  0  0
 43 44  1  1  0  0  0
 45 40  1  0  0  0  0
 46 47  1  0  0  0  0
 47 48  1  0  0  0  0
 49 47  2  0  0  0  0
 51 50  1  0  0  0  0
 53 52  1  0  0  0  0
M  END
>  <MODEL>
1

>  <REMARK>
 VINA RESULT:      -7.5      0.000      0.000
  Name = 
  19 active torsions:
  status: ('A' for Active; 'I' for Inactive)
    1  A    between atoms: C_2  and  C_3
    2  A    between atoms: C_4  and  N_35
    3  A    between atoms: C_4  and  N_45
    4  A    between atoms: C_5  and  C_19
    5  A    between atoms: N_6  and  C_12
    6  A    between atoms: N_6  and  C_25
    7  A    between atoms: C_10  and  P_15
    8  A    between atoms: C_12  and  C_21
    9  A    between atoms: C_13  and  C_18
   10  A    between atoms: C_13  and  C_48
   11  A    between atoms: C_18  and  C_33
   12  A    between atoms: C_21  and  N_30
   13  A    between atoms: C_22  and  C_34
   14  A    between atoms: P_23  and  N_29
   15  A    between atoms: C_24  and  C_51
   16  A    between atoms: C_34  and  C_42
   17  A    between atoms: C_34  and  C_50
   18  A    between atoms: C_41  and  C_48
   19  A    between atoms: N_45  and  C_52
                            x       y       z     vdW  Elec       q    Type
                         _______ _______ _______ _____ _____    ______ ____

>  <TORSDO>
F 19

$$$$
=
 OpenBabel10222417513D

 53 56  0  0  1  0  0  0  0  0999 V2000
  185.9450  178.8860  140.7240 C   0  0  0  0  0  3  0  0  0  0  0  0
  187.1720  178.2060  140.7410 C   0  0  0  0  0  0  0  0  0  0  0  0
  187.6130  177.6300  141.9620 C   0  0  0  0  0  0  0  0  0  0  0  0
  186.8170  177.7380  143.1080 C   0  0  0  0  0  3  0  0  0  0  0  0
  185.5960  178.4120  143.0730 C   0  0  0  0  0  0  0  0  0  0  0  0
  185.1640  178.9920  141.8760 C   0  0  0  0  0  3  0  0  0  0  0  0
  189.2370  178.5160  139.2260 C   0  0  0  0  0  3  0  0  0  0  0  0
  188.4050  177.6600  137.4480 N   0  0  0  0  0  0  0  0  0  0  0  0
  187.4300  177.5870  138.3360 N   0  0  0  0  0  0  0  0  0  0  0  0
  189.5010  178.2090  137.9410 N   0  0  0  0  0  0  0  0  0  0  0  0
  187.9300  178.1220  139.4670 C   0  0  0  0  0  0  0  0  0  0  0  0
  188.2880  177.1720  136.0860 C   0  0  0  0  0  2  0  0  0  0  0  0
  187.0920  176.3540  135.9560 N   0  0  0  0  0  2  0  0  0  0  0  0
  187.7450  174.1540  136.7310 C   0  0  0  0  0  1  0  0  0  0  0  0
  186.5360  174.4620  134.7120 O   0  0  0  0  0  1  0  0  0  0  0  0
  187.5190  175.0350  135.5220 C   0  0  1  0  0  3  0  0  0  0  0  0
  188.9030  176.8890  142.0970 C   0  0  0  0  0  2  0  0  0  0  0  0
  190.0120  177.8370  142.5080 C   0  0  0  0  0  2  0  0  0  0  0  0
  191.1690  177.0310  143.0630 C   0  0  0  0  0  2  0  0  0  0  0  0
  190.2650  177.7000  145.3590 C   0  0  0  0  0  0  0  0  0  0  0  0
  190.4170  177.2280  146.6490 C   0  0  0  0  0  0  0  0  0  0  0  0
  191.2800  176.1480  146.5700 C   0  0  0  0  0  0  0  0  0  0  0  0
  189.4630  178.7190  144.9630 F   0  0  0  0  0  0  0  0  0  0  0  0
  191.6510  175.9510  145.2870 N   0  0  0  0  0  0  0  0  0  0  0  0
  192.5230  174.8960  144.7900 C   0  0  0  0  0  1  0  0  0  0  0  0
  191.0420  176.8990  144.5450 C   0  0  0  0  0  0  0  0  0  0  0  0
  189.6940  177.7140  147.8580 C   0  0  0  0  0  2  0  0  0  0  0  0
  188.3900  177.2230  147.8530 O   0  0  0  0  0  1  0  0  0  0  0  0
  191.6760  175.2640  147.7100 C   0  0  0  0  0  2  0  0  0  0  0  0
  192.8170  175.7800  148.3300 O   0  0  0  0  0  1  0  0  0  0  0  0
  184.7760  178.4920  144.3240 C   0  0  2  0  0  3  0  0  0  0  0  0
  183.4580  180.4730  144.1840 O   0  0  0  0  0  0  0  0  0  0  0  0
  182.2980  178.4900  143.7710 N   0  0  0  0  0  2  0  0  0  0  0  0
  183.4870  179.2170  144.0870 C   0  0  0  0  0  0  0  0  0  0  0  0
  181.0250  179.1610  143.5490 C   0  0  0  0  0  2  0  0  0  0  0  0
  180.7150  179.2080  142.0610 C   0  0  0  0  0  2  0  0  0  0  0  0
  181.4870  178.1950  141.3510 N   0  0  0  0  0  2  0  0  0  0  0  0
  182.0230  177.9070  138.1190 C   0  0  1  0  0  3  0  0  0  0  0  0
  181.0640  177.9450  137.0850 O   0  0  0  0  0  0  0  0  0  0  0  0
  180.6680  177.6670  140.2650 C   0  0  2  0  0  3  0  0  0  0  0  0
  179.2710  178.4390  138.4310 O   0  0  0  0  0  0  0  0  0  0  0  0
  180.0730  178.8450  137.3890 N   0  0  0  0  0  0  0  0  0  0  0  0
  181.5460  176.9480  139.2240 C   0  0  2  0  0  3  0  0  0  0  0  0
  182.6040  176.2800  139.8490 O   0  0  0  0  0  1  0  0  0  0  0  0
  179.8550  178.8110  139.6550 C   0  0  0  0  0  2  0  0  0  0  0  0
  179.3070  181.5190  137.9210 O   0  0  0  0  0  1  0  0  0  0  0  0
  180.5800  180.5520  137.3690 P   0  0  0  0  0  0  0  0  0  0  0  0
  181.9320  180.7940  138.3600 O   0  0  0  0  0  1  0  0  0  0  0  0
  180.9250  180.9510  135.9520 O   0  0  0  0  0  0  0  0  0  0  0  0
  183.6780  177.4370  137.3850 P   0  0  0  0  0  2  0  0  0  0  0  0
  183.0100  176.3700  136.1880 O   0  0  0  0  0  1  0  0  0  0  0  0
  185.5760  179.0910  145.4740 C   0  0  0  0  0  2  0  0  0  0  0  0
  184.8850  178.9210  146.6750 O   0  0  0  0  0  1  0  0  0  0  0  0
  1  2  2  0  0  0  0
  1  6  1  0  0  0  0
  2  3  1  0  0  0  0
  3 17  1  0  0  0  0
  3  4  2  0  0  0  0
  5  4  1  0  0  0  0
  5 31  1  0  0  0  0
  6  5  2  0  0  0  0
  7 11  1  0  0  0  0
  8 10  1  0  0  0  0
  8  9  1  0  0  0  0
  9 11  2  0  0  0  0
 10  7  2  0  0  0  0
 11  2  1  0  0  0  0
 12  8  1  0  0  0  0
 13 12  1  0  0  0  0
 15 16  1  0  0  0  0
 16 13  1  0  0  0  0
 16 14  1  1  0  0  0
 17 18  1  0  0  0  0
 18 19  1  0  0  0  0
 19 26  1  0  0  0  0
 20 21  1  0  0  0  0
 21 27  1  0  0  0  0
 22 21  2  0  0  0  0
 22 29  1  0  0  0  0
 23 20  1  0  0  0  0
 24 22  1  0  0  0  0
 25 24  1  0  0  0  0
 26 24  1  0  0  0  0
 26 20  2  0  0  0  0
 28 27  1  0  0  0  0
 29 30  1  0  0  0  0
 31 52  1  1  0  0  0
 33 34  1  0  0  0  0
 34 32  2  0  0  0  0
 34 31  1  0  0  0  0
 35 33  1  0  0  0  0
 36 35  1  0  0  0  0
 37 36  1  0  0  0  0
 38 50  1  6  0  0  0
 38 43  1  0  0  0  0
 39 42  1  0  0  0  0
 39 38  1  0  0  0  0
 40 37  1  1  0  0  0
 41 45  1  0  0  0  0
 42 41  1  0  0  0  0
 43 44  1  1  0  0  0
 43 40  1  0  0  0  0
 45 40  1  0  0  0  0
 47 42  1  0  0  0  0
 47 46  1  0  0  0  0
 47 48  1  0  0  0  0
 49 47  2  0  0  0  0
 51 50  1  0  0  0  0
 52 53  1  0  0  0  0
M  END
>  <MODEL>
2

>  <REMARK>
 VINA RESULT:      -6.9      2.938      6.912
  Name = 
  19 active torsions:
  status: ('A' for Active; 'I' for Inactive)
    1  A    between atoms: C_2  and  C_3
    2  A    between atoms: C_4  and  N_35
    3  A    between atoms: C_4  and  N_45
    4  A    between atoms: C_5  and  C_19
    5  A    between atoms: N_6  and  C_12
    6  A    between atoms: N_6  and  C_25
    7  A    between atoms: C_10  and  P_15
    8  A    between atoms: C_12  and  C_21
    9  A    between atoms: C_13  and  C_18
   10  A    between atoms: C_13  and  C_48
   11  A    between atoms: C_18  and  C_33
   12  A    between atoms: C_21  and  N_30
   13  A    between atoms: C_22  and  C_34
   14  A    between atoms: P_23  and  N_29
   15  A    between atoms: C_24  and  C_51
   16  A    between atoms: C_34  and  C_42
   17  A    between atoms: C_34  and  C_50
   18  A    between atoms: C_41  and  C_48
   19  A    between atoms: N_45  and  C_52
                            x       y       z     vdW  Elec       q    Type
                         _______ _______ _______ _____ _____    ______ ____

>  <TORSDO>
F 19

$$$$
=
 OpenBabel10222417513D

 53 56  0  0  1  0  0  0  0  0999 V2000
  190.8830  176.0390  139.1960 C   0  0  0  0  0  3  0  0  0  0  0  0
  190.2240  176.8300  140.1490 C   0  0  0  0  0  0  0  0  0  0  0  0
  188.9570  177.3790  139.8170 C   0  0  0  0  0  0  0  0  0  0  0  0
  188.3900  177.1110  138.5660 C   0  0  0  0  0  3  0  0  0  0  0  0
  189.0560  176.3160  137.6330 C   0  0  0  0  0  0  0  0  0  0  0  0
  190.3100  175.7840  137.9500 C   0  0  0  0  0  3  0  0  0  0  0  0
  191.6390  178.1270  141.8730 C   0  0  0  0  0  3  0  0  0  0  0  0
  191.5090  176.7000  143.4650 N   0  0  0  0  0  0  0  0  0  0  0  0
  190.8260  176.1530  142.4760 N   0  0  0  0  0  0  0  0  0  0  0  0
  192.0110  177.8800  143.1440 N   0  0  0  0  0  0  0  0  0  0  0  0
  190.8940  177.0340  141.4580 C   0  0  0  0  0  0  0  0  0  0  0  0
  191.6720  176.0800  144.7680 C   0  0  0  0  0  2  0  0  0  0  0  0
  191.5840  177.0920  145.8090 N   0  0  0  0  0  2  0  0  0  0  0  0
  192.0740  174.9910  146.9100 C   0  0  0  0  0  1  0  0  0  0  0  0
  192.3130  177.0730  148.0240 O   0  0  0  0  0  1  0  0  0  0  0  0
  191.5360  176.3950  147.0820 C   0  0  1  0  0  3  0  0  0  0  0  0
  188.1690  178.2400  140.7500 C   0  0  0  0  0  2  0  0  0  0  0  0
  187.8390  177.4760  142.0160 C   0  0  0  0  0  2  0  0  0  0  0  0
  186.5260  177.9880  142.5740 C   0  0  0  0  0  2  0  0  0  0  0  0
  187.5100  177.3180  144.8370 C   0  0  0  0  0  0  0  0  0  0  0  0
  187.1580  177.5170  146.1570 C   0  0  0  0  0  0  0  0  0  0  0  0
  185.9850  178.2540  146.1420 C   0  0  0  0  0  0  0  0  0  0  0  0
  188.6230  176.6880  144.3850 F   0  0  0  0  0  0  0  0  0  0  0  0
  185.6210  178.5070  144.8670 N   0  0  0  0  0  0  0  0  0  0  0  0
  184.4660  179.2800  144.4340 C   0  0  0  0  0  1  0  0  0  0  0  0
  186.5420  177.9320  144.0660 C   0  0  0  0  0  0  0  0  0  0  0  0
  187.9530  177.1200  147.3530 C   0  0  0  0  0  2  0  0  0  0  0  0
  188.7730  178.1770  147.7420 O   0  0  0  0  0  1  0  0  0  0  0  0
  185.2700  178.7790  147.3460 C   0  0  0  0  0  2  0  0  0  0  0  0
  185.7790  180.0340  147.6850 O   0  0  0  0  0  1  0  0  0  0  0  0
  188.4040  176.0510  136.3110 C   0  0  2  0  0  3  0  0  0  0  0  0
  187.9950  173.7690  136.8630 O   0  0  0  0  0  0  0  0  0  0  0  0
  186.2090  174.8650  135.8370 N   0  0  0  0  0  2  0  0  0  0  0  0
  187.5370  174.8300  136.3630 C   0  0  0  0  0  0  0  0  0  0  0  0
  185.3440  173.6950  135.8580 C   0  0  0  0  0  2  0  0  0  0  0  0
  184.0170  174.0410  136.5160 C   0  0  0  0  0  2  0  0  0  0  0  0
  184.1810  175.1750  137.4170 N   0  0  0  0  0  2  0  0  0  0  0  0
  183.1760  177.9860  138.7960 C   0  0  1  0  0  3  0  0  0  0  0  0
  182.0030  178.7130  138.5030 O   0  0  0  0  0  0  0  0  0  0  0  0
  183.3890  176.2900  136.9060 C   0  0  2  0  0  3  0  0  0  0  0  0
  181.1330  177.1890  137.0230 O   0  0  0  0  0  0  0  0  0  0  0  0
  180.9710  177.8550  138.2170 N   0  0  0  0  0  0  0  0  0  0  0  0
  183.8940  177.6240  137.4850 C   0  0  2  0  0  3  0  0  0  0  0  0
  185.2860  177.6060  137.6220 O   0  0  0  0  0  1  0  0  0  0  0  0
  181.9130  176.0360  137.2230 C   0  0  0  0  0  2  0  0  0  0  0  0
  181.2930  175.4930  139.7450 O   0  0  0  0  0  1  0  0  0  0  0  0
  180.3790  176.9080  139.6030 P   0  0  0  0  0  0  0  0  0  0  0  0
  180.5030  177.7960  141.0400 O   0  0  0  0  0  1  0  0  0  0  0  0
  178.9310  176.5400  139.3700 O   0  0  0  0  0  0  0  0  0  0  0  0
  184.2270  178.9940  139.9710 P   0  0  0  0  0  2  0  0  0  0  0  0
  184.1460  180.4500  139.0280 O   0  0  0  0  0  1  0  0  0  0  0  0
  189.4330  175.9840  135.1890 C   0  0  0  0  0  2  0  0  0  0  0  0
  190.0580  177.2230  135.0410 O   0  0  0  0  0  1  0  0  0  0  0  0
  1  2  1  0  0  0  0
  2 11  1  0  0  0  0
  3  2  2  0  0  0  0
  3 17  1  0  0  0  0
  4  3  1  0  0  0  0
  5  6  1  0  0  0  0
  5  4  2  0  0  0  0
  6  1  2  0  0  0  0
  7 10  2  0  0  0  0
  8 12  1  0  0  0  0
  9  8  1  0  0  0  0
 10  8  1  0  0  0  0
 11  7  1  0  0  0  0
 11  9  2  0  0  0  0
 12 13  1  0  0  0  0
 13 16  1  0  0  0  0
 16 14  1  6  0  0  0
 16 15  1  0  0  0  0
 17 18  1  0  0  0  0
 18 19  1  0  0  0  0
 19 26  1  0  0  0  0
 20 21  1  0  0  0  0
 21 27  1  0  0  0  0
 22 21  2  0  0  0  0
 22 29  1  0  0  0  0
 23 20  1  0  0  0  0
 24 22  1  0  0  0  0
 25 24  1  0  0  0  0
 26 20  2  0  0  0  0
 26 24  1  0  0  0  0
 27 28  1  0  0  0  0
 29 30  1  0  0  0  0
 31 52  1  6  0  0  0
 31 34  1  0  0  0  0
 31  5  1  0  0  0  0
 33 35  1  0  0  0  0
 33 34  1  0  0  0  0
 34 32  2  0  0  0  0
 35 36  1  0  0  0  0
 36 37  1  0  0  0  0
 38 50  1  1  0  0  0
 39 38  1  0  0  0  0
 40 45  1  0  0  0  0
 40 37  1  1  0  0  0
 40 43  1  0  0  0  0
 41 45  1  0  0  0  0
 41 42  1  0  0  0  0
 42 39  1  0  0  0  0
 42 47  1  0  0  0  0
 43 44  1  1  0  0  0
 43 38  1  0  0  0  0
 47 46  1  0  0  0  0
 47 48  1  0  0  0  0
 49 47  2  0  0  0  0
 51 50  1  0  0  0  0
 53 52  1  0  0  0  0
M  END
>  <MODEL>
3

>  <REMARK>
 VINA RESULT:      -6.8      2.519      6.789
  Name = 
  19 active torsions:
  status: ('A' for Active; 'I' for Inactive)
    1  A    between atoms: C_2  and  C_3
    2  A    between atoms: C_4  and  N_35
    3  A    between atoms: C_4  and  N_45
    4  A    between atoms: C_5  and  C_19
    5  A    between atoms: N_6  and  C_12
    6  A    between atoms: N_6  and  C_25
    7  A    between atoms: C_10  and  P_15
    8  A    between atoms: C_12  and  C_21
    9  A    between atoms: C_13  and  C_18
   10  A    between atoms: C_13  and  C_48
   11  A    between atoms: C_18  and  C_33
   12  A    between atoms: C_21  and  N_30
   13  A    between atoms: C_22  and  C_34
   14  A    between atoms: P_23  and  N_29
   15  A    between atoms: C_24  and  C_51
   16  A    between atoms: C_34  and  C_42
   17  A    between atoms: C_34  and  C_50
   18  A    between atoms: C_41  and  C_48
   19  A    between atoms: N_45  and  C_52
                            x       y       z     vdW  Elec       q    Type
                         _______ _______ _______ _____ _____    ______ ____

>  <TORSDO>
F 19

$$$$
=
 OpenBabel10222417513D

 53 56  0  0  1  0  0  0  0  0999 V2000
  187.1210  177.5340  144.3630 C   0  0  0  0  0  3  0  0  0  0  0  0
  186.1770  178.2000  143.5660 C   0  0  0  0  0  0  0  0  0  0  0  0
  186.5440  178.5720  142.2460 C   0  0  0  0  0  0  0  0  0  0  0  0
  187.8200  178.2580  141.7640 C   0  0  0  0  0  3  0  0  0  0  0  0
  188.7450  177.5900  142.5670 C   0  0  0  0  0  0  0  0  0  0  0  0
  188.3930  177.2320  143.8730 C   0  0  0  0  0  3  0  0  0  0  0  0
  184.5500  178.9460  145.4230 C   0  0  0  0  0  3  0  0  0  0  0  0
  182.7320  178.6610  144.3270 N   0  0  0  0  0  0  0  0  0  0  0  0
  183.6830  178.2930  143.4890 N   0  0  0  0  0  0  0  0  0  0  0  0
  183.2090  179.0580  145.4940 N   0  0  0  0  0  0  0  0  0  0  0  0
  184.8410  178.4630  144.1570 C   0  0  0  0  0  0  0  0  0  0  0  0
  181.3180  178.6500  143.9940 C   0  0  0  0  0  2  0  0  0  0  0  0
  181.0730  179.5280  142.8610 N   0  0  0  0  0  2  0  0  0  0  0  0
  181.2180  178.1510  140.8730 C   0  0  0  0  0  1  0  0  0  0  0  0
  179.5780  177.7660  142.5460 O   0  0  0  0  0  1  0  0  0  0  0  0
  180.2920  178.7750  141.8950 C   0  0  1  0  0  3  0  0  0  0  0  0
  185.6220  179.2880  141.3130 C   0  0  0  0  0  2  0  0  0  0  0  0
  184.9710  178.3050  140.3610 C   0  0  0  0  0  2  0  0  0  0  0  0
  184.8610  178.9430  138.9910 C   0  0  0  0  0  2  0  0  0  0  0  0
  186.5310  177.8410  137.3980 C   0  0  0  0  0  0  0  0  0  0  0  0
  186.4740  176.8160  136.4740 C   0  0  0  0  0  0  0  0  0  0  0  0
  185.1700  176.3500  136.4860 C   0  0  0  0  0  0  0  0  0  0  0  0
  187.6320  178.5500  137.7500 F   0  0  0  0  0  0  0  0  0  0  0  0
  184.4420  177.0520  137.3810 N   0  0  0  0  0  0  0  0  0  0  0  0
  183.0390  176.8420  137.7110 C   0  0  0  0  0  1  0  0  0  0  0  0
  185.2640  177.9680  137.9340 C   0  0  0  0  0  0  0  0  0  0  0  0
  187.6220  176.2510  135.7110 C   0  0  0  0  0  2  0  0  0  0  0  0
  188.1560  177.2290  134.8750 O   0  0  0  0  0  1  0  0  0  0  0  0
  184.6530  175.1850  135.7040 C   0  0  0  0  0  2  0  0  0  0  0  0
  184.1510  174.2180  136.5770 O   0  0  0  0  0  1  0  0  0  0  0  0
  190.0950  177.2680  142.0040 C   0  0  2  0  0  3  0  0  0  0  0  0
  189.7600  178.2970  139.8810 O   0  0  0  0  0  0  0  0  0  0  0  0
  190.3880  176.0500  139.7950 N   0  0  0  0  0  2  0  0  0  0  0  0
  190.0730  177.2490  140.5070 C   0  0  0  0  0  0  0  0  0  0  0  0
  190.3620  175.9920  138.3420 C   0  0  0  0  0  2  0  0  0  0  0  0
  191.7760  176.1070  137.7920 C   0  0  0  0  0  2  0  0  0  0  0  0
  192.3560  174.7820  137.6090 N   0  0  0  0  0  2  0  0  0  0  0  0
  194.5270  172.6660  136.3350 C   0  0  1  0  0  3  0  0  0  0  0  0
  195.5870  172.9550  135.4490 O   0  0  0  0  0  0  0  0  0  0  0  0
  193.0870  174.7690  136.3450 C   0  0  2  0  0  3  0  0  0  0  0  0
  195.3040  175.2330  135.4610 O   0  0  0  0  0  0  0  0  0  0  0  0
  196.1370  174.1750  135.7490 N   0  0  0  0  0  0  0  0  0  0  0  0
  193.2370  173.3290  135.8210 C   0  0  2  0  0  3  0  0  0  0  0  0
  192.0940  172.5770  136.1130 O   0  0  0  0  0  1  0  0  0  0  0  0
  194.4360  175.4630  136.5440 C   0  0  0  0  0  2  0  0  0  0  0  0
  195.9300  174.2180  138.5720 O   0  0  0  0  0  1  0  0  0  0  0  0
  197.0290  174.2370  137.2880 P   0  0  0  0  0  0  0  0  0  0  0  0
  198.0770  172.9140  137.4340 O   0  0  0  0  0  1  0  0  0  0  0  0
  197.8340  175.5160  137.3450 O   0  0  0  0  0  0  0  0  0  0  0  0
  194.3910  170.8090  136.5210 P   0  0  0  0  0  2  0  0  0  0  0  0
  195.3510  170.7370  137.9670 O   0  0  0  0  0  1  0  0  0  0  0  0
  190.6480  175.9760  142.5930 C   0  0  0  0  0  2  0  0  0  0  0  0
  191.5850  176.2680  143.5850 O   0  0  0  0  0  1  0  0  0  0  0  0
  2 11  1  0  0  0  0
  2  1  2  0  0  0  0
  3  2  1  0  0  0  0
  4  3  2  0  0  0  0
  4  5  1  0  0  0  0
  5  6  2  0  0  0  0
  6  1  1  0  0  0  0
  7 10  2  0  0  0  0
  8 10  1  0  0  0  0
  9 11  2  0  0  0  0
  9  8  1  0  0  0  0
 11  7  1  0  0  0  0
 12  8  1  0  0  0  0
 13 12  1  0  0  0  0
 16 14  1  6  0  0  0
 16 15  1  0  0  0  0
 16 13  1  0  0  0  0
 17  3  1  0  0  0  0
 18 17  1  0  0  0  0
 19 18  1  0  0  0  0
 20 23  1  0  0  0  0
 20 26  2  0  0  0  0
 21 22  2  0  0  0  0
 21 20  1  0  0  0  0
 22 24  1  0  0  0  0
 24 25  1  0  0  0  0
 24 26  1  0  0  0  0
 26 19  1  0  0  0  0
 27 21  1  0  0  0  0
 28 27  1  0  0  0  0
 29 22  1  0  0  0  0
 29 30  1  0  0  0  0
 31  5  1  0  0  0  0
 31 52  1  1  0  0  0
 32 34  2  0  0  0  0
 33 34  1  0  0  0  0
 34 31  1  0  0  0  0
 35 33  1  0  0  0  0
 36 35  1  0  0  0  0
 37 36  1  0  0  0  0
 38 50  1  6  0  0  0
 39 42  1  0  0  0  0
 39 38  1  0  0  0  0
 40 45  1  0  0  0  0
 40 37  1  1  0  0  0
 41 42  1  0  0  0  0
 41 45  1  0  0  0  0
 42 47  1  0  0  0  0
 43 44  1  1  0  0  0
 43 38  1  0  0  0  0
 43 40  1  0  0  0  0
 47 49  2  0  0  0  0
 47 48  1  0  0  0  0
 47 46  1  0  0  0  0
 50 51  1  0  0  0  0
 52 53  1  0  0  0  0
M  END
>  <MODEL>
4

>  <REMARK>
 VINA RESULT:      -6.7      3.848      8.754
  Name = 
  19 active torsions:
  status: ('A' for Active; 'I' for Inactive)
    1  A    between atoms: C_2  and  C_3
    2  A    between atoms: C_4  and  N_35
    3  A    between atoms: C_4  and  N_45
    4  A    between atoms: C_5  and  C_19
    5  A    between atoms: N_6  and  C_12
    6  A    between atoms: N_6  and  C_25
    7  A    between atoms: C_10  and  P_15
    8  A    between atoms: C_12  and  C_21
    9  A    between atoms: C_13  and  C_18
   10  A    between atoms: C_13  and  C_48
   11  A    between atoms: C_18  and  C_33
   12  A    between atoms: C_21  and  N_30
   13  A    between atoms: C_22  and  C_34
   14  A    between atoms: P_23  and  N_29
   15  A    between atoms: C_24  and  C_51
   16  A    between atoms: C_34  and  C_42
   17  A    between atoms: C_34  and  C_50
   18  A    between atoms: C_41  and  C_48
   19  A    between atoms: N_45  and  C_52
                            x       y       z     vdW  Elec       q    Type
                         _______ _______ _______ _____ _____    ______ ____

>  <TORSDO>
F 19

$$$$
=
 OpenBabel10222417513D

 53 56  0  0  1  0  0  0  0  0999 V2000
  183.9060  178.2690  143.9660 C   0  0  0  0  0  3  0  0  0  0  0  0
  185.3070  178.3330  143.9250 C   0  0  0  0  0  0  0  0  0  0  0  0
  185.9460  178.4230  142.6590 C   0  0  0  0  0  0  0  0  0  0  0  0
  185.1740  178.4600  141.4920 C   0  0  0  0  0  3  0  0  0  0  0  0
  183.7810  178.4010  141.5520 C   0  0  0  0  0  0  0  0  0  0  0  0
  183.1480  178.3000  142.7950 C   0  0  0  0  0  3  0  0  0  0  0  0
  185.7250  179.0050  146.3790 C   0  0  0  0  0  3  0  0  0  0  0  0
  187.4550  177.7860  146.7080 N   0  0  0  0  0  0  0  0  0  0  0  0
  187.1240  177.5560  145.4510 N   0  0  0  0  0  0  0  0  0  0  0  0
  186.6430  178.6460  147.2980 N   0  0  0  0  0  0  0  0  0  0  0  0
  186.0360  178.3150  145.2180 C   0  0  0  0  0  0  0  0  0  0  0  0
  188.5760  177.1460  147.3740 C   0  0  0  0  0  2  0  0  0  0  0  0
  189.8150  177.8070  146.9950 N   0  0  0  0  0  2  0  0  0  0  0  0
  190.6330  177.4600  144.7420 C   0  0  0  0  0  1  0  0  0  0  0  0
  191.8390  176.7030  146.6420 O   0  0  0  0  0  1  0  0  0  0  0  0
  190.5480  176.8890  146.1410 C   0  0  1  0  0  3  0  0  0  0  0  0
  187.4290  178.4910  142.4960 C   0  0  0  0  0  2  0  0  0  0  0  0
  187.8780  177.5690  141.3800 C   0  0  0  0  0  2  0  0  0  0  0  0
  188.7740  178.3410  140.4320 C   0  0  0  0  0  2  0  0  0  0  0  0
  190.1070  176.6290  139.0790 C   0  0  0  0  0  0  0  0  0  0  0  0
  189.9990  176.0780  137.8170 C   0  0  0  0  0  0  0  0  0  0  0  0
  188.8850  176.6550  137.2320 C   0  0  0  0  0  0  0  0  0  0  0  0
  191.0280  176.3120  140.0220 F   0  0  0  0  0  0  0  0  0  0  0  0
  188.3180  177.5300  138.0920 N   0  0  0  0  0  0  0  0  0  0  0  0
  187.1120  178.3110  137.8610 C   0  0  0  0  0  1  0  0  0  0  0  0
  189.0640  177.5240  139.2160 C   0  0  0  0  0  0  0  0  0  0  0  0
  190.8460  174.9890  137.2550 C   0  0  0  0  0  2  0  0  0  0  0  0
  190.3120  173.7510  137.6080 O   0  0  0  0  0  1  0  0  0  0  0  0
  188.3250  176.3050  135.8900 C   0  0  0  0  0  2  0  0  0  0  0  0
  187.5290  175.1630  135.9960 O   0  0  0  0  0  1  0  0  0  0  0  0
  182.9990  178.4530  140.2760 C   0  0  2  0  0  3  0  0  0  0  0  0
  182.7600  176.1150  139.8860 O   0  0  0  0  0  0  0  0  0  0  0  0
  183.9020  177.2770  138.2140 N   0  0  0  0  0  2  0  0  0  0  0  0
  183.2010  177.2140  139.4590 C   0  0  0  0  0  0  0  0  0  0  0  0
  184.1290  176.0910  137.4020 C   0  0  0  0  0  2  0  0  0  0  0  0
  183.3080  176.1710  136.1240 C   0  0  0  0  0  2  0  0  0  0  0  0
  182.2740  177.1910  136.2520 N   0  0  0  0  0  2  0  0  0  0  0  0
  179.8340  175.3980  137.5340 C   0  0  1  0  0  3  0  0  0  0  0  0
  179.0080  174.4700  136.8640 O   0  0  0  0  0  0  0  0  0  0  0  0
  181.0370  176.6680  135.6800 C   0  0  2  0  0  3  0  0  0  0  0  0
  180.0950  174.5870  134.8460 O   0  0  0  0  0  0  0  0  0  0  0  0
  179.7280  173.7960  135.9110 N   0  0  0  0  0  0  0  0  0  0  0  0
  179.9020  176.7020  136.7210 C   0  0  2  0  0  3  0  0  0  0  0  0
  180.0120  177.8360  137.5320 O   0  0  0  0  0  1  0  0  0  0  0  0
  181.2950  175.2590  135.1430 C   0  0  0  0  0  2  0  0  0  0  0  0
  181.6480  171.8150  135.2720 O   0  0  0  0  0  0  0  0  0  0  0  0
  180.9530  172.6740  136.5510 P   0  0  0  0  0  0  0  0  0  0  0  0
  182.1680  173.5140  137.3810 O   0  0  0  0  0  1  0  0  0  0  0  0
  180.2890  171.7000  137.4980 O   0  0  0  0  0  1  0  0  0  0  0  0
  179.1820  175.6340  139.2720 P   0  0  0  0  0  2  0  0  0  0  0  0
  178.9310  173.9400  139.5650 O   0  0  0  0  0  1  0  0  0  0  0  0
  183.3040  179.7230  139.4900 C   0  0  0  0  0  2  0  0  0  0  0  0
  182.2670  179.9890  138.5940 O   0  0  0  0  0  1  0  0  0  0  0  0
  2  1  1  0  0  0  0
  2 11  1  0  0  0  0
  3  2  2  0  0  0  0
  4  5  2  0  0  0  0
  4  3  1  0  0  0  0
  5  6  1  0  0  0  0
  6  1  2  0  0  0  0
  7 10  2  0  0  0  0
  8 10  1  0  0  0  0
  8 12  1  0  0  0  0
  9  8  1  0  0  0  0
 11  9  2  0  0  0  0
 11  7  1  0  0  0  0
 13 12  1  0  0  0  0
 16 14  1  6  0  0  0
 16 15  1  0  0  0  0
 16 13  1  0  0  0  0
 17  3  1  0  0  0  0
 18 17  1  0  0  0  0
 19 18  1  0  0  0  0
 20 26  2  0  0  0  0
 20 23  1  0  0  0  0
 21 20  1  0  0  0  0
 22 21  2  0  0  0  0
 22 24  1  0  0  0  0
 24 26  1  0  0  0  0
 25 24  1  0  0  0  0
 26 19  1  0  0  0  0
 27 28  1  0  0  0  0
 27 21  1  0  0  0  0
 29 30  1  0  0  0  0
 29 22  1  0  0  0  0
 31 52  1  6  0  0  0
 31  5  1  0  0  0  0
 33 34  1  0  0  0  0
 34 32  2  0  0  0  0
 34 31  1  0  0  0  0
 35 33  1  0  0  0  0
 36 37  1  0  0  0  0
 36 35  1  0  0  0  0
 38 50  1  1  0  0  0
 39 38  1  0  0  0  0
 40 37  1  1  0  0  0
 40 43  1  0  0  0  0
 41 45  1  0  0  0  0
 41 42  1  0  0  0  0
 42 47  1  0  0  0  0
 42 39  1  0  0  0  0
 43 44  1  1  0  0  0
 43 38  1  0  0  0  0
 45 40  1  0  0  0  0
 46 47  2  0  0  0  0
 47 48  1  0  0  0  0
 47 49  1  0  0  0  0
 50 51  1  0  0  0  0
 53 52  1  0  0  0  0
M  END
>  <MODEL>
5

>  <REMARK>
 VINA RESULT:      -6.6      1.949      3.275
  Name = 
  19 active torsions:
  status: ('A' for Active; 'I' for Inactive)
    1  A    between atoms: C_2  and  C_3
    2  A    between atoms: C_4  and  N_35
    3  A    between atoms: C_4  and  N_45
    4  A    between atoms: C_5  and  C_19
    5  A    between atoms: N_6  and  C_12
    6  A    between atoms: N_6  and  C_25
    7  A    between atoms: C_10  and  P_15
    8  A    between atoms: C_12  and  C_21
    9  A    between atoms: C_13  and  C_18
   10  A    between atoms: C_13  and  C_48
   11  A    between atoms: C_18  and  C_33
   12  A    between atoms: C_21  and  N_30
   13  A    between atoms: C_22  and  C_34
   14  A    between atoms: P_23  and  N_29
   15  A    between atoms: C_24  and  C_51
   16  A    between atoms: C_34  and  C_42
   17  A    between atoms: C_34  and  C_50
   18  A    between atoms: C_41  and  C_48
   19  A    between atoms: N_45  and  C_52
                            x       y       z     vdW  Elec       q    Type
                         _______ _______ _______ _____ _____    ______ ____

>  <TORSDO>
F 19

$$$$
=
 OpenBabel10222417513D

 53 56  0  0  1  0  0  0  0  0999 V2000
  190.4120  177.3390  140.6110 C   0  0  0  0  0  3  0  0  0  0  0  0
  189.5950  177.8310  141.6410 C   0  0  0  0  0  0  0  0  0  0  0  0
  188.2700  178.2330  141.3240 C   0  0  0  0  0  0  0  0  0  0  0  0
  187.8050  178.1180  140.0100 C   0  0  0  0  0  3  0  0  0  0  0  0
  188.6280  177.6210  138.9990 C   0  0  0  0  0  0  0  0  0  0  0  0
  189.9380  177.2360  139.3030 C   0  0  0  0  0  3  0  0  0  0  0  0
  191.2100  178.6840  143.4630 C   0  0  0  0  0  3  0  0  0  0  0  0
  190.4420  177.5120  145.0830 N   0  0  0  0  0  0  0  0  0  0  0  0
  189.7050  177.1620  144.0440 N   0  0  0  0  0  0  0  0  0  0  0  0
  191.3520  178.4200  144.7770 N   0  0  0  0  0  0  0  0  0  0  0  0
  190.1710  177.8870  143.0090 C   0  0  0  0  0  0  0  0  0  0  0  0
  190.2560  176.9730  146.4180 C   0  0  0  0  0  2  0  0  0  0  0  0
  191.4610  177.1800  147.2050 N   0  0  0  0  0  2  0  0  0  0  0  0
  192.4320  175.1280  146.3600 C   0  0  0  0  0  1  0  0  0  0  0  0
  193.0150  176.0050  148.4870 O   0  0  0  0  0  1  0  0  0  0  0  0
  191.9540  175.8690  147.5900 C   0  0  1  0  0  3  0  0  0  0  0  0
  187.3170  178.7750  142.3390 C   0  0  0  0  0  2  0  0  0  0  0  0
  185.9420  178.9490  141.7260 C   0  0  0  0  0  2  0  0  0  0  0  0
  184.9940  177.9440  142.3480 C   0  0  0  0  0  2  0  0  0  0  0  0
  182.9740  178.1850  140.7990 C   0  0  0  0  0  0  0  0  0  0  0  0
  181.6670  178.6080  140.9490 C   0  0  0  0  0  0  0  0  0  0  0  0
  181.5230  178.9680  142.2790 C   0  0  0  0  0  0  0  0  0  0  0  0
  183.5370  177.6930  139.6680 F   0  0  0  0  0  0  0  0  0  0  0  0
  182.6890  178.7760  142.9330 N   0  0  0  0  0  0  0  0  0  0  0  0
  182.9340  179.0040  144.3510 C   0  0  0  0  0  1  0  0  0  0  0  0
  183.5790  178.3060  142.0340 C   0  0  0  0  0  0  0  0  0  0  0  0
  180.6000  178.5660  139.9100 C   0  0  0  0  0  2  0  0  0  0  0  0
  180.0620  177.2830  139.8450 O   0  0  0  0  0  1  0  0  0  0  0  0
  180.2520  179.4120  142.9290 C   0  0  0  0  0  2  0  0  0  0  0  0
  179.5390  178.2980  143.3780 O   0  0  0  0  0  1  0  0  0  0  0  0
  188.0820  177.5100  137.6090 C   0  0  2  0  0  3  0  0  0  0  0  0
  189.0900  175.3510  137.5860 O   0  0  0  0  0  0  0  0  0  0  0  0
  187.4410  175.6810  135.9670 N   0  0  0  0  0  2  0  0  0  0  0  0
  188.2380  176.1210  137.0690 C   0  0  0  0  0  0  0  0  0  0  0  0
  187.5770  174.3450  135.4080 C   0  0  0  0  0  2  0  0  0  0  0  0
  186.7690  173.3530  136.2300 C   0  0  0  0  0  2  0  0  0  0  0  0
  185.3510  173.4700  135.9130 N   0  0  0  0  0  2  0  0  0  0  0  0
  182.1620  173.0800  136.6140 C   0  0  1  0  0  3  0  0  0  0  0  0
  181.4260  173.7110  137.6390 O   0  0  0  0  0  0  0  0  0  0  0  0
  184.6040  173.5620  137.1630 C   0  0  2  0  0  3  0  0  0  0  0  0
  183.1250  175.0820  138.3510 O   0  0  0  0  0  0  0  0  0  0  0  0
  181.8610  175.0010  137.8110 N   0  0  0  0  0  0  0  0  0  0  0  0
  183.4710  172.5190  137.1950 C   0  0  2  0  0  3  0  0  0  0  0  0
  183.8740  171.3350  136.5680 O   0  0  0  0  0  1  0  0  0  0  0  0
  184.0860  174.9920  137.3290 C   0  0  0  0  0  2  0  0  0  0  0  0
  182.3080  175.6050  135.0800 O   0  0  0  0  0  0  0  0  0  0  0  0
  181.4790  176.1050  136.4670 P   0  0  0  0  0  0  0  0  0  0  0  0
  179.8160  176.1150  136.1460 O   0  0  0  0  0  1  0  0  0  0  0  0
  181.9230  177.5030  136.8310 O   0  0  0  0  0  1  0  0  0  0  0  0
  181.0810  171.7780  135.8150 P   0  0  0  0  0  2  0  0  0  0  0  0
  180.3770  172.8650  134.6560 O   0  0  0  0  0  1  0  0  0  0  0  0
  188.6870  178.5620  136.6880 C   0  0  0  0  0  2  0  0  0  0  0  0
  189.3670  179.5200  137.4430 O   0  0  0  0  0  1  0  0  0  0  0  0
  1  2  1  0  0  0  0
  2 11  1  0  0  0  0
  3  2  2  0  0  0  0
  3 17  1  0  0  0  0
  4  3  1  0  0  0  0
  5  6  1  0  0  0  0
  5  4  2  0  0  0  0
  6  1  2  0  0  0  0
  7 10  2  0  0  0  0
  8 12  1  0  0  0  0
  9  8  1  0  0  0  0
 10  8  1  0  0  0  0
 11  7  1  0  0  0  0
 11  9  2  0  0  0  0
 12 13  1  0  0  0  0
 13 16  1  0  0  0  0
 16 14  1  6  0  0  0
 16 15  1  0  0  0  0
 18 17  1  0  0  0  0
 18 19  1  0  0  0  0
 20 21  1  0  0  0  0
 20 26  2  0  0  0  0
 21 22  2  0  0  0  0
 22 29  1  0  0  0  0
 22 24  1  0  0  0  0
 23 20  1  0  0  0  0
 24 25  1  0  0  0  0
 26 19  1  0  0  0  0
 26 24  1  0  0  0  0
 27 21  1  0  0  0  0
 28 27  1  0  0  0  0
 29 30  1  0  0  0  0
 31 52  1  6  0  0  0
 31  5  1  0  0  0  0
 33 34  1  0  0  0  0
 34 32  2  0  0  0  0
 34 31  1  0  0  0  0
 35 33  1  0  0  0  0
 35 36  1  0  0  0  0
 37 36  1  0  0  0  0
 38 50  1  1  0  0  0
 38 43  1  0  0  0  0
 38 39  1  0  0  0  0
 39 42  1  0  0  0  0
 40 37  1  6  0  0  0
 40 43  1  0  0  0  0
 40 45  1  0  0  0  0
 42 41  1  0  0  0  0
 43 44  1  6  0  0  0
 45 41  1  0  0  0  0
 46 47  2  0  0  0  0
 47 49  1  0  0  0  0
 47 42  1  0  0  0  0
 48 47  1  0  0  0  0
 51 50  1  0  0  0  0
 52 53  1  0  0  0  0
M  END
>  <MODEL>
6

>  <REMARK>
 VINA RESULT:      -6.4      2.274      6.120
  Name = 
  19 active torsions:
  status: ('A' for Active; 'I' for Inactive)
    1  A    between atoms: C_2  and  C_3
    2  A    between atoms: C_4  and  N_35
    3  A    between atoms: C_4  and  N_45
    4  A    between atoms: C_5  and  C_19
    5  A    between atoms: N_6  and  C_12
    6  A    between atoms: N_6  and  C_25
    7  A    between atoms: C_10  and  P_15
    8  A    between atoms: C_12  and  C_21
    9  A    between atoms: C_13  and  C_18
   10  A    between atoms: C_13  and  C_48
   11  A    between atoms: C_18  and  C_33
   12  A    between atoms: C_21  and  N_30
   13  A    between atoms: C_22  and  C_34
   14  A    between atoms: P_23  and  N_29
   15  A    between atoms: C_24  and  C_51
   16  A    between atoms: C_34  and  C_42
   17  A    between atoms: C_34  and  C_50
   18  A    between atoms: C_41  and  C_48
   19  A    between atoms: N_45  and  C_52
                            x       y       z     vdW  Elec       q    Type
                         _______ _______ _______ _____ _____    ______ ____

>  <TORSDO>
F 19

$$$$
=
 OpenBabel10222417513D

 53 56  0  0  1  0  0  0  0  0999 V2000
  188.1700  178.2890  139.8990 C   0  0  0  0  0  3  0  0  0  0  0  0
  188.9280  177.4940  139.0270 C   0  0  0  0  0  0  0  0  0  0  0  0
  190.0610  176.8090  139.5440 C   0  0  0  0  0  0  0  0  0  0  0  0
  190.3850  176.9280  140.9000 C   0  0  0  0  0  3  0  0  0  0  0  0
  189.6160  177.7180  141.7550 C   0  0  0  0  0  0  0  0  0  0  0  0
  188.5070  178.4040  141.2480 C   0  0  0  0  0  3  0  0  0  0  0  0
  188.7130  178.3210  136.5940 C   0  0  0  0  0  3  0  0  0  0  0  0
  187.6350  176.6380  135.8240 N   0  0  0  0  0  0  0  0  0  0  0  0
  187.8100  176.3610  137.1040 N   0  0  0  0  0  0  0  0  0  0  0  0
  188.1610  177.8000  135.4800 N   0  0  0  0  0  0  0  0  0  0  0  0
  188.4870  177.4090  137.6120 C   0  0  0  0  0  0  0  0  0  0  0  0
  186.9580  175.7500  134.8950 C   0  0  0  0  0  2  0  0  0  0  0  0
  186.8730  174.4140  135.4640 N   0  0  0  0  0  2  0  0  0  0  0  0
  185.0740  173.5610  136.8420 C   0  0  0  0  0  1  0  0  0  0  0  0
  184.6840  175.1310  135.1050 O   0  0  0  0  0  1  0  0  0  0  0  0
  185.4710  174.0340  135.4610 C   0  0  1  0  0  3  0  0  0  0  0  0
  190.9420  175.9400  138.7070 C   0  0  0  0  0  2  0  0  0  0  0  0
  191.9920  176.7780  138.0070 C   0  0  0  0  0  2  0  0  0  0  0  0
  192.2200  176.2230  136.6150 C   0  0  0  0  0  2  0  0  0  0  0  0
  193.7270  174.2120  137.0900 C   0  0  0  0  0  0  0  0  0  0  0  0
  195.0390  173.8820  136.8100 C   0  0  0  0  0  0  0  0  0  0  0  0
  195.5730  174.9540  136.1160 C   0  0  0  0  0  0  0  0  0  0  0  0
  192.8130  173.4270  137.7120 F   0  0  0  0  0  0  0  0  0  0  0  0
  194.6350  175.9140  135.9660 N   0  0  0  0  0  0  0  0  0  0  0  0
  194.7960  177.1800  135.2640 C   0  0  0  0  0  1  0  0  0  0  0  0
  193.5100  175.4710  136.5650 C   0  0  0  0  0  0  0  0  0  0  0  0
  195.7010  172.5780  137.0950 C   0  0  0  0  0  2  0  0  0  0  0  0
  196.3700  172.6490  138.3150 O   0  0  0  0  0  1  0  0  0  0  0  0
  196.9480  175.0170  135.5320 C   0  0  0  0  0  2  0  0  0  0  0  0
  197.6800  176.0260  136.1610 O   0  0  0  0  0  1  0  0  0  0  0  0
  189.9990  177.8060  143.2000 C   0  0  2  0  0  3  0  0  0  0  0  0
  188.9080  178.1170  145.2960 O   0  0  0  0  0  0  0  0  0  0  0  0
  187.5280  177.3570  143.5740 N   0  0  0  0  0  2  0  0  0  0  0  0
  188.7930  177.7790  144.0880 C   0  0  0  0  0  0  0  0  0  0  0  0
  186.3390  177.3030  144.4110 C   0  0  0  0  0  2  0  0  0  0  0  0
  185.3340  178.3490  143.9540 C   0  0  0  0  0  2  0  0  0  0  0  0
  184.6650  177.9080  142.7360 N   0  0  0  0  0  2  0  0  0  0  0  0
  182.1010  178.6590  140.8170 C   0  0  1  0  0  3  0  0  0  0  0  0
  182.1020  179.4740  139.6660 O   0  0  0  0  0  0  0  0  0  0  0  0
  184.3560  179.0840  141.9270 C   0  0  2  0  0  3  0  0  0  0  0  0
  184.3720  179.8150  139.6080 O   0  0  0  0  0  0  0  0  0  0  0  0
  183.2690  179.3030  138.9640 N   0  0  0  0  0  0  0  0  0  0  0  0
  182.8450  179.3790  141.9550 C   0  0  2  0  0  3  0  0  0  0  0  0
  182.3100  179.0910  143.2140 O   0  0  0  0  0  1  0  0  0  0  0  0
  184.8830  178.8610  140.5080 C   0  0  0  0  0  2  0  0  0  0  0  0
  183.5000  176.5100  139.3730 O   0  0  0  0  0  1  0  0  0  0  0  0
  183.4470  177.7120  138.1850 P   0  0  0  0  0  0  0  0  0  0  0  0
  182.1510  177.4010  137.1380 O   0  0  0  0  0  0  0  0  0  0  0  0
  184.7370  177.6860  137.3970 O   0  0  0  0  0  1  0  0  0  0  0  0
  180.3320  178.2210  141.2410 P   0  0  0  0  0  2  0  0  0  0  0  0
  180.3240  176.7440  140.3260 O   0  0  0  0  0  1  0  0  0  0  0  0
  190.8870  179.0160  143.4650 C   0  0  0  0  0  2  0  0  0  0  0  0
  191.9730  178.6440  144.2600 O   0  0  0  0  0  1  0  0  0  0  0  0
  1  6  1  0  0  0  0
  2  3  1  0  0  0  0
  2  1  2  0  0  0  0
  3  4  2  0  0  0  0
  4  5  1  0  0  0  0
  5 31  1  0  0  0  0
  6  5  2  0  0  0  0
  7 11  1  0  0  0  0
  8  9  1  0  0  0  0
  9 11  2  0  0  0  0
 10  8  1  0  0  0  0
 10  7  2  0  0  0  0
 11  2  1  0  0  0  0
 12 13  1  0  0  0  0
 12  8  1  0  0  0  0
 15 16  1  0  0  0  0
 16 13  1  0  0  0  0
 16 14  1  1  0  0  0
 17  3  1  0  0  0  0
 18 17  1  0  0  0  0
 19 18  1  0  0  0  0
 20 23  1  0  0  0  0
 21 20  1  0  0  0  0
 21 27  1  0  0  0  0
 22 21  2  0  0  0  0
 24 22  1  0  0  0  0
 24 26  1  0  0  0  0
 25 24  1  0  0  0  0
 26 19  1  0  0  0  0
 26 20  2  0  0  0  0
 27 28  1  0  0  0  0
 29 22  1  0  0  0  0
 29 30  1  0  0  0  0
 31 52  1  6  0  0  0
 31 34  1  0  0  0  0
 33 34  1  0  0  0  0
 33 35  1  0  0  0  0
 34 32  2  0  0  0  0
 36 35  1  0  0  0  0
 37 36  1  0  0  0  0
 38 50  1  1  0  0  0
 38 43  1  0  0  0  0
 39 38  1  0  0  0  0
 40 43  1  0  0  0  0
 40 37  1  1  0  0  0
 41 45  1  0  0  0  0
 42 41  1  0  0  0  0
 42 39  1  0  0  0  0
 43 44  1  1  0  0  0
 45 40  1  0  0  0  0
 47 42  1  0  0  0  0
 47 46  1  0  0  0  0
 48 47  2  0  0  0  0
 49 47  1  0  0  0  0
 51 50  1  0  0  0  0
 52 53  1  0  0  0  0
M  END
>  <MODEL>
7

>  <REMARK>
 VINA RESULT:      -6.3      3.206      7.954
  Name = 
  19 active torsions:
  status: ('A' for Active; 'I' for Inactive)
    1  A    between atoms: C_2  and  C_3
    2  A    between atoms: C_4  and  N_35
    3  A    between atoms: C_4  and  N_45
    4  A    between atoms: C_5  and  C_19
    5  A    between atoms: N_6  and  C_12
    6  A    between atoms: N_6  and  C_25
    7  A    between atoms: C_10  and  P_15
    8  A    between atoms: C_12  and  C_21
    9  A    between atoms: C_13  and  C_18
   10  A    between atoms: C_13  and  C_48
   11  A    between atoms: C_18  and  C_33
   12  A    between atoms: C_21  and  N_30
   13  A    between atoms: C_22  and  C_34
   14  A    between atoms: P_23  and  N_29
   15  A    between atoms: C_24  and  C_51
   16  A    between atoms: C_34  and  C_42
   17  A    between atoms: C_34  and  C_50
   18  A    between atoms: C_41  and  C_48
   19  A    between atoms: N_45  and  C_52
                            x       y       z     vdW  Elec       q    Type
                         _______ _______ _______ _____ _____    ______ ____

>  <TORSDO>
F 19

$$$$
=
 OpenBabel10222417513D

 53 56  0  0  1  0  0  0  0  0999 V2000
  187.4420  177.3640  144.8870 C   0  0  0  0  0  3  0  0  0  0  0  0
  186.6320  177.9930  143.9290 C   0  0  0  0  0  0  0  0  0  0  0  0
  187.1680  178.2280  142.6340 C   0  0  0  0  0  0  0  0  0  0  0  0
  188.4730  177.8190  142.3390 C   0  0  0  0  0  3  0  0  0  0  0  0
  189.2630  177.1890  143.3010 C   0  0  0  0  0  0  0  0  0  0  0  0
  188.7440  176.9670  144.5810 C   0  0  0  0  0  3  0  0  0  0  0  0
  184.8070  178.7640  145.5810 C   0  0  0  0  0  3  0  0  0  0  0  0
  183.1760  178.8030  144.1920 N   0  0  0  0  0  0  0  0  0  0  0  0
  184.2100  178.3980  143.4760 N   0  0  0  0  0  0  0  0  0  0  0  0
  183.4920  179.0330  145.4540 N   0  0  0  0  0  0  0  0  0  0  0  0
  185.2510  178.3640  144.3300 C   0  0  0  0  0  0  0  0  0  0  0  0
  181.8450  178.9940  143.6440 C   0  0  0  0  0  2  0  0  0  0  0  0
  181.9150  179.0610  142.1930 N   0  0  0  0  0  2  0  0  0  0  0  0
  179.6110  178.7030  142.8480 C   0  0  0  0  0  1  0  0  0  0  0  0
  180.1810  179.8730  140.8630 O   0  0  0  0  0  1  0  0  0  0  0  0
  180.5760  178.8180  141.6870 C   0  0  1  0  0  3  0  0  0  0  0  0
  186.3990  178.8930  141.5400 C   0  0  0  0  0  2  0  0  0  0  0  0
  186.0640  177.8940  140.4510 C   0  0  0  0  0  2  0  0  0  0  0  0
  185.9720  178.6220  139.1250 C   0  0  0  0  0  2  0  0  0  0  0  0
  183.4860  178.9650  138.6350 C   0  0  0  0  0  0  0  0  0  0  0  0
  182.5570  178.3630  137.8090 C   0  0  0  0  0  0  0  0  0  0  0  0
  183.2260  177.3510  137.1410 C   0  0  0  0  0  0  0  0  0  0  0  0
  183.2770  180.0400  139.4350 F   0  0  0  0  0  0  0  0  0  0  0  0
  184.5180  177.3220  137.5310 N   0  0  0  0  0  0  0  0  0  0  0  0
  185.5520  176.4240  137.0350 C   0  0  0  0  0  1  0  0  0  0  0  0
  184.6810  178.2980  138.4480 C   0  0  0  0  0  0  0  0  0  0  0  0
  181.1490  178.8020  137.5950 C   0  0  0  0  0  2  0  0  0  0  0  0
  181.1370  180.0360  136.9470 O   0  0  0  0  0  1  0  0  0  0  0  0
  182.6430  176.4750  136.0770 C   0  0  0  0  0  2  0  0  0  0  0  0
  181.8170  175.5140  136.6610 O   0  0  0  0  0  1  0  0  0  0  0  0
  190.6500  176.7620  142.9330 C   0  0  2  0  0  3  0  0  0  0  0  0
  191.7920  178.0160  141.2590 O   0  0  0  0  0  0  0  0  0  0  0  0
  190.3270  176.3930  140.4420 N   0  0  0  0  0  2  0  0  0  0  0  0
  190.9670  177.0970  141.5080 C   0  0  0  0  0  0  0  0  0  0  0  0
  190.5990  176.7020  139.0460 C   0  0  0  0  0  2  0  0  0  0  0  0
  191.4260  175.5890  138.4200 C   0  0  0  0  0  2  0  0  0  0  0  0
  191.1350  175.4850  136.9950 N   0  0  0  0  0  2  0  0  0  0  0  0
  193.7440  173.9720  135.6820 C   0  0  1  0  0  3  0  0  0  0  0  0
  195.0400  174.4990  135.5040 O   0  0  0  0  0  0  0  0  0  0  0  0
  192.2870  175.9850  136.2510 C   0  0  2  0  0  3  0  0  0  0  0  0
  194.6430  176.4930  136.5700 O   0  0  0  0  0  0  0  0  0  0  0  0
  195.3670  175.3220  136.5530 N   0  0  0  0  0  0  0  0  0  0  0  0
  192.7060  174.9810  135.1610 C   0  0  2  0  0  3  0  0  0  0  0  0
  191.5830  174.3590  134.6070 O   0  0  0  0  0  1  0  0  0  0  0  0
  193.4200  176.2870  137.2340 C   0  0  0  0  0  2  0  0  0  0  0  0
  195.2330  175.5510  139.3720 O   0  0  0  0  0  1  0  0  0  0  0  0
  195.6090  174.4920  138.1090 P   0  0  0  0  0  0  0  0  0  0  0  0
  194.6220  173.1190  138.2230 O   0  0  0  0  0  0  0  0  0  0  0  0
  197.0570  174.0730  138.2280 O   0  0  0  0  0  1  0  0  0  0  0  0
  193.6540  172.3040  134.8390 P   0  0  0  0  0  2  0  0  0  0  0  0
  195.3560  171.9840  134.9670 O   0  0  0  0  0  1  0  0  0  0  0  0
  190.8780  175.2890  143.2480 C   0  0  0  0  0  2  0  0  0  0  0  0
  192.0690  175.1320  143.9600 O   0  0  0  0  0  1  0  0  0  0  0  0
  2 11  1  0  0  0  0
  2  1  2  0  0  0  0
  3  2  1  0  0  0  0
  4  3  2  0  0  0  0
  4  5  1  0  0  0  0
  5  6  2  0  0  0  0
  6  1  1  0  0  0  0
  8 10  1  0  0  0  0
  9  8  1  0  0  0  0
  9 11  2  0  0  0  0
 10  7  2  0  0  0  0
 11  7  1  0  0  0  0
 12  8  1  0  0  0  0
 13 12  1  0  0  0  0
 15 16  1  0  0  0  0
 16 13  1  0  0  0  0
 16 14  1  1  0  0  0
 17  3  1  0  0  0  0
 18 17  1  0  0  0  0
 19 18  1  0  0  0  0
 20 23  1  0  0  0  0
 21 20  1  0  0  0  0
 22 24  1  0  0  0  0
 22 21  2  0  0  0  0
 24 26  1  0  0  0  0
 25 24  1  0  0  0  0
 26 20  2  0  0  0  0
 26 19  1  0  0  0  0
 27 21  1  0  0  0  0
 28 27  1  0  0  0  0
 29 30  1  0  0  0  0
 29 22  1  0  0  0  0
 31 52  1  6  0  0  0
 31  5  1  0  0  0  0
 32 34  2  0  0  0  0
 33 34  1  0  0  0  0
 34 31  1  0  0  0  0
 35 33  1  0  0  0  0
 36 35  1  0  0  0  0
 37 36  1  0  0  0  0
 38 50  1  6  0  0  0
 39 38  1  0  0  0  0
 39 42  1  0  0  0  0
 40 37  1  1  0  0  0
 40 45  1  0  0  0  0
 41 45  1  0  0  0  0
 42 41  1  0  0  0  0
 42 47  1  0  0  0  0
 43 44  1  1  0  0  0
 43 38  1  0  0  0  0
 43 40  1  0  0  0  0
 47 48  2  0  0  0  0
 47 49  1  0  0  0  0
 47 46  1  0  0  0  0
 50 51  1  0  0  0  0
 52 53  1  0  0  0  0
M  END
>  <MODEL>
8

>  <REMARK>
 VINA RESULT:      -6.2      3.520      8.867
  Name = 
  19 active torsions:
  status: ('A' for Active; 'I' for Inactive)
    1  A    between atoms: C_2  and  C_3
    2  A    between atoms: C_4  and  N_35
    3  A    between atoms: C_4  and  N_45
    4  A    between atoms: C_5  and  C_19
    5  A    between atoms: N_6  and  C_12
    6  A    between atoms: N_6  and  C_25
    7  A    between atoms: C_10  and  P_15
    8  A    between atoms: C_12  and  C_21
    9  A    between atoms: C_13  and  C_18
   10  A    between atoms: C_13  and  C_48
   11  A    between atoms: C_18  and  C_33
   12  A    between atoms: C_21  and  N_30
   13  A    between atoms: C_22  and  C_34
   14  A    between atoms: P_23  and  N_29
   15  A    between atoms: C_24  and  C_51
   16  A    between atoms: C_34  and  C_42
   17  A    between atoms: C_34  and  C_50
   18  A    between atoms: C_41  and  C_48
   19  A    between atoms: N_45  and  C_52
                            x       y       z     vdW  Elec       q    Type
                         _______ _______ _______ _____ _____    ______ ____

>  <TORSDO>
F 19

$$$$
=
 OpenBabel10222417513D

 53 56  0  0  1  0  0  0  0  0999 V2000
  188.1900  178.1550  140.2550 C   0  0  0  0  0  3  0  0  0  0  0  0
  189.4160  177.4720  140.2600 C   0  0  0  0  0  0  0  0  0  0  0  0
  189.8490  176.8470  139.0600 C   0  0  0  0  0  0  0  0  0  0  0  0
  189.0620  176.9360  137.9060 C   0  0  0  0  0  3  0  0  0  0  0  0
  187.8490  177.6240  137.9180 C   0  0  0  0  0  0  0  0  0  0  0  0
  187.4110  178.2310  139.1000 C   0  0  0  0  0  3  0  0  0  0  0  0
  191.5680  177.5010  141.6800 C   0  0  0  0  0  3  0  0  0  0  0  0
  190.6290  177.4710  143.6050 N   0  0  0  0  0  0  0  0  0  0  0  0
  189.6250  177.4400  142.7470 N   0  0  0  0  0  0  0  0  0  0  0  0
  191.8070  177.5080  143.0070 N   0  0  0  0  0  0  0  0  0  0  0  0
  190.1920  177.4580  141.5250 C   0  0  0  0  0  0  0  0  0  0  0  0
  190.4540  177.4830  145.0460 C   0  0  0  0  0  2  0  0  0  0  0  0
  191.6830  177.0530  145.6950 N   0  0  0  0  0  2  0  0  0  0  0  0
  189.8530  176.7550  147.2540 C   0  0  0  0  0  1  0  0  0  0  0  0
  191.8600  175.4990  147.4250 O   0  0  0  0  0  1  0  0  0  0  0  0
  191.3560  176.7550  147.0780 C   0  0  1  0  0  3  0  0  0  0  0  0
  191.1320  176.0890  138.9510 C   0  0  0  0  0  2  0  0  0  0  0  0
  192.1220  176.8540  138.0960 C   0  0  0  0  0  2  0  0  0  0  0  0
  192.2800  176.1410  136.7670 C   0  0  0  0  0  2  0  0  0  0  0  0
  193.7890  174.1470  137.3000 C   0  0  0  0  0  0  0  0  0  0  0  0
  195.0990  173.8080  137.0250 C   0  0  0  0  0  0  0  0  0  0  0  0
  195.6300  174.8570  136.2940 C   0  0  0  0  0  0  0  0  0  0  0  0
  192.8770  173.3830  137.9520 F   0  0  0  0  0  0  0  0  0  0  0  0
  194.6910  175.8120  136.1180 N   0  0  0  0  0  0  0  0  0  0  0  0
  194.8490  177.0540  135.3740 C   0  0  0  0  0  1  0  0  0  0  0  0
  193.5690  175.3880  136.7360 C   0  0  0  0  0  0  0  0  0  0  0  0
  195.7630  172.5140  137.3490 C   0  0  0  0  0  2  0  0  0  0  0  0
  195.6870  172.2790  138.7200 O   0  0  0  0  0  1  0  0  0  0  0  0
  197.0020  174.9010  135.7020 C   0  0  0  0  0  2  0  0  0  0  0  0
  197.6940  176.0060  136.2020 O   0  0  0  0  0  1  0  0  0  0  0  0
  187.0460  177.6990  136.6550 C   0  0  2  0  0  3  0  0  0  0  0  0
  186.4110  175.4380  136.2550 O   0  0  0  0  0  0  0  0  0  0  0  0
  184.6600  176.8550  136.8650 N   0  0  0  0  0  2  0  0  0  0  0  0
  186.0370  176.5950  136.5820 C   0  0  0  0  0  0  0  0  0  0  0  0
  183.6510  175.8100  136.7890 C   0  0  0  0  0  2  0  0  0  0  0  0
  182.9910  175.6260  138.1480 C   0  0  0  0  0  2  0  0  0  0  0  0
  182.6840  176.9220  138.7400 N   0  0  0  0  0  2  0  0  0  0  0  0
  180.8060  179.6010  139.0720 C   0  0  1  0  0  3  0  0  0  0  0  0
  179.4950  179.6700  139.5890 O   0  0  0  0  0  0  0  0  0  0  0  0
  181.2380  177.1160  138.7020 C   0  0  2  0  0  3  0  0  0  0  0  0
  179.3570  177.4620  140.2030 O   0  0  0  0  0  0  0  0  0  0  0  0
  179.3430  178.7750  140.6180 N   0  0  0  0  0  0  0  0  0  0  0  0
  180.8890  178.4620  138.0400 C   0  0  2  0  0  3  0  0  0  0  0  0
  181.7800  178.7450  137.0000 O   0  0  0  0  0  1  0  0  0  0  0  0
  180.6840  177.0030  140.1240 C   0  0  0  0  0  2  0  0  0  0  0  0
  179.6730  178.2320  143.3780 O   0  0  0  0  0  1  0  0  0  0  0  0
  180.2520  179.1710  142.0960 P   0  0  0  0  0  0  0  0  0  0  0  0
  181.9060  178.8680  141.8890 O   0  0  0  0  0  0  0  0  0  0  0  0
  180.0530  180.6340  142.4250 O   0  0  0  0  0  1  0  0  0  0  0  0
  181.2640  181.2760  138.3750 P   0  0  0  0  0  2  0  0  0  0  0  0
  182.9430  181.1590  138.8080 O   0  0  0  0  0  1  0  0  0  0  0  0
  187.9470  177.7440  135.4270 C   0  0  0  0  0  2  0  0  0  0  0  0
  188.1190  176.4570  134.9150 O   0  0  0  0  0  1  0  0  0  0  0  0
  1  2  1  0  0  0  0
  2 11  1  0  0  0  0
  3  2  2  0  0  0  0
  4  5  2  0  0  0  0
  4  3  1  0  0  0  0
  5  6  1  0  0  0  0
  6  1  2  0  0  0  0
  7 10  2  0  0  0  0
  8 12  1  0  0  0  0
  9  8  1  0  0  0  0
 10  8  1  0  0  0  0
 11  7  1  0  0  0  0
 11  9  2  0  0  0  0
 12 13  1  0  0  0  0
 13 16  1  0  0  0  0
 16 14  1  6  0  0  0
 16 15  1  0  0  0  0
 17  3  1  0  0  0  0
 18 17  1  0  0  0  0
 19 18  1  0  0  0  0
 20 23  1  0  0  0  0
 21 20  1  0  0  0  0
 21 27  1  0  0  0  0
 22 21  2  0  0  0  0
 24 22  1  0  0  0  0
 24 26  1  0  0  0  0
 25 24  1  0  0  0  0
 26 19  1  0  0  0  0
 26 20  2  0  0  0  0
 27 28  1  0  0  0  0
 29 30  1  0  0  0  0
 29 22  1  0  0  0  0
 31 52  1  6  0  0  0
 31  5  1  0  0  0  0
 32 34  2  0  0  0  0
 34 31  1  0  0  0  0
 34 33  1  0  0  0  0
 35 33  1  0  0  0  0
 35 36  1  0  0  0  0
 36 37  1  0  0  0  0
 38 50  1  6  0  0  0
 38 39  1  0  0  0  0
 39 42  1  0  0  0  0
 40 37  1  1  0  0  0
 40 45  1  0  0  0  0
 41 42  1  0  0  0  0
 42 47  1  0  0  0  0
 43 44  1  6  0  0  0
 43 40  1  0  0  0  0
 43 38  1  0  0  0  0
 45 41  1  0  0  0  0
 47 49  1  0  0  0  0
 47 46  1  0  0  0  0
 48 47  2  0  0  0  0
 50 51  1  0  0  0  0
 53 52  1  0  0  0  0
M  END
>  <MODEL>
9

>  <REMARK>
 VINA RESULT:      -6.0      3.416      6.269
  Name = 
  19 active torsions:
  status: ('A' for Active; 'I' for Inactive)
    1  A    between atoms: C_2  and  C_3
    2  A    between atoms: C_4  and  N_35
    3  A    between atoms: C_4  and  N_45
    4  A    between atoms: C_5  and  C_19
    5  A    between atoms: N_6  and  C_12
    6  A    between atoms: N_6  and  C_25
    7  A    between atoms: C_10  and  P_15
    8  A    between atoms: C_12  and  C_21
    9  A    between atoms: C_13  and  C_18
   10  A    between atoms: C_13  and  C_48
   11  A    between atoms: C_18  and  C_33
   12  A    between atoms: C_21  and  N_30
   13  A    between atoms: C_22  and  C_34
   14  A    between atoms: P_23  and  N_29
   15  A    between atoms: C_24  and  C_51
   16  A    between atoms: C_34  and  C_42
   17  A    between atoms: C_34  and  C_50
   18  A    between atoms: C_41  and  C_48
   19  A    between atoms: N_45  and  C_52
                            x       y       z     vdW  Elec       q    Type
                         _______ _______ _______ _____ _____    ______ ____

>  <TORSDO>
F 19

$$$$
