=
 OpenBabel10222420233D

 47 50  0  0  1  0  0  0  0  0999 V2000
  187.1790  178.2260  139.9910 C   0  0  0  0  0  0  0  0  0  0  0  0
  188.1800  177.5420  139.2070 C   0  0  0  0  0  0  0  0  0  0  0  0
  187.6530  178.6410  141.1160 N   0  0  0  0  0  0  0  0  0  0  0  0
  185.8270  178.4350  139.5780 N   0  0  0  0  0  2  0  0  0  0  0  0
  189.0600  178.2550  141.1910 C   0  0  2  0  0  3  0  0  0  0  0  0
  189.3120  177.5480  139.8890 C   0  0  0  0  0  3  0  0  0  0  0  0
  189.2660  177.2980  142.3530 C   0  0  2  0  0  3  0  0  0  0  0  0
  190.5680  177.4900  142.8950 N   0  0  0  0  0  0  0  0  0  0  0  0
  190.2950  176.3690  142.0340 N   0  0  0  0  0  2  0  0  0  0  0  0
  190.5280  176.9920  144.2590 C   0  0  0  0  0  2  0  0  0  0  0  0
  190.2310  178.1290  145.2260 C   0  0  0  0  0  2  0  0  0  0  0  0
  189.0520  177.7820  146.1360 C   0  0  2  0  0  3  0  0  0  0  0  0
  189.5160  177.2510  147.4140 N   0  0  0  0  0  2  0  0  0  0  0  0
  188.9260  178.0700  148.4590 C   0  0  0  0  0  1  0  0  0  0  0  0
  188.1060  176.9320  145.5150 O   0  0  0  0  0  0  0  0  0  0  0  0
  186.8970  177.6300  145.3590 C   0  0  0  0  0  1  0  0  0  0  0  0
  188.0070  176.9800  137.8370 C   0  0  0  0  0  2  0  0  0  0  0  0
  187.1330  178.6140  135.8400 O   0  0  0  0  0  0  0  0  0  0  0  0
  188.3960  178.2360  136.5820 P   0  0  1  0  0  0  0  0  0  0  0  0
  189.0370  179.6060  137.3420 O   0  0  0  0  0  1  0  0  0  0  0  0
  189.5290  177.5880  135.4980 O   0  0  0  0  0  0  0  0  0  0  0  0
  189.7910  176.2970  135.9590 C   0  0  0  0  0  2  0  0  0  0  0  0
  191.2880  176.1110  136.1130 C   0  0  0  0  0  2  0  0  0  0  0  0
  191.6170  175.8330  137.5370 C   0  0  0  0  0  0  0  0  0  0  0  0
  192.5180  176.4930  138.1160 O   0  0  0  0  0  0  0  0  0  0  0  0
  190.9110  174.8650  138.2390 O   0  0  0  0  0  1  0  0  0  0  0  0
  184.8410  179.0870  140.4320 C   0  0  1  0  0  3  0  0  0  0  0  0
  183.5370  180.2120  138.7780 F   0  0  0  0  0  0  0  0  0  0  0  0
  183.5000  179.1790  139.7000 C   0  0  0  0  0  0  0  0  0  0  0  0
  182.4990  179.4350  140.6230 F   0  0  0  0  0  0  0  0  0  0  0  0
  183.2020  177.8530  139.0000 C   0  0  0  0  0  2  0  0  0  0  0  0
  182.8730  178.0390  137.5230 C   0  0  0  0  0  2  0  0  0  0  0  0
  182.5320  172.5910  136.5750 C   0  0  0  0  0  2  0  0  0  0  0  0
  183.3740  175.9560  136.1570 C   0  0  0  0  0  0  0  0  0  0  0  0
  183.5170  173.5380  136.1600 N   0  0  0  0  0  0  0  0  0  0  0  0
  184.9240  173.3310  136.3700 C   0  0  0  0  0  3  0  0  0  0  0  0
  182.8800  174.6790  135.5360 C   0  0  1  0  0  3  0  0  0  0  0  0
  185.8840  174.1930  136.0130 C   0  0  0  0  0  0  0  0  0  0  0  0
  185.5840  175.4850  135.2950 C   0  0  0  0  0  2  0  0  0  0  0  0
  184.6230  176.2930  136.0390 N   0  0  0  0  0  0  0  0  0  0  0  0
  181.4840  174.5420  135.6890 O   0  0  0  0  0  0  0  0  0  0  0  0
  181.2400  173.2100  136.0930 C   0  0  0  0  0  2  0  0  0  0  0  0
  182.4790  176.7710  136.9220 N   0  0  0  0  0  2  0  0  0  0  0  0
  187.5430  172.6830  137.0490 C   0  0  0  0  0  1  0  0  0  0  0  0
  187.2050  173.8470  136.3070 O   0  0  0  0  0  0  0  0  0  0  0  0
  184.7050  178.3190  141.7470 C   0  0  0  0  0  2  0  0  0  0  0  0
  184.7080  179.2680  142.9290 C   0  0  0  0  0  1  0  0  0  0  0  0
  1  3  2  0  0  0  0
  2  6  2  0  0  0  0
  2  1  1  0  0  0  0
  3  5  1  0  0  0  0
  4  1  1  0  0  0  0
  4 27  1  0  0  0  0
  5  6  1  6  0  0  0
  5  7  1  0  0  0  0
  7  9  1  6  0  0  0
  7  8  1  0  0  0  0
  8 10  1  0  0  0  0
  9  8  1  0  0  0  0
 10 11  1  0  0  0  0
 12 11  1  6  0  0  0
 12 13  1  0  0  0  0
 13 14  1  0  0  0  0
 15 12  1  0  0  0  0
 16 15  1  0  0  0  0
 17  2  1  0  0  0  0
 19 18  2  6  0  0  0
 19 20  1  0  0  0  0
 19 17  1  0  0  0  0
 21 22  1  0  0  0  0
 21 19  1  0  0  0  0
 22 23  1  0  0  0  0
 23 24  1  0  0  0  0
 24 25  2  0  0  0  0
 24 26  1  0  0  0  0
 27 46  1  1  0  0  0
 28 29  1  0  0  0  0
 29 27  1  0  0  0  0
 29 30  1  0  0  0  0
 31 29  1  0  0  0  0
 32 31  1  0  0  0  0
 34 43  1  0  0  0  0
 35 36  1  0  0  0  0
 35 33  1  0  0  0  0
 37 41  1  1  0  0  0
 37 34  1  0  0  0  0
 37 35  1  0  0  0  0
 38 45  1  0  0  0  0
 38 36  2  0  0  0  0
 39 38  1  0  0  0  0
 39 40  1  0  0  0  0
 40 34  2  0  0  0  0
 41 42  1  0  0  0  0
 42 33  1  0  0  0  0
 43 32  1  0  0  0  0
 45 44  1  0  0  0  0
 46 47  1  0  0  0  0
M  END
>  <MODEL>
1

>  <REMARK>
 VINA RESULT:      -6.3      0.000      0.000
  Name = 
  19 active torsions:
  status: ('A' for Active; 'I' for Inactive)
    1  A    between atoms: C_1  and  C_8
    2  A    between atoms: C_5  and  O_33
    3  A    between atoms: C_5  and  C_38
    4  A    between atoms: N_6  and  C_24
    5  A    between atoms: C_7  and  P_10
    6  A    between atoms: C_7  and  C_15
    7  A    between atoms: C_8  and  C_11
    8  A    between atoms: C_8  and  N_43
    9  A    between atoms: P_10  and  O_33
   10  A    between atoms: C_11  and  C_12
   11  A    between atoms: C_12  and  C_42
   12  A    between atoms: C_14  and  C_45
   13  A    between atoms: N_18  and  C_22
   14  A    between atoms: C_19  and  C_38
   15  A    between atoms: C_22  and  C_39
   16  A    between atoms: C_24  and  O_34
   17  A    between atoms: C_24  and  C_39
   18  A    between atoms: C_26  and  O_40
   19  A    between atoms: N_36  and  C_42
                            x       y       z     vdW  Elec       q    Type
                         _______ _______ _______ _____ _____    ______ ____

>  <TORSDO>
F 19

$$$$
=
 OpenBabel10222420233D

 47 50  0  0  1  0  0  0  0  0999 V2000
  190.4660  176.9570  140.2440 C   0  0  0  0  0  0  0  0  0  0  0  0
  190.9600  176.5760  138.9430 C   0  0  0  0  0  0  0  0  0  0  0  0
  189.1810  177.0700  140.2530 N   0  0  0  0  0  0  0  0  0  0  0  0
  191.2860  177.1760  141.3930 N   0  0  0  0  0  2  0  0  0  0  0  0
  188.6840  176.7690  138.9130 C   0  0  2  0  0  3  0  0  0  0  0  0
  189.9260  176.4490  138.1300 C   0  0  0  0  0  3  0  0  0  0  0  0
  188.0030  177.9970  138.3320 C   0  0  2  0  0  3  0  0  0  0  0  0
  188.3350  178.1100  136.9530 N   0  0  0  0  0  0  0  0  0  0  0  0
  188.9830  178.9450  137.9300 N   0  0  0  0  0  2  0  0  0  0  0  0
  187.2910  178.9120  136.3380 C   0  0  0  0  0  2  0  0  0  0  0  0
  186.8880  178.3140  134.9990 C   0  0  0  0  0  2  0  0  0  0  0  0
  186.2580  176.9320  135.1830 C   0  0  2  0  0  3  0  0  0  0  0  0
  185.2060  176.9670  136.1940 N   0  0  0  0  0  2  0  0  0  0  0  0
  183.9530  177.2180  135.5030 C   0  0  0  0  0  1  0  0  0  0  0  0
  187.2110  175.9190  135.4380 O   0  0  0  0  0  0  0  0  0  0  0  0
  186.6450  174.9620  136.2950 C   0  0  0  0  0  1  0  0  0  0  0  0
  192.3790  176.3030  138.5750 C   0  0  0  0  0  2  0  0  0  0  0  0
  191.2920  173.9990  137.6080 O   0  0  0  0  0  1  0  0  0  0  0  0
  192.4740  174.9190  137.4000 P   0  0  1  0  0  0  0  0  0  0  0  0
  192.4480  175.5250  135.8200 O   0  0  0  0  0  0  0  0  0  0  0  0
  193.9190  174.0720  137.6750 O   0  0  0  0  0  0  0  0  0  0  0  0
  194.7120  174.9240  138.4440 C   0  0  0  0  0  2  0  0  0  0  0  0
  195.8680  174.1410  139.0340 C   0  0  0  0  0  2  0  0  0  0  0  0
  196.1840  172.9760  138.1640 C   0  0  0  0  0  0  0  0  0  0  0  0
  196.9720  173.1100  137.1940 O   0  0  0  0  0  0  0  0  0  0  0  0
  195.6320  171.7320  138.4410 O   0  0  0  0  0  1  0  0  0  0  0  0
  190.7380  177.6110  142.6730 C   0  0  1  0  0  3  0  0  0  0  0  0
  191.3950  176.2110  144.4930 F   0  0  0  0  0  0  0  0  0  0  0  0
  190.4070  176.3930  143.5380 C   0  0  0  0  0  0  0  0  0  0  0  0
  190.3510  175.2680  142.7300 F   0  0  0  0  0  0  0  0  0  0  0  0
  189.0480  176.5890  144.2090 C   0  0  0  0  0  2  0  0  0  0  0  0
  187.9120  176.6900  143.1980 C   0  0  0  0  0  2  0  0  0  0  0  0
  182.8480  178.6680  144.2630 C   0  0  0  0  0  2  0  0  0  0  0  0
  186.0280  178.3580  142.8490 C   0  0  0  0  0  0  0  0  0  0  0  0
  183.6560  178.7900  143.0920 N   0  0  0  0  0  0  0  0  0  0  0  0
  183.1660  178.4700  141.7800 C   0  0  0  0  0  3  0  0  0  0  0  0
  184.9800  179.2550  143.4480 C   0  0  1  0  0  3  0  0  0  0  0  0
  183.8880  178.5550  140.6550 C   0  0  0  0  0  0  0  0  0  0  0  0
  185.3130  179.0480  140.6440 C   0  0  0  0  0  2  0  0  0  0  0  0
  186.1480  178.2750  141.5580 N   0  0  0  0  0  0  0  0  0  0  0  0
  185.0750  179.2830  144.8550 O   0  0  0  0  0  0  0  0  0  0  0  0
  183.7610  179.1620  145.3610 C   0  0  0  0  0  2  0  0  0  0  0  0
  186.8530  177.5560  143.7000 N   0  0  0  0  0  2  0  0  0  0  0  0
  183.0380  176.8330  139.0990 C   0  0  0  0  0  1  0  0  0  0  0  0
  183.2650  178.1890  139.4590 O   0  0  0  0  0  0  0  0  0  0  0  0
  191.7330  178.5360  143.3750 C   0  0  0  0  0  2  0  0  0  0  0  0
  191.0080  179.6390  144.1210 C   0  0  0  0  0  1  0  0  0  0  0  0
  1  3  2  0  0  0  0
  1  4  1  0  0  0  0
  2  1  1  0  0  0  0
  4 27  1  0  0  0  0
  5  6  1  6  0  0  0
  5  3  1  0  0  0  0
  6  2  2  0  0  0  0
  7  9  1  1  0  0  0
  7  5  1  0  0  0  0
  8  9  1  0  0  0  0
  8  7  1  0  0  0  0
 10  8  1  0  0  0  0
 11 10  1  0  0  0  0
 12 11  1  1  0  0  0
 12 15  1  0  0  0  0
 12 13  1  0  0  0  0
 14 13  1  0  0  0  0
 15 16  1  0  0  0  0
 17  2  1  0  0  0  0
 19 20  2  6  0  0  0
 19 18  1  0  0  0  0
 19 21  1  0  0  0  0
 19 17  1  0  0  0  0
 21 22  1  0  0  0  0
 22 23  1  0  0  0  0
 24 26  1  0  0  0  0
 24 23  1  0  0  0  0
 25 24  2  0  0  0  0
 27 46  1  1  0  0  0
 27 29  1  0  0  0  0
 29 31  1  0  0  0  0
 29 28  1  0  0  0  0
 30 29  1  0  0  0  0
 32 43  1  0  0  0  0
 32 31  1  0  0  0  0
 33 42  1  0  0  0  0
 34 43  1  0  0  0  0
 35 37  1  0  0  0  0
 35 33  1  0  0  0  0
 36 35  1  0  0  0  0
 37 34  1  6  0  0  0
 37 41  1  0  0  0  0
 38 36  2  0  0  0  0
 39 38  1  0  0  0  0
 39 40  1  0  0  0  0
 40 34  2  0  0  0  0
 41 42  1  0  0  0  0
 44 45  1  0  0  0  0
 45 38  1  0  0  0  0
 46 47  1  0  0  0  0
M  END
>  <MODEL>
2

>  <REMARK>
 VINA RESULT:      -6.2      3.395      7.643
  Name = 
  19 active torsions:
  status: ('A' for Active; 'I' for Inactive)
    1  A    between atoms: C_1  and  C_8
    2  A    between atoms: C_5  and  O_33
    3  A    between atoms: C_5  and  C_38
    4  A    between atoms: N_6  and  C_24
    5  A    between atoms: C_7  and  P_10
    6  A    between atoms: C_7  and  C_15
    7  A    between atoms: C_8  and  C_11
    8  A    between atoms: C_8  and  N_43
    9  A    between atoms: P_10  and  O_33
   10  A    between atoms: C_11  and  C_12
   11  A    between atoms: C_12  and  C_42
   12  A    between atoms: C_14  and  C_45
   13  A    between atoms: N_18  and  C_22
   14  A    between atoms: C_19  and  C_38
   15  A    between atoms: C_22  and  C_39
   16  A    between atoms: C_24  and  O_34
   17  A    between atoms: C_24  and  C_39
   18  A    between atoms: C_26  and  O_40
   19  A    between atoms: N_36  and  C_42
                            x       y       z     vdW  Elec       q    Type
                         _______ _______ _______ _____ _____    ______ ____

>  <TORSDO>
F 19

$$$$
=
 OpenBabel10222420233D

 47 50  0  0  1  0  0  0  0  0999 V2000
  187.2540  178.1230  140.1450 C   0  0  0  0  0  0  0  0  0  0  0  0
  188.2850  177.4090  139.4320 C   0  0  0  0  0  0  0  0  0  0  0  0
  187.6530  178.5000  141.3120 N   0  0  0  0  0  0  0  0  0  0  0  0
  185.9490  178.3950  139.6310 N   0  0  0  0  0  2  0  0  0  0  0  0
  189.0320  178.0540  141.4920 C   0  0  2  0  0  3  0  0  0  0  0  0
  189.3580  177.3570  140.2020 C   0  0  0  0  0  3  0  0  0  0  0  0
  189.1050  177.0720  142.6490 C   0  0  2  0  0  3  0  0  0  0  0  0
  190.0070  177.5680  143.6310 N   0  0  0  0  0  0  0  0  0  0  0  0
  190.4140  176.5220  142.7310 N   0  0  0  0  0  2  0  0  0  0  0  0
  189.6490  176.9290  144.8860 C   0  0  0  0  0  2  0  0  0  0  0  0
  189.1360  177.9630  145.8760 C   0  0  0  0  0  2  0  0  0  0  0  0
  187.7650  177.5640  146.4260 C   0  0  2  0  0  3  0  0  0  0  0  0
  186.6980  178.3070  145.7640 N   0  0  0  0  0  2  0  0  0  0  0  0
  185.6150  178.4510  146.7210 C   0  0  0  0  0  1  0  0  0  0  0  0
  187.6870  177.6580  147.8360 O   0  0  0  0  0  0  0  0  0  0  0  0
  188.9020  178.1600  148.3300 C   0  0  0  0  0  1  0  0  0  0  0  0
  188.2000  176.8750  138.0430 C   0  0  0  0  0  2  0  0  0  0  0  0
  188.5410  177.8270  135.5130 O   0  0  0  0  0  0  0  0  0  0  0  0
  189.1390  177.9300  136.8980 P   0  0  1  0  0  0  0  0  0  0  0  0
  189.0640  179.5360  137.4290 O   0  0  0  0  0  1  0  0  0  0  0  0
  190.7510  177.4000  136.8700 O   0  0  0  0  0  0  0  0  0  0  0  0
  190.6880  176.0070  136.9020 C   0  0  0  0  0  2  0  0  0  0  0  0
  191.6130  175.4850  137.9840 C   0  0  0  0  0  2  0  0  0  0  0  0
  192.9840  176.0250  137.7780 C   0  0  0  0  0  0  0  0  0  0  0  0
  193.6250  175.7350  136.7350 O   0  0  0  0  0  0  0  0  0  0  0  0
  193.5470  176.8730  138.7230 O   0  0  0  0  0  1  0  0  0  0  0  0
  184.9250  179.0760  140.4160 C   0  0  1  0  0  3  0  0  0  0  0  0
  183.8300  178.6690  138.3320 F   0  0  0  0  0  0  0  0  0  0  0  0
  183.6230  179.1510  139.6150 C   0  0  0  0  0  0  0  0  0  0  0  0
  183.2160  180.4730  139.5400 F   0  0  0  0  0  0  0  0  0  0  0  0
  182.5360  178.3370  140.3190 C   0  0  0  0  0  2  0  0  0  0  0  0
  181.2190  179.0980  140.4230 C   0  0  0  0  0  2  0  0  0  0  0  0
  180.0970  180.1640  135.1030 C   0  0  0  0  0  2  0  0  0  0  0  0
  179.9100  180.2740  138.5910 C   0  0  0  0  0  0  0  0  0  0  0  0
  179.8800  180.9620  136.2680 N   0  0  0  0  0  0  0  0  0  0  0  0
  180.3240  182.3250  136.3630 C   0  0  0  0  0  3  0  0  0  0  0  0
  179.1840  180.1920  137.2770 C   0  0  1  0  0  3  0  0  0  0  0  0
  180.1580  183.1090  137.4360 C   0  0  0  0  0  0  0  0  0  0  0  0
  179.4300  182.6430  138.6720 C   0  0  0  0  0  2  0  0  0  0  0  0
  180.0170  181.4160  139.2010 N   0  0  0  0  0  0  0  0  0  0  0  0
  179.0910  178.8580  136.8260 O   0  0  0  0  0  0  0  0  0  0  0  0
  179.4160  178.8610  135.4510 C   0  0  0  0  0  2  0  0  0  0  0  0
  180.5290  179.1060  139.1390 N   0  0  0  0  0  2  0  0  0  0  0  0
  181.0500  185.0200  136.1480 C   0  0  0  0  0  1  0  0  0  0  0  0
  180.6670  184.4090  137.3720 O   0  0  0  0  0  0  0  0  0  0  0  0
  184.7200  178.3470  141.7430 C   0  0  0  0  0  2  0  0  0  0  0  0
  184.7290  179.3250  142.9020 C   0  0  0  0  0  1  0  0  0  0  0  0
  1  3  2  0  0  0  0
  2  1  1  0  0  0  0
  2  6  2  0  0  0  0
  3  5  1  0  0  0  0
  4  1  1  0  0  0  0
  4 27  1  0  0  0  0
  5  6  1  6  0  0  0
  5  7  1  0  0  0  0
  7  9  1  6  0  0  0
  7  8  1  0  0  0  0
  8 10  1  0  0  0  0
  9  8  1  0  0  0  0
 10 11  1  0  0  0  0
 12 11  1  6  0  0  0
 12 15  1  0  0  0  0
 13 12  1  0  0  0  0
 13 14  1  0  0  0  0
 15 16  1  0  0  0  0
 17  2  1  0  0  0  0
 19 18  2  6  0  0  0
 19 20  1  0  0  0  0
 19 17  1  0  0  0  0
 21 19  1  0  0  0  0
 21 22  1  0  0  0  0
 22 23  1  0  0  0  0
 24 23  1  0  0  0  0
 24 26  1  0  0  0  0
 25 24  2  0  0  0  0
 27 46  1  1  0  0  0
 28 29  1  0  0  0  0
 29 31  1  0  0  0  0
 29 27  1  0  0  0  0
 30 29  1  0  0  0  0
 31 32  1  0  0  0  0
 33 42  1  0  0  0  0
 33 35  1  0  0  0  0
 34 43  1  0  0  0  0
 34 40  2  0  0  0  0
 35 36  1  0  0  0  0
 35 37  1  0  0  0  0
 36 38  2  0  0  0  0
 37 41  1  6  0  0  0
 37 34  1  0  0  0  0
 38 39  1  0  0  0  0
 39 40  1  0  0  0  0
 42 41  1  0  0  0  0
 43 32  1  0  0  0  0
 44 45  1  0  0  0  0
 45 38  1  0  0  0  0
 46 47  1  0  0  0  0
M  END
>  <MODEL>
3

>  <REMARK>
 VINA RESULT:      -6.1      3.045      4.880
  Name = 
  19 active torsions:
  status: ('A' for Active; 'I' for Inactive)
    1  A    between atoms: C_1  and  C_8
    2  A    between atoms: C_5  and  O_33
    3  A    between atoms: C_5  and  C_38
    4  A    between atoms: N_6  and  C_24
    5  A    between atoms: C_7  and  P_10
    6  A    between atoms: C_7  and  C_15
    7  A    between atoms: C_8  and  C_11
    8  A    between atoms: C_8  and  N_43
    9  A    between atoms: P_10  and  O_33
   10  A    between atoms: C_11  and  C_12
   11  A    between atoms: C_12  and  C_42
   12  A    between atoms: C_14  and  C_45
   13  A    between atoms: N_18  and  C_22
   14  A    between atoms: C_19  and  C_38
   15  A    between atoms: C_22  and  C_39
   16  A    between atoms: C_24  and  O_34
   17  A    between atoms: C_24  and  C_39
   18  A    between atoms: C_26  and  O_40
   19  A    between atoms: N_36  and  C_42
                            x       y       z     vdW  Elec       q    Type
                         _______ _______ _______ _____ _____    ______ ____

>  <TORSDO>
F 19

$$$$
=
 OpenBabel10222420233D

 47 50  0  0  1  0  0  0  0  0999 V2000
  188.4300  176.2570  137.5190 C   0  0  0  0  0  0  0  0  0  0  0  0
  189.7790  176.6610  137.2030 C   0  0  0  0  0  0  0  0  0  0  0  0
  188.0100  176.8020  138.6100 N   0  0  0  0  0  0  0  0  0  0  0  0
  187.6400  175.3710  136.7240 N   0  0  0  0  0  2  0  0  0  0  0  0
  189.0780  177.6440  139.1420 C   0  0  2  0  0  3  0  0  0  0  0  0
  190.1910  177.4910  138.1450 C   0  0  0  0  0  3  0  0  0  0  0  0
  189.5170  177.1170  140.4980 C   0  0  2  0  0  3  0  0  0  0  0  0
  190.8170  177.6130  140.7970 N   0  0  0  0  0  0  0  0  0  0  0  0
  190.6400  176.2590  140.3410 N   0  0  0  0  0  2  0  0  0  0  0  0
  190.9620  177.5550  142.2410 C   0  0  0  0  0  2  0  0  0  0  0  0
  189.7860  178.2430  142.9170 C   0  0  0  0  0  2  0  0  0  0  0  0
  189.4860  177.6100  144.2770 C   0  0  2  0  0  3  0  0  0  0  0  0
  190.5340  176.6670  144.6570 N   0  0  0  0  0  2  0  0  0  0  0  0
  191.0090  177.0590  145.9720 C   0  0  0  0  0  1  0  0  0  0  0  0
  188.1970  177.0330  144.3450 O   0  0  0  0  0  0  0  0  0  0  0  0
  187.4040  177.7860  145.2270 C   0  0  0  0  0  1  0  0  0  0  0  0
  190.5640  176.2750  135.9960 C   0  0  0  0  0  2  0  0  0  0  0  0
  190.8920  174.0650  137.5570 O   0  0  0  0  0  1  0  0  0  0  0  0
  191.2040  174.5820  136.1700 P   0  0  1  0  0  0  0  0  0  0  0  0
  190.4670  173.5860  135.0160 O   0  0  0  0  0  0  0  0  0  0  0  0
  192.8830  174.6090  135.9290 O   0  0  0  0  0  0  0  0  0  0  0  0
  193.4370  174.8780  137.1810 C   0  0  0  0  0  2  0  0  0  0  0  0
  194.9100  174.5210  137.1690 C   0  0  0  0  0  2  0  0  0  0  0  0
  195.4010  174.3560  138.5640 C   0  0  0  0  0  0  0  0  0  0  0  0
  195.3290  175.3160  139.3740 O   0  0  0  0  0  1  0  0  0  0  0  0
  195.9120  173.1350  138.9820 O   0  0  0  0  0  0  0  0  0  0  0  0
  186.2980  174.9540  137.1170 C   0  0  1  0  0  3  0  0  0  0  0  0
  185.1130  174.4260  135.1110 F   0  0  0  0  0  0  0  0  0  0  0  0
  185.2830  175.4140  136.0670 C   0  0  0  0  0  0  0  0  0  0  0  0
  185.7610  176.5600  135.4510 F   0  0  0  0  0  0  0  0  0  0  0  0
  183.9500  175.7340  136.7440 C   0  0  0  0  0  2  0  0  0  0  0  0
  183.6510  177.2290  136.7550 C   0  0  0  0  0  2  0  0  0  0  0  0
  184.8190  178.3560  142.0520 C   0  0  0  0  0  2  0  0  0  0  0  0
  183.4970  178.6810  138.8340 C   0  0  0  0  0  0  0  0  0  0  0  0
  183.7140  178.7660  141.2450 N   0  0  0  0  0  0  0  0  0  0  0  0
  182.3490  178.6040  141.6650 C   0  0  0  0  0  3  0  0  0  0  0  0
  184.1890  179.3310  140.0000 C   0  0  1  0  0  3  0  0  0  0  0  0
  181.2810  178.9600  140.9410 C   0  0  0  0  0  0  0  0  0  0  0  0
  181.4030  179.6230  139.5920 C   0  0  0  0  0  2  0  0  0  0  0  0
  182.2150  178.8240  138.6800 N   0  0  0  0  0  0  0  0  0  0  0  0
  185.5860  179.1420  139.9350 O   0  0  0  0  0  0  0  0  0  0  0  0
  186.0160  178.7770  141.2310 C   0  0  0  0  0  2  0  0  0  0  0  0
  184.2430  177.8620  137.9260 N   0  0  0  0  0  2  0  0  0  0  0  0
  178.9850  178.0600  140.7680 C   0  0  0  0  0  1  0  0  0  0  0  0
  180.0180  178.7170  141.4890 O   0  0  0  0  0  0  0  0  0  0  0  0
  186.2600  173.4370  137.2980 C   0  0  0  0  0  2  0  0  0  0  0  0
  187.4190  172.7780  136.5750 C   0  0  0  0  0  1  0  0  0  0  0  0
  1  3  2  0  0  0  0
  2  1  1  0  0  0  0
  2  6  2  0  0  0  0
  3  5  1  0  0  0  0
  4 27  1  0  0  0  0
  4  1  1  0  0  0  0
  5  6  1  6  0  0  0
  5  7  1  0  0  0  0
  7  9  1  6  0  0  0
  7  8  1  0  0  0  0
  8 10  1  0  0  0  0
  9  8  1  0  0  0  0
 10 11  1  0  0  0  0
 12 11  1  6  0  0  0
 12 15  1  0  0  0  0
 12 13  1  0  0  0  0
 13 14  1  0  0  0  0
 15 16  1  0  0  0  0
 17 19  1  0  0  0  0
 17  2  1  0  0  0  0
 19 20  2  6  0  0  0
 19 18  1  0  0  0  0
 21 19  1  0  0  0  0
 21 22  1  0  0  0  0
 23 22  1  0  0  0  0
 23 24  1  0  0  0  0
 24 26  2  0  0  0  0
 24 25  1  0  0  0  0
 27 46  1  6  0  0  0
 28 29  1  0  0  0  0
 29 31  1  0  0  0  0
 29 27  1  0  0  0  0
 30 29  1  0  0  0  0
 31 32  1  0  0  0  0
 32 43  1  0  0  0  0
 35 36  1  0  0  0  0
 35 33  1  0  0  0  0
 37 34  1  6  0  0  0
 37 35  1  0  0  0  0
 38 45  1  0  0  0  0
 38 36  2  0  0  0  0
 39 38  1  0  0  0  0
 40 34  2  0  0  0  0
 40 39  1  0  0  0  0
 41 37  1  0  0  0  0
 41 42  1  0  0  0  0
 42 33  1  0  0  0  0
 43 34  1  0  0  0  0
 44 45  1  0  0  0  0
 47 46  1  0  0  0  0
M  END
>  <MODEL>
4

>  <REMARK>
 VINA RESULT:      -6.0      2.839      5.409
  Name = 
  19 active torsions:
  status: ('A' for Active; 'I' for Inactive)
    1  A    between atoms: C_1  and  C_8
    2  A    between atoms: C_5  and  O_33
    3  A    between atoms: C_5  and  C_38
    4  A    between atoms: N_6  and  C_24
    5  A    between atoms: C_7  and  P_10
    6  A    between atoms: C_7  and  C_15
    7  A    between atoms: C_8  and  C_11
    8  A    between atoms: C_8  and  N_43
    9  A    between atoms: P_10  and  O_33
   10  A    between atoms: C_11  and  C_12
   11  A    between atoms: C_12  and  C_42
   12  A    between atoms: C_14  and  C_45
   13  A    between atoms: N_18  and  C_22
   14  A    between atoms: C_19  and  C_38
   15  A    between atoms: C_22  and  C_39
   16  A    between atoms: C_24  and  O_34
   17  A    between atoms: C_24  and  C_39
   18  A    between atoms: C_26  and  O_40
   19  A    between atoms: N_36  and  C_42
                            x       y       z     vdW  Elec       q    Type
                         _______ _______ _______ _____ _____    ______ ____

>  <TORSDO>
F 19

$$$$
=
 OpenBabel10222420233D

 47 50  0  0  1  0  0  0  0  0999 V2000
  190.1710  175.5390  136.4610 C   0  0  0  0  0  0  0  0  0  0  0  0
  191.2920  174.9840  135.7410 C   0  0  0  0  0  0  0  0  0  0  0  0
  189.3490  174.6230  136.8470 N   0  0  0  0  0  0  0  0  0  0  0  0
  189.9850  176.9300  136.7290 N   0  0  0  0  0  2  0  0  0  0  0  0
  189.8630  173.3290  136.4030 C   0  0  2  0  0  3  0  0  0  0  0  0
  191.1440  173.6720  135.6950 C   0  0  0  0  0  3  0  0  0  0  0  0
  188.8830  172.6970  135.4290 C   0  0  2  0  0  3  0  0  0  0  0  0
  187.5630  172.8100  135.9500 N   0  0  0  0  0  0  0  0  0  0  0  0
  188.2740  171.5610  136.0290 N   0  0  0  0  0  2  0  0  0  0  0  0
  186.6590  172.7090  134.8170 C   0  0  0  0  0  2  0  0  0  0  0  0
  185.2220  172.9190  135.2700 C   0  0  0  0  0  2  0  0  0  0  0  0
  185.1060  172.8130  136.7920 C   0  0  2  0  0  3  0  0  0  0  0  0
  183.8640  172.1490  137.1760 N   0  0  0  0  0  2  0  0  0  0  0  0
  183.7290  170.9720  136.3350 C   0  0  0  0  0  1  0  0  0  0  0  0
  185.2720  174.0560  137.4470 O   0  0  0  0  0  0  0  0  0  0  0  0
  184.0070  174.5990  137.7270 C   0  0  0  0  0  1  0  0  0  0  0  0
  192.4590  175.7350  135.1970 C   0  0  0  0  0  2  0  0  0  0  0  0
  194.7320  176.9710  136.0510 O   0  0  0  0  0  0  0  0  0  0  0  0
  193.7620  175.8840  136.4560 P   0  0  1  0  0  0  0  0  0  0  0  0
  193.0580  176.2790  137.9440 O   0  0  0  0  0  1  0  0  0  0  0  0
  194.5760  174.3990  136.5730 O   0  0  0  0  0  0  0  0  0  0  0  0
  195.9330  174.7070  136.4640 C   0  0  0  0  0  2  0  0  0  0  0  0
  196.6960  174.0270  137.5830 C   0  0  0  0  0  2  0  0  0  0  0  0
  195.8560  173.9840  138.8110 C   0  0  0  0  0  0  0  0  0  0  0  0
  195.2520  172.9260  139.1240 O   0  0  0  0  0  0  0  0  0  0  0  0
  195.7630  175.1010  139.6310 O   0  0  0  0  0  1  0  0  0  0  0  0
  188.8040  177.4430  137.4150 C   0  0  1  0  0  3  0  0  0  0  0  0
  189.1990  179.5090  138.5470 F   0  0  0  0  0  0  0  0  0  0  0  0
  189.2200  178.1340  138.7160 C   0  0  0  0  0  0  0  0  0  0  0  0
  190.5080  177.7400  139.0440 F   0  0  0  0  0  0  0  0  0  0  0  0
  188.2730  177.7230  139.8440 C   0  0  0  0  0  2  0  0  0  0  0  0
  188.2090  178.7670  140.9540 C   0  0  0  0  0  2  0  0  0  0  0  0
  184.6890  179.1810  145.2120 C   0  0  0  0  0  2  0  0  0  0  0  0
  187.0960  177.8620  143.0510 C   0  0  0  0  0  0  0  0  0  0  0  0
  185.8800  178.4050  145.0740 N   0  0  0  0  0  0  0  0  0  0  0  0
  186.9340  178.4300  146.0490 C   0  0  0  0  0  3  0  0  0  0  0  0
  185.8370  177.6430  143.8430 C   0  0  1  0  0  3  0  0  0  0  0  0
  188.0740  177.7330  145.9590 C   0  0  0  0  0  0  0  0  0  0  0  0
  188.3570  176.7910  144.8150 C   0  0  0  0  0  2  0  0  0  0  0  0
  188.2390  177.4700  143.5290 N   0  0  0  0  0  0  0  0  0  0  0  0
  184.6980  178.0440  143.1150 O   0  0  0  0  0  0  0  0  0  0  0  0
  183.8790  178.7820  144.0000 C   0  0  0  0  0  2  0  0  0  0  0  0
  187.0400  178.5490  141.7960 N   0  0  0  0  0  2  0  0  0  0  0  0
  189.8830  176.8390  147.3850 C   0  0  0  0  0  1  0  0  0  0  0  0
  189.0070  177.8840  146.9880 O   0  0  0  0  0  0  0  0  0  0  0  0
  188.0450  178.4000  136.4960 C   0  0  0  0  0  2  0  0  0  0  0  0
  186.5550  178.1270  136.5480 C   0  0  0  0  0  1  0  0  0  0  0  0
  1  4  1  0  0  0  0
  1  3  2  0  0  0  0
  2  1  1  0  0  0  0
  4 27  1  0  0  0  0
  5  6  1  6  0  0  0
  5  3  1  0  0  0  0
  6  2  2  0  0  0  0
  7  8  1  0  0  0  0
  7  9  1  1  0  0  0
  7  5  1  0  0  0  0
  8  9  1  0  0  0  0
 10 11  1  0  0  0  0
 10  8  1  0  0  0  0
 12 11  1  6  0  0  0
 12 13  1  0  0  0  0
 12 15  1  0  0  0  0
 14 13  1  0  0  0  0
 15 16  1  0  0  0  0
 17  2  1  0  0  0  0
 17 19  1  0  0  0  0
 19 18  2  6  0  0  0
 19 21  1  0  0  0  0
 19 20  1  0  0  0  0
 22 21  1  0  0  0  0
 22 23  1  0  0  0  0
 23 24  1  0  0  0  0
 24 25  2  0  0  0  0
 24 26  1  0  0  0  0
 27 46  1  6  0  0  0
 27 29  1  0  0  0  0
 28 29  1  0  0  0  0
 29 30  1  0  0  0  0
 29 31  1  0  0  0  0
 31 32  1  0  0  0  0
 32 43  1  0  0  0  0
 34 40  2  0  0  0  0
 35 33  1  0  0  0  0
 35 36  1  0  0  0  0
 37 34  1  6  0  0  0
 37 35  1  0  0  0  0
 38 36  2  0  0  0  0
 38 45  1  0  0  0  0
 39 38  1  0  0  0  0
 40 39  1  0  0  0  0
 41 37  1  0  0  0  0
 41 42  1  0  0  0  0
 42 33  1  0  0  0  0
 43 34  1  0  0  0  0
 45 44  1  0  0  0  0
 46 47  1  0  0  0  0
M  END
>  <MODEL>
5

>  <REMARK>
 VINA RESULT:      -5.9      3.190      8.373
  Name = 
  19 active torsions:
  status: ('A' for Active; 'I' for Inactive)
    1  A    between atoms: C_1  and  C_8
    2  A    between atoms: C_5  and  O_33
    3  A    between atoms: C_5  and  C_38
    4  A    between atoms: N_6  and  C_24
    5  A    between atoms: C_7  and  P_10
    6  A    between atoms: C_7  and  C_15
    7  A    between atoms: C_8  and  C_11
    8  A    between atoms: C_8  and  N_43
    9  A    between atoms: P_10  and  O_33
   10  A    between atoms: C_11  and  C_12
   11  A    between atoms: C_12  and  C_42
   12  A    between atoms: C_14  and  C_45
   13  A    between atoms: N_18  and  C_22
   14  A    between atoms: C_19  and  C_38
   15  A    between atoms: C_22  and  C_39
   16  A    between atoms: C_24  and  O_34
   17  A    between atoms: C_24  and  C_39
   18  A    between atoms: C_26  and  O_40
   19  A    between atoms: N_36  and  C_42
                            x       y       z     vdW  Elec       q    Type
                         _______ _______ _______ _____ _____    ______ ____

>  <TORSDO>
F 19

$$$$
=
 OpenBabel10222420233D

 47 50  0  0  1  0  0  0  0  0999 V2000
  191.0210  176.9990  140.2510 C   0  0  0  0  0  0  0  0  0  0  0  0
  191.7480  176.7700  139.0250 C   0  0  0  0  0  0  0  0  0  0  0  0
  189.7460  176.9180  140.0740 N   0  0  0  0  0  0  0  0  0  0  0  0
  191.6270  177.2740  141.5150 N   0  0  0  0  0  2  0  0  0  0  0  0
  189.4970  176.6200  138.6660 C   0  0  2  0  0  3  0  0  0  0  0  0
  190.8720  176.5340  138.0650 C   0  0  0  0  0  3  0  0  0  0  0  0
  188.7210  177.7620  138.0310 C   0  0  2  0  0  3  0  0  0  0  0  0
  187.9090  177.2520  136.9800 N   0  0  0  0  0  0  0  0  0  0  0  0
  189.1400  177.9380  136.6830 N   0  0  0  0  0  2  0  0  0  0  0  0
  186.8350  178.2100  136.7810 C   0  0  0  0  0  2  0  0  0  0  0  0
  185.4970  177.4910  136.7050 C   0  0  0  0  0  2  0  0  0  0  0  0
  184.6640  177.7450  137.9620 C   0  0  2  0  0  3  0  0  0  0  0  0
  183.2550  177.9320  137.6280 N   0  0  0  0  0  2  0  0  0  0  0  0
  182.9330  176.9800  136.5790 C   0  0  0  0  0  1  0  0  0  0  0  0
  185.1700  178.8010  138.7560 O   0  0  0  0  0  0  0  0  0  0  0  0
  184.1750  179.7820  138.9020 C   0  0  0  0  0  1  0  0  0  0  0  0
  193.2290  176.7330  138.8620 C   0  0  0  0  0  2  0  0  0  0  0  0
  192.9270  174.2070  137.8870 O   0  0  0  0  0  1  0  0  0  0  0  0
  193.7020  175.4810  137.6320 P   0  0  1  0  0  0  0  0  0  0  0  0
  193.3460  176.0590  136.0810 O   0  0  0  0  0  0  0  0  0  0  0  0
  195.3660  175.1810  137.7740 O   0  0  0  0  0  0  0  0  0  0  0  0
  195.5350  174.5980  139.0300 C   0  0  0  0  0  2  0  0  0  0  0  0
  197.0150  174.4850  139.3380 C   0  0  0  0  0  2  0  0  0  0  0  0
  197.3450  175.3050  140.5360 C   0  0  0  0  0  0  0  0  0  0  0  0
  196.7220  176.3750  140.7570 O   0  0  0  0  0  0  0  0  0  0  0  0
  198.3200  174.8750  141.4270 O   0  0  0  0  0  1  0  0  0  0  0  0
  190.8430  177.5510  142.7140 C   0  0  1  0  0  3  0  0  0  0  0  0
  190.8850  176.6030  144.9060 F   0  0  0  0  0  0  0  0  0  0  0  0
  190.7320  176.2840  143.5660 C   0  0  0  0  0  0  0  0  0  0  0  0
  191.7350  175.4030  143.1960 F   0  0  0  0  0  0  0  0  0  0  0  0
  189.3760  175.6200  143.3290 C   0  0  0  0  0  2  0  0  0  0  0  0
  188.3220  176.6110  142.8470 C   0  0  0  0  0  2  0  0  0  0  0  0
  184.5730  178.1770  146.6140 C   0  0  0  0  0  2  0  0  0  0  0  0
  186.6820  178.2830  143.8300 C   0  0  0  0  0  0  0  0  0  0  0  0
  184.7550  178.6030  145.2630 N   0  0  0  0  0  0  0  0  0  0  0  0
  183.6820  178.6190  144.3070 C   0  0  0  0  0  3  0  0  0  0  0  0
  186.1350  178.9840  145.0420 C   0  0  1  0  0  3  0  0  0  0  0  0
  183.8040  178.9970  143.0280 C   0  0  0  0  0  0  0  0  0  0  0  0
  185.1060  179.4980  142.4550 C   0  0  0  0  0  2  0  0  0  0  0  0
  186.1810  178.5320  142.6570 N   0  0  0  0  0  0  0  0  0  0  0  0
  186.8730  178.6560  146.1990 O   0  0  0  0  0  0  0  0  0  0  0  0
  185.9380  178.3910  147.2260 C   0  0  0  0  0  2  0  0  0  0  0  0
  187.7160  177.3050  143.9760 N   0  0  0  0  0  2  0  0  0  0  0  0
  182.5070  177.9750  141.1900 C   0  0  0  0  0  1  0  0  0  0  0  0
  182.6630  178.9360  142.2250 O   0  0  0  0  0  0  0  0  0  0  0  0
  191.4840  178.6950  143.5000 C   0  0  0  0  0  2  0  0  0  0  0  0
  190.5300  179.2270  144.5520 C   0  0  0  0  0  1  0  0  0  0  0  0
  1  4  1  0  0  0  0
  2  1  1  0  0  0  0
  3  1  2  0  0  0  0
  4 27  1  0  0  0  0
  5  6  1  6  0  0  0
  5  3  1  0  0  0  0
  6  2  2  0  0  0  0
  7  9  1  6  0  0  0
  7  5  1  0  0  0  0
  8  7  1  0  0  0  0
  9  8  1  0  0  0  0
 10  8  1  0  0  0  0
 11 10  1  0  0  0  0
 12 11  1  6  0  0  0
 12 15  1  0  0  0  0
 13 12  1  0  0  0  0
 14 13  1  0  0  0  0
 15 16  1  0  0  0  0
 17  2  1  0  0  0  0
 19 20  2  6  0  0  0
 19 21  1  0  0  0  0
 19 18  1  0  0  0  0
 19 17  1  0  0  0  0
 21 22  1  0  0  0  0
 22 23  1  0  0  0  0
 23 24  1  0  0  0  0
 24 25  2  0  0  0  0
 24 26  1  0  0  0  0
 27 46  1  1  0  0  0
 27 29  1  0  0  0  0
 29 28  1  0  0  0  0
 30 29  1  0  0  0  0
 31 29  1  0  0  0  0
 32 31  1  0  0  0  0
 32 43  1  0  0  0  0
 33 42  1  0  0  0  0
 34 43  1  0  0  0  0
 35 33  1  0  0  0  0
 36 35  1  0  0  0  0
 37 34  1  6  0  0  0
 37 35  1  0  0  0  0
 37 41  1  0  0  0  0
 38 36  2  0  0  0  0
 39 40  1  0  0  0  0
 39 38  1  0  0  0  0
 40 34  2  0  0  0  0
 41 42  1  0  0  0  0
 44 45  1  0  0  0  0
 45 38  1  0  0  0  0
 46 47  1  0  0  0  0
M  END
>  <MODEL>
6

>  <REMARK>
 VINA RESULT:      -5.9      3.709      8.141
  Name = 
  19 active torsions:
  status: ('A' for Active; 'I' for Inactive)
    1  A    between atoms: C_1  and  C_8
    2  A    between atoms: C_5  and  O_33
    3  A    between atoms: C_5  and  C_38
    4  A    between atoms: N_6  and  C_24
    5  A    between atoms: C_7  and  P_10
    6  A    between atoms: C_7  and  C_15
    7  A    between atoms: C_8  and  C_11
    8  A    between atoms: C_8  and  N_43
    9  A    between atoms: P_10  and  O_33
   10  A    between atoms: C_11  and  C_12
   11  A    between atoms: C_12  and  C_42
   12  A    between atoms: C_14  and  C_45
   13  A    between atoms: N_18  and  C_22
   14  A    between atoms: C_19  and  C_38
   15  A    between atoms: C_22  and  C_39
   16  A    between atoms: C_24  and  O_34
   17  A    between atoms: C_24  and  C_39
   18  A    between atoms: C_26  and  O_40
   19  A    between atoms: N_36  and  C_42
                            x       y       z     vdW  Elec       q    Type
                         _______ _______ _______ _____ _____    ______ ____

>  <TORSDO>
F 19

$$$$
=
 OpenBabel10222420233D

 47 50  0  0  1  0  0  0  0  0999 V2000
  187.9270  177.8490  140.9340 C   0  0  0  0  0  0  0  0  0  0  0  0
  187.3410  178.4780  142.0940 C   0  0  0  0  0  0  0  0  0  0  0  0
  188.6950  176.8660  141.2590 N   0  0  0  0  0  0  0  0  0  0  0  0
  187.6860  178.2500  139.5840 N   0  0  0  0  0  2  0  0  0  0  0  0
  188.6960  176.7460  142.7150 C   0  0  2  0  0  3  0  0  0  0  0  0
  187.7730  177.8420  143.1690 C   0  0  0  0  0  3  0  0  0  0  0  0
  190.0980  176.9930  143.2480 C   0  0  2  0  0  3  0  0  0  0  0  0
  190.0410  177.9570  144.2920 N   0  0  0  0  0  0  0  0  0  0  0  0
  190.4870  178.3330  142.9760 N   0  0  0  0  0  2  0  0  0  0  0  0
  191.2320  177.7650  145.1010 C   0  0  0  0  0  2  0  0  0  0  0  0
  191.1570  176.4380  145.8420 C   0  0  0  0  0  2  0  0  0  0  0  0
  190.8770  176.6550  147.3300 C   0  0  2  0  0  3  0  0  0  0  0  0
  189.9330  177.7500  147.5310 N   0  0  0  0  0  2  0  0  0  0  0  0
  188.6970  177.1670  148.0230 C   0  0  0  0  0  1  0  0  0  0  0  0
  192.0550  176.8160  148.0960 O   0  0  0  0  0  0  0  0  0  0  0  0
  192.8060  175.6310  148.0390 C   0  0  0  0  0  1  0  0  0  0  0  0
  186.3650  179.6050  142.0980 C   0  0  0  0  0  2  0  0  0  0  0  0
  184.1330  179.4070  140.5490 O   0  0  0  0  0  0  0  0  0  0  0  0
  184.6710  178.9780  141.8950 P   0  0  1  0  0  0  0  0  0  0  0  0
  184.6860  177.2870  141.9860 O   0  0  0  0  0  1  0  0  0  0  0  0
  183.7040  179.6190  143.1330 O   0  0  0  0  0  0  0  0  0  0  0  0
  184.5520  179.7710  144.2310 C   0  0  0  0  0  2  0  0  0  0  0  0
  184.1930  178.7500  145.2920 C   0  0  0  0  0  2  0  0  0  0  0  0
  185.3470  178.5500  146.2100 C   0  0  0  0  0  0  0  0  0  0  0  0
  186.0450  177.5070  146.1250 O   0  0  0  0  0  0  0  0  0  0  0  0
  185.6720  179.5270  147.1420 O   0  0  0  0  0  1  0  0  0  0  0  0
  188.3460  177.6130  138.4500 C   0  0  1  0  0  3  0  0  0  0  0  0
  187.9680  176.9520  136.1850 F   0  0  0  0  0  0  0  0  0  0  0  0
  187.4870  177.7730  137.1930 C   0  0  0  0  0  0  0  0  0  0  0  0
  187.5520  179.0910  136.7680 F   0  0  0  0  0  0  0  0  0  0  0  0
  186.0330  177.4260  137.5120 C   0  0  0  0  0  2  0  0  0  0  0  0
  185.2170  177.1380  136.2570 C   0  0  0  0  0  2  0  0  0  0  0  0
  181.2740  173.2470  136.2770 C   0  0  0  0  0  2  0  0  0  0  0  0
  183.7180  175.4590  137.4350 C   0  0  0  0  0  0  0  0  0  0  0  0
  181.6870  174.1440  137.3090 N   0  0  0  0  0  0  0  0  0  0  0  0
  180.7600  174.9720  138.0290 C   0  0  0  0  0  3  0  0  0  0  0  0
  183.1240  174.0790  137.4790 C   0  0  1  0  0  3  0  0  0  0  0  0
  181.0990  175.8380  138.9920 C   0  0  0  0  0  0  0  0  0  0  0  0
  182.5220  176.0070  139.4640 C   0  0  0  0  0  2  0  0  0  0  0  0
  183.4130  176.3260  138.3530 N   0  0  0  0  0  0  0  0  0  0  0  0
  183.6520  173.2610  136.4580 O   0  0  0  0  0  0  0  0  0  0  0  0
  182.5650  172.5720  135.8740 C   0  0  0  0  0  2  0  0  0  0  0  0
  184.5760  175.8330  136.3510 N   0  0  0  0  0  2  0  0  0  0  0  0
  180.2300  177.9490  139.9380 C   0  0  0  0  0  1  0  0  0  0  0  0
  180.0740  176.5830  139.5810 O   0  0  0  0  0  0  0  0  0  0  0  0
  189.7360  178.2160  138.2530 C   0  0  0  0  0  2  0  0  0  0  0  0
  190.7700  177.1280  138.0370 C   0  0  0  0  0  1  0  0  0  0  0  0
  1  3  2  0  0  0  0
  1  2  1  0  0  0  0
  2 17  1  0  0  0  0
  2  6  2  0  0  0  0
  3  5  1  0  0  0  0
  4  1  1  0  0  0  0
  5  6  1  1  0  0  0
  5  7  1  0  0  0  0
  7  9  1  6  0  0  0
  7  8  1  0  0  0  0
  8 10  1  0  0  0  0
  9  8  1  0  0  0  0
 10 11  1  0  0  0  0
 12 11  1  6  0  0  0
 12 13  1  0  0  0  0
 12 15  1  0  0  0  0
 13 14  1  0  0  0  0
 16 15  1  0  0  0  0
 19 18  2  6  0  0  0
 19 20  1  0  0  0  0
 19 17  1  0  0  0  0
 19 21  1  0  0  0  0
 21 22  1  0  0  0  0
 22 23  1  0  0  0  0
 23 24  1  0  0  0  0
 24 26  1  0  0  0  0
 25 24  2  0  0  0  0
 27 46  1  6  0  0  0
 27  4  1  0  0  0  0
 28 29  1  0  0  0  0
 29 31  1  0  0  0  0
 29 27  1  0  0  0  0
 30 29  1  0  0  0  0
 32 43  1  0  0  0  0
 32 31  1  0  0  0  0
 33 35  1  0  0  0  0
 34 37  1  0  0  0  0
 34 40  2  0  0  0  0
 35 37  1  0  0  0  0
 35 36  1  0  0  0  0
 36 38  2  0  0  0  0
 37 41  1  6  0  0  0
 38 39  1  0  0  0  0
 38 45  1  0  0  0  0
 40 39  1  0  0  0  0
 42 33  1  0  0  0  0
 42 41  1  0  0  0  0
 43 34  1  0  0  0  0
 45 44  1  0  0  0  0
 47 46  1  0  0  0  0
M  END
>  <MODEL>
7

>  <REMARK>
 VINA RESULT:      -5.7      3.319      5.646
  Name = 
  19 active torsions:
  status: ('A' for Active; 'I' for Inactive)
    1  A    between atoms: C_1  and  C_8
    2  A    between atoms: C_5  and  O_33
    3  A    between atoms: C_5  and  C_38
    4  A    between atoms: N_6  and  C_24
    5  A    between atoms: C_7  and  P_10
    6  A    between atoms: C_7  and  C_15
    7  A    between atoms: C_8  and  C_11
    8  A    between atoms: C_8  and  N_43
    9  A    between atoms: P_10  and  O_33
   10  A    between atoms: C_11  and  C_12
   11  A    between atoms: C_12  and  C_42
   12  A    between atoms: C_14  and  C_45
   13  A    between atoms: N_18  and  C_22
   14  A    between atoms: C_19  and  C_38
   15  A    between atoms: C_22  and  C_39
   16  A    between atoms: C_24  and  O_34
   17  A    between atoms: C_24  and  C_39
   18  A    between atoms: C_26  and  O_40
   19  A    between atoms: N_36  and  C_42
                            x       y       z     vdW  Elec       q    Type
                         _______ _______ _______ _____ _____    ______ ____

>  <TORSDO>
F 19

$$$$
=
 OpenBabel10222420233D

 47 50  0  0  1  0  0  0  0  0999 V2000
  189.0280  176.9510  138.5320 C   0  0  0  0  0  0  0  0  0  0  0  0
  189.7880  177.2550  139.7210 C   0  0  0  0  0  0  0  0  0  0  0  0
  189.6230  176.0770  137.7940 N   0  0  0  0  0  0  0  0  0  0  0  0
  187.7650  177.5330  138.2040 N   0  0  0  0  0  2  0  0  0  0  0  0
  190.8780  175.7070  138.4430 C   0  0  2  0  0  3  0  0  0  0  0  0
  190.8900  176.5260  139.7020 C   0  0  0  0  0  3  0  0  0  0  0  0
  192.0470  176.0980  137.5550 C   0  0  2  0  0  3  0  0  0  0  0  0
  193.1880  175.3270  137.9130 N   0  0  0  0  0  0  0  0  0  0  0  0
  193.0700  176.6950  138.3420 N   0  0  0  0  0  2  0  0  0  0  0  0
  194.0670  175.3220  136.7560 C   0  0  0  0  0  2  0  0  0  0  0  0
  195.2270  174.3640  136.9800 C   0  0  0  0  0  2  0  0  0  0  0  0
  195.5650  174.2500  138.4670 C   0  0  2  0  0  3  0  0  0  0  0  0
  196.8350  174.9050  138.7670 N   0  0  0  0  0  2  0  0  0  0  0  0
  197.0010  174.8790  140.2100 C   0  0  0  0  0  1  0  0  0  0  0  0
  195.5260  172.9170  138.9420 O   0  0  0  0  0  0  0  0  0  0  0  0
  195.5220  172.0400  137.8460 C   0  0  0  0  0  1  0  0  0  0  0  0
  189.3860  178.1740  140.8230 C   0  0  0  0  0  2  0  0  0  0  0  0
  187.8780  176.9810  142.7540 O   0  0  0  0  0  1  0  0  0  0  0  0
  189.3190  177.2790  142.4040 P   0  0  1  0  0  0  0  0  0  0  0  0
  190.1790  175.8280  142.2610 O   0  0  0  0  0  0  0  0  0  0  0  0
  190.0140  178.2520  143.6080 O   0  0  0  0  0  0  0  0  0  0  0  0
  189.7830  177.5820  144.8100 C   0  0  0  0  0  2  0  0  0  0  0  0
  191.0900  177.0260  145.3380 C   0  0  0  0  0  2  0  0  0  0  0  0
  191.0000  176.8370  146.8110 C   0  0  0  0  0  0  0  0  0  0  0  0
  192.0480  176.7670  147.5020 O   0  0  0  0  0  1  0  0  0  0  0  0
  189.7580  176.7670  147.4290 O   0  0  0  0  0  0  0  0  0  0  0  0
  187.0630  177.2300  136.9620 C   0  0  1  0  0  3  0  0  0  0  0  0
  185.1580  175.9320  137.5880 F   0  0  0  0  0  0  0  0  0  0  0  0
  185.5530  177.2060  137.2110 C   0  0  0  0  0  0  0  0  0  0  0  0
  184.8980  177.5520  136.0400 F   0  0  0  0  0  0  0  0  0  0  0  0
  185.1930  178.2180  138.2990 C   0  0  0  0  0  2  0  0  0  0  0  0
  183.8670  177.8910  138.9780 C   0  0  0  0  0  2  0  0  0  0  0  0
  180.1940  181.9870  138.3240 C   0  0  0  0  0  2  0  0  0  0  0  0
  181.5060  178.8260  139.0290 C   0  0  0  0  0  0  0  0  0  0  0  0
  180.1370  180.8210  139.1470 N   0  0  0  0  0  0  0  0  0  0  0  0
  179.8320  180.8820  140.5500 C   0  0  0  0  0  3  0  0  0  0  0  0
  180.4330  179.6410  138.3620 C   0  0  1  0  0  3  0  0  0  0  0  0
  179.7810  179.8220  141.3660 C   0  0  0  0  0  0  0  0  0  0  0  0
  180.0000  178.4120  140.8760 C   0  0  0  0  0  2  0  0  0  0  0  0
  181.2810  178.2840  140.1890 N   0  0  0  0  0  0  0  0  0  0  0  0
  180.8340  180.0580  137.0750 O   0  0  0  0  0  0  0  0  0  0  0  0
  180.4820  181.4210  136.9520 C   0  0  0  0  0  2  0  0  0  0  0  0
  182.7900  178.6930  138.4110 N   0  0  0  0  0  2  0  0  0  0  0  0
  179.3460  179.0050  143.6580 C   0  0  0  0  0  1  0  0  0  0  0  0
  179.4880  180.0560  142.7130 O   0  0  0  0  0  0  0  0  0  0  0  0
  187.4340  178.2580  135.8930 C   0  0  0  0  0  2  0  0  0  0  0  0
  188.5650  177.7460  135.0230 C   0  0  0  0  0  1  0  0  0  0  0  0
  1  2  1  0  0  0  0
  2 17  1  0  0  0  0
  3  5  1  0  0  0  0
  3  1  2  0  0  0  0
  4  1  1  0  0  0  0
  5  6  1  1  0  0  0
  6  2  2  0  0  0  0
  7  8  1  0  0  0  0
  7  9  1  1  0  0  0
  7  5  1  0  0  0  0
  8  9  1  0  0  0  0
 10 11  1  0  0  0  0
 10  8  1  0  0  0  0
 12 11  1  6  0  0  0
 12 13  1  0  0  0  0
 12 15  1  0  0  0  0
 13 14  1  0  0  0  0
 16 15  1  0  0  0  0
 17 19  1  0  0  0  0
 19 20  2  6  0  0  0
 19 18  1  0  0  0  0
 19 21  1  0  0  0  0
 21 22  1  0  0  0  0
 22 23  1  0  0  0  0
 23 24  1  0  0  0  0
 24 26  2  0  0  0  0
 24 25  1  0  0  0  0
 27 46  1  6  0  0  0
 27 29  1  0  0  0  0
 27  4  1  0  0  0  0
 29 28  1  0  0  0  0
 29 31  1  0  0  0  0
 30 29  1  0  0  0  0
 31 32  1  0  0  0  0
 33 35  1  0  0  0  0
 34 40  2  0  0  0  0
 35 36  1  0  0  0  0
 36 38  2  0  0  0  0
 37 41  1  6  0  0  0
 37 34  1  0  0  0  0
 37 35  1  0  0  0  0
 38 45  1  0  0  0  0
 39 38  1  0  0  0  0
 40 39  1  0  0  0  0
 42 41  1  0  0  0  0
 42 33  1  0  0  0  0
 43 32  1  0  0  0  0
 43 34  1  0  0  0  0
 45 44  1  0  0  0  0
 47 46  1  0  0  0  0
M  END
>  <MODEL>
8

>  <REMARK>
 VINA RESULT:      -5.6      4.033      7.685
  Name = 
  19 active torsions:
  status: ('A' for Active; 'I' for Inactive)
    1  A    between atoms: C_1  and  C_8
    2  A    between atoms: C_5  and  O_33
    3  A    between atoms: C_5  and  C_38
    4  A    between atoms: N_6  and  C_24
    5  A    between atoms: C_7  and  P_10
    6  A    between atoms: C_7  and  C_15
    7  A    between atoms: C_8  and  C_11
    8  A    between atoms: C_8  and  N_43
    9  A    between atoms: P_10  and  O_33
   10  A    between atoms: C_11  and  C_12
   11  A    between atoms: C_12  and  C_42
   12  A    between atoms: C_14  and  C_45
   13  A    between atoms: N_18  and  C_22
   14  A    between atoms: C_19  and  C_38
   15  A    between atoms: C_22  and  C_39
   16  A    between atoms: C_24  and  O_34
   17  A    between atoms: C_24  and  C_39
   18  A    between atoms: C_26  and  O_40
   19  A    between atoms: N_36  and  C_42
                            x       y       z     vdW  Elec       q    Type
                         _______ _______ _______ _____ _____    ______ ____

>  <TORSDO>
F 19

$$$$
=
 OpenBabel10222420233D

 47 50  0  0  1  0  0  0  0  0999 V2000
  187.4380  178.2400  140.2320 C   0  0  0  0  0  0  0  0  0  0  0  0
  188.4390  177.5250  139.4780 C   0  0  0  0  0  0  0  0  0  0  0  0
  187.8970  178.6570  141.3630 N   0  0  0  0  0  0  0  0  0  0  0  0
  186.1000  178.4750  139.7890 N   0  0  0  0  0  2  0  0  0  0  0  0
  189.2930  178.2410  141.4730 C   0  0  2  0  0  3  0  0  0  0  0  0
  189.5560  177.5130  140.1840 C   0  0  0  0  0  3  0  0  0  0  0  0
  189.4530  177.2920  142.6490 C   0  0  2  0  0  3  0  0  0  0  0  0
  190.8380  177.1090  142.9200 N   0  0  0  0  0  0  0  0  0  0  0  0
  190.0920  176.0970  142.2190 N   0  0  0  0  0  2  0  0  0  0  0  0
  190.9380  176.6770  144.3030 C   0  0  0  0  0  2  0  0  0  0  0  0
  190.0560  177.5430  145.1900 C   0  0  0  0  0  2  0  0  0  0  0  0
  190.1770  177.1290  146.6570 C   0  0  2  0  0  3  0  0  0  0  0  0
  189.3550  177.9820  147.5110 N   0  0  0  0  0  2  0  0  0  0  0  0
  188.3110  177.1450  148.0760 C   0  0  0  0  0  1  0  0  0  0  0  0
  191.5180  177.0590  147.1030 O   0  0  0  0  0  0  0  0  0  0  0  0
  191.7330  175.8120  147.7130 C   0  0  0  0  0  1  0  0  0  0  0  0
  188.2820  176.9500  138.1120 C   0  0  0  0  0  2  0  0  0  0  0  0
  187.4320  178.4620  136.0100 O   0  0  0  0  0  0  0  0  0  0  0  0
  188.6640  178.2020  136.8500 P   0  0  1  0  0  0  0  0  0  0  0  0
  189.1420  179.6360  137.6120 O   0  0  0  0  0  1  0  0  0  0  0  0
  189.9180  177.6180  135.8670 O   0  0  0  0  0  0  0  0  0  0  0  0
  190.6770  176.7820  136.6870 C   0  0  0  0  0  2  0  0  0  0  0  0
  191.4710  175.8180  135.8270 C   0  0  0  0  0  2  0  0  0  0  0  0
  192.6210  175.2810  136.6030 C   0  0  0  0  0  0  0  0  0  0  0  0
  192.5950  174.0990  137.0310 O   0  0  0  0  0  1  0  0  0  0  0  0
  193.7380  176.0750  136.8300 O   0  0  0  0  0  0  0  0  0  0  0  0
  185.1110  179.1590  140.6150 C   0  0  1  0  0  3  0  0  0  0  0  0
  183.9350  180.5840  139.1010 F   0  0  0  0  0  0  0  0  0  0  0  0
  183.8330  179.3940  139.8060 C   0  0  0  0  0  0  0  0  0  0  0  0
  182.7580  179.4770  140.6760 F   0  0  0  0  0  0  0  0  0  0  0  0
  183.6070  178.2260  138.8460 C   0  0  0  0  0  2  0  0  0  0  0  0
  182.3310  178.3900  138.0260 C   0  0  0  0  0  2  0  0  0  0  0  0
  179.6720  174.0430  140.2000 C   0  0  0  0  0  2  0  0  0  0  0  0
  180.6980  176.4500  137.8840 C   0  0  0  0  0  0  0  0  0  0  0  0
  180.0000  174.3370  138.8410 N   0  0  0  0  0  0  0  0  0  0  0  0
  180.6730  173.3950  137.9890 C   0  0  0  0  0  3  0  0  0  0  0  0
  179.5670  175.6760  138.5020 C   0  0  1  0  0  3  0  0  0  0  0  0
  181.0140  173.6280  136.7150 C   0  0  0  0  0  0  0  0  0  0  0  0
  180.6800  174.9190  136.0110 C   0  0  0  0  0  2  0  0  0  0  0  0
  181.1950  176.0700  136.7450 N   0  0  0  0  0  0  0  0  0  0  0  0
  179.1040  176.3000  139.6800 O   0  0  0  0  0  0  0  0  0  0  0  0
  178.9400  175.2860  140.6500 C   0  0  0  0  0  2  0  0  0  0  0  0
  181.2600  177.5700  138.5760 N   0  0  0  0  0  2  0  0  0  0  0  0
  181.0320  171.7690  135.0860 C   0  0  0  0  0  1  0  0  0  0  0  0
  181.6820  172.6100  136.0290 O   0  0  0  0  0  0  0  0  0  0  0  0
  184.8290  178.3380  141.8720 C   0  0  0  0  0  2  0  0  0  0  0  0
  184.9050  179.2070  143.1120 C   0  0  0  0  0  1  0  0  0  0  0  0
  1  3  2  0  0  0  0
  2  6  2  0  0  0  0
  2  1  1  0  0  0  0
  3  5  1  0  0  0  0
  4  1  1  0  0  0  0
  4 27  1  0  0  0  0
  5  6  1  6  0  0  0
  5  7  1  0  0  0  0
  7  9  1  6  0  0  0
  7  8  1  0  0  0  0
  8 10  1  0  0  0  0
  9  8  1  0  0  0  0
 10 11  1  0  0  0  0
 12 11  1  6  0  0  0
 12 15  1  0  0  0  0
 12 13  1  0  0  0  0
 13 14  1  0  0  0  0
 15 16  1  0  0  0  0
 17  2  1  0  0  0  0
 19 18  2  6  0  0  0
 19 20  1  0  0  0  0
 19 17  1  0  0  0  0
 21 22  1  0  0  0  0
 21 19  1  0  0  0  0
 23 24  1  0  0  0  0
 23 22  1  0  0  0  0
 24 26  2  0  0  0  0
 24 25  1  0  0  0  0
 27 46  1  1  0  0  0
 28 29  1  0  0  0  0
 29 27  1  0  0  0  0
 29 30  1  0  0  0  0
 31 29  1  0  0  0  0
 32 43  1  0  0  0  0
 32 31  1  0  0  0  0
 33 42  1  0  0  0  0
 34 43  1  0  0  0  0
 35 33  1  0  0  0  0
 36 35  1  0  0  0  0
 37 34  1  1  0  0  0
 37 35  1  0  0  0  0
 37 41  1  0  0  0  0
 38 36  2  0  0  0  0
 39 38  1  0  0  0  0
 39 40  1  0  0  0  0
 40 34  2  0  0  0  0
 41 42  1  0  0  0  0
 44 45  1  0  0  0  0
 45 38  1  0  0  0  0
 46 47  1  0  0  0  0
M  END
>  <MODEL>
9

>  <REMARK>
 VINA RESULT:      -5.5      1.981      2.819
  Name = 
  19 active torsions:
  status: ('A' for Active; 'I' for Inactive)
    1  A    between atoms: C_1  and  C_8
    2  A    between atoms: C_5  and  O_33
    3  A    between atoms: C_5  and  C_38
    4  A    between atoms: N_6  and  C_24
    5  A    between atoms: C_7  and  P_10
    6  A    between atoms: C_7  and  C_15
    7  A    between atoms: C_8  and  C_11
    8  A    between atoms: C_8  and  N_43
    9  A    between atoms: P_10  and  O_33
   10  A    between atoms: C_11  and  C_12
   11  A    between atoms: C_12  and  C_42
   12  A    between atoms: C_14  and  C_45
   13  A    between atoms: N_18  and  C_22
   14  A    between atoms: C_19  and  C_38
   15  A    between atoms: C_22  and  C_39
   16  A    between atoms: C_24  and  O_34
   17  A    between atoms: C_24  and  C_39
   18  A    between atoms: C_26  and  O_40
   19  A    between atoms: N_36  and  C_42
                            x       y       z     vdW  Elec       q    Type
                         _______ _______ _______ _____ _____    ______ ____

>  <TORSDO>
F 19

$$$$
