=
 OpenBabel10222417423D

 60 71  0  0  1  0  0  0  0  0999 V2000
  188.9170  177.0750  141.9440 N   0  0  0  0  0  0  0  0  0  0  0  0
  189.3150  177.3080  144.5080 C   0  0  1  0  0  3  0  0  0  0  0  0
  188.1900  175.2850  143.4520 C   0  0  0  0  0  1  0  0  0  0  0  0
  188.4650  176.7790  143.3240 C   0  0  2  0  0  0  0  0  0  0  0  0
  191.1400  176.8440  145.9230 C   0  0  2  0  0  3  0  0  0  0  0  0
  187.7270  179.2480  141.2780 C   0  0  0  0  0  1  0  0  0  0  0  0
  187.9110  177.9840  146.3920 C   0  0  1  0  0  3  0  0  0  0  0  0
  185.3930  177.9660  145.8300 N   0  0  0  0  0  0  0  0  0  0  0  0
  189.8560  176.5510  146.6590 C   0  0  0  0  0  2  0  0  0  0  0  0
  187.1470  177.5320  143.1370 C   0  0  1  0  0  3  0  0  0  0  0  0
  188.7190  176.8900  145.7900 N   0  0  2  0  0  0  0  0  0  0  0  0
  187.0260  178.8050  143.9870 C   0  0  0  0  0  2  0  0  0  0  0  0
  190.7420  176.8080  144.4820 C   0  0  0  0  0  2  0  0  0  0  0  0
  186.7470  178.4520  145.4540 C   0  0  2  0  0  0  0  0  0  0  0  0
  187.6350  177.7720  141.7090 C   0  0  2  0  0  3  0  0  0  0  0  0
  185.7880  179.3720  146.0500 C   0  0  0  0  0  2  0  0  0  0  0  0
  192.6970  175.9280  147.5780 C   0  0  0  0  0  2  0  0  0  0  0  0
  192.2410  175.8240  146.1750 C   0  0  1  0  0  3  0  0  0  0  0  0
  191.8550  174.8900  147.1550 O   0  0  0  0  0  0  0  0  0  0  0  0
  187.9550  177.9830  148.8890 C   0  0  0  0  0  2  0  0  0  0  0  0
  187.3760  177.5910  147.7580 C   0  0  0  0  0  3  0  0  0  0  0  0
  190.0920  177.9470  141.8300 C   0  0  0  0  0  2  0  0  0  0  0  0
  190.8830  176.2570  138.3910 C   0  0  2  0  0  0  0  0  0  0  0  0
  189.5520  178.4160  138.4010 C   0  0  0  0  0  2  0  0  0  0  0  0
  189.4510  177.3860  139.5160 C   0  0  1  0  0  0  0  0  0  0  0  0
  190.7610  176.5760  139.8560 C   0  0  2  0  0  0  0  0  0  0  0  0
  191.9970  176.8580  139.0990 N   0  0  0  0  0  2  0  0  0  0  0  0
  190.5220  177.9540  140.3760 C   0  0  2  0  0  3  0  0  0  0  0  0
  189.6080  176.9720  138.0560 C   0  0  2  0  0  3  0  0  0  0  0  0
  190.9320  174.8140  138.2230 N   0  0  0  0  0  2  0  0  0  0  0  0
  190.9430  174.5750  136.7820 C   0  0  2  0  0  3  0  0  0  0  0  0
  187.7080  174.2490  134.5940 C   0  0  0  0  0  2  0  0  0  0  0  0
  188.8980  173.2000  136.9610 C   0  0  0  0  0  3  0  0  0  0  0  0
  188.9720  174.9050  135.1470 C   0  0  0  0  0  2  0  0  0  0  0  0
  189.6020  174.1210  136.2690 C   0  0  0  0  0  0  0  0  0  0  0  0
  185.6060  173.3240  135.2260 O   0  0  0  0  0  1  0  0  0  0  0  0
  187.5080  172.7650  136.5680 C   0  0  1  0  0  3  0  0  0  0  0  0
  186.7800  172.4810  137.7060 F   0  0  0  0  0  0  0  0  0  0  0  0
  186.7990  173.8330  135.7390 C   0  0  1  0  0  3  0  0  0  0  0  0
  192.0500  173.6990  136.3910 N   0  0  0  0  0  2  0  0  0  0  0  0
  194.2370  173.1670  136.6820 N   0  0  0  0  0  2  0  0  0  0  0  0
  194.1330  174.5810  136.5880 C   0  0  1  0  0  3  0  0  0  0  0  0
  193.1280  173.8550  137.2830 N   0  0  0  0  0  0  0  0  0  0  0  0
  195.0760  175.1780  137.5250 N   0  0  0  0  0  2  0  0  0  0  0  0
  197.0910  175.1100  139.9880 C   0  0  0  0  0  2  0  0  0  0  0  0
  196.2940  173.9810  139.3490 C   0  0  0  0  0  2  0  0  0  0  0  0
  198.6820  174.4900  138.0620 C   0  0  0  0  0  2  0  0  0  0  0  0
  197.4510  174.7030  137.1750 C   0  0  0  0  0  2  0  0  0  0  0  0
  198.5240  175.1780  139.4270 C   0  0  0  0  0  2  0  0  0  0  0  0
  196.1420  174.2140  137.8310 C   0  0  0  0  0  3  0  0  0  0  0  0
  184.4530  177.9650  144.7100 C   0  0  0  0  0  2  0  0  0  0  0  0
  183.3140  178.9210  145.0170 C   0  0  0  0  0  2  0  0  0  0  0  0
  182.7300  179.5360  143.7450 C   0  0  0  0  0  2  0  0  0  0  0  0
  181.5580  178.7300  143.1790 C   0  0  1  0  0  3  0  0  0  0  0  0
  179.4320  179.8280  143.5410 O   0  0  0  0  0  1  0  0  0  0  0  0
  179.6720  177.6510  144.2010 O   0  0  0  0  0  1  0  0  0  0  0  0
  180.3160  178.8820  144.0660 C   0  0  0  0  0  3  0  0  0  0  0  0
  181.2750  179.0820  141.7160 C   0  0  0  0  0  2  0  0  0  0  0  0
  182.5790  178.0020  140.2920 C   0  0  0  0  0  1  0  0  0  0  0  0
  181.3280  177.9420  140.9090 O   0  0  0  0  0  0  0  0  0  0  0  0
  1  4  1  0  0  0  0
  2 13  1  6  0  0  0
  2 11  1  0  0  0  0
  4  3  1  1  0  0  0
  4  2  1  0  0  0  0
  5 13  1  6  0  0  0
  5 18  1  0  0  0  0
  5  9  1  0  0  0  0
  7 21  1  1  0  0  0
  8 16  1  0  0  0  0
 10  4  1  0  0  0  0
 10 12  1  1  0  0  0
 11  7  1  0  0  0  0
 11  9  1  1  0  0  0
 14 12  1  6  0  0  0
 14  8  1  0  0  0  0
 14 16  1  0  0  0  0
 14  7  1  0  0  0  0
 15  6  1  1  0  0  0
 15  1  1  0  0  0  0
 15 10  1  0  0  0  0
 18 19  1  0  0  0  0
 18 17  1  1  0  0  0
 19 17  1  0  0  0  0
 21 20  2  0  0  0  0
 22  1  1  0  0  0  0
 23 30  1  6  0  0  0
 23 27  1  0  0  0  0
 23 26  1  0  0  0  0
 25 24  1  6  0  0  0
 25 26  1  0  0  0  0
 25 28  1  0  0  0  0
 26 27  1  6  0  0  0
 26 28  1  0  0  0  0
 28 22  1  1  0  0  0
 29 23  1  0  0  0  0
 29 24  1  6  0  0  0
 29 25  1  0  0  0  0
 31 40  1  1  0  0  0
 31 30  1  0  0  0  0
 32 34  1  0  0  0  0
 32 39  1  0  0  0  0
 34 35  1  0  0  0  0
 35 31  1  0  0  0  0
 35 33  2  0  0  0  0
 37 33  1  0  0  0  0
 37 38  1  1  0  0  0
 39 36  1  6  0  0  0
 39 37  1  0  0  0  0
 40 43  1  0  0  0  0
 41 43  1  0  0  0  0
 42 41  1  0  0  0  0
 42 43  1  0  0  0  0
 42 44  1  1  0  0  0
 44 50  1  0  0  0  0
 46 45  1  0  0  0  0
 47 49  1  0  0  0  0
 48 50  1  0  0  0  0
 48 47  1  0  0  0  0
 49 45  1  0  0  0  0
 50 46  1  0  0  0  0
 51 52  1  0  0  0  0
 51  8  1  0  0  0  0
 53 52  1  0  0  0  0
 54 58  1  6  0  0  0
 54 53  1  0  0  0  0
 54 57  1  0  0  0  0
 55 57  1  0  0  0  0
 57 56  1  0  0  0  0
 59 60  1  0  0  0  0
 60 58  1  0  0  0  0
M  END
>  <MODEL>
1

>  <REMARK>
 VINA RESULT:      -7.1      0.000      0.000
  Name = 
  18 active torsions:
  status: ('A' for Active; 'I' for Inactive)
    1  A    between atoms: N_1  and  C_28
    2  A    between atoms: C_3  and  C_29
    3  A    between atoms: C_3  and  C_38
    4  A    between atoms: C_3  and  C_47
    5  A    between atoms: N_7  and  C_36
    6  A    between atoms: N_7  and  C_53
    7  A    between atoms: C_10  and  C_11
    8  A    between atoms: C_10  and  C_47
    9  A    between atoms: C_11  and  N_25
   10  A    between atoms: C_15  and  N_30
   11  A    between atoms: C_17  and  C_58
   12  A    between atoms: C_20  and  C_35
   13  A    between atoms: C_21  and  C_39
   14  A    between atoms: C_28  and  C_56
   15  A    between atoms: C_29  and  O_51
   16  A    between atoms: N_30  and  C_35
   17  A    between atoms: C_35  and  N_42
   18  A    between atoms: N_42  and  N_55
                            x       y       z     vdW  Elec       q    Type
                         _______ _______ _______ _____ _____    ______ ____

>  <TORSDO>
F 18

$$$$
=
 OpenBabel10222417423D

 60 71  0  0  1  0  0  0  0  0999 V2000
  184.7750  176.7260  136.9580 N   0  0  0  0  0  0  0  0  0  0  0  0
  183.4230  178.0530  138.7450 C   0  0  1  0  0  3  0  0  0  0  0  0
  183.2230  175.5360  138.4340 C   0  0  0  0  0  1  0  0  0  0  0  0
  183.5350  176.8650  137.7550 C   0  0  2  0  0  0  0  0  0  0  0  0
  183.8920  178.7820  140.9350 C   0  0  2  0  0  3  0  0  0  0  0  0
  184.3270  177.9690  134.7590 C   0  0  0  0  0  1  0  0  0  0  0  0
  181.1420  178.9280  138.8470 C   0  0  1  0  0  3  0  0  0  0  0  0
  179.5860  177.8960  137.0670 N   0  0  0  0  0  0  0  0  0  0  0  0
  182.4340  178.4080  140.8400 C   0  0  0  0  0  2  0  0  0  0  0  0
  182.6600  177.0260  136.5100 C   0  0  1  0  0  3  0  0  0  0  0  0
  182.1330  178.0030  139.4590 N   0  0  2  0  0  0  0  0  0  0  0  0
  182.0340  178.4200  136.3590 C   0  0  0  0  0  2  0  0  0  0  0  0
  184.5210  178.0620  139.7850 C   0  0  0  0  0  2  0  0  0  0  0  0
  180.8670  178.5980  137.3410 C   0  0  2  0  0  0  0  0  0  0  0  0
  183.9590  176.8320  135.7300 C   0  0  2  0  0  3  0  0  0  0  0  0
  179.7620  179.3220  136.7280 C   0  0  0  0  0  2  0  0  0  0  0  0
  184.5640  179.4780  143.1860 C   0  0  0  0  0  2  0  0  0  0  0  0
  184.5560  178.3460  142.2340 C   0  0  1  0  0  3  0  0  0  0  0  0
  183.6560  178.4180  143.3150 O   0  0  0  0  0  0  0  0  0  0  0  0
  179.8110  179.2080  140.9420 C   0  0  0  0  0  2  0  0  0  0  0  0
  179.8450  178.9510  139.6370 C   0  0  0  0  0  3  0  0  0  0  0  0
  185.7560  177.8080  137.1090 C   0  0  0  0  0  2  0  0  0  0  0  0
  189.3180  176.1900  137.1390 C   0  0  2  0  0  0  0  0  0  0  0  0
  187.7240  175.5720  135.2650 C   0  0  0  0  0  2  0  0  0  0  0  0
  187.2470  175.8930  136.6730 C   0  0  1  0  0  0  0  0  0  0  0  0
  188.0760  176.9690  137.4770 C   0  0  2  0  0  0  0  0  0  0  0  0
  189.2430  177.6050  136.8320 N   0  0  0  0  0  2  0  0  0  0  0  0
  187.0500  177.3510  136.4630 C   0  0  2  0  0  3  0  0  0  0  0  0
  188.5410  175.1250  136.4220 C   0  0  2  0  0  3  0  0  0  0  0  0
  190.0040  175.8350  138.3700 N   0  0  0  0  0  2  0  0  0  0  0  0
  191.2440  176.6090  138.3790 C   0  0  2  0  0  3  0  0  0  0  0  0
  194.2500  174.2580  137.4870 C   0  0  0  0  0  2  0  0  0  0  0  0
  192.6180  176.2970  136.3480 C   0  0  0  0  0  3  0  0  0  0  0  0
  193.2900  175.0340  138.3870 C   0  0  0  0  0  2  0  0  0  0  0  0
  192.3490  175.9240  137.6170 C   0  0  0  0  0  0  0  0  0  0  0  0
  195.8170  174.5040  135.7100 O   0  0  0  0  0  1  0  0  0  0  0  0
  193.7680  175.7310  135.5530 C   0  0  1  0  0  3  0  0  0  0  0  0
  194.2690  176.7070  134.7160 F   0  0  0  0  0  0  0  0  0  0  0  0
  194.8700  175.1970  136.4640 C   0  0  1  0  0  3  0  0  0  0  0  0
  191.6220  177.0020  139.7380 N   0  0  0  0  0  2  0  0  0  0  0  0
  191.0200  176.1870  141.7690 N   0  0  0  0  0  2  0  0  0  0  0  0
  190.8350  177.5960  141.7840 C   0  0  1  0  0  3  0  0  0  0  0  0
  190.5210  176.8660  140.6050 N   0  0  0  0  0  0  0  0  0  0  0  0
  189.6250  177.8970  142.5380 N   0  0  0  0  0  2  0  0  0  0  0  0
  187.2450  177.5530  144.6230 C   0  0  0  0  0  2  0  0  0  0  0  0
  188.0310  176.4970  143.8570 C   0  0  0  0  0  2  0  0  0  0  0  0
  189.2770  177.3020  146.1840 C   0  0  0  0  0  2  0  0  0  0  0  0
  190.0950  177.5900  144.9200 C   0  0  0  0  0  2  0  0  0  0  0  0
  187.8200  177.7690  146.0360 C   0  0  0  0  0  2  0  0  0  0  0  0
  189.4920  176.9480  143.6520 C   0  0  0  0  0  3  0  0  0  0  0  0
  179.5940  177.1610  135.8030 C   0  0  0  0  0  2  0  0  0  0  0  0
  178.9310  175.8100  136.0100 C   0  0  0  0  0  2  0  0  0  0  0  0
  179.9590  174.6910  136.1780 C   0  0  0  0  0  2  0  0  0  0  0  0
  179.3520  173.4100  136.7560 C   0  0  1  0  0  3  0  0  0  0  0  0
  181.5900  172.5020  136.9330 O   0  0  0  0  0  1  0  0  0  0  0  0
  179.8060  171.0950  137.2050 O   0  0  0  0  0  1  0  0  0  0  0  0
  180.2850  172.2150  136.5230 C   0  0  0  0  0  3  0  0  0  0  0  0
  178.9730  173.5720  138.2300 C   0  0  0  0  0  2  0  0  0  0  0  0
  179.6630  174.2550  140.2180 C   0  0  0  0  0  1  0  0  0  0  0  0
  179.7860  174.5230  138.8530 O   0  0  0  0  0  0  0  0  0  0  0  0
  1 22  1  0  0  0  0
  1  4  1  0  0  0  0
  2 11  1  0  0  0  0
  2 13  1  1  0  0  0
  4  3  1  1  0  0  0
  4  2  1  0  0  0  0
  5 13  1  6  0  0  0
  5 18  1  0  0  0  0
  7 11  1  0  0  0  0
  7 21  1  1  0  0  0
  8 14  1  0  0  0  0
  9  5  1  0  0  0  0
 10 12  1  1  0  0  0
 10  4  1  0  0  0  0
 11  9  1  1  0  0  0
 14 12  1  6  0  0  0
 14  7  1  0  0  0  0
 15  6  1  6  0  0  0
 15 10  1  0  0  0  0
 15  1  1  0  0  0  0
 16  8  1  0  0  0  0
 16 14  1  0  0  0  0
 17 19  1  0  0  0  0
 18 17  1  1  0  0  0
 18 19  1  0  0  0  0
 21 20  2  0  0  0  0
 23 26  1  0  0  0  0
 23 30  1  1  0  0  0
 25 24  1  6  0  0  0
 25 26  1  0  0  0  0
 26 27  1  6  0  0  0
 27 23  1  0  0  0  0
 28 25  1  0  0  0  0
 28 22  1  1  0  0  0
 28 26  1  0  0  0  0
 29 24  1  6  0  0  0
 29 25  1  0  0  0  0
 29 23  1  0  0  0  0
 31 30  1  1  0  0  0
 31 40  1  0  0  0  0
 32 34  1  0  0  0  0
 33 35  2  0  0  0  0
 35 31  1  0  0  0  0
 35 34  1  0  0  0  0
 37 38  1  6  0  0  0
 37 33  1  0  0  0  0
 37 39  1  0  0  0  0
 39 36  1  6  0  0  0
 39 32  1  0  0  0  0
 40 43  1  0  0  0  0
 41 42  1  0  0  0  0
 42 44  1  1  0  0  0
 43 41  1  0  0  0  0
 43 42  1  0  0  0  0
 44 50  1  0  0  0  0
 45 49  1  0  0  0  0
 46 45  1  0  0  0  0
 48 47  1  0  0  0  0
 49 47  1  0  0  0  0
 50 46  1  0  0  0  0
 50 48  1  0  0  0  0
 51 52  1  0  0  0  0
 51  8  1  0  0  0  0
 52 53  1  0  0  0  0
 54 53  1  1  0  0  0
 54 58  1  0  0  0  0
 57 54  1  0  0  0  0
 57 55  1  0  0  0  0
 57 56  1  0  0  0  0
 58 60  1  0  0  0  0
 60 59  1  0  0  0  0
M  END
>  <MODEL>
2

>  <REMARK>
 VINA RESULT:      -6.9      4.047      8.215
  Name = 
  18 active torsions:
  status: ('A' for Active; 'I' for Inactive)
    1  A    between atoms: N_1  and  C_28
    2  A    between atoms: C_3  and  C_29
    3  A    between atoms: C_3  and  C_38
    4  A    between atoms: C_3  and  C_47
    5  A    between atoms: N_7  and  C_36
    6  A    between atoms: N_7  and  C_53
    7  A    between atoms: C_10  and  C_11
    8  A    between atoms: C_10  and  C_47
    9  A    between atoms: C_11  and  N_25
   10  A    between atoms: C_15  and  N_30
   11  A    between atoms: C_17  and  C_58
   12  A    between atoms: C_20  and  C_35
   13  A    between atoms: C_21  and  C_39
   14  A    between atoms: C_28  and  C_56
   15  A    between atoms: C_29  and  O_51
   16  A    between atoms: N_30  and  C_35
   17  A    between atoms: C_35  and  N_42
   18  A    between atoms: N_42  and  N_55
                            x       y       z     vdW  Elec       q    Type
                         _______ _______ _______ _____ _____    ______ ____

>  <TORSDO>
F 18

$$$$
=
 OpenBabel10222417423D

 60 71  0  0  1  0  0  0  0  0999 V2000
  184.7360  176.5860  136.7990 N   0  0  0  0  0  0  0  0  0  0  0  0
  183.4820  177.9760  138.6090 C   0  0  1  0  0  3  0  0  0  0  0  0
  183.2180  175.4590  138.3570 C   0  0  0  0  0  1  0  0  0  0  0  0
  183.5310  176.7670  137.6400 C   0  0  2  0  0  0  0  0  0  0  0  0
  184.0510  178.7370  140.7650 C   0  0  2  0  0  3  0  0  0  0  0  0
  184.2300  177.7960  134.5940 C   0  0  0  0  0  1  0  0  0  0  0  0
  181.2250  178.9020  138.7800 C   0  0  1  0  0  3  0  0  0  0  0  0
  179.5810  177.8710  137.0820 N   0  0  0  0  0  0  0  0  0  0  0  0
  182.5820  178.3940  140.7320 C   0  0  0  0  0  2  0  0  0  0  0  0
  182.6130  176.9230  136.4260 C   0  0  1  0  0  3  0  0  0  0  0  0
  182.2200  177.9680  139.3720 N   0  0  2  0  0  0  0  0  0  0  0  0
  182.0100  178.3280  136.2710 C   0  0  0  0  0  2  0  0  0  0  0  0
  184.6200  177.9820  139.6060 C   0  0  0  0  0  2  0  0  0  0  0  0
  180.8870  178.5500  137.2930 C   0  0  2  0  0  0  0  0  0  0  0  0
  183.8760  176.6860  135.6010 C   0  0  2  0  0  3  0  0  0  0  0  0
  179.7740  179.2860  136.7070 C   0  0  0  0  0  2  0  0  0  0  0  0
  185.0490  179.5080  142.8650 C   0  0  0  0  0  2  0  0  0  0  0  0
  184.7540  178.3130  142.0460 C   0  0  1  0  0  3  0  0  0  0  0  0
  183.9900  178.6460  143.1810 O   0  0  0  0  0  0  0  0  0  0  0  0
  179.4380  177.8970  140.2050 C   0  0  0  0  0  2  0  0  0  0  0  0
  179.9610  178.9690  139.6190 C   0  0  0  0  0  3  0  0  0  0  0  0
  185.7450  177.6490  136.8910 C   0  0  0  0  0  2  0  0  0  0  0  0
  189.5650  177.0780  137.5080 C   0  0  2  0  0  0  0  0  0  0  0  0
  188.1080  175.0660  137.0000 C   0  0  0  0  0  2  0  0  0  0  0  0
  187.5960  176.2750  137.7670 C   0  0  1  0  0  0  0  0  0  0  0  0
  188.1940  177.6780  137.3630 C   0  0  2  0  0  0  0  0  0  0  0  0
  189.1930  177.7480  136.2780 N   0  0  0  0  0  2  0  0  0  0  0  0
  187.0960  177.0310  136.5880 C   0  0  2  0  0  3  0  0  0  0  0  0
  189.0180  175.7540  137.9510 C   0  0  2  0  0  3  0  0  0  0  0  0
  190.3290  177.8660  138.4620 N   0  0  0  0  0  2  0  0  0  0  0  0
  190.9110  176.9100  139.4020 C   0  0  2  0  0  3  0  0  0  0  0  0
  191.2690  177.7400  143.2150 C   0  0  0  0  0  2  0  0  0  0  0  0
  189.2830  177.3130  141.2180 C   0  0  0  0  0  3  0  0  0  0  0  0
  191.6920  177.2150  141.8440 C   0  0  0  0  0  2  0  0  0  0  0  0
  190.5750  177.2410  140.8330 C   0  0  0  0  0  0  0  0  0  0  0  0
  189.6220  177.5110  144.9200 O   0  0  0  0  0  1  0  0  0  0  0  0
  188.8660  177.5420  142.6490 C   0  0  1  0  0  3  0  0  0  0  0  0
  187.6930  176.8580  142.8970 F   0  0  0  0  0  0  0  0  0  0  0  0
  189.9520  177.1030  143.6270 C   0  0  1  0  0  3  0  0  0  0  0  0
  192.3440  176.7260  139.1620 N   0  0  0  0  0  2  0  0  0  0  0  0
  193.9940  176.3940  137.6390 N   0  0  0  0  0  2  0  0  0  0  0  0
  193.3050  175.1640  137.8230 C   0  0  1  0  0  3  0  0  0  0  0  0
  192.5680  176.3800  137.8150 N   0  0  0  0  0  0  0  0  0  0  0  0
  193.2020  174.4940  136.5330 N   0  0  0  0  0  2  0  0  0  0  0  0
  193.6250  171.5610  135.3710 C   0  0  0  0  0  2  0  0  0  0  0  0
  194.3280  172.8630  135.0120 C   0  0  0  0  0  2  0  0  0  0  0  0
  195.4290  171.6030  137.2070 C   0  0  0  0  0  2  0  0  0  0  0  0
  194.8680  172.9960  137.5180 C   0  0  0  0  0  2  0  0  0  0  0  0
  194.4280  170.7530  136.4090 C   0  0  0  0  0  2  0  0  0  0  0  0
  194.4510  173.7740  136.2510 C   0  0  0  0  0  3  0  0  0  0  0  0
  179.5250  177.1110  135.8340 C   0  0  0  0  0  2  0  0  0  0  0  0
  178.9350  175.7400  136.1120 C   0  0  0  0  0  2  0  0  0  0  0  0
  179.5060  175.1240  137.3900 C   0  0  0  0  0  2  0  0  0  0  0  0
  179.5130  173.5930  137.3590 C   0  0  1  0  0  3  0  0  0  0  0  0
  181.0060  171.6890  137.2910 O   0  0  0  0  0  1  0  0  0  0  0  0
  181.2580  173.3420  135.7300 O   0  0  0  0  0  1  0  0  0  0  0  0
  180.9200  173.0640  137.0550 C   0  0  0  0  0  3  0  0  0  0  0  0
  178.9310  172.9930  138.6420 C   0  0  0  0  0  2  0  0  0  0  0  0
  178.9480  174.0450  140.5880 C   0  0  0  0  0  1  0  0  0  0  0  0
  179.7480  173.2760  139.7410 O   0  0  0  0  0  0  0  0  0  0  0  0
  1 22  1  0  0  0  0
  1  4  1  0  0  0  0
  2 11  1  0  0  0  0
  2 13  1  1  0  0  0
  4  3  1  1  0  0  0
  4  2  1  0  0  0  0
  5 13  1  6  0  0  0
  5 18  1  0  0  0  0
  7 11  1  0  0  0  0
  7 21  1  1  0  0  0
  8 14  1  0  0  0  0
  9  5  1  0  0  0  0
 10 12  1  6  0  0  0
 10  4  1  0  0  0  0
 11  9  1  1  0  0  0
 14 12  1  6  0  0  0
 14  7  1  0  0  0  0
 15  6  1  6  0  0  0
 15 10  1  0  0  0  0
 15  1  1  0  0  0  0
 16  8  1  0  0  0  0
 16 14  1  0  0  0  0
 17 19  1  0  0  0  0
 18 17  1  1  0  0  0
 18 19  1  0  0  0  0
 21 20  2  0  0  0  0
 23 29  1  0  0  0  0
 23 30  1  1  0  0  0
 25 24  1  6  0  0  0
 25 29  1  0  0  0  0
 26 27  1  6  0  0  0
 26 23  1  0  0  0  0
 26 25  1  0  0  0  0
 27 23  1  0  0  0  0
 28 22  1  1  0  0  0
 28 26  1  0  0  0  0
 28 25  1  0  0  0  0
 29 24  1  6  0  0  0
 31 30  1  6  0  0  0
 31 35  1  0  0  0  0
 32 39  1  0  0  0  0
 33 37  1  0  0  0  0
 34 32  1  0  0  0  0
 35 33  2  0  0  0  0
 35 34  1  0  0  0  0
 37 38  1  1  0  0  0
 37 39  1  0  0  0  0
 39 36  1  1  0  0  0
 40 31  1  0  0  0  0
 41 43  1  0  0  0  0
 41 42  1  0  0  0  0
 42 44  1  6  0  0  0
 43 42  1  0  0  0  0
 43 40  1  0  0  0  0
 45 49  1  0  0  0  0
 46 45  1  0  0  0  0
 46 50  1  0  0  0  0
 47 48  1  0  0  0  0
 49 47  1  0  0  0  0
 50 44  1  0  0  0  0
 50 48  1  0  0  0  0
 51 52  1  0  0  0  0
 51  8  1  0  0  0  0
 52 53  1  0  0  0  0
 54 53  1  1  0  0  0
 54 58  1  0  0  0  0
 56 57  1  0  0  0  0
 57 55  1  0  0  0  0
 57 54  1  0  0  0  0
 58 60  1  0  0  0  0
 60 59  1  0  0  0  0
M  END
>  <MODEL>
3

>  <REMARK>
 VINA RESULT:      -6.7      3.834      7.528
  Name = 
  18 active torsions:
  status: ('A' for Active; 'I' for Inactive)
    1  A    between atoms: N_1  and  C_28
    2  A    between atoms: C_3  and  C_29
    3  A    between atoms: C_3  and  C_38
    4  A    between atoms: C_3  and  C_47
    5  A    between atoms: N_7  and  C_36
    6  A    between atoms: N_7  and  C_53
    7  A    between atoms: C_10  and  C_11
    8  A    between atoms: C_10  and  C_47
    9  A    between atoms: C_11  and  N_25
   10  A    between atoms: C_15  and  N_30
   11  A    between atoms: C_17  and  C_58
   12  A    between atoms: C_20  and  C_35
   13  A    between atoms: C_21  and  C_39
   14  A    between atoms: C_28  and  C_56
   15  A    between atoms: C_29  and  O_51
   16  A    between atoms: N_30  and  C_35
   17  A    between atoms: C_35  and  N_42
   18  A    between atoms: N_42  and  N_55
                            x       y       z     vdW  Elec       q    Type
                         _______ _______ _______ _____ _____    ______ ____

>  <TORSDO>
F 18

$$$$
=
 OpenBabel10222417423D

 60 71  0  0  1  0  0  0  0  0999 V2000
  189.1280  178.1410  140.5910 N   0  0  0  0  0  0  0  0  0  0  0  0
  186.6280  178.2390  141.3150 C   0  0  1  0  0  3  0  0  0  0  0  0
  188.2200  180.2100  141.5400 C   0  0  0  0  0  1  0  0  0  0  0  0
  188.0990  178.6910  141.5040 C   0  0  2  0  0  0  0  0  0  0  0  0
  184.6140  178.6720  140.1720 C   0  0  2  0  0  3  0  0  0  0  0  0
  190.0580  176.0610  141.7690 C   0  0  0  0  0  1  0  0  0  0  0  0
  185.4690  178.0280  143.4590 C   0  0  1  0  0  3  0  0  0  0  0  0
  187.0450  178.2800  145.4850 N   0  0  0  0  0  0  0  0  0  0  0  0
  184.5190  179.2290  141.5710 C   0  0  0  0  0  2  0  0  0  0  0  0
  188.7660  178.0900  142.7430 C   0  0  1  0  0  3  0  0  0  0  0  0
  185.7570  178.9120  142.2970 N   0  0  2  0  0  0  0  0  0  0  0  0
  187.9480  176.9800  143.4200 C   0  0  0  0  0  2  0  0  0  0  0  0
  186.0860  178.5460  139.9370 C   0  0  0  0  0  2  0  0  0  0  0  0
  186.7710  177.5780  144.2030 C   0  0  2  0  0  0  0  0  0  0  0  0
  189.8270  177.5830  141.7680 C   0  0  2  0  0  3  0  0  0  0  0  0
  186.5670  176.8830  145.4670 C   0  0  0  0  0  2  0  0  0  0  0  0
  182.9220  178.8420  138.4080 C   0  0  0  0  0  2  0  0  0  0  0  0
  184.0030  179.5710  139.1070 C   0  0  1  0  0  3  0  0  0  0  0  0
  182.6420  179.8210  139.3720 O   0  0  0  0  0  0  0  0  0  0  0  0
  183.1780  178.6080  144.2640 C   0  0  0  0  0  2  0  0  0  0  0  0
  184.4960  178.6810  144.4230 C   0  0  0  0  0  3  0  0  0  0  0  0
  188.6620  177.1210  139.6440 C   0  0  0  0  0  2  0  0  0  0  0  0
  189.9750  176.3140  136.0480 C   0  0  2  0  0  0  0  0  0  0  0  0
  188.2980  178.1960  136.3300 C   0  0  0  0  0  2  0  0  0  0  0  0
  188.2940  176.9570  137.2110 C   0  0  1  0  0  0  0  0  0  0  0  0
  189.6950  176.3030  137.5260 C   0  0  2  0  0  0  0  0  0  0  0  0
  190.9160  176.9190  136.9690 N   0  0  0  0  0  2  0  0  0  0  0  0
  189.1880  177.4920  138.2710 C   0  0  2  0  0  3  0  0  0  0  0  0
  188.6240  176.8790  135.7230 C   0  0  2  0  0  3  0  0  0  0  0  0
  190.2810  174.9600  135.6140 N   0  0  0  0  0  2  0  0  0  0  0  0
  190.7210  174.2430  136.8080 C   0  0  2  0  0  3  0  0  0  0  0  0
  193.8020  172.1890  135.5240 C   0  0  0  0  0  2  0  0  0  0  0  0
  193.0800  174.0810  137.5280 C   0  0  0  0  0  3  0  0  0  0  0  0
  192.3280  172.5370  135.7240 C   0  0  0  0  0  2  0  0  0  0  0  0
  192.1170  173.6970  136.6630 C   0  0  0  0  0  0  0  0  0  0  0  0
  195.8240  171.7100  136.6880 O   0  0  0  0  0  1  0  0  0  0  0  0
  194.4750  173.5070  137.5110 C   0  0  1  0  0  3  0  0  0  0  0  0
  194.9600  173.4490  138.8020 F   0  0  0  0  0  0  0  0  0  0  0  0
  194.5040  172.1220  136.8710 C   0  0  1  0  0  3  0  0  0  0  0  0
  189.7380  173.2400  137.2240 N   0  0  0  0  0  2  0  0  0  0  0  0
  187.9930  171.9110  136.6420 N   0  0  0  0  0  2  0  0  0  0  0  0
  187.5670  173.2640  136.5560 C   0  0  1  0  0  3  0  0  0  0  0  0
  188.8860  172.9220  136.1490 N   0  0  0  0  0  0  0  0  0  0  0  0
  186.6930  173.4030  135.3990 N   0  0  0  0  0  2  0  0  0  0  0  0
  185.1260  176.0660  134.6360 C   0  0  0  0  0  2  0  0  0  0  0  0
  184.6250  174.6310  134.7240 C   0  0  0  0  0  2  0  0  0  0  0  0
  184.6260  175.9330  137.1570 C   0  0  0  0  0  2  0  0  0  0  0  0
  185.5380  174.7010  137.1220 C   0  0  0  0  0  2  0  0  0  0  0  0
  184.8500  176.8410  135.9380 C   0  0  0  0  0  2  0  0  0  0  0  0
  185.3680  173.8620  135.8370 C   0  0  0  0  0  3  0  0  0  0  0  0
  188.4540  178.2350  145.8730 C   0  0  0  0  0  2  0  0  0  0  0  0
  188.6540  177.1240  146.8890 C   0  0  0  0  0  2  0  0  0  0  0  0
  189.9240  177.3310  147.7160 C   0  0  0  0  0  2  0  0  0  0  0  0
  191.1910  176.8930  146.9770 C   0  0  1  0  0  3  0  0  0  0  0  0
  192.9830  175.2750  147.1510 O   0  0  0  0  0  1  0  0  0  0  0  0
  192.7920  176.8830  148.7670 O   0  0  0  0  0  1  0  0  0  0  0  0
  192.0890  176.0520  147.8930 C   0  0  0  0  0  3  0  0  0  0  0  0
  190.8690  176.1780  145.6630 C   0  0  0  0  0  2  0  0  0  0  0  0
  191.7470  178.0130  144.7940 C   0  0  0  0  0  1  0  0  0  0  0  0
  191.7020  176.6270  144.6330 O   0  0  0  0  0  0  0  0  0  0  0  0
  1  4  1  0  0  0  0
  1 15  1  0  0  0  0
  2 13  1  6  0  0  0
  2  4  1  0  0  0  0
  2 11  1  0  0  0  0
  4  3  1  1  0  0  0
  4 10  1  0  0  0  0
  5 13  1  6  0  0  0
  5  9  1  0  0  0  0
  7 14  1  0  0  0  0
  7 21  1  1  0  0  0
  8 51  1  0  0  0  0
 10 12  1  6  0  0  0
 11  9  1  6  0  0  0
 11  7  1  0  0  0  0
 14 12  1  6  0  0  0
 14 16  1  0  0  0  0
 14  8  1  0  0  0  0
 15  6  1  6  0  0  0
 15 10  1  0  0  0  0
 16  8  1  0  0  0  0
 17 19  1  0  0  0  0
 18 17  1  6  0  0  0
 18 19  1  0  0  0  0
 18  5  1  0  0  0  0
 20 21  2  0  0  0  0
 22  1  1  0  0  0  0
 23 30  1  6  0  0  0
 23 27  1  0  0  0  0
 23 26  1  0  0  0  0
 25 24  1  6  0  0  0
 25 26  1  0  0  0  0
 25 28  1  0  0  0  0
 26 27  1  6  0  0  0
 26 28  1  0  0  0  0
 28 22  1  1  0  0  0
 29 23  1  0  0  0  0
 29 24  1  1  0  0  0
 29 25  1  0  0  0  0
 31 30  1  6  0  0  0
 31 40  1  0  0  0  0
 32 34  1  0  0  0  0
 32 39  1  0  0  0  0
 34 35  1  0  0  0  0
 35 31  1  0  0  0  0
 35 33  2  0  0  0  0
 37 33  1  0  0  0  0
 37 38  1  1  0  0  0
 39 36  1  6  0  0  0
 39 37  1  0  0  0  0
 42 44  1  6  0  0  0
 42 41  1  0  0  0  0
 43 42  1  0  0  0  0
 43 41  1  0  0  0  0
 43 40  1  0  0  0  0
 44 50  1  0  0  0  0
 45 46  1  0  0  0  0
 45 49  1  0  0  0  0
 46 50  1  0  0  0  0
 48 47  1  0  0  0  0
 49 47  1  0  0  0  0
 50 48  1  0  0  0  0
 51 52  1  0  0  0  0
 52 53  1  0  0  0  0
 54 58  1  6  0  0  0
 54 53  1  0  0  0  0
 54 57  1  0  0  0  0
 55 57  1  0  0  0  0
 57 56  1  0  0  0  0
 60 59  1  0  0  0  0
 60 58  1  0  0  0  0
M  END
>  <MODEL>
4

>  <REMARK>
 VINA RESULT:      -6.7      2.764      7.799
  Name = 
  18 active torsions:
  status: ('A' for Active; 'I' for Inactive)
    1  A    between atoms: N_1  and  C_28
    2  A    between atoms: C_3  and  C_29
    3  A    between atoms: C_3  and  C_38
    4  A    between atoms: C_3  and  C_47
    5  A    between atoms: N_7  and  C_36
    6  A    between atoms: N_7  and  C_53
    7  A    between atoms: C_10  and  C_11
    8  A    between atoms: C_10  and  C_47
    9  A    between atoms: C_11  and  N_25
   10  A    between atoms: C_15  and  N_30
   11  A    between atoms: C_17  and  C_58
   12  A    between atoms: C_20  and  C_35
   13  A    between atoms: C_21  and  C_39
   14  A    between atoms: C_28  and  C_56
   15  A    between atoms: C_29  and  O_51
   16  A    between atoms: N_30  and  C_35
   17  A    between atoms: C_35  and  N_42
   18  A    between atoms: N_42  and  N_55
                            x       y       z     vdW  Elec       q    Type
                         _______ _______ _______ _____ _____    ______ ____

>  <TORSDO>
F 18

$$$$
=
 OpenBabel10222417423D

 60 71  0  0  1  0  0  0  0  0999 V2000
  185.3890  176.9250  136.8840 N   0  0  0  0  0  0  0  0  0  0  0  0
  183.2440  177.3220  138.3080 C   0  0  1  0  0  3  0  0  0  0  0  0
  184.3470  175.0430  138.0570 C   0  0  0  0  0  1  0  0  0  0  0  0
  184.1060  176.4010  137.4070 C   0  0  2  0  0  0  0  0  0  0  0  0
  182.8640  178.0410  140.5190 C   0  0  2  0  0  3  0  0  0  0  0  0
  184.8390  177.9440  134.5950 C   0  0  0  0  0  1  0  0  0  0  0  0
  180.8540  176.9900  137.9100 C   0  0  1  0  0  3  0  0  0  0  0  0
  180.3720  175.4590  135.8900 N   0  0  0  0  0  0  0  0  0  0  0  0
  181.8170  177.0220  140.1420 C   0  0  0  0  0  2  0  0  0  0  0  0
  183.5260  176.2050  136.0050 C   0  0  1  0  0  3  0  0  0  0  0  0
  182.0270  176.6140  138.7450 N   0  0  2  0  0  0  0  0  0  0  0  0
  182.3490  177.1360  135.6770 C   0  0  0  0  0  2  0  0  0  0  0  0
  183.9740  177.7880  139.5480 C   0  0  0  0  0  2  0  0  0  0  0  0
  181.0740  176.6690  136.3930 C   0  0  2  0  0  0  0  0  0  0  0  0
  184.8820  176.7080  135.5130 C   0  0  2  0  0  3  0  0  0  0  0  0
  179.9020  176.8140  135.5410 C   0  0  0  0  0  2  0  0  0  0  0  0
  184.1530  179.1000  142.3130 C   0  0  0  0  0  2  0  0  0  0  0  0
  183.3860  177.8920  141.9400 C   0  0  1  0  0  3  0  0  0  0  0  0
  182.8510  178.8840  142.7860 O   0  0  0  0  0  0  0  0  0  0  0  0
  179.5870  175.4110  139.3720 C   0  0  0  0  0  2  0  0  0  0  0  0
  179.5810  176.3380  138.4180 C   0  0  0  0  0  3  0  0  0  0  0  0
  185.6760  178.3320  137.1910 C   0  0  0  0  0  2  0  0  0  0  0  0
  189.4190  177.5580  138.0240 C   0  0  2  0  0  0  0  0  0  0  0  0
  188.7690  177.9160  135.5990 C   0  0  0  0  0  2  0  0  0  0  0  0
  187.8300  177.2810  136.6130 C   0  0  1  0  0  0  0  0  0  0  0  0
  187.9370  177.7960  138.1010 C   0  0  2  0  0  0  0  0  0  0  0  0
  188.9130  178.8550  138.4260 N   0  0  0  0  0  2  0  0  0  0  0  0
  187.1720  178.5380  137.0550 C   0  0  2  0  0  3  0  0  0  0  0  0
  189.3320  177.0080  136.6310 C   0  0  2  0  0  3  0  0  0  0  0  0
  189.8110  176.6610  139.0990 N   0  0  0  0  0  2  0  0  0  0  0  0
  191.2630  176.7800  139.2150 C   0  0  2  0  0  3  0  0  0  0  0  0
  193.9530  175.5530  136.6420 C   0  0  0  0  0  2  0  0  0  0  0  0
  191.4140  174.8240  137.7110 C   0  0  0  0  0  3  0  0  0  0  0  0
  193.2030  176.5480  137.5270 C   0  0  0  0  0  2  0  0  0  0  0  0
  191.9870  175.9500  138.1870 C   0  0  0  0  0  0  0  0  0  0  0  0
  193.6690  173.9870  134.8700 O   0  0  0  0  0  1  0  0  0  0  0  0
  192.0280  173.9930  136.6110 C   0  0  1  0  0  3  0  0  0  0  0  0
  191.0240  173.4440  135.8400 F   0  0  0  0  0  0  0  0  0  0  0  0
  192.9700  174.8210  135.7420 C   0  0  1  0  0  3  0  0  0  0  0  0
  191.7130  176.5380  140.5880 N   0  0  0  0  0  2  0  0  0  0  0  0
  191.1660  176.3860  142.7850 N   0  0  0  0  0  2  0  0  0  0  0  0
  190.8770  177.7070  142.3460 C   0  0  1  0  0  3  0  0  0  0  0  0
  190.6220  176.6130  141.4750 N   0  0  0  0  0  0  0  0  0  0  0  0
  189.6460  178.1500  142.9870 N   0  0  0  0  0  2  0  0  0  0  0  0
  186.8670  177.8350  144.5080 C   0  0  0  0  0  2  0  0  0  0  0  0
  187.7690  176.7730  143.8930 C   0  0  0  0  0  2  0  0  0  0  0  0
  188.5120  177.4790  146.4560 C   0  0  0  0  0  2  0  0  0  0  0  0
  189.5880  177.7690  145.4040 C   0  0  0  0  0  2  0  0  0  0  0  0
  187.1340  177.9980  146.0160 C   0  0  0  0  0  2  0  0  0  0  0  0
  189.2520  177.1790  144.0180 C   0  0  0  0  0  3  0  0  0  0  0  0
  180.9810  174.9030  134.6840 C   0  0  0  0  0  2  0  0  0  0  0  0
  180.8330  173.3910  134.7040 C   0  0  0  0  0  2  0  0  0  0  0  0
  181.9060  172.7270  135.5680 C   0  0  0  0  0  2  0  0  0  0  0  0
  182.4510  171.4370  134.9480 C   0  0  1  0  0  3  0  0  0  0  0  0
  184.8600  171.6590  134.8610 O   0  0  0  0  0  1  0  0  0  0  0  0
  183.8460  171.4680  136.9020 O   0  0  0  0  0  1  0  0  0  0  0  0
  183.8060  171.0700  135.5650 C   0  0  0  0  0  3  0  0  0  0  0  0
  181.4420  170.2890  135.0380 C   0  0  0  0  0  2  0  0  0  0  0  0
  179.2680  170.4430  135.4180 C   0  0  0  0  0  1  0  0  0  0  0  0
  180.5090  170.5220  136.0530 O   0  0  0  0  0  0  0  0  0  0  0  0
  1 22  1  0  0  0  0
  1  4  1  0  0  0  0
  2 11  1  0  0  0  0
  2 13  1  1  0  0  0
  4  3  1  1  0  0  0
  4  2  1  0  0  0  0
  5 13  1  6  0  0  0
  5 18  1  0  0  0  0
  7 21  1  1  0  0  0
  7 11  1  0  0  0  0
  8 14  1  0  0  0  0
  9  5  1  0  0  0  0
 10 12  1  1  0  0  0
 10  4  1  0  0  0  0
 11  9  1  1  0  0  0
 12 14  1  0  0  0  0
 14 16  1  6  0  0  0
 14  7  1  0  0  0  0
 15  6  1  6  0  0  0
 15 10  1  0  0  0  0
 15  1  1  0  0  0  0
 16  8  1  0  0  0  0
 17 19  1  0  0  0  0
 18 17  1  6  0  0  0
 18 19  1  0  0  0  0
 21 20  2  0  0  0  0
 23 26  1  0  0  0  0
 23 27  1  0  0  0  0
 23 30  1  1  0  0  0
 25 24  1  1  0  0  0
 25 29  1  0  0  0  0
 25 28  1  0  0  0  0
 25 26  1  0  0  0  0
 26 27  1  6  0  0  0
 28 22  1  1  0  0  0
 28 26  1  0  0  0  0
 29 24  1  6  0  0  0
 29 23  1  0  0  0  0
 31 30  1  1  0  0  0
 31 40  1  0  0  0  0
 32 34  1  0  0  0  0
 33 35  2  0  0  0  0
 34 35  1  0  0  0  0
 35 31  1  0  0  0  0
 37 38  1  6  0  0  0
 37 33  1  0  0  0  0
 39 36  1  6  0  0  0
 39 37  1  0  0  0  0
 39 32  1  0  0  0  0
 40 43  1  0  0  0  0
 42 41  1  0  0  0  0
 42 44  1  1  0  0  0
 43 42  1  0  0  0  0
 43 41  1  0  0  0  0
 44 50  1  0  0  0  0
 45 49  1  0  0  0  0
 46 50  1  0  0  0  0
 46 45  1  0  0  0  0
 48 47  1  0  0  0  0
 49 47  1  0  0  0  0
 50 48  1  0  0  0  0
 51 52  1  0  0  0  0
 51  8  1  0  0  0  0
 52 53  1  0  0  0  0
 54 58  1  1  0  0  0
 54 57  1  0  0  0  0
 54 53  1  0  0  0  0
 55 57  1  0  0  0  0
 57 56  1  0  0  0  0
 58 60  1  0  0  0  0
 59 60  1  0  0  0  0
M  END
>  <MODEL>
5

>  <REMARK>
 VINA RESULT:      -6.3      3.876      8.825
  Name = 
  18 active torsions:
  status: ('A' for Active; 'I' for Inactive)
    1  A    between atoms: N_1  and  C_28
    2  A    between atoms: C_3  and  C_29
    3  A    between atoms: C_3  and  C_38
    4  A    between atoms: C_3  and  C_47
    5  A    between atoms: N_7  and  C_36
    6  A    between atoms: N_7  and  C_53
    7  A    between atoms: C_10  and  C_11
    8  A    between atoms: C_10  and  C_47
    9  A    between atoms: C_11  and  N_25
   10  A    between atoms: C_15  and  N_30
   11  A    between atoms: C_17  and  C_58
   12  A    between atoms: C_20  and  C_35
   13  A    between atoms: C_21  and  C_39
   14  A    between atoms: C_28  and  C_56
   15  A    between atoms: C_29  and  O_51
   16  A    between atoms: N_30  and  C_35
   17  A    between atoms: C_35  and  N_42
   18  A    between atoms: N_42  and  N_55
                            x       y       z     vdW  Elec       q    Type
                         _______ _______ _______ _____ _____    ______ ____

>  <TORSDO>
F 18

$$$$
=
 OpenBabel10222417423D

 60 71  0  0  1  0  0  0  0  0999 V2000
  188.0430  177.4840  141.8210 N   0  0  0  0  0  0  0  0  0  0  0  0
  188.7550  177.7960  144.3070 C   0  0  1  0  0  3  0  0  0  0  0  0
  187.7810  175.6280  143.4000 C   0  0  0  0  0  1  0  0  0  0  0  0
  187.8300  177.1440  143.2470 C   0  0  2  0  0  0  0  0  0  0  0  0
  190.8030  177.6000  145.4540 C   0  0  2  0  0  3  0  0  0  0  0  0
  186.4890  179.4690  141.3430 C   0  0  0  0  0  1  0  0  0  0  0  0
  187.5430  178.2960  146.3720 C   0  0  1  0  0  3  0  0  0  0  0  0
  184.9990  177.9300  146.1620 N   0  0  0  0  0  0  0  0  0  0  0  0
  189.6830  177.1430  146.3570 C   0  0  0  0  0  2  0  0  0  0  0  0
  186.4080  177.7100  143.2490 C   0  0  1  0  0  3  0  0  0  0  0  0
  188.4030  177.3150  145.6560 N   0  0  2  0  0  0  0  0  0  0  0  0
  186.2330  178.9640  144.1180 C   0  0  0  0  0  2  0  0  0  0  0  0
  190.2190  177.4950  144.0810 C   0  0  0  0  0  2  0  0  0  0  0  0
  186.2090  178.5910  145.6070 C   0  0  2  0  0  0  0  0  0  0  0  0
  186.6580  177.9990  141.7700 C   0  0  2  0  0  3  0  0  0  0  0  0
  185.2250  179.3790  146.3360 C   0  0  0  0  0  2  0  0  0  0  0  0
  192.0550  176.0010  146.8240 C   0  0  0  0  0  2  0  0  0  0  0  0
  192.0560  176.7420  145.5440 C   0  0  1  0  0  3  0  0  0  0  0  0
  191.7320  175.3730  145.6140 O   0  0  0  0  0  0  0  0  0  0  0  0
  188.0090  178.2310  148.8250 C   0  0  0  0  0  2  0  0  0  0  0  0
  187.2600  177.8480  147.7950 C   0  0  0  0  0  3  0  0  0  0  0  0
  189.0620  178.5070  141.5540 C   0  0  0  0  0  2  0  0  0  0  0  0
  189.5410  176.3710  138.3110 C   0  0  2  0  0  0  0  0  0  0  0  0
  189.3530  178.8900  138.0840 C   0  0  0  0  0  2  0  0  0  0  0  0
  188.6180  178.1080  139.1610 C   0  0  1  0  0  0  0  0  0  0  0  0
  189.3430  176.8270  139.7300 C   0  0  2  0  0  0  0  0  0  0  0  0
  190.6760  176.4650  139.2080 N   0  0  0  0  0  2  0  0  0  0  0  0
  189.6760  178.2040  140.2010 C   0  0  2  0  0  3  0  0  0  0  0  0
  188.8020  177.5510  137.7530 C   0  0  2  0  0  3  0  0  0  0  0  0
  188.9560  175.0490  138.1530 N   0  0  0  0  0  2  0  0  0  0  0  0
  188.2160  175.0830  136.8930 C   0  0  2  0  0  3  0  0  0  0  0  0
  184.9680  173.0040  137.5900 C   0  0  0  0  0  2  0  0  0  0  0  0
  185.8050  175.6230  136.8420 C   0  0  0  0  0  3  0  0  0  0  0  0
  186.4350  173.2460  137.2390 C   0  0  0  0  0  2  0  0  0  0  0  0
  186.7690  174.7060  137.0720 C   0  0  0  0  0  0  0  0  0  0  0  0
  182.7380  173.5130  136.9250 O   0  0  0  0  0  1  0  0  0  0  0  0
  184.3330  175.2980  136.9030 C   0  0  1  0  0  3  0  0  0  0  0  0
  183.6590  176.0590  135.9700 F   0  0  0  0  0  0  0  0  0  0  0  0
  184.0750  173.8130  136.6630 C   0  0  1  0  0  3  0  0  0  0  0  0
  188.8990  174.3160  135.8480 N   0  0  0  0  0  2  0  0  0  0  0  0
  190.4770  172.7710  135.3280 N   0  0  0  0  0  2  0  0  0  0  0  0
  191.1270  173.8820  135.9310 C   0  0  1  0  0  3  0  0  0  0  0  0
  189.8600  173.4640  136.4250 N   0  0  0  0  0  0  0  0  0  0  0  0
  192.1980  173.3850  136.7840 N   0  0  0  0  0  2  0  0  0  0  0  0
  195.1120  172.5010  137.7130 C   0  0  0  0  0  2  0  0  0  0  0  0
  194.4550  172.4100  136.3420 C   0  0  0  0  0  2  0  0  0  0  0  0
  195.5970  174.8730  136.8380 C   0  0  0  0  0  2  0  0  0  0  0  0
  194.0830  174.9350  136.6040 C   0  0  0  0  0  2  0  0  0  0  0  0
  195.9720  173.7730  137.8430 C   0  0  0  0  0  2  0  0  0  0  0  0
  193.4920  173.5940  136.1200 C   0  0  0  0  0  3  0  0  0  0  0  0
  183.9230  177.7900  145.1810 C   0  0  0  0  0  2  0  0  0  0  0  0
  183.0670  179.0440  145.2000 C   0  0  0  0  0  2  0  0  0  0  0  0
  182.7140  179.5120  143.7880 C   0  0  0  0  0  2  0  0  0  0  0  0
  181.6610  178.6270  143.1150 C   0  0  1  0  0  3  0  0  0  0  0  0
  179.6700  179.9420  142.7040 O   0  0  0  0  0  1  0  0  0  0  0  0
  179.4470  177.8790  143.6660 O   0  0  0  0  0  1  0  0  0  0  0  0
  180.2510  179.0160  143.5750 C   0  0  0  0  0  3  0  0  0  0  0  0
  181.7970  178.6340  141.5900 C   0  0  0  0  0  2  0  0  0  0  0  0
  183.0550  177.4430  140.2150 C   0  0  0  0  0  1  0  0  0  0  0  0
  183.1260  178.4220  141.2070 O   0  0  0  0  0  0  0  0  0  0  0  0
  1  4  1  0  0  0  0
  2 13  1  6  0  0  0
  2 11  1  0  0  0  0
  4 10  1  0  0  0  0
  4  3  1  1  0  0  0
  4  2  1  0  0  0  0
  5 13  1  6  0  0  0
  5 18  1  0  0  0  0
  5  9  1  0  0  0  0
  7 21  1  1  0  0  0
  8 16  1  0  0  0  0
 10 12  1  1  0  0  0
 11  9  1  1  0  0  0
 11  7  1  0  0  0  0
 14 12  1  6  0  0  0
 14  8  1  0  0  0  0
 14 16  1  0  0  0  0
 14  7  1  0  0  0  0
 15  6  1  1  0  0  0
 15  1  1  0  0  0  0
 15 10  1  0  0  0  0
 18 19  1  0  0  0  0
 18 17  1  1  0  0  0
 19 17  1  0  0  0  0
 21 20  2  0  0  0  0
 22  1  1  0  0  0  0
 23 30  1  6  0  0  0
 23 27  1  0  0  0  0
 23 26  1  0  0  0  0
 25 24  1  6  0  0  0
 25 26  1  0  0  0  0
 25 28  1  0  0  0  0
 26 27  1  6  0  0  0
 26 28  1  0  0  0  0
 28 22  1  1  0  0  0
 29 24  1  6  0  0  0
 29 23  1  0  0  0  0
 29 25  1  0  0  0  0
 31 40  1  6  0  0  0
 31 35  1  0  0  0  0
 31 30  1  0  0  0  0
 33 37  1  0  0  0  0
 33 35  2  0  0  0  0
 34 32  1  0  0  0  0
 35 34  1  0  0  0  0
 37 38  1  6  0  0  0
 39 37  1  0  0  0  0
 39 36  1  1  0  0  0
 39 32  1  0  0  0  0
 40 43  1  0  0  0  0
 41 42  1  0  0  0  0
 41 43  1  0  0  0  0
 42 43  1  0  0  0  0
 42 44  1  1  0  0  0
 45 49  1  0  0  0  0
 46 45  1  0  0  0  0
 47 49  1  0  0  0  0
 48 47  1  0  0  0  0
 50 46  1  0  0  0  0
 50 48  1  0  0  0  0
 50 44  1  0  0  0  0
 51 52  1  0  0  0  0
 51  8  1  0  0  0  0
 53 52  1  0  0  0  0
 54 58  1  6  0  0  0
 54 57  1  0  0  0  0
 54 53  1  0  0  0  0
 55 57  1  0  0  0  0
 57 56  1  0  0  0  0
 59 60  1  0  0  0  0
 60 58  1  0  0  0  0
M  END
>  <MODEL>
6

>  <REMARK>
 VINA RESULT:      -6.2      1.546      2.226
  Name = 
  18 active torsions:
  status: ('A' for Active; 'I' for Inactive)
    1  A    between atoms: N_1  and  C_28
    2  A    between atoms: C_3  and  C_29
    3  A    between atoms: C_3  and  C_38
    4  A    between atoms: C_3  and  C_47
    5  A    between atoms: N_7  and  C_36
    6  A    between atoms: N_7  and  C_53
    7  A    between atoms: C_10  and  C_11
    8  A    between atoms: C_10  and  C_47
    9  A    between atoms: C_11  and  N_25
   10  A    between atoms: C_15  and  N_30
   11  A    between atoms: C_17  and  C_58
   12  A    between atoms: C_20  and  C_35
   13  A    between atoms: C_21  and  C_39
   14  A    between atoms: C_28  and  C_56
   15  A    between atoms: C_29  and  O_51
   16  A    between atoms: N_30  and  C_35
   17  A    between atoms: C_35  and  N_42
   18  A    between atoms: N_42  and  N_55
                            x       y       z     vdW  Elec       q    Type
                         _______ _______ _______ _____ _____    ______ ____

>  <TORSDO>
F 18

$$$$
=
 OpenBabel10222417423D

 60 71  0  0  1  0  0  0  0  0999 V2000
  189.3450  177.9900  140.9850 N   0  0  0  0  0  0  0  0  0  0  0  0
  186.8480  178.2290  141.6840 C   0  0  1  0  0  3  0  0  0  0  0  0
  188.5340  180.1240  141.8740 C   0  0  0  0  0  1  0  0  0  0  0  0
  188.3380  178.6120  141.8740 C   0  0  2  0  0  0  0  0  0  0  0  0
  184.8670  178.7310  140.5130 C   0  0  2  0  0  3  0  0  0  0  0  0
  190.1620  175.8960  142.2230 C   0  0  0  0  0  1  0  0  0  0  0  0
  185.6640  178.1300  143.8220 C   0  0  1  0  0  3  0  0  0  0  0  0
  187.2360  178.3560  145.8560 N   0  0  0  0  0  0  0  0  0  0  0  0
  184.7890  179.3280  141.8960 C   0  0  0  0  0  2  0  0  0  0  0  0
  188.9650  178.0110  143.1340 C   0  0  1  0  0  3  0  0  0  0  0  0
  186.0040  178.9690  142.6410 N   0  0  2  0  0  0  0  0  0  0  0  0
  188.0880  176.9610  143.8320 C   0  0  0  0  0  2  0  0  0  0  0  0
  186.3320  178.5270  140.2940 C   0  0  0  0  0  2  0  0  0  0  0  0
  186.9360  177.6360  144.5900 C   0  0  2  0  0  0  0  0  0  0  0  0
  190.0070  177.4280  142.1810 C   0  0  2  0  0  3  0  0  0  0  0  0
  186.6880  176.9850  145.8690 C   0  0  0  0  0  2  0  0  0  0  0  0
  183.2700  178.9010  138.6620 C   0  0  0  0  0  2  0  0  0  0  0  0
  184.3080  179.6320  139.4210 C   0  0  1  0  0  3  0  0  0  0  0  0
  182.9340  179.8740  139.6140 O   0  0  0  0  0  0  0  0  0  0  0  0
  183.3950  178.7890  144.6320 C   0  0  0  0  0  2  0  0  0  0  0  0
  184.7170  178.8550  144.7620 C   0  0  0  0  0  3  0  0  0  0  0  0
  188.8360  176.9700  140.0600 C   0  0  0  0  0  2  0  0  0  0  0  0
  190.5870  175.1740  137.0570 C   0  0  2  0  0  0  0  0  0  0  0  0
  189.7460  177.5430  136.7260 C   0  0  0  0  0  2  0  0  0  0  0  0
  189.0490  176.5470  137.6390 C   0  0  1  0  0  0  0  0  0  0  0  0
  189.9680  175.5040  138.3870 C   0  0  2  0  0  0  0  0  0  0  0  0
  191.4280  175.5530  138.1750 N   0  0  0  0  0  2  0  0  0  0  0  0
  189.7870  176.9010  138.8800 C   0  0  2  0  0  3  0  0  0  0  0  0
  189.6820  176.1160  136.3200 C   0  0  2  0  0  3  0  0  0  0  0  0
  190.4500  173.7470  136.8120 N   0  0  0  0  0  2  0  0  0  0  0  0
  190.1190  173.6100  135.3960 C   0  0  2  0  0  3  0  0  0  0  0  0
  186.2790  173.0040  134.8950 C   0  0  0  0  0  2  0  0  0  0  0  0
  188.7350  171.5790  135.1310 C   0  0  0  0  0  3  0  0  0  0  0  0
  187.5420  173.7590  135.3060 C   0  0  0  0  0  2  0  0  0  0  0  0
  188.7930  172.9270  135.1830 C   0  0  0  0  0  0  0  0  0  0  0  0
  185.0620  170.9880  135.2500 O   0  0  0  0  0  1  0  0  0  0  0  0
  187.4380  170.8170  135.0200 C   0  0  1  0  0  3  0  0  0  0  0  0
  187.5470  169.6280  135.7110 F   0  0  0  0  0  0  0  0  0  0  0  0
  186.2620  171.6320  135.5510 C   0  0  1  0  0  3  0  0  0  0  0  0
  191.2200  173.0040  134.6430 N   0  0  0  0  0  2  0  0  0  0  0  0
  192.2470  170.9960  134.8850 N   0  0  0  0  0  2  0  0  0  0  0  0
  193.2500  171.9980  134.7940 C   0  0  1  0  0  3  0  0  0  0  0  0
  192.0540  172.2740  135.5120 N   0  0  0  0  0  0  0  0  0  0  0  0
  194.3310  171.6580  135.7100 N   0  0  0  0  0  2  0  0  0  0  0  0
  195.4160  173.0210  138.3740 C   0  0  0  0  0  2  0  0  0  0  0  0
  196.1540  172.6650  137.0900 C   0  0  0  0  0  2  0  0  0  0  0  0
  194.8730  175.1070  136.9670 C   0  0  0  0  0  2  0  0  0  0  0  0
  194.3620  174.0950  135.9350 C   0  0  0  0  0  2  0  0  0  0  0  0
  194.9570  174.4920  138.3730 C   0  0  0  0  0  2  0  0  0  0  0  0
  195.2230  172.8150  135.8690 C   0  0  0  0  0  3  0  0  0  0  0  0
  188.6370  178.2510  146.2570 C   0  0  0  0  0  2  0  0  0  0  0  0
  188.7550  177.2510  147.3940 C   0  0  0  0  0  2  0  0  0  0  0  0
  189.8970  176.2600  147.1630 C   0  0  0  0  0  2  0  0  0  0  0  0
  191.2710  176.9350  147.1260 C   0  0  1  0  0  3  0  0  0  0  0  0
  193.2710  175.8460  147.9470 O   0  0  0  0  0  1  0  0  0  0  0  0
  192.4480  177.6460  149.0950 O   0  0  0  0  0  1  0  0  0  0  0  0
  192.1120  176.5210  148.3400 C   0  0  0  0  0  3  0  0  0  0  0  0
  191.9970  176.6820  145.8030 C   0  0  0  0  0  2  0  0  0  0  0  0
  192.4680  174.8000  144.7410 C   0  0  0  0  0  1  0  0  0  0  0  0
  191.4040  175.6270  145.1020 O   0  0  0  0  0  0  0  0  0  0  0  0
  1  4  1  0  0  0  0
  1 15  1  0  0  0  0
  2 13  1  6  0  0  0
  2  4  1  0  0  0  0
  2 11  1  0  0  0  0
  4  3  1  1  0  0  0
  4 10  1  0  0  0  0
  5 13  1  6  0  0  0
  5  9  1  0  0  0  0
  7 14  1  0  0  0  0
  7 21  1  1  0  0  0
  8 16  1  0  0  0  0
  8 51  1  0  0  0  0
 10 12  1  6  0  0  0
 11  9  1  6  0  0  0
 11  7  1  0  0  0  0
 14 12  1  6  0  0  0
 14  8  1  0  0  0  0
 14 16  1  0  0  0  0
 15  6  1  6  0  0  0
 15 10  1  0  0  0  0
 17 19  1  0  0  0  0
 18 17  1  6  0  0  0
 18 19  1  0  0  0  0
 18  5  1  0  0  0  0
 20 21  2  0  0  0  0
 22  1  1  0  0  0  0
 23 30  1  6  0  0  0
 23 27  1  0  0  0  0
 23 26  1  0  0  0  0
 25 24  1  6  0  0  0
 25 26  1  0  0  0  0
 25 28  1  0  0  0  0
 26 27  1  6  0  0  0
 26 28  1  0  0  0  0
 28 22  1  1  0  0  0
 29 24  1  1  0  0  0
 29 23  1  0  0  0  0
 29 25  1  0  0  0  0
 31 40  1  6  0  0  0
 31 30  1  0  0  0  0
 32 34  1  0  0  0  0
 32 39  1  0  0  0  0
 33 35  2  0  0  0  0
 35 34  1  0  0  0  0
 35 31  1  0  0  0  0
 37 33  1  0  0  0  0
 37 39  1  0  0  0  0
 37 38  1  1  0  0  0
 39 36  1  6  0  0  0
 40 43  1  0  0  0  0
 41 43  1  0  0  0  0
 42 41  1  0  0  0  0
 42 43  1  0  0  0  0
 42 44  1  1  0  0  0
 44 50  1  0  0  0  0
 46 45  1  0  0  0  0
 47 49  1  0  0  0  0
 48 47  1  0  0  0  0
 49 45  1  0  0  0  0
 50 48  1  0  0  0  0
 50 46  1  0  0  0  0
 51 52  1  0  0  0  0
 53 52  1  0  0  0  0
 54 58  1  6  0  0  0
 54 53  1  0  0  0  0
 54 57  1  0  0  0  0
 55 57  1  0  0  0  0
 57 56  1  0  0  0  0
 59 60  1  0  0  0  0
 60 58  1  0  0  0  0
M  END
>  <MODEL>
7

>  <REMARK>
 VINA RESULT:      -6.0      2.099      6.087
  Name = 
  18 active torsions:
  status: ('A' for Active; 'I' for Inactive)
    1  A    between atoms: N_1  and  C_28
    2  A    between atoms: C_3  and  C_29
    3  A    between atoms: C_3  and  C_38
    4  A    between atoms: C_3  and  C_47
    5  A    between atoms: N_7  and  C_36
    6  A    between atoms: N_7  and  C_53
    7  A    between atoms: C_10  and  C_11
    8  A    between atoms: C_10  and  C_47
    9  A    between atoms: C_11  and  N_25
   10  A    between atoms: C_15  and  N_30
   11  A    between atoms: C_17  and  C_58
   12  A    between atoms: C_20  and  C_35
   13  A    between atoms: C_21  and  C_39
   14  A    between atoms: C_28  and  C_56
   15  A    between atoms: C_29  and  O_51
   16  A    between atoms: N_30  and  C_35
   17  A    between atoms: C_35  and  N_42
   18  A    between atoms: N_42  and  N_55
                            x       y       z     vdW  Elec       q    Type
                         _______ _______ _______ _____ _____    ______ ____

>  <TORSDO>
F 18

$$$$
=
 OpenBabel10222417423D

 60 71  0  0  1  0  0  0  0  0999 V2000
  188.3910  177.0010  141.9940 N   0  0  0  0  0  0  0  0  0  0  0  0
  188.1010  177.8520  144.4390 C   0  0  1  0  0  3  0  0  0  0  0  0
  187.1320  175.6510  143.6060 C   0  0  0  0  0  1  0  0  0  0  0  0
  187.5600  177.0620  143.2180 C   0  0  2  0  0  0  0  0  0  0  0  0
  189.4290  177.7190  146.3800 C   0  0  2  0  0  3  0  0  0  0  0  0
  187.6190  178.9630  140.5340 C   0  0  0  0  0  1  0  0  0  0  0  0
  186.3040  178.9970  145.6380 C   0  0  1  0  0  3  0  0  0  0  0  0
  184.0400  178.8860  144.4060 N   0  0  0  0  0  0  0  0  0  0  0  0
  187.9730  177.6400  146.7690 C   0  0  0  0  0  2  0  0  0  0  0  0
  186.4120  177.7690  142.4970 C   0  0  1  0  0  3  0  0  0  0  0  0
  187.1470  177.7740  145.5600 N   0  0  2  0  0  0  0  0  0  0  0  0
  186.1760  179.2150  142.9580 C   0  0  0  0  0  2  0  0  0  0  0  0
  189.4330  177.3360  144.9340 C   0  0  0  0  0  2  0  0  0  0  0  0
  185.4820  179.2400  144.3270 C   0  0  2  0  0  0  0  0  0  0  0  0
  187.2860  177.6420  141.2510 C   0  0  2  0  0  3  0  0  0  0  0  0
  184.4800  180.2950  144.3960 C   0  0  0  0  0  2  0  0  0  0  0  0
  191.6740  176.7530  146.5490 C   0  0  0  0  0  2  0  0  0  0  0  0
  190.3280  176.7740  147.1620 C   0  0  1  0  0  3  0  0  0  0  0  0
  191.4180  177.4610  147.7310 O   0  0  0  0  0  0  0  0  0  0  0  0
  184.9490  177.8250  147.3780 C   0  0  0  0  0  2  0  0  0  0  0  0
  185.3880  178.9630  146.8480 C   0  0  0  0  0  3  0  0  0  0  0  0
  189.6250  177.7960  142.0190 C   0  0  0  0  0  2  0  0  0  0  0  0
  191.8030  176.6800  138.9670 C   0  0  2  0  0  0  0  0  0  0  0  0
  192.9540  177.0880  141.1900 C   0  0  0  0  0  2  0  0  0  0  0  0
  191.7330  177.8770  140.7430 C   0  0  1  0  0  0  0  0  0  0  0  0
  190.6730  177.1090  139.8620 C   0  0  2  0  0  0  0  0  0  0  0  0
  190.9080  175.6890  139.5320 N   0  0  0  0  0  2  0  0  0  0  0  0
  190.7130  176.9810  141.3480 C   0  0  2  0  0  3  0  0  0  0  0  0
  192.8180  177.4520  139.7570 C   0  0  2  0  0  3  0  0  0  0  0  0
  191.5170  177.1030  137.6060 N   0  0  0  0  0  2  0  0  0  0  0  0
  191.7440  175.9310  136.7630 C   0  0  2  0  0  3  0  0  0  0  0  0
  195.4050  176.1310  135.3790 C   0  0  0  0  0  2  0  0  0  0  0  0
  193.8110  174.6570  137.2240 C   0  0  0  0  0  3  0  0  0  0  0  0
  193.8920  176.3390  135.3890 C   0  0  0  0  0  2  0  0  0  0  0  0
  193.2100  175.6590  136.5480 C   0  0  0  0  0  0  0  0  0  0  0  0
  197.1020  174.4640  135.4950 O   0  0  0  0  0  1  0  0  0  0  0  0
  195.2480  174.2580  136.9940 C   0  0  1  0  0  3  0  0  0  0  0  0
  195.3770  172.8960  137.1690 F   0  0  0  0  0  0  0  0  0  0  0  0
  195.7250  174.6620  135.6020 C   0  0  1  0  0  3  0  0  0  0  0  0
  190.9710  176.0060  135.5200 N   0  0  0  0  0  2  0  0  0  0  0  0
  188.8890  175.2220  135.0750 N   0  0  0  0  0  2  0  0  0  0  0  0
  189.1390  175.0530  136.4640 C   0  0  1  0  0  3  0  0  0  0  0  0
  189.6110  176.2240  135.8100 N   0  0  0  0  0  0  0  0  0  0  0  0
  187.9100  175.3330  137.1940 N   0  0  0  0  0  2  0  0  0  0  0  0
  185.1750  176.9460  137.4290 C   0  0  0  0  0  2  0  0  0  0  0  0
  186.1190  176.7940  136.2440 C   0  0  0  0  0  2  0  0  0  0  0  0
  184.3230  174.7110  136.4760 C   0  0  0  0  0  2  0  0  0  0  0  0
  185.7870  174.2730  136.5950 C   0  0  0  0  0  2  0  0  0  0  0  0
  184.0200  175.9280  137.3650 C   0  0  0  0  0  2  0  0  0  0  0  0
  186.7840  175.4010  136.2530 C   0  0  0  0  0  3  0  0  0  0  0  0
  183.4410  178.6260  143.0980 C   0  0  0  0  0  2  0  0  0  0  0  0
  181.9300  178.7110  143.2170 C   0  0  0  0  0  2  0  0  0  0  0  0
  181.2890  179.2590  141.9420 C   0  0  0  0  0  2  0  0  0  0  0  0
  181.6490  178.4420  140.6980 C   0  0  1  0  0  3  0  0  0  0  0  0
  179.4390  177.4900  140.9590 O   0  0  0  0  0  1  0  0  0  0  0  0
  180.7830  176.7090  139.2810 O   0  0  0  0  0  1  0  0  0  0  0  0
  180.7550  177.2020  140.5860 C   0  0  0  0  0  3  0  0  0  0  0  0
  181.6230  179.2940  139.4260 C   0  0  0  0  0  2  0  0  0  0  0  0
  183.7850  179.7260  139.2470 C   0  0  0  0  0  1  0  0  0  0  0  0
  182.7420  179.0350  138.6280 O   0  0  0  0  0  0  0  0  0  0  0  0
  1 22  1  0  0  0  0
  1  4  1  0  0  0  0
  2 13  1  1  0  0  0
  2 11  1  0  0  0  0
  4  3  1  1  0  0  0
  4  2  1  0  0  0  0
  5 13  1  6  0  0  0
  5  9  1  0  0  0  0
  5 18  1  0  0  0  0
  7 21  1  1  0  0  0
 10 12  1  1  0  0  0
 10  4  1  0  0  0  0
 11  7  1  0  0  0  0
 11  9  1  1  0  0  0
 14 12  1  6  0  0  0
 14 16  1  0  0  0  0
 14  8  1  0  0  0  0
 14  7  1  0  0  0  0
 15  6  1  1  0  0  0
 15  1  1  0  0  0  0
 15 10  1  0  0  0  0
 16  8  1  0  0  0  0
 17 19  1  0  0  0  0
 18 17  1  6  0  0  0
 18 19  1  0  0  0  0
 21 20  2  0  0  0  0
 23 30  1  6  0  0  0
 23 27  1  0  0  0  0
 23 29  1  0  0  0  0
 23 26  1  0  0  0  0
 25 24  1  6  0  0  0
 25 28  1  0  0  0  0
 26 27  1  1  0  0  0
 26 25  1  0  0  0  0
 26 28  1  0  0  0  0
 28 22  1  1  0  0  0
 29 25  1  0  0  0  0
 29 24  1  1  0  0  0
 31 40  1  6  0  0  0
 31 30  1  0  0  0  0
 32 34  1  0  0  0  0
 32 39  1  0  0  0  0
 34 35  1  0  0  0  0
 35 31  1  0  0  0  0
 35 33  2  0  0  0  0
 37 38  1  6  0  0  0
 37 33  1  0  0  0  0
 39 36  1  1  0  0  0
 39 37  1  0  0  0  0
 40 43  1  0  0  0  0
 41 43  1  0  0  0  0
 41 42  1  0  0  0  0
 42 44  1  1  0  0  0
 43 42  1  0  0  0  0
 46 50  1  0  0  0  0
 46 45  1  0  0  0  0
 47 48  1  0  0  0  0
 47 49  1  0  0  0  0
 49 45  1  0  0  0  0
 50 48  1  0  0  0  0
 50 44  1  0  0  0  0
 51 52  1  0  0  0  0
 51  8  1  0  0  0  0
 53 52  1  0  0  0  0
 54 58  1  6  0  0  0
 54 53  1  0  0  0  0
 56 57  1  0  0  0  0
 57 54  1  0  0  0  0
 57 55  1  0  0  0  0
 60 59  1  0  0  0  0
 60 58  1  0  0  0  0
M  END
>  <MODEL>
8

>  <REMARK>
 VINA RESULT:      -5.8      2.631      5.432
  Name = 
  18 active torsions:
  status: ('A' for Active; 'I' for Inactive)
    1  A    between atoms: N_1  and  C_28
    2  A    between atoms: C_3  and  C_29
    3  A    between atoms: C_3  and  C_38
    4  A    between atoms: C_3  and  C_47
    5  A    between atoms: N_7  and  C_36
    6  A    between atoms: N_7  and  C_53
    7  A    between atoms: C_10  and  C_11
    8  A    between atoms: C_10  and  C_47
    9  A    between atoms: C_11  and  N_25
   10  A    between atoms: C_15  and  N_30
   11  A    between atoms: C_17  and  C_58
   12  A    between atoms: C_20  and  C_35
   13  A    between atoms: C_21  and  C_39
   14  A    between atoms: C_28  and  C_56
   15  A    between atoms: C_29  and  O_51
   16  A    between atoms: N_30  and  C_35
   17  A    between atoms: C_35  and  N_42
   18  A    between atoms: N_42  and  N_55
                            x       y       z     vdW  Elec       q    Type
                         _______ _______ _______ _____ _____    ______ ____

>  <TORSDO>
F 18

$$$$
=
 OpenBabel10222417423D

 60 71  0  0  1  0  0  0  0  0999 V2000
  188.5260  176.9050  142.1050 N   0  0  0  0  0  0  0  0  0  0  0  0
  188.1730  177.7930  144.5280 C   0  0  1  0  0  3  0  0  0  0  0  0
  187.2200  175.5840  143.7030 C   0  0  0  0  0  1  0  0  0  0  0  0
  187.6620  176.9880  143.3060 C   0  0  2  0  0  0  0  0  0  0  0  0
  189.4470  177.6860  146.5060 C   0  0  2  0  0  3  0  0  0  0  0  0
  187.7990  178.8480  140.5960 C   0  0  0  0  0  1  0  0  0  0  0  0
  186.3480  178.9620  145.6620 C   0  0  1  0  0  3  0  0  0  0  0  0
  184.1170  178.8390  144.3710 N   0  0  0  0  0  0  0  0  0  0  0  0
  187.9810  177.6160  146.8570 C   0  0  0  0  0  2  0  0  0  0  0  0
  186.5360  177.6870  142.5430 C   0  0  1  0  0  3  0  0  0  0  0  0
  187.1890  177.7350  145.6250 N   0  0  2  0  0  0  0  0  0  0  0  0
  186.2930  179.1410  142.9770 C   0  0  0  0  0  2  0  0  0  0  0  0
  189.4890  177.2810  145.0670 C   0  0  0  0  0  2  0  0  0  0  0  0
  185.5620  179.1870  144.3260 C   0  0  2  0  0  0  0  0  0  0  0  0
  187.4430  177.5390  141.3230 C   0  0  2  0  0  3  0  0  0  0  0  0
  184.5630  180.2460  144.3530 C   0  0  0  0  0  2  0  0  0  0  0  0
  191.6780  176.6990  146.7370 C   0  0  0  0  0  2  0  0  0  0  0  0
  190.3220  176.7490  147.3270 C   0  0  1  0  0  3  0  0  0  0  0  0
  191.4100  177.4380  147.8980 O   0  0  0  0  0  0  0  0  0  0  0  0
  184.6810  177.8780  147.1730 C   0  0  0  0  0  2  0  0  0  0  0  0
  185.4000  178.9480  146.8470 C   0  0  0  0  0  3  0  0  0  0  0  0
  189.7610  177.6980  142.1520 C   0  0  0  0  0  2  0  0  0  0  0  0
  191.7470  176.6950  138.9340 C   0  0  2  0  0  0  0  0  0  0  0  0
  193.0440  177.1350  141.0680 C   0  0  0  0  0  2  0  0  0  0  0  0
  191.7620  177.8760  140.7220 C   0  0  1  0  0  0  0  0  0  0  0  0
  190.6710  177.0700  139.9150 C   0  0  2  0  0  0  0  0  0  0  0  0
  190.9380  175.6630  139.5530 N   0  0  0  0  0  2  0  0  0  0  0  0
  190.8280  176.9340  141.3930 C   0  0  2  0  0  3  0  0  0  0  0  0
  192.7850  177.5040  139.6530 C   0  0  2  0  0  3  0  0  0  0  0  0
  191.3420  177.1150  137.6020 N   0  0  0  0  0  2  0  0  0  0  0  0
  191.5380  175.9550  136.7350 C   0  0  2  0  0  3  0  0  0  0  0  0
  188.9280  173.0900  136.1530 C   0  0  0  0  0  2  0  0  0  0  0  0
  189.1330  175.9320  136.1630 C   0  0  0  0  0  3  0  0  0  0  0  0
  190.3090  173.7370  136.2480 C   0  0  0  0  0  2  0  0  0  0  0  0
  190.2480  175.2280  136.4560 C   0  0  0  0  0  0  0  0  0  0  0  0
  186.8270  173.2330  135.0400 O   0  0  0  0  0  1  0  0  0  0  0  0
  187.8300  175.2780  135.7760 C   0  0  1  0  0  3  0  0  0  0  0  0
  187.1730  176.0770  134.8620 F   0  0  0  0  0  0  0  0  0  0  0  0
  188.0510  173.8830  135.1980 C   0  0  1  0  0  3  0  0  0  0  0  0
  192.6060  175.0860  137.2350 N   0  0  0  0  0  2  0  0  0  0  0  0
  194.8080  175.6130  137.0780 N   0  0  0  0  0  2  0  0  0  0  0  0
  194.6720  174.2130  136.8760 C   0  0  1  0  0  3  0  0  0  0  0  0
  193.6920  175.0920  136.3380 N   0  0  0  0  0  0  0  0  0  0  0  0
  195.6120  173.8000  135.8430 N   0  0  0  0  0  2  0  0  0  0  0  0
  194.5000  170.8430  135.4480 C   0  0  0  0  0  2  0  0  0  0  0  0
  195.8960  171.4020  135.2030 C   0  0  0  0  0  2  0  0  0  0  0  0
  195.4650  170.6690  137.8290 C   0  0  0  0  0  2  0  0  0  0  0  0
  195.7740  172.1600  137.6520 C   0  0  0  0  0  2  0  0  0  0  0  0
  194.3900  170.1910  136.8400 C   0  0  0  0  0  2  0  0  0  0  0  0
  196.2220  172.5170  136.2180 C   0  0  0  0  0  3  0  0  0  0  0  0
  183.5530  178.5610  143.0510 C   0  0  0  0  0  2  0  0  0  0  0  0
  182.1520  179.1420  142.9770 C   0  0  0  0  0  2  0  0  0  0  0  0
  181.4980  178.8780  141.6210 C   0  0  0  0  0  2  0  0  0  0  0  0
  182.4910  178.3680  140.5720 C   0  0  1  0  0  3  0  0  0  0  0  0
  181.4810  177.3830  138.6050 O   0  0  0  0  0  1  0  0  0  0  0  0
  182.9600  176.1350  139.8250 O   0  0  0  0  0  1  0  0  0  0  0  0
  181.9560  177.1040  139.8890 C   0  0  0  0  0  3  0  0  0  0  0  0
  182.8680  179.4580  139.5650 C   0  0  0  0  0  2  0  0  0  0  0  0
  184.8150  178.8400  138.7170 C   0  0  0  0  0  1  0  0  0  0  0  0
  184.2380  179.7350  139.6190 O   0  0  0  0  0  0  0  0  0  0  0  0
  1 22  1  0  0  0  0
  1  4  1  0  0  0  0
  2 13  1  1  0  0  0
  2 11  1  0  0  0  0
  4  3  1  1  0  0  0
  4  2  1  0  0  0  0
  5 13  1  6  0  0  0
  5  9  1  0  0  0  0
  5 18  1  0  0  0  0
  7 21  1  1  0  0  0
 10 12  1  1  0  0  0
 10  4  1  0  0  0  0
 11  7  1  0  0  0  0
 11  9  1  1  0  0  0
 14 12  1  6  0  0  0
 14 16  1  0  0  0  0
 14  8  1  0  0  0  0
 14  7  1  0  0  0  0
 15  6  1  1  0  0  0
 15  1  1  0  0  0  0
 15 10  1  0  0  0  0
 16  8  1  0  0  0  0
 17 19  1  0  0  0  0
 18 17  1  6  0  0  0
 18 19  1  0  0  0  0
 21 20  2  0  0  0  0
 23 30  1  6  0  0  0
 23 27  1  0  0  0  0
 23 29  1  0  0  0  0
 23 26  1  0  0  0  0
 25 24  1  6  0  0  0
 25 28  1  0  0  0  0
 26 27  1  1  0  0  0
 26 25  1  0  0  0  0
 26 28  1  0  0  0  0
 28 22  1  1  0  0  0
 29 25  1  0  0  0  0
 29 24  1  1  0  0  0
 31 40  1  1  0  0  0
 31 30  1  0  0  0  0
 32 34  1  0  0  0  0
 33 35  2  0  0  0  0
 34 35  1  0  0  0  0
 35 31  1  0  0  0  0
 37 38  1  6  0  0  0
 37 33  1  0  0  0  0
 39 36  1  1  0  0  0
 39 37  1  0  0  0  0
 39 32  1  0  0  0  0
 42 44  1  6  0  0  0
 42 41  1  0  0  0  0
 43 42  1  0  0  0  0
 43 41  1  0  0  0  0
 43 40  1  0  0  0  0
 44 50  1  0  0  0  0
 45 49  1  0  0  0  0
 46 45  1  0  0  0  0
 46 50  1  0  0  0  0
 48 47  1  0  0  0  0
 49 47  1  0  0  0  0
 50 48  1  0  0  0  0
 51  8  1  0  0  0  0
 52 51  1  0  0  0  0
 53 52  1  0  0  0  0
 54 58  1  6  0  0  0
 54 53  1  0  0  0  0
 55 57  1  0  0  0  0
 56 57  1  0  0  0  0
 57 54  1  0  0  0  0
 58 60  1  0  0  0  0
 59 60  1  0  0  0  0
M  END
>  <MODEL>
9

>  <REMARK>
 VINA RESULT:      -5.8      2.021      2.882
  Name = 
  18 active torsions:
  status: ('A' for Active; 'I' for Inactive)
    1  A    between atoms: N_1  and  C_28
    2  A    between atoms: C_3  and  C_29
    3  A    between atoms: C_3  and  C_38
    4  A    between atoms: C_3  and  C_47
    5  A    between atoms: N_7  and  C_36
    6  A    between atoms: N_7  and  C_53
    7  A    between atoms: C_10  and  C_11
    8  A    between atoms: C_10  and  C_47
    9  A    between atoms: C_11  and  N_25
   10  A    between atoms: C_15  and  N_30
   11  A    between atoms: C_17  and  C_58
   12  A    between atoms: C_20  and  C_35
   13  A    between atoms: C_21  and  C_39
   14  A    between atoms: C_28  and  C_56
   15  A    between atoms: C_29  and  O_51
   16  A    between atoms: N_30  and  C_35
   17  A    between atoms: C_35  and  N_42
   18  A    between atoms: N_42  and  N_55
                            x       y       z     vdW  Elec       q    Type
                         _______ _______ _______ _____ _____    ______ ____

>  <TORSDO>
F 18

$$$$
