=
 OpenBabel10222418453D

 41 45  0  0  1  0  0  0  0  0999 V2000
  185.0060  178.2300  138.8930 C   0  0  2  0  0  3  0  0  0  0  0  0
  185.7050  176.0000  134.5940 Cl  0  0  0  0  0  0  0  0  0  0  0  0
  185.9180  175.8740  136.3180 N   0  0  0  0  0  0  0  0  0  0  0  0
  188.2320  177.9530  137.2660 C   0  0  0  0  0  2  0  0  0  0  0  0
  186.9490  177.4400  137.9030 C   0  0  2  0  0  3  0  0  0  0  0  0
  183.5930  176.6230  137.6990 N   0  0  0  0  0  2  0  0  0  0  0  0
  185.8770  177.2480  136.8530 C   0  0  2  0  0  3  0  0  0  0  0  0
  184.2650  175.4440  138.0440 N   0  0  0  0  0  2  0  0  0  0  0  0
  186.4490  178.4350  138.8470 N   0  0  2  0  0  0  0  0  0  0  0  0
  188.4590  178.5200  140.2490 C   0  0  0  0  0  2  0  0  0  0  0  0
  189.4940  177.6200  138.0760 C   0  0  0  0  0  2  0  0  0  0  0  0
  186.9860  178.1340  140.1690 C   0  0  0  0  0  2  0  0  0  0  0  0
  184.8770  174.9610  136.8130 C   0  0  2  0  0  3  0  0  0  0  0  0
  189.3060  177.4360  139.5920 C   0  0  1  0  0  3  0  0  0  0  0  0
  184.5780  177.6930  137.5360 C   0  0  2  0  0  3  0  0  0  0  0  0
  184.2740  171.8210  136.6730 N   0  0  0  0  0  0  0  0  0  0  0  0
  184.5370  172.6950  137.6930 O   0  0  0  0  0  0  0  0  0  0  0  0
  185.0300  172.6280  135.7400 C   0  0  0  0  0  2  0  0  0  0  0  0
  185.3780  173.5010  136.9020 C   0  0  1  0  0  3  0  0  0  0  0  0
  181.7460  171.7390  137.5450 O   0  0  0  0  0  1  0  0  0  0  0  0
  182.1770  170.6700  135.2060 O   0  0  0  0  0  0  0  0  0  0  0  0
  182.5580  171.9150  136.2840 P   0  0  0  0  0  0  0  0  0  0  0  0
  182.1670  173.3970  135.5680 O   0  0  0  0  0  1  0  0  0  0  0  0
  190.6490  177.2700  140.2990 C   0  0  0  0  0  2  0  0  0  0  0  0
  190.3390  175.4840  142.5380 O   0  0  0  0  0  0  0  0  0  0  0  0
  190.5680  177.6580  141.7030 N   0  0  0  0  0  2  0  0  0  0  0  0
  190.3420  176.7250  142.7630 C   0  0  0  0  0  0  0  0  0  0  0  0
  190.0590  177.3120  144.3900 S   0  0  0  0  0  0  0  0  0  0  0  0
  191.1170  176.7650  145.3090 O   0  0  0  0  0  0  0  0  0  0  0  0
  190.1240  178.8150  144.3920 O   0  0  0  0  0  0  0  0  0  0  0  0
  188.4900  176.7990  144.9110 N   0  0  0  0  0  2  0  0  0  0  0  0
  187.5370  177.1670  143.8730 C   0  0  0  0  0  2  0  0  0  0  0  0
  186.4510  177.8430  146.0060 C   0  0  0  0  0  1  0  0  0  0  0  0
  186.3050  177.7950  144.4980 C   0  0  0  0  0  2  0  0  0  0  0  0
  184.3030  179.5490  139.1930 C   0  0  0  0  0  2  0  0  0  0  0  0
  180.8870  179.6830  140.5680 C   0  0  0  0  0  1  0  0  0  0  0  0
  181.9910  178.9320  139.8510 C   0  0  2  0  0  3  0  0  0  0  0  0
  183.4080  178.2610  142.3540 N   0  0  0  0  0  1  0  0  0  0  0  0
  182.2340  177.6610  140.5160 N   0  0  0  0  0  2  0  0  0  0  0  0
  183.5030  178.0850  140.9660 N   0  0  0  0  0  0  0  0  0  0  0  0
  183.3270  179.3920  140.3520 C   0  0  1  0  0  3  0  0  0  0  0  0
  1 35  1  6  0  0  0
  2  3  1  0  0  0  0
  3 13  1  0  0  0  0
  4 11  1  0  0  0  0
  5  4  1  6  0  0  0
  5  9  1  0  0  0  0
  6  8  1  0  0  0  0
  7  3  1  1  0  0  0
  7 15  1  0  0  0  0
  7  5  1  0  0  0  0
  9  1  1  0  0  0  0
  9 12  1  1  0  0  0
 11 14  1  0  0  0  0
 12 10  1  0  0  0  0
 13 19  1  0  0  0  0
 13  8  1  1  0  0  0
 14 10  1  0  0  0  0
 14 24  1  1  0  0  0
 15  6  1  1  0  0  0
 15  1  1  0  0  0  0
 16 17  1  0  0  0  0
 18 16  1  0  0  0  0
 19 18  1  6  0  0  0
 19 17  1  0  0  0  0
 21 22  2  0  0  0  0
 22 16  1  0  0  0  0
 22 20  1  0  0  0  0
 23 22  1  0  0  0  0
 24 26  1  0  0  0  0
 25 27  2  0  0  0  0
 26 27  1  0  0  0  0
 27 28  1  0  0  0  0
 28 30  2  0  0  0  0
 28 31  1  0  0  0  0
 28 29  2  0  0  0  0
 32 34  1  0  0  0  0
 32 31  1  0  0  0  0
 34 33  1  0  0  0  0
 37 41  1  0  0  0  0
 37 39  1  0  0  0  0
 37 36  1  1  0  0  0
 39 40  1  0  0  0  0
 40 38  1  0  0  0  0
 41 35  1  6  0  0  0
 41 40  1  0  0  0  0
M  END
>  <MODEL>
1

>  <REMARK>
 VINA RESULT:      -7.0      0.000      0.000
  Name = 
  10 active torsions:
  status: ('A' for Active; 'I' for Inactive)
    1  A    between atoms: C_1  and  C_30
    2  A    between atoms: S_7  and  N_21
    3  A    between atoms: S_7  and  C_41
    4  A    between atoms: N_10  and  P_29
    5  A    between atoms: N_16  and  C_18
    6  A    between atoms: C_18  and  C_37
    7  A    between atoms: N_21  and  C_40
    8  A    between atoms: C_24  and  C_40
    9  A    between atoms: C_30  and  C_34
   10  A    between atoms: C_36  and  C_39
                            x       y       z     vdW  Elec       q    Type
                         _______ _______ _______ _____ _____    ______ ____

>  <TORSDO>
F 10

$$$$
=
 OpenBabel10222418453D

 41 45  0  0  1  0  0  0  0  0999 V2000
  191.7110  175.0950  137.4870 C   0  0  2  0  0  3  0  0  0  0  0  0
  189.2210  179.2790  137.9730 Cl  0  0  0  0  0  0  0  0  0  0  0  0
  189.2660  177.5890  138.3920 N   0  0  0  0  0  0  0  0  0  0  0  0
  188.6130  175.8110  135.7480 C   0  0  0  0  0  2  0  0  0  0  0  0
  189.5120  175.6100  136.9590 C   0  0  2  0  0  3  0  0  0  0  0  0
  191.8270  176.8080  139.2350 N   0  0  0  0  0  2  0  0  0  0  0  0
  190.1220  176.9250  137.3900 C   0  0  2  0  0  3  0  0  0  0  0  0
  190.6990  176.4370  139.9780 N   0  0  0  0  0  2  0  0  0  0  0  0
  190.6150  174.7250  136.5980 N   0  0  2  0  0  0  0  0  0  0  0  0
  189.2290  172.8330  135.8840 C   0  0  0  0  0  2  0  0  0  0  0  0
  187.5260  174.7360  135.6070 C   0  0  0  0  0  2  0  0  0  0  0  0
  190.2320  173.3530  136.9080 C   0  0  0  0  0  2  0  0  0  0  0  0
  189.7270  177.5050  139.7860 C   0  0  2  0  0  3  0  0  0  0  0  0
  187.8390  173.3610  136.2200 C   0  0  1  0  0  3  0  0  0  0  0  0
  191.5520  176.5710  137.8180 C   0  0  2  0  0  3  0  0  0  0  0  0
  188.6680  177.4830  142.8060 N   0  0  0  0  0  0  0  0  0  0  0  0
  188.7680  176.5330  141.8250 O   0  0  0  0  0  0  0  0  0  0  0  0
  188.5400  178.5360  141.8210 C   0  0  0  0  0  2  0  0  0  0  0  0
  188.5500  177.4580  140.7860 C   0  0  1  0  0  3  0  0  0  0  0  0
  190.7300  176.2360  143.9700 O   0  0  0  0  0  1  0  0  0  0  0  0
  190.0260  178.5090  145.0380 O   0  0  0  0  0  1  0  0  0  0  0  0
  190.2270  177.6160  143.6160 P   0  0  0  0  0  0  0  0  0  0  0  0
  191.3680  178.3940  142.6390 O   0  0  0  0  0  0  0  0  0  0  0  0
  186.7540  172.3420  135.8740 C   0  0  0  0  0  2  0  0  0  0  0  0
  184.8250  172.9050  137.9370 O   0  0  0  0  0  0  0  0  0  0  0  0
  185.4570  172.9820  135.6850 N   0  0  0  0  0  2  0  0  0  0  0  0
  184.5140  173.1680  136.7430 C   0  0  0  0  0  0  0  0  0  0  0  0
  182.9060  173.7630  136.3780 S   0  0  0  0  0  0  0  0  0  0  0  0
  182.6500  173.6360  134.9000 O   0  0  0  0  0  0  0  0  0  0  0  0
  181.8930  172.9450  137.1320 O   0  0  0  0  0  0  0  0  0  0  0  0
  182.7920  175.4200  136.8630 N   0  0  0  0  0  2  0  0  0  0  0  0
  183.9960  176.0990  136.4030 C   0  0  0  0  0  2  0  0  0  0  0  0
  185.7370  177.7340  137.0990 C   0  0  0  0  0  1  0  0  0  0  0  0
  184.7320  176.7080  137.5830 C   0  0  0  0  0  2  0  0  0  0  0  0
  193.0470  174.8410  136.7980 C   0  0  0  0  0  2  0  0  0  0  0  0
  195.5470  172.3310  137.8100 C   0  0  0  0  0  1  0  0  0  0  0  0
  195.1770  173.5970  137.0630 C   0  0  2  0  0  3  0  0  0  0  0  0
  195.2840  175.2760  139.4910 N   0  0  0  0  0  1  0  0  0  0  0  0
  196.0690  174.6780  137.4550 N   0  0  0  0  0  2  0  0  0  0  0  0
  195.0260  175.3620  138.1150 N   0  0  0  0  0  0  0  0  0  0  0  0
  194.0760  174.3110  137.7880 C   0  0  1  0  0  3  0  0  0  0  0  0
  1 35  1  6  0  0  0
  1 15  1  0  0  0  0
  2  3  1  0  0  0  0
  3 13  1  0  0  0  0
  5  4  1  6  0  0  0
  5  7  1  0  0  0  0
  6  8  1  0  0  0  0
  7 15  1  0  0  0  0
  7  3  1  1  0  0  0
  9 12  1  1  0  0  0
  9  5  1  0  0  0  0
  9  1  1  0  0  0  0
 10 14  1  0  0  0  0
 10 12  1  0  0  0  0
 11  4  1  0  0  0  0
 11 14  1  0  0  0  0
 13  8  1  6  0  0  0
 13 19  1  0  0  0  0
 14 24  1  6  0  0  0
 15  6  1  1  0  0  0
 16 22  1  0  0  0  0
 17 16  1  0  0  0  0
 18 16  1  0  0  0  0
 19 18  1  1  0  0  0
 19 17  1  0  0  0  0
 22 20  1  0  0  0  0
 22 21  1  0  0  0  0
 23 22  2  0  0  0  0
 26 24  1  0  0  0  0
 26 27  1  0  0  0  0
 27 25  2  0  0  0  0
 28 27  1  0  0  0  0
 28 31  1  0  0  0  0
 28 30  2  0  0  0  0
 29 28  2  0  0  0  0
 32 31  1  0  0  0  0
 32 34  1  0  0  0  0
 33 34  1  0  0  0  0
 37 39  1  0  0  0  0
 37 41  1  0  0  0  0
 37 36  1  1  0  0  0
 39 40  1  0  0  0  0
 40 38  1  0  0  0  0
 41 35  1  6  0  0  0
 41 40  1  0  0  0  0
M  END
>  <MODEL>
2

>  <REMARK>
 VINA RESULT:      -6.5      4.269      9.595
  Name = 
  10 active torsions:
  status: ('A' for Active; 'I' for Inactive)
    1  A    between atoms: C_1  and  C_30
    2  A    between atoms: S_7  and  N_21
    3  A    between atoms: S_7  and  C_41
    4  A    between atoms: N_10  and  P_29
    5  A    between atoms: N_16  and  C_18
    6  A    between atoms: C_18  and  C_37
    7  A    between atoms: N_21  and  C_40
    8  A    between atoms: C_24  and  C_40
    9  A    between atoms: C_30  and  C_34
   10  A    between atoms: C_36  and  C_39
                            x       y       z     vdW  Elec       q    Type
                         _______ _______ _______ _____ _____    ______ ____

>  <TORSDO>
F 10

$$$$
=
 OpenBabel10222418453D

 41 45  0  0  1  0  0  0  0  0999 V2000
  184.4450  175.8570  136.9690 C   0  0  2  0  0  3  0  0  0  0  0  0
  188.0030  179.1510  136.3150 Cl  0  0  0  0  0  0  0  0  0  0  0  0
  187.2900  178.0250  137.4360 N   0  0  0  0  0  0  0  0  0  0  0  0
  184.4140  179.1740  138.4270 C   0  0  0  0  0  2  0  0  0  0  0  0
  184.9580  177.7780  138.1630 C   0  0  2  0  0  3  0  0  0  0  0  0
  186.7560  175.5560  136.2120 N   0  0  0  0  0  2  0  0  0  0  0  0
  185.9050  177.7930  136.9840 C   0  0  2  0  0  3  0  0  0  0  0  0
  187.3990  175.5990  137.4560 N   0  0  0  0  0  2  0  0  0  0  0  0
  183.8540  176.8900  137.8120 N   0  0  2  0  0  0  0  0  0  0  0  0
  182.5580  177.2360  139.8660 C   0  0  0  0  0  2  0  0  0  0  0  0
  183.9580  179.3900  139.8780 C   0  0  0  0  0  2  0  0  0  0  0  0
  183.3670  176.2500  139.0290 C   0  0  0  0  0  2  0  0  0  0  0  0
  188.1610  176.8400  137.4670 C   0  0  2  0  0  3  0  0  0  0  0  0
  183.5070  178.1370  140.6470 C   0  0  1  0  0  3  0  0  0  0  0  0
  185.6230  176.4820  136.2400 C   0  0  2  0  0  3  0  0  0  0  0  0
  190.9570  175.9070  138.7150 N   0  0  0  0  0  0  0  0  0  0  0  0
  189.6460  175.6420  139.0100 O   0  0  0  0  0  0  0  0  0  0  0  0
  190.6080  177.2030  138.1730 C   0  0  0  0  0  2  0  0  0  0  0  0
  189.2060  176.9160  138.6040 C   0  0  1  0  0  3  0  0  0  0  0  0
  192.8530  174.3150  137.7000 O   0  0  0  0  0  1  0  0  0  0  0  0
  191.4950  175.7140  135.9680 O   0  0  0  0  0  0  0  0  0  0  0  0
  191.4650  174.8360  137.4120 P   0  0  0  0  0  0  0  0  0  0  0  0
  190.4020  173.5310  137.2340 O   0  0  0  0  0  1  0  0  0  0  0  0
  182.9310  178.5050  142.0140 C   0  0  0  0  0  2  0  0  0  0  0  0
  182.5060  179.0010  144.8190 O   0  0  0  0  0  0  0  0  0  0  0  0
  183.9240  178.3560  143.0720 N   0  0  0  0  0  2  0  0  0  0  0  0
  183.6680  178.6880  144.4390 C   0  0  0  0  0  0  0  0  0  0  0  0
  184.9820  178.6670  145.5980 S   0  0  0  0  0  0  0  0  0  0  0  0
  185.5740  180.0460  145.7070 O   0  0  0  0  0  0  0  0  0  0  0  0
  184.4510  178.2440  146.9410 O   0  0  0  0  0  0  0  0  0  0  0  0
  186.1850  177.5410  145.0680 N   0  0  0  0  0  2  0  0  0  0  0  0
  187.4080  177.8220  145.8080 C   0  0  0  0  0  2  0  0  0  0  0  0
  188.1620  176.6500  143.7470 C   0  0  0  0  0  1  0  0  0  0  0  0
  188.6110  177.3130  145.0330 C   0  0  0  0  0  2  0  0  0  0  0  0
  183.4100  175.3430  135.9740 C   0  0  0  0  0  2  0  0  0  0  0  0
  185.2530  172.1930  136.4860 C   0  0  0  0  0  1  0  0  0  0  0  0
  184.1630  173.1650  136.8940 C   0  0  2  0  0  3  0  0  0  0  0  0
  182.2810  172.2010  134.8310 N   0  0  0  0  0  1  0  0  0  0  0  0
  182.8920  172.4640  136.9950 N   0  0  0  0  0  2  0  0  0  0  0  0
  182.3770  173.1410  135.8680 N   0  0  0  0  0  0  0  0  0  0  0  0
  183.6250  173.8630  135.6820 C   0  0  1  0  0  3  0  0  0  0  0  0
  1 35  1  6  0  0  0
  1  9  1  0  0  0  0
  2  3  1  0  0  0  0
  3 13  1  0  0  0  0
  4 11  1  0  0  0  0
  5  4  1  6  0  0  0
  6  8  1  0  0  0  0
  7  3  1  1  0  0  0
  7  5  1  0  0  0  0
  9  5  1  0  0  0  0
  9 12  1  1  0  0  0
 10 14  1  0  0  0  0
 11 14  1  0  0  0  0
 12 10  1  0  0  0  0
 13  8  1  1  0  0  0
 13 19  1  0  0  0  0
 14 24  1  1  0  0  0
 15  6  1  1  0  0  0
 15  1  1  0  0  0  0
 15  7  1  0  0  0  0
 16 17  1  0  0  0  0
 18 16  1  0  0  0  0
 19 18  1  6  0  0  0
 19 17  1  0  0  0  0
 21 22  2  0  0  0  0
 22 20  1  0  0  0  0
 22 16  1  0  0  0  0
 23 22  1  0  0  0  0
 24 26  1  0  0  0  0
 26 27  1  0  0  0  0
 27 25  2  0  0  0  0
 27 28  1  0  0  0  0
 28 29  2  0  0  0  0
 28 30  2  0  0  0  0
 31 28  1  0  0  0  0
 31 32  1  0  0  0  0
 33 34  1  0  0  0  0
 34 32  1  0  0  0  0
 37 36  1  6  0  0  0
 37 39  1  0  0  0  0
 38 40  1  0  0  0  0
 40 39  1  0  0  0  0
 41 40  1  0  0  0  0
 41 35  1  1  0  0  0
 41 37  1  0  0  0  0
M  END
>  <MODEL>
3

>  <REMARK>
 VINA RESULT:      -6.4      3.737      6.268
  Name = 
  10 active torsions:
  status: ('A' for Active; 'I' for Inactive)
    1  A    between atoms: C_1  and  C_30
    2  A    between atoms: S_7  and  N_21
    3  A    between atoms: S_7  and  C_41
    4  A    between atoms: N_10  and  P_29
    5  A    between atoms: N_16  and  C_18
    6  A    between atoms: C_18  and  C_37
    7  A    between atoms: N_21  and  C_40
    8  A    between atoms: C_24  and  C_40
    9  A    between atoms: C_30  and  C_34
   10  A    between atoms: C_36  and  C_39
                            x       y       z     vdW  Elec       q    Type
                         _______ _______ _______ _____ _____    ______ ____

>  <TORSDO>
F 10

$$$$
=
 OpenBabel10222418453D

 41 45  0  0  1  0  0  0  0  0999 V2000
  190.7610  175.7770  137.5430 C   0  0  2  0  0  3  0  0  0  0  0  0
  188.2340  179.1750  139.9950 Cl  0  0  0  0  0  0  0  0  0  0  0  0
  188.5840  177.4730  139.8660 N   0  0  0  0  0  0  0  0  0  0  0  0
  187.1940  176.2940  137.1730 C   0  0  0  0  0  2  0  0  0  0  0  0
  188.4820  175.9800  137.9190 C   0  0  2  0  0  3  0  0  0  0  0  0
  191.3370  177.0100  139.5810 N   0  0  0  0  0  2  0  0  0  0  0  0
  189.0810  177.2440  138.4960 C   0  0  2  0  0  3  0  0  0  0  0  0
  190.5910  176.2650  140.5030 N   0  0  0  0  0  2  0  0  0  0  0  0
  189.4590  175.4320  136.9840 N   0  0  2  0  0  0  0  0  0  0  0  0
  188.0920  173.5410  136.2320 C   0  0  0  0  0  2  0  0  0  0  0  0
  186.2340  175.0990  137.0790 C   0  0  0  0  0  2  0  0  0  0  0  0
  189.3430  173.9790  136.9860 C   0  0  0  0  0  2  0  0  0  0  0  0
  189.5200  177.1450  140.9510 C   0  0  2  0  0  3  0  0  0  0  0  0
  186.8720  173.7010  137.1320 C   0  0  1  0  0  3  0  0  0  0  0  0
  190.5950  177.0730  138.3220 C   0  0  2  0  0  3  0  0  0  0  0  0
  189.6030  176.3080  144.0390 N   0  0  0  0  0  0  0  0  0  0  0  0
  189.4990  175.6100  142.8660 O   0  0  0  0  0  0  0  0  0  0  0  0
  188.9750  177.4680  143.4440 C   0  0  0  0  0  2  0  0  0  0  0  0
  188.7900  176.6370  142.2160 C   0  0  1  0  0  3  0  0  0  0  0  0
  192.1120  175.3840  144.1320 O   0  0  0  0  0  1  0  0  0  0  0  0
  191.4820  177.1510  145.9450 O   0  0  0  0  0  1  0  0  0  0  0  0
  191.3050  176.6440  144.3420 P   0  0  0  0  0  0  0  0  0  0  0  0
  191.8870  177.8590  143.3180 O   0  0  0  0  0  0  0  0  0  0  0  0
  185.8360  172.6100  136.8700 C   0  0  0  0  0  2  0  0  0  0  0  0
  183.3830  171.1100  137.0380 O   0  0  0  0  0  0  0  0  0  0  0  0
  184.4870  173.1580  136.7930 N   0  0  0  0  0  2  0  0  0  0  0  0
  183.3090  172.3480  136.8120 C   0  0  0  0  0  0  0  0  0  0  0  0
  181.7460  173.0820  136.5110 S   0  0  0  0  0  0  0  0  0  0  0  0
  181.1610  172.5130  135.2470 O   0  0  0  0  0  0  0  0  0  0  0  0
  180.8280  172.7810  137.6650 O   0  0  0  0  0  0  0  0  0  0  0  0
  181.9450  174.7940  136.3590 N   0  0  0  0  0  2  0  0  0  0  0  0
  181.5890  175.3950  137.6380 C   0  0  0  0  0  2  0  0  0  0  0  0
  182.4780  176.3570  139.7520 C   0  0  0  0  0  1  0  0  0  0  0  0
  182.8450  175.7480  138.4140 C   0  0  0  0  0  2  0  0  0  0  0  0
  191.7790  175.9530  136.4210 C   0  0  0  0  0  2  0  0  0  0  0  0
  194.6360  173.8640  135.3940 C   0  0  0  0  0  1  0  0  0  0  0  0
  193.9860  175.2250  135.5530 C   0  0  2  0  0  3  0  0  0  0  0  0
  194.6230  175.3940  138.4320 N   0  0  0  0  0  1  0  0  0  0  0  0
  194.8700  176.1080  136.2990 N   0  0  0  0  0  2  0  0  0  0  0  0
  193.9970  176.1200  137.4080 N   0  0  0  0  0  0  0  0  0  0  0  0
  193.0730  175.2160  136.7410 C   0  0  1  0  0  3  0  0  0  0  0  0
  1 35  1  6  0  0  0
  1 15  1  0  0  0  0
  3  2  1  0  0  0  0
  3 13  1  0  0  0  0
  5  4  1  6  0  0  0
  5  7  1  0  0  0  0
  6  8  1  0  0  0  0
  7  3  1  1  0  0  0
  9 12  1  1  0  0  0
  9  1  1  0  0  0  0
  9  5  1  0  0  0  0
 10 12  1  0  0  0  0
 10 14  1  0  0  0  0
 11 14  1  0  0  0  0
 11  4  1  0  0  0  0
 13  8  1  6  0  0  0
 13 19  1  0  0  0  0
 14 24  1  6  0  0  0
 15  7  1  0  0  0  0
 15  6  1  1  0  0  0
 16 22  1  0  0  0  0
 17 16  1  0  0  0  0
 18 16  1  0  0  0  0
 19 17  1  0  0  0  0
 19 18  1  1  0  0  0
 20 22  1  0  0  0  0
 22 21  1  0  0  0  0
 23 22  2  0  0  0  0
 26 27  1  0  0  0  0
 26 24  1  0  0  0  0
 27 25  2  0  0  0  0
 28 27  1  0  0  0  0
 28 30  2  0  0  0  0
 29 28  2  0  0  0  0
 31 28  1  0  0  0  0
 31 32  1  0  0  0  0
 32 34  1  0  0  0  0
 34 33  1  0  0  0  0
 37 36  1  1  0  0  0
 37 39  1  0  0  0  0
 37 41  1  0  0  0  0
 39 40  1  0  0  0  0
 40 38  1  0  0  0  0
 41 35  1  6  0  0  0
 41 40  1  0  0  0  0
M  END
>  <MODEL>
4

>  <REMARK>
 VINA RESULT:      -6.3      4.193      9.608
  Name = 
  10 active torsions:
  status: ('A' for Active; 'I' for Inactive)
    1  A    between atoms: C_1  and  C_30
    2  A    between atoms: S_7  and  N_21
    3  A    between atoms: S_7  and  C_41
    4  A    between atoms: N_10  and  P_29
    5  A    between atoms: N_16  and  C_18
    6  A    between atoms: C_18  and  C_37
    7  A    between atoms: N_21  and  C_40
    8  A    between atoms: C_24  and  C_40
    9  A    between atoms: C_30  and  C_34
   10  A    between atoms: C_36  and  C_39
                            x       y       z     vdW  Elec       q    Type
                         _______ _______ _______ _____ _____    ______ ____

>  <TORSDO>
F 10

$$$$
=
 OpenBabel10222418453D

 41 45  0  0  1  0  0  0  0  0999 V2000
  189.2700  176.7740  138.7300 C   0  0  2  0  0  3  0  0  0  0  0  0
  193.8470  177.0450  137.0230 Cl  0  0  0  0  0  0  0  0  0  0  0  0
  192.7530  176.1440  138.0360 N   0  0  0  0  0  0  0  0  0  0  0  0
  192.0970  177.8750  140.7110 C   0  0  0  0  0  2  0  0  0  0  0  0
  191.2930  176.9060  139.8560 C   0  0  2  0  0  3  0  0  0  0  0  0
  190.2880  175.7230  136.7640 N   0  0  0  0  0  2  0  0  0  0  0  0
  191.6550  177.0610  138.3960 C   0  0  2  0  0  3  0  0  0  0  0  0
  190.9410  174.6600  137.4000 N   0  0  0  0  0  2  0  0  0  0  0  0
  189.8730  177.2220  139.9800 N   0  0  2  0  0  0  0  0  0  0  0  0
  189.7440  176.9670  142.4160 C   0  0  0  0  0  2  0  0  0  0  0  0
  192.2610  177.4170  142.1670 C   0  0  0  0  0  2  0  0  0  0  0  0
  189.3100  176.4190  141.0600 C   0  0  0  0  0  2  0  0  0  0  0  0
  192.3650  174.9420  137.2840 C   0  0  2  0  0  3  0  0  0  0  0  0
  191.1610  176.4970  142.7240 C   0  0  1  0  0  3  0  0  0  0  0  0
  190.3280  176.8910  137.6450 C   0  0  2  0  0  3  0  0  0  0  0  0
  195.0490  173.2720  136.7790 N   0  0  0  0  0  0  0  0  0  0  0  0
  193.7310  173.0750  136.4630 O   0  0  0  0  0  0  0  0  0  0  0  0
  194.6880  174.0550  137.9410 C   0  0  0  0  0  2  0  0  0  0  0  0
  193.2650  173.7310  137.6190 C   0  0  1  0  0  3  0  0  0  0  0  0
  194.6760  174.8930  134.6840 O   0  0  0  0  0  1  0  0  0  0  0  0
  196.8120  173.3990  134.6000 O   0  0  0  0  0  0  0  0  0  0  0  0
  195.7660  174.3200  135.5570 P   0  0  0  0  0  0  0  0  0  0  0  0
  196.6420  175.5830  136.2640 O   0  0  0  0  0  1  0  0  0  0  0  0
  191.3550  176.2460  144.2180 C   0  0  0  0  0  2  0  0  0  0  0  0
  191.4720  176.9830  147.0000 O   0  0  0  0  0  0  0  0  0  0  0  0
  190.2640  176.8120  145.0030 N   0  0  0  0  0  2  0  0  0  0  0  0
  190.3670  177.0900  146.4020 C   0  0  0  0  0  0  0  0  0  0  0  0
  188.9420  177.5790  147.2970 S   0  0  0  0  0  0  0  0  0  0  0  0
  188.3170  176.3720  147.9410 O   0  0  0  0  0  0  0  0  0  0  0  0
  189.3400  178.5640  148.3630 O   0  0  0  0  0  0  0  0  0  0  0  0
  187.8190  178.3240  146.2100 N   0  0  0  0  0  2  0  0  0  0  0  0
  186.5640  177.5900  146.3000 C   0  0  0  0  0  2  0  0  0  0  0  0
  186.4610  177.8560  143.8280 C   0  0  0  0  0  1  0  0  0  0  0  0
  185.6730  177.9380  145.1200 C   0  0  0  0  0  2  0  0  0  0  0  0
  188.0610  177.6420  138.3960 C   0  0  0  0  0  2  0  0  0  0  0  0
  184.5870  176.7170  137.5870 C   0  0  0  0  0  1  0  0  0  0  0  0
  185.7760  177.6450  137.4300 C   0  0  2  0  0  3  0  0  0  0  0  0
  187.1270  175.8800  135.4850 N   0  0  0  0  0  1  0  0  0  0  0  0
  186.0840  177.8160  136.0180 N   0  0  0  0  0  2  0  0  0  0  0  0
  187.2960  177.1040  136.1490 N   0  0  0  0  0  0  0  0  0  0  0  0
  187.0490  176.8660  137.5620 C   0  0  1  0  0  3  0  0  0  0  0  0
  1 35  1  6  0  0  0
  1  9  1  0  0  0  0
  2  3  1  0  0  0  0
  4 11  1  0  0  0  0
  5  9  1  0  0  0  0
  5  4  1  1  0  0  0
  6  8  1  0  0  0  0
  7  3  1  6  0  0  0
  7  5  1  0  0  0  0
  9 12  1  1  0  0  0
 10 14  1  0  0  0  0
 11 14  1  0  0  0  0
 12 10  1  0  0  0  0
 13  8  1  1  0  0  0
 13 19  1  0  0  0  0
 13  3  1  0  0  0  0
 14 24  1  1  0  0  0
 15  6  1  1  0  0  0
 15  7  1  0  0  0  0
 15  1  1  0  0  0  0
 16 18  1  0  0  0  0
 17 16  1  0  0  0  0
 17 19  1  0  0  0  0
 19 18  1  6  0  0  0
 20 22  1  0  0  0  0
 21 22  2  0  0  0  0
 22 23  1  0  0  0  0
 22 16  1  0  0  0  0
 24 26  1  0  0  0  0
 26 27  1  0  0  0  0
 27 25  2  0  0  0  0
 27 28  1  0  0  0  0
 28 29  2  0  0  0  0
 28 30  2  0  0  0  0
 31 32  1  0  0  0  0
 31 28  1  0  0  0  0
 33 34  1  0  0  0  0
 34 32  1  0  0  0  0
 37 41  1  0  0  0  0
 37 36  1  6  0  0  0
 38 40  1  0  0  0  0
 39 40  1  0  0  0  0
 39 37  1  0  0  0  0
 40 41  1  0  0  0  0
 41 35  1  1  0  0  0
M  END
>  <MODEL>
5

>  <REMARK>
 VINA RESULT:      -5.9      5.199      7.012
  Name = 
  10 active torsions:
  status: ('A' for Active; 'I' for Inactive)
    1  A    between atoms: C_1  and  C_30
    2  A    between atoms: S_7  and  N_21
    3  A    between atoms: S_7  and  C_41
    4  A    between atoms: N_10  and  P_29
    5  A    between atoms: N_16  and  C_18
    6  A    between atoms: C_18  and  C_37
    7  A    between atoms: N_21  and  C_40
    8  A    between atoms: C_24  and  C_40
    9  A    between atoms: C_30  and  C_34
   10  A    between atoms: C_36  and  C_39
                            x       y       z     vdW  Elec       q    Type
                         _______ _______ _______ _____ _____    ______ ____

>  <TORSDO>
F 10

$$$$
=
 OpenBabel10222418453D

 41 45  0  0  1  0  0  0  0  0999 V2000
  184.2830  178.3920  138.9510 C   0  0  2  0  0  3  0  0  0  0  0  0
  184.9280  176.2400  134.6050 Cl  0  0  0  0  0  0  0  0  0  0  0  0
  185.1550  176.0790  136.3240 N   0  0  0  0  0  0  0  0  0  0  0  0
  187.4930  178.1230  137.2920 C   0  0  0  0  0  2  0  0  0  0  0  0
  186.2110  177.6070  137.9290 C   0  0  2  0  0  3  0  0  0  0  0  0
  182.8480  176.8190  137.7390 N   0  0  0  0  0  2  0  0  0  0  0  0
  185.1290  177.4430  136.8860 C   0  0  2  0  0  3  0  0  0  0  0  0
  183.5140  175.6280  138.0560 N   0  0  0  0  0  2  0  0  0  0  0  0
  185.7280  178.5880  138.8960 N   0  0  2  0  0  0  0  0  0  0  0  0
  187.7500  178.6310  140.2820 C   0  0  0  0  0  2  0  0  0  0  0  0
  188.7590  177.7650  138.0840 C   0  0  0  0  0  2  0  0  0  0  0  0
  186.2730  178.2570  140.2080 C   0  0  0  0  0  2  0  0  0  0  0  0
  184.1120  175.1640  136.8110 C   0  0  2  0  0  3  0  0  0  0  0  0
  188.5830  177.5540  139.5970 C   0  0  1  0  0  3  0  0  0  0  0  0
  183.8390  177.8840  137.5890 C   0  0  2  0  0  3  0  0  0  0  0  0
  183.4870  172.0320  136.6030 N   0  0  0  0  0  0  0  0  0  0  0  0
  183.7570  172.8820  137.6420 O   0  0  0  0  0  0  0  0  0  0  0  0
  184.2480  172.8550  135.6870 C   0  0  0  0  0  2  0  0  0  0  0  0
  184.6030  173.7000  136.8680 C   0  0  1  0  0  3  0  0  0  0  0  0
  181.3660  170.9640  135.3710 O   0  0  0  0  0  1  0  0  0  0  0  0
  181.5060  173.5690  135.3420 O   0  0  0  0  0  0  0  0  0  0  0  0
  181.7710  172.1470  136.2180 P   0  0  0  0  0  0  0  0  0  0  0  0
  180.8240  172.1840  137.6200 O   0  0  0  0  0  1  0  0  0  0  0  0
  189.9310  177.3640  140.2900 C   0  0  0  0  0  2  0  0  0  0  0  0
  192.0440  177.1020  142.2300 O   0  0  0  0  0  0  0  0  0  0  0  0
  189.9040  177.8610  141.6610 N   0  0  0  0  0  2  0  0  0  0  0  0
  190.9610  177.6350  142.5970 C   0  0  0  0  0  0  0  0  0  0  0  0
  190.7480  178.0960  144.2740 S   0  0  0  0  0  0  0  0  0  0  0  0
  191.6300  177.2430  145.1440 O   0  0  0  0  0  0  0  0  0  0  0  0
  191.1300  179.5420  144.4430 O   0  0  0  0  0  0  0  0  0  0  0  0
  189.0870  177.8810  144.7140 N   0  0  0  0  0  2  0  0  0  0  0  0
  189.0550  177.1350  145.9650 C   0  0  0  0  0  2  0  0  0  0  0  0
  188.3080  177.1750  148.3380 C   0  0  0  0  0  1  0  0  0  0  0  0
  188.3900  177.9670  147.0480 C   0  0  0  0  0  2  0  0  0  0  0  0
  183.5920  179.7100  139.2830 C   0  0  0  0  0  2  0  0  0  0  0  0
  180.1210  178.5500  139.7070 C   0  0  0  0  0  1  0  0  0  0  0  0
  181.2340  179.5250  140.0330 C   0  0  2  0  0  3  0  0  0  0  0  0
  180.8400  181.0820  137.5530 N   0  0  0  0  0  1  0  0  0  0  0  0
  180.7760  180.8880  139.8070 N   0  0  0  0  0  2  0  0  0  0  0  0
  181.6420  181.0460  138.7040 N   0  0  0  0  0  0  0  0  0  0  0  0
  182.1340  179.6850  138.8450 C   0  0  1  0  0  3  0  0  0  0  0  0
  1 35  1  6  0  0  0
  2  3  1  0  0  0  0
  3 13  1  0  0  0  0
  4 11  1  0  0  0  0
  5  4  1  6  0  0  0
  5  9  1  0  0  0  0
  6  8  1  0  0  0  0
  7  3  1  1  0  0  0
  7 15  1  0  0  0  0
  7  5  1  0  0  0  0
  9  1  1  0  0  0  0
  9 12  1  1  0  0  0
 11 14  1  0  0  0  0
 12 10  1  0  0  0  0
 13 19  1  0  0  0  0
 13  8  1  1  0  0  0
 14 10  1  0  0  0  0
 14 24  1  1  0  0  0
 15  6  1  1  0  0  0
 15  1  1  0  0  0  0
 16 17  1  0  0  0  0
 18 16  1  0  0  0  0
 19 18  1  6  0  0  0
 19 17  1  0  0  0  0
 20 22  1  0  0  0  0
 21 22  2  0  0  0  0
 22 16  1  0  0  0  0
 22 23  1  0  0  0  0
 24 26  1  0  0  0  0
 25 27  2  0  0  0  0
 26 27  1  0  0  0  0
 27 28  1  0  0  0  0
 28 30  2  0  0  0  0
 28 31  1  0  0  0  0
 28 29  2  0  0  0  0
 31 32  1  0  0  0  0
 32 34  1  0  0  0  0
 34 33  1  0  0  0  0
 37 36  1  6  0  0  0
 38 40  1  0  0  0  0
 39 37  1  0  0  0  0
 40 41  1  0  0  0  0
 40 39  1  0  0  0  0
 41 35  1  1  0  0  0
 41 37  1  0  0  0  0
M  END
>  <MODEL>
6

>  <REMARK>
 VINA RESULT:      -5.9      1.589      1.907
  Name = 
  10 active torsions:
  status: ('A' for Active; 'I' for Inactive)
    1  A    between atoms: C_1  and  C_30
    2  A    between atoms: S_7  and  N_21
    3  A    between atoms: S_7  and  C_41
    4  A    between atoms: N_10  and  P_29
    5  A    between atoms: N_16  and  C_18
    6  A    between atoms: C_18  and  C_37
    7  A    between atoms: N_21  and  C_40
    8  A    between atoms: C_24  and  C_40
    9  A    between atoms: C_30  and  C_34
   10  A    between atoms: C_36  and  C_39
                            x       y       z     vdW  Elec       q    Type
                         _______ _______ _______ _____ _____    ______ ____

>  <TORSDO>
F 10

$$$$
=
 OpenBabel10222418453D

 41 45  0  0  1  0  0  0  0  0999 V2000
  190.1850  176.5340  137.9100 C   0  0  2  0  0  3  0  0  0  0  0  0
  188.3650  179.7670  141.1000 Cl  0  0  0  0  0  0  0  0  0  0  0  0
  188.3440  178.1030  140.5870 N   0  0  0  0  0  0  0  0  0  0  0  0
  186.8280  177.8860  137.7180 C   0  0  0  0  0  2  0  0  0  0  0  0
  187.9910  177.1410  138.3560 C   0  0  2  0  0  3  0  0  0  0  0  0
  190.9410  177.1260  140.1650 N   0  0  0  0  0  2  0  0  0  0  0  0
  188.8280  178.0820  139.1930 C   0  0  2  0  0  3  0  0  0  0  0  0
  190.0200  176.3750  140.9060 N   0  0  0  0  0  2  0  0  0  0  0  0
  188.8590  176.6150  137.3070 N   0  0  2  0  0  0  0  0  0  0  0  0
  187.1430  175.2840  136.1680 C   0  0  0  0  0  2  0  0  0  0  0  0
  185.6360  176.9810  137.3720 C   0  0  0  0  0  2  0  0  0  0  0  0
  188.4310  175.2590  136.9840 C   0  0  0  0  0  2  0  0  0  0  0  0
  189.1490  177.3450  141.5570 C   0  0  2  0  0  3  0  0  0  0  0  0
  185.9560  175.5020  137.0990 C   0  0  1  0  0  3  0  0  0  0  0  0
  190.2750  177.6280  138.9630 C   0  0  2  0  0  3  0  0  0  0  0  0
  188.6970  176.7340  144.6660 N   0  0  0  0  0  0  0  0  0  0  0  0
  189.0400  175.9670  143.5850 O   0  0  0  0  0  0  0  0  0  0  0  0
  187.9710  177.6590  143.8210 C   0  0  0  0  0  2  0  0  0  0  0  0
  188.2820  176.7400  142.6850 C   0  0  1  0  0  3  0  0  0  0  0  0
  189.9420  177.8900  146.7320 O   0  0  0  0  0  1  0  0  0  0  0  0
  190.4430  178.9130  144.3850 O   0  0  0  0  0  0  0  0  0  0  0  0
  190.1510  177.5110  145.2850 P   0  0  0  0  0  0  0  0  0  0  0  0
  191.4970  176.4930  145.1610 O   0  0  0  0  0  1  0  0  0  0  0  0
  184.7180  174.7490  136.6130 C   0  0  0  0  0  2  0  0  0  0  0  0
  182.2910  173.3220  137.2200 O   0  0  0  0  0  0  0  0  0  0  0  0
  183.4920  175.3290  137.1500 N   0  0  0  0  0  2  0  0  0  0  0  0
  182.2960  174.5750  137.3630 C   0  0  0  0  0  0  0  0  0  0  0  0
  180.8200  175.4010  137.8200 S   0  0  0  0  0  0  0  0  0  0  0  0
  179.9930  175.6640  136.5910 O   0  0  0  0  0  0  0  0  0  0  0  0
  180.0400  174.5320  138.7690 O   0  0  0  0  0  0  0  0  0  0  0  0
  181.2240  176.8930  138.5990 N   0  0  0  0  0  2  0  0  0  0  0  0
  181.9310  176.5710  139.8310 C   0  0  0  0  0  2  0  0  0  0  0  0
  183.0230  178.7480  139.3250 C   0  0  0  0  0  1  0  0  0  0  0  0
  182.5360  177.8290  140.4280 C   0  0  0  0  0  2  0  0  0  0  0  0
  191.2550  176.7290  136.8410 C   0  0  0  0  0  2  0  0  0  0  0  0
  193.7510  174.2220  135.8110 C   0  0  0  0  0  1  0  0  0  0  0  0
  193.2800  175.6610  135.8850 C   0  0  2  0  0  3  0  0  0  0  0  0
  194.1770  176.0010  138.6790 N   0  0  0  0  0  1  0  0  0  0  0  0
  194.3210  176.4900  136.4740 N   0  0  0  0  0  2  0  0  0  0  0  0
  193.5540  176.7070  137.6390 N   0  0  0  0  0  0  0  0  0  0  0  0
  192.4770  175.8690  137.1340 C   0  0  1  0  0  3  0  0  0  0  0  0
  1 35  1  6  0  0  0
  1 15  1  0  0  0  0
  3  2  1  0  0  0  0
  3 13  1  0  0  0  0
  5  4  1  6  0  0  0
  5  7  1  0  0  0  0
  6  8  1  0  0  0  0
  7  3  1  1  0  0  0
  9 12  1  1  0  0  0
  9  1  1  0  0  0  0
  9  5  1  0  0  0  0
 10 12  1  0  0  0  0
 10 14  1  0  0  0  0
 11  4  1  0  0  0  0
 13  8  1  6  0  0  0
 13 19  1  0  0  0  0
 14 24  1  6  0  0  0
 14 11  1  0  0  0  0
 15  7  1  0  0  0  0
 15  6  1  1  0  0  0
 16 22  1  0  0  0  0
 17 16  1  0  0  0  0
 18 16  1  0  0  0  0
 19 17  1  0  0  0  0
 19 18  1  1  0  0  0
 21 22  2  0  0  0  0
 22 20  1  0  0  0  0
 23 22  1  0  0  0  0
 24 26  1  0  0  0  0
 25 27  2  0  0  0  0
 26 27  1  0  0  0  0
 27 28  1  0  0  0  0
 28 31  1  0  0  0  0
 28 30  2  0  0  0  0
 29 28  2  0  0  0  0
 31 32  1  0  0  0  0
 32 34  1  0  0  0  0
 33 34  1  0  0  0  0
 37 36  1  1  0  0  0
 37 39  1  0  0  0  0
 37 41  1  0  0  0  0
 39 40  1  0  0  0  0
 40 38  1  0  0  0  0
 41 35  1  6  0  0  0
 41 40  1  0  0  0  0
M  END
>  <MODEL>
7

>  <REMARK>
 VINA RESULT:      -5.9      3.953      9.253
  Name = 
  10 active torsions:
  status: ('A' for Active; 'I' for Inactive)
    1  A    between atoms: C_1  and  C_30
    2  A    between atoms: S_7  and  N_21
    3  A    between atoms: S_7  and  C_41
    4  A    between atoms: N_10  and  P_29
    5  A    between atoms: N_16  and  C_18
    6  A    between atoms: C_18  and  C_37
    7  A    between atoms: N_21  and  C_40
    8  A    between atoms: C_24  and  C_40
    9  A    between atoms: C_30  and  C_34
   10  A    between atoms: C_36  and  C_39
                            x       y       z     vdW  Elec       q    Type
                         _______ _______ _______ _____ _____    ______ ____

>  <TORSDO>
F 10

$$$$
=
 OpenBabel10222418453D

 41 45  0  0  1  0  0  0  0  0999 V2000
  191.3610  177.6740  140.2050 C   0  0  2  0  0  3  0  0  0  0  0  0
  193.0300  173.7810  137.7560 Cl  0  0  0  0  0  0  0  0  0  0  0  0
  192.4390  175.4130  137.6090 N   0  0  0  0  0  0  0  0  0  0  0  0
  189.2530  175.4620  138.2580 C   0  0  0  0  0  2  0  0  0  0  0  0
  190.3930  176.4400  138.4960 C   0  0  2  0  0  3  0  0  0  0  0  0
  193.6380  177.1120  139.4930 N   0  0  0  0  0  2  0  0  0  0  0  0
  191.6670  175.6970  138.8330 C   0  0  2  0  0  3  0  0  0  0  0  0
  193.5490  177.5030  138.1510 N   0  0  0  0  0  2  0  0  0  0  0  0
  190.0730  177.2820  139.6450 N   0  0  2  0  0  0  0  0  0  0  0  0
  187.9730  178.1800  138.7520 C   0  0  0  0  0  2  0  0  0  0  0  0
  188.1390  176.0250  137.3630 C   0  0  0  0  0  2  0  0  0  0  0  0
  189.4070  178.4880  139.1670 C   0  0  0  0  0  2  0  0  0  0  0  0
  193.6090  176.2720  137.3740 C   0  0  2  0  0  3  0  0  0  0  0  0
  187.9680  177.5540  137.3630 C   0  0  1  0  0  3  0  0  0  0  0  0
  192.3480  176.5570  139.9050 C   0  0  2  0  0  3  0  0  0  0  0  0
  195.5460  176.0380  134.8370 N   0  0  0  0  0  0  0  0  0  0  0  0
  195.1300  177.0780  135.6240 O   0  0  0  0  0  0  0  0  0  0  0  0
  194.3260  175.3050  135.1010 C   0  0  0  0  0  2  0  0  0  0  0  0
  193.8680  176.5030  135.8680 C   0  0  1  0  0  3  0  0  0  0  0  0
  198.1700  176.0120  135.3580 O   0  0  0  0  0  1  0  0  0  0  0  0
  197.0580  173.6800  135.0030 O   0  0  0  0  0  0  0  0  0  0  0  0
  196.9010  175.2410  135.6330 P   0  0  0  0  0  0  0  0  0  0  0  0
  196.6600  175.1330  137.3040 O   0  0  0  0  0  1  0  0  0  0  0  0
  186.7340  177.9720  136.5650 C   0  0  0  0  0  2  0  0  0  0  0  0
  184.4270  176.9010  137.9160 O   0  0  0  0  0  0  0  0  0  0  0  0
  185.7940  178.7250  137.3870 N   0  0  0  0  0  2  0  0  0  0  0  0
  184.6260  178.1450  137.9730 C   0  0  0  0  0  0  0  0  0  0  0  0
  183.4540  179.1730  138.7730 S   0  0  0  0  0  0  0  0  0  0  0  0
  184.0920  180.4950  139.1030 O   0  0  0  0  0  0  0  0  0  0  0  0
  182.2840  179.4000  137.8540 O   0  0  0  0  0  0  0  0  0  0  0  0
  182.9120  178.3940  140.2200 N   0  0  0  0  0  2  0  0  0  0  0  0
  184.0820  178.1370  141.0490 C   0  0  0  0  0  2  0  0  0  0  0  0
  185.1190  179.1590  143.0660 C   0  0  0  0  0  1  0  0  0  0  0  0
  183.8340  178.6250  142.4640 C   0  0  0  0  0  2  0  0  0  0  0  0
  191.2310  177.8860  141.7090 C   0  0  0  0  0  2  0  0  0  0  0  0
  191.7010  175.0130  143.9680 C   0  0  0  0  0  1  0  0  0  0  0  0
  191.3370  176.4670  143.7420 C   0  0  2  0  0  3  0  0  0  0  0  0
  188.5980  175.8280  142.8400 N   0  0  0  0  0  1  0  0  0  0  0  0
  190.0350  176.7450  144.3290 N   0  0  0  0  0  2  0  0  0  0  0  0
  189.4480  176.9230  143.0570 N   0  0  0  0  0  0  0  0  0  0  0  0
  190.7080  176.6290  142.3910 C   0  0  1  0  0  3  0  0  0  0  0  0
  1 35  1  1  0  0  0
  3  2  1  0  0  0  0
  5  4  1  1  0  0  0
  5  7  1  0  0  0  0
  5  9  1  0  0  0  0
  7  3  1  6  0  0  0
  7 15  1  0  0  0  0
  8  6  1  0  0  0  0
  9 12  1  6  0  0  0
  9  1  1  0  0  0  0
 10 12  1  0  0  0  0
 11 14  1  0  0  0  0
 11  4  1  0  0  0  0
 13  3  1  0  0  0  0
 13  8  1  1  0  0  0
 14 24  1  1  0  0  0
 14 10  1  0  0  0  0
 15  6  1  6  0  0  0
 15  1  1  0  0  0  0
 16 18  1  0  0  0  0
 16 17  1  0  0  0  0
 16 22  1  0  0  0  0
 17 19  1  0  0  0  0
 19 18  1  6  0  0  0
 19 13  1  0  0  0  0
 20 22  1  0  0  0  0
 21 22  2  0  0  0  0
 22 23  1  0  0  0  0
 24 26  1  0  0  0  0
 25 27  2  0  0  0  0
 26 27  1  0  0  0  0
 27 28  1  0  0  0  0
 28 29  2  0  0  0  0
 28 31  1  0  0  0  0
 30 28  2  0  0  0  0
 31 32  1  0  0  0  0
 32 34  1  0  0  0  0
 34 33  1  0  0  0  0
 37 36  1  6  0  0  0
 37 39  1  0  0  0  0
 38 40  1  0  0  0  0
 40 39  1  0  0  0  0
 41 35  1  1  0  0  0
 41 40  1  0  0  0  0
 41 37  1  0  0  0  0
M  END
>  <MODEL>
8

>  <REMARK>
 VINA RESULT:      -5.5      5.258      8.717
  Name = 
  10 active torsions:
  status: ('A' for Active; 'I' for Inactive)
    1  A    between atoms: C_1  and  C_30
    2  A    between atoms: S_7  and  N_21
    3  A    between atoms: S_7  and  C_41
    4  A    between atoms: N_10  and  P_29
    5  A    between atoms: N_16  and  C_18
    6  A    between atoms: C_18  and  C_37
    7  A    between atoms: N_21  and  C_40
    8  A    between atoms: C_24  and  C_40
    9  A    between atoms: C_30  and  C_34
   10  A    between atoms: C_36  and  C_39
                            x       y       z     vdW  Elec       q    Type
                         _______ _______ _______ _____ _____    ______ ____

>  <TORSDO>
F 10

$$$$
=
 OpenBabel10222418453D

 41 45  0  0  1  0  0  0  0  0999 V2000
  190.1700  176.6040  137.8800 C   0  0  2  0  0  3  0  0  0  0  0  0
  188.6530  179.8400  141.2220 Cl  0  0  0  0  0  0  0  0  0  0  0  0
  188.4800  178.2100  140.6330 N   0  0  0  0  0  0  0  0  0  0  0  0
  186.9520  178.2660  137.7620 C   0  0  0  0  0  2  0  0  0  0  0  0
  188.0410  177.3880  138.3610 C   0  0  2  0  0  3  0  0  0  0  0  0
  190.9750  177.0180  140.1570 N   0  0  0  0  0  2  0  0  0  0  0  0
  188.9600  178.2090  139.2380 C   0  0  2  0  0  3  0  0  0  0  0  0
  189.9880  176.3220  140.8670 N   0  0  0  0  0  2  0  0  0  0  0  0
  188.8580  176.8350  137.2860 N   0  0  2  0  0  0  0  0  0  0  0  0
  187.0280  175.7210  136.0930 C   0  0  0  0  0  2  0  0  0  0  0  0
  185.6830  177.4920  137.3790 C   0  0  0  0  0  2  0  0  0  0  0  0
  188.3080  175.5400  136.9020 C   0  0  0  0  0  2  0  0  0  0  0  0
  189.2100  177.3370  141.5640 C   0  0  2  0  0  3  0  0  0  0  0  0
  185.8650  176.0040  137.0370 C   0  0  1  0  0  3  0  0  0  0  0  0
  190.3600  177.6350  138.9820 C   0  0  2  0  0  3  0  0  0  0  0  0
  188.6390  176.7580  144.6590 N   0  0  0  0  0  0  0  0  0  0  0  0
  188.9960  175.9750  143.5940 O   0  0  0  0  0  0  0  0  0  0  0  0
  187.9670  177.6970  143.7870 C   0  0  0  0  0  2  0  0  0  0  0  0
  188.2900  176.7630  142.6660 C   0  0  1  0  0  3  0  0  0  0  0  0
  191.2320  176.5090  145.2650 O   0  0  0  0  0  1  0  0  0  0  0  0
  189.8040  177.9120  146.9360 O   0  0  0  0  0  1  0  0  0  0  0  0
  190.0930  177.4990  145.3220 P   0  0  0  0  0  0  0  0  0  0  0  0
  190.5200  178.8950  144.4690 O   0  0  0  0  0  0  0  0  0  0  0  0
  184.5640  175.3920  136.5210 C   0  0  0  0  0  2  0  0  0  0  0  0
  182.8700  175.2530  138.8460 O   0  0  0  0  0  0  0  0  0  0  0  0
  183.4190  176.2500  136.8020 N   0  0  0  0  0  2  0  0  0  0  0  0
  182.5740  176.0820  137.9440 C   0  0  0  0  0  0  0  0  0  0  0  0
  181.1090  177.0330  138.0870 S   0  0  0  0  0  0  0  0  0  0  0  0
  179.9200  176.1130  138.1450 O   0  0  0  0  0  0  0  0  0  0  0  0
  181.1710  177.8490  139.3500 O   0  0  0  0  0  0  0  0  0  0  0  0
  180.9830  178.0870  136.7200 N   0  0  0  0  0  2  0  0  0  0  0  0
  180.2650  179.2800  137.1480 C   0  0  0  0  0  2  0  0  0  0  0  0
  180.8020  180.1800  134.8920 C   0  0  0  0  0  1  0  0  0  0  0  0
  180.7600  180.4900  136.3750 C   0  0  0  0  0  2  0  0  0  0  0  0
  191.2550  176.7490  136.8180 C   0  0  0  0  0  2  0  0  0  0  0  0
  193.7020  174.1590  135.8780 C   0  0  0  0  0  1  0  0  0  0  0  0
  193.2630  175.6100  135.9090 C   0  0  2  0  0  3  0  0  0  0  0  0
  194.1440  176.0040  138.7010 N   0  0  0  0  0  1  0  0  0  0  0  0
  194.3180  176.4310  136.4850 N   0  0  0  0  0  2  0  0  0  0  0  0
  193.5460  176.6960  137.6370 N   0  0  0  0  0  0  0  0  0  0  0  0
  192.4550  175.8700  137.1450 C   0  0  1  0  0  3  0  0  0  0  0  0
  1 35  1  6  0  0  0
  1 15  1  0  0  0  0
  3  2  1  0  0  0  0
  3 13  1  0  0  0  0
  5  4  1  6  0  0  0
  5  7  1  0  0  0  0
  6  8  1  0  0  0  0
  7  3  1  1  0  0  0
  9 12  1  1  0  0  0
  9  1  1  0  0  0  0
  9  5  1  0  0  0  0
 10 12  1  0  0  0  0
 10 14  1  0  0  0  0
 11  4  1  0  0  0  0
 13  8  1  6  0  0  0
 13 19  1  0  0  0  0
 14 24  1  6  0  0  0
 14 11  1  0  0  0  0
 15  7  1  0  0  0  0
 15  6  1  1  0  0  0
 16 22  1  0  0  0  0
 17 16  1  0  0  0  0
 18 16  1  0  0  0  0
 19 17  1  0  0  0  0
 19 18  1  1  0  0  0
 20 22  1  0  0  0  0
 22 21  1  0  0  0  0
 23 22  2  0  0  0  0
 24 26  1  0  0  0  0
 26 27  1  0  0  0  0
 27 28  1  0  0  0  0
 27 25  2  0  0  0  0
 28 29  2  0  0  0  0
 28 30  2  0  0  0  0
 31 32  1  0  0  0  0
 31 28  1  0  0  0  0
 33 34  1  0  0  0  0
 34 32  1  0  0  0  0
 37 36  1  1  0  0  0
 37 39  1  0  0  0  0
 37 41  1  0  0  0  0
 39 40  1  0  0  0  0
 40 38  1  0  0  0  0
 41 35  1  6  0  0  0
 41 40  1  0  0  0  0
M  END
>  <MODEL>
9

>  <REMARK>
 VINA RESULT:      -5.5      4.185      9.435
  Name = 
  10 active torsions:
  status: ('A' for Active; 'I' for Inactive)
    1  A    between atoms: C_1  and  C_30
    2  A    between atoms: S_7  and  N_21
    3  A    between atoms: S_7  and  C_41
    4  A    between atoms: N_10  and  P_29
    5  A    between atoms: N_16  and  C_18
    6  A    between atoms: C_18  and  C_37
    7  A    between atoms: N_21  and  C_40
    8  A    between atoms: C_24  and  C_40
    9  A    between atoms: C_30  and  C_34
   10  A    between atoms: C_36  and  C_39
                            x       y       z     vdW  Elec       q    Type
                         _______ _______ _______ _____ _____    ______ ____

>  <TORSDO>
F 10

$$$$
