=
 OpenBabel10222416233D

 38 42  0  0  1  0  0  0  0  0999 V2000
  189.7860  177.3480  145.0690 C   0  0  0  0  0  0  0  0  0  0  0  0
  187.5400  177.7450  145.8860 C   0  0  0  0  0  3  0  0  0  0  0  0
  187.9990  177.8470  143.5550 N   0  0  0  0  0  0  0  0  0  0  0  0
  189.3140  177.5510  143.7480 C   0  0  0  0  0  0  0  0  0  0  0  0
  191.2310  177.0880  145.3610 C   0  0  0  0  0  1  0  0  0  0  0  0
  187.1050  177.9430  144.5750 C   0  0  0  0  0  0  0  0  0  0  0  0
  188.8810  177.4460  146.1410 C   0  0  0  0  0  0  0  0  0  0  0  0
  184.7990  178.6200  145.3470 C   0  0  0  0  0  0  0  0  0  0  0  0
  181.7020  179.1870  143.3320 N   0  0  0  0  0  2  0  0  0  0  0  0
  185.1880  178.2530  142.9520 C   0  0  0  0  0  0  0  0  0  0  0  0
  183.8450  178.5740  142.7340 C   0  0  0  0  0  0  0  0  0  0  0  0
  185.2370  178.6280  146.7750 C   0  0  0  0  0  1  0  0  0  0  0  0
  185.6840  178.2670  144.2860 C   0  0  0  0  0  0  0  0  0  0  0  0
  186.0650  177.9550  141.7760 C   0  0  0  0  0  1  0  0  0  0  0  0
  183.0150  178.9020  143.7650 C   0  0  0  0  0  0  0  0  0  0  0  0
  181.6740  179.0300  141.8780 C   0  0  1  0  0  3  0  0  0  0  0  0
  183.1000  178.6220  141.4470 C   0  0  0  0  0  2  0  0  0  0  0  0
  183.4590  178.9340  145.0810 C   0  0  0  0  0  3  0  0  0  0  0  0
  180.7550  177.4250  140.3570 O   0  0  0  0  0  0  0  0  0  0  0  0
  180.6910  177.9750  141.4890 C   0  0  0  0  0  0  0  0  0  0  0  0
  179.6810  177.6170  142.3720 O   0  0  0  0  0  1  0  0  0  0  0  0
  190.1870  177.4720  142.5510 C   0  0  0  0  0  0  0  0  0  0  0  0
  189.7280  176.7950  141.4090 C   0  0  0  0  0  3  0  0  0  0  0  0
  190.5380  176.6690  140.2770 C   0  0  0  0  0  0  0  0  0  0  0  0
  192.3030  177.8770  141.4200 C   0  0  0  0  0  3  0  0  0  0  0  0
  191.8290  177.2140  140.2860 C   0  0  0  0  0  3  0  0  0  0  0  0
  191.4870  178.0000  142.5470 C   0  0  0  0  0  3  0  0  0  0  0  0
  190.0430  175.9980  139.1590 O   0  0  0  0  0  0  0  0  0  0  0  0
  189.6090  176.6810  138.0430 N   0  0  0  0  0  2  0  0  0  0  0  0
  188.2180  176.8880  137.7940 C   0  0  0  0  0  0  0  0  0  0  0  0
  187.5870  178.0500  138.2640 C   0  0  0  0  0  0  0  0  0  0  0  0
  186.1130  176.1410  136.8440 C   0  0  0  0  0  3  0  0  0  0  0  0
  187.4750  175.9350  137.0850 C   0  0  0  0  0  3  0  0  0  0  0  0
  185.4890  177.3000  137.3100 C   0  0  0  0  0  3  0  0  0  0  0  0
  188.3050  179.0030  138.9760 O   0  0  0  0  0  1  0  0  0  0  0  0
  186.2240  178.2530  138.0200 C   0  0  0  0  0  3  0  0  0  0  0  0
  189.3360  177.2500  147.4860 N   0  0  0  0  0  2  0  0  0  0  0  0
  189.0500  178.1830  148.5650 C   0  0  0  0  0  1  0  0  0  0  0  0
  1  5  1  0  0  0  0
  1  7  1  0  0  0  0
  2  7  2  0  0  0  0
  3  4  1  0  0  0  0
  3  6  2  0  0  0  0
  4  1  2  0  0  0  0
  6  2  1  0  0  0  0
  7 37  1  0  0  0  0
  8 12  1  0  0  0  0
  9 15  1  0  0  0  0
 10 13  1  0  0  0  0
 11 10  2  0  0  0  0
 11 15  1  0  0  0  0
 13  6  1  0  0  0  0
 13  8  2  0  0  0  0
 14 10  1  0  0  0  0
 15 18  2  0  0  0  0
 16 20  1  1  0  0  0
 16  9  1  0  0  0  0
 17 16  1  0  0  0  0
 17 11  1  0  0  0  0
 18  8  1  0  0  0  0
 19 20  2  0  0  0  0
 20 21  1  0  0  0  0
 22  4  1  0  0  0  0
 23 22  2  0  0  0  0
 24 26  2  0  0  0  0
 24 23  1  0  0  0  0
 25 27  2  0  0  0  0
 26 25  1  0  0  0  0
 27 22  1  0  0  0  0
 28 24  1  0  0  0  0
 29 28  1  0  0  0  0
 30 29  1  0  0  0  0
 30 31  1  0  0  0  0
 31 35  1  0  0  0  0
 32 33  1  0  0  0  0
 32 34  2  0  0  0  0
 33 30  2  0  0  0  0
 34 36  1  0  0  0  0
 36 31  2  0  0  0  0
 37 38  1  0  0  0  0
M  END
>  <MODEL>
1

>  <REMARK>
 VINA RESULT:     -10.5      0.000      0.000
  Name = 
  7 active torsions:
  status: ('A' for Active; 'I' for Inactive)
    1  A    between atoms: C_1  and  C_28
    2  A    between atoms: N_4  and  C_6
    3  A    between atoms: N_4  and  O_23
    4  A    between atoms: N_11  and  C_33
    5  A    between atoms: C_14  and  C_32
    6  A    between atoms: C_20  and  O_23
    7  A    between atoms: C_21  and  CA_25
                            x       y       z     vdW  Elec       q    Type
                         _______ _______ _______ _____ _____    ______ ____

>  <TORSDO>
F 7

$$$$
=
 OpenBabel10222416233D

 38 42  0  0  1  0  0  0  0  0999 V2000
  188.8440  177.8400  139.9150 C   0  0  0  0  0  0  0  0  0  0  0  0
  189.5910  176.8500  137.8330 C   0  0  0  0  0  3  0  0  0  0  0  0
  190.6420  176.2580  139.8810 N   0  0  0  0  0  0  0  0  0  0  0  0
  189.8260  177.0800  140.5980 C   0  0  0  0  0  0  0  0  0  0  0  0
  187.9600  178.8130  140.6280 C   0  0  0  0  0  1  0  0  0  0  0  0
  190.5500  176.1170  138.5330 C   0  0  0  0  0  0  0  0  0  0  0  0
  188.7330  177.7140  138.5180 C   0  0  0  0  0  0  0  0  0  0  0  0
  190.9600  174.0910  137.0830 C   0  0  0  0  0  0  0  0  0  0  0  0
  194.1930  172.6980  135.8270 N   0  0  0  0  0  2  0  0  0  0  0  0
  192.8820  175.4180  137.8390 C   0  0  0  0  0  0  0  0  0  0  0  0
  193.7070  174.5290  137.1440 C   0  0  0  0  0  0  0  0  0  0  0  0
  189.5000  173.7790  137.0390 C   0  0  0  0  0  1  0  0  0  0  0  0
  191.4750  175.1990  137.8190 C   0  0  0  0  0  0  0  0  0  0  0  0
  193.4980  176.5900  138.5350 C   0  0  0  0  0  1  0  0  0  0  0  0
  193.1930  173.4730  136.4520 C   0  0  0  0  0  0  0  0  0  0  0  0
  195.4840  173.3090  136.1410 C   0  0  1  0  0  3  0  0  0  0  0  0
  195.1900  174.5430  137.0220 C   0  0  0  0  0  2  0  0  0  0  0  0
  191.8260  173.2260  136.4010 C   0  0  0  0  0  3  0  0  0  0  0  0
  196.0930  172.0270  138.0690 O   0  0  0  0  0  1  0  0  0  0  0  0
  196.3510  172.3390  136.8760 C   0  0  0  0  0  0  0  0  0  0  0  0
  197.4650  171.8000  136.2490 O   0  0  0  0  0  0  0  0  0  0  0  0
  190.0250  177.1410  142.0670 C   0  0  0  0  0  0  0  0  0  0  0  0
  188.9190  176.9850  142.9180 C   0  0  0  0  0  3  0  0  0  0  0  0
  189.0640  177.0740  144.3060 C   0  0  0  0  0  0  0  0  0  0  0  0
  191.4330  177.5060  144.0180 C   0  0  0  0  0  3  0  0  0  0  0  0
  190.3280  177.3350  144.8540 C   0  0  0  0  0  3  0  0  0  0  0  0
  191.2800  177.4140  142.6320 C   0  0  0  0  0  3  0  0  0  0  0  0
  187.9430  176.9040  145.1180 O   0  0  0  0  0  0  0  0  0  0  0  0
  187.1820  177.9780  145.5290 N   0  0  0  0  0  2  0  0  0  0  0  0
  185.9190  178.2640  144.9280 C   0  0  0  0  0  0  0  0  0  0  0  0
  184.8450  178.6940  145.7230 C   0  0  0  0  0  0  0  0  0  0  0  0
  184.5020  178.3960  142.9610 C   0  0  0  0  0  3  0  0  0  0  0  0
  185.7400  178.1160  143.5460 C   0  0  0  0  0  3  0  0  0  0  0  0
  183.4360  178.8270  143.7550 C   0  0  0  0  0  3  0  0  0  0  0  0
  185.0000  178.8400  147.0960 O   0  0  0  0  0  1  0  0  0  0  0  0
  183.6070  178.9750  145.1340 C   0  0  0  0  0  3  0  0  0  0  0  0
  187.7510  178.4770  137.8030 N   0  0  0  0  0  2  0  0  0  0  0  0
  186.6190  177.8720  137.1190 C   0  0  0  0  0  1  0  0  0  0  0  0
  1  4  1  0  0  0  0
  1  5  1  0  0  0  0
  2  7  1  0  0  0  0
  2  6  2  0  0  0  0
  3  4  2  0  0  0  0
  4 22  1  0  0  0  0
  6  3  1  0  0  0  0
  7  1  2  0  0  0  0
  8 13  1  0  0  0  0
  9 16  1  0  0  0  0
  9 15  1  0  0  0  0
 10 14  1  0  0  0  0
 11 10  1  0  0  0  0
 12  8  1  0  0  0  0
 13 10  2  0  0  0  0
 13  6  1  0  0  0  0
 15 11  2  0  0  0  0
 16 20  1  1  0  0  0
 16 17  1  0  0  0  0
 17 11  1  0  0  0  0
 18 15  1  0  0  0  0
 18  8  2  0  0  0  0
 20 19  1  0  0  0  0
 21 20  2  0  0  0  0
 22 27  2  0  0  0  0
 22 23  1  0  0  0  0
 23 24  2  0  0  0  0
 24 26  1  0  0  0  0
 24 28  1  0  0  0  0
 25 26  2  0  0  0  0
 27 25  1  0  0  0  0
 28 29  1  0  0  0  0
 30 29  1  0  0  0  0
 30 31  1  0  0  0  0
 31 35  1  0  0  0  0
 32 33  1  0  0  0  0
 32 34  2  0  0  0  0
 33 30  2  0  0  0  0
 34 36  1  0  0  0  0
 36 31  2  0  0  0  0
 37  7  1  0  0  0  0
 38 37  1  0  0  0  0
M  END
>  <MODEL>
2

>  <REMARK>
 VINA RESULT:     -10.3      3.869      9.915
  Name = 
  7 active torsions:
  status: ('A' for Active; 'I' for Inactive)
    1  A    between atoms: C_1  and  C_28
    2  A    between atoms: N_4  and  C_6
    3  A    between atoms: N_4  and  O_23
    4  A    between atoms: N_11  and  C_33
    5  A    between atoms: C_14  and  C_32
    6  A    between atoms: C_20  and  O_23
    7  A    between atoms: C_21  and  CA_25
                            x       y       z     vdW  Elec       q    Type
                         _______ _______ _______ _____ _____    ______ ____

>  <TORSDO>
F 7

$$$$
=
 OpenBabel10222416233D

 38 42  0  0  1  0  0  0  0  0999 V2000
  189.1920  177.2800  143.7780 C   0  0  0  0  0  0  0  0  0  0  0  0
  187.1150  177.6540  144.9680 C   0  0  0  0  0  3  0  0  0  0  0  0
  187.1990  177.9040  142.6060 N   0  0  0  0  0  0  0  0  0  0  0  0
  188.5210  177.5760  142.5660 C   0  0  0  0  0  0  0  0  0  0  0  0
  190.6570  176.9800  143.8180 C   0  0  0  0  0  1  0  0  0  0  0  0
  186.4810  177.9440  143.7590 C   0  0  0  0  0  0  0  0  0  0  0  0
  188.4720  177.3200  144.9850 C   0  0  0  0  0  0  0  0  0  0  0  0
  184.3460  178.6070  144.9320 C   0  0  0  0  0  0  0  0  0  0  0  0
  180.9820  179.3450  143.4800 N   0  0  0  0  0  2  0  0  0  0  0  0
  184.3380  178.3840  142.4880 C   0  0  0  0  0  0  0  0  0  0  0  0
  182.9850  178.7390  142.5090 C   0  0  0  0  0  0  0  0  0  0  0  0
  185.0080  178.5190  146.2690 C   0  0  0  0  0  1  0  0  0  0  0  0
  185.0410  178.3080  143.7230 C   0  0  0  0  0  0  0  0  0  0  0  0
  185.0070  178.1470  141.1710 C   0  0  0  0  0  1  0  0  0  0  0  0
  182.3400  179.0140  143.6770 C   0  0  0  0  0  0  0  0  0  0  0  0
  180.7180  179.2800  142.0420 C   0  0  1  0  0  3  0  0  0  0  0  0
  182.0450  178.8780  141.3630 C   0  0  0  0  0  2  0  0  0  0  0  0
  182.9900  178.9580  144.9040 C   0  0  0  0  0  3  0  0  0  0  0  0
  179.3620  177.3910  142.6130 O   0  0  0  0  0  1  0  0  0  0  0  0
  179.6590  178.2660  141.7560 C   0  0  0  0  0  0  0  0  0  0  0  0
  179.0160  178.2710  140.5260 O   0  0  0  0  0  0  0  0  0  0  0  0
  189.1900  177.5640  141.2410 C   0  0  0  0  0  0  0  0  0  0  0  0
  188.7750  178.4710  140.2530 C   0  0  0  0  0  3  0  0  0  0  0  0
  189.3570  178.4630  138.9820 C   0  0  0  0  0  0  0  0  0  0  0  0
  190.7710  176.6110  139.6560 C   0  0  0  0  0  3  0  0  0  0  0  0
  190.3590  177.5280  138.6870 C   0  0  0  0  0  3  0  0  0  0  0  0
  190.1850  176.6270  140.9250 C   0  0  0  0  0  3  0  0  0  0  0  0
  188.9250  179.3860  138.0310 O   0  0  0  0  0  0  0  0  0  0  0  0
  188.2610  178.9870  136.8900 N   0  0  0  0  0  2  0  0  0  0  0  0
  187.2290  178.0010  136.9380 C   0  0  0  0  0  0  0  0  0  0  0  0
  187.4340  176.7420  136.3530 C   0  0  0  0  0  0  0  0  0  0  0  0
  184.9990  177.3150  137.6110 C   0  0  0  0  0  3  0  0  0  0  0  0
  186.0080  178.2830  137.5650 C   0  0  0  0  0  3  0  0  0  0  0  0
  185.2070  176.0620  137.0290 C   0  0  0  0  0  3  0  0  0  0  0  0
  188.6350  176.4460  135.7190 O   0  0  0  0  0  1  0  0  0  0  0  0
  186.4220  175.7760  136.4010 C   0  0  0  0  0  3  0  0  0  0  0  0
  189.1290  177.0290  146.2260 N   0  0  0  0  0  2  0  0  0  0  0  0
  188.4730  177.1410  147.5190 C   0  0  0  0  0  1  0  0  0  0  0  0
  1  5  1  0  0  0  0
  1  7  1  0  0  0  0
  2  7  2  0  0  0  0
  3  6  2  0  0  0  0
  4  3  1  0  0  0  0
  4  1  2  0  0  0  0
  6  2  1  0  0  0  0
  7 37  1  0  0  0  0
  8 12  1  0  0  0  0
  9 15  1  0  0  0  0
 10 11  2  0  0  0  0
 10 13  1  0  0  0  0
 11 15  1  0  0  0  0
 13  6  1  0  0  0  0
 13  8  2  0  0  0  0
 14 10  1  0  0  0  0
 15 18  2  0  0  0  0
 16 20  1  1  0  0  0
 16  9  1  0  0  0  0
 17 16  1  0  0  0  0
 17 11  1  0  0  0  0
 18  8  1  0  0  0  0
 20 19  1  0  0  0  0
 21 20  2  0  0  0  0
 22  4  1  0  0  0  0
 23 22  2  0  0  0  0
 24 23  1  0  0  0  0
 25 27  2  0  0  0  0
 26 24  2  0  0  0  0
 26 25  1  0  0  0  0
 27 22  1  0  0  0  0
 28 24  1  0  0  0  0
 29 30  1  0  0  0  0
 29 28  1  0  0  0  0
 30 33  1  0  0  0  0
 31 36  1  0  0  0  0
 31 30  2  0  0  0  0
 33 32  2  0  0  0  0
 34 32  1  0  0  0  0
 35 31  1  0  0  0  0
 36 34  2  0  0  0  0
 37 38  1  0  0  0  0
M  END
>  <MODEL>
3

>  <REMARK>
 VINA RESULT:     -10.3      1.360      1.910
  Name = 
  7 active torsions:
  status: ('A' for Active; 'I' for Inactive)
    1  A    between atoms: C_1  and  C_28
    2  A    between atoms: N_4  and  C_6
    3  A    between atoms: N_4  and  O_23
    4  A    between atoms: N_11  and  C_33
    5  A    between atoms: C_14  and  C_32
    6  A    between atoms: C_20  and  O_23
    7  A    between atoms: C_21  and  CA_25
                            x       y       z     vdW  Elec       q    Type
                         _______ _______ _______ _____ _____    ______ ____

>  <TORSDO>
F 7

$$$$
=
 OpenBabel10222416233D

 38 42  0  0  1  0  0  0  0  0999 V2000
  183.4570  178.7640  143.4800 C   0  0  0  0  0  0  0  0  0  0  0  0
  183.6720  178.6630  141.0680 C   0  0  0  0  0  3  0  0  0  0  0  0
  185.5920  178.4250  142.4500 N   0  0  0  0  0  0  0  0  0  0  0  0
  184.8550  178.5580  143.5870 C   0  0  0  0  0  0  0  0  0  0  0  0
  182.5960  178.9870  144.6830 C   0  0  0  0  0  1  0  0  0  0  0  0
  185.0460  178.4640  141.2060 C   0  0  0  0  0  0  0  0  0  0  0  0
  182.8700  178.8130  142.2030 C   0  0  0  0  0  0  0  0  0  0  0  0
  185.3370  178.2360  138.7080 C   0  0  0  0  0  0  0  0  0  0  0  0
  188.4810  177.8980  136.7160 N   0  0  0  0  0  2  0  0  0  0  0  0
  187.3320  178.2530  140.1390 C   0  0  0  0  0  0  0  0  0  0  0  0
  188.1040  178.1140  138.9810 C   0  0  0  0  0  0  0  0  0  0  0  0
  183.8590  178.2580  138.4950 C   0  0  0  0  0  1  0  0  0  0  0  0
  185.9140  178.3090  140.0100 C   0  0  0  0  0  0  0  0  0  0  0  0
  188.0200  178.3850  141.4610 C   0  0  0  0  0  1  0  0  0  0  0  0
  187.5290  178.0390  137.7470 C   0  0  0  0  0  0  0  0  0  0  0  0
  189.8050  177.8790  137.3380 C   0  0  1  0  0  3  0  0  0  0  0  0
  189.5840  178.0270  138.8590 C   0  0  0  0  0  2  0  0  0  0  0  0
  186.1510  178.0970  137.5760 C   0  0  0  0  0  3  0  0  0  0  0  0
  190.6250  176.1970  135.8450 O   0  0  0  0  0  0  0  0  0  0  0  0
  190.5020  176.5940  137.0350 C   0  0  0  0  0  0  0  0  0  0  0  0
  190.9950  175.8170  138.0740 O   0  0  0  0  0  1  0  0  0  0  0  0
  185.5710  178.4930  144.8850 C   0  0  0  0  0  0  0  0  0  0  0  0
  186.8240  177.8650  144.9480 C   0  0  0  0  0  3  0  0  0  0  0  0
  187.5100  177.7520  146.1620 C   0  0  0  0  0  0  0  0  0  0  0  0
  185.6790  178.8780  147.2860 C   0  0  0  0  0  3  0  0  0  0  0  0
  186.9320  178.2620  147.3320 C   0  0  0  0  0  3  0  0  0  0  0  0
  185.0010  178.9880  146.0690 C   0  0  0  0  0  3  0  0  0  0  0  0
  188.7570  177.1280  146.1820 O   0  0  0  0  0  0  0  0  0  0  0  0
  189.8840  177.7570  145.6960 N   0  0  0  0  0  2  0  0  0  0  0  0
  190.3820  177.4790  144.3880 C   0  0  0  0  0  0  0  0  0  0  0  0
  191.1920  178.4190  143.7300 C   0  0  0  0  0  0  0  0  0  0  0  0
  190.5560  176.0030  142.4680 C   0  0  0  0  0  3  0  0  0  0  0  0
  190.0670  176.2720  143.7500 C   0  0  0  0  0  3  0  0  0  0  0  0
  191.3630  176.9390  141.8180 C   0  0  0  0  0  3  0  0  0  0  0  0
  191.5100  179.6250  144.3430 O   0  0  0  0  0  1  0  0  0  0  0  0
  191.6800  178.1460  142.4480 C   0  0  0  0  0  3  0  0  0  0  0  0
  181.4580  179.0250  142.0680 N   0  0  0  0  0  2  0  0  0  0  0  0
  180.7450  178.8550  140.8110 C   0  0  0  0  0  1  0  0  0  0  0  0
  1  4  1  0  0  0  0
  1  5  1  0  0  0  0
  2  6  2  0  0  0  0
  2  7  1  0  0  0  0
  3  4  2  0  0  0  0
  4 22  1  0  0  0  0
  6  3  1  0  0  0  0
  7  1  2  0  0  0  0
  8 13  1  0  0  0  0
  9 16  1  0  0  0  0
  9 15  1  0  0  0  0
 10 14  1  0  0  0  0
 11 10  1  0  0  0  0
 12  8  1  0  0  0  0
 13 10  2  0  0  0  0
 13  6  1  0  0  0  0
 15 11  2  0  0  0  0
 16 20  1  1  0  0  0
 16 17  1  0  0  0  0
 17 11  1  0  0  0  0
 18 15  1  0  0  0  0
 18  8  2  0  0  0  0
 19 20  2  0  0  0  0
 20 21  1  0  0  0  0
 22 23  2  0  0  0  0
 22 27  1  0  0  0  0
 23 24  1  0  0  0  0
 24 28  1  0  0  0  0
 24 26  2  0  0  0  0
 25 26  1  0  0  0  0
 27 25  2  0  0  0  0
 29 28  1  0  0  0  0
 30 29  1  0  0  0  0
 31 35  1  0  0  0  0
 31 30  2  0  0  0  0
 32 33  2  0  0  0  0
 33 30  1  0  0  0  0
 34 36  2  0  0  0  0
 34 32  1  0  0  0  0
 36 31  1  0  0  0  0
 37  7  1  0  0  0  0
 38 37  1  0  0  0  0
M  END
>  <MODEL>
4

>  <REMARK>
 VINA RESULT:      -9.6      2.710      7.536
  Name = 
  7 active torsions:
  status: ('A' for Active; 'I' for Inactive)
    1  A    between atoms: C_1  and  C_28
    2  A    between atoms: N_4  and  C_6
    3  A    between atoms: N_4  and  O_23
    4  A    between atoms: N_11  and  C_33
    5  A    between atoms: C_14  and  C_32
    6  A    between atoms: C_20  and  O_23
    7  A    between atoms: C_21  and  CA_25
                            x       y       z     vdW  Elec       q    Type
                         _______ _______ _______ _____ _____    ______ ____

>  <TORSDO>
F 7

$$$$
=
 OpenBabel10222416233D

 38 42  0  0  1  0  0  0  0  0999 V2000
  185.0580  178.6270  139.4320 C   0  0  0  0  0  0  0  0  0  0  0  0
  186.7540  178.4400  141.1520 C   0  0  0  0  0  3  0  0  0  0  0  0
  184.4520  178.4850  141.7440 N   0  0  0  0  0  0  0  0  0  0  0  0
  184.0660  178.5860  140.4420 C   0  0  0  0  0  0  0  0  0  0  0  0
  184.7090  178.8060  137.9870 C   0  0  0  0  0  1  0  0  0  0  0  0
  185.7550  178.4050  142.1250 C   0  0  0  0  0  0  0  0  0  0  0  0
  186.4130  178.5510  139.8010 C   0  0  0  0  0  0  0  0  0  0  0  0
  185.2820  178.9220  144.5500 C   0  0  0  0  0  0  0  0  0  0  0  0
  187.1740  177.8820  147.6020 N   0  0  0  0  0  2  0  0  0  0  0  0
  187.2360  177.5470  143.9890 C   0  0  0  0  0  0  0  0  0  0  0  0
  187.5130  177.4670  145.3570 C   0  0  0  0  0  0  0  0  0  0  0  0
  184.0920  179.7470  144.1830 C   0  0  0  0  0  1  0  0  0  0  0  0
  186.1000  178.2940  143.5660 C   0  0  0  0  0  0  0  0  0  0  0  0
  188.1100  176.8070  143.0260 C   0  0  0  0  0  1  0  0  0  0  0  0
  186.7190  178.0810  146.2810 C   0  0  0  0  0  0  0  0  0  0  0  0
  188.3810  177.0570  147.5320 C   0  0  1  0  0  3  0  0  0  0  0  0
  188.6310  176.7600  146.0380 C   0  0  0  0  0  2  0  0  0  0  0  0
  185.5980  178.8140  145.9120 C   0  0  0  0  0  3  0  0  0  0  0  0
  189.3600  178.7940  148.8570 O   0  0  0  0  0  1  0  0  0  0  0  0
  189.5430  177.7890  148.1190 C   0  0  0  0  0  0  0  0  0  0  0  0
  190.8350  177.3750  147.8290 O   0  0  0  0  0  0  0  0  0  0  0  0
  182.6110  178.6610  140.1580 C   0  0  0  0  0  0  0  0  0  0  0  0
  182.0700  179.8570  139.6590 C   0  0  0  0  0  3  0  0  0  0  0  0
  180.6980  179.9750  139.4160 C   0  0  0  0  0  0  0  0  0  0  0  0
  180.3760  177.7010  140.1920 C   0  0  0  0  0  3  0  0  0  0  0  0
  179.8510  178.8910  139.6830 C   0  0  0  0  0  3  0  0  0  0  0  0
  181.7480  177.5900  140.4320 C   0  0  0  0  0  3  0  0  0  0  0  0
  180.1990  181.1760  138.9120 O   0  0  0  0  0  0  0  0  0  0  0  0
  181.0230  182.1010  138.3060 N   0  0  0  0  0  2  0  0  0  0  0  0
  180.5960  182.8390  137.1610 C   0  0  0  0  0  0  0  0  0  0  0  0
  181.2360  184.0400  136.8210 C   0  0  0  0  0  0  0  0  0  0  0  0
  179.1180  183.0970  135.2520 C   0  0  0  0  0  3  0  0  0  0  0  0
  179.5350  182.3720  136.3730 C   0  0  0  0  0  3  0  0  0  0  0  0
  179.7600  184.2910  134.9150 C   0  0  0  0  0  3  0  0  0  0  0  0
  182.2840  184.5230  137.5950 O   0  0  0  0  0  1  0  0  0  0  0  0
  180.8160  184.7630  135.6990 C   0  0  0  0  0  3  0  0  0  0  0  0
  187.4360  178.5960  138.7980 N   0  0  0  0  0  2  0  0  0  0  0  0
  188.8440  178.3680  139.0870 C   0  0  0  0  0  1  0  0  0  0  0  0
  1  7  2  0  0  0  0
  1  4  1  0  0  0  0
  2  6  2  0  0  0  0
  3  6  1  0  0  0  0
  4  3  2  0  0  0  0
  5  1  1  0  0  0  0
  6 13  1  0  0  0  0
  7  2  1  0  0  0  0
  8 18  1  0  0  0  0
 10 11  2  0  0  0  0
 11 17  1  0  0  0  0
 11 15  1  0  0  0  0
 12  8  1  0  0  0  0
 13 10  1  0  0  0  0
 13  8  2  0  0  0  0
 14 10  1  0  0  0  0
 15  9  1  0  0  0  0
 16  9  1  0  0  0  0
 16 20  1  6  0  0  0
 17 16  1  0  0  0  0
 18 15  2  0  0  0  0
 20 19  1  0  0  0  0
 21 20  2  0  0  0  0
 22 27  1  0  0  0  0
 22  4  1  0  0  0  0
 23 22  2  0  0  0  0
 24 23  1  0  0  0  0
 24 26  2  0  0  0  0
 25 27  2  0  0  0  0
 26 25  1  0  0  0  0
 28 24  1  0  0  0  0
 29 28  1  0  0  0  0
 30 29  1  0  0  0  0
 31 30  1  0  0  0  0
 31 35  1  0  0  0  0
 32 33  1  0  0  0  0
 33 30  2  0  0  0  0
 34 32  2  0  0  0  0
 34 36  1  0  0  0  0
 36 31  2  0  0  0  0
 37 38  1  0  0  0  0
 37  7  1  0  0  0  0
M  END
>  <MODEL>
5

>  <REMARK>
 VINA RESULT:      -9.5      4.345      8.295
  Name = 
  7 active torsions:
  status: ('A' for Active; 'I' for Inactive)
    1  A    between atoms: C_1  and  C_28
    2  A    between atoms: N_4  and  C_6
    3  A    between atoms: N_4  and  O_23
    4  A    between atoms: N_11  and  C_33
    5  A    between atoms: C_14  and  C_32
    6  A    between atoms: C_20  and  O_23
    7  A    between atoms: C_21  and  CA_25
                            x       y       z     vdW  Elec       q    Type
                         _______ _______ _______ _____ _____    ______ ____

>  <TORSDO>
F 7

$$$$
=
 OpenBabel10222416233D

 38 42  0  0  1  0  0  0  0  0999 V2000
  190.1440  177.5590  142.0270 C   0  0  0  0  0  0  0  0  0  0  0  0
  188.5720  177.8710  143.8450 C   0  0  0  0  0  3  0  0  0  0  0  0
  187.8170  177.9230  141.5910 N   0  0  0  0  0  0  0  0  0  0  0  0
  189.0720  177.6980  141.1110 C   0  0  0  0  0  0  0  0  0  0  0  0
  191.5570  177.3780  141.5700 C   0  0  0  0  0  1  0  0  0  0  0  0
  187.5370  178.0070  142.9180 C   0  0  0  0  0  0  0  0  0  0  0  0
  189.8790  177.6460  143.4060 C   0  0  0  0  0  0  0  0  0  0  0  0
  185.8200  178.2260  144.7560 C   0  0  0  0  0  0  0  0  0  0  0  0
  182.1700  178.9900  144.5020 N   0  0  0  0  0  2  0  0  0  0  0  0
  185.1120  178.5390  142.4260 C   0  0  0  0  0  0  0  0  0  0  0  0
  183.8180  178.7710  142.9020 C   0  0  0  0  0  0  0  0  0  0  0  0
  186.8390  177.9040  145.8000 C   0  0  0  0  0  1  0  0  0  0  0  0
  186.1420  178.2530  143.3670 C   0  0  0  0  0  0  0  0  0  0  0  0
  185.3780  178.6470  140.9580 C   0  0  0  0  0  1  0  0  0  0  0  0
  183.5310  178.7340  144.2340 C   0  0  0  0  0  0  0  0  0  0  0  0
  181.5040  179.2160  143.2190 C   0  0  1  0  0  3  0  0  0  0  0  0
  182.5860  179.0790  142.1260 C   0  0  0  0  0  2  0  0  0  0  0  0
  184.5070  178.4650  145.1860 C   0  0  0  0  0  3  0  0  0  0  0  0
  180.1620  177.7780  141.8550 O   0  0  0  0  0  0  0  0  0  0  0  0
  180.4230  178.2080  143.0100 C   0  0  0  0  0  0  0  0  0  0  0  0
  179.6810  177.7600  144.0950 O   0  0  0  0  0  1  0  0  0  0  0  0
  189.2450  177.6240  139.6390 C   0  0  0  0  0  0  0  0  0  0  0  0
  189.8120  176.4720  139.0710 C   0  0  0  0  0  3  0  0  0  0  0  0
  190.0250  176.3830  137.6910 C   0  0  0  0  0  0  0  0  0  0  0  0
  189.1270  178.6200  137.4220 C   0  0  0  0  0  3  0  0  0  0  0  0
  189.6790  177.4630  136.8680 C   0  0  0  0  0  3  0  0  0  0  0  0
  188.9160  178.7000  138.8010 C   0  0  0  0  0  3  0  0  0  0  0  0
  190.5820  175.2190  137.1640 O   0  0  0  0  0  0  0  0  0  0  0  0
  191.5380  174.5030  137.8510 N   0  0  0  0  0  2  0  0  0  0  0  0
  192.8250  174.2500  137.2850 C   0  0  0  0  0  0  0  0  0  0  0  0
  193.8900  175.1270  137.5430 C   0  0  0  0  0  0  0  0  0  0  0  0
  194.2930  172.8850  135.9150 C   0  0  0  0  0  3  0  0  0  0  0  0
  193.0320  173.1300  136.4690 C   0  0  0  0  0  3  0  0  0  0  0  0
  195.3520  173.7580  136.1770 C   0  0  0  0  0  3  0  0  0  0  0  0
  193.7020  176.2470  138.3440 O   0  0  0  0  0  1  0  0  0  0  0  0
  195.1500  174.8780  136.9880 C   0  0  0  0  0  3  0  0  0  0  0  0
  190.9470  177.5150  144.3530 N   0  0  0  0  0  2  0  0  0  0  0  0
  190.7900  176.8590  145.6430 C   0  0  0  0  0  1  0  0  0  0  0  0
  1  7  1  0  0  0  0
  3  6  2  0  0  0  0
  4  3  1  0  0  0  0
  4  1  2  0  0  0  0
  5  1  1  0  0  0  0
  6 13  1  0  0  0  0
  6  2  1  0  0  0  0
  7  2  2  0  0  0  0
  7 37  1  0  0  0  0
  8 18  1  0  0  0  0
  8 12  1  0  0  0  0
 10 11  2  0  0  0  0
 10 13  1  0  0  0  0
 11 15  1  0  0  0  0
 13  8  2  0  0  0  0
 14 10  1  0  0  0  0
 15  9  1  0  0  0  0
 15 18  2  0  0  0  0
 16 20  1  6  0  0  0
 16  9  1  0  0  0  0
 17 11  1  0  0  0  0
 17 16  1  0  0  0  0
 19 20  2  0  0  0  0
 20 21  1  0  0  0  0
 22  4  1  0  0  0  0
 23 22  1  0  0  0  0
 24 23  2  0  0  0  0
 25 27  1  0  0  0  0
 26 25  2  0  0  0  0
 26 24  1  0  0  0  0
 27 22  2  0  0  0  0
 28 24  1  0  0  0  0
 28 29  1  0  0  0  0
 30 31  1  0  0  0  0
 30 29  1  0  0  0  0
 31 35  1  0  0  0  0
 32 34  2  0  0  0  0
 32 33  1  0  0  0  0
 33 30  2  0  0  0  0
 34 36  1  0  0  0  0
 36 31  2  0  0  0  0
 37 38  1  0  0  0  0
M  END
>  <MODEL>
6

>  <REMARK>
 VINA RESULT:      -9.3      2.618      4.088
  Name = 
  7 active torsions:
  status: ('A' for Active; 'I' for Inactive)
    1  A    between atoms: C_1  and  C_28
    2  A    between atoms: N_4  and  C_6
    3  A    between atoms: N_4  and  O_23
    4  A    between atoms: N_11  and  C_33
    5  A    between atoms: C_14  and  C_32
    6  A    between atoms: C_20  and  O_23
    7  A    between atoms: C_21  and  CA_25
                            x       y       z     vdW  Elec       q    Type
                         _______ _______ _______ _____ _____    ______ ____

>  <TORSDO>
F 7

$$$$
=
 OpenBabel10222416233D

 38 42  0  0  1  0  0  0  0  0999 V2000
  188.3170  177.7950  145.4010 C   0  0  0  0  0  0  0  0  0  0  0  0
  190.0430  177.4320  143.7390 C   0  0  0  0  0  3  0  0  0  0  0  0
  187.8010  177.8470  143.0640 N   0  0  0  0  0  0  0  0  0  0  0  0
  187.3780  177.9600  144.3530 C   0  0  0  0  0  0  0  0  0  0  0  0
  187.9110  177.8370  146.8410 C   0  0  0  0  0  1  0  0  0  0  0  0
  189.0940  177.5970  142.7280 C   0  0  0  0  0  0  0  0  0  0  0  0
  189.6610  177.5310  145.0800 C   0  0  0  0  0  0  0  0  0  0  0  0
  188.5700  177.8850  140.2760 C   0  0  0  0  0  0  0  0  0  0  0  0
  190.7130  177.1600  137.3000 N   0  0  0  0  0  2  0  0  0  0  0  0
  190.7710  177.0130  140.9240 C   0  0  0  0  0  0  0  0  0  0  0  0
  191.0890  176.9390  139.5650 C   0  0  0  0  0  0  0  0  0  0  0  0
  187.1910  178.3670  140.5870 C   0  0  0  0  0  1  0  0  0  0  0  0
  189.4820  177.4900  141.2980 C   0  0  0  0  0  0  0  0  0  0  0  0
  191.8080  176.6370  141.9360 C   0  0  0  0  0  1  0  0  0  0  0  0
  190.1980  177.3160  138.6040 C   0  0  0  0  0  0  0  0  0  0  0  0
  192.0700  176.6290  137.4220 C   0  0  1  0  0  3  0  0  0  0  0  0
  192.3520  176.4730  138.9320 C   0  0  0  0  0  2  0  0  0  0  0  0
  188.9330  177.7930  138.9250 C   0  0  0  0  0  3  0  0  0  0  0  0
  192.3560  175.2470  135.4880 O   0  0  0  0  0  0  0  0  0  0  0  0
  192.1740  175.3080  136.7340 C   0  0  0  0  0  0  0  0  0  0  0  0
  192.0430  174.1370  137.4680 O   0  0  0  0  0  1  0  0  0  0  0  0
  185.9390  178.2390  144.5860 C   0  0  0  0  0  0  0  0  0  0  0  0
  185.0580  178.2580  143.4940 C   0  0  0  0  0  3  0  0  0  0  0  0
  183.7020  178.5540  143.6720 C   0  0  0  0  0  0  0  0  0  0  0  0
  184.0910  178.8450  146.0480 C   0  0  0  0  0  3  0  0  0  0  0  0
  183.2210  178.8470  144.9550 C   0  0  0  0  0  3  0  0  0  0  0  0
  185.4430  178.5460  145.8620 C   0  0  0  0  0  3  0  0  0  0  0  0
  182.8560  178.5550  142.5630 O   0  0  0  0  0  0  0  0  0  0  0  0
  183.2500  179.0930  141.3570 N   0  0  0  0  0  2  0  0  0  0  0  0
  183.3520  178.2870  140.1830 C   0  0  0  0  0  0  0  0  0  0  0  0
  183.9820  178.7940  139.0360 C   0  0  0  0  0  0  0  0  0  0  0  0
  182.9250  176.2020  139.0140 C   0  0  0  0  0  3  0  0  0  0  0  0
  182.8240  176.9890  140.1650 C   0  0  0  0  0  3  0  0  0  0  0  0
  183.5550  176.7100  137.8750 C   0  0  0  0  0  3  0  0  0  0  0  0
  184.5060  180.0820  139.0310 O   0  0  0  0  0  1  0  0  0  0  0  0
  184.0820  178.0040  137.8850 C   0  0  0  0  0  3  0  0  0  0  0  0
  190.6290  177.3540  146.1230 N   0  0  0  0  0  2  0  0  0  0  0  0
  191.7210  176.3970  146.0390 C   0  0  0  0  0  1  0  0  0  0  0  0
  1  5  1  0  0  0  0
  2  7  2  0  0  0  0
  3  4  1  0  0  0  0
  4 22  1  0  0  0  0
  4  1  2  0  0  0  0
  6  3  2  0  0  0  0
  6  2  1  0  0  0  0
  7  1  1  0  0  0  0
  7 37  1  0  0  0  0
  8 12  1  0  0  0  0
  8 13  1  0  0  0  0
  9 16  1  0  0  0  0
  9 15  1  0  0  0  0
 10 13  2  0  0  0  0
 10 14  1  0  0  0  0
 11 10  1  0  0  0  0
 13  6  1  0  0  0  0
 15 18  1  0  0  0  0
 15 11  2  0  0  0  0
 16 20  1  6  0  0  0
 16 17  1  0  0  0  0
 17 11  1  0  0  0  0
 18  8  2  0  0  0  0
 19 20  2  0  0  0  0
 20 21  1  0  0  0  0
 22 27  1  0  0  0  0
 23 24  1  0  0  0  0
 23 22  2  0  0  0  0
 24 26  2  0  0  0  0
 26 25  1  0  0  0  0
 27 25  2  0  0  0  0
 28 24  1  0  0  0  0
 29 28  1  0  0  0  0
 30 29  1  0  0  0  0
 31 30  2  0  0  0  0
 32 33  2  0  0  0  0
 33 30  1  0  0  0  0
 34 36  2  0  0  0  0
 34 32  1  0  0  0  0
 35 31  1  0  0  0  0
 36 31  1  0  0  0  0
 38 37  1  0  0  0  0
M  END
>  <MODEL>
7

>  <REMARK>
 VINA RESULT:      -9.3      1.988      7.096
  Name = 
  7 active torsions:
  status: ('A' for Active; 'I' for Inactive)
    1  A    between atoms: C_1  and  C_28
    2  A    between atoms: N_4  and  C_6
    3  A    between atoms: N_4  and  O_23
    4  A    between atoms: N_11  and  C_33
    5  A    between atoms: C_14  and  C_32
    6  A    between atoms: C_20  and  O_23
    7  A    between atoms: C_21  and  CA_25
                            x       y       z     vdW  Elec       q    Type
                         _______ _______ _______ _____ _____    ______ ____

>  <TORSDO>
F 7

$$$$
=
 OpenBabel10222416233D

 38 42  0  0  1  0  0  0  0  0999 V2000
  181.6540  178.9880  139.1950 C   0  0  0  0  0  0  0  0  0  0  0  0
  182.6190  177.8450  137.2890 C   0  0  0  0  0  3  0  0  0  0  0  0
  183.5710  177.5750  139.4510 N   0  0  0  0  0  0  0  0  0  0  0  0
  182.6440  178.3960  140.0190 C   0  0  0  0  0  0  0  0  0  0  0  0
  180.6470  179.9530  139.7380 C   0  0  0  0  0  1  0  0  0  0  0  0
  183.5830  177.2800  138.1240 C   0  0  0  0  0  0  0  0  0  0  0  0
  181.6490  178.7010  137.8190 C   0  0  0  0  0  0  0  0  0  0  0  0
  184.3020  175.0240  137.2470 C   0  0  0  0  0  0  0  0  0  0  0  0
  187.6560  173.9260  136.0140 N   0  0  0  0  0  2  0  0  0  0  0  0
  185.9530  176.8370  137.3530 C   0  0  0  0  0  0  0  0  0  0  0  0
  186.8940  175.9460  136.8290 C   0  0  0  0  0  0  0  0  0  0  0  0
  182.9410  174.4560  137.4810 C   0  0  0  0  0  1  0  0  0  0  0  0
  184.6250  176.3730  137.5770 C   0  0  0  0  0  0  0  0  0  0  0  0
  186.3590  178.2540  137.6140 C   0  0  0  0  0  1  0  0  0  0  0  0
  186.5640  174.6580  136.5270 C   0  0  0  0  0  0  0  0  0  0  0  0
  188.8100  174.8240  135.9790 C   0  0  1  0  0  3  0  0  0  0  0  0
  188.3280  176.1890  136.5160 C   0  0  0  0  0  2  0  0  0  0  0  0
  185.2790  174.1670  136.7230 C   0  0  0  0  0  3  0  0  0  0  0  0
  190.4660  173.1920  136.5490 O   0  0  0  0  0  0  0  0  0  0  0  0
  189.9110  174.2880  136.8330 C   0  0  0  0  0  0  0  0  0  0  0  0
  190.3090  174.9870  137.9630 O   0  0  0  0  0  1  0  0  0  0  0  0
  182.7360  178.6360  141.4800 C   0  0  0  0  0  0  0  0  0  0  0  0
  183.9990  178.6680  142.0930 C   0  0  0  0  0  3  0  0  0  0  0  0
  184.1220  178.8530  143.4730 C   0  0  0  0  0  0  0  0  0  0  0  0
  181.7060  178.9550  143.6610 C   0  0  0  0  0  3  0  0  0  0  0  0
  182.9680  178.9980  144.2560 C   0  0  0  0  0  3  0  0  0  0  0  0
  181.5920  178.7700  142.2810 C   0  0  0  0  0  3  0  0  0  0  0  0
  185.3940  178.8880  144.0440 O   0  0  0  0  0  0  0  0  0  0  0  0
  186.0110  177.7420  144.4980 N   0  0  0  0  0  2  0  0  0  0  0  0
  186.9710  177.7850  145.5530 C   0  0  0  0  0  0  0  0  0  0  0  0
  186.5890  178.2140  146.8340 C   0  0  0  0  0  0  0  0  0  0  0  0
  189.2390  177.4470  146.3540 C   0  0  0  0  0  3  0  0  0  0  0  0
  188.2990  177.4030  145.3190 C   0  0  0  0  0  3  0  0  0  0  0  0
  188.8540  177.8720  147.6280 C   0  0  0  0  0  3  0  0  0  0  0  0
  185.2790  178.6040  147.0840 O   0  0  0  0  0  1  0  0  0  0  0  0
  187.5320  178.2560  147.8670 C   0  0  0  0  0  3  0  0  0  0  0  0
  180.6610  179.2910  136.9640 N   0  0  0  0  0  2  0  0  0  0  0  0
  180.8070  180.6130  136.3740 C   0  0  0  0  0  1  0  0  0  0  0  0
  1  5  1  0  0  0  0
  1  4  1  0  0  0  0
  2  7  1  0  0  0  0
  2  6  2  0  0  0  0
  3  4  2  0  0  0  0
  4 22  1  0  0  0  0
  6  3  1  0  0  0  0
  7  1  2  0  0  0  0
  8 12  1  0  0  0  0
  8 13  1  0  0  0  0
  9 15  1  0  0  0  0
 10 13  2  0  0  0  0
 10 14  1  0  0  0  0
 11 10  1  0  0  0  0
 13  6  1  0  0  0  0
 15 18  1  0  0  0  0
 15 11  2  0  0  0  0
 16  9  1  0  0  0  0
 16 17  1  0  0  0  0
 16 20  1  1  0  0  0
 17 11  1  0  0  0  0
 18  8  2  0  0  0  0
 19 20  2  0  0  0  0
 20 21  1  0  0  0  0
 22 23  2  0  0  0  0
 22 27  1  0  0  0  0
 23 24  1  0  0  0  0
 24 28  1  0  0  0  0
 24 26  2  0  0  0  0
 25 26  1  0  0  0  0
 27 25  2  0  0  0  0
 28 29  1  0  0  0  0
 29 30  1  0  0  0  0
 30 31  1  0  0  0  0
 31 35  1  0  0  0  0
 31 36  2  0  0  0  0
 32 34  2  0  0  0  0
 33 30  2  0  0  0  0
 33 32  1  0  0  0  0
 34 36  1  0  0  0  0
 37  7  1  0  0  0  0
 38 37  1  0  0  0  0
M  END
>  <MODEL>
8

>  <REMARK>
 VINA RESULT:      -9.3      2.900      9.457
  Name = 
  7 active torsions:
  status: ('A' for Active; 'I' for Inactive)
    1  A    between atoms: C_1  and  C_28
    2  A    between atoms: N_4  and  C_6
    3  A    between atoms: N_4  and  O_23
    4  A    between atoms: N_11  and  C_33
    5  A    between atoms: C_14  and  C_32
    6  A    between atoms: C_20  and  O_23
    7  A    between atoms: C_21  and  CA_25
                            x       y       z     vdW  Elec       q    Type
                         _______ _______ _______ _____ _____    ______ ____

>  <TORSDO>
F 7

$$$$
=
 OpenBabel10222416233D

 38 42  0  0  1  0  0  0  0  0999 V2000
  184.3760  178.2660  139.7140 C   0  0  0  0  0  0  0  0  0  0  0  0
  186.1570  178.5460  141.3330 C   0  0  0  0  0  3  0  0  0  0  0  0
  183.9740  177.9400  142.0520 N   0  0  0  0  0  0  0  0  0  0  0  0
  183.4970  177.9400  140.7770 C   0  0  0  0  0  0  0  0  0  0  0  0
  183.9050  178.3530  138.2970 C   0  0  0  0  0  1  0  0  0  0  0  0
  185.2670  178.2240  142.3590 C   0  0  0  0  0  0  0  0  0  0  0  0
  185.7180  178.5680  140.0070 C   0  0  0  0  0  0  0  0  0  0  0  0
  184.9910  178.9240  144.7690 C   0  0  0  0  0  0  0  0  0  0  0  0
  187.0750  178.0340  147.7420 N   0  0  0  0  0  2  0  0  0  0  0  0
  186.8590  177.4480  144.1670 C   0  0  0  0  0  0  0  0  0  0  0  0
  187.2340  177.4540  145.5140 C   0  0  0  0  0  0  0  0  0  0  0  0
  183.8010  179.7610  144.4300 C   0  0  0  0  0  1  0  0  0  0  0  0
  185.7160  178.2020  143.7750 C   0  0  0  0  0  0  0  0  0  0  0  0
  187.6370  176.6150  143.1990 C   0  0  0  0  0  1  0  0  0  0  0  0
  186.5290  178.1570  146.4460 C   0  0  0  0  0  0  0  0  0  0  0  0
  188.2500  177.1670  147.6440 C   0  0  1  0  0  3  0  0  0  0  0  0
  188.3800  176.7590  146.1610 C   0  0  0  0  0  2  0  0  0  0  0  0
  185.4050  178.9000  146.1080 C   0  0  0  0  0  3  0  0  0  0  0  0
  189.3750  179.0000  148.6970 O   0  0  0  0  0  1  0  0  0  0  0  0
  189.4720  177.8990  148.0920 C   0  0  0  0  0  0  0  0  0  0  0  0
  190.7280  177.3740  147.8160 O   0  0  0  0  0  0  0  0  0  0  0  0
  182.0650  177.6090  140.5750 C   0  0  0  0  0  0  0  0  0  0  0  0
  181.7180  176.3640  140.0260 C   0  0  0  0  0  3  0  0  0  0  0  0
  180.3810  176.0330  139.7870 C   0  0  0  0  0  0  0  0  0  0  0  0
  179.7070  178.2070  140.6230 C   0  0  0  0  0  3  0  0  0  0  0  0
  179.3750  176.9610  140.0890 C   0  0  0  0  0  3  0  0  0  0  0  0
  181.0460  178.5300  140.8600 C   0  0  0  0  0  3  0  0  0  0  0  0
  180.0760  174.7830  139.2480 O   0  0  0  0  0  0  0  0  0  0  0  0
  180.2770  174.5060  137.9130 N   0  0  0  0  0  2  0  0  0  0  0  0
  181.4000  173.7420  137.4740 C   0  0  0  0  0  0  0  0  0  0  0  0
  181.2760  172.3580  137.2820 C   0  0  0  0  0  0  0  0  0  0  0  0
  183.7310  173.6150  136.8060 C   0  0  0  0  0  3  0  0  0  0  0  0
  182.6320  174.3660  137.2350 C   0  0  0  0  0  3  0  0  0  0  0  0
  183.6020  172.2370  136.6130 C   0  0  0  0  0  3  0  0  0  0  0  0
  180.0640  171.7200  137.5210 O   0  0  0  0  0  1  0  0  0  0  0  0
  182.3770  171.6090  136.8520 C   0  0  0  0  0  3  0  0  0  0  0  0
  186.6260  178.9070  138.9500 N   0  0  0  0  0  2  0  0  0  0  0  0
  187.6960  178.0250  138.5080 C   0  0  0  0  0  1  0  0  0  0  0  0
  1  7  2  0  0  0  0
  1  4  1  0  0  0  0
  2  6  2  0  0  0  0
  3  6  1  0  0  0  0
  4  3  2  0  0  0  0
  5  1  1  0  0  0  0
  6 13  1  0  0  0  0
  7  2  1  0  0  0  0
  8 18  1  0  0  0  0
 10 11  2  0  0  0  0
 11 17  1  0  0  0  0
 11 15  1  0  0  0  0
 12  8  1  0  0  0  0
 13 10  1  0  0  0  0
 13  8  2  0  0  0  0
 14 10  1  0  0  0  0
 15  9  1  0  0  0  0
 16  9  1  0  0  0  0
 16 20  1  6  0  0  0
 17 16  1  0  0  0  0
 18 15  2  0  0  0  0
 20 19  1  0  0  0  0
 21 20  2  0  0  0  0
 22  4  1  0  0  0  0
 22 27  1  0  0  0  0
 23 22  2  0  0  0  0
 24 23  1  0  0  0  0
 24 26  2  0  0  0  0
 25 27  2  0  0  0  0
 26 25  1  0  0  0  0
 28 24  1  0  0  0  0
 29 28  1  0  0  0  0
 30 29  1  0  0  0  0
 31 30  1  0  0  0  0
 31 35  1  0  0  0  0
 32 33  1  0  0  0  0
 33 30  2  0  0  0  0
 34 32  2  0  0  0  0
 34 36  1  0  0  0  0
 36 31  2  0  0  0  0
 37  7  1  0  0  0  0
 38 37  1  0  0  0  0
M  END
>  <MODEL>
9

>  <REMARK>
 VINA RESULT:      -9.2      3.645      7.947
  Name = 
  7 active torsions:
  status: ('A' for Active; 'I' for Inactive)
    1  A    between atoms: C_1  and  C_28
    2  A    between atoms: N_4  and  C_6
    3  A    between atoms: N_4  and  O_23
    4  A    between atoms: N_11  and  C_33
    5  A    between atoms: C_14  and  C_32
    6  A    between atoms: C_20  and  O_23
    7  A    between atoms: C_21  and  CA_25
                            x       y       z     vdW  Elec       q    Type
                         _______ _______ _______ _____ _____    ______ ____

>  <TORSDO>
F 7

$$$$
