=
 OpenBabel10222416083D

 26 30  0  0  1  0  0  0  0  0999 V2000
  188.6690  177.1380  146.2060 C   0  0  0  0  0  2  0  0  0  0  0  0
  190.8650  177.2300  144.9190 C   0  0  0  0  0  0  0  0  0  0  0  0
  191.4730  176.8750  146.0140 N   0  0  0  0  0  0  0  0  0  0  0  0
  189.5330  177.0470  147.4230 C   0  0  0  0  0  3  0  0  0  0  0  0
  191.6540  177.3200  143.7240 N   0  0  0  0  0  2  0  0  0  0  0  0
  189.4160  177.7100  144.9800 C   0  0  1  0  0  3  0  0  0  0  0  0
  190.8450  176.8730  147.3030 C   0  0  0  0  0  3  0  0  0  0  0  0
  188.0140  176.3030  143.5140 C   0  0  0  0  0  2  0  0  0  0  0  0
  187.1860  177.5030  143.8480 N   0  0  0  0  0  0  0  0  0  0  0  0
  188.6640  177.5160  143.6400 C   0  0  1  0  0  3  0  0  0  0  0  0
  184.3530  179.0950  145.6140 N   0  0  0  0  0  0  0  0  0  0  0  0
  185.8100  178.8450  145.4970 C   0  0  2  0  0  3  0  0  0  0  0  0
  184.9570  178.1510  143.2330 C   0  0  0  0  0  3  0  0  0  0  0  0
  185.9540  178.1430  144.1590 C   0  0  0  0  0  0  0  0  0  0  0  0
  183.3020  179.2410  144.6860 C   0  0  0  0  0  3  0  0  0  0  0  0
  183.6090  178.7630  143.4760 C   0  0  0  0  0  3  0  0  0  0  0  0
  185.1280  178.1140  146.4330 C   0  0  0  0  0  2  0  0  0  0  0  0
  191.3110  178.1060  142.5470 C   0  0  0  0  0  2  0  0  0  0  0  0
  191.7110  177.3910  141.3480 N   0  0  0  0  0  2  0  0  0  0  0  0
  190.5060  176.8060  140.7860 C   0  0  0  0  0  2  0  0  0  0  0  0
  188.9960  178.4860  139.7300 C   0  0  0  0  0  2  0  0  0  0  0  0
  190.1490  177.5070  139.4880 C   0  0  2  0  0  3  0  0  0  0  0  0
  187.9740  177.9220  138.8250 C   0  0  0  0  0  0  0  0  0  0  0  0
  186.8170  178.3920  138.6630 O   0  0  0  0  0  0  0  0  0  0  0  0
  189.6350  176.5360  138.5200 N   0  0  0  0  0  0  0  0  0  0  0  0
  188.4440  176.7730  138.1600 N   0  0  0  0  0  0  0  0  0  0  0  0
  1  4  1  0  0  0  0
  2  6  1  0  0  0  0
  2  3  2  0  0  0  0
  3  7  1  0  0  0  0
  5  2  1  0  0  0  0
  6  1  1  1  0  0  0
  7  4  2  0  0  0  0
  8  9  1  0  0  0  0
  9 14  1  0  0  0  0
 10  8  1  1  0  0  0
 10  9  1  0  0  0  0
 10  6  1  0  0  0  0
 11 17  1  0  0  0  0
 12 11  1  0  0  0  0
 12 17  1  1  0  0  0
 13 16  1  0  0  0  0
 13 14  2  0  0  0  0
 14 12  1  0  0  0  0
 15 11  1  0  0  0  0
 16 15  2  0  0  0  0
 18  5  1  0  0  0  0
 19 18  1  0  0  0  0
 20 19  1  0  0  0  0
 22 21  1  0  0  0  0
 22 20  1  1  0  0  0
 23 21  1  0  0  0  0
 24 23  2  0  0  0  0
 25 22  1  0  0  0  0
 26 25  2  0  0  0  0
 26 23  1  0  0  0  0
M  END
>  <MODEL>
1

>  <REMARK>
 VINA RESULT:      -8.7      0.000      0.000
  Name = 
  6 active torsions:
  status: ('A' for Active; 'I' for Inactive)
    1  A    between atoms: C_3  and  C_26
    2  A    between atoms: C_10  and  N_20
    3  A    between atoms: N_15  and  C_17
    4  A    between atoms: C_17  and  N_18
    5  A    between atoms: N_18  and  C_26
    6  A    between atoms: C_21  and  C_22
                            x       y       z     vdW  Elec       q    Type
                         _______ _______ _______ _____ _____    ______ ____

>  <TORSDO>
F 6

$$$$
=
 OpenBabel10222416083D

 26 30  0  0  1  0  0  0  0  0999 V2000
  188.3160  177.4900  146.2730 C   0  0  0  0  0  2  0  0  0  0  0  0
  190.6010  177.1810  145.1920 C   0  0  0  0  0  0  0  0  0  0  0  0
  191.0750  176.9040  146.3720 N   0  0  0  0  0  0  0  0  0  0  0  0
  189.0640  177.4610  147.5670 C   0  0  0  0  0  3  0  0  0  0  0  0
  191.4860  177.0350  144.0730 N   0  0  0  0  0  2  0  0  0  0  0  0
  189.2190  177.8190  145.0620 C   0  0  1  0  0  3  0  0  0  0  0  0
  190.3520  177.1320  147.5890 C   0  0  0  0  0  3  0  0  0  0  0  0
  187.9120  176.3200  143.5990 C   0  0  0  0  0  2  0  0  0  0  0  0
  187.0680  177.5390  143.8010 N   0  0  0  0  0  0  0  0  0  0  0  0
  188.5570  177.5400  143.6910 C   0  0  1  0  0  3  0  0  0  0  0  0
  184.1220  179.2220  145.2720 N   0  0  0  0  0  0  0  0  0  0  0  0
  185.5820  178.9630  145.2770 C   0  0  2  0  0  3  0  0  0  0  0  0
  184.8960  178.1620  142.9910 C   0  0  0  0  0  3  0  0  0  0  0  0
  185.8210  178.1970  143.9880 C   0  0  0  0  0  0  0  0  0  0  0  0
  183.1440  179.3250  144.2630 C   0  0  0  0  0  3  0  0  0  0  0  0
  183.5370  178.7890  143.1030 C   0  0  0  0  0  3  0  0  0  0  0  0
  184.8270  178.2780  146.1920 C   0  0  0  0  0  2  0  0  0  0  0  0
  191.3330  177.6980  142.7860 C   0  0  0  0  0  2  0  0  0  0  0  0
  191.0930  176.7090  141.7500 N   0  0  0  0  0  2  0  0  0  0  0  0
  191.1510  177.4090  140.4790 C   0  0  0  0  0  2  0  0  0  0  0  0
  190.0600  177.6700  138.2510 C   0  0  0  0  0  2  0  0  0  0  0  0
  189.9000  177.1140  139.6700 C   0  0  2  0  0  3  0  0  0  0  0  0
  188.9400  178.6320  138.2160 C   0  0  0  0  0  0  0  0  0  0  0  0
  188.6450  179.3580  137.2300 O   0  0  0  0  0  0  0  0  0  0  0  0
  188.7560  177.8280  140.2390 N   0  0  0  0  0  0  0  0  0  0  0  0
  188.2340  178.6560  139.4340 N   0  0  0  0  0  0  0  0  0  0  0  0
  1  4  1  0  0  0  0
  2  3  2  0  0  0  0
  3  7  1  0  0  0  0
  4  7  2  0  0  0  0
  5  2  1  0  0  0  0
  6  2  1  0  0  0  0
  6  1  1  1  0  0  0
  8  9  1  0  0  0  0
  9 14  1  0  0  0  0
 10  8  1  1  0  0  0
 10  9  1  0  0  0  0
 10  6  1  0  0  0  0
 11 12  1  0  0  0  0
 11 17  1  0  0  0  0
 12 17  1  1  0  0  0
 13 16  1  0  0  0  0
 13 14  2  0  0  0  0
 14 12  1  0  0  0  0
 15 11  1  0  0  0  0
 16 15  2  0  0  0  0
 18  5  1  0  0  0  0
 19 18  1  0  0  0  0
 20 19  1  0  0  0  0
 21 22  1  0  0  0  0
 22 25  1  0  0  0  0
 22 20  1  1  0  0  0
 23 21  1  0  0  0  0
 23 26  1  0  0  0  0
 24 23  2  0  0  0  0
 26 25  2  0  0  0  0
M  END
>  <MODEL>
2

>  <REMARK>
 VINA RESULT:      -8.7      1.004      1.035
  Name = 
  6 active torsions:
  status: ('A' for Active; 'I' for Inactive)
    1  A    between atoms: C_3  and  C_26
    2  A    between atoms: C_10  and  N_20
    3  A    between atoms: N_15  and  C_17
    4  A    between atoms: C_17  and  N_18
    5  A    between atoms: N_18  and  C_26
    6  A    between atoms: C_21  and  C_22
                            x       y       z     vdW  Elec       q    Type
                         _______ _______ _______ _____ _____    ______ ____

>  <TORSDO>
F 6

$$$$
=
 OpenBabel10222416083D

 26 30  0  0  1  0  0  0  0  0999 V2000
  188.6570  177.1690  146.1220 C   0  0  0  0  0  2  0  0  0  0  0  0
  190.9190  177.0550  144.9590 C   0  0  0  0  0  0  0  0  0  0  0  0
  191.4530  176.7810  146.1140 N   0  0  0  0  0  0  0  0  0  0  0  0
  189.4500  177.1580  147.3900 C   0  0  0  0  0  3  0  0  0  0  0  0
  191.7740  177.0040  143.8070 N   0  0  0  0  0  2  0  0  0  0  0  0
  189.4920  177.5960  144.8930 C   0  0  1  0  0  3  0  0  0  0  0  0
  190.7580  176.9220  147.3600 C   0  0  0  0  0  3  0  0  0  0  0  0
  188.2040  176.0660  143.4460 C   0  0  0  0  0  2  0  0  0  0  0  0
  187.3200  177.2490  143.6850 N   0  0  0  0  0  0  0  0  0  0  0  0
  188.8050  177.3070  143.5370 C   0  0  1  0  0  3  0  0  0  0  0  0
  184.0850  178.9900  143.2650 N   0  0  0  0  0  0  0  0  0  0  0  0
  185.1200  178.0700  142.7360 C   0  0  2  0  0  3  0  0  0  0  0  0
  185.6960  178.1870  145.1840 C   0  0  0  0  0  3  0  0  0  0  0  0
  186.0550  177.8570  143.9140 C   0  0  0  0  0  0  0  0  0  0  0  0
  183.5850  179.2760  144.5520 C   0  0  0  0  0  3  0  0  0  0  0  0
  184.4030  178.8660  145.5270 C   0  0  0  0  0  3  0  0  0  0  0  0
  185.1250  179.3520  142.2540 C   0  0  0  0  0  2  0  0  0  0  0  0
  191.5290  177.6900  142.5470 C   0  0  0  0  0  2  0  0  0  0  0  0
  191.2900  176.7150  141.4970 N   0  0  0  0  0  2  0  0  0  0  0  0
  191.2370  177.4510  140.2460 C   0  0  0  0  0  2  0  0  0  0  0  0
  190.0070  177.6870  138.0890 C   0  0  0  0  0  2  0  0  0  0  0  0
  189.9410  177.1390  139.5180 C   0  0  2  0  0  3  0  0  0  0  0  0
  188.8770  178.6380  138.1180 C   0  0  0  0  0  0  0  0  0  0  0  0
  188.5140  179.3540  137.1480 O   0  0  0  0  0  0  0  0  0  0  0  0
  188.8280  177.8450  140.1530 N   0  0  0  0  0  0  0  0  0  0  0  0
  188.2480  178.6620  139.3770 N   0  0  0  0  0  0  0  0  0  0  0  0
  1  4  1  0  0  0  0
  2  3  2  0  0  0  0
  3  7  1  0  0  0  0
  5  2  1  0  0  0  0
  6  2  1  0  0  0  0
  6  1  1  1  0  0  0
  7  4  2  0  0  0  0
  8  9  1  0  0  0  0
  9 14  1  0  0  0  0
 10  8  1  1  0  0  0
 10  9  1  0  0  0  0
 10  6  1  0  0  0  0
 11 15  1  0  0  0  0
 12 17  1  6  0  0  0
 12 11  1  0  0  0  0
 12 14  1  0  0  0  0
 13 16  1  0  0  0  0
 14 13  2  0  0  0  0
 15 16  2  0  0  0  0
 17 11  1  0  0  0  0
 18  5  1  0  0  0  0
 19 18  1  0  0  0  0
 20 19  1  0  0  0  0
 21 23  1  0  0  0  0
 21 22  1  0  0  0  0
 22 25  1  0  0  0  0
 22 20  1  1  0  0  0
 23 26  1  0  0  0  0
 24 23  2  0  0  0  0
 26 25  2  0  0  0  0
M  END
>  <MODEL>
3

>  <REMARK>
 VINA RESULT:      -8.6      1.142      1.617
  Name = 
  6 active torsions:
  status: ('A' for Active; 'I' for Inactive)
    1  A    between atoms: C_3  and  C_26
    2  A    between atoms: C_10  and  N_20
    3  A    between atoms: N_15  and  C_17
    4  A    between atoms: C_17  and  N_18
    5  A    between atoms: N_18  and  C_26
    6  A    between atoms: C_21  and  C_22
                            x       y       z     vdW  Elec       q    Type
                         _______ _______ _______ _____ _____    ______ ____

>  <TORSDO>
F 6

$$$$
=
 OpenBabel10222416083D

 26 30  0  0  1  0  0  0  0  0999 V2000
  188.7480  177.1010  146.1640 C   0  0  0  0  0  2  0  0  0  0  0  0
  190.9280  177.2390  144.8550 C   0  0  0  0  0  0  0  0  0  0  0  0
  191.5560  176.9130  145.9470 N   0  0  0  0  0  0  0  0  0  0  0  0
  189.6250  177.0480  147.3730 C   0  0  0  0  0  3  0  0  0  0  0  0
  191.7030  177.3380  143.6510 N   0  0  0  0  0  2  0  0  0  0  0  0
  189.4680  177.6800  144.9240 C   0  0  1  0  0  3  0  0  0  0  0  0
  190.9410  176.9080  147.2420 C   0  0  0  0  0  3  0  0  0  0  0  0
  188.0470  176.2400  143.5090 C   0  0  0  0  0  2  0  0  0  0  0  0
  187.2310  177.4580  143.8070 N   0  0  0  0  0  0  0  0  0  0  0  0
  188.7090  177.4510  143.5940 C   0  0  1  0  0  3  0  0  0  0  0  0
  184.3960  179.0850  145.5370 N   0  0  0  0  0  0  0  0  0  0  0  0
  185.8500  178.8070  145.4460 C   0  0  2  0  0  3  0  0  0  0  0  0
  185.0280  178.1570  143.1570 C   0  0  0  0  0  3  0  0  0  0  0  0
  186.0060  178.1190  144.1020 C   0  0  0  0  0  0  0  0  0  0  0  0
  183.3670  179.2630  144.5910 C   0  0  0  0  0  3  0  0  0  0  0  0
  183.6880  178.7930  143.3810 C   0  0  0  0  0  3  0  0  0  0  0  0
  185.1350  178.0780  146.3590 C   0  0  0  0  0  2  0  0  0  0  0  0
  191.3280  178.1000  142.4690 C   0  0  0  0  0  2  0  0  0  0  0  0
  191.8530  177.4520  141.2800 N   0  0  0  0  0  2  0  0  0  0  0  0
  190.7430  176.7490  140.6610 C   0  0  0  0  0  2  0  0  0  0  0  0
  189.6470  177.3640  138.5070 C   0  0  0  0  0  2  0  0  0  0  0  0
  190.9010  176.7640  139.1510 C   0  0  2  0  0  3  0  0  0  0  0  0
  189.1950  176.2200  137.6900 C   0  0  0  0  0  0  0  0  0  0  0  0
  188.1750  176.2200  136.9520 O   0  0  0  0  0  0  0  0  0  0  0  0
  190.9800  175.3940  138.6420 N   0  0  0  0  0  0  0  0  0  0  0  0
  190.0430  175.1050  137.8390 N   0  0  0  0  0  0  0  0  0  0  0  0
  1  4  1  0  0  0  0
  2  6  1  0  0  0  0
  2  3  2  0  0  0  0
  3  7  1  0  0  0  0
  5  2  1  0  0  0  0
  6  1  1  1  0  0  0
  7  4  2  0  0  0  0
  8  9  1  0  0  0  0
  9 14  1  0  0  0  0
 10  8  1  1  0  0  0
 10  9  1  0  0  0  0
 10  6  1  0  0  0  0
 11 17  1  0  0  0  0
 12 11  1  0  0  0  0
 12 17  1  1  0  0  0
 13 16  1  0  0  0  0
 13 14  2  0  0  0  0
 14 12  1  0  0  0  0
 15 11  1  0  0  0  0
 16 15  2  0  0  0  0
 18  5  1  0  0  0  0
 19 18  1  0  0  0  0
 20 19  1  0  0  0  0
 21 22  1  0  0  0  0
 22 20  1  1  0  0  0
 23 26  1  0  0  0  0
 23 21  1  0  0  0  0
 24 23  2  0  0  0  0
 25 22  1  0  0  0  0
 26 25  2  0  0  0  0
M  END
>  <MODEL>
4

>  <REMARK>
 VINA RESULT:      -8.5      0.990      1.045
  Name = 
  6 active torsions:
  status: ('A' for Active; 'I' for Inactive)
    1  A    between atoms: C_3  and  C_26
    2  A    between atoms: C_10  and  N_20
    3  A    between atoms: N_15  and  C_17
    4  A    between atoms: C_17  and  N_18
    5  A    between atoms: N_18  and  C_26
    6  A    between atoms: C_21  and  C_22
                            x       y       z     vdW  Elec       q    Type
                         _______ _______ _______ _____ _____    ______ ____

>  <TORSDO>
F 6

$$$$
=
 OpenBabel10222416083D

 26 30  0  0  1  0  0  0  0  0999 V2000
  190.3230  176.9490  141.7000 C   0  0  0  0  0  2  0  0  0  0  0  0
  188.4160  178.0320  140.4060 C   0  0  0  0  0  0  0  0  0  0  0  0
  189.1090  177.8570  139.3190 N   0  0  0  0  0  0  0  0  0  0  0  0
  191.1030  177.1070  140.4340 C   0  0  0  0  0  3  0  0  0  0  0  0
  187.0810  178.5380  140.2640 N   0  0  0  0  0  2  0  0  0  0  0  0
  189.0910  177.8810  141.7670 C   0  0  1  0  0  3  0  0  0  0  0  0
  190.4940  177.4870  139.3140 C   0  0  0  0  0  3  0  0  0  0  0  0
  187.9430  176.1640  143.1200 C   0  0  0  0  0  2  0  0  0  0  0  0
  188.7990  176.9360  144.0740 N   0  0  0  0  0  0  0  0  0  0  0  0
  188.0930  177.5200  142.8940 C   0  0  1  0  0  3  0  0  0  0  0  0
  191.7220  176.8800  146.3380 N   0  0  0  0  0  0  0  0  0  0  0  0
  191.1550  177.1070  144.9870 C   0  0  2  0  0  3  0  0  0  0  0  0
  189.1040  177.1250  146.4480 C   0  0  0  0  0  3  0  0  0  0  0  0
  189.6540  177.0400  145.2060 C   0  0  0  0  0  0  0  0  0  0  0  0
  191.2460  177.0720  147.6510 C   0  0  0  0  0  3  0  0  0  0  0  0
  189.9170  177.1980  147.7070 C   0  0  0  0  0  3  0  0  0  0  0  0
  191.7960  175.9150  145.1990 C   0  0  0  0  0  2  0  0  0  0  0  0
  186.3250  179.2200  141.3050 C   0  0  0  0  0  2  0  0  0  0  0  0
  184.9280  178.8300  141.2310 N   0  0  0  0  0  2  0  0  0  0  0  0
  184.5950  178.2180  142.5050 C   0  0  0  0  0  2  0  0  0  0  0  0
  185.5140  178.7600  144.7590 C   0  0  0  0  0  2  0  0  0  0  0  0
  184.6380  179.2610  143.6070 C   0  0  2  0  0  3  0  0  0  0  0  0
  184.5250  178.7410  145.8560 C   0  0  0  0  0  0  0  0  0  0  0  0
  184.7690  178.3930  147.0410 O   0  0  0  0  0  0  0  0  0  0  0  0
  183.3040  179.4380  144.1820 N   0  0  0  0  0  0  0  0  0  0  0  0
  183.2510  179.1540  145.4160 N   0  0  0  0  0  0  0  0  0  0  0  0
  2  6  1  0  0  0  0
  3  2  2  0  0  0  0
  4  1  1  0  0  0  0
  5  2  1  0  0  0  0
  5 18  1  0  0  0  0
  6  1  1  6  0  0  0
  6 10  1  0  0  0  0
  7  3  1  0  0  0  0
  7  4  2  0  0  0  0
  8  9  1  0  0  0  0
  9 14  1  0  0  0  0
 10  8  1  6  0  0  0
 10  9  1  0  0  0  0
 11 15  1  0  0  0  0
 12 17  1  6  0  0  0
 12 14  1  0  0  0  0
 12 11  1  0  0  0  0
 13 16  1  0  0  0  0
 14 13  2  0  0  0  0
 15 16  2  0  0  0  0
 17 11  1  0  0  0  0
 19 18  1  0  0  0  0
 19 20  1  0  0  0  0
 21 23  1  0  0  0  0
 22 20  1  6  0  0  0
 22 25  1  0  0  0  0
 22 21  1  0  0  0  0
 23 24  2  0  0  0  0
 25 26  2  0  0  0  0
 26 23  1  0  0  0  0
M  END
>  <MODEL>
5

>  <REMARK>
 VINA RESULT:      -8.4      2.235      6.491
  Name = 
  6 active torsions:
  status: ('A' for Active; 'I' for Inactive)
    1  A    between atoms: C_3  and  C_26
    2  A    between atoms: C_10  and  N_20
    3  A    between atoms: N_15  and  C_17
    4  A    between atoms: C_17  and  N_18
    5  A    between atoms: N_18  and  C_26
    6  A    between atoms: C_21  and  C_22
                            x       y       z     vdW  Elec       q    Type
                         _______ _______ _______ _____ _____    ______ ____

>  <TORSDO>
F 6

$$$$
=
 OpenBabel10222416083D

 26 30  0  0  1  0  0  0  0  0999 V2000
  188.7670  177.1290  146.1070 C   0  0  0  0  0  2  0  0  0  0  0  0
  190.9420  177.1130  144.7830 C   0  0  0  0  0  0  0  0  0  0  0  0
  191.5520  176.7370  145.8700 N   0  0  0  0  0  0  0  0  0  0  0  0
  189.6450  177.0070  147.3100 C   0  0  0  0  0  3  0  0  0  0  0  0
  191.7150  177.1600  143.5750 N   0  0  0  0  0  2  0  0  0  0  0  0
  189.5190  177.6600  144.8640 C   0  0  1  0  0  3  0  0  0  0  0  0
  190.9470  176.7710  147.1690 C   0  0  0  0  0  3  0  0  0  0  0  0
  188.0710  176.2860  143.4100 C   0  0  0  0  0  2  0  0  0  0  0  0
  187.2630  177.4900  143.7780 N   0  0  0  0  0  0  0  0  0  0  0  0
  188.7360  177.4920  143.5390 C   0  0  1  0  0  3  0  0  0  0  0  0
  184.4440  179.0040  145.6320 N   0  0  0  0  0  0  0  0  0  0  0  0
  185.8950  178.7210  145.5180 C   0  0  2  0  0  3  0  0  0  0  0  0
  185.0660  178.2580  143.1860 C   0  0  0  0  0  3  0  0  0  0  0  0
  186.0440  178.1370  144.1250 C   0  0  0  0  0  0  0  0  0  0  0  0
  183.4160  179.2640  144.7040 C   0  0  0  0  0  3  0  0  0  0  0  0
  183.7320  178.8870  143.4610 C   0  0  0  0  0  3  0  0  0  0  0  0
  185.1730  177.9300  146.3720 C   0  0  0  0  0  2  0  0  0  0  0  0
  191.3890  177.9530  142.3980 C   0  0  0  0  0  2  0  0  0  0  0  0
  192.1140  177.4430  141.2470 N   0  0  0  0  0  2  0  0  0  0  0  0
  191.1210  177.0970  140.2450 C   0  0  0  0  0  2  0  0  0  0  0  0
  191.3830  175.8340  138.1110 C   0  0  0  0  0  2  0  0  0  0  0  0
  191.7530  177.1150  138.8650 C   0  0  2  0  0  3  0  0  0  0  0  0
  192.7260  175.2600  137.8890 C   0  0  0  0  0  0  0  0  0  0  0  0
  192.9560  174.1770  137.2900 O   0  0  0  0  0  0  0  0  0  0  0  0
  193.2110  177.0890  138.9820 N   0  0  0  0  0  0  0  0  0  0  0  0
  193.7370  176.0700  138.4410 N   0  0  0  0  0  0  0  0  0  0  0  0
  1  4  1  0  0  0  0
  2  6  1  0  0  0  0
  2  3  2  0  0  0  0
  3  7  1  0  0  0  0
  5  2  1  0  0  0  0
  6  1  1  1  0  0  0
  7  4  2  0  0  0  0
  8  9  1  0  0  0  0
  9 14  1  0  0  0  0
 10  8  1  1  0  0  0
 10  9  1  0  0  0  0
 10  6  1  0  0  0  0
 11 17  1  0  0  0  0
 12 11  1  0  0  0  0
 12 17  1  1  0  0  0
 13 16  1  0  0  0  0
 13 14  2  0  0  0  0
 14 12  1  0  0  0  0
 15 11  1  0  0  0  0
 16 15  2  0  0  0  0
 18  5  1  0  0  0  0
 19 18  1  0  0  0  0
 20 19  1  0  0  0  0
 21 22  1  0  0  0  0
 22 25  1  0  0  0  0
 22 20  1  1  0  0  0
 23 21  1  0  0  0  0
 23 26  1  0  0  0  0
 24 23  2  0  0  0  0
 26 25  2  0  0  0  0
M  END
>  <MODEL>
6

>  <REMARK>
 VINA RESULT:      -8.2      2.117      2.399
  Name = 
  6 active torsions:
  status: ('A' for Active; 'I' for Inactive)
    1  A    between atoms: C_3  and  C_26
    2  A    between atoms: C_10  and  N_20
    3  A    between atoms: N_15  and  C_17
    4  A    between atoms: C_17  and  N_18
    5  A    between atoms: N_18  and  C_26
    6  A    between atoms: C_21  and  C_22
                            x       y       z     vdW  Elec       q    Type
                         _______ _______ _______ _____ _____    ______ ____

>  <TORSDO>
F 6

$$$$
=
 OpenBabel10222416083D

 26 30  0  0  1  0  0  0  0  0999 V2000
  185.0720  178.2230  143.1340 C   0  0  0  0  0  2  0  0  0  0  0  0
  185.0740  178.7430  145.6270 C   0  0  0  0  0  0  0  0  0  0  0  0
  183.8020  179.0020  145.5320 N   0  0  0  0  0  0  0  0  0  0  0  0
  183.7130  178.8470  143.1340 C   0  0  0  0  0  3  0  0  0  0  0  0
  185.6550  178.7550  146.9390 N   0  0  0  0  0  2  0  0  0  0  0  0
  185.9210  178.6300  144.3610 C   0  0  1  0  0  3  0  0  0  0  0  0
  183.1180  179.1570  144.2820 C   0  0  0  0  0  3  0  0  0  0  0  0
  187.0410  176.4350  144.2040 C   0  0  0  0  0  2  0  0  0  0  0  0
  187.7640  177.3360  143.2530 N   0  0  0  0  0  0  0  0  0  0  0  0
  187.1870  177.7620  144.5630 C   0  0  1  0  0  3  0  0  0  0  0  0
  188.6430  178.4880  139.8510 N   0  0  0  0  0  0  0  0  0  0  0  0
  187.9270  178.7080  141.1300 C   0  0  2  0  0  3  0  0  0  0  0  0
  189.5670  176.8940  141.7300 C   0  0  0  0  0  3  0  0  0  0  0  0
  188.4450  177.6020  142.0330 C   0  0  0  0  0  0  0  0  0  0  0  0
  189.8640  177.8780  139.4980 C   0  0  0  0  0  3  0  0  0  0  0  0
  190.3340  177.0700  140.4530 C   0  0  0  0  0  3  0  0  0  0  0  0
  187.1840  178.2530  140.0730 C   0  0  0  0  0  2  0  0  0  0  0  0
  187.0680  178.9470  147.2330 C   0  0  0  0  0  2  0  0  0  0  0  0
  187.5800  177.7960  147.9540 N   0  0  0  0  0  2  0  0  0  0  0  0
  189.0290  177.8970  147.9310 C   0  0  0  0  0  2  0  0  0  0  0  0
  190.4970  175.8920  147.7180 C   0  0  0  0  0  2  0  0  0  0  0  0
  189.6020  176.8790  146.9620 C   0  0  2  0  0  3  0  0  0  0  0  0
  191.7880  176.1350  147.0450 C   0  0  0  0  0  0  0  0  0  0  0  0
  192.8660  175.5450  147.3200 O   0  0  0  0  0  0  0  0  0  0  0  0
  190.4840  177.5430  146.0010 N   0  0  0  0  0  0  0  0  0  0  0  0
  191.6800  177.1270  146.0510 N   0  0  0  0  0  0  0  0  0  0  0  0
  1  4  1  0  0  0  0
  2  5  1  0  0  0  0
  3  2  2  0  0  0  0
  4  7  2  0  0  0  0
  5 18  1  0  0  0  0
  6  1  1  6  0  0  0
  6 10  1  0  0  0  0
  6  2  1  0  0  0  0
  7  3  1  0  0  0  0
  9  8  1  0  0  0  0
  9 10  1  0  0  0  0
 10  8  1  1  0  0  0
 11 17  1  0  0  0  0
 11 12  1  0  0  0  0
 12 17  1  6  0  0  0
 12 14  1  0  0  0  0
 13 14  2  0  0  0  0
 14  9  1  0  0  0  0
 15 11  1  0  0  0  0
 15 16  2  0  0  0  0
 16 13  1  0  0  0  0
 18 19  1  0  0  0  0
 20 19  1  0  0  0  0
 22 21  1  0  0  0  0
 22 20  1  1  0  0  0
 23 24  2  0  0  0  0
 23 21  1  0  0  0  0
 25 26  2  0  0  0  0
 25 22  1  0  0  0  0
 26 23  1  0  0  0  0
M  END
>  <MODEL>
7

>  <REMARK>
 VINA RESULT:      -7.8      2.634      6.868
  Name = 
  6 active torsions:
  status: ('A' for Active; 'I' for Inactive)
    1  A    between atoms: C_3  and  C_26
    2  A    between atoms: C_10  and  N_20
    3  A    between atoms: N_15  and  C_17
    4  A    between atoms: C_17  and  N_18
    5  A    between atoms: N_18  and  C_26
    6  A    between atoms: C_21  and  C_22
                            x       y       z     vdW  Elec       q    Type
                         _______ _______ _______ _____ _____    ______ ____

>  <TORSDO>
F 6

$$$$
=
 OpenBabel10222416083D

 26 30  0  0  1  0  0  0  0  0999 V2000
  187.0050  177.9000  144.3190 C   0  0  0  0  0  2  0  0  0  0  0  0
  186.5940  178.5260  141.8850 C   0  0  0  0  0  0  0  0  0  0  0  0
  185.4620  179.0520  142.2550 N   0  0  0  0  0  0  0  0  0  0  0  0
  185.5680  178.2580  144.5220 C   0  0  0  0  0  3  0  0  0  0  0  0
  186.9870  178.7000  140.5160 N   0  0  0  0  0  2  0  0  0  0  0  0
  187.3480  177.6040  142.8410 C   0  0  1  0  0  3  0  0  0  0  0  0
  184.8790  178.8470  143.5480 C   0  0  0  0  0  3  0  0  0  0  0  0
  189.5460  178.7300  142.8050 C   0  0  0  0  0  2  0  0  0  0  0  0
  189.6630  177.6270  143.8100 N   0  0  0  0  0  0  0  0  0  0  0  0
  188.8680  177.5530  142.5480 C   0  0  1  0  0  3  0  0  0  0  0  0
  190.0400  176.6510  147.3560 N   0  0  0  0  0  0  0  0  0  0  0  0
  189.1640  176.9310  146.1930 C   0  0  2  0  0  3  0  0  0  0  0  0
  191.4240  176.6500  145.1180 C   0  0  0  0  0  3  0  0  0  0  0  0
  190.1340  177.0760  145.0340 C   0  0  0  0  0  0  0  0  0  0  0  0
  191.3260  176.0940  147.5100 C   0  0  0  0  0  3  0  0  0  0  0  0
  192.0280  176.0920  146.3720 C   0  0  0  0  0  3  0  0  0  0  0  0
  189.2810  177.9190  147.1350 C   0  0  0  0  0  2  0  0  0  0  0  0
  187.9260  177.8520  139.7960 C   0  0  0  0  0  2  0  0  0  0  0  0
  188.8710  178.6770  139.0640 N   0  0  0  0  0  2  0  0  0  0  0  0
  189.6160  177.7880  138.1900 C   0  0  0  0  0  2  0  0  0  0  0  0
  191.8450  177.2220  139.1550 C   0  0  0  0  0  2  0  0  0  0  0  0
  190.3860  176.7750  139.0180 C   0  0  2  0  0  3  0  0  0  0  0  0
  192.5330  176.0850  138.5090 C   0  0  0  0  0  0  0  0  0  0  0  0
  193.7800  175.9820  138.3730 O   0  0  0  0  0  0  0  0  0  0  0  0
  190.4390  175.4910  138.3170 N   0  0  0  0  0  0  0  0  0  0  0  0
  191.6190  175.1190  138.0450 N   0  0  0  0  0  0  0  0  0  0  0  0
  1  4  1  0  0  0  0
  2  3  2  0  0  0  0
  2  6  1  0  0  0  0
  3  7  1  0  0  0  0
  5  2  1  0  0  0  0
  6  1  1  1  0  0  0
  7  4  2  0  0  0  0
  8  9  1  0  0  0  0
  9 14  1  0  0  0  0
 10  8  1  6  0  0  0
 10  6  1  0  0  0  0
 10  9  1  0  0  0  0
 11 15  1  0  0  0  0
 12 17  1  1  0  0  0
 12 11  1  0  0  0  0
 13 16  1  0  0  0  0
 14 13  2  0  0  0  0
 14 12  1  0  0  0  0
 16 15  2  0  0  0  0
 17 11  1  0  0  0  0
 18  5  1  0  0  0  0
 19 18  1  0  0  0  0
 20 19  1  0  0  0  0
 22 20  1  6  0  0  0
 22 21  1  0  0  0  0
 23 21  1  0  0  0  0
 24 23  2  0  0  0  0
 25 22  1  0  0  0  0
 26 25  2  0  0  0  0
 26 23  1  0  0  0  0
M  END
>  <MODEL>
8

>  <REMARK>
 VINA RESULT:      -7.3      2.229      5.137
  Name = 
  6 active torsions:
  status: ('A' for Active; 'I' for Inactive)
    1  A    between atoms: C_3  and  C_26
    2  A    between atoms: C_10  and  N_20
    3  A    between atoms: N_15  and  C_17
    4  A    between atoms: C_17  and  N_18
    5  A    between atoms: N_18  and  C_26
    6  A    between atoms: C_21  and  C_22
                            x       y       z     vdW  Elec       q    Type
                         _______ _______ _______ _____ _____    ______ ____

>  <TORSDO>
F 6

$$$$
=
 OpenBabel10222416083D

 26 30  0  0  1  0  0  0  0  0999 V2000
  190.5040  177.0370  142.9400 C   0  0  0  0  0  2  0  0  0  0  0  0
  189.1670  177.7530  140.8940 C   0  0  0  0  0  0  0  0  0  0  0  0
  190.2560  177.6330  140.1920 N   0  0  0  0  0  0  0  0  0  0  0  0
  191.7040  177.2500  142.0730 C   0  0  0  0  0  3  0  0  0  0  0  0
  187.9530  178.0430  140.1860 N   0  0  0  0  0  2  0  0  0  0  0  0
  189.2480  177.7730  142.4190 C   0  0  1  0  0  3  0  0  0  0  0  0
  191.5590  177.4780  140.7710 C   0  0  0  0  0  3  0  0  0  0  0  0
  187.9220  176.0040  143.5180 C   0  0  0  0  0  2  0  0  0  0  0  0
  188.1310  177.0650  144.5520 N   0  0  0  0  0  0  0  0  0  0  0  0
  187.9310  177.3200  143.0940 C   0  0  1  0  0  3  0  0  0  0  0  0
  189.6680  177.7630  147.8420 N   0  0  0  0  0  0  0  0  0  0  0  0
  189.8040  177.6090  146.3740 C   0  0  2  0  0  3  0  0  0  0  0  0
  187.3160  177.8610  146.6650 C   0  0  0  0  0  3  0  0  0  0  0  0
  188.3710  177.5030  145.8840 C   0  0  0  0  0  0  0  0  0  0  0  0
  188.6520  178.2460  148.6920 C   0  0  0  0  0  3  0  0  0  0  0  0
  187.4580  178.2980  148.0930 C   0  0  0  0  0  3  0  0  0  0  0  0
  190.2010  176.5510  147.1480 C   0  0  0  0  0  2  0  0  0  0  0  0
  186.7650  178.6520  140.7670 C   0  0  0  0  0  2  0  0  0  0  0  0
  185.7730  178.8770  139.7310 N   0  0  0  0  0  2  0  0  0  0  0  0
  184.4870  178.9860  140.3980 C   0  0  0  0  0  2  0  0  0  0  0  0
  182.2080  177.9980  140.1800 C   0  0  0  0  0  2  0  0  0  0  0  0
  183.3710  178.6480  139.4260 C   0  0  2  0  0  3  0  0  0  0  0  0
  182.1610  176.6810  139.5120 C   0  0  0  0  0  0  0  0  0  0  0  0
  181.3460  175.7630  139.7870 O   0  0  0  0  0  0  0  0  0  0  0  0
  183.8280  177.6370  138.4710 N   0  0  0  0  0  0  0  0  0  0  0  0
  183.1570  176.5630  138.5230 N   0  0  0  0  0  0  0  0  0  0  0  0
  2  6  1  0  0  0  0
  3  7  1  0  0  0  0
  3  2  2  0  0  0  0
  4  1  1  0  0  0  0
  5 18  1  0  0  0  0
  5  2  1  0  0  0  0
  6  1  1  6  0  0  0
  6 10  1  0  0  0  0
  7  4  2  0  0  0  0
  8  9  1  0  0  0  0
  9 14  1  0  0  0  0
 10  8  1  6  0  0  0
 10  9  1  0  0  0  0
 11 15  1  0  0  0  0
 12 17  1  1  0  0  0
 12 11  1  0  0  0  0
 13 16  1  0  0  0  0
 14 12  1  0  0  0  0
 14 13  2  0  0  0  0
 16 15  2  0  0  0  0
 17 11  1  0  0  0  0
 19 20  1  0  0  0  0
 19 18  1  0  0  0  0
 22 21  1  0  0  0  0
 22 20  1  1  0  0  0
 23 24  2  0  0  0  0
 23 21  1  0  0  0  0
 25 26  2  0  0  0  0
 25 22  1  0  0  0  0
 26 23  1  0  0  0  0
M  END
>  <MODEL>
9

>  <REMARK>
 VINA RESULT:      -7.3      2.856      5.221
  Name = 
  6 active torsions:
  status: ('A' for Active; 'I' for Inactive)
    1  A    between atoms: C_3  and  C_26
    2  A    between atoms: C_10  and  N_20
    3  A    between atoms: N_15  and  C_17
    4  A    between atoms: C_17  and  N_18
    5  A    between atoms: N_18  and  C_26
    6  A    between atoms: C_21  and  C_22
                            x       y       z     vdW  Elec       q    Type
                         _______ _______ _______ _____ _____    ______ ____

>  <TORSDO>
F 6

$$$$
