=
 OpenBabel10222420483D

 39 43  0  0  1  0  0  0  0  0999 V2000
  181.4640  176.6950  137.9710 N   0  0  0  0  0  2  0  0  0  0  0  0
  182.8140  177.4110  139.8490 C   0  0  2  0  0  3  0  0  0  0  0  0
  181.2730  175.5440  140.0000 O   0  0  0  0  0  0  0  0  0  0  0  0
  182.9730  178.3980  138.6880 C   0  0  2  0  0  3  0  0  0  0  0  0
  182.3100  177.7580  137.4610 C   0  0  0  0  0  2  0  0  0  0  0  0
  181.7790  176.4840  139.3310 C   0  0  0  0  0  0  0  0  0  0  0  0
  183.2670  178.5040  142.1160 C   0  0  0  0  0  0  0  0  0  0  0  0
  182.3940  179.2300  143.3550 S   0  0  0  0  0  0  0  0  0  0  0  0
  179.6050  179.4290  143.1160 C   0  0  0  0  0  1  0  0  0  0  0  0
  182.3790  178.1040  141.1160 C   0  0  0  0  0  0  0  0  0  0  0  0
  180.9240  179.0200  142.5650 C   0  0  0  0  0  0  0  0  0  0  0  0
  181.0730  178.3970  141.3770 N   0  0  0  0  0  0  0  0  0  0  0  0
  185.8540  177.9740  142.2360 C   0  0  0  0  0  0  0  0  0  0  0  0
  184.6780  178.2340  142.1730 C   0  0  0  0  0  0  0  0  0  0  0  0
  187.2780  177.6220  142.3200 C   0  0  0  0  0  2  0  0  0  0  0  0
  189.2290  177.5180  143.9970 C   0  0  0  0  0  2  0  0  0  0  0  0
  189.5750  177.5840  145.4230 N   0  0  0  0  0  0  0  0  0  0  0  0
  187.7480  177.6090  143.7400 C   0  0  0  0  0  0  0  0  0  0  0  0
  188.5790  177.5030  146.4520 C   0  0  0  0  0  3  0  0  0  0  0  0
  187.2860  177.4850  146.1430 C   0  0  0  0  0  3  0  0  0  0  0  0
  186.8610  177.5560  144.7400 C   0  0  0  0  0  3  0  0  0  0  0  0
  190.9800  177.5540  145.7910 C   0  0  0  0  0  2  0  0  0  0  0  0
  191.1810  176.8180  147.1070 C   0  0  0  0  0  2  0  0  0  0  0  0
  192.8030  175.6140  148.2640 C   0  0  0  0  0  1  0  0  0  0  0  0
  192.2000  175.7940  146.9550 N   0  0  0  0  0  2  0  0  0  0  0  0
  184.8510  176.5630  137.5860 O   0  0  0  0  0  0  0  0  0  0  0  0
  184.3830  178.6810  138.4470 N   0  0  0  0  0  2  0  0  0  0  0  0
  185.2530  177.7360  137.8150 C   0  0  0  0  0  0  0  0  0  0  0  0
  186.6310  178.1690  137.3720 C   0  0  2  0  0  3  0  0  0  0  0  0
  186.7630  178.2610  135.8610 C   0  0  0  0  0  1  0  0  0  0  0  0
  189.8920  177.4000  137.3030 C   0  0  1  0  0  3  0  0  0  0  0  0
  191.1620  176.4030  139.2090 C   0  0  0  0  0  3  0  0  0  0  0  0
  190.4280  177.2360  140.1690 C   0  0  0  0  0  3  0  0  0  0  0  0
  189.0880  178.2290  138.3230 C   0  0  2  0  0  0  0  0  0  0  0  0
  189.4800  178.0840  139.7700 C   0  0  0  0  0  3  0  0  0  0  0  0
  190.9220  176.4730  137.9000 C   0  0  0  0  0  3  0  0  0  0  0  0
  187.8330  177.4240  137.9860 C   0  0  2  0  0  3  0  0  0  0  0  0
  189.0250  179.5740  137.9460 O   0  0  0  0  0  1  0  0  0  0  0  0
  188.6300  176.6150  136.9660 C   0  0  0  0  0  2  0  0  0  0  0  0
  1  6  1  0  0  0  0
  2 10  1  1  0  0  0
  4 27  1  6  0  0  0
  4  2  1  0  0  0  0
  5  1  1  0  0  0  0
  5  4  1  0  0  0  0
  6  2  1  0  0  0  0
  6  3  2  0  0  0  0
  7 14  1  0  0  0  0
  7  8  1  0  0  0  0
 10 12  1  0  0  0  0
 10  7  2  0  0  0  0
 11  9  1  0  0  0  0
 11  8  1  0  0  0  0
 12 11  2  0  0  0  0
 13 15  1  0  0  0  0
 14 13  3  0  0  0  0
 15 18  1  0  0  0  0
 16 17  1  0  0  0  0
 17 22  1  0  0  0  0
 17 19  1  0  0  0  0
 18 16  1  0  0  0  0
 18 21  2  0  0  0  0
 20 19  2  0  0  0  0
 21 20  1  0  0  0  0
 22 23  1  0  0  0  0
 25 23  1  0  0  0  0
 25 24  1  0  0  0  0
 26 28  2  0  0  0  0
 28 27  1  0  0  0  0
 29 30  1  6  0  0  0
 29 28  1  0  0  0  0
 31 39  1  1  0  0  0
 31 36  1  0  0  0  0
 31 34  1  0  0  0  0
 32 33  1  0  0  0  0
 34 38  1  6  0  0  0
 34 35  1  0  0  0  0
 35 33  2  0  0  0  0
 36 32  2  0  0  0  0
 37 29  1  6  0  0  0
 37 34  1  0  0  0  0
 39 37  1  0  0  0  0
M  END
>  <MODEL>
1

>  <REMARK>
 VINA RESULT:      -8.2      0.000      0.000
  Name = 
  10 active torsions:
  status: ('A' for Active; 'I' for Inactive)
    1  A    between atoms: C_2  and  C_34
    2  A    between atoms: C_3  and  C_25
    3  A    between atoms: C_4  and  C_29
    4  A    between atoms: C_4  and  C_30
    5  A    between atoms: C_5  and  C_18
    6  A    between atoms: C_5  and  C_21
    7  A    between atoms: C_8  and  N_14
    8  A    between atoms: N_17  and  C_20
    9  A    between atoms: C_20  and  C_27
   10  A    between atoms: C_27  and  N_33
                            x       y       z     vdW  Elec       q    Type
                         _______ _______ _______ _____ _____    ______ ____

>  <TORSDO>
F 10

$$$$
=
 OpenBabel10222420483D

 39 43  0  0  1  0  0  0  0  0999 V2000
  187.4890  179.1370  136.8420 N   0  0  0  0  0  2  0  0  0  0  0  0
  188.5750  177.1410  137.6770 C   0  0  2  0  0  3  0  0  0  0  0  0
  189.0440  179.3430  138.5780 O   0  0  0  0  0  0  0  0  0  0  0  0
  187.7330  176.7970  136.4440 C   0  0  2  0  0  3  0  0  0  0  0  0
  186.8790  178.0320  136.1260 C   0  0  0  0  0  2  0  0  0  0  0  0
  188.4390  178.6150  137.7480 C   0  0  0  0  0  0  0  0  0  0  0  0
  190.8880  176.5340  138.5830 C   0  0  0  0  0  0  0  0  0  0  0  0
  192.3830  176.0520  137.9850 S   0  0  0  0  0  0  0  0  0  0  0  0
  192.7010  175.7470  135.2140 C   0  0  0  0  0  1  0  0  0  0  0  0
  190.0090  176.7050  137.5120 C   0  0  0  0  0  0  0  0  0  0  0  0
  191.8500  176.0670  136.3900 C   0  0  0  0  0  0  0  0  0  0  0  0
  190.5570  176.4410  136.2910 N   0  0  0  0  0  0  0  0  0  0  0  0
  190.4550  177.0990  141.1290 C   0  0  0  0  0  0  0  0  0  0  0  0
  190.6330  176.8420  139.9640 C   0  0  0  0  0  0  0  0  0  0  0  0
  190.2740  177.4190  142.5520 C   0  0  0  0  0  2  0  0  0  0  0  0
  187.9400  178.3540  142.0010 C   0  0  0  0  0  2  0  0  0  0  0  0
  186.5270  178.3360  142.4030 N   0  0  0  0  0  0  0  0  0  0  0  0
  188.8250  177.5330  142.9010 C   0  0  0  0  0  0  0  0  0  0  0  0
  186.0990  177.7860  143.6560 C   0  0  0  0  0  3  0  0  0  0  0  0
  186.9630  177.1600  144.4500 C   0  0  0  0  0  3  0  0  0  0  0  0
  188.3680  177.0180  144.0480 C   0  0  0  0  0  3  0  0  0  0  0  0
  185.5700  179.0540  141.5790 C   0  0  0  0  0  2  0  0  0  0  0  0
  185.7400  178.6930  140.1100 C   0  0  0  0  0  2  0  0  0  0  0  0
  183.5680  179.2980  139.5280 C   0  0  0  0  0  1  0  0  0  0  0  0
  184.9670  179.6020  139.2810 N   0  0  0  0  0  2  0  0  0  0  0  0
  188.0480  174.2540  135.2000 O   0  0  0  0  0  0  0  0  0  0  0  0
  186.9030  175.6260  136.7010 N   0  0  0  0  0  2  0  0  0  0  0  0
  187.1680  174.3550  136.0980 C   0  0  0  0  0  0  0  0  0  0  0  0
  186.4320  173.1290  136.5840 C   0  0  2  0  0  3  0  0  0  0  0  0
  187.2870  171.8730  136.5450 C   0  0  0  0  0  1  0  0  0  0  0  0
  183.3060  171.9790  136.9490 C   0  0  1  0  0  3  0  0  0  0  0  0
  181.4150  172.4720  135.3920 C   0  0  0  0  0  3  0  0  0  0  0  0
  181.8780  173.8550  135.2240 C   0  0  0  0  0  3  0  0  0  0  0  0
  183.8150  173.4150  136.7220 C   0  0  2  0  0  0  0  0  0  0  0  0
  182.9750  174.2990  135.8380 C   0  0  0  0  0  3  0  0  0  0  0  0
  182.0620  171.6120  136.1770 C   0  0  0  0  0  3  0  0  0  0  0  0
  185.0360  172.8630  135.9850 C   0  0  2  0  0  3  0  0  0  0  0  0
  184.1140  174.0440  137.9340 O   0  0  0  0  0  1  0  0  0  0  0  0
  184.5350  171.4420  136.2250 C   0  0  0  0  0  2  0  0  0  0  0  0
  1  6  1  0  0  0  0
  2 10  1  6  0  0  0
  2  6  1  0  0  0  0
  4 27  1  1  0  0  0
  4  2  1  0  0  0  0
  5  4  1  0  0  0  0
  5  1  1  0  0  0  0
  6  3  2  0  0  0  0
  7 14  1  0  0  0  0
  8  7  1  0  0  0  0
  9 11  1  0  0  0  0
 10  7  2  0  0  0  0
 11  8  1  0  0  0  0
 12 11  2  0  0  0  0
 12 10  1  0  0  0  0
 13 15  1  0  0  0  0
 14 13  3  0  0  0  0
 15 18  1  0  0  0  0
 16 17  1  0  0  0  0
 16 18  1  0  0  0  0
 17 19  1  0  0  0  0
 18 21  2  0  0  0  0
 19 20  2  0  0  0  0
 21 20  1  0  0  0  0
 22 17  1  0  0  0  0
 23 22  1  0  0  0  0
 25 24  1  0  0  0  0
 25 23  1  0  0  0  0
 26 28  2  0  0  0  0
 28 29  1  0  0  0  0
 28 27  1  0  0  0  0
 29 30  1  6  0  0  0
 31 36  1  6  0  0  0
 32 36  2  0  0  0  0
 33 32  1  0  0  0  0
 33 35  2  0  0  0  0
 34 31  1  0  0  0  0
 34 38  1  1  0  0  0
 35 34  1  0  0  0  0
 37 39  1  0  0  0  0
 37 29  1  1  0  0  0
 37 34  1  0  0  0  0
 39 31  1  0  0  0  0
M  END
>  <MODEL>
2

>  <REMARK>
 VINA RESULT:      -7.8      3.832      7.895
  Name = 
  10 active torsions:
  status: ('A' for Active; 'I' for Inactive)
    1  A    between atoms: C_2  and  C_34
    2  A    between atoms: C_3  and  C_25
    3  A    between atoms: C_4  and  C_29
    4  A    between atoms: C_4  and  C_30
    5  A    between atoms: C_5  and  C_18
    6  A    between atoms: C_5  and  C_21
    7  A    between atoms: C_8  and  N_14
    8  A    between atoms: N_17  and  C_20
    9  A    between atoms: C_20  and  C_27
   10  A    between atoms: C_27  and  N_33
                            x       y       z     vdW  Elec       q    Type
                         _______ _______ _______ _____ _____    ______ ____

>  <TORSDO>
F 10

$$$$
=
 OpenBabel10222420483D

 39 43  0  0  1  0  0  0  0  0999 V2000
  182.2490  175.0080  138.5240 N   0  0  0  0  0  2  0  0  0  0  0  0
  182.9520  177.3010  138.8520 C   0  0  2  0  0  3  0  0  0  0  0  0
  181.3200  176.2290  140.2900 O   0  0  0  0  0  0  0  0  0  0  0  0
  183.5540  176.7540  137.5540 C   0  0  2  0  0  3  0  0  0  0  0  0
  183.2880  175.2420  137.5380 C   0  0  0  0  0  2  0  0  0  0  0  0
  182.0830  176.1830  139.2900 C   0  0  0  0  0  0  0  0  0  0  0  0
  181.7330  179.4050  139.6440 C   0  0  0  0  0  0  0  0  0  0  0  0
  180.9050  180.7040  138.9700 S   0  0  0  0  0  0  0  0  0  0  0  0
  180.6410  180.8450  136.1800 C   0  0  0  0  0  1  0  0  0  0  0  0
  182.1740  178.5710  138.6150 C   0  0  0  0  0  0  0  0  0  0  0  0
  181.1530  180.1620  137.3970 C   0  0  0  0  0  0  0  0  0  0  0  0
  181.8440  179.0030  137.3640 N   0  0  0  0  0  0  0  0  0  0  0  0
  181.9120  178.9830  142.2480 C   0  0  0  0  0  0  0  0  0  0  0  0
  181.8320  179.1560  141.0560 C   0  0  0  0  0  0  0  0  0  0  0  0
  182.0000  178.8080  143.7040 C   0  0  0  0  0  2  0  0  0  0  0  0
  184.4460  178.2070  143.1730 C   0  0  0  0  0  2  0  0  0  0  0  0
  185.8160  178.2290  143.7010 N   0  0  0  0  0  0  0  0  0  0  0  0
  183.4230  178.7170  144.1530 C   0  0  0  0  0  0  0  0  0  0  0  0
  186.0950  178.4870  145.0840 C   0  0  0  0  0  3  0  0  0  0  0  0
  185.1190  178.8370  145.9170 C   0  0  0  0  0  3  0  0  0  0  0  0
  183.7410  178.9700  145.4280 C   0  0  0  0  0  3  0  0  0  0  0  0
  186.8960  177.8040  142.8270 C   0  0  0  0  0  2  0  0  0  0  0  0
  187.8400  176.8560  143.5530 C   0  0  0  0  0  2  0  0  0  0  0  0
  190.1230  176.4630  143.7810 C   0  0  0  0  0  1  0  0  0  0  0  0
  189.1160  177.5090  143.7900 N   0  0  0  0  0  2  0  0  0  0  0  0
  185.0530  177.0880  135.1560 O   0  0  0  0  0  0  0  0  0  0  0  0
  184.9810  177.0460  137.4880 N   0  0  0  0  0  2  0  0  0  0  0  0
  185.6550  177.2800  136.2480 C   0  0  0  0  0  0  0  0  0  0  0  0
  187.0680  177.8140  136.2540 C   0  0  2  0  0  3  0  0  0  0  0  0
  187.7200  177.7760  134.8830 C   0  0  0  0  0  1  0  0  0  0  0  0
  190.1820  177.4420  137.4340 C   0  0  1  0  0  3  0  0  0  0  0  0
  190.7500  176.7420  139.7640 C   0  0  0  0  0  3  0  0  0  0  0  0
  189.6470  177.5460  140.3040 C   0  0  0  0  0  3  0  0  0  0  0  0
  188.9930  178.2380  138.0050 C   0  0  2  0  0  0  0  0  0  0  0  0
  188.8400  178.2440  139.5030 C   0  0  0  0  0  3  0  0  0  0  0  0
  190.9990  176.6900  138.4560 C   0  0  0  0  0  3  0  0  0  0  0  0
  188.0230  177.2650  137.3330 C   0  0  2  0  0  3  0  0  0  0  0  0
  188.9560  179.5350  137.4850 O   0  0  0  0  0  1  0  0  0  0  0  0
  189.2040  176.4880  136.7580 C   0  0  0  0  0  2  0  0  0  0  0  0
  1  6  1  0  0  0  0
  2 10  1  6  0  0  0
  2  6  1  0  0  0  0
  4 27  1  1  0  0  0
  4  2  1  0  0  0  0
  5  4  1  0  0  0  0
  5  1  1  0  0  0  0
  6  3  2  0  0  0  0
  7 14  1  0  0  0  0
  8  7  1  0  0  0  0
  9 11  1  0  0  0  0
 10  7  2  0  0  0  0
 11  8  1  0  0  0  0
 12 11  2  0  0  0  0
 12 10  1  0  0  0  0
 13 15  1  0  0  0  0
 14 13  3  0  0  0  0
 15 18  1  0  0  0  0
 16 17  1  0  0  0  0
 16 18  1  0  0  0  0
 17 19  1  0  0  0  0
 18 21  2  0  0  0  0
 19 20  2  0  0  0  0
 21 20  1  0  0  0  0
 22 23  1  0  0  0  0
 22 17  1  0  0  0  0
 23 25  1  0  0  0  0
 24 25  1  0  0  0  0
 26 28  2  0  0  0  0
 28 29  1  0  0  0  0
 28 27  1  0  0  0  0
 29 30  1  6  0  0  0
 31 39  1  6  0  0  0
 31 34  1  0  0  0  0
 31 36  1  0  0  0  0
 32 33  1  0  0  0  0
 34 38  1  6  0  0  0
 34 35  1  0  0  0  0
 35 33  2  0  0  0  0
 36 32  2  0  0  0  0
 37 29  1  6  0  0  0
 37 34  1  0  0  0  0
 39 37  1  0  0  0  0
M  END
>  <MODEL>
3

>  <REMARK>
 VINA RESULT:      -7.7      2.084      3.282
  Name = 
  10 active torsions:
  status: ('A' for Active; 'I' for Inactive)
    1  A    between atoms: C_2  and  C_34
    2  A    between atoms: C_3  and  C_25
    3  A    between atoms: C_4  and  C_29
    4  A    between atoms: C_4  and  C_30
    5  A    between atoms: C_5  and  C_18
    6  A    between atoms: C_5  and  C_21
    7  A    between atoms: C_8  and  N_14
    8  A    between atoms: N_17  and  C_20
    9  A    between atoms: C_20  and  C_27
   10  A    between atoms: C_27  and  N_33
                            x       y       z     vdW  Elec       q    Type
                         _______ _______ _______ _____ _____    ______ ____

>  <TORSDO>
F 10

$$$$
=
 OpenBabel10222420483D

 39 43  0  0  1  0  0  0  0  0999 V2000
  180.1960  179.6020  137.5500 N   0  0  0  0  0  2  0  0  0  0  0  0
  182.2530  178.3520  137.8080 C   0  0  2  0  0  3  0  0  0  0  0  0
  181.2940  178.8310  135.6330 O   0  0  0  0  0  0  0  0  0  0  0  0
  181.6240  178.6090  139.1820 C   0  0  2  0  0  3  0  0  0  0  0  0
  180.4830  179.6130  138.9730 C   0  0  0  0  0  2  0  0  0  0  0  0
  181.2290  178.9020  136.8890 C   0  0  0  0  0  0  0  0  0  0  0  0
  183.7780  176.3300  137.4560 C   0  0  0  0  0  0  0  0  0  0  0  0
  183.6280  174.6750  137.1990 S   0  0  0  0  0  0  0  0  0  0  0  0
  181.0620  173.5470  137.0780 C   0  0  0  0  0  1  0  0  0  0  0  0
  182.5010  176.8830  137.5750 C   0  0  0  0  0  0  0  0  0  0  0  0
  181.9480  174.7260  137.2620 C   0  0  0  0  0  0  0  0  0  0  0  0
  181.4870  175.9780  137.4650 N   0  0  0  0  0  0  0  0  0  0  0  0
  186.0710  177.6400  137.3490 C   0  0  0  0  0  0  0  0  0  0  0  0
  185.0250  177.0430  137.4180 C   0  0  0  0  0  0  0  0  0  0  0  0
  187.3400  178.3720  137.2280 C   0  0  0  0  0  2  0  0  0  0  0  0
  189.0220  177.9830  139.1380 C   0  0  0  0  0  2  0  0  0  0  0  0
  190.0860  177.0940  139.6210 N   0  0  0  0  0  0  0  0  0  0  0  0
  188.4760  177.5820  137.7930 C   0  0  0  0  0  0  0  0  0  0  0  0
  190.6860  176.0990  138.7810 C   0  0  0  0  0  3  0  0  0  0  0  0
  190.2120  175.8680  137.5610 C   0  0  0  0  0  3  0  0  0  0  0  0
  189.0590  176.6260  137.0600 C   0  0  0  0  0  3  0  0  0  0  0  0
  190.6560  177.3550  140.9310 C   0  0  0  0  0  2  0  0  0  0  0  0
  189.7380  176.8460  142.0340 C   0  0  0  0  0  2  0  0  0  0  0  0
  191.2780  176.0390  143.5820 C   0  0  0  0  0  1  0  0  0  0  0  0
  190.2800  175.6280  142.6110 N   0  0  0  0  0  2  0  0  0  0  0  0
  183.1730  177.0230  140.9700 O   0  0  0  0  0  0  0  0  0  0  0  0
  182.6220  179.1220  140.1130 N   0  0  0  0  0  2  0  0  0  0  0  0
  183.4220  178.2580  140.9280 C   0  0  0  0  0  0  0  0  0  0  0  0
  184.5980  178.8250  141.6880 C   0  0  2  0  0  3  0  0  0  0  0  0
  185.8580  178.9150  140.8440 C   0  0  0  0  0  1  0  0  0  0  0  0
  186.6200  178.5650  144.3470 C   0  0  1  0  0  3  0  0  0  0  0  0
  185.9620  177.5870  146.5490 C   0  0  0  0  0  3  0  0  0  0  0  0
  184.6320  178.2020  146.4560 C   0  0  0  0  0  3  0  0  0  0  0  0
  185.2040  179.1590  144.2310 C   0  0  2  0  0  0  0  0  0  0  0  0
  184.2790  178.9330  145.3980 C   0  0  0  0  0  3  0  0  0  0  0  0
  186.8730  177.7480  145.5910 C   0  0  0  0  0  3  0  0  0  0  0  0
  184.9040  178.2120  143.0700 C   0  0  2  0  0  3  0  0  0  0  0  0
  185.2500  180.5100  143.8730 O   0  0  0  0  0  1  0  0  0  0  0  0
  186.3130  177.6360  143.1790 C   0  0  0  0  0  2  0  0  0  0  0  0
  1  5  1  0  0  0  0
  2 10  1  6  0  0  0
  2  4  1  0  0  0  0
  3  6  2  0  0  0  0
  4 27  1  1  0  0  0
  5  4  1  0  0  0  0
  6  1  1  0  0  0  0
  6  2  1  0  0  0  0
  7 10  2  0  0  0  0
  8 11  1  0  0  0  0
  8  7  1  0  0  0  0
  9 11  1  0  0  0  0
 11 12  2  0  0  0  0
 12 10  1  0  0  0  0
 13 14  3  0  0  0  0
 14  7  1  0  0  0  0
 15 13  1  0  0  0  0
 15 18  1  0  0  0  0
 16 17  1  0  0  0  0
 17 22  1  0  0  0  0
 18 16  1  0  0  0  0
 19 17  1  0  0  0  0
 20 19  2  0  0  0  0
 21 20  1  0  0  0  0
 21 18  2  0  0  0  0
 22 23  1  0  0  0  0
 23 25  1  0  0  0  0
 25 24  1  0  0  0  0
 27 28  1  0  0  0  0
 28 26  2  0  0  0  0
 28 29  1  0  0  0  0
 29 30  1  6  0  0  0
 31 39  1  6  0  0  0
 31 36  1  0  0  0  0
 33 32  1  0  0  0  0
 34 38  1  6  0  0  0
 34 31  1  0  0  0  0
 34 35  1  0  0  0  0
 35 33  2  0  0  0  0
 36 32  2  0  0  0  0
 37 29  1  6  0  0  0
 37 39  1  0  0  0  0
 37 34  1  0  0  0  0
M  END
>  <MODEL>
4

>  <REMARK>
 VINA RESULT:      -7.7      2.721      6.019
  Name = 
  10 active torsions:
  status: ('A' for Active; 'I' for Inactive)
    1  A    between atoms: C_2  and  C_34
    2  A    between atoms: C_3  and  C_25
    3  A    between atoms: C_4  and  C_29
    4  A    between atoms: C_4  and  C_30
    5  A    between atoms: C_5  and  C_18
    6  A    between atoms: C_5  and  C_21
    7  A    between atoms: C_8  and  N_14
    8  A    between atoms: N_17  and  C_20
    9  A    between atoms: C_20  and  C_27
   10  A    between atoms: C_27  and  N_33
                            x       y       z     vdW  Elec       q    Type
                         _______ _______ _______ _____ _____    ______ ____

>  <TORSDO>
F 10

$$$$
=
 OpenBabel10222420483D

 39 43  0  0  1  0  0  0  0  0999 V2000
  181.4930  180.4590  138.9240 N   0  0  0  0  0  2  0  0  0  0  0  0
  181.6380  178.2510  137.9420 C   0  0  2  0  0  3  0  0  0  0  0  0
  179.5520  179.4820  138.0570 O   0  0  0  0  0  0  0  0  0  0  0  0
  182.9770  178.6200  138.5900 C   0  0  2  0  0  3  0  0  0  0  0  0
  182.9010  180.1090  138.9570 C   0  0  0  0  0  2  0  0  0  0  0  0
  180.7820  179.4010  138.3160 C   0  0  0  0  0  0  0  0  0  0  0  0
  180.8320  176.7170  139.8230 C   0  0  0  0  0  0  0  0  0  0  0  0
  180.2620  175.1460  140.0040 S   0  0  0  0  0  0  0  0  0  0  0  0
  180.0290  173.5170  137.7310 C   0  0  0  0  0  1  0  0  0  0  0  0
  181.1040  176.9440  138.4730 C   0  0  0  0  0  0  0  0  0  0  0  0
  180.3710  174.8220  138.3570 C   0  0  0  0  0  0  0  0  0  0  0  0
  180.8430  175.8780  137.6630 N   0  0  0  0  0  0  0  0  0  0  0  0
  181.3670  178.3710  141.8160 C   0  0  0  0  0  0  0  0  0  0  0  0
  181.1100  177.6060  140.9190 C   0  0  0  0  0  0  0  0  0  0  0  0
  181.6960  179.3240  142.8840 C   0  0  0  0  0  2  0  0  0  0  0  0
  184.1490  178.6050  142.5760 C   0  0  0  0  0  2  0  0  0  0  0  0
  185.4230  178.3980  143.2760 N   0  0  0  0  0  0  0  0  0  0  0  0
  183.0270  179.0160  143.4920 C   0  0  0  0  0  0  0  0  0  0  0  0
  185.5090  178.3630  144.7070 C   0  0  0  0  0  3  0  0  0  0  0  0
  184.4450  178.6400  145.4550 C   0  0  0  0  0  3  0  0  0  0  0  0
  183.1680  178.9930  144.8220 C   0  0  0  0  0  3  0  0  0  0  0  0
  186.5910  178.0450  142.4860 C   0  0  0  0  0  2  0  0  0  0  0  0
  187.5750  177.2270  143.3090 C   0  0  0  0  0  2  0  0  0  0  0  0
  189.3300  177.8770  144.6950 C   0  0  0  0  0  1  0  0  0  0  0  0
  188.8770  177.8720  143.3150 N   0  0  0  0  0  2  0  0  0  0  0  0
  185.7400  178.7240  139.2720 O   0  0  0  0  0  0  0  0  0  0  0  0
  184.0790  178.3520  137.6750 N   0  0  0  0  0  2  0  0  0  0  0  0
  185.4450  178.3440  138.1060 C   0  0  0  0  0  0  0  0  0  0  0  0
  186.5180  177.8250  137.1790 C   0  0  2  0  0  3  0  0  0  0  0  0
  185.9710  176.9130  136.0940 C   0  0  0  0  0  1  0  0  0  0  0  0
  189.8290  177.3100  137.1460 C   0  0  1  0  0  3  0  0  0  0  0  0
  191.1700  176.5260  139.1030 C   0  0  0  0  0  3  0  0  0  0  0  0
  190.3720  177.3540  140.0160 C   0  0  0  0  0  3  0  0  0  0  0  0
  188.9620  178.1310  138.1190 C   0  0  2  0  0  0  0  0  0  0  0  0
  189.3610  178.1010  139.5710 C   0  0  0  0  0  3  0  0  0  0  0  0
  190.9270  176.5020  137.7930 C   0  0  0  0  0  3  0  0  0  0  0  0
  187.7740  177.2120  137.8320 C   0  0  2  0  0  3  0  0  0  0  0  0
  188.7950  179.4430  137.6650 O   0  0  0  0  0  1  0  0  0  0  0  0
  188.6330  176.4110  136.8580 C   0  0  0  0  0  2  0  0  0  0  0  0
  1  5  1  0  0  0  0
  2  6  1  0  0  0  0
  2 10  1  1  0  0  0
  2  4  1  0  0  0  0
  3  6  2  0  0  0  0
  4 27  1  6  0  0  0
  4  5  1  0  0  0  0
  6  1  1  0  0  0  0
  7  8  1  0  0  0  0
  7 14  1  0  0  0  0
  9 11  1  0  0  0  0
 10  7  2  0  0  0  0
 11  8  1  0  0  0  0
 12 11  2  0  0  0  0
 12 10  1  0  0  0  0
 13 15  1  0  0  0  0
 14 13  3  0  0  0  0
 15 18  1  0  0  0  0
 16 17  1  0  0  0  0
 16 18  1  0  0  0  0
 17 19  1  0  0  0  0
 18 21  2  0  0  0  0
 19 20  2  0  0  0  0
 21 20  1  0  0  0  0
 22 17  1  0  0  0  0
 22 23  1  0  0  0  0
 23 25  1  0  0  0  0
 25 24  1  0  0  0  0
 27 28  1  0  0  0  0
 28 26  2  0  0  0  0
 29 30  1  6  0  0  0
 29 28  1  0  0  0  0
 31 39  1  1  0  0  0
 31 36  1  0  0  0  0
 31 34  1  0  0  0  0
 32 33  1  0  0  0  0
 34 38  1  6  0  0  0
 34 35  1  0  0  0  0
 35 33  2  0  0  0  0
 36 32  2  0  0  0  0
 37 29  1  6  0  0  0
 37 34  1  0  0  0  0
 39 37  1  0  0  0  0
M  END
>  <MODEL>
5

>  <REMARK>
 VINA RESULT:      -7.6      2.176      3.762
  Name = 
  10 active torsions:
  status: ('A' for Active; 'I' for Inactive)
    1  A    between atoms: C_2  and  C_34
    2  A    between atoms: C_3  and  C_25
    3  A    between atoms: C_4  and  C_29
    4  A    between atoms: C_4  and  C_30
    5  A    between atoms: C_5  and  C_18
    6  A    between atoms: C_5  and  C_21
    7  A    between atoms: C_8  and  N_14
    8  A    between atoms: N_17  and  C_20
    9  A    between atoms: C_20  and  C_27
   10  A    between atoms: C_27  and  N_33
                            x       y       z     vdW  Elec       q    Type
                         _______ _______ _______ _____ _____    ______ ____

>  <TORSDO>
F 10

$$$$
=
 OpenBabel10222420483D

 39 43  0  0  1  0  0  0  0  0999 V2000
  182.1300  174.9220  137.0050 N   0  0  0  0  0  2  0  0  0  0  0  0
  183.2060  176.8440  138.0110 C   0  0  2  0  0  3  0  0  0  0  0  0
  181.2900  175.7550  139.0240 O   0  0  0  0  0  0  0  0  0  0  0  0
  183.8080  176.5770  136.6270 C   0  0  2  0  0  3  0  0  0  0  0  0
  183.2750  175.2150  136.1620 C   0  0  0  0  0  2  0  0  0  0  0  0
  182.1150  175.8420  138.0760 C   0  0  0  0  0  0  0  0  0  0  0  0
  183.1790  179.1710  139.0720 C   0  0  0  0  0  0  0  0  0  0  0  0
  182.3520  180.6230  138.8900 S   0  0  0  0  0  0  0  0  0  0  0  0
  180.3690  180.8170  136.9140 C   0  0  0  0  0  1  0  0  0  0  0  0
  182.6940  178.2570  138.1340 C   0  0  0  0  0  0  0  0  0  0  0  0
  181.4210  180.0360  137.6180 C   0  0  0  0  0  0  0  0  0  0  0  0
  181.7120  178.7510  137.3270 N   0  0  0  0  0  0  0  0  0  0  0  0
  184.9460  178.7060  140.9830 C   0  0  0  0  0  0  0  0  0  0  0  0
  184.1260  178.9070  140.1210 C   0  0  0  0  0  0  0  0  0  0  0  0
  185.9660  178.4870  142.0170 C   0  0  0  0  0  2  0  0  0  0  0  0
  186.1330  177.9520  144.5300 C   0  0  0  0  0  2  0  0  0  0  0  0
  185.4890  178.1590  145.8340 N   0  0  0  0  0  0  0  0  0  0  0  0
  185.3730  178.5720  143.3870 C   0  0  0  0  0  0  0  0  0  0  0  0
  184.1620  178.6890  145.9520 C   0  0  0  0  0  3  0  0  0  0  0  0
  183.5100  179.1270  144.8790 C   0  0  0  0  0  3  0  0  0  0  0  0
  184.1460  179.0790  143.5570 C   0  0  0  0  0  3  0  0  0  0  0  0
  186.1570  177.6460  147.0180 C   0  0  0  0  0  2  0  0  0  0  0  0
  187.6410  177.4330  146.7540 C   0  0  0  0  0  2  0  0  0  0  0  0
  189.3360  178.1810  148.1640 C   0  0  0  0  0  1  0  0  0  0  0  0
  188.3320  177.1440  147.9980 N   0  0  0  0  0  2  0  0  0  0  0  0
  185.5350  177.5850  134.6000 O   0  0  0  0  0  0  0  0  0  0  0  0
  185.2640  176.5870  136.6920 N   0  0  0  0  0  2  0  0  0  0  0  0
  186.0690  177.1830  135.6690 C   0  0  0  0  0  0  0  0  0  0  0  0
  187.5480  177.3810  135.9020 C   0  0  2  0  0  3  0  0  0  0  0  0
  188.4060  176.7530  134.8170 C   0  0  0  0  0  1  0  0  0  0  0  0
  190.1530  177.0170  137.9790 C   0  0  1  0  0  3  0  0  0  0  0  0
  189.9850  176.8860  140.4680 C   0  0  0  0  0  3  0  0  0  0  0  0
  188.9300  177.9070  140.4780 C   0  0  0  0  0  3  0  0  0  0  0  0
  189.0070  178.0470  137.9950 C   0  0  2  0  0  0  0  0  0  0  0  0
  188.4810  178.4520  139.3470 C   0  0  0  0  0  3  0  0  0  0  0  0
  190.5460  176.4760  139.3320 C   0  0  0  0  0  3  0  0  0  0  0  0
  188.0920  177.0350  137.3030 C   0  0  2  0  0  3  0  0  0  0  0  0
  189.3190  179.1640  137.2150 O   0  0  0  0  0  1  0  0  0  0  0  0
  189.2350  176.0240  137.2770 C   0  0  0  0  0  2  0  0  0  0  0  0
  1  6  1  0  0  0  0
  2  6  1  0  0  0  0
  2 10  1  6  0  0  0
  4 27  1  1  0  0  0
  4  2  1  0  0  0  0
  5  4  1  0  0  0  0
  5  1  1  0  0  0  0
  6  3  2  0  0  0  0
  7 14  1  0  0  0  0
  8  7  1  0  0  0  0
  9 11  1  0  0  0  0
 10  7  2  0  0  0  0
 11  8  1  0  0  0  0
 12 11  2  0  0  0  0
 12 10  1  0  0  0  0
 13 15  1  0  0  0  0
 14 13  3  0  0  0  0
 15 18  1  0  0  0  0
 16 17  1  0  0  0  0
 17 19  1  0  0  0  0
 17 22  1  0  0  0  0
 18 21  2  0  0  0  0
 18 16  1  0  0  0  0
 20 19  2  0  0  0  0
 21 20  1  0  0  0  0
 23 22  1  0  0  0  0
 23 25  1  0  0  0  0
 25 24  1  0  0  0  0
 26 28  2  0  0  0  0
 28 29  1  0  0  0  0
 28 27  1  0  0  0  0
 29 30  1  6  0  0  0
 31 39  1  6  0  0  0
 31 34  1  0  0  0  0
 31 36  1  0  0  0  0
 32 33  1  0  0  0  0
 34 38  1  6  0  0  0
 34 35  1  0  0  0  0
 35 33  2  0  0  0  0
 36 32  2  0  0  0  0
 37 29  1  6  0  0  0
 37 34  1  0  0  0  0
 39 37  1  0  0  0  0
M  END
>  <MODEL>
6

>  <REMARK>
 VINA RESULT:      -7.6      2.281      3.077
  Name = 
  10 active torsions:
  status: ('A' for Active; 'I' for Inactive)
    1  A    between atoms: C_2  and  C_34
    2  A    between atoms: C_3  and  C_25
    3  A    between atoms: C_4  and  C_29
    4  A    between atoms: C_4  and  C_30
    5  A    between atoms: C_5  and  C_18
    6  A    between atoms: C_5  and  C_21
    7  A    between atoms: C_8  and  N_14
    8  A    between atoms: N_17  and  C_20
    9  A    between atoms: C_20  and  C_27
   10  A    between atoms: C_27  and  N_33
                            x       y       z     vdW  Elec       q    Type
                         _______ _______ _______ _____ _____    ______ ____

>  <TORSDO>
F 10

$$$$
=
 OpenBabel10222420483D

 39 43  0  0  1  0  0  0  0  0999 V2000
  186.2040  178.7320  137.8360 N   0  0  0  0  0  2  0  0  0  0  0  0
  188.2370  177.4400  137.5990 C   0  0  2  0  0  3  0  0  0  0  0  0
  187.0290  178.3150  135.6870 O   0  0  0  0  0  0  0  0  0  0  0  0
  187.7950  177.4470  139.0660 C   0  0  2  0  0  3  0  0  0  0  0  0
  186.6670  178.4810  139.1890 C   0  0  0  0  0  2  0  0  0  0  0  0
  187.1240  178.1570  136.9330 C   0  0  0  0  0  0  0  0  0  0  0  0
  187.3410  175.1690  136.8380 C   0  0  0  0  0  0  0  0  0  0  0  0
  187.9460  173.7080  136.2680 S   0  0  0  0  0  0  0  0  0  0  0  0
  190.7210  173.4140  135.9690 C   0  0  0  0  0  1  0  0  0  0  0  0
  188.4090  176.0360  137.0750 C   0  0  0  0  0  0  0  0  0  0  0  0
  189.5400  174.2410  136.3310 C   0  0  0  0  0  0  0  0  0  0  0  0
  189.6330  175.5080  136.7880 N   0  0  0  0  0  0  0  0  0  0  0  0
  184.7880  175.5650  137.3970 C   0  0  0  0  0  0  0  0  0  0  0  0
  185.9570  175.4030  137.1490 C   0  0  0  0  0  0  0  0  0  0  0  0
  183.3580  175.7260  137.6940 C   0  0  0  0  0  2  0  0  0  0  0  0
  183.1980  177.0890  139.8730 C   0  0  0  0  0  2  0  0  0  0  0  0
  182.9840  178.4360  140.4190 N   0  0  0  0  0  0  0  0  0  0  0  0
  183.0900  177.0320  138.3720 C   0  0  0  0  0  0  0  0  0  0  0  0
  182.4910  179.5140  139.6130 C   0  0  0  0  0  3  0  0  0  0  0  0
  182.3230  179.3580  138.3030 C   0  0  0  0  0  3  0  0  0  0  0  0
  182.6500  178.0780  137.6630 C   0  0  0  0  0  3  0  0  0  0  0  0
  183.1110  178.6220  141.8530 C   0  0  0  0  0  2  0  0  0  0  0  0
  184.5520  178.4220  142.3000 C   0  0  0  0  0  2  0  0  0  0  0  0
  183.4780  179.0840  144.2570 C   0  0  0  0  0  1  0  0  0  0  0  0
  184.7680  179.0580  143.5890 N   0  0  0  0  0  2  0  0  0  0  0  0
  187.8230  177.1300  141.8950 O   0  0  0  0  0  0  0  0  0  0  0  0
  188.9170  177.7740  139.9370 N   0  0  0  0  0  2  0  0  0  0  0  0
  188.8910  177.5150  141.3450 C   0  0  0  0  0  0  0  0  0  0  0  0
  190.1600  177.6460  142.1530 C   0  0  2  0  0  3  0  0  0  0  0  0
  191.3970  177.2190  141.3820 C   0  0  0  0  0  1  0  0  0  0  0  0
  191.6740  177.2150  145.1110 C   0  0  1  0  0  3  0  0  0  0  0  0
  190.5480  176.3880  147.1820 C   0  0  0  0  0  3  0  0  0  0  0  0
  189.3390  177.1590  146.8650 C   0  0  0  0  0  3  0  0  0  0  0  0
  190.3820  177.9760  144.7590 C   0  0  2  0  0  0  0  0  0  0  0  0
  189.2580  177.8980  145.7590 C   0  0  0  0  0  3  0  0  0  0  0  0
  191.6160  176.4090  146.3860 C   0  0  0  0  0  3  0  0  0  0  0  0
  190.1570  177.0400  143.5710 C   0  0  2  0  0  3  0  0  0  0  0  0
  190.6550  179.2990  144.4020 O   0  0  0  0  0  1  0  0  0  0  0  0
  191.4460  176.2980  143.9150 C   0  0  0  0  0  2  0  0  0  0  0  0
  1  5  1  0  0  0  0
  2 10  1  6  0  0  0
  2  4  1  0  0  0  0
  3  6  2  0  0  0  0
  4  5  1  0  0  0  0
  4 27  1  1  0  0  0
  6  2  1  0  0  0  0
  6  1  1  0  0  0  0
  7 10  2  0  0  0  0
  7 14  1  0  0  0  0
  8 11  1  0  0  0  0
  8  7  1  0  0  0  0
  9 11  1  0  0  0  0
 11 12  2  0  0  0  0
 12 10  1  0  0  0  0
 13 15  1  0  0  0  0
 14 13  3  0  0  0  0
 15 18  1  0  0  0  0
 16 17  1  0  0  0  0
 17 22  1  0  0  0  0
 18 16  1  0  0  0  0
 19 17  1  0  0  0  0
 20 19  2  0  0  0  0
 21 20  1  0  0  0  0
 21 18  2  0  0  0  0
 22 23  1  0  0  0  0
 23 25  1  0  0  0  0
 25 24  1  0  0  0  0
 27 28  1  0  0  0  0
 28 26  2  0  0  0  0
 28 29  1  0  0  0  0
 29 30  1  6  0  0  0
 31 39  1  6  0  0  0
 31 36  1  0  0  0  0
 33 32  1  0  0  0  0
 34 38  1  6  0  0  0
 34 31  1  0  0  0  0
 34 35  1  0  0  0  0
 35 33  2  0  0  0  0
 36 32  2  0  0  0  0
 37 29  1  6  0  0  0
 37 39  1  0  0  0  0
 37 34  1  0  0  0  0
M  END
>  <MODEL>
7

>  <REMARK>
 VINA RESULT:      -7.6      3.132      7.799
  Name = 
  10 active torsions:
  status: ('A' for Active; 'I' for Inactive)
    1  A    between atoms: C_2  and  C_34
    2  A    between atoms: C_3  and  C_25
    3  A    between atoms: C_4  and  C_29
    4  A    between atoms: C_4  and  C_30
    5  A    between atoms: C_5  and  C_18
    6  A    between atoms: C_5  and  C_21
    7  A    between atoms: C_8  and  N_14
    8  A    between atoms: N_17  and  C_20
    9  A    between atoms: C_20  and  C_27
   10  A    between atoms: C_27  and  N_33
                            x       y       z     vdW  Elec       q    Type
                         _______ _______ _______ _____ _____    ______ ____

>  <TORSDO>
F 10

$$$$
=
 OpenBabel10222420483D

 39 43  0  0  1  0  0  0  0  0999 V2000
  189.0750  178.5190  136.9280 N   0  0  0  0  0  2  0  0  0  0  0  0
  187.4560  177.0220  137.9270 C   0  0  2  0  0  3  0  0  0  0  0  0
  188.4260  176.6090  135.7430 O   0  0  0  0  0  0  0  0  0  0  0  0
  187.6050  178.2790  138.7910 C   0  0  2  0  0  3  0  0  0  0  0  0
  188.8150  179.0530  138.2520 C   0  0  0  0  0  2  0  0  0  0  0  0
  188.3140  177.3410  136.7610 C   0  0  0  0  0  0  0  0  0  0  0  0
  185.5420  175.5530  137.0800 C   0  0  0  0  0  0  0  0  0  0  0  0
  183.9030  175.7000  136.7410 S   0  0  0  0  0  0  0  0  0  0  0  0
  182.6540  178.1820  137.1320 C   0  0  0  0  0  1  0  0  0  0  0  0
  186.0200  176.7840  137.5320 C   0  0  0  0  0  0  0  0  0  0  0  0
  183.8630  177.3190  137.1950 C   0  0  0  0  0  0  0  0  0  0  0  0
  185.0730  177.7640  137.5920 N   0  0  0  0  0  0  0  0  0  0  0  0
  186.9680  173.3920  136.5430 C   0  0  0  0  0  0  0  0  0  0  0  0
  186.3200  174.3750  136.8080 C   0  0  0  0  0  0  0  0  0  0  0  0
  187.7590  172.2070  136.1850 C   0  0  0  0  0  2  0  0  0  0  0  0
  189.8110  173.5640  136.9420 C   0  0  0  0  0  2  0  0  0  0  0  0
  191.2480  173.7710  136.7170 N   0  0  0  0  0  0  0  0  0  0  0  0
  189.2020  172.5530  136.0070 C   0  0  0  0  0  0  0  0  0  0  0  0
  191.9240  173.2350  135.5720 C   0  0  0  0  0  3  0  0  0  0  0  0
  191.2900  172.4250  134.7300 C   0  0  0  0  0  3  0  0  0  0  0  0
  189.8870  172.0620  134.9670 C   0  0  0  0  0  3  0  0  0  0  0  0
  191.9540  174.6900  137.5930 C   0  0  0  0  0  2  0  0  0  0  0  0
  192.5500  175.8440  136.8000 C   0  0  0  0  0  2  0  0  0  0  0  0
  194.7730  175.6270  136.1420 C   0  0  0  0  0  1  0  0  0  0  0  0
  193.9190  176.0850  137.2240 N   0  0  0  0  0  2  0  0  0  0  0  0
  186.1110  179.3480  140.9670 O   0  0  0  0  0  0  0  0  0  0  0  0
  187.7840  177.9170  140.1930 N   0  0  0  0  0  2  0  0  0  0  0  0
  186.9420  178.4360  141.2280 C   0  0  0  0  0  0  0  0  0  0  0  0
  187.0140  177.8450  142.6160 C   0  0  2  0  0  3  0  0  0  0  0  0
  185.8420  178.2530  143.4930 C   0  0  0  0  0  1  0  0  0  0  0  0
  189.1340  176.7520  144.9700 C   0  0  1  0  0  3  0  0  0  0  0  0
  191.5300  177.4340  145.1590 C   0  0  0  0  0  3  0  0  0  0  0  0
  191.6790  177.4140  143.6980 C   0  0  0  0  0  3  0  0  0  0  0  0
  189.2850  176.7880  143.4370 C   0  0  2  0  0  0  0  0  0  0  0  0
  190.6550  177.1090  142.9000 C   0  0  0  0  0  3  0  0  0  0  0  0
  190.3720  177.1340  145.7450 C   0  0  0  0  0  3  0  0  0  0  0  0
  188.3480  177.9950  143.3760 C   0  0  2  0  0  3  0  0  0  0  0  0
  188.7680  175.6300  142.8500 O   0  0  0  0  0  1  0  0  0  0  0  0
  188.1900  177.9460  144.8930 C   0  0  0  0  0  2  0  0  0  0  0  0
  1  5  1  0  0  0  0
  2 10  1  6  0  0  0
  2  4  1  0  0  0  0
  3  6  2  0  0  0  0
  4 27  1  1  0  0  0
  5  4  1  0  0  0  0
  6  1  1  0  0  0  0
  6  2  1  0  0  0  0
  7 10  2  0  0  0  0
  8  7  1  0  0  0  0
  8 11  1  0  0  0  0
  9 11  1  0  0  0  0
 10 12  1  0  0  0  0
 11 12  2  0  0  0  0
 13 14  3  0  0  0  0
 14  7  1  0  0  0  0
 15 13  1  0  0  0  0
 17 16  1  0  0  0  0
 17 22  1  0  0  0  0
 18 15  1  0  0  0  0
 18 16  1  0  0  0  0
 19 17  1  0  0  0  0
 20 21  1  0  0  0  0
 20 19  2  0  0  0  0
 21 18  2  0  0  0  0
 23 25  1  0  0  0  0
 23 22  1  0  0  0  0
 24 25  1  0  0  0  0
 26 28  2  0  0  0  0
 27 28  1  0  0  0  0
 28 29  1  0  0  0  0
 29 30  1  1  0  0  0
 31 39  1  6  0  0  0
 31 36  1  0  0  0  0
 32 36  2  0  0  0  0
 33 32  1  0  0  0  0
 34 38  1  6  0  0  0
 34 31  1  0  0  0  0
 35 34  1  0  0  0  0
 35 33  2  0  0  0  0
 37 29  1  6  0  0  0
 37 34  1  0  0  0  0
 37 39  1  0  0  0  0
M  END
>  <MODEL>
8

>  <REMARK>
 VINA RESULT:      -7.4      3.704      7.689
  Name = 
  10 active torsions:
  status: ('A' for Active; 'I' for Inactive)
    1  A    between atoms: C_2  and  C_34
    2  A    between atoms: C_3  and  C_25
    3  A    between atoms: C_4  and  C_29
    4  A    between atoms: C_4  and  C_30
    5  A    between atoms: C_5  and  C_18
    6  A    between atoms: C_5  and  C_21
    7  A    between atoms: C_8  and  N_14
    8  A    between atoms: N_17  and  C_20
    9  A    between atoms: C_20  and  C_27
   10  A    between atoms: C_27  and  N_33
                            x       y       z     vdW  Elec       q    Type
                         _______ _______ _______ _____ _____    ______ ____

>  <TORSDO>
F 10

$$$$
=
 OpenBabel10222420483D

 39 43  0  0  1  0  0  0  0  0999 V2000
  185.3970  177.8520  137.7550 N   0  0  0  0  0  2  0  0  0  0  0  0
  183.3220  178.0230  138.9890 C   0  0  2  0  0  3  0  0  0  0  0  0
  183.4120  177.1690  136.7210 O   0  0  0  0  0  0  0  0  0  0  0  0
  184.4560  178.6750  139.7870 C   0  0  2  0  0  3  0  0  0  0  0  0
  185.7680  178.3080  139.0820 C   0  0  0  0  0  2  0  0  0  0  0  0
  183.9980  177.6650  137.7200 C   0  0  0  0  0  0  0  0  0  0  0  0
  180.8320  178.5820  138.8210 C   0  0  0  0  0  0  0  0  0  0  0  0
  179.8640  179.9250  138.5310 S   0  0  0  0  0  0  0  0  0  0  0  0
  181.0910  182.4050  138.0620 C   0  0  0  0  0  1  0  0  0  0  0  0
  182.1710  178.9740  138.7760 C   0  0  0  0  0  0  0  0  0  0  0  0
  181.1850  180.9540  138.3730 C   0  0  0  0  0  0  0  0  0  0  0  0
  182.3570  180.3010  138.5250 N   0  0  0  0  0  0  0  0  0  0  0  0
  179.9460  176.1020  139.0570 C   0  0  0  0  0  0  0  0  0  0  0  0
  180.3320  177.2400  138.9540 C   0  0  0  0  0  0  0  0  0  0  0  0
  179.5110  174.7040  139.1820 C   0  0  0  0  0  2  0  0  0  0  0  0
  181.6250  174.1720  137.8120 C   0  0  0  0  0  2  0  0  0  0  0  0
  182.2280  173.2060  136.8840 N   0  0  0  0  0  0  0  0  0  0  0  0
  180.2070  173.8310  138.1880 C   0  0  0  0  0  0  0  0  0  0  0  0
  181.4530  172.1890  136.2350 C   0  0  0  0  0  3  0  0  0  0  0  0
  180.1720  172.0110  136.5470 C   0  0  0  0  0  3  0  0  0  0  0  0
  179.5370  172.8520  137.5690 C   0  0  0  0  0  3  0  0  0  0  0  0
  183.6110  173.4060  136.4880 C   0  0  0  0  0  2  0  0  0  0  0  0
  184.5610  172.7980  137.5100 C   0  0  0  0  0  2  0  0  0  0  0  0
  186.0120  174.1250  136.2630 C   0  0  0  0  0  1  0  0  0  0  0  0
  185.7760  173.5890  137.5920 N   0  0  0  0  0  2  0  0  0  0  0  0
  186.0310  179.7540  141.8990 O   0  0  0  0  0  0  0  0  0  0  0  0
  184.4430  178.2080  141.1680 N   0  0  0  0  0  2  0  0  0  0  0  0
  185.2030  178.8500  142.1980 C   0  0  0  0  0  0  0  0  0  0  0  0
  184.9660  178.4820  143.6430 C   0  0  2  0  0  3  0  0  0  0  0  0
  183.7440  179.1640  144.2330 C   0  0  0  0  0  1  0  0  0  0  0  0
  186.7990  177.1720  146.1240 C   0  0  1  0  0  3  0  0  0  0  0  0
  189.1010  177.9190  146.7440 C   0  0  0  0  0  3  0  0  0  0  0  0
  189.4530  178.0980  145.3300 C   0  0  0  0  0  3  0  0  0  0  0  0
  187.1590  177.4170  144.6470 C   0  0  2  0  0  0  0  0  0  0  0  0
  188.5690  177.8610  144.3590 C   0  0  0  0  0  3  0  0  0  0  0  0
  187.8920  177.4970  147.1130 C   0  0  0  0  0  3  0  0  0  0  0  0
  186.1710  178.5820  144.6010 C   0  0  2  0  0  3  0  0  0  0  0  0
  186.7970  176.3270  143.8500 O   0  0  0  0  0  1  0  0  0  0  0  0
  185.8060  178.3270  146.0610 C   0  0  0  0  0  2  0  0  0  0  0  0
  1  5  1  0  0  0  0
  2 10  1  6  0  0  0
  2  4  1  0  0  0  0
  3  6  2  0  0  0  0
  4 27  1  1  0  0  0
  5  4  1  0  0  0  0
  6  1  1  0  0  0  0
  6  2  1  0  0  0  0
  7 14  1  0  0  0  0
  8  7  1  0  0  0  0
  9 11  1  0  0  0  0
 10  7  2  0  0  0  0
 11 12  2  0  0  0  0
 11  8  1  0  0  0  0
 12 10  1  0  0  0  0
 13 15  1  0  0  0  0
 14 13  3  0  0  0  0
 16 18  1  0  0  0  0
 17 16  1  0  0  0  0
 18 15  1  0  0  0  0
 19 20  2  0  0  0  0
 19 17  1  0  0  0  0
 20 21  1  0  0  0  0
 21 18  2  0  0  0  0
 22 17  1  0  0  0  0
 22 23  1  0  0  0  0
 23 25  1  0  0  0  0
 24 25  1  0  0  0  0
 26 28  2  0  0  0  0
 27 28  1  0  0  0  0
 28 29  1  0  0  0  0
 29 30  1  1  0  0  0
 31 39  1  1  0  0  0
 31 36  1  0  0  0  0
 32 36  2  0  0  0  0
 33 32  1  0  0  0  0
 34 38  1  6  0  0  0
 34 31  1  0  0  0  0
 35 34  1  0  0  0  0
 35 33  2  0  0  0  0
 37 29  1  6  0  0  0
 37 34  1  0  0  0  0
 37 39  1  0  0  0  0
M  END
>  <MODEL>
9

>  <REMARK>
 VINA RESULT:      -7.4      3.590      8.060
  Name = 
  10 active torsions:
  status: ('A' for Active; 'I' for Inactive)
    1  A    between atoms: C_2  and  C_34
    2  A    between atoms: C_3  and  C_25
    3  A    between atoms: C_4  and  C_29
    4  A    between atoms: C_4  and  C_30
    5  A    between atoms: C_5  and  C_18
    6  A    between atoms: C_5  and  C_21
    7  A    between atoms: C_8  and  N_14
    8  A    between atoms: N_17  and  C_20
    9  A    between atoms: C_20  and  C_27
   10  A    between atoms: C_27  and  N_33
                            x       y       z     vdW  Elec       q    Type
                         _______ _______ _______ _____ _____    ______ ____

>  <TORSDO>
F 10

$$$$
