=
 OpenBabel10222415403D

 40 41  0  0  1  0  0  0  0  0999 V2000
  183.4920  177.3760  137.8780 N   0  0  0  0  0  2  0  0  0  0  0  0
  181.5300  177.9290  139.3080 N   0  0  0  0  0  0  0  0  0  0  0  0
  182.5800  177.0170  138.9270 C   0  0  0  0  0  0  0  0  0  0  0  0
  182.6910  175.8970  139.4980 O   0  0  0  0  0  0  0  0  0  0  0  0
  184.6130  176.5520  137.4310 C   0  0  1  0  0  3  0  0  0  0  0  0
  184.3770  176.0590  136.0110 C   0  0  0  0  0  1  0  0  0  0  0  0
  185.9220  177.3200  137.5320 C   0  0  0  0  0  2  0  0  0  0  0  0
  186.9500  176.6590  136.7480 N   0  0  0  0  0  2  0  0  0  0  0  0
  188.0120  176.3010  137.6750 C   0  0  0  0  0  2  0  0  0  0  0  0
  189.3730  176.7790  137.1710 C   0  0  1  0  0  3  0  0  0  0  0  0
  189.4100  178.2920  137.0490 C   0  0  0  0  0  1  0  0  0  0  0  0
  190.7840  174.6900  138.1200 O   0  0  0  0  0  0  0  0  0  0  0  0
  190.4340  176.6670  139.8900 C   0  0  0  0  0  1  0  0  0  0  0  0
  192.0220  176.7700  137.7320 O   0  0  0  0  0  0  0  0  0  0  0  0
  190.7160  176.1910  138.2000 S   0  0  0  0  0  0  0  0  0  0  0  0
  180.8130  177.8020  140.5600 C   0  0  0  0  0  0  0  0  0  0  0  0
  179.6530  176.6440  140.7160 S   0  0  0  0  0  0  0  0  0  0  0  0
  181.0490  178.8090  141.6310 C   0  0  0  0  0  3  0  0  0  0  0  0
  182.1210  178.9970  142.4120 C   0  0  0  0  0  3  0  0  0  0  0  0
  183.3990  178.2220  142.3700 C   0  0  0  0  0  2  0  0  0  0  0  0
  187.7080  177.2450  144.1320 C   0  0  0  0  0  2  0  0  0  0  0  0
  185.5240  179.4100  140.5610 O   0  0  0  0  0  0  0  0  0  0  0  0
  186.7630  177.9430  143.4990 C   0  0  0  0  0  0  0  0  0  0  0  0
  184.5880  179.0940  142.7630 C   0  0  2  0  0  3  0  0  0  0  0  0
  186.8400  178.2930  142.1280 N   0  0  0  0  0  0  0  0  0  0  0  0
  185.6580  178.9610  141.7300 C   0  0  0  0  0  0  0  0  0  0  0  0
  185.3000  178.5140  144.3560 S   0  0  0  0  0  0  0  0  0  0  0  0
  188.8560  175.5190  142.8610 O   0  0  0  0  0  1  0  0  0  0  0  0
  188.8800  176.7220  143.4900 N   0  0  0  0  0  0  0  0  0  0  0  0
  190.1560  177.3800  143.7490 C   0  0  1  0  0  3  0  0  0  0  0  0
  191.7080  176.0110  144.9050 O   0  0  0  0  0  0  0  0  0  0  0  0
  190.2240  177.8300  145.1800 C   0  0  0  0  0  2  0  0  0  0  0  0
  191.4500  177.1280  145.7150 C   0  0  0  0  0  2  0  0  0  0  0  0
  191.3020  176.3960  143.6180 C   0  0  0  0  0  2  0  0  0  0  0  0
  181.1920  179.0110  138.3850 C   0  0  0  0  0  2  0  0  0  0  0  0
  181.9190  180.2840  138.7880 C   0  0  0  0  0  2  0  0  0  0  0  0
  180.9860  181.4390  138.7430 C   0  0  0  0  0  0  0  0  0  0  0  0
  180.1200  183.4710  137.5290 C   0  0  0  0  0  1  0  0  0  0  0  0
  181.0090  182.3250  137.6230 N   0  0  0  0  0  2  0  0  0  0  0  0
  180.1720  181.6210  139.6890 O   0  0  0  0  0  0  0  0  0  0  0  0
  1  3  1  0  0  0  0
  2 16  1  0  0  0  0
  3  2  1  0  0  0  0
  3  4  2  0  0  0  0
  5  6  1  6  0  0  0
  5  7  1  0  0  0  0
  5  1  1  0  0  0  0
  8  7  1  0  0  0  0
  8  9  1  0  0  0  0
 10 11  1  1  0  0  0
 10  9  1  0  0  0  0
 10 15  1  0  0  0  0
 12 15  2  0  0  0  0
 14 15  2  0  0  0  0
 15 13  1  0  0  0  0
 16 17  2  0  0  0  0
 16 18  1  0  0  0  0
 18 19  2  0  0  0  0
 20 19  1  0  0  0  0
 22 26  2  0  0  0  0
 23 21  1  0  0  0  0
 23 27  1  0  0  0  0
 24 20  1  6  0  0  0
 24 27  1  0  0  0  0
 25 23  2  0  0  0  0
 26 25  1  0  0  0  0
 26 24  1  0  0  0  0
 28 29  1  0  0  0  0
 29 21  1  0  0  0  0
 30 29  1  1  0  0  0
 30 32  1  0  0  0  0
 31 33  1  0  0  0  0
 32 33  1  0  0  0  0
 34 30  1  0  0  0  0
 34 31  1  0  0  0  0
 35 36  1  0  0  0  0
 35  2  1  0  0  0  0
 37 36  1  0  0  0  0
 37 40  2  0  0  0  0
 38 39  1  0  0  0  0
 39 37  1  0  0  0  0
M  END
>  <MODEL>
1

>  <REMARK>
 VINA RESULT:      -6.7      0.000      0.000
  Name = 
  15 active torsions:
  status: ('A' for Active; 'I' for Inactive)
    1  A    between atoms: C_1  and  C_2
    2  A    between atoms: C_1  and  C_23
    3  A    between atoms: N_3  and  C_6
    4  A    between atoms: C_4  and  C_6
    5  A    between atoms: C_4  and  N_7
    6  A    between atoms: C_5  and  N_31
    7  A    between atoms: N_7  and  C_37
    8  A    between atoms: C_9  and  C_20
    9  A    between atoms: C_9  and  N_21
   10  A    between atoms: C_12  and  N_31
   11  A    between atoms: C_13  and  C_37
   12  A    between atoms: C_13  and  S_39
   13  A    between atoms: N_21  and  C_23
   14  A    between atoms: C_22  and  C_33
   15  A    between atoms: C_25  and  C_33
                            x       y       z     vdW  Elec       q    Type
                         _______ _______ _______ _____ _____    ______ ____

>  <TORSDO>
F 15

$$$$
=
 OpenBabel10222415403D

 40 41  0  0  1  0  0  0  0  0999 V2000
  187.5530  177.9190  144.3340 N   0  0  0  0  0  2  0  0  0  0  0  0
  189.9680  177.3740  144.0680 N   0  0  0  0  0  0  0  0  0  0  0  0
  188.5820  177.0360  143.8590 C   0  0  0  0  0  0  0  0  0  0  0  0
  188.2660  175.9610  143.2800 O   0  0  0  0  0  0  0  0  0  0  0  0
  186.1200  177.7010  144.1510 C   0  0  1  0  0  3  0  0  0  0  0  0
  185.3340  178.3750  145.2650 C   0  0  0  0  0  1  0  0  0  0  0  0
  185.6690  178.1980  142.7860 C   0  0  0  0  0  2  0  0  0  0  0  0
  184.2190  178.1700  142.6990 N   0  0  0  0  0  2  0  0  0  0  0  0
  183.8630  178.8880  141.4860 C   0  0  0  0  0  2  0  0  0  0  0  0
  183.8650  177.9600  140.2710 C   0  0  1  0  0  3  0  0  0  0  0  0
  182.6790  177.0120  140.3060 C   0  0  0  0  0  1  0  0  0  0  0  0
  184.5390  180.2160  138.9630 O   0  0  0  0  0  0  0  0  0  0  0  0
  182.2530  179.1070  138.1230 C   0  0  0  0  0  1  0  0  0  0  0  0
  184.7100  178.1200  137.7030 O   0  0  0  0  0  0  0  0  0  0  0  0
  183.9080  178.8700  138.7290 S   0  0  0  0  0  0  0  0  0  0  0  0
  191.0380  176.7370  143.3260 C   0  0  0  0  0  0  0  0  0  0  0  0
  191.6760  175.3220  143.8780 S   0  0  0  0  0  0  0  0  0  0  0  0
  191.6260  177.4460  142.1560 C   0  0  0  0  0  3  0  0  0  0  0  0
  191.2230  177.4760  140.8790 C   0  0  0  0  0  3  0  0  0  0  0  0
  190.0190  176.7960  140.3100 C   0  0  0  0  0  2  0  0  0  0  0  0
  188.3970  174.4490  136.5040 C   0  0  0  0  0  3  0  0  0  0  0  0
  187.6620  178.2940  139.1280 O   0  0  0  0  0  0  0  0  0  0  0  0
  188.6930  175.5000  137.2720 C   0  0  0  0  0  0  0  0  0  0  0  0
  189.7930  177.1970  138.8550 C   0  0  2  0  0  3  0  0  0  0  0  0
  187.7190  176.4010  137.7690 N   0  0  0  0  0  2  0  0  0  0  0  0
  188.3290  177.3590  138.6110 C   0  0  0  0  0  0  0  0  0  0  0  0
  190.3830  175.8640  137.7320 S   0  0  0  0  0  0  0  0  0  0  0  0
  186.3180  174.8590  135.3100 O   0  0  0  0  0  1  0  0  0  0  0  0
  187.0590  174.0790  136.1380 N   0  0  0  0  0  0  0  0  0  0  0  0
  186.4220  172.9920  136.8730 C   0  0  1  0  0  3  0  0  0  0  0  0
  184.5150  172.1030  135.7810 O   0  0  0  0  0  0  0  0  0  0  0  0
  185.1900  173.4940  137.5700 C   0  0  0  0  0  2  0  0  0  0  0  0
  184.0880  172.6210  137.0130 C   0  0  0  0  0  2  0  0  0  0  0  0
  185.9020  171.9340  135.9200 C   0  0  0  0  0  2  0  0  0  0  0  0
  190.2850  178.3950  145.0640 C   0  0  0  0  0  2  0  0  0  0  0  0
  189.5810  178.0800  146.3740 C   0  0  0  0  0  2  0  0  0  0  0  0
  190.2560  176.9420  147.0520 C   0  0  0  0  0  0  0  0  0  0  0  0
  192.3930  175.7990  147.7430 C   0  0  0  0  0  1  0  0  0  0  0  0
  191.6830  176.8890  147.0950 N   0  0  0  0  0  2  0  0  0  0  0  0
  189.5620  176.0390  147.5940 O   0  0  0  0  0  0  0  0  0  0  0  0
  2 35  1  0  0  0  0
  3  2  1  0  0  0  0
  3  1  1  0  0  0  0
  4  3  2  0  0  0  0
  5  1  1  0  0  0  0
  5  6  1  1  0  0  0
  7  5  1  0  0  0  0
  8  7  1  0  0  0  0
  9  8  1  0  0  0  0
 10 11  1  6  0  0  0
 10  9  1  0  0  0  0
 13 15  1  0  0  0  0
 14 15  2  0  0  0  0
 15 12  2  0  0  0  0
 15 10  1  0  0  0  0
 16 17  2  0  0  0  0
 16  2  1  0  0  0  0
 18 16  1  0  0  0  0
 19 18  2  0  0  0  0
 20 19  1  0  0  0  0
 21 23  2  0  0  0  0
 23 27  1  0  0  0  0
 23 25  1  0  0  0  0
 24 20  1  1  0  0  0
 25 26  1  0  0  0  0
 26 24  1  0  0  0  0
 26 22  2  0  0  0  0
 27 24  1  0  0  0  0
 28 29  1  0  0  0  0
 29 21  1  0  0  0  0
 30 29  1  6  0  0  0
 30 32  1  0  0  0  0
 31 34  1  0  0  0  0
 31 33  1  0  0  0  0
 33 32  1  0  0  0  0
 34 30  1  0  0  0  0
 35 36  1  0  0  0  0
 36 37  1  0  0  0  0
 37 39  1  0  0  0  0
 37 40  2  0  0  0  0
 39 38  1  0  0  0  0
M  END
>  <MODEL>
2

>  <REMARK>
 VINA RESULT:      -6.7      2.990      9.417
  Name = 
  15 active torsions:
  status: ('A' for Active; 'I' for Inactive)
    1  A    between atoms: C_1  and  C_2
    2  A    between atoms: C_1  and  C_23
    3  A    between atoms: N_3  and  C_6
    4  A    between atoms: C_4  and  C_6
    5  A    between atoms: C_4  and  N_7
    6  A    between atoms: C_5  and  N_31
    7  A    between atoms: N_7  and  C_37
    8  A    between atoms: C_9  and  C_20
    9  A    between atoms: C_9  and  N_21
   10  A    between atoms: C_12  and  N_31
   11  A    between atoms: C_13  and  C_37
   12  A    between atoms: C_13  and  S_39
   13  A    between atoms: N_21  and  C_23
   14  A    between atoms: C_22  and  C_33
   15  A    between atoms: C_25  and  C_33
                            x       y       z     vdW  Elec       q    Type
                         _______ _______ _______ _____ _____    ______ ____

>  <TORSDO>
F 15

$$$$
=
 OpenBabel10222415403D

 40 41  0  0  1  0  0  0  0  0999 V2000
  187.4150  177.9750  143.7910 N   0  0  0  0  0  2  0  0  0  0  0  0
  189.8210  177.3430  143.9080 N   0  0  0  0  0  0  0  0  0  0  0  0
  188.4870  177.0940  143.4200 C   0  0  0  0  0  0  0  0  0  0  0  0
  188.2510  176.0960  142.6850 O   0  0  0  0  0  0  0  0  0  0  0  0
  186.0340  177.8450  143.3320 C   0  0  1  0  0  3  0  0  0  0  0  0
  185.0710  178.3360  144.4010 C   0  0  0  0  0  1  0  0  0  0  0  0
  185.8270  178.5940  142.0240 C   0  0  0  0  0  2  0  0  0  0  0  0
  184.4230  178.5710  141.6530 N   0  0  0  0  0  2  0  0  0  0  0  0
  184.3610  178.9320  140.2460 C   0  0  0  0  0  2  0  0  0  0  0  0
  182.9160  179.1320  139.7890 C   0  0  1  0  0  3  0  0  0  0  0  0
  182.8080  180.2910  138.8120 C   0  0  0  0  0  1  0  0  0  0  0  0
  181.8330  177.8980  137.6540 O   0  0  0  0  0  0  0  0  0  0  0  0
  180.7710  177.1620  139.9970 C   0  0  0  0  0  1  0  0  0  0  0  0
  183.2260  176.5240  139.1300 O   0  0  0  0  0  0  0  0  0  0  0  0
  182.2200  177.6400  139.0840 S   0  0  0  0  0  0  0  0  0  0  0  0
  190.9890  176.7300  143.3080 C   0  0  0  0  0  0  0  0  0  0  0  0
  191.5400  175.2920  143.8940 S   0  0  0  0  0  0  0  0  0  0  0  0
  191.7430  177.4800  142.2670 C   0  0  0  0  0  3  0  0  0  0  0  0
  191.5890  177.4920  140.9360 C   0  0  0  0  0  3  0  0  0  0  0  0
  190.5590  176.7420  140.1540 C   0  0  0  0  0  2  0  0  0  0  0  0
  187.9850  175.5500  136.3350 C   0  0  0  0  0  3  0  0  0  0  0  0
  188.3610  178.7900  139.7360 O   0  0  0  0  0  0  0  0  0  0  0  0
  188.5790  176.3520  137.2220 C   0  0  0  0  0  0  0  0  0  0  0  0
  190.1930  177.4810  138.8700 C   0  0  2  0  0  3  0  0  0  0  0  0
  187.8700  177.2540  138.0530 N   0  0  0  0  0  2  0  0  0  0  0  0
  188.7630  177.9050  138.9360 C   0  0  0  0  0  0  0  0  0  0  0  0
  190.3560  176.3560  137.4230 S   0  0  0  0  0  0  0  0  0  0  0  0
  185.7730  176.5590  136.3240 O   0  0  0  0  0  1  0  0  0  0  0  0
  186.5640  175.4670  136.1580 N   0  0  0  0  0  0  0  0  0  0  0  0
  185.9600  174.1440  136.0560 C   0  0  1  0  0  3  0  0  0  0  0  0
  184.1270  173.8250  137.5250 O   0  0  0  0  0  0  0  0  0  0  0  0
  186.4050  173.2830  137.2030 C   0  0  0  0  0  2  0  0  0  0  0  0
  185.1100  172.8850  137.8710 C   0  0  0  0  0  2  0  0  0  0  0  0
  184.4540  174.2280  136.2210 C   0  0  0  0  0  2  0  0  0  0  0  0
  189.9800  178.2480  145.0450 C   0  0  0  0  0  2  0  0  0  0  0  0
  190.0850  177.4490  146.3340 C   0  0  0  0  0  2  0  0  0  0  0  0
  189.0520  177.9060  147.3000 C   0  0  0  0  0  0  0  0  0  0  0  0
  186.6390  178.4390  147.7910 C   0  0  0  0  0  1  0  0  0  0  0  0
  187.6880  177.9970  146.8870 N   0  0  0  0  0  2  0  0  0  0  0  0
  189.3870  178.1980  148.4800 O   0  0  0  0  0  0  0  0  0  0  0  0
  2 35  1  0  0  0  0
  3  1  1  0  0  0  0
  3  2  1  0  0  0  0
  4  3  2  0  0  0  0
  5  1  1  0  0  0  0
  5  6  1  1  0  0  0
  7  5  1  0  0  0  0
  8  7  1  0  0  0  0
  9  8  1  0  0  0  0
 10 11  1  6  0  0  0
 10  9  1  0  0  0  0
 12 15  2  0  0  0  0
 15 14  2  0  0  0  0
 15 10  1  0  0  0  0
 15 13  1  0  0  0  0
 16 17  2  0  0  0  0
 16  2  1  0  0  0  0
 18 16  1  0  0  0  0
 19 18  2  0  0  0  0
 20 19  1  0  0  0  0
 21 23  2  0  0  0  0
 23 27  1  0  0  0  0
 23 25  1  0  0  0  0
 24 26  1  0  0  0  0
 24 20  1  1  0  0  0
 25 26  1  0  0  0  0
 26 22  2  0  0  0  0
 27 24  1  0  0  0  0
 29 28  1  0  0  0  0
 29 21  1  0  0  0  0
 30 29  1  1  0  0  0
 30 34  1  0  0  0  0
 30 32  1  0  0  0  0
 31 33  1  0  0  0  0
 32 33  1  0  0  0  0
 34 31  1  0  0  0  0
 35 36  1  0  0  0  0
 36 37  1  0  0  0  0
 37 40  2  0  0  0  0
 39 37  1  0  0  0  0
 39 38  1  0  0  0  0
M  END
>  <MODEL>
3

>  <REMARK>
 VINA RESULT:      -6.3      2.777      8.999
  Name = 
  15 active torsions:
  status: ('A' for Active; 'I' for Inactive)
    1  A    between atoms: C_1  and  C_2
    2  A    between atoms: C_1  and  C_23
    3  A    between atoms: N_3  and  C_6
    4  A    between atoms: C_4  and  C_6
    5  A    between atoms: C_4  and  N_7
    6  A    between atoms: C_5  and  N_31
    7  A    between atoms: N_7  and  C_37
    8  A    between atoms: C_9  and  C_20
    9  A    between atoms: C_9  and  N_21
   10  A    between atoms: C_12  and  N_31
   11  A    between atoms: C_13  and  C_37
   12  A    between atoms: C_13  and  S_39
   13  A    between atoms: N_21  and  C_23
   14  A    between atoms: C_22  and  C_33
   15  A    between atoms: C_25  and  C_33
                            x       y       z     vdW  Elec       q    Type
                         _______ _______ _______ _____ _____    ______ ____

>  <TORSDO>
F 15

$$$$
=
 OpenBabel10222415403D

 40 41  0  0  1  0  0  0  0  0999 V2000
  182.6460  179.0950  142.8910 N   0  0  0  0  0  2  0  0  0  0  0  0
  185.0110  178.5350  143.4340 N   0  0  0  0  0  0  0  0  0  0  0  0
  183.8310  178.3240  142.6330 C   0  0  0  0  0  0  0  0  0  0  0  0
  183.8250  177.4530  141.7200 O   0  0  0  0  0  0  0  0  0  0  0  0
  181.4060  178.9950  142.1260 C   0  0  1  0  0  3  0  0  0  0  0  0
  180.2950  179.7760  142.8110 C   0  0  0  0  0  1  0  0  0  0  0  0
  181.6120  179.4780  140.6980 C   0  0  0  0  0  2  0  0  0  0  0  0
  180.6340  178.8640  139.8170 N   0  0  0  0  0  2  0  0  0  0  0  0
  181.0940  177.5070  139.5700 C   0  0  0  0  0  2  0  0  0  0  0  0
  181.3700  177.2770  138.0840 C   0  0  1  0  0  3  0  0  0  0  0  0
  180.9180  178.4670  137.2550 C   0  0  0  0  0  1  0  0  0  0  0  0
  183.9590  177.9060  138.4750 O   0  0  0  0  0  0  0  0  0  0  0  0
  183.4180  176.9800  136.0230 C   0  0  0  0  0  1  0  0  0  0  0  0
  183.4240  175.5230  138.2740 O   0  0  0  0  0  0  0  0  0  0  0  0
  183.0920  176.9000  137.7700 S   0  0  0  0  0  0  0  0  0  0  0  0
  186.3190  178.0690  143.0190 C   0  0  0  0  0  0  0  0  0  0  0  0
  187.1180  178.8650  141.8180 S   0  0  0  0  0  0  0  0  0  0  0  0
  186.8510  176.8030  143.5940 C   0  0  0  0  0  3  0  0  0  0  0  0
  187.9880  176.5760  144.2640 C   0  0  0  0  0  3  0  0  0  0  0  0
  189.0210  177.5920  144.6340 C   0  0  0  0  0  2  0  0  0  0  0  0
  190.2530  176.4500  140.1830 C   0  0  0  0  0  3  0  0  0  0  0  0
  191.0970  179.5590  143.6230 O   0  0  0  0  0  0  0  0  0  0  0  0
  190.4070  176.9110  141.4270 C   0  0  0  0  0  0  0  0  0  0  0  0
  190.3590  177.2870  143.9670 C   0  0  2  0  0  3  0  0  0  0  0  0
  190.7540  178.2520  141.7240 N   0  0  0  0  0  2  0  0  0  0  0  0
  190.7650  178.4510  143.1250 C   0  0  0  0  0  0  0  0  0  0  0  0
  190.1930  175.8400  142.8440 S   0  0  0  0  0  0  0  0  0  0  0  0
  189.5930  178.3720  138.8480 O   0  0  0  0  0  1  0  0  0  0  0  0
  190.3670  177.2680  139.0090 N   0  0  0  0  0  0  0  0  0  0  0  0
  191.1370  176.7510  137.8840 C   0  0  1  0  0  3  0  0  0  0  0  0
  191.3240  174.3880  137.8720 O   0  0  0  0  0  0  0  0  0  0  0  0
  192.5190  176.3740  138.3340 C   0  0  0  0  0  2  0  0  0  0  0  0
  192.6230  174.9100  137.9750 C   0  0  0  0  0  2  0  0  0  0  0  0
  190.5450  175.4480  137.3830 C   0  0  0  0  0  2  0  0  0  0  0  0
  184.8630  179.2440  144.7040 C   0  0  0  0  0  2  0  0  0  0  0  0
  184.8820  178.2550  145.8580 C   0  0  0  0  0  2  0  0  0  0  0  0
  185.8450  178.7040  146.8970 C   0  0  0  0  0  0  0  0  0  0  0  0
  187.8590  178.2180  148.3310 C   0  0  0  0  0  1  0  0  0  0  0  0
  186.8920  177.8290  147.3180 N   0  0  0  0  0  2  0  0  0  0  0  0
  185.7350  179.8590  147.3910 O   0  0  0  0  0  0  0  0  0  0  0  0
  2 35  1  0  0  0  0
  3  1  1  0  0  0  0
  3  2  1  0  0  0  0
  4  3  2  0  0  0  0
  5  6  1  1  0  0  0
  5  1  1  0  0  0  0
  7  5  1  0  0  0  0
  8  7  1  0  0  0  0
  9  8  1  0  0  0  0
 10 11  1  6  0  0  0
 10  9  1  0  0  0  0
 13 15  1  0  0  0  0
 15 10  1  0  0  0  0
 15 14  2  0  0  0  0
 15 12  2  0  0  0  0
 16  2  1  0  0  0  0
 16 18  1  0  0  0  0
 17 16  2  0  0  0  0
 18 19  2  0  0  0  0
 19 20  1  0  0  0  0
 21 23  2  0  0  0  0
 23 25  1  0  0  0  0
 23 27  1  0  0  0  0
 24 20  1  6  0  0  0
 25 26  1  0  0  0  0
 26 22  2  0  0  0  0
 26 24  1  0  0  0  0
 27 24  1  0  0  0  0
 28 29  1  0  0  0  0
 29 21  1  0  0  0  0
 30 32  1  0  0  0  0
 30 29  1  1  0  0  0
 31 33  1  0  0  0  0
 33 32  1  0  0  0  0
 34 31  1  0  0  0  0
 34 30  1  0  0  0  0
 35 36  1  0  0  0  0
 36 37  1  0  0  0  0
 37 39  1  0  0  0  0
 37 40  2  0  0  0  0
 39 38  1  0  0  0  0
M  END
>  <MODEL>
4

>  <REMARK>
 VINA RESULT:      -6.1      2.725      7.257
  Name = 
  15 active torsions:
  status: ('A' for Active; 'I' for Inactive)
    1  A    between atoms: C_1  and  C_2
    2  A    between atoms: C_1  and  C_23
    3  A    between atoms: N_3  and  C_6
    4  A    between atoms: C_4  and  C_6
    5  A    between atoms: C_4  and  N_7
    6  A    between atoms: C_5  and  N_31
    7  A    between atoms: N_7  and  C_37
    8  A    between atoms: C_9  and  C_20
    9  A    between atoms: C_9  and  N_21
   10  A    between atoms: C_12  and  N_31
   11  A    between atoms: C_13  and  C_37
   12  A    between atoms: C_13  and  S_39
   13  A    between atoms: N_21  and  C_23
   14  A    between atoms: C_22  and  C_33
   15  A    between atoms: C_25  and  C_33
                            x       y       z     vdW  Elec       q    Type
                         _______ _______ _______ _____ _____    ______ ____

>  <TORSDO>
F 15

$$$$
=
 OpenBabel10222415403D

 40 41  0  0  1  0  0  0  0  0999 V2000
  186.6470  178.2890  144.8200 N   0  0  0  0  0  2  0  0  0  0  0  0
  188.7240  177.8600  143.5140 N   0  0  0  0  0  0  0  0  0  0  0  0
  187.2940  177.7440  143.6590 C   0  0  0  0  0  0  0  0  0  0  0  0
  186.6100  177.1500  142.7810 O   0  0  0  0  0  0  0  0  0  0  0  0
  185.2060  178.2630  145.0580 C   0  0  1  0  0  3  0  0  0  0  0  0
  184.9150  178.2590  146.5510 C   0  0  0  0  0  1  0  0  0  0  0  0
  184.5240  179.4360  144.3710 C   0  0  0  0  0  2  0  0  0  0  0  0
  183.8660  178.9890  143.1560 N   0  0  0  0  0  2  0  0  0  0  0  0
  182.4660  178.7860  143.4930 C   0  0  0  0  0  2  0  0  0  0  0  0
  181.5620  179.0500  142.2890 C   0  0  1  0  0  3  0  0  0  0  0  0
  182.0560  178.3060  141.0610 C   0  0  0  0  0  1  0  0  0  0  0  0
  178.9560  179.5210  141.7980 O   0  0  0  0  0  0  0  0  0  0  0  0
  179.4970  178.9320  144.3510 C   0  0  0  0  0  1  0  0  0  0  0  0
  179.5800  177.2050  142.3020 O   0  0  0  0  0  0  0  0  0  0  0  0
  179.8510  178.6470  142.6320 S   0  0  0  0  0  0  0  0  0  0  0  0
  189.3900  177.6630  142.2430 C   0  0  0  0  0  0  0  0  0  0  0  0
  190.3910  176.3700  142.0450 S   0  0  0  0  0  0  0  0  0  0  0  0
  189.2600  178.7080  141.1910 C   0  0  0  0  0  3  0  0  0  0  0  0
  188.7350  178.6280  139.9610 C   0  0  0  0  0  3  0  0  0  0  0  0
  188.1040  177.4220  139.3410 C   0  0  0  0  0  2  0  0  0  0  0  0
  185.4350  174.9690  136.2610 C   0  0  0  0  0  3  0  0  0  0  0  0
  185.6420  179.0420  138.6220 O   0  0  0  0  0  0  0  0  0  0  0  0
  185.9850  176.0400  136.8370 C   0  0  0  0  0  0  0  0  0  0  0  0
  187.5580  177.7370  137.9510 C   0  0  2  0  0  3  0  0  0  0  0  0
  185.2290  177.0600  137.4670 N   0  0  0  0  0  2  0  0  0  0  0  0
  186.0940  178.0160  138.0490 C   0  0  0  0  0  0  0  0  0  0  0  0
  187.7580  176.2800  136.8470 S   0  0  0  0  0  0  0  0  0  0  0  0
  183.1640  175.4770  135.5590 O   0  0  0  0  0  1  0  0  0  0  0  0
  184.0260  174.6970  136.2600 N   0  0  0  0  0  0  0  0  0  0  0  0
  183.5110  173.7340  137.2260 C   0  0  1  0  0  3  0  0  0  0  0  0
  184.2970  171.5260  136.8720 O   0  0  0  0  0  0  0  0  0  0  0  0
  182.4080  172.9230  136.6080 C   0  0  0  0  0  2  0  0  0  0  0  0
  182.9000  171.5000  136.7370 C   0  0  0  0  0  2  0  0  0  0  0  0
  184.5710  172.7080  137.5780 C   0  0  0  0  0  2  0  0  0  0  0  0
  189.5110  178.1890  144.7020 C   0  0  0  0  0  2  0  0  0  0  0  0
  189.7600  176.9350  145.5240 C   0  0  0  0  0  2  0  0  0  0  0  0
  189.6490  177.2470  146.9730 C   0  0  0  0  0  0  0  0  0  0  0  0
  188.2100  177.8800  148.9420 C   0  0  0  0  0  1  0  0  0  0  0  0
  188.3740  177.5650  147.5330 N   0  0  0  0  0  2  0  0  0  0  0  0
  190.6800  177.2170  147.6980 O   0  0  0  0  0  0  0  0  0  0  0  0
  1  5  1  0  0  0  0
  2  3  1  0  0  0  0
  2 35  1  0  0  0  0
  3  1  1  0  0  0  0
  4  3  2  0  0  0  0
  5  6  1  1  0  0  0
  7  5  1  0  0  0  0
  8  9  1  0  0  0  0
  8  7  1  0  0  0  0
 10 11  1  6  0  0  0
 10 15  1  0  0  0  0
 10  9  1  0  0  0  0
 12 15  2  0  0  0  0
 14 15  2  0  0  0  0
 15 13  1  0  0  0  0
 16  2  1  0  0  0  0
 17 16  2  0  0  0  0
 18 16  1  0  0  0  0
 19 18  2  0  0  0  0
 20 19  1  0  0  0  0
 21 23  2  0  0  0  0
 23 27  1  0  0  0  0
 23 25  1  0  0  0  0
 24 26  1  0  0  0  0
 24 20  1  1  0  0  0
 25 26  1  0  0  0  0
 26 22  2  0  0  0  0
 27 24  1  0  0  0  0
 28 29  1  0  0  0  0
 29 21  1  0  0  0  0
 30 29  1  6  0  0  0
 30 34  1  0  0  0  0
 31 34  1  0  0  0  0
 32 33  1  0  0  0  0
 32 30  1  0  0  0  0
 33 31  1  0  0  0  0
 35 36  1  0  0  0  0
 36 37  1  0  0  0  0
 37 39  1  0  0  0  0
 37 40  2  0  0  0  0
 39 38  1  0  0  0  0
M  END
>  <MODEL>
5

>  <REMARK>
 VINA RESULT:      -6.0      3.180      9.748
  Name = 
  15 active torsions:
  status: ('A' for Active; 'I' for Inactive)
    1  A    between atoms: C_1  and  C_2
    2  A    between atoms: C_1  and  C_23
    3  A    between atoms: N_3  and  C_6
    4  A    between atoms: C_4  and  C_6
    5  A    between atoms: C_4  and  N_7
    6  A    between atoms: C_5  and  N_31
    7  A    between atoms: N_7  and  C_37
    8  A    between atoms: C_9  and  C_20
    9  A    between atoms: C_9  and  N_21
   10  A    between atoms: C_12  and  N_31
   11  A    between atoms: C_13  and  C_37
   12  A    between atoms: C_13  and  S_39
   13  A    between atoms: N_21  and  C_23
   14  A    between atoms: C_22  and  C_33
   15  A    between atoms: C_25  and  C_33
                            x       y       z     vdW  Elec       q    Type
                         _______ _______ _______ _____ _____    ______ ____

>  <TORSDO>
F 15

$$$$
=
 OpenBabel10222415403D

 40 41  0  0  1  0  0  0  0  0999 V2000
  187.0220  178.4070  138.5630 N   0  0  0  0  0  2  0  0  0  0  0  0
  184.5660  178.0990  138.2850 N   0  0  0  0  0  0  0  0  0  0  0  0
  185.9140  177.8460  137.8400 C   0  0  0  0  0  0  0  0  0  0  0  0
  186.1270  177.1510  136.8090 O   0  0  0  0  0  0  0  0  0  0  0  0
  188.4280  178.1920  138.2290 C   0  0  1  0  0  3  0  0  0  0  0  0
  188.9200  179.2770  137.2830 C   0  0  0  0  0  1  0  0  0  0  0  0
  189.2790  178.1380  139.4890 C   0  0  0  0  0  2  0  0  0  0  0  0
  188.4790  177.6810  140.6110 N   0  0  0  0  0  2  0  0  0  0  0  0
  189.4140  177.2290  141.6290 C   0  0  0  0  0  2  0  0  0  0  0  0
  188.9020  177.5490  143.0330 C   0  0  1  0  0  3  0  0  0  0  0  0
  187.8840  176.5190  143.4910 C   0  0  0  0  0  1  0  0  0  0  0  0
  190.7800  179.0970  144.1880 O   0  0  0  0  0  0  0  0  0  0  0  0
  191.5410  176.5610  143.8010 C   0  0  0  0  0  1  0  0  0  0  0  0
  189.7390  177.3890  145.6040 O   0  0  0  0  0  0  0  0  0  0  0  0
  190.2370  177.6950  144.2190 S   0  0  0  0  0  0  0  0  0  0  0  0
  183.4430  177.3000  137.8390 C   0  0  0  0  0  0  0  0  0  0  0  0
  183.4370  175.6790  138.1320 S   0  0  0  0  0  0  0  0  0  0  0  0
  182.3860  177.9390  137.0090 C   0  0  0  0  0  3  0  0  0  0  0  0
  181.1060  178.2040  137.3030 C   0  0  0  0  0  3  0  0  0  0  0  0
  180.4180  177.9310  138.6030 C   0  0  0  0  0  2  0  0  0  0  0  0
  180.3540  173.7620  136.3130 C   0  0  0  0  0  3  0  0  0  0  0  0
  179.7230  175.7150  140.5540 O   0  0  0  0  0  0  0  0  0  0  0  0
  179.9980  174.6810  137.2130 C   0  0  0  0  0  0  0  0  0  0  0  0
  179.3610  176.8390  138.4500 C   0  0  2  0  0  3  0  0  0  0  0  0
  180.1250  174.4930  138.6110 N   0  0  0  0  0  2  0  0  0  0  0  0
  179.7390  175.6680  139.2960 C   0  0  0  0  0  0  0  0  0  0  0  0
  179.3050  176.2510  136.7080 S   0  0  0  0  0  0  0  0  0  0  0  0
  180.2090  171.4780  137.1350 O   0  0  0  0  0  1  0  0  0  0  0  0
  180.9560  172.5040  136.6510 N   0  0  0  0  0  0  0  0  0  0  0  0
  182.4120  172.4330  136.7140 C   0  0  1  0  0  3  0  0  0  0  0  0
  183.4150  171.7880  134.6650 O   0  0  0  0  0  0  0  0  0  0  0  0
  182.8540  171.0020  136.8230 C   0  0  0  0  0  2  0  0  0  0  0  0
  183.7500  170.8150  135.6200 C   0  0  0  0  0  2  0  0  0  0  0  0
  183.0280  172.9100  135.4130 C   0  0  0  0  0  2  0  0  0  0  0  0
  184.3450  179.2030  139.2170 C   0  0  0  0  0  2  0  0  0  0  0  0
  183.6570  178.6940  140.4730 C   0  0  0  0  0  2  0  0  0  0  0  0
  184.5280  178.9190  141.6560 C   0  0  0  0  0  0  0  0  0  0  0  0
  184.9270  178.6390  144.1290 C   0  0  0  0  0  1  0  0  0  0  0  0
  184.1150  178.4440  142.9390 N   0  0  0  0  0  2  0  0  0  0  0  0
  185.6290  179.5170  141.5160 O   0  0  0  0  0  0  0  0  0  0  0  0
  2 35  1  0  0  0  0
  3  2  1  0  0  0  0
  3  1  1  0  0  0  0
  4  3  2  0  0  0  0
  5  6  1  6  0  0  0
  5  1  1  0  0  0  0
  5  7  1  0  0  0  0
  7  8  1  0  0  0  0
  8  9  1  0  0  0  0
  9 10  1  0  0  0  0
 10 11  1  1  0  0  0
 10 15  1  0  0  0  0
 12 15  2  0  0  0  0
 13 15  1  0  0  0  0
 15 14  2  0  0  0  0
 16 17  2  0  0  0  0
 16  2  1  0  0  0  0
 18 19  2  0  0  0  0
 18 16  1  0  0  0  0
 19 20  1  0  0  0  0
 21 29  1  0  0  0  0
 21 23  2  0  0  0  0
 23 25  1  0  0  0  0
 24 20  1  6  0  0  0
 24 26  1  0  0  0  0
 25 26  1  0  0  0  0
 26 22  2  0  0  0  0
 27 23  1  0  0  0  0
 27 24  1  0  0  0  0
 29 28  1  0  0  0  0
 30 29  1  6  0  0  0
 30 32  1  0  0  0  0
 31 34  1  0  0  0  0
 31 33  1  0  0  0  0
 33 32  1  0  0  0  0
 34 30  1  0  0  0  0
 35 36  1  0  0  0  0
 36 37  1  0  0  0  0
 37 39  1  0  0  0  0
 39 38  1  0  0  0  0
 40 37  2  0  0  0  0
M  END
>  <MODEL>
6

>  <REMARK>
 VINA RESULT:      -6.0      3.271      7.749
  Name = 
  15 active torsions:
  status: ('A' for Active; 'I' for Inactive)
    1  A    between atoms: C_1  and  C_2
    2  A    between atoms: C_1  and  C_23
    3  A    between atoms: N_3  and  C_6
    4  A    between atoms: C_4  and  C_6
    5  A    between atoms: C_4  and  N_7
    6  A    between atoms: C_5  and  N_31
    7  A    between atoms: N_7  and  C_37
    8  A    between atoms: C_9  and  C_20
    9  A    between atoms: C_9  and  N_21
   10  A    between atoms: C_12  and  N_31
   11  A    between atoms: C_13  and  C_37
   12  A    between atoms: C_13  and  S_39
   13  A    between atoms: N_21  and  C_23
   14  A    between atoms: C_22  and  C_33
   15  A    between atoms: C_25  and  C_33
                            x       y       z     vdW  Elec       q    Type
                         _______ _______ _______ _____ _____    ______ ____

>  <TORSDO>
F 15

$$$$
=
 OpenBabel10222415403D

 40 41  0  0  1  0  0  0  0  0999 V2000
  182.4800  179.2750  141.8040 N   0  0  0  0  0  2  0  0  0  0  0  0
  184.6730  178.7720  142.8730 N   0  0  0  0  0  0  0  0  0  0  0  0
  183.6710  178.4750  141.8790 C   0  0  0  0  0  0  0  0  0  0  0  0
  183.8240  177.5040  141.0880 O   0  0  0  0  0  0  0  0  0  0  0  0
  181.4150  179.0920  140.8210 C   0  0  1  0  0  3  0  0  0  0  0  0
  180.1180  179.7060  141.3240 C   0  0  0  0  0  1  0  0  0  0  0  0
  181.8150  179.6820  139.4770 C   0  0  0  0  0  2  0  0  0  0  0  0
  180.7160  180.4560  138.9260 N   0  0  0  0  0  2  0  0  0  0  0  0
  181.3120  181.5830  138.2270 C   0  0  0  0  0  2  0  0  0  0  0  0
  180.2400  182.5160  137.6640 C   0  0  1  0  0  3  0  0  0  0  0  0
  179.2000  182.8530  138.7190 C   0  0  0  0  0  1  0  0  0  0  0  0
  182.2850  184.2670  137.5980 O   0  0  0  0  0  0  0  0  0  0  0  0
  179.8750  185.3890  137.2910 C   0  0  0  0  0  1  0  0  0  0  0  0
  181.1200  183.8540  135.4810 O   0  0  0  0  0  0  0  0  0  0  0  0
  180.9450  184.0070  136.9660 S   0  0  0  0  0  0  0  0  0  0  0  0
  186.0240  178.2570  142.7840 C   0  0  0  0  0  0  0  0  0  0  0  0
  187.0400  178.8420  141.6270 S   0  0  0  0  0  0  0  0  0  0  0  0
  186.4200  177.1150  143.6540 C   0  0  0  0  0  3  0  0  0  0  0  0
  187.5070  176.9560  144.4200 C   0  0  0  0  0  3  0  0  0  0  0  0
  188.6140  177.9440  144.6100 C   0  0  0  0  0  2  0  0  0  0  0  0
  190.7780  176.3810  140.6730 C   0  0  0  0  0  3  0  0  0  0  0  0
  191.2990  179.3230  144.3170 O   0  0  0  0  0  0  0  0  0  0  0  0
  190.6680  176.8360  141.9220 C   0  0  0  0  0  0  0  0  0  0  0  0
  189.9760  177.3060  144.3510 C   0  0  2  0  0  3  0  0  0  0  0  0
  191.2230  178.0660  142.3550 N   0  0  0  0  0  2  0  0  0  0  0  0
  190.8740  178.3080  143.7040 C   0  0  0  0  0  0  0  0  0  0  0  0
  189.8030  175.8990  143.1770 S   0  0  0  0  0  0  0  0  0  0  0  0
  192.6250  177.6990  139.8000 O   0  0  0  0  0  1  0  0  0  0  0  0
  191.4190  177.1040  139.6120 N   0  0  0  0  0  0  0  0  0  0  0  0
  190.6380  177.4090  138.4180 C   0  0  1  0  0  3  0  0  0  0  0  0
  188.2980  177.4170  138.7960 O   0  0  0  0  0  0  0  0  0  0  0  0
  190.0530  176.1480  137.8490 C   0  0  0  0  0  2  0  0  0  0  0  0
  188.5660  176.4150  137.8500 C   0  0  0  0  0  2  0  0  0  0  0  0
  189.4270  178.2510  138.7700 C   0  0  0  0  0  2  0  0  0  0  0  0
  184.2940  179.6240  143.9980 C   0  0  0  0  0  2  0  0  0  0  0  0
  183.6080  178.7940  145.0710 C   0  0  0  0  0  2  0  0  0  0  0  0
  184.5050  178.6430  146.2470 C   0  0  0  0  0  0  0  0  0  0  0  0
  186.6330  179.2800  147.4370 C   0  0  0  0  0  1  0  0  0  0  0  0
  185.7190  179.3920  146.3120 N   0  0  0  0  0  2  0  0  0  0  0  0
  184.1800  177.8620  147.1820 O   0  0  0  0  0  0  0  0  0  0  0  0
  1  3  1  0  0  0  0
  2 35  1  0  0  0  0
  3  2  1  0  0  0  0
  4  3  2  0  0  0  0
  5  6  1  1  0  0  0
  5  1  1  0  0  0  0
  7  5  1  0  0  0  0
  8  7  1  0  0  0  0
  9  8  1  0  0  0  0
 10  9  1  0  0  0  0
 10 11  1  1  0  0  0
 14 15  2  0  0  0  0
 15 13  1  0  0  0  0
 15 12  2  0  0  0  0
 15 10  1  0  0  0  0
 16  2  1  0  0  0  0
 16 18  1  0  0  0  0
 17 16  2  0  0  0  0
 18 19  2  0  0  0  0
 19 20  1  0  0  0  0
 21 23  2  0  0  0  0
 23 25  1  0  0  0  0
 23 27  1  0  0  0  0
 24 20  1  6  0  0  0
 25 26  1  0  0  0  0
 26 22  2  0  0  0  0
 26 24  1  0  0  0  0
 27 24  1  0  0  0  0
 29 28  1  0  0  0  0
 29 21  1  0  0  0  0
 30 34  1  0  0  0  0
 30 29  1  1  0  0  0
 32 33  1  0  0  0  0
 32 30  1  0  0  0  0
 33 31  1  0  0  0  0
 34 31  1  0  0  0  0
 35 36  1  0  0  0  0
 36 37  1  0  0  0  0
 37 39  1  0  0  0  0
 37 40  2  0  0  0  0
 39 38  1  0  0  0  0
M  END
>  <MODEL>
7

>  <REMARK>
 VINA RESULT:      -6.0      3.019      7.815
  Name = 
  15 active torsions:
  status: ('A' for Active; 'I' for Inactive)
    1  A    between atoms: C_1  and  C_2
    2  A    between atoms: C_1  and  C_23
    3  A    between atoms: N_3  and  C_6
    4  A    between atoms: C_4  and  C_6
    5  A    between atoms: C_4  and  N_7
    6  A    between atoms: C_5  and  N_31
    7  A    between atoms: N_7  and  C_37
    8  A    between atoms: C_9  and  C_20
    9  A    between atoms: C_9  and  N_21
   10  A    between atoms: C_12  and  N_31
   11  A    between atoms: C_13  and  C_37
   12  A    between atoms: C_13  and  S_39
   13  A    between atoms: N_21  and  C_23
   14  A    between atoms: C_22  and  C_33
   15  A    between atoms: C_25  and  C_33
                            x       y       z     vdW  Elec       q    Type
                         _______ _______ _______ _____ _____    ______ ____

>  <TORSDO>
F 15

$$$$
=
 OpenBabel10222415403D

 40 41  0  0  1  0  0  0  0  0999 V2000
  187.0200  178.2540  138.8140 N   0  0  0  0  0  2  0  0  0  0  0  0
  184.5400  178.1480  138.6140 N   0  0  0  0  0  0  0  0  0  0  0  0
  185.8480  177.9140  138.0550 C   0  0  0  0  0  0  0  0  0  0  0  0
  185.9720  177.4300  136.8970 O   0  0  0  0  0  0  0  0  0  0  0  0
  188.3930  178.0320  138.3680 C   0  0  1  0  0  3  0  0  0  0  0  0
  188.8970  179.2340  137.5840 C   0  0  0  0  0  1  0  0  0  0  0  0
  189.3020  177.7310  139.5510 C   0  0  0  0  0  2  0  0  0  0  0  0
  188.5870  177.9470  140.7970 N   0  0  0  0  0  2  0  0  0  0  0  0
  189.2440  177.1250  141.8000 C   0  0  0  0  0  2  0  0  0  0  0  0
  189.2680  177.8220  143.1590 C   0  0  1  0  0  3  0  0  0  0  0  0
  188.0040  177.5260  143.9470 C   0  0  0  0  0  1  0  0  0  0  0  0
  191.3030  176.1090  143.5820 O   0  0  0  0  0  0  0  0  0  0  0  0
  190.2850  177.1690  145.8180 C   0  0  0  0  0  1  0  0  0  0  0  0
  191.7560  178.4810  144.0010 O   0  0  0  0  0  0  0  0  0  0  0  0
  190.7250  177.3930  144.1100 S   0  0  0  0  0  0  0  0  0  0  0  0
  183.3490  177.5190  138.0790 C   0  0  0  0  0  0  0  0  0  0  0  0
  183.1150  175.9040  138.3040 S   0  0  0  0  0  0  0  0  0  0  0  0
  182.4320  178.3210  137.2230 C   0  0  0  0  0  3  0  0  0  0  0  0
  181.4640  179.1790  137.5710 C   0  0  0  0  0  3  0  0  0  0  0  0
  181.0810  179.5710  138.9630 C   0  0  0  0  0  2  0  0  0  0  0  0
  179.0610  175.4410  137.7430 C   0  0  0  0  0  3  0  0  0  0  0  0
  180.6390  177.8890  141.4470 O   0  0  0  0  0  0  0  0  0  0  0  0
  179.3300  176.5070  138.4990 C   0  0  0  0  0  0  0  0  0  0  0  0
  179.8030  178.8640  139.4050 C   0  0  2  0  0  3  0  0  0  0  0  0
  179.9300  176.4230  139.7800 N   0  0  0  0  0  2  0  0  0  0  0  0
  180.1570  177.7200  140.2960 C   0  0  0  0  0  0  0  0  0  0  0  0
  178.9310  178.1610  137.9450 S   0  0  0  0  0  0  0  0  0  0  0  0
  179.6430  173.7640  139.4040 O   0  0  0  0  0  1  0  0  0  0  0  0
  179.3960  174.0950  138.1110 N   0  0  0  0  0  0  0  0  0  0  0  0
  179.7220  173.1530  137.0460 C   0  0  1  0  0  3  0  0  0  0  0  0
  181.8220  172.0920  137.3320 O   0  0  0  0  0  0  0  0  0  0  0  0
  180.7070  173.7700  136.0950 C   0  0  0  0  0  2  0  0  0  0  0  0
  181.8790  172.8160  136.1310 C   0  0  0  0  0  2  0  0  0  0  0  0
  180.4530  171.9470  137.6030 C   0  0  0  0  0  2  0  0  0  0  0  0
  184.4320  179.0510  139.7580 C   0  0  0  0  0  2  0  0  0  0  0  0
  184.0580  178.2680  141.0060 C   0  0  0  0  0  2  0  0  0  0  0  0
  184.6670  178.9020  142.2040 C   0  0  0  0  0  0  0  0  0  0  0  0
  184.6740  179.2350  144.7020 C   0  0  0  0  0  1  0  0  0  0  0  0
  184.1200  178.6390  143.4980 N   0  0  0  0  0  2  0  0  0  0  0  0
  185.6680  179.6560  142.0710 O   0  0  0  0  0  0  0  0  0  0  0  0
  2 35  1  0  0  0  0
  3  2  1  0  0  0  0
  3  1  1  0  0  0  0
  4  3  2  0  0  0  0
  5  6  1  1  0  0  0
  5  1  1  0  0  0  0
  5  7  1  0  0  0  0
  7  8  1  0  0  0  0
  8  9  1  0  0  0  0
  9 10  1  0  0  0  0
 10 11  1  1  0  0  0
 10 15  1  0  0  0  0
 12 15  2  0  0  0  0
 14 15  2  0  0  0  0
 15 13  1  0  0  0  0
 16 17  2  0  0  0  0
 16  2  1  0  0  0  0
 18 19  2  0  0  0  0
 18 16  1  0  0  0  0
 19 20  1  0  0  0  0
 21 29  1  0  0  0  0
 21 23  2  0  0  0  0
 23 25  1  0  0  0  0
 24 20  1  6  0  0  0
 24 26  1  0  0  0  0
 25 26  1  0  0  0  0
 26 22  2  0  0  0  0
 27 23  1  0  0  0  0
 27 24  1  0  0  0  0
 29 28  1  0  0  0  0
 30 34  1  0  0  0  0
 30 29  1  1  0  0  0
 31 34  1  0  0  0  0
 32 33  1  0  0  0  0
 32 30  1  0  0  0  0
 33 31  1  0  0  0  0
 35 36  1  0  0  0  0
 36 37  1  0  0  0  0
 37 39  1  0  0  0  0
 39 38  1  0  0  0  0
 40 37  2  0  0  0  0
M  END
>  <MODEL>
8

>  <REMARK>
 VINA RESULT:      -5.9      2.907      7.589
  Name = 
  15 active torsions:
  status: ('A' for Active; 'I' for Inactive)
    1  A    between atoms: C_1  and  C_2
    2  A    between atoms: C_1  and  C_23
    3  A    between atoms: N_3  and  C_6
    4  A    between atoms: C_4  and  C_6
    5  A    between atoms: C_4  and  N_7
    6  A    between atoms: C_5  and  N_31
    7  A    between atoms: N_7  and  C_37
    8  A    between atoms: C_9  and  C_20
    9  A    between atoms: C_9  and  N_21
   10  A    between atoms: C_12  and  N_31
   11  A    between atoms: C_13  and  C_37
   12  A    between atoms: C_13  and  S_39
   13  A    between atoms: N_21  and  C_23
   14  A    between atoms: C_22  and  C_33
   15  A    between atoms: C_25  and  C_33
                            x       y       z     vdW  Elec       q    Type
                         _______ _______ _______ _____ _____    ______ ____

>  <TORSDO>
F 15

$$$$
=
 OpenBabel10222415403D

 40 41  0  0  1  0  0  0  0  0999 V2000
  186.3170  177.9410  144.7330 N   0  0  0  0  0  2  0  0  0  0  0  0
  188.3550  177.4480  143.3890 N   0  0  0  0  0  0  0  0  0  0  0  0
  186.9680  177.8390  143.4570 C   0  0  0  0  0  0  0  0  0  0  0  0
  186.3180  178.0730  142.4020 O   0  0  0  0  0  0  0  0  0  0  0  0
  184.9310  178.3590  144.9290 C   0  0  1  0  0  3  0  0  0  0  0  0
  184.6400  178.5570  146.4090 C   0  0  0  0  0  1  0  0  0  0  0  0
  184.6340  179.6260  144.1400 C   0  0  0  0  0  2  0  0  0  0  0  0
  183.2000  179.7810  143.9670 N   0  0  0  0  0  2  0  0  0  0  0  0
  182.7420  178.6100  143.2370 C   0  0  0  0  0  2  0  0  0  0  0  0
  181.9650  179.0080  141.9820 C   0  0  1  0  0  3  0  0  0  0  0  0
  182.1200  177.9640  140.8890 C   0  0  0  0  0  1  0  0  0  0  0  0
  179.7590  178.3390  143.3760 O   0  0  0  0  0  0  0  0  0  0  0  0
  179.2730  179.0850  140.8530 C   0  0  0  0  0  1  0  0  0  0  0  0
  180.0430  180.7140  142.8380 O   0  0  0  0  0  0  0  0  0  0  0  0
  180.2340  179.3110  142.3310 S   0  0  0  0  0  0  0  0  0  0  0  0
  189.1600  177.6640  142.2040 C   0  0  0  0  0  0  0  0  0  0  0  0
  190.7240  177.1470  142.1830 S   0  0  0  0  0  0  0  0  0  0  0  0
  188.5970  178.4680  141.0850 C   0  0  0  0  0  3  0  0  0  0  0  0
  188.8530  178.4090  139.7720 C   0  0  0  0  0  3  0  0  0  0  0  0
  189.7860  177.4600  139.0890 C   0  0  0  0  0  2  0  0  0  0  0  0
  186.0160  175.9930  136.5880 C   0  0  0  0  0  3  0  0  0  0  0  0
  188.8760  179.6810  137.2360 O   0  0  0  0  0  0  0  0  0  0  0  0
  187.1480  176.6530  136.8400 C   0  0  0  0  0  0  0  0  0  0  0  0
  189.4940  177.3770  137.5940 C   0  0  2  0  0  3  0  0  0  0  0  0
  187.2420  178.0670  136.8380 N   0  0  0  0  0  2  0  0  0  0  0  0
  188.5460  178.4660  137.2170 C   0  0  0  0  0  0  0  0  0  0  0  0
  188.6690  175.7810  137.1970 S   0  0  0  0  0  0  0  0  0  0  0  0
  184.4610  177.1480  135.1180 O   0  0  0  0  0  1  0  0  0  0  0  0
  184.7560  176.6330  136.3400 N   0  0  0  0  0  0  0  0  0  0  0  0
  183.9090  176.9510  137.4840 C   0  0  1  0  0  3  0  0  0  0  0  0
  182.0210  175.5320  137.6860 O   0  0  0  0  0  0  0  0  0  0  0  0
  182.6900  177.7020  137.0310 C   0  0  0  0  0  2  0  0  0  0  0  0
  181.5440  176.8400  137.5070 C   0  0  0  0  0  2  0  0  0  0  0  0
  183.3510  175.6850  138.1060 C   0  0  0  0  0  2  0  0  0  0  0  0
  188.9490  176.8150  144.5640 C   0  0  0  0  0  2  0  0  0  0  0  0
  189.2610  177.8640  145.6180 C   0  0  0  0  0  2  0  0  0  0  0  0
  190.0930  177.2700  146.6970 C   0  0  0  0  0  0  0  0  0  0  0  0
  192.0560  175.8410  147.3720 C   0  0  0  0  0  1  0  0  0  0  0  0
  191.2120  176.4490  146.3570 N   0  0  0  0  0  2  0  0  0  0  0  0
  189.8110  177.5040  147.9030 O   0  0  0  0  0  0  0  0  0  0  0  0
  1  5  1  0  0  0  0
  2  3  1  0  0  0  0
  2 35  1  0  0  0  0
  3  1  1  0  0  0  0
  4  3  2  0  0  0  0
  5  6  1  1  0  0  0
  7  5  1  0  0  0  0
  8  7  1  0  0  0  0
  9  8  1  0  0  0  0
 10 11  1  6  0  0  0
 10 15  1  0  0  0  0
 10  9  1  0  0  0  0
 13 15  1  0  0  0  0
 15 14  2  0  0  0  0
 15 12  2  0  0  0  0
 16  2  1  0  0  0  0
 17 16  2  0  0  0  0
 18 16  1  0  0  0  0
 19 18  2  0  0  0  0
 20 19  1  0  0  0  0
 21 23  2  0  0  0  0
 23 27  1  0  0  0  0
 24 20  1  1  0  0  0
 25 23  1  0  0  0  0
 25 26  1  0  0  0  0
 26 22  2  0  0  0  0
 26 24  1  0  0  0  0
 27 24  1  0  0  0  0
 28 29  1  0  0  0  0
 29 21  1  0  0  0  0
 30 29  1  6  0  0  0
 30 34  1  0  0  0  0
 31 34  1  0  0  0  0
 32 30  1  0  0  0  0
 32 33  1  0  0  0  0
 33 31  1  0  0  0  0
 35 36  1  0  0  0  0
 36 37  1  0  0  0  0
 37 40  2  0  0  0  0
 39 37  1  0  0  0  0
 39 38  1  0  0  0  0
M  END
>  <MODEL>
9

>  <REMARK>
 VINA RESULT:      -5.7      2.843      9.757
  Name = 
  15 active torsions:
  status: ('A' for Active; 'I' for Inactive)
    1  A    between atoms: C_1  and  C_2
    2  A    between atoms: C_1  and  C_23
    3  A    between atoms: N_3  and  C_6
    4  A    between atoms: C_4  and  C_6
    5  A    between atoms: C_4  and  N_7
    6  A    between atoms: C_5  and  N_31
    7  A    between atoms: N_7  and  C_37
    8  A    between atoms: C_9  and  C_20
    9  A    between atoms: C_9  and  N_21
   10  A    between atoms: C_12  and  N_31
   11  A    between atoms: C_13  and  C_37
   12  A    between atoms: C_13  and  S_39
   13  A    between atoms: N_21  and  C_23
   14  A    between atoms: C_22  and  C_33
   15  A    between atoms: C_25  and  C_33
                            x       y       z     vdW  Elec       q    Type
                         _______ _______ _______ _____ _____    ______ ____

>  <TORSDO>
F 15

$$$$
