=
 OpenBabel10222419033D

 50 57  0  0  1  0  0  0  0  0999 V2000
  188.1160  176.4010  138.0220 C   0  0  0  0  0  2  0  0  0  0  0  0
  189.4370  177.1490  138.1750 C   0  0  1  0  0  0  0  0  0  0  0  0
  189.0850  176.4430  136.8480 C   0  0  1  0  0  0  0  0  0  0  0  0
  189.1730  178.6400  138.3110 C   0  0  0  0  0  1  0  0  0  0  0  0
  192.8050  173.2940  135.8410 C   0  0  0  0  0  0  0  0  0  0  0  0
  191.4640  173.7510  136.1890 C   0  0  0  0  0  0  0  0  0  0  0  0
  193.3450  175.7800  135.6330 C   0  0  0  0  0  3  0  0  0  0  0  0
  192.1400  176.0960  136.0260 N   0  0  0  0  0  0  0  0  0  0  0  0
  190.3500  173.0230  136.3730 N   0  0  0  0  0  0  0  0  0  0  0  0
  193.1190  172.0770  135.9260 O   0  0  0  0  0  0  0  0  0  0  0  0
  191.1730  175.0770  136.2950 C   0  0  0  0  0  0  0  0  0  0  0  0
  189.8630  175.2260  136.5670 N   0  0  0  0  0  0  0  0  0  0  0  0
  189.3850  173.9550  136.6070 C   0  0  0  0  0  3  0  0  0  0  0  0
  193.8200  174.3390  135.4360 C   0  0  0  0  0  2  0  0  0  0  0  0
  188.7760  177.3400  135.6250 C   0  0  0  0  0  2  0  0  0  0  0  0
  186.3640  177.4960  135.7170 C   0  0  2  0  0  3  0  0  0  0  0  0
  186.8040  178.3370  134.5980 N   0  0  0  0  0  2  0  0  0  0  0  0
  187.4690  177.0500  134.8880 C   0  0  1  0  0  3  0  0  0  0  0  0
  185.0550  176.8080  135.3430 C   0  0  0  0  0  2  0  0  0  0  0  0
  184.9720  175.4140  135.9770 C   0  0  0  0  0  2  0  0  0  0  0  0
  183.4380  174.6450  137.7990 C   0  0  0  0  0  2  0  0  0  0  0  0
  183.2330  176.1440  137.6270 C   0  0  2  0  0  3  0  0  0  0  0  0
  184.6060  175.5340  137.4510 C   0  0  2  0  0  3  0  0  0  0  0  0
  183.2280  176.7800  138.9320 N   0  0  0  0  0  2  0  0  0  0  0  0
  183.0190  179.0080  138.2530 O   0  0  0  0  0  0  0  0  0  0  0  0
  183.3890  178.1830  139.1320 C   0  0  0  0  0  0  0  0  0  0  0  0
  184.0180  178.6450  140.3740 C   0  0  0  0  0  0  0  0  0  0  0  0
  185.2590  178.8940  140.4220 O   0  0  0  0  0  0  0  0  0  0  0  0
  183.2130  178.7850  141.5050 O   0  0  0  0  0  0  0  0  0  0  0  0
  181.1500  178.6170  142.7410 C   0  0  0  0  0  1  0  0  0  0  0  0
  181.8110  179.0450  141.4410 C   0  0  0  0  0  2  0  0  0  0  0  0
  190.3030  176.4350  139.2090 C   0  0  0  0  0  2  0  0  0  0  0  0
  190.4530  177.2140  140.5050 C   0  0  0  0  0  2  0  0  0  0  0  0
  191.7720  177.1560  140.9820 O   0  0  0  0  0  0  0  0  0  0  0  0
  191.6690  177.5880  142.3190 C   0  0  0  0  0  2  0  0  0  0  0  0
  191.0020  176.5310  143.2030 C   0  0  0  0  0  2  0  0  0  0  0  0
  184.5380  178.4880  144.7130 N   0  0  0  0  0  0  0  0  0  0  0  0
  189.3110  177.4770  144.8170 C   0  0  0  0  0  0  0  0  0  0  0  0
  187.9480  177.0880  148.2020 C   0  0  0  0  0  1  0  0  0  0  0  0
  188.0490  177.7020  146.8890 N   0  0  0  0  0  0  0  0  0  0  0  0
  186.8590  178.0210  146.1410 C   0  0  0  0  0  0  0  0  0  0  0  0
  186.8660  177.9570  144.7230 C   0  0  0  0  0  0  0  0  0  0  0  0
  188.0990  177.5470  143.9390 C   0  0  0  0  0  3  0  0  0  0  0  0
  185.6730  178.1810  144.0350 C   0  0  0  0  0  2  0  0  0  0  0  0
  190.5490  177.0850  144.4730 N   0  0  0  0  0  0  0  0  0  0  0  0
  185.6750  178.3570  146.8070 C   0  0  0  0  0  3  0  0  0  0  0  0
  184.5200  178.6000  146.0690 C   0  0  0  0  0  3  0  0  0  0  0  0
  191.2460  177.0280  145.6310 C   0  0  0  0  0  3  0  0  0  0  0  0
  189.2830  177.6430  146.1700 C   0  0  0  0  0  0  0  0  0  0  0  0
  190.4850  177.3490  146.7020 N   0  0  0  0  0  0  0  0  0  0  0  0
  1  2  1  0  0  0  0
  2  4  1  1  0  0  0
  2 32  1  0  0  0  0
  3 15  1  6  0  0  0
  3  1  1  0  0  0  0
  3  2  1  0  0  0  0
  5 10  2  0  0  0  0
  5  6  1  0  0  0  0
  6 11  2  0  0  0  0
  6  9  1  0  0  0  0
  7  8  2  0  0  0  0
  8 11  1  0  0  0  0
  9 13  2  0  0  0  0
 11 12  1  0  0  0  0
 12 13  1  0  0  0  0
 12  3  1  0  0  0  0
 14  7  1  0  0  0  0
 14  5  1  0  0  0  0
 16 19  1  6  0  0  0
 17 18  1  0  0  0  0
 17 16  1  0  0  0  0
 18 15  1  1  0  0  0
 18 16  1  0  0  0  0
 19 20  1  0  0  0  0
 22 21  1  0  0  0  0
 22 24  1  1  0  0  0
 23 20  1  6  0  0  0
 23 22  1  0  0  0  0
 23 21  1  0  0  0  0
 24 26  1  0  0  0  0
 25 26  2  0  0  0  0
 26 27  1  0  0  0  0
 27 28  2  0  0  0  0
 27 29  1  0  0  0  0
 31 29  1  0  0  0  0
 31 30  1  0  0  0  0
 32 33  1  0  0  0  0
 33 34  1  0  0  0  0
 34 35  1  0  0  0  0
 35 36  1  0  0  0  0
 36 45  1  0  0  0  0
 37 47  2  0  0  0  0
 38 49  2  0  0  0  0
 40 39  1  0  0  0  0
 41 46  2  0  0  0  0
 41 40  1  0  0  0  0
 42 41  1  0  0  0  0
 43 42  2  0  0  0  0
 43 38  1  0  0  0  0
 44 37  1  0  0  0  0
 44 42  1  0  0  0  0
 45 38  1  0  0  0  0
 45 48  1  0  0  0  0
 47 46  1  0  0  0  0
 48 50  2  0  0  0  0
 49 50  1  0  0  0  0
 49 40  1  0  0  0  0
M  END
>  <MODEL>
1

>  <REMARK>
 VINA RESULT:      -7.4      0.000      0.000
  Name = 
  16 active torsions:
  status: ('A' for Active; 'I' for Inactive)
    1  A    between atoms: N_10  and  C_40
    2  A    between atoms: C_11  and  C_19
    3  A    between atoms: C_15  and  C_25
    4  A    between atoms: C_15  and  C_28
    5  A    between atoms: C_16  and  C_20
    6  A    between atoms: C_16  and  N_38
    7  A    between atoms: O_18  and  C_24
    8  A    between atoms: O_18  and  C_44
    9  A    between atoms: C_19  and  C_34
   10  A    between atoms: C_20  and  O_31
   11  A    between atoms: C_23  and  C_47
   12  A    between atoms: C_24  and  C_29
   13  A    between atoms: C_28  and  O_31
   14  A    between atoms: C_34  and  C_49
   15  A    between atoms: C_35  and  N_36
   16  A    between atoms: C_35  and  C_47
                            x       y       z     vdW  Elec       q    Type
                         _______ _______ _______ _____ _____    ______ ____

>  <TORSDO>
F 16

$$$$
=
 OpenBabel10222419033D

 50 57  0  0  1  0  0  0  0  0999 V2000
  188.7410  179.0950  141.3570 C   0  0  0  0  0  2  0  0  0  0  0  0
  187.7890  177.9200  141.1610 C   0  0  1  0  0  0  0  0  0  0  0  0
  189.2480  177.8390  140.6620 C   0  0  1  0  0  0  0  0  0  0  0  0
  187.4350  177.3110  142.5080 C   0  0  0  0  0  1  0  0  0  0  0  0
  190.1350  176.6130  135.9200 C   0  0  0  0  0  0  0  0  0  0  0  0
  189.7150  177.4150  137.0650 C   0  0  0  0  0  0  0  0  0  0  0  0
  190.8210  174.8930  137.6770 C   0  0  0  0  0  3  0  0  0  0  0  0
  190.3500  175.6490  138.6320 N   0  0  0  0  0  0  0  0  0  0  0  0
  189.2830  178.6880  137.0840 N   0  0  0  0  0  0  0  0  0  0  0  0
  189.8820  176.9790  134.7420 O   0  0  0  0  0  0  0  0  0  0  0  0
  189.8020  176.9370  138.3360 C   0  0  0  0  0  0  0  0  0  0  0  0
  189.4080  177.8900  139.2000 N   0  0  0  0  0  0  0  0  0  0  0  0
  189.0980  178.9490  138.4070 C   0  0  0  0  0  3  0  0  0  0  0  0
  190.8260  175.2980  136.2020 C   0  0  0  0  0  2  0  0  0  0  0  0
  190.2030  176.8760  141.4090 C   0  0  0  0  0  2  0  0  0  0  0  0
  190.6790  176.7950  143.7790 C   0  0  2  0  0  3  0  0  0  0  0  0
  191.9220  176.4450  143.0810 N   0  0  0  0  0  2  0  0  0  0  0  0
  191.0190  177.4860  142.5480 C   0  0  1  0  0  3  0  0  0  0  0  0
  191.0140  177.6270  145.0130 C   0  0  0  0  0  2  0  0  0  0  0  0
  190.4620  176.9650  146.2820 C   0  0  0  0  0  2  0  0  0  0  0  0
  189.5850  178.0260  148.3720 C   0  0  0  0  0  2  0  0  0  0  0  0
  188.5260  177.0540  147.8700 C   0  0  2  0  0  3  0  0  0  0  0  0
  189.3720  177.8370  146.8900 C   0  0  2  0  0  3  0  0  0  0  0  0
  187.2270  177.7010  147.9040 N   0  0  0  0  0  2  0  0  0  0  0  0
  186.4560  177.0870  145.7840 O   0  0  0  0  0  0  0  0  0  0  0  0
  186.4040  177.8900  146.7550 C   0  0  0  0  0  0  0  0  0  0  0  0
  185.5110  179.0530  146.7160 C   0  0  0  0  0  0  0  0  0  0  0  0
  185.7730  180.0980  147.3810 O   0  0  0  0  0  0  0  0  0  0  0  0
  184.3540  178.9660  145.9400 O   0  0  0  0  0  0  0  0  0  0  0  0
  183.2630  178.6970  143.8070 C   0  0  0  0  0  1  0  0  0  0  0  0
  184.2500  179.5130  144.6260 C   0  0  0  0  0  2  0  0  0  0  0  0
  186.6790  178.3260  140.1970 C   0  0  0  0  0  2  0  0  0  0  0  0
  185.5160  179.0240  140.8840 C   0  0  0  0  0  2  0  0  0  0  0  0
  184.7280  179.7270  139.9580 O   0  0  0  0  0  0  0  0  0  0  0  0
  183.4440  179.1700  140.1130 C   0  0  0  0  0  2  0  0  0  0  0  0
  182.9560  178.5060  138.8230 C   0  0  0  0  0  2  0  0  0  0  0  0
  181.6560  172.2560  136.1510 N   0  0  0  0  0  0  0  0  0  0  0  0
  181.4490  176.5030  138.5450 C   0  0  0  0  0  0  0  0  0  0  0  0
  179.5180  174.0010  140.4100 C   0  0  0  0  0  1  0  0  0  0  0  0
  180.0280  174.6390  139.2080 N   0  0  0  0  0  0  0  0  0  0  0  0
  180.5520  173.8420  138.1270 C   0  0  0  0  0  0  0  0  0  0  0  0
  181.6110  174.3370  137.3210 C   0  0  0  0  0  0  0  0  0  0  0  0
  182.2380  175.6970  137.5590 C   0  0  0  0  0  3  0  0  0  0  0  0
  182.1560  173.5030  136.3440 C   0  0  0  0  0  2  0  0  0  0  0  0
  181.7490  177.7170  139.0350 N   0  0  0  0  0  0  0  0  0  0  0  0
  180.0490  172.5580  137.8890 C   0  0  0  0  0  3  0  0  0  0  0  0
  180.6120  171.7790  136.8810 C   0  0  0  0  0  3  0  0  0  0  0  0
  180.8380  177.9500  140.0090 C   0  0  0  0  0  3  0  0  0  0  0  0
  180.3720  176.0260  139.2300 C   0  0  0  0  0  0  0  0  0  0  0  0
  179.9830  176.9130  140.1670 N   0  0  0  0  0  0  0  0  0  0  0  0
  2  1  1  0  0  0  0
  2  4  1  1  0  0  0
  3  2  1  0  0  0  0
  3  1  1  0  0  0  0
  3 15  1  1  0  0  0
  5 14  1  0  0  0  0
  5  6  1  0  0  0  0
  6  9  1  0  0  0  0
  6 11  2  0  0  0  0
  7  8  2  0  0  0  0
  9 13  2  0  0  0  0
 10  5  2  0  0  0  0
 11  8  1  0  0  0  0
 11 12  1  0  0  0  0
 12  3  1  0  0  0  0
 13 12  1  0  0  0  0
 14  7  1  0  0  0  0
 16 19  1  1  0  0  0
 17 16  1  0  0  0  0
 18 15  1  6  0  0  0
 18 17  1  0  0  0  0
 18 16  1  0  0  0  0
 19 20  1  0  0  0  0
 22 24  1  1  0  0  0
 22 21  1  0  0  0  0
 23 20  1  6  0  0  0
 23 22  1  0  0  0  0
 23 21  1  0  0  0  0
 25 26  2  0  0  0  0
 26 24  1  0  0  0  0
 27 26  1  0  0  0  0
 27 28  2  0  0  0  0
 29 27  1  0  0  0  0
 30 31  1  0  0  0  0
 31 29  1  0  0  0  0
 32 33  1  0  0  0  0
 32  2  1  0  0  0  0
 34 35  1  0  0  0  0
 34 33  1  0  0  0  0
 36 45  1  0  0  0  0
 36 35  1  0  0  0  0
 37 44  1  0  0  0  0
 37 47  2  0  0  0  0
 38 45  1  0  0  0  0
 38 49  2  0  0  0  0
 40 49  1  0  0  0  0
 40 39  1  0  0  0  0
 41 40  1  0  0  0  0
 42 43  2  0  0  0  0
 42 41  1  0  0  0  0
 43 38  1  0  0  0  0
 44 42  1  0  0  0  0
 45 48  1  0  0  0  0
 46 41  2  0  0  0  0
 47 46  1  0  0  0  0
 48 50  2  0  0  0  0
 49 50  1  0  0  0  0
M  END
>  <MODEL>
2

>  <REMARK>
 VINA RESULT:      -7.3      2.752      8.460
  Name = 
  16 active torsions:
  status: ('A' for Active; 'I' for Inactive)
    1  A    between atoms: N_10  and  C_40
    2  A    between atoms: C_11  and  C_19
    3  A    between atoms: C_15  and  C_25
    4  A    between atoms: C_15  and  C_28
    5  A    between atoms: C_16  and  C_20
    6  A    between atoms: C_16  and  N_38
    7  A    between atoms: O_18  and  C_24
    8  A    between atoms: O_18  and  C_44
    9  A    between atoms: C_19  and  C_34
   10  A    between atoms: C_20  and  O_31
   11  A    between atoms: C_23  and  C_47
   12  A    between atoms: C_24  and  C_29
   13  A    between atoms: C_28  and  O_31
   14  A    between atoms: C_34  and  C_49
   15  A    between atoms: C_35  and  N_36
   16  A    between atoms: C_35  and  C_47
                            x       y       z     vdW  Elec       q    Type
                         _______ _______ _______ _____ _____    ______ ____

>  <TORSDO>
F 16

$$$$
=
 OpenBabel10222419033D

 50 57  0  0  1  0  0  0  0  0999 V2000
  189.4240  176.2440  139.2750 C   0  0  0  0  0  2  0  0  0  0  0  0
  190.1260  177.5680  139.5610 C   0  0  1  0  0  0  0  0  0  0  0  0
  190.2660  176.8880  138.1820 C   0  0  1  0  0  0  0  0  0  0  0  0
  189.0940  178.6710  139.7390 C   0  0  0  0  0  1  0  0  0  0  0  0
  193.9230  173.9370  136.5440 C   0  0  0  0  0  0  0  0  0  0  0  0
  193.2760  175.0860  137.1690 C   0  0  0  0  0  0  0  0  0  0  0  0
  191.5460  173.0560  136.2500 C   0  0  0  0  0  3  0  0  0  0  0  0
  191.0530  174.1550  136.7550 N   0  0  0  0  0  0  0  0  0  0  0  0
  193.8430  176.1250  137.8050 N   0  0  0  0  0  0  0  0  0  0  0  0
  195.1610  173.9350  136.3120 O   0  0  0  0  0  0  0  0  0  0  0  0
  191.9210  175.1840  137.2400 C   0  0  0  0  0  0  0  0  0  0  0  0
  191.5880  176.3020  137.9100 N   0  0  0  0  0  0  0  0  0  0  0  0
  192.7820  176.8560  138.2450 C   0  0  0  0  0  3  0  0  0  0  0  0
  193.0450  172.7790  136.1270 C   0  0  0  0  0  2  0  0  0  0  0  0
  189.5730  177.5720  136.9780 C   0  0  0  0  0  2  0  0  0  0  0  0
  187.2320  178.1380  136.7490 C   0  0  2  0  0  3  0  0  0  0  0  0
  187.7170  177.7730  135.4120 N   0  0  0  0  0  2  0  0  0  0  0  0
  188.1840  177.0500  136.6140 C   0  0  1  0  0  3  0  0  0  0  0  0
  185.8040  177.6300  136.9200 C   0  0  0  0  0  2  0  0  0  0  0  0
  185.2150  178.1040  138.2540 C   0  0  0  0  0  2  0  0  0  0  0  0
  183.2820  176.9520  137.1590 C   0  0  0  0  0  2  0  0  0  0  0  0
  182.7810  178.2890  137.6880 C   0  0  2  0  0  3  0  0  0  0  0  0
  183.8280  177.5070  138.4510 C   0  0  2  0  0  3  0  0  0  0  0  0
  181.5240  178.0880  138.3860 N   0  0  0  0  0  2  0  0  0  0  0  0
  181.6220  179.9080  139.8500 O   0  0  0  0  0  0  0  0  0  0  0  0
  181.1700  178.7590  139.5940 C   0  0  0  0  0  0  0  0  0  0  0  0
  180.2870  178.0740  140.5430 C   0  0  0  0  0  0  0  0  0  0  0  0
  179.4930  178.7270  141.2820 O   0  0  0  0  0  0  0  0  0  0  0  0
  180.3600  176.6820  140.6210 O   0  0  0  0  0  0  0  0  0  0  0  0
  180.1990  174.7890  139.1380 C   0  0  0  0  0  1  0  0  0  0  0  0
  179.4380  175.8110  139.9670 C   0  0  0  0  0  2  0  0  0  0  0  0
  191.1950  177.3510  140.6270 C   0  0  0  0  0  2  0  0  0  0  0  0
  190.6220  177.1590  142.0210 C   0  0  0  0  0  2  0  0  0  0  0  0
  191.1560  178.0950  142.9230 O   0  0  0  0  0  0  0  0  0  0  0  0
  191.2810  177.3720  144.1260 C   0  0  0  0  0  2  0  0  0  0  0  0
  190.0160  176.5690  144.4370 C   0  0  0  0  0  2  0  0  0  0  0  0
  183.8210  178.6080  142.1240 N   0  0  0  0  0  0  0  0  0  0  0  0
  187.8260  177.7710  144.7820 C   0  0  0  0  0  0  0  0  0  0  0  0
  184.9430  178.0270  147.0390 C   0  0  0  0  0  1  0  0  0  0  0  0
  185.7270  178.3680  145.8640 N   0  0  0  0  0  0  0  0  0  0  0  0
  185.0900  178.4990  144.5770 C   0  0  0  0  0  0  0  0  0  0  0  0
  185.7920  178.1540  143.3930 C   0  0  0  0  0  0  0  0  0  0  0  0
  187.2150  177.6300  143.4210 C   0  0  0  0  0  3  0  0  0  0  0  0
  185.1160  178.2040  142.1730 C   0  0  0  0  0  2  0  0  0  0  0  0
  189.0390  177.3520  145.1820 N   0  0  0  0  0  0  0  0  0  0  0  0
  183.7610  178.9280  144.4880 C   0  0  0  0  0  3  0  0  0  0  0  0
  183.1430  178.9880  143.2410 C   0  0  0  0  0  3  0  0  0  0  0  0
  189.0660  177.5460  146.5210 C   0  0  0  0  0  3  0  0  0  0  0  0
  187.1460  178.2020  145.8820 C   0  0  0  0  0  0  0  0  0  0  0  0
  187.9020  178.0530  146.9880 N   0  0  0  0  0  0  0  0  0  0  0  0
  1  2  1  0  0  0  0
  2  4  1  1  0  0  0
  2 32  1  0  0  0  0
  3 15  1  6  0  0  0
  3  1  1  0  0  0  0
  3  2  1  0  0  0  0
  5  6  1  0  0  0  0
  6 11  2  0  0  0  0
  6  9  1  0  0  0  0
  7  8  2  0  0  0  0
  8 11  1  0  0  0  0
  9 13  2  0  0  0  0
 10  5  2  0  0  0  0
 11 12  1  0  0  0  0
 12  3  1  0  0  0  0
 12 13  1  0  0  0  0
 14  7  1  0  0  0  0
 14  5  1  0  0  0  0
 16 19  1  6  0  0  0
 17 18  1  0  0  0  0
 17 16  1  0  0  0  0
 18 16  1  0  0  0  0
 18 15  1  1  0  0  0
 19 20  1  0  0  0  0
 21 22  1  0  0  0  0
 21 23  1  0  0  0  0
 22 24  1  1  0  0  0
 22 23  1  0  0  0  0
 23 20  1  6  0  0  0
 24 26  1  0  0  0  0
 26 25  2  0  0  0  0
 26 27  1  0  0  0  0
 27 29  1  0  0  0  0
 27 28  2  0  0  0  0
 30 31  1  0  0  0  0
 31 29  1  0  0  0  0
 32 33  1  0  0  0  0
 33 34  1  0  0  0  0
 34 35  1  0  0  0  0
 35 36  1  0  0  0  0
 36 45  1  0  0  0  0
 37 44  1  0  0  0  0
 37 47  2  0  0  0  0
 38 45  1  0  0  0  0
 38 49  2  0  0  0  0
 40 49  1  0  0  0  0
 40 39  1  0  0  0  0
 41 40  1  0  0  0  0
 42 43  2  0  0  0  0
 42 41  1  0  0  0  0
 43 38  1  0  0  0  0
 44 42  1  0  0  0  0
 45 48  1  0  0  0  0
 46 41  2  0  0  0  0
 47 46  1  0  0  0  0
 48 50  2  0  0  0  0
 49 50  1  0  0  0  0
M  END
>  <MODEL>
3

>  <REMARK>
 VINA RESULT:      -7.2      1.843      2.706
  Name = 
  16 active torsions:
  status: ('A' for Active; 'I' for Inactive)
    1  A    between atoms: N_10  and  C_40
    2  A    between atoms: C_11  and  C_19
    3  A    between atoms: C_15  and  C_25
    4  A    between atoms: C_15  and  C_28
    5  A    between atoms: C_16  and  C_20
    6  A    between atoms: C_16  and  N_38
    7  A    between atoms: O_18  and  C_24
    8  A    between atoms: O_18  and  C_44
    9  A    between atoms: C_19  and  C_34
   10  A    between atoms: C_20  and  O_31
   11  A    between atoms: C_23  and  C_47
   12  A    between atoms: C_24  and  C_29
   13  A    between atoms: C_28  and  O_31
   14  A    between atoms: C_34  and  C_49
   15  A    between atoms: C_35  and  N_36
   16  A    between atoms: C_35  and  C_47
                            x       y       z     vdW  Elec       q    Type
                         _______ _______ _______ _____ _____    ______ ____

>  <TORSDO>
F 16

$$$$
=
 OpenBabel10222419033D

 50 57  0  0  1  0  0  0  0  0999 V2000
  187.1810  176.4340  143.5000 C   0  0  0  0  0  2  0  0  0  0  0  0
  186.7770  177.8710  143.8130 C   0  0  1  0  0  0  0  0  0  0  0  0
  188.2670  177.4720  143.7450 C   0  0  1  0  0  0  0  0  0  0  0  0
  186.1250  178.5020  142.5920 C   0  0  0  0  0  1  0  0  0  0  0  0
  191.6070  176.6460  147.3410 C   0  0  0  0  0  0  0  0  0  0  0  0
  190.4160  177.1730  146.6820 C   0  0  0  0  0  0  0  0  0  0  0  0
  191.9980  175.4210  145.1360 C   0  0  0  0  0  3  0  0  0  0  0  0
  190.9530  175.9990  144.6050 N   0  0  0  0  0  0  0  0  0  0  0  0
  189.4240  177.9120  147.2080 N   0  0  0  0  0  0  0  0  0  0  0  0
  191.9630  177.0670  148.4730 O   0  0  0  0  0  0  0  0  0  0  0  0
  190.1350  176.8760  145.3840 C   0  0  0  0  0  0  0  0  0  0  0  0
  188.9600  177.4360  145.0430 N   0  0  0  0  0  0  0  0  0  0  0  0
  188.5480  178.0610  146.1760 C   0  0  0  0  0  3  0  0  0  0  0  0
  192.4310  175.6250  146.5890 C   0  0  0  0  0  2  0  0  0  0  0  0
  189.0960  178.0160  142.5550 C   0  0  0  0  0  2  0  0  0  0  0  0
  188.9970  177.9730  140.1390 C   0  0  2  0  0  3  0  0  0  0  0  0
  190.3380  177.5140  140.5200 N   0  0  0  0  0  2  0  0  0  0  0  0
  189.1500  177.1300  141.3110 C   0  0  1  0  0  3  0  0  0  0  0  0
  188.5230  177.1810  138.9240 C   0  0  0  0  0  2  0  0  0  0  0  0
  188.5870  178.0400  137.6560 C   0  0  0  0  0  2  0  0  0  0  0  0
  189.4300  177.3040  135.4180 C   0  0  0  0  0  2  0  0  0  0  0  0
  189.7650  176.2070  136.4190 C   0  0  2  0  0  3  0  0  0  0  0  0
  189.8110  177.6610  136.8330 C   0  0  2  0  0  3  0  0  0  0  0  0
  191.1410  175.7870  136.2280 N   0  0  0  0  0  2  0  0  0  0  0  0
  191.5450  174.8780  138.3440 O   0  0  0  0  0  0  0  0  0  0  0  0
  192.0070  175.3960  137.2910 C   0  0  0  0  0  0  0  0  0  0  0  0
  193.4470  175.6330  137.1460 C   0  0  0  0  0  0  0  0  0  0  0  0
  193.9260  176.8030  137.2190 O   0  0  0  0  0  0  0  0  0  0  0  0
  194.2720  174.5330  136.9060 O   0  0  0  0  0  0  0  0  0  0  0  0
  195.2860  172.7450  138.1660 C   0  0  0  0  0  1  0  0  0  0  0  0
  195.3890  174.1970  137.7270 C   0  0  0  0  0  2  0  0  0  0  0  0
  186.0620  177.9130  145.1600 C   0  0  0  0  0  2  0  0  0  0  0  0
  185.3020  179.2070  145.3950 C   0  0  0  0  0  2  0  0  0  0  0  0
  184.0640  178.9630  146.0120 O   0  0  0  0  0  0  0  0  0  0  0  0
  183.2820  178.3910  144.9900 C   0  0  0  0  0  2  0  0  0  0  0  0
  182.8490  179.4340  143.9580 C   0  0  0  0  0  2  0  0  0  0  0  0
  182.7970  177.5170  137.3090 N   0  0  0  0  0  0  0  0  0  0  0  0
  181.6170  178.6210  141.9130 C   0  0  0  0  0  0  0  0  0  0  0  0
  179.3410  176.0080  140.7050 C   0  0  0  0  0  1  0  0  0  0  0  0
  180.1650  177.1970  140.5720 N   0  0  0  0  0  0  0  0  0  0  0  0
  181.0440  177.3510  139.4400 C   0  0  0  0  0  0  0  0  0  0  0  0
  182.2730  178.0480  139.5770 C   0  0  0  0  0  0  0  0  0  0  0  0
  182.7190  178.6460  140.8980 C   0  0  0  0  0  3  0  0  0  0  0  0
  183.1410  178.0980  138.4860 C   0  0  0  0  0  2  0  0  0  0  0  0
  181.6810  179.0040  143.1990 N   0  0  0  0  0  0  0  0  0  0  0  0
  180.7130  176.7790  138.2060 C   0  0  0  0  0  3  0  0  0  0  0  0
  181.6050  176.8840  137.1420 C   0  0  0  0  0  3  0  0  0  0  0  0
  180.5010  178.6340  143.7470 C   0  0  0  0  0  3  0  0  0  0  0  0
  180.4080  178.0260  141.7110 C   0  0  0  0  0  0  0  0  0  0  0  0
  179.6970  178.0080  142.8560 N   0  0  0  0  0  0  0  0  0  0  0  0
  1  3  1  0  0  0  0
  1  2  1  0  0  0  0
  2  4  1  6  0  0  0
  2 32  1  0  0  0  0
  3 15  1  6  0  0  0
  3  2  1  0  0  0  0
  3 12  1  0  0  0  0
  5 10  2  0  0  0  0
  6  9  1  0  0  0  0
  6  5  1  0  0  0  0
  7 14  1  0  0  0  0
  8  7  2  0  0  0  0
  8 11  1  0  0  0  0
 11  6  2  0  0  0  0
 12 11  1  0  0  0  0
 12 13  1  0  0  0  0
 13  9  2  0  0  0  0
 14  5  1  0  0  0  0
 16 19  1  6  0  0  0
 16 17  1  0  0  0  0
 16 18  1  0  0  0  0
 17 18  1  0  0  0  0
 18 15  1  1  0  0  0
 20 19  1  0  0  0  0
 21 22  1  0  0  0  0
 21 23  1  0  0  0  0
 22 24  1  6  0  0  0
 22 23  1  0  0  0  0
 23 20  1  1  0  0  0
 24 26  1  0  0  0  0
 26 25  2  0  0  0  0
 27 28  2  0  0  0  0
 27 26  1  0  0  0  0
 29 27  1  0  0  0  0
 29 31  1  0  0  0  0
 31 30  1  0  0  0  0
 32 33  1  0  0  0  0
 33 34  1  0  0  0  0
 35 34  1  0  0  0  0
 36 35  1  0  0  0  0
 37 44  1  0  0  0  0
 38 45  1  0  0  0  0
 40 39  1  0  0  0  0
 40 49  1  0  0  0  0
 41 42  1  0  0  0  0
 41 40  1  0  0  0  0
 42 43  2  0  0  0  0
 43 38  1  0  0  0  0
 44 42  1  0  0  0  0
 45 48  1  0  0  0  0
 45 36  1  0  0  0  0
 46 41  2  0  0  0  0
 47 37  2  0  0  0  0
 47 46  1  0  0  0  0
 49 38  2  0  0  0  0
 49 50  1  0  0  0  0
 50 48  2  0  0  0  0
M  END
>  <MODEL>
4

>  <REMARK>
 VINA RESULT:      -7.2      2.552      9.249
  Name = 
  16 active torsions:
  status: ('A' for Active; 'I' for Inactive)
    1  A    between atoms: N_10  and  C_40
    2  A    between atoms: C_11  and  C_19
    3  A    between atoms: C_15  and  C_25
    4  A    between atoms: C_15  and  C_28
    5  A    between atoms: C_16  and  C_20
    6  A    between atoms: C_16  and  N_38
    7  A    between atoms: O_18  and  C_24
    8  A    between atoms: O_18  and  C_44
    9  A    between atoms: C_19  and  C_34
   10  A    between atoms: C_20  and  O_31
   11  A    between atoms: C_23  and  C_47
   12  A    between atoms: C_24  and  C_29
   13  A    between atoms: C_28  and  O_31
   14  A    between atoms: C_34  and  C_49
   15  A    between atoms: C_35  and  N_36
   16  A    between atoms: C_35  and  C_47
                            x       y       z     vdW  Elec       q    Type
                         _______ _______ _______ _____ _____    ______ ____

>  <TORSDO>
F 16

$$$$
=
 OpenBabel10222419033D

 50 57  0  0  1  0  0  0  0  0999 V2000
  189.4030  178.9810  139.0360 C   0  0  0  0  0  2  0  0  0  0  0  0
  188.7920  177.7460  139.6900 C   0  0  1  0  0  0  0  0  0  0  0  0
  189.3350  177.6810  138.2460 C   0  0  1  0  0  0  0  0  0  0  0  0
  189.6780  177.2760  140.8330 C   0  0  0  0  0  1  0  0  0  0  0  0
  185.5730  176.0790  135.4090 C   0  0  0  0  0  0  0  0  0  0  0  0
  186.6000  176.9740  135.9310 C   0  0  0  0  0  0  0  0  0  0  0  0
  186.5160  174.4000  137.0830 C   0  0  0  0  0  3  0  0  0  0  0  0
  187.3540  175.2930  137.5390 N   0  0  0  0  0  0  0  0  0  0  0  0
  186.9540  178.1930  135.4900 N   0  0  0  0  0  0  0  0  0  0  0  0
  184.7010  176.4920  134.5990 O   0  0  0  0  0  0  0  0  0  0  0  0
  187.4170  176.5960  136.9520 C   0  0  0  0  0  0  0  0  0  0  0  0
  188.3050  177.5760  137.2000 N   0  0  0  0  0  0  0  0  0  0  0  0
  188.0000  178.5380  136.2910 C   0  0  0  0  0  3  0  0  0  0  0  0
  185.5540  174.6570  135.9230 C   0  0  0  0  0  2  0  0  0  0  0  0
  190.6230  176.8560  138.0060 C   0  0  0  0  0  2  0  0  0  0  0  0
  191.7480  175.2080  136.6400 C   0  0  2  0  0  3  0  0  0  0  0  0
  191.2690  174.5130  137.8400 N   0  0  0  0  0  2  0  0  0  0  0  0
  190.4580  175.5690  137.1990 C   0  0  1  0  0  3  0  0  0  0  0  0
  191.6100  174.2810  135.4350 C   0  0  0  0  0  2  0  0  0  0  0  0
  192.0840  172.8650  135.7810 C   0  0  0  0  0  2  0  0  0  0  0  0
  194.0560  171.3280  135.6830 C   0  0  0  0  0  2  0  0  0  0  0  0
  194.2730  172.2810  136.8510 C   0  0  2  0  0  3  0  0  0  0  0  0
  193.5910  172.7600  135.5880 C   0  0  2  0  0  3  0  0  0  0  0  0
  195.6310  172.7930  136.8060 N   0  0  0  0  0  2  0  0  0  0  0  0
  195.8520  173.4460  139.0400 O   0  0  0  0  0  0  0  0  0  0  0  0
  196.2180  173.5790  137.8410 C   0  0  0  0  0  0  0  0  0  0  0  0
  197.2430  174.5630  137.4780 C   0  0  0  0  0  0  0  0  0  0  0  0
  197.7560  175.3210  138.3520 O   0  0  0  0  0  0  0  0  0  0  0  0
  197.6210  174.6530  136.1370 O   0  0  0  0  0  0  0  0  0  0  0  0
  195.8310  176.0330  135.3000 C   0  0  0  0  0  1  0  0  0  0  0  0
  197.3300  175.7820  135.3150 C   0  0  0  0  0  2  0  0  0  0  0  0
  187.3060  177.9870  139.9330 C   0  0  0  0  0  2  0  0  0  0  0  0
  187.0140  178.6190  141.2840 C   0  0  0  0  0  2  0  0  0  0  0  0
  185.8880  179.4570  141.2200 O   0  0  0  0  0  0  0  0  0  0  0  0
  185.4620  179.5540  142.5600 C   0  0  0  0  0  2  0  0  0  0  0  0
  184.8960  178.2270  143.0700 C   0  0  0  0  0  2  0  0  0  0  0  0
  191.2340  176.5180  145.2600 N   0  0  0  0  0  0  0  0  0  0  0  0
  186.4940  177.6290  144.9270 C   0  0  0  0  0  0  0  0  0  0  0  0
  187.7390  178.7330  148.1970 C   0  0  0  0  0  1  0  0  0  0  0  0
  187.6690  177.8450  147.0500 N   0  0  0  0  0  0  0  0  0  0  0  0
  188.8760  177.3420  146.4450 C   0  0  0  0  0  0  0  0  0  0  0  0
  188.9250  177.0880  145.0480 C   0  0  0  0  0  0  0  0  0  0  0  0
  187.7360  177.3390  144.1400 C   0  0  0  0  0  3  0  0  0  0  0  0
  190.1360  176.6900  144.4810 C   0  0  0  0  0  2  0  0  0  0  0  0
  185.2830  177.9600  144.4500 N   0  0  0  0  0  0  0  0  0  0  0  0
  190.0230  177.1370  147.2200 C   0  0  0  0  0  3  0  0  0  0  0  0
  191.1980  176.7110  146.6060 C   0  0  0  0  0  3  0  0  0  0  0  0
  184.5440  178.2900  145.5340 C   0  0  0  0  0  3  0  0  0  0  0  0
  186.4650  177.7680  146.2820 C   0  0  0  0  0  0  0  0  0  0  0  0
  185.2540  178.1990  146.6830 N   0  0  0  0  0  0  0  0  0  0  0  0
  1  2  1  0  0  0  0
  2 32  1  0  0  0  0
  2  4  1  1  0  0  0
  3 15  1  6  0  0  0
  3  1  1  0  0  0  0
  3  2  1  0  0  0  0
  5 14  1  0  0  0  0
  5  6  1  0  0  0  0
  6 11  2  0  0  0  0
  7  8  2  0  0  0  0
  9  6  1  0  0  0  0
  9 13  2  0  0  0  0
 10  5  2  0  0  0  0
 11 12  1  0  0  0  0
 11  8  1  0  0  0  0
 12  3  1  0  0  0  0
 13 12  1  0  0  0  0
 14  7  1  0  0  0  0
 16 19  1  6  0  0  0
 16 18  1  0  0  0  0
 16 17  1  0  0  0  0
 18 17  1  0  0  0  0
 18 15  1  1  0  0  0
 19 20  1  0  0  0  0
 21 22  1  0  0  0  0
 22 24  1  6  0  0  0
 23 21  1  0  0  0  0
 23 20  1  1  0  0  0
 23 22  1  0  0  0  0
 24 26  1  0  0  0  0
 26 25  2  0  0  0  0
 27 26  1  0  0  0  0
 27 28  2  0  0  0  0
 29 27  1  0  0  0  0
 30 31  1  0  0  0  0
 31 29  1  0  0  0  0
 32 33  1  0  0  0  0
 34 33  1  0  0  0  0
 34 35  1  0  0  0  0
 35 36  1  0  0  0  0
 36 45  1  0  0  0  0
 37 47  2  0  0  0  0
 38 49  2  0  0  0  0
 40 39  1  0  0  0  0
 41 40  1  0  0  0  0
 41 46  2  0  0  0  0
 42 41  1  0  0  0  0
 43 38  1  0  0  0  0
 43 42  2  0  0  0  0
 44 42  1  0  0  0  0
 44 37  1  0  0  0  0
 45 38  1  0  0  0  0
 45 48  1  0  0  0  0
 47 46  1  0  0  0  0
 48 50  2  0  0  0  0
 49 50  1  0  0  0  0
 49 40  1  0  0  0  0
M  END
>  <MODEL>
5

>  <REMARK>
 VINA RESULT:      -7.2      2.322      7.982
  Name = 
  16 active torsions:
  status: ('A' for Active; 'I' for Inactive)
    1  A    between atoms: N_10  and  C_40
    2  A    between atoms: C_11  and  C_19
    3  A    between atoms: C_15  and  C_25
    4  A    between atoms: C_15  and  C_28
    5  A    between atoms: C_16  and  C_20
    6  A    between atoms: C_16  and  N_38
    7  A    between atoms: O_18  and  C_24
    8  A    between atoms: O_18  and  C_44
    9  A    between atoms: C_19  and  C_34
   10  A    between atoms: C_20  and  O_31
   11  A    between atoms: C_23  and  C_47
   12  A    between atoms: C_24  and  C_29
   13  A    between atoms: C_28  and  O_31
   14  A    between atoms: C_34  and  C_49
   15  A    between atoms: C_35  and  N_36
   16  A    between atoms: C_35  and  C_47
                            x       y       z     vdW  Elec       q    Type
                         _______ _______ _______ _____ _____    ______ ____

>  <TORSDO>
F 16

$$$$
=
 OpenBabel10222419033D

 50 57  0  0  1  0  0  0  0  0999 V2000
  187.1900  176.4300  143.5310 C   0  0  0  0  0  2  0  0  0  0  0  0
  186.7880  177.8650  143.8540 C   0  0  1  0  0  0  0  0  0  0  0  0
  188.2780  177.4670  143.7730 C   0  0  1  0  0  0  0  0  0  0  0  0
  186.1280  178.5020  142.6410 C   0  0  0  0  0  1  0  0  0  0  0  0
  191.6480  176.6320  147.3380 C   0  0  0  0  0  0  0  0  0  0  0  0
  190.4500  177.1570  146.6930 C   0  0  0  0  0  0  0  0  0  0  0  0
  192.0300  175.4260  145.1210 C   0  0  0  0  0  3  0  0  0  0  0  0
  190.9790  176.0030  144.6020 N   0  0  0  0  0  0  0  0  0  0  0  0
  189.4570  177.8860  147.2310 N   0  0  0  0  0  0  0  0  0  0  0  0
  192.0110  177.0460  148.4710 O   0  0  0  0  0  0  0  0  0  0  0  0
  190.1610  176.8690  145.3940 C   0  0  0  0  0  0  0  0  0  0  0  0
  188.9800  177.4250  145.0650 N   0  0  0  0  0  0  0  0  0  0  0  0
  188.5730  178.0380  146.2070 C   0  0  0  0  0  3  0  0  0  0  0  0
  192.4720  175.6210  146.5720 C   0  0  0  0  0  2  0  0  0  0  0  0
  189.0980  178.0160  142.5800 C   0  0  0  0  0  2  0  0  0  0  0  0
  189.7400  177.9010  140.2510 C   0  0  2  0  0  3  0  0  0  0  0  0
  190.5580  176.9160  140.9690 N   0  0  0  0  0  2  0  0  0  0  0  0
  189.1420  177.1370  141.3310 C   0  0  1  0  0  3  0  0  0  0  0  0
  189.3690  177.3400  138.8810 C   0  0  0  0  0  2  0  0  0  0  0  0
  187.9380  177.7370  138.5010 C   0  0  0  0  0  2  0  0  0  0  0  0
  186.8440  177.6300  136.2520 C   0  0  0  0  0  2  0  0  0  0  0  0
  185.9220  176.9370  137.2460 C   0  0  2  0  0  3  0  0  0  0  0  0
  187.4240  176.8290  137.3920 C   0  0  2  0  0  3  0  0  0  0  0  0
  185.4700  175.6770  136.6830 N   0  0  0  0  0  2  0  0  0  0  0  0
  183.7610  175.1880  138.2020 O   0  0  0  0  0  0  0  0  0  0  0  0
  184.6020  174.7710  137.3600 C   0  0  0  0  0  0  0  0  0  0  0  0
  184.7240  173.3380  137.0730 C   0  0  0  0  0  0  0  0  0  0  0  0
  185.7010  172.6660  137.5160 O   0  0  0  0  0  0  0  0  0  0  0  0
  183.7410  172.7410  136.2820 O   0  0  0  0  0  0  0  0  0  0  0  0
  183.2900  170.3790  136.4580 C   0  0  0  0  0  1  0  0  0  0  0  0
  182.8070  171.7840  136.7820 C   0  0  0  0  0  2  0  0  0  0  0  0
  186.0840  177.9000  145.2060 C   0  0  0  0  0  2  0  0  0  0  0  0
  185.3750  179.2170  145.4780 C   0  0  0  0  0  2  0  0  0  0  0  0
  184.0690  179.0020  145.9500 O   0  0  0  0  0  0  0  0  0  0  0  0
  183.3920  178.4620  144.8390 C   0  0  0  0  0  2  0  0  0  0  0  0
  182.7790  179.5580  143.9630 C   0  0  0  0  0  2  0  0  0  0  0  0
  182.4100  178.1230  137.2040 N   0  0  0  0  0  0  0  0  0  0  0  0
  181.4730  178.7990  141.9440 C   0  0  0  0  0  0  0  0  0  0  0  0
  179.3160  176.1090  140.6860 C   0  0  0  0  0  1  0  0  0  0  0  0
  180.0400  177.3660  140.5920 N   0  0  0  0  0  0  0  0  0  0  0  0
  180.8250  177.6680  139.4220 C   0  0  0  0  0  0  0  0  0  0  0  0
  182.0060  178.4480  139.5340 C   0  0  0  0  0  0  0  0  0  0  0  0
  182.4970  178.9830  140.8660 C   0  0  0  0  0  3  0  0  0  0  0  0
  182.7910  178.6430  138.3980 C   0  0  0  0  0  2  0  0  0  0  0  0
  181.5970  179.0930  143.2490 N   0  0  0  0  0  0  0  0  0  0  0  0
  180.4530  177.1610  138.1720 C   0  0  0  0  0  3  0  0  0  0  0  0
  181.2590  177.4120  137.0640 C   0  0  0  0  0  3  0  0  0  0  0  0
  180.4870  178.5940  143.8410 C   0  0  0  0  0  3  0  0  0  0  0  0
  180.2990  178.1270  141.7740 C   0  0  0  0  0  0  0  0  0  0  0  0
  179.6730  177.9720  142.9570 N   0  0  0  0  0  0  0  0  0  0  0  0
  1  3  1  0  0  0  0
  1  2  1  0  0  0  0
  2  4  1  6  0  0  0
  2 32  1  0  0  0  0
  3 15  1  6  0  0  0
  3  2  1  0  0  0  0
  3 12  1  0  0  0  0
  5 10  2  0  0  0  0
  6  9  1  0  0  0  0
  6  5  1  0  0  0  0
  7 14  1  0  0  0  0
  8  7  2  0  0  0  0
  8 11  1  0  0  0  0
 11  6  2  0  0  0  0
 12 11  1  0  0  0  0
 12 13  1  0  0  0  0
 13  9  2  0  0  0  0
 14  5  1  0  0  0  0
 16 19  1  6  0  0  0
 16 17  1  0  0  0  0
 16 18  1  0  0  0  0
 17 18  1  0  0  0  0
 18 15  1  1  0  0  0
 20 19  1  0  0  0  0
 21 22  1  0  0  0  0
 21 23  1  0  0  0  0
 22 24  1  6  0  0  0
 22 23  1  0  0  0  0
 23 20  1  1  0  0  0
 24 26  1  0  0  0  0
 26 25  2  0  0  0  0
 27 26  1  0  0  0  0
 27 28  2  0  0  0  0
 29 31  1  0  0  0  0
 29 27  1  0  0  0  0
 30 31  1  0  0  0  0
 32 33  1  0  0  0  0
 33 34  1  0  0  0  0
 35 34  1  0  0  0  0
 36 35  1  0  0  0  0
 37 44  1  0  0  0  0
 38 45  1  0  0  0  0
 40 39  1  0  0  0  0
 40 49  1  0  0  0  0
 41 42  1  0  0  0  0
 41 40  1  0  0  0  0
 42 43  2  0  0  0  0
 43 38  1  0  0  0  0
 44 42  1  0  0  0  0
 45 48  1  0  0  0  0
 45 36  1  0  0  0  0
 46 41  2  0  0  0  0
 47 37  2  0  0  0  0
 47 46  1  0  0  0  0
 49 38  2  0  0  0  0
 49 50  1  0  0  0  0
 50 48  2  0  0  0  0
M  END
>  <MODEL>
6

>  <REMARK>
 VINA RESULT:      -7.1      3.183      8.410
  Name = 
  16 active torsions:
  status: ('A' for Active; 'I' for Inactive)
    1  A    between atoms: N_10  and  C_40
    2  A    between atoms: C_11  and  C_19
    3  A    between atoms: C_15  and  C_25
    4  A    between atoms: C_15  and  C_28
    5  A    between atoms: C_16  and  C_20
    6  A    between atoms: C_16  and  N_38
    7  A    between atoms: O_18  and  C_24
    8  A    between atoms: O_18  and  C_44
    9  A    between atoms: C_19  and  C_34
   10  A    between atoms: C_20  and  O_31
   11  A    between atoms: C_23  and  C_47
   12  A    between atoms: C_24  and  C_29
   13  A    between atoms: C_28  and  O_31
   14  A    between atoms: C_34  and  C_49
   15  A    between atoms: C_35  and  N_36
   16  A    between atoms: C_35  and  C_47
                            x       y       z     vdW  Elec       q    Type
                         _______ _______ _______ _____ _____    ______ ____

>  <TORSDO>
F 16

$$$$
=
 OpenBabel10222419033D

 50 57  0  0  1  0  0  0  0  0999 V2000
  184.1890  176.8600  138.5870 C   0  0  0  0  0  2  0  0  0  0  0  0
  184.9030  178.1920  138.3810 C   0  0  1  0  0  0  0  0  0  0  0  0
  184.8200  177.1620  137.2340 C   0  0  1  0  0  0  0  0  0  0  0  0
  183.8950  179.3300  138.4260 C   0  0  0  0  0  1  0  0  0  0  0  0
  188.2990  173.7020  136.4010 C   0  0  0  0  0  0  0  0  0  0  0  0
  187.6730  175.0190  136.4570 C   0  0  0  0  0  0  0  0  0  0  0  0
  186.1230  172.8820  137.4540 C   0  0  0  0  0  3  0  0  0  0  0  0
  185.6170  174.0850  137.3960 N   0  0  0  0  0  0  0  0  0  0  0  0
  188.2140  176.2170  136.1790 N   0  0  0  0  0  0  0  0  0  0  0  0
  189.3990  173.5300  135.8140 O   0  0  0  0  0  0  0  0  0  0  0  0
  186.3990  175.1790  136.9070 C   0  0  0  0  0  0  0  0  0  0  0  0
  186.0880  176.4890  136.9110 N   0  0  0  0  0  0  0  0  0  0  0  0
  187.2160  177.0990  136.4630 C   0  0  0  0  0  3  0  0  0  0  0  0
  187.5490  172.5420  137.0160 C   0  0  0  0  0  2  0  0  0  0  0  0
  183.9190  177.5140  136.0250 C   0  0  0  0  0  2  0  0  0  0  0  0
  181.5540  177.9160  135.7130 C   0  0  2  0  0  3  0  0  0  0  0  0
  181.9760  176.9980  134.6480 N   0  0  0  0  0  2  0  0  0  0  0  0
  182.5280  176.8820  136.0140 C   0  0  1  0  0  3  0  0  0  0  0  0
  180.1520  177.5340  136.1780 C   0  0  0  0  0  2  0  0  0  0  0  0
  179.6660  178.4860  137.2780 C   0  0  0  0  0  2  0  0  0  0  0  0
  180.3580  176.8850  139.0720 C   0  0  0  0  0  2  0  0  0  0  0  0
  179.6130  178.0320  139.7410 C   0  0  2  0  0  3  0  0  0  0  0  0
  180.4950  178.2890  138.5400 C   0  0  2  0  0  3  0  0  0  0  0  0
  180.3600  178.4740  140.9050 N   0  0  0  0  0  2  0  0  0  0  0  0
  179.4800  176.9960  142.4890 O   0  0  0  0  0  0  0  0  0  0  0  0
  180.0400  178.0990  142.2430 C   0  0  0  0  0  0  0  0  0  0  0  0
  180.3540  179.0350  143.3280 C   0  0  0  0  0  0  0  0  0  0  0  0
  179.4870  179.3380  144.1980 O   0  0  0  0  0  0  0  0  0  0  0  0
  181.6320  179.5950  143.3610 O   0  0  0  0  0  0  0  0  0  0  0  0
  183.5680  179.1140  144.7150 C   0  0  0  0  0  1  0  0  0  0  0  0
  182.8270  178.8170  143.4210 C   0  0  0  0  0  2  0  0  0  0  0  0
  186.1420  178.2420  139.2690 C   0  0  0  0  0  2  0  0  0  0  0  0
  185.8520  178.7390  140.6750 C   0  0  0  0  0  2  0  0  0  0  0  0
  187.0410  178.9950  141.3780 O   0  0  0  0  0  0  0  0  0  0  0  0
  188.0400  178.3980  140.5840 C   0  0  0  0  0  2  0  0  0  0  0  0
  188.6140  177.1440  141.2470 C   0  0  0  0  0  2  0  0  0  0  0  0
  187.1030  177.9030  147.9570 N   0  0  0  0  0  0  0  0  0  0  0  0
  189.3200  177.6240  143.6200 C   0  0  0  0  0  0  0  0  0  0  0  0
  191.7020  176.6320  146.2300 C   0  0  0  0  0  1  0  0  0  0  0  0
  190.6020  177.4060  145.6800 N   0  0  0  0  0  0  0  0  0  0  0  0
  189.4080  177.6270  146.4570 C   0  0  1  0  0  3  0  0  0  0  0  0
  188.1460  177.7340  145.8160 C   0  0  0  0  0  0  0  0  0  0  0  0
  187.9910  177.6120  144.3120 C   0  0  0  0  0  3  0  0  0  0  0  0
  187.0010  177.8560  146.6040 C   0  0  0  0  0  3  0  0  0  0  0  0
  189.5600  177.4680  142.3070 N   0  0  0  0  0  0  0  0  0  0  0  0
  189.4780  177.6980  147.8530 C   0  0  0  0  0  3  0  0  0  0  0  0
  188.3060  177.8500  148.5900 C   0  0  0  0  0  3  0  0  0  0  0  0
  190.9050  177.3790  142.1920 C   0  0  0  0  0  3  0  0  0  0  0  0
  190.5180  177.6210  144.2690 C   0  0  0  0  0  0  0  0  0  0  0  0
  191.5260  177.4510  143.3920 N   0  0  0  0  0  0  0  0  0  0  0  0
  2  4  1  6  0  0  0
  2  1  1  0  0  0  0
  2 32  1  0  0  0  0
  3 15  1  6  0  0  0
  3  2  1  0  0  0  0
  3  1  1  0  0  0  0
  5  6  1  0  0  0  0
  5 14  1  0  0  0  0
  6 11  2  0  0  0  0
  8  7  2  0  0  0  0
  9  6  1  0  0  0  0
  9 13  2  0  0  0  0
 10  5  2  0  0  0  0
 11 12  1  0  0  0  0
 11  8  1  0  0  0  0
 12  3  1  0  0  0  0
 13 12  1  0  0  0  0
 14  7  1  0  0  0  0
 16 18  1  0  0  0  0
 16 19  1  1  0  0  0
 17 16  1  0  0  0  0
 17 18  1  0  0  0  0
 18 15  1  6  0  0  0
 19 20  1  0  0  0  0
 21 22  1  0  0  0  0
 22 24  1  1  0  0  0
 23 20  1  6  0  0  0
 23 21  1  0  0  0  0
 23 22  1  0  0  0  0
 24 26  1  0  0  0  0
 26 25  2  0  0  0  0
 26 27  1  0  0  0  0
 27 29  1  0  0  0  0
 27 28  2  0  0  0  0
 29 31  1  0  0  0  0
 31 30  1  0  0  0  0
 32 33  1  0  0  0  0
 33 34  1  0  0  0  0
 35 36  1  0  0  0  0
 35 34  1  0  0  0  0
 36 45  1  0  0  0  0
 37 47  1  0  0  0  0
 38 49  2  0  0  0  0
 38 43  1  0  0  0  0
 40 39  1  0  0  0  0
 40 41  1  0  0  0  0
 41 46  1  1  0  0  0
 42 41  1  0  0  0  0
 42 44  1  0  0  0  0
 43 42  2  0  0  0  0
 44 37  2  0  0  0  0
 45 38  1  0  0  0  0
 46 47  2  0  0  0  0
 48 45  1  0  0  0  0
 48 50  2  0  0  0  0
 49 40  1  0  0  0  0
 50 49  1  0  0  0  0
M  END
>  <MODEL>
7

>  <REMARK>
 VINA RESULT:      -7.0      2.633      4.435
  Name = 
  16 active torsions:
  status: ('A' for Active; 'I' for Inactive)
    1  A    between atoms: N_10  and  C_40
    2  A    between atoms: C_11  and  C_19
    3  A    between atoms: C_15  and  C_25
    4  A    between atoms: C_15  and  C_28
    5  A    between atoms: C_16  and  C_20
    6  A    between atoms: C_16  and  N_38
    7  A    between atoms: O_18  and  C_24
    8  A    between atoms: O_18  and  C_44
    9  A    between atoms: C_19  and  C_34
   10  A    between atoms: C_20  and  O_31
   11  A    between atoms: C_23  and  C_47
   12  A    between atoms: C_24  and  C_29
   13  A    between atoms: C_28  and  O_31
   14  A    between atoms: C_34  and  C_49
   15  A    between atoms: C_35  and  N_36
   16  A    between atoms: C_35  and  C_47
                            x       y       z     vdW  Elec       q    Type
                         _______ _______ _______ _____ _____    ______ ____

>  <TORSDO>
F 16

$$$$
=
 OpenBabel10222419033D

 50 57  0  0  1  0  0  0  0  0999 V2000
  182.9170  177.3570  138.5520 C   0  0  0  0  0  2  0  0  0  0  0  0
  182.1090  177.9490  137.4020 C   0  0  1  0  0  0  0  0  0  0  0  0
  181.4880  176.8810  138.3290 C   0  0  1  0  0  0  0  0  0  0  0  0
  181.8240  179.4180  137.6740 C   0  0  0  0  0  1  0  0  0  0  0  0
  182.2210  172.2250  136.7330 C   0  0  0  0  0  0  0  0  0  0  0  0
  181.5180  173.4690  137.0290 C   0  0  0  0  0  0  0  0  0  0  0  0
  184.2820  173.4570  137.5990 C   0  0  0  0  0  3  0  0  0  0  0  0
  183.5560  174.5010  137.9010 N   0  0  0  0  0  0  0  0  0  0  0  0
  180.2480  173.8030  136.7440 N   0  0  0  0  0  0  0  0  0  0  0  0
  181.5930  171.1920  136.3800 O   0  0  0  0  0  0  0  0  0  0  0  0
  182.1580  174.5250  137.6010 C   0  0  0  0  0  0  0  0  0  0  0  0
  181.3030  175.5580  137.7120 N   0  0  0  0  0  0  0  0  0  0  0  0
  180.1440  175.0890  137.1800 C   0  0  0  0  0  3  0  0  0  0  0  0
  183.7210  172.2030  136.9260 C   0  0  0  0  0  2  0  0  0  0  0  0
  180.3640  177.3390  139.2900 C   0  0  0  0  0  2  0  0  0  0  0  0
  180.4700  178.7780  141.2310 C   0  0  2  0  0  3  0  0  0  0  0  0
  179.5090  177.7120  141.5400 N   0  0  0  0  0  2  0  0  0  0  0  0
  180.7370  177.4280  140.7690 C   0  0  1  0  0  3  0  0  0  0  0  0
  181.2630  179.1190  142.4890 C   0  0  0  0  0  2  0  0  0  0  0  0
  182.5200  178.2460  142.5930 C   0  0  0  0  0  2  0  0  0  0  0  0
  184.7560  179.3430  142.3510 C   0  0  0  0  0  2  0  0  0  0  0  0
  184.9070  178.2060  143.3530 C   0  0  2  0  0  3  0  0  0  0  0  0
  183.6290  179.0140  143.2980 C   0  0  2  0  0  3  0  0  0  0  0  0
  185.6480  178.6810  144.5080 N   0  0  0  0  0  2  0  0  0  0  0  0
  187.1350  176.8940  144.7490 O   0  0  0  0  0  0  0  0  0  0  0  0
  186.5270  177.8640  145.2770 C   0  0  0  0  0  0  0  0  0  0  0  0
  186.6930  178.1620  146.7040 C   0  0  0  0  0  0  0  0  0  0  0  0
  186.2320  179.2300  147.2030 O   0  0  0  0  0  0  0  0  0  0  0  0
  187.3880  177.2420  147.4900 O   0  0  0  0  0  0  0  0  0  0  0  0
  189.3100  178.2960  148.4930 C   0  0  0  0  0  1  0  0  0  0  0  0
  187.9930  177.5780  148.7380 C   0  0  0  0  0  2  0  0  0  0  0  0
  182.7370  177.5330  136.0760 C   0  0  0  0  0  2  0  0  0  0  0  0
  184.2530  177.4400  136.1350 C   0  0  0  0  0  2  0  0  0  0  0  0
  184.7340  176.4370  135.2780 O   0  0  0  0  0  0  0  0  0  0  0  0
  186.1310  176.4780  135.4580 C   0  0  0  0  0  2  0  0  0  0  0  0
  186.5650  177.7280  136.2260 C   0  0  0  0  0  2  0  0  0  0  0  0
  189.3990  178.0960  142.5290 N   0  0  0  0  0  0  0  0  0  0  0  0
  188.5910  177.7850  137.7270 C   0  0  0  0  0  0  0  0  0  0  0  0
  191.7090  176.0180  138.5160 C   0  0  0  0  0  1  0  0  0  0  0  0
  190.7200  177.0710  138.6710 N   0  0  0  0  0  0  0  0  0  0  0  0
  190.2820  177.4710  139.9850 C   0  0  1  0  0  3  0  0  0  0  0  0
  188.9520  177.9240  140.1890 C   0  0  0  0  0  0  0  0  0  0  0  0
  187.9420  177.9990  139.0600 C   0  0  0  0  0  3  0  0  0  0  0  0
  188.5340  178.2140  141.4890 C   0  0  0  0  0  3  0  0  0  0  0  0
  187.9910  177.7190  136.5270 N   0  0  0  0  0  0  0  0  0  0  0  0
  191.1510  177.3770  141.0780 C   0  0  0  0  0  3  0  0  0  0  0  0
  190.6900  177.7080  142.3500 C   0  0  0  0  0  3  0  0  0  0  0  0
  188.9580  177.3450  135.6580 C   0  0  0  0  0  3  0  0  0  0  0  0
  189.9010  177.4470  137.5620 C   0  0  0  0  0  0  0  0  0  0  0  0
  190.1490  177.1500  136.2710 N   0  0  0  0  0  0  0  0  0  0  0  0
  2  4  1  1  0  0  0
  2  3  1  0  0  0  0
  2  1  1  0  0  0  0
  3  1  1  0  0  0  0
  3 15  1  1  0  0  0
  5 14  1  0  0  0  0
  5  6  1  0  0  0  0
  6 11  2  0  0  0  0
  7  8  2  0  0  0  0
  9  6  1  0  0  0  0
  9 13  2  0  0  0  0
 10  5  2  0  0  0  0
 11 12  1  0  0  0  0
 11  8  1  0  0  0  0
 12  3  1  0  0  0  0
 13 12  1  0  0  0  0
 14  7  1  0  0  0  0
 16 17  1  0  0  0  0
 16 19  1  1  0  0  0
 18 15  1  6  0  0  0
 18 16  1  0  0  0  0
 18 17  1  0  0  0  0
 19 20  1  0  0  0  0
 21 23  1  0  0  0  0
 21 22  1  0  0  0  0
 22 24  1  1  0  0  0
 23 20  1  6  0  0  0
 23 22  1  0  0  0  0
 24 26  1  0  0  0  0
 25 26  2  0  0  0  0
 26 27  1  0  0  0  0
 27 28  2  0  0  0  0
 27 29  1  0  0  0  0
 29 31  1  0  0  0  0
 30 31  1  0  0  0  0
 32 33  1  0  0  0  0
 32  2  1  0  0  0  0
 34 35  1  0  0  0  0
 34 33  1  0  0  0  0
 35 36  1  0  0  0  0
 36 45  1  0  0  0  0
 38 43  1  0  0  0  0
 39 40  1  0  0  0  0
 40 41  1  0  0  0  0
 41 42  1  0  0  0  0
 41 46  1  1  0  0  0
 42 44  1  0  0  0  0
 43 42  2  0  0  0  0
 44 37  2  0  0  0  0
 45 38  1  0  0  0  0
 46 47  2  0  0  0  0
 47 37  1  0  0  0  0
 48 50  2  0  0  0  0
 48 45  1  0  0  0  0
 49 38  2  0  0  0  0
 49 40  1  0  0  0  0
 50 49  1  0  0  0  0
M  END
>  <MODEL>
8

>  <REMARK>
 VINA RESULT:      -7.0      2.909      8.332
  Name = 
  16 active torsions:
  status: ('A' for Active; 'I' for Inactive)
    1  A    between atoms: N_10  and  C_40
    2  A    between atoms: C_11  and  C_19
    3  A    between atoms: C_15  and  C_25
    4  A    between atoms: C_15  and  C_28
    5  A    between atoms: C_16  and  C_20
    6  A    between atoms: C_16  and  N_38
    7  A    between atoms: O_18  and  C_24
    8  A    between atoms: O_18  and  C_44
    9  A    between atoms: C_19  and  C_34
   10  A    between atoms: C_20  and  O_31
   11  A    between atoms: C_23  and  C_47
   12  A    between atoms: C_24  and  C_29
   13  A    between atoms: C_28  and  O_31
   14  A    between atoms: C_34  and  C_49
   15  A    between atoms: C_35  and  N_36
   16  A    between atoms: C_35  and  C_47
                            x       y       z     vdW  Elec       q    Type
                         _______ _______ _______ _____ _____    ______ ____

>  <TORSDO>
F 16

$$$$
=
 OpenBabel10222419033D

 50 57  0  0  1  0  0  0  0  0999 V2000
  188.5160  179.2530  141.3810 C   0  0  0  0  0  2  0  0  0  0  0  0
  187.6140  178.0390  141.1850 C   0  0  1  0  0  0  0  0  0  0  0  0
  189.0980  177.9900  140.7590 C   0  0  1  0  0  0  0  0  0  0  0  0
  187.2150  177.4680  142.5360 C   0  0  0  0  0  1  0  0  0  0  0  0
  190.3000  176.6370  136.1230 C   0  0  0  0  0  0  0  0  0  0  0  0
  189.7720  177.4550  137.2100 C   0  0  0  0  0  0  0  0  0  0  0  0
  191.0090  175.0400  137.9840 C   0  0  0  0  0  3  0  0  0  0  0  0
  190.4410  175.8000  138.8820 N   0  0  0  0  0  0  0  0  0  0  0  0
  189.2560  178.6940  137.1540 N   0  0  0  0  0  0  0  0  0  0  0  0
  190.0830  176.9370  134.9200 O   0  0  0  0  0  0  0  0  0  0  0  0
  189.8250  177.0350  138.5040 C   0  0  0  0  0  0  0  0  0  0  0  0
  189.3270  177.9930  139.3060 N   0  0  0  0  0  0  0  0  0  0  0  0
  188.9890  178.9960  138.4540 C   0  0  0  0  0  3  0  0  0  0  0  0
  191.0610  175.3840  136.4950 C   0  0  0  0  0  2  0  0  0  0  0  0
  190.0470  177.0900  141.5880 C   0  0  0  0  0  2  0  0  0  0  0  0
  191.3570  176.7180  143.5860 C   0  0  2  0  0  3  0  0  0  0  0  0
  192.1860  177.5140  142.6730 N   0  0  0  0  0  2  0  0  0  0  0  0
  190.7320  177.7520  142.7820 C   0  0  1  0  0  3  0  0  0  0  0  0
  191.6050  177.1790  145.0190 C   0  0  0  0  0  2  0  0  0  0  0  0
  190.6260  176.5000  145.9850 C   0  0  0  0  0  2  0  0  0  0  0  0
  189.9610  177.8550  147.9810 C   0  0  0  0  0  2  0  0  0  0  0  0
  188.7980  176.9340  147.6420 C   0  0  2  0  0  3  0  0  0  0  0  0
  189.6500  177.5280  146.5420 C   0  0  2  0  0  3  0  0  0  0  0  0
  187.5620  177.6950  147.6640 N   0  0  0  0  0  2  0  0  0  0  0  0
  186.5150  176.7490  145.8000 O   0  0  0  0  0  0  0  0  0  0  0  0
  186.6310  177.7300  146.5840 C   0  0  0  0  0  0  0  0  0  0  0  0
  185.8280  178.9410  146.3900 C   0  0  0  0  0  0  0  0  0  0  0  0
  185.6770  179.7800  147.3260 O   0  0  0  0  0  0  0  0  0  0  0  0
  185.2180  179.1320  145.1480 O   0  0  0  0  0  0  0  0  0  0  0  0
  183.1970  179.7140  143.9710 C   0  0  0  0  0  1  0  0  0  0  0  0
  183.8960  178.6880  144.8490 C   0  0  0  0  0  2  0  0  0  0  0  0
  186.5390  178.3700  140.1550 C   0  0  0  0  0  2  0  0  0  0  0  0
  185.2850  178.9690  140.7690 C   0  0  0  0  0  2  0  0  0  0  0  0
  184.5880  179.7540  139.8370 O   0  0  0  0  0  0  0  0  0  0  0  0
  183.3290  179.1290  139.7400 C   0  0  0  0  0  2  0  0  0  0  0  0
  182.6960  179.3430  138.3630 C   0  0  0  0  0  2  0  0  0  0  0  0
  187.1850  174.9670  135.4320 N   0  0  0  0  0  0  0  0  0  0  0  0
  183.1920  177.1990  137.1310 C   0  0  0  0  0  0  0  0  0  0  0  0
  182.6430  173.5720  137.2140 C   0  0  0  0  0  1  0  0  0  0  0  0
  183.1680  174.8090  136.6620 N   0  0  0  0  0  0  0  0  0  0  0  0
  184.5290  174.8770  136.1930 C   0  0  0  0  0  0  0  0  0  0  0  0
  185.2630  176.0880  136.3000 C   0  0  0  0  0  0  0  0  0  0  0  0
  184.6670  177.3420  136.9100 C   0  0  0  0  0  3  0  0  0  0  0  0
  186.6060  176.0930  135.9220 C   0  0  0  0  0  2  0  0  0  0  0  0
  182.3630  178.0830  137.7110 N   0  0  0  0  0  0  0  0  0  0  0  0
  185.1520  173.7400  135.6670 C   0  0  0  0  0  3  0  0  0  0  0  0
  186.4870  173.8090  135.2780 C   0  0  0  0  0  3  0  0  0  0  0  0
  181.1790  177.4410  137.8360 C   0  0  0  0  0  3  0  0  0  0  0  0
  182.4980  176.0450  136.9230 C   0  0  0  0  0  0  0  0  0  0  0  0
  181.2350  176.1700  137.3750 N   0  0  0  0  0  0  0  0  0  0  0  0
  2  1  1  0  0  0  0
  2  4  1  1  0  0  0
  3  2  1  0  0  0  0
  3  1  1  0  0  0  0
  3 15  1  1  0  0  0
  5 14  1  0  0  0  0
  5  6  1  0  0  0  0
  6 11  2  0  0  0  0
  7  8  2  0  0  0  0
  9  6  1  0  0  0  0
  9 13  2  0  0  0  0
 10  5  2  0  0  0  0
 11  8  1  0  0  0  0
 11 12  1  0  0  0  0
 12  3  1  0  0  0  0
 13 12  1  0  0  0  0
 14  7  1  0  0  0  0
 16 19  1  1  0  0  0
 17 18  1  0  0  0  0
 17 16  1  0  0  0  0
 18 15  1  6  0  0  0
 18 16  1  0  0  0  0
 19 20  1  0  0  0  0
 22 24  1  6  0  0  0
 22 21  1  0  0  0  0
 23 20  1  1  0  0  0
 23 22  1  0  0  0  0
 23 21  1  0  0  0  0
 25 26  2  0  0  0  0
 26 24  1  0  0  0  0
 27 26  1  0  0  0  0
 27 28  2  0  0  0  0
 29 27  1  0  0  0  0
 30 31  1  0  0  0  0
 31 29  1  0  0  0  0
 32 33  1  0  0  0  0
 32  2  1  0  0  0  0
 34 33  1  0  0  0  0
 35 34  1  0  0  0  0
 36 35  1  0  0  0  0
 37 44  1  0  0  0  0
 38 45  1  0  0  0  0
 40 49  1  0  0  0  0
 40 39  1  0  0  0  0
 41 42  1  0  0  0  0
 41 40  1  0  0  0  0
 42 43  2  0  0  0  0
 43 38  1  0  0  0  0
 44 42  1  0  0  0  0
 45 48  1  0  0  0  0
 45 36  1  0  0  0  0
 46 41  2  0  0  0  0
 47 37  2  0  0  0  0
 47 46  1  0  0  0  0
 49 38  2  0  0  0  0
 49 50  1  0  0  0  0
 50 48  2  0  0  0  0
M  END
>  <MODEL>
9

>  <REMARK>
 VINA RESULT:      -7.0      2.370      8.457
  Name = 
  16 active torsions:
  status: ('A' for Active; 'I' for Inactive)
    1  A    between atoms: N_10  and  C_40
    2  A    between atoms: C_11  and  C_19
    3  A    between atoms: C_15  and  C_25
    4  A    between atoms: C_15  and  C_28
    5  A    between atoms: C_16  and  C_20
    6  A    between atoms: C_16  and  N_38
    7  A    between atoms: O_18  and  C_24
    8  A    between atoms: O_18  and  C_44
    9  A    between atoms: C_19  and  C_34
   10  A    between atoms: C_20  and  O_31
   11  A    between atoms: C_23  and  C_47
   12  A    between atoms: C_24  and  C_29
   13  A    between atoms: C_28  and  O_31
   14  A    between atoms: C_34  and  C_49
   15  A    between atoms: C_35  and  N_36
   16  A    between atoms: C_35  and  C_47
                            x       y       z     vdW  Elec       q    Type
                         _______ _______ _______ _____ _____    ______ ____

>  <TORSDO>
F 16

$$$$
