=
 OpenBabel10222417343D

 57 59  0  0  1  0  0  0  0  0999 V2000
  190.8570  175.6920  143.1860 C   0  0  0  0  0  2  0  0  0  0  0  0
  190.6620  177.3110  145.1320 C   0  0  1  0  0  3  0  0  0  0  0  0
  189.4040  177.7400  142.9190 C   0  0  2  0  0  3  0  0  0  0  0  0
  190.5560  175.8480  144.6840 C   0  0  0  0  0  2  0  0  0  0  0  0
  190.6780  176.6680  140.8800 C   0  0  1  0  0  3  0  0  0  0  0  0
  189.0950  178.9850  142.1000 C   0  0  0  0  0  2  0  0  0  0  0  0
  188.1140  178.6920  140.9650 C   0  0  1  0  0  3  0  0  0  0  0  0
  188.7460  177.9210  139.8050 C   0  0  0  0  0  2  0  0  0  0  0  0
  189.5890  178.1400  144.3950 C   0  0  0  0  0  2  0  0  0  0  0  0
  190.6290  176.9800  142.3890 C   0  0  2  0  0  3  0  0  0  0  0  0
  189.3020  176.5540  140.2120 C   0  0  0  0  0  2  0  0  0  0  0  0
  185.7650  178.7480  141.8970 C   0  0  0  0  0  0  0  0  0  0  0  0
  185.7870  180.0100  141.9340 O   0  0  0  0  0  0  0  0  0  0  0  0
  186.9170  178.0210  141.4620 N   0  0  0  0  0  2  0  0  0  0  0  0
  184.6170  178.0460  142.2830 O   0  0  0  0  0  0  0  0  0  0  0  0
  181.1770  179.0700  141.9370 O   0  0  0  0  0  0  0  0  0  0  0  0
  183.4000  178.6650  142.4950 N   0  0  0  0  0  2  0  0  0  0  0  0
  182.2830  178.5790  141.5940 C   0  0  0  0  0  0  0  0  0  0  0  0
  182.4310  178.0090  140.2190 C   0  0  0  0  0  2  0  0  0  0  0  0
  184.0880  180.1190  139.1820 O   0  0  0  0  0  1  0  0  0  0  0  0
  181.4810  180.3470  139.1820 O   0  0  0  0  0  1  0  0  0  0  0  0
  182.5960  179.3410  138.9930 P   0  0  0  0  0  0  0  0  0  0  0  0
  182.5040  178.6840  137.4350 O   0  0  0  0  0  0  0  0  0  0  0  0
  190.5240  177.4210  146.5920 N   0  0  0  0  0  0  0  0  0  0  0  0
  191.5330  176.5760  147.2260 C   0  0  0  0  0  2  0  0  0  0  0  0
  192.1400  177.2720  148.2710 O   0  0  0  0  0  1  0  0  0  0  0  0
  189.2390  176.8320  146.9680 C   0  0  0  0  0  2  0  0  0  0  0  0
  188.2860  177.9150  147.4520 C   0  0  2  0  0  3  0  0  0  0  0  0
  188.6740  178.3320  148.7160 F   0  0  0  0  0  0  0  0  0  0  0  0
  186.9890  177.4030  147.5120 O   0  0  0  0  0  0  0  0  0  0  0  0
  186.2780  180.0710  147.5700 O   0  0  0  0  0  1  0  0  0  0  0  0
  184.5360  178.2120  147.0120 O   0  0  0  0  0  1  0  0  0  0  0  0
  185.9880  178.5850  146.8170 P   0  0  0  0  0  0  0  0  0  0  0  0
  186.3200  178.7250  145.1600 O   0  0  0  0  0  0  0  0  0  0  0  0
  191.5130  177.5560  140.1750 O   0  0  0  0  0  0  0  0  0  0  0  0
  191.7950  176.9460  138.9440 C   0  0  0  0  0  2  0  0  0  0  0  0
  193.2920  176.9090  138.6720 C   0  0  1  0  0  3  0  0  0  0  0  0
  193.9610  177.0110  139.8940 O   0  0  0  0  0  1  0  0  0  0  0  0
  193.6380  175.5820  137.9790 C   0  0  1  0  0  3  0  0  0  0  0  0
  192.3930  174.8900  137.4370 C   0  0  0  0  0  2  0  0  0  0  0  0
  192.1550  175.2800  136.0590 N   0  0  0  0  0  2  0  0  0  0  0  0
  191.3040  173.0310  135.8160 C   0  0  0  0  0  1  0  0  0  0  0  0
  191.0340  174.5000  135.5540 C   0  0  1  0  0  3  0  0  0  0  0  0
  189.7500  174.9080  136.2710 C   0  0  0  0  0  2  0  0  0  0  0  0
  188.6450  174.2030  135.7230 O   0  0  0  0  0  0  0  0  0  0  0  0
  187.3980  172.7930  137.1550 N   0  0  0  0  0  0  0  0  0  0  0  0
  187.5220  173.8870  136.4870 C   0  0  0  0  0  0  0  0  0  0  0  0
  185.4040  173.9750  137.4570 N   0  0  0  0  0  0  0  0  0  0  0  0
  186.3200  174.7510  136.6060 C   0  0  0  0  0  3  0  0  0  0  0  0
  186.1460  172.8160  137.7660 N   0  0  0  0  0  2  0  0  0  0  0  0
  194.5710  175.7810  136.8750 N   0  0  0  0  0  2  0  0  0  0  0  0
  196.8840  175.3980  136.6800 O   0  0  0  0  0  1  0  0  0  0  0  0
  195.6530  174.8010  136.9930 C   0  0  1  0  0  3  0  0  0  0  0  0
  195.7120  174.2130  138.3990 C   0  0  1  0  0  3  0  0  0  0  0  0
  195.4140  172.7190  138.3770 C   0  0  0  0  0  1  0  0  0  0  0  0
  197.0590  174.4870  139.0460 C   0  0  0  0  0  2  0  0  0  0  0  0
  196.8720  175.1110  140.4120 C   0  0  0  0  0  1  0  0  0  0  0  0
  1  4  1  0  0  0  0
  2 24  1  1  0  0  0
  3  6  1  6  0  0  0
  3  9  1  0  0  0  0
  4  2  1  0  0  0  0
  5 35  1  6  0  0  0
  5 10  1  0  0  0  0
  7 14  1  1  0  0  0
  7  6  1  0  0  0  0
  8 11  1  0  0  0  0
  8  7  1  0  0  0  0
  9  2  1  0  0  0  0
 10  3  1  0  0  0  0
 10  1  1  1  0  0  0
 11  5  1  0  0  0  0
 12 13  2  0  0  0  0
 12 15  1  0  0  0  0
 14 12  1  0  0  0  0
 15 17  1  0  0  0  0
 18 16  2  0  0  0  0
 18 17  1  0  0  0  0
 19 18  1  0  0  0  0
 22 20  1  0  0  0  0
 22 21  1  0  0  0  0
 22 19  1  0  0  0  0
 23 22  2  0  0  0  0
 24 27  1  0  0  0  0
 24 25  1  0  0  0  0
 25 26  1  0  0  0  0
 27 28  1  0  0  0  0
 28 30  1  0  0  0  0
 28 29  1  1  0  0  0
 33 32  1  0  0  0  0
 33 30  1  0  0  0  0
 33 31  1  0  0  0  0
 34 33  2  0  0  0  0
 36 35  1  0  0  0  0
 37 36  1  0  0  0  0
 37 38  1  1  0  0  0
 39 40  1  6  0  0  0
 39 37  1  0  0  0  0
 41 40  1  0  0  0  0
 43 42  1  1  0  0  0
 43 41  1  0  0  0  0
 43 44  1  0  0  0  0
 45 44  1  0  0  0  0
 45 47  1  0  0  0  0
 46 50  1  0  0  0  0
 47 49  1  0  0  0  0
 47 46  2  0  0  0  0
 48 50  1  0  0  0  0
 49 48  2  0  0  0  0
 51 53  1  0  0  0  0
 51 39  1  0  0  0  0
 53 52  1  1  0  0  0
 53 54  1  0  0  0  0
 54 55  1  6  0  0  0
 54 56  1  0  0  0  0
 56 57  1  0  0  0  0
M  END
>  <MODEL>
1

>  <REMARK>
 VINA RESULT:      -6.8      0.000      0.000
  Name = 
  25 active torsions:
  status: ('A' for Active; 'I' for Inactive)
    1  A    between atoms: C_1  and  C_47
    2  A    between atoms: C_1  and  O_52
    3  A    between atoms: C_2  and  P_48
    4  A    between atoms: C_2  and  C_56
    5  A    between atoms: C_5  and  C_24
    6  A    between atoms: C_5  and  C_43
    7  A    between atoms: C_6  and  N_57
    8  A    between atoms: C_7  and  N_57
    9  A    between atoms: N_9  and  C_15
   10  A    between atoms: N_9  and  C_37
   11  A    between atoms: N_11  and  O_22
   12  A    between atoms: C_15  and  C_21
   13  A    between atoms: N_16  and  C_17
   14  A    between atoms: N_16  and  C_43
   15  A    between atoms: C_17  and  C_18
   16  A    between atoms: C_17  and  C_37
   17  A    between atoms: C_18  and  C_45
   18  A    between atoms: C_21  and  O_39
   19  A    between atoms: O_22  and  C_31
   20  A    between atoms: O_26  and  C_28
   21  A    between atoms: O_26  and  C_45
   22  A    between atoms: C_29  and  O_39
   23  A    between atoms: C_33  and  N_53
   24  A    between atoms: P_34  and  O_52
   25  A    between atoms: C_47  and  N_57
                            x       y       z     vdW  Elec       q    Type
                         _______ _______ _______ _____ _____    ______ ____

>  <TORSDO>
F 25

$$$$
=
 OpenBabel10222417343D

 57 59  0  0  1  0  0  0  0  0999 V2000
  190.2640  175.9240  142.1390 C   0  0  0  0  0  2  0  0  0  0  0  0
  189.2220  177.7690  143.5380 C   0  0  1  0  0  3  0  0  0  0  0  0
  188.9760  177.7540  140.9680 C   0  0  2  0  0  3  0  0  0  0  0  0
  189.3650  176.2550  143.3400 C   0  0  0  0  0  2  0  0  0  0  0  0
  191.0170  176.5460  139.8270 C   0  0  1  0  0  3  0  0  0  0  0  0
  188.9870  178.8340  139.8970 C   0  0  0  0  0  2  0  0  0  0  0  0
  188.5740  178.2860  138.5310 C   0  0  1  0  0  3  0  0  0  0  0  0
  189.6570  177.4300  137.8710 C   0  0  0  0  0  2  0  0  0  0  0  0
  188.5200  178.3720  142.3030 C   0  0  0  0  0  2  0  0  0  0  0  0
  190.3380  177.0580  141.1120 C   0  0  2  0  0  3  0  0  0  0  0  0
  190.0460  176.1990  138.6920 C   0  0  0  0  0  2  0  0  0  0  0  0
  186.4140  177.4770  137.4950 C   0  0  0  0  0  0  0  0  0  0  0  0
  186.6770  178.0870  136.4210 O   0  0  0  0  0  0  0  0  0  0  0  0
  187.3040  177.5710  138.6100 N   0  0  0  0  0  2  0  0  0  0  0  0
  185.2520  176.7070  137.6080 O   0  0  0  0  0  0  0  0  0  0  0  0
  182.2180  176.0730  135.7670 O   0  0  0  0  0  0  0  0  0  0  0  0
  184.3400  176.5750  136.5790 N   0  0  0  0  0  2  0  0  0  0  0  0
  183.0190  176.0310  136.7360 C   0  0  0  0  0  0  0  0  0  0  0  0
  182.6070  175.3300  137.9910 C   0  0  0  0  0  2  0  0  0  0  0  0
  183.1880  176.9100  140.3240 O   0  0  0  0  0  1  0  0  0  0  0  0
  180.7940  175.9260  139.9400 O   0  0  0  0  0  1  0  0  0  0  0  0
  181.9750  176.5250  139.2080 P   0  0  0  0  0  0  0  0  0  0  0  0
  181.4860  177.9350  138.4080 O   0  0  0  0  0  0  0  0  0  0  0  0
  188.4890  178.0660  144.7780 N   0  0  0  0  0  0  0  0  0  0  0  0
  189.2350  177.5180  145.9090 C   0  0  0  0  0  2  0  0  0  0  0  0
  188.6250  177.9010  147.1040 O   0  0  0  0  0  1  0  0  0  0  0  0
  187.2330  177.3170  144.7480 C   0  0  0  0  0  2  0  0  0  0  0  0
  186.0560  178.2570  144.9650 C   0  0  2  0  0  3  0  0  0  0  0  0
  185.7660  178.3190  146.3200 F   0  0  0  0  0  0  0  0  0  0  0  0
  184.9430  177.7760  144.2750 O   0  0  0  0  0  0  0  0  0  0  0  0
  182.7390  178.8170  142.9770 O   0  0  0  0  0  1  0  0  0  0  0  0
  185.1540  179.1940  142.0690 O   0  0  0  0  0  0  0  0  0  0  0  0
  184.3650  179.0800  143.3540 P   0  0  0  0  0  0  0  0  0  0  0  0
  184.5080  180.5210  144.2370 O   0  0  0  0  0  1  0  0  0  0  0  0
  192.0350  177.4090  139.3770 O   0  0  0  0  0  0  0  0  0  0  0  0
  193.1310  176.5970  139.0510 C   0  0  0  0  0  2  0  0  0  0  0  0
  193.1560  176.2690  137.5640 C   0  0  1  0  0  3  0  0  0  0  0  0
  194.1470  177.0480  136.9620 O   0  0  0  0  0  1  0  0  0  0  0  0
  193.4670  174.7740  137.3900 C   0  0  1  0  0  3  0  0  0  0  0  0
  192.2370  173.9940  136.9440 C   0  0  0  0  0  2  0  0  0  0  0  0
  191.5070  174.7340  135.9300 N   0  0  0  0  0  2  0  0  0  0  0  0
  191.2650  172.3810  135.4270 C   0  0  0  0  0  1  0  0  0  0  0  0
  191.0710  173.7930  134.9080 C   0  0  1  0  0  3  0  0  0  0  0  0
  189.5940  174.0120  134.5950 C   0  0  0  0  0  2  0  0  0  0  0  0
  188.9270  174.5230  135.7410 O   0  0  0  0  0  0  0  0  0  0  0  0
  187.3770  173.6620  137.3060 N   0  0  0  0  0  0  0  0  0  0  0  0
  187.6630  174.0710  136.1200 C   0  0  0  0  0  0  0  0  0  0  0  0
  185.4310  173.4030  136.0390 N   0  0  0  0  0  0  0  0  0  0  0  0
  186.4980  173.9770  135.2030 C   0  0  0  0  0  3  0  0  0  0  0  0
  186.0410  173.2680  137.3030 N   0  0  0  0  0  2  0  0  0  0  0  0
  194.5280  174.5580  136.4120 N   0  0  0  0  0  2  0  0  0  0  0  0
  195.5690  173.1830  138.0120 O   0  0  0  0  0  1  0  0  0  0  0  0
  195.7690  174.2550  137.1280 C   0  0  1  0  0  3  0  0  0  0  0  0
  196.8960  173.9160  136.1580 C   0  0  1  0  0  3  0  0  0  0  0  0
  196.4440  172.8760  135.1390 C   0  0  0  0  0  1  0  0  0  0  0  0
  197.4090  175.1660  135.4630 C   0  0  0  0  0  2  0  0  0  0  0  0
  198.8510  174.9820  135.0420 C   0  0  0  0  0  1  0  0  0  0  0  0
  1  4  1  0  0  0  0
  2 24  1  1  0  0  0
  3  6  1  6  0  0  0
  3 10  1  0  0  0  0
  3  9  1  0  0  0  0
  4  2  1  0  0  0  0
  5 35  1  6  0  0  0
  5 10  1  0  0  0  0
  7 14  1  1  0  0  0
  7  6  1  0  0  0  0
  8  7  1  0  0  0  0
  8 11  1  0  0  0  0
  9  2  1  0  0  0  0
 10  1  1  1  0  0  0
 11  5  1  0  0  0  0
 12 15  1  0  0  0  0
 12 14  1  0  0  0  0
 13 12  2  0  0  0  0
 16 18  2  0  0  0  0
 17 18  1  0  0  0  0
 17 15  1  0  0  0  0
 18 19  1  0  0  0  0
 19 22  1  0  0  0  0
 22 21  1  0  0  0  0
 22 20  1  0  0  0  0
 23 22  2  0  0  0  0
 24 25  1  0  0  0  0
 25 26  1  0  0  0  0
 27 24  1  0  0  0  0
 27 28  1  0  0  0  0
 28 29  1  1  0  0  0
 30 28  1  0  0  0  0
 31 33  1  0  0  0  0
 32 33  2  0  0  0  0
 33 34  1  0  0  0  0
 33 30  1  0  0  0  0
 36 35  1  0  0  0  0
 37 38  1  6  0  0  0
 37 36  1  0  0  0  0
 39 40  1  6  0  0  0
 39 37  1  0  0  0  0
 41 40  1  0  0  0  0
 43 42  1  1  0  0  0
 43 41  1  0  0  0  0
 44 43  1  0  0  0  0
 44 45  1  0  0  0  0
 45 47  1  0  0  0  0
 47 46  2  0  0  0  0
 48 50  1  0  0  0  0
 49 48  2  0  0  0  0
 49 47  1  0  0  0  0
 50 46  1  0  0  0  0
 51 53  1  0  0  0  0
 51 39  1  0  0  0  0
 53 52  1  1  0  0  0
 54 55  1  6  0  0  0
 54 53  1  0  0  0  0
 56 54  1  0  0  0  0
 57 56  1  0  0  0  0
M  END
>  <MODEL>
2

>  <REMARK>
 VINA RESULT:      -5.8      2.212      3.162
  Name = 
  25 active torsions:
  status: ('A' for Active; 'I' for Inactive)
    1  A    between atoms: C_1  and  C_47
    2  A    between atoms: C_1  and  O_52
    3  A    between atoms: C_2  and  P_48
    4  A    between atoms: C_2  and  C_56
    5  A    between atoms: C_5  and  C_24
    6  A    between atoms: C_5  and  C_43
    7  A    between atoms: C_6  and  N_57
    8  A    between atoms: C_7  and  N_57
    9  A    between atoms: N_9  and  C_15
   10  A    between atoms: N_9  and  C_37
   11  A    between atoms: N_11  and  O_22
   12  A    between atoms: C_15  and  C_21
   13  A    between atoms: N_16  and  C_17
   14  A    between atoms: N_16  and  C_43
   15  A    between atoms: C_17  and  C_18
   16  A    between atoms: C_17  and  C_37
   17  A    between atoms: C_18  and  C_45
   18  A    between atoms: C_21  and  O_39
   19  A    between atoms: O_22  and  C_31
   20  A    between atoms: O_26  and  C_28
   21  A    between atoms: O_26  and  C_45
   22  A    between atoms: C_29  and  O_39
   23  A    between atoms: C_33  and  N_53
   24  A    between atoms: P_34  and  O_52
   25  A    between atoms: C_47  and  N_57
                            x       y       z     vdW  Elec       q    Type
                         _______ _______ _______ _____ _____    ______ ____

>  <TORSDO>
F 25

$$$$
=
 OpenBabel10222417343D

 57 59  0  0  1  0  0  0  0  0999 V2000
  186.7710  177.8320  141.6320 C   0  0  0  0  0  2  0  0  0  0  0  0
  184.9440  179.3680  142.4980 C   0  0  1  0  0  3  0  0  0  0  0  0
  184.8610  178.4340  140.0920 C   0  0  2  0  0  3  0  0  0  0  0  0
  185.7600  178.0950  142.7570 C   0  0  0  0  0  2  0  0  0  0  0  0
  187.2820  177.9550  139.1770 C   0  0  1  0  0  3  0  0  0  0  0  0
  184.4420  179.0080  138.7470 C   0  0  0  0  0  2  0  0  0  0  0  0
  184.3880  177.9330  137.6610 C   0  0  1  0  0  3  0  0  0  0  0  0
  185.7710  177.4810  137.1900 C   0  0  0  0  0  2  0  0  0  0  0  0
  184.1090  179.1750  141.2140 C   0  0  0  0  0  2  0  0  0  0  0  0
  186.3820  178.4930  140.3060 C   0  0  2  0  0  3  0  0  0  0  0  0
  186.6280  176.8760  138.3040 C   0  0  0  0  0  2  0  0  0  0  0  0
  182.3280  176.4840  137.4470 C   0  0  0  0  0  0  0  0  0  0  0  0
  181.8650  177.2370  136.5460 O   0  0  0  0  0  0  0  0  0  0  0  0
  183.5710  176.7990  138.0800 N   0  0  0  0  0  2  0  0  0  0  0  0
  181.6320  175.3340  137.8380 O   0  0  0  0  0  0  0  0  0  0  0  0
  179.8650  173.2150  135.5170 O   0  0  0  0  0  0  0  0  0  0  0  0
  180.6320  174.7690  137.0700 N   0  0  0  0  0  2  0  0  0  0  0  0
  180.8550  173.7580  136.0720 C   0  0  0  0  0  0  0  0  0  0  0  0
  182.2330  173.4080  135.6100 C   0  0  0  0  0  2  0  0  0  0  0  0
  184.3070  172.2800  137.2540 O   0  0  0  0  0  1  0  0  0  0  0  0
  183.0490  170.8070  135.4930 O   0  0  0  0  0  0  0  0  0  0  0  0
  182.8390  171.9320  136.4830 P   0  0  0  0  0  0  0  0  0  0  0  0
  181.7000  171.4580  137.6430 O   0  0  0  0  0  1  0  0  0  0  0  0
  184.0940  179.6880  143.6550 N   0  0  0  0  0  0  0  0  0  0  0  0
  184.9310  179.7540  144.8500 C   0  0  0  0  0  2  0  0  0  0  0  0
  184.3450  179.0110  145.8760 O   0  0  0  0  0  1  0  0  0  0  0  0
  183.1940  178.5570  143.8770 C   0  0  0  0  0  2  0  0  0  0  0  0
  181.7510  179.0360  143.9300 C   0  0  2  0  0  3  0  0  0  0  0  0
  180.9260  177.9640  144.2380 F   0  0  0  0  0  0  0  0  0  0  0  0
  181.3870  179.5580  142.6890 O   0  0  0  0  0  0  0  0  0  0  0  0
  178.9310  178.4980  142.0010 O   0  0  0  0  0  0  0  0  0  0  0  0
  179.3360  181.0740  142.0400 O   0  0  0  0  0  1  0  0  0  0  0  0
  179.7070  179.7960  142.7570 P   0  0  0  0  0  0  0  0  0  0  0  0
  179.1990  179.8850  144.3730 O   0  0  0  0  0  1  0  0  0  0  0  0
  187.8280  178.9850  138.3870 O   0  0  0  0  0  0  0  0  0  0  0  0
  189.2210  178.8850  138.5080 C   0  0  0  0  0  2  0  0  0  0  0  0
  189.6850  177.4380  138.4100 C   0  0  1  0  0  3  0  0  0  0  0  0
  190.1970  177.2290  137.1270 O   0  0  0  0  0  1  0  0  0  0  0  0
  190.7700  177.1910  139.4690 C   0  0  1  0  0  3  0  0  0  0  0  0
  190.1630  176.8590  140.8270 C   0  0  0  0  0  2  0  0  0  0  0  0
  191.1710  176.9490  141.8690 N   0  0  0  0  0  2  0  0  0  0  0  0
  191.6580  175.9780  144.0280 C   0  0  0  0  0  1  0  0  0  0  0  0
  190.5680  176.5160  143.1210 C   0  0  1  0  0  3  0  0  0  0  0  0
  189.8850  177.6960  143.8060 C   0  0  0  0  0  2  0  0  0  0  0  0
  188.8000  177.2330  144.5990 O   0  0  0  0  0  0  0  0  0  0  0  0
  189.7820  177.4570  146.7380 N   0  0  0  0  0  0  0  0  0  0  0  0
  188.7460  177.4550  145.9740 C   0  0  0  0  0  0  0  0  0  0  0  0
  187.9410  177.8110  148.1330 N   0  0  0  0  0  0  0  0  0  0  0  0
  187.4930  177.6890  146.7370 C   0  0  0  0  0  3  0  0  0  0  0  0
  189.3430  177.6840  148.0400 N   0  0  0  0  0  2  0  0  0  0  0  0
  191.6580  176.0990  139.0830 N   0  0  0  0  0  2  0  0  0  0  0  0
  193.7600  177.0530  139.5350 O   0  0  0  0  0  1  0  0  0  0  0  0
  192.8790  176.6690  138.5120 C   0  0  1  0  0  3  0  0  0  0  0  0
  193.5720  175.6740  137.5870 C   0  0  1  0  0  3  0  0  0  0  0  0
  192.7160  174.4280  137.3890 C   0  0  0  0  0  1  0  0  0  0  0  0
  193.9060  176.3170  136.2510 C   0  0  0  0  0  2  0  0  0  0  0  0
  193.1060  175.6720  135.1390 C   0  0  0  0  0  1  0  0  0  0  0  0
  1  4  1  0  0  0  0
  2  4  1  0  0  0  0
  2 24  1  1  0  0  0
  3  6  1  6  0  0  0
  3 10  1  0  0  0  0
  3  9  1  0  0  0  0
  5 35  1  6  0  0  0
  5 10  1  0  0  0  0
  7 14  1  1  0  0  0
  7  6  1  0  0  0  0
  8  7  1  0  0  0  0
  8 11  1  0  0  0  0
  9  2  1  0  0  0  0
 10  1  1  1  0  0  0
 11  5  1  0  0  0  0
 12 15  1  0  0  0  0
 12 14  1  0  0  0  0
 13 12  2  0  0  0  0
 16 18  2  0  0  0  0
 17 15  1  0  0  0  0
 18 17  1  0  0  0  0
 19 18  1  0  0  0  0
 19 22  1  0  0  0  0
 21 22  2  0  0  0  0
 22 20  1  0  0  0  0
 22 23  1  0  0  0  0
 24 27  1  0  0  0  0
 24 25  1  0  0  0  0
 25 26  1  0  0  0  0
 27 28  1  0  0  0  0
 28 29  1  6  0  0  0
 30 33  1  0  0  0  0
 30 28  1  0  0  0  0
 31 33  2  0  0  0  0
 32 33  1  0  0  0  0
 33 34  1  0  0  0  0
 35 36  1  0  0  0  0
 37 38  1  6  0  0  0
 37 36  1  0  0  0  0
 37 39  1  0  0  0  0
 39 40  1  1  0  0  0
 40 41  1  0  0  0  0
 41 43  1  0  0  0  0
 43 44  1  0  0  0  0
 43 42  1  1  0  0  0
 44 45  1  0  0  0  0
 45 47  1  0  0  0  0
 46 50  1  0  0  0  0
 47 49  1  0  0  0  0
 47 46  2  0  0  0  0
 49 48  2  0  0  0  0
 50 48  1  0  0  0  0
 51 39  1  0  0  0  0
 53 51  1  0  0  0  0
 53 52  1  1  0  0  0
 54 55  1  6  0  0  0
 54 53  1  0  0  0  0
 56 54  1  0  0  0  0
 57 56  1  0  0  0  0
M  END
>  <MODEL>
3

>  <REMARK>
 VINA RESULT:      -5.8      3.354      7.023
  Name = 
  25 active torsions:
  status: ('A' for Active; 'I' for Inactive)
    1  A    between atoms: C_1  and  C_47
    2  A    between atoms: C_1  and  O_52
    3  A    between atoms: C_2  and  P_48
    4  A    between atoms: C_2  and  C_56
    5  A    between atoms: C_5  and  C_24
    6  A    between atoms: C_5  and  C_43
    7  A    between atoms: C_6  and  N_57
    8  A    between atoms: C_7  and  N_57
    9  A    between atoms: N_9  and  C_15
   10  A    between atoms: N_9  and  C_37
   11  A    between atoms: N_11  and  O_22
   12  A    between atoms: C_15  and  C_21
   13  A    between atoms: N_16  and  C_17
   14  A    between atoms: N_16  and  C_43
   15  A    between atoms: C_17  and  C_18
   16  A    between atoms: C_17  and  C_37
   17  A    between atoms: C_18  and  C_45
   18  A    between atoms: C_21  and  O_39
   19  A    between atoms: O_22  and  C_31
   20  A    between atoms: O_26  and  C_28
   21  A    between atoms: O_26  and  C_45
   22  A    between atoms: C_29  and  O_39
   23  A    between atoms: C_33  and  N_53
   24  A    between atoms: P_34  and  O_52
   25  A    between atoms: C_47  and  N_57
                            x       y       z     vdW  Elec       q    Type
                         _______ _______ _______ _____ _____    ______ ____

>  <TORSDO>
F 25

$$$$
=
 OpenBabel10222417343D

 57 59  0  0  1  0  0  0  0  0999 V2000
  188.3050  175.9240  143.0010 C   0  0  0  0  0  2  0  0  0  0  0  0
  187.3060  177.5540  144.6720 C   0  0  1  0  0  3  0  0  0  0  0  0
  187.1770  178.0110  142.1340 C   0  0  2  0  0  3  0  0  0  0  0  0
  187.3720  176.0930  144.2100 C   0  0  0  0  0  2  0  0  0  0  0  0
  189.1970  176.8980  140.8660 C   0  0  1  0  0  3  0  0  0  0  0  0
  187.2980  179.2610  141.2750 C   0  0  0  0  0  2  0  0  0  0  0  0
  186.9180  178.9910  139.8200 C   0  0  1  0  0  3  0  0  0  0  0  0
  187.9800  178.1990  139.0550 C   0  0  0  0  0  2  0  0  0  0  0  0
  186.6960  178.4100  143.5420 C   0  0  0  0  0  2  0  0  0  0  0  0
  188.4900  177.2150  142.1980 C   0  0  2  0  0  3  0  0  0  0  0  0
  188.2610  176.8190  139.6540 C   0  0  0  0  0  2  0  0  0  0  0  0
  184.4540  179.0610  139.2610 C   0  0  0  0  0  0  0  0  0  0  0  0
  184.5280  180.2920  138.9910 O   0  0  0  0  0  0  0  0  0  0  0  0
  185.6080  178.3550  139.7250 N   0  0  0  0  0  2  0  0  0  0  0  0
  183.2450  178.3730  139.1120 O   0  0  0  0  0  0  0  0  0  0  0  0
  180.9060  178.5820  136.3750 O   0  0  0  0  0  0  0  0  0  0  0  0
  182.2380  178.8060  138.2700 N   0  0  0  0  0  2  0  0  0  0  0  0
  181.9230  178.1960  137.0080 C   0  0  0  0  0  0  0  0  0  0  0  0
  182.8280  177.1830  136.3830 C   0  0  0  0  0  2  0  0  0  0  0  0
  180.8660  175.4670  137.6000 O   0  0  0  0  0  1  0  0  0  0  0  0
  183.4100  175.1810  138.1440 O   0  0  0  0  0  1  0  0  0  0  0  0
  182.4560  175.5210  137.0200 P   0  0  0  0  0  0  0  0  0  0  0  0
  182.6300  174.3890  135.7720 O   0  0  0  0  0  0  0  0  0  0  0  0
  186.5340  177.6720  145.9190 N   0  0  0  0  0  0  0  0  0  0  0  0
  185.7510  178.9040  145.8730 C   0  0  0  0  0  2  0  0  0  0  0  0
  185.1810  179.1460  147.1240 O   0  0  0  0  0  1  0  0  0  0  0  0
  187.4810  177.8600  147.0170 C   0  0  0  0  0  2  0  0  0  0  0  0
  188.7960  177.1620  146.7030 C   0  0  2  0  0  3  0  0  0  0  0  0
  189.0760  176.2450  147.7060 F   0  0  0  0  0  0  0  0  0  0  0  0
  189.8220  178.1060  146.6410 O   0  0  0  0  0  0  0  0  0  0  0  0
  192.1410  176.7130  147.1970 O   0  0  0  0  0  1  0  0  0  0  0  0
  191.9550  178.2630  145.1080 O   0  0  0  0  0  1  0  0  0  0  0  0
  191.1530  177.3030  145.9580 P   0  0  0  0  0  0  0  0  0  0  0  0
  190.6210  176.0070  145.0020 O   0  0  0  0  0  0  0  0  0  0  0  0
  190.2820  177.7600  140.6150 O   0  0  0  0  0  0  0  0  0  0  0  0
  191.4050  176.9420  140.4210 C   0  0  0  0  0  2  0  0  0  0  0  0
  192.2400  177.4170  139.2400 C   0  0  1  0  0  3  0  0  0  0  0  0
  193.5820  177.4180  139.6270 O   0  0  0  0  0  1  0  0  0  0  0  0
  192.0220  176.4580  138.0590 C   0  0  1  0  0  3  0  0  0  0  0  0
  193.3310  175.8280  137.5990 C   0  0  0  0  0  2  0  0  0  0  0  0
  193.4000  174.4400  138.0160 N   0  0  0  0  0  2  0  0  0  0  0  0
  194.6270  174.6580  135.9450 C   0  0  0  0  0  1  0  0  0  0  0  0
  194.0840  173.6860  136.9750 C   0  0  1  0  0  3  0  0  0  0  0  0
  195.2430  172.8980  137.5790 C   0  0  0  0  0  2  0  0  0  0  0  0
  195.4660  173.3170  138.9180 O   0  0  0  0  0  0  0  0  0  0  0  0
  196.3210  175.1000  140.2150 N   0  0  0  0  0  0  0  0  0  0  0  0
  196.4350  174.2670  139.2410 C   0  0  0  0  0  0  0  0  0  0  0  0
  198.3500  175.5940  139.1660 N   0  0  0  0  0  0  0  0  0  0  0  0
  197.7030  174.4590  138.4900 C   0  0  0  0  0  3  0  0  0  0  0  0
  197.4590  175.9030  140.2150 N   0  0  0  0  0  2  0  0  0  0  0  0
  191.0920  175.3880  138.4020 N   0  0  0  0  0  2  0  0  0  0  0  0
  190.1840  173.5010  137.3310 O   0  0  0  0  0  1  0  0  0  0  0  0
  190.5170  174.8540  137.1650 C   0  0  1  0  0  3  0  0  0  0  0  0
  189.2780  175.6400  136.7490 C   0  0  1  0  0  3  0  0  0  0  0  0
  189.6000  176.6060  135.6150 C   0  0  0  0  0  1  0  0  0  0  0  0
  188.1480  174.7030  136.3560 C   0  0  0  0  0  2  0  0  0  0  0  0
  186.8060  175.3450  136.6400 C   0  0  0  0  0  1  0  0  0  0  0  0
  1  4  1  0  0  0  0
  2 24  1  1  0  0  0
  3  6  1  6  0  0  0
  3 10  1  0  0  0  0
  3  9  1  0  0  0  0
  4  2  1  0  0  0  0
  5 35  1  6  0  0  0
  5 10  1  0  0  0  0
  7 14  1  1  0  0  0
  7  6  1  0  0  0  0
  8 11  1  0  0  0  0
  8  7  1  0  0  0  0
  9  2  1  0  0  0  0
 10  1  1  6  0  0  0
 11  5  1  0  0  0  0
 12 14  1  0  0  0  0
 13 12  2  0  0  0  0
 15 12  1  0  0  0  0
 16 18  2  0  0  0  0
 17 15  1  0  0  0  0
 18 17  1  0  0  0  0
 19 18  1  0  0  0  0
 19 22  1  0  0  0  0
 22 20  1  0  0  0  0
 22 21  1  0  0  0  0
 23 22  2  0  0  0  0
 24 27  1  0  0  0  0
 25 24  1  0  0  0  0
 25 26  1  0  0  0  0
 28 27  1  0  0  0  0
 28 29  1  1  0  0  0
 30 28  1  0  0  0  0
 32 33  1  0  0  0  0
 33 30  1  0  0  0  0
 33 31  1  0  0  0  0
 34 33  2  0  0  0  0
 36 35  1  0  0  0  0
 37 38  1  1  0  0  0
 37 36  1  0  0  0  0
 39 40  1  1  0  0  0
 39 51  1  0  0  0  0
 39 37  1  0  0  0  0
 40 41  1  0  0  0  0
 43 42  1  6  0  0  0
 43 44  1  0  0  0  0
 43 41  1  0  0  0  0
 44 45  1  0  0  0  0
 45 47  1  0  0  0  0
 46 50  1  0  0  0  0
 47 46  2  0  0  0  0
 48 50  1  0  0  0  0
 49 48  2  0  0  0  0
 49 47  1  0  0  0  0
 53 52  1  1  0  0  0
 53 51  1  0  0  0  0
 54 55  1  6  0  0  0
 54 53  1  0  0  0  0
 56 57  1  0  0  0  0
 56 54  1  0  0  0  0
M  END
>  <MODEL>
4

>  <REMARK>
 VINA RESULT:      -5.7      2.530      5.528
  Name = 
  25 active torsions:
  status: ('A' for Active; 'I' for Inactive)
    1  A    between atoms: C_1  and  C_47
    2  A    between atoms: C_1  and  O_52
    3  A    between atoms: C_2  and  P_48
    4  A    between atoms: C_2  and  C_56
    5  A    between atoms: C_5  and  C_24
    6  A    between atoms: C_5  and  C_43
    7  A    between atoms: C_6  and  N_57
    8  A    between atoms: C_7  and  N_57
    9  A    between atoms: N_9  and  C_15
   10  A    between atoms: N_9  and  C_37
   11  A    between atoms: N_11  and  O_22
   12  A    between atoms: C_15  and  C_21
   13  A    between atoms: N_16  and  C_17
   14  A    between atoms: N_16  and  C_43
   15  A    between atoms: C_17  and  C_18
   16  A    between atoms: C_17  and  C_37
   17  A    between atoms: C_18  and  C_45
   18  A    between atoms: C_21  and  O_39
   19  A    between atoms: O_22  and  C_31
   20  A    between atoms: O_26  and  C_28
   21  A    between atoms: O_26  and  C_45
   22  A    between atoms: C_29  and  O_39
   23  A    between atoms: C_33  and  N_53
   24  A    between atoms: P_34  and  O_52
   25  A    between atoms: C_47  and  N_57
                            x       y       z     vdW  Elec       q    Type
                         _______ _______ _______ _____ _____    ______ ____

>  <TORSDO>
F 25

$$$$
=
 OpenBabel10222417343D

 57 59  0  0  1  0  0  0  0  0999 V2000
  189.8900  175.6310  142.2860 C   0  0  0  0  0  2  0  0  0  0  0  0
  188.7630  177.2500  143.8830 C   0  0  1  0  0  3  0  0  0  0  0  0
  188.6950  177.6400  141.3310 C   0  0  2  0  0  3  0  0  0  0  0  0
  188.9120  175.7840  143.4600 C   0  0  0  0  0  2  0  0  0  0  0  0
  190.8050  176.5940  140.1560 C   0  0  1  0  0  3  0  0  0  0  0  0
  188.7860  178.8740  140.4460 C   0  0  0  0  0  2  0  0  0  0  0  0
  188.4660  178.5520  138.9860 C   0  0  1  0  0  3  0  0  0  0  0  0
  189.5880  177.7930  138.2750 C   0  0  0  0  0  2  0  0  0  0  0  0
  188.1500  178.0490  142.7130 C   0  0  0  0  0  2  0  0  0  0  0  0
  190.0410  176.9090  141.4570 C   0  0  2  0  0  3  0  0  0  0  0  0
  189.9130  176.4430  138.9170 C   0  0  0  0  0  2  0  0  0  0  0  0
  186.2680  178.1320  137.8100 C   0  0  0  0  0  0  0  0  0  0  0  0
  186.5060  179.0600  136.9870 O   0  0  0  0  0  0  0  0  0  0  0  0
  187.1900  177.8530  138.8660 N   0  0  0  0  0  2  0  0  0  0  0  0
  185.1000  177.3690  137.7010 O   0  0  0  0  0  0  0  0  0  0  0  0
  181.6800  177.9760  136.7310 O   0  0  0  0  0  0  0  0  0  0  0  0
  183.8450  177.9370  137.5830 N   0  0  0  0  0  2  0  0  0  0  0  0
  182.8340  177.4770  136.6720 C   0  0  0  0  0  0  0  0  0  0  0  0
  183.1460  176.4900  135.5930 C   0  0  0  0  0  2  0  0  0  0  0  0
  183.2330  173.6620  135.0750 O   0  0  0  0  0  0  0  0  0  0  0  0
  180.9940  174.8220  135.7720 O   0  0  0  0  0  1  0  0  0  0  0  0
  182.4860  174.8500  136.0210 P   0  0  0  0  0  0  0  0  0  0  0  0
  182.7900  174.5320  137.6560 O   0  0  0  0  0  1  0  0  0  0  0  0
  187.9470  177.3610  145.1020 N   0  0  0  0  0  0  0  0  0  0  0  0
  186.8660  178.3140  144.8600 C   0  0  0  0  0  2  0  0  0  0  0  0
  186.1070  178.4670  146.0200 O   0  0  0  0  0  1  0  0  0  0  0  0
  188.7730  177.9720  146.1420 C   0  0  0  0  0  2  0  0  0  0  0  0
  189.1340  176.9400  147.2010 C   0  0  2  0  0  3  0  0  0  0  0  0
  188.0430  176.7420  148.0340 F   0  0  0  0  0  0  0  0  0  0  0  0
  190.2130  177.4030  147.9540 O   0  0  0  0  0  0  0  0  0  0  0  0
  192.0380  176.9730  145.9260 O   0  0  0  0  0  0  0  0  0  0  0  0
  191.1780  175.0140  147.4180 O   0  0  0  0  0  1  0  0  0  0  0  0
  191.5520  176.4790  147.4680 P   0  0  0  0  0  0  0  0  0  0  0  0
  192.8340  176.7000  148.5550 O   0  0  0  0  0  1  0  0  0  0  0  0
  191.8560  177.5010  139.9170 O   0  0  0  0  0  0  0  0  0  0  0  0
  192.9600  176.7340  139.5170 C   0  0  0  0  0  2  0  0  0  0  0  0
  192.9560  176.4960  138.0140 C   0  0  1  0  0  3  0  0  0  0  0  0
  193.8880  177.3580  137.4320 O   0  0  0  0  0  1  0  0  0  0  0  0
  193.3350  175.0310  137.7420 C   0  0  1  0  0  3  0  0  0  0  0  0
  192.1590  174.2440  137.1770 C   0  0  0  0  0  2  0  0  0  0  0  0
  191.5830  174.9390  136.0400 N   0  0  0  0  0  2  0  0  0  0  0  0
  191.5450  172.5680  135.5680 C   0  0  0  0  0  1  0  0  0  0  0  0
  191.2830  173.9530  135.0100 C   0  0  1  0  0  3  0  0  0  0  0  0
  189.8170  174.0580  134.6000 C   0  0  0  0  0  2  0  0  0  0  0  0
  189.0870  174.7690  135.5910 O   0  0  0  0  0  0  0  0  0  0  0  0
  187.0080  174.8460  136.7170 N   0  0  0  0  0  0  0  0  0  0  0  0
  188.0250  174.1870  136.2810 C   0  0  0  0  0  0  0  0  0  0  0  0
  186.6850  172.6320  137.3880 N   0  0  0  0  0  0  0  0  0  0  0  0
  187.9400  172.7440  136.6260 C   0  0  0  0  0  3  0  0  0  0  0  0
  186.1730  173.9450  137.3720 N   0  0  0  0  0  2  0  0  0  0  0  0
  194.4480  174.9310  136.8050 N   0  0  0  0  0  2  0  0  0  0  0  0
  195.0000  173.1320  135.3920 O   0  0  0  0  0  1  0  0  0  0  0  0
  194.8730  173.5310  136.7320 C   0  0  1  0  0  3  0  0  0  0  0  0
  196.1980  173.3190  137.4570 C   0  0  1  0  0  3  0  0  0  0  0  0
  196.1030  173.7720  138.9080 C   0  0  0  0  0  1  0  0  0  0  0  0
  196.6360  171.8660  137.3720 C   0  0  0  0  0  2  0  0  0  0  0  0
  195.5530  170.9550  137.9100 C   0  0  0  0  0  1  0  0  0  0  0  0
  1  4  1  0  0  0  0
  2 24  1  1  0  0  0
  3  6  1  6  0  0  0
  3 10  1  0  0  0  0
  3  9  1  0  0  0  0
  4  2  1  0  0  0  0
  5 35  1  6  0  0  0
  5 10  1  0  0  0  0
  7 14  1  1  0  0  0
  7  6  1  0  0  0  0
  8 11  1  0  0  0  0
  8  7  1  0  0  0  0
  9  2  1  0  0  0  0
 10  1  1  6  0  0  0
 11  5  1  0  0  0  0
 12 14  1  0  0  0  0
 13 12  2  0  0  0  0
 15 12  1  0  0  0  0
 17 15  1  0  0  0  0
 18 16  2  0  0  0  0
 18 17  1  0  0  0  0
 19 22  1  0  0  0  0
 19 18  1  0  0  0  0
 20 22  2  0  0  0  0
 21 22  1  0  0  0  0
 22 23  1  0  0  0  0
 24 27  1  0  0  0  0
 25 24  1  0  0  0  0
 25 26  1  0  0  0  0
 27 28  1  0  0  0  0
 28 30  1  0  0  0  0
 28 29  1  1  0  0  0
 31 33  2  0  0  0  0
 32 33  1  0  0  0  0
 33 30  1  0  0  0  0
 33 34  1  0  0  0  0
 36 35  1  0  0  0  0
 37 38  1  6  0  0  0
 37 36  1  0  0  0  0
 39 40  1  6  0  0  0
 39 37  1  0  0  0  0
 41 40  1  0  0  0  0
 43 42  1  1  0  0  0
 43 41  1  0  0  0  0
 44 43  1  0  0  0  0
 44 45  1  0  0  0  0
 45 47  1  0  0  0  0
 46 50  1  0  0  0  0
 47 49  1  0  0  0  0
 47 46  2  0  0  0  0
 49 48  2  0  0  0  0
 50 48  1  0  0  0  0
 51 39  1  0  0  0  0
 53 52  1  6  0  0  0
 53 51  1  0  0  0  0
 53 54  1  0  0  0  0
 54 55  1  1  0  0  0
 56 54  1  0  0  0  0
 56 57  1  0  0  0  0
M  END
>  <MODEL>
5

>  <REMARK>
 VINA RESULT:      -5.7      2.398      3.589
  Name = 
  25 active torsions:
  status: ('A' for Active; 'I' for Inactive)
    1  A    between atoms: C_1  and  C_47
    2  A    between atoms: C_1  and  O_52
    3  A    between atoms: C_2  and  P_48
    4  A    between atoms: C_2  and  C_56
    5  A    between atoms: C_5  and  C_24
    6  A    between atoms: C_5  and  C_43
    7  A    between atoms: C_6  and  N_57
    8  A    between atoms: C_7  and  N_57
    9  A    between atoms: N_9  and  C_15
   10  A    between atoms: N_9  and  C_37
   11  A    between atoms: N_11  and  O_22
   12  A    between atoms: C_15  and  C_21
   13  A    between atoms: N_16  and  C_17
   14  A    between atoms: N_16  and  C_43
   15  A    between atoms: C_17  and  C_18
   16  A    between atoms: C_17  and  C_37
   17  A    between atoms: C_18  and  C_45
   18  A    between atoms: C_21  and  O_39
   19  A    between atoms: O_22  and  C_31
   20  A    between atoms: O_26  and  C_28
   21  A    between atoms: O_26  and  C_45
   22  A    between atoms: C_29  and  O_39
   23  A    between atoms: C_33  and  N_53
   24  A    between atoms: P_34  and  O_52
   25  A    between atoms: C_47  and  N_57
                            x       y       z     vdW  Elec       q    Type
                         _______ _______ _______ _____ _____    ______ ____

>  <TORSDO>
F 25

$$$$
=
 OpenBabel10222417343D

 57 59  0  0  1  0  0  0  0  0999 V2000
  187.8590  178.7500  139.2880 C   0  0  0  0  0  2  0  0  0  0  0  0
  187.2890  177.2370  137.3300 C   0  0  1  0  0  3  0  0  0  0  0  0
  185.4470  178.1000  138.9200 C   0  0  2  0  0  3  0  0  0  0  0  0
  188.0040  178.5180  137.7770 C   0  0  0  0  0  2  0  0  0  0  0  0
  186.4090  178.5550  141.3270 C   0  0  1  0  0  3  0  0  0  0  0  0
  184.1880  177.4850  139.5150 C   0  0  0  0  0  2  0  0  0  0  0  0
  183.3310  178.5270  140.2330 C   0  0  1  0  0  3  0  0  0  0  0  0
  183.9140  178.9670  141.5770 C   0  0  0  0  0  2  0  0  0  0  0  0
  185.7760  177.3900  137.5930 C   0  0  0  0  0  2  0  0  0  0  0  0
  186.6380  178.0490  139.8900 C   0  0  2  0  0  3  0  0  0  0  0  0
  185.3000  179.6060  141.4600 C   0  0  0  0  0  2  0  0  0  0  0  0
  181.8520  179.7760  138.6070 C   0  0  0  0  0  0  0  0  0  0  0  0
  181.0180  178.8290  138.6040 O   0  0  0  0  0  0  0  0  0  0  0  0
  183.0570  179.6720  139.3700 N   0  0  0  0  0  2  0  0  0  0  0  0
  181.6100  180.9370  137.8650 O   0  0  0  0  0  0  0  0  0  0  0  0
  179.0970  182.1520  135.5820 O   0  0  0  0  0  0  0  0  0  0  0  0
  180.6600  180.9990  136.8630 N   0  0  0  0  0  2  0  0  0  0  0  0
  179.8400  182.1490  136.5970 C   0  0  0  0  0  0  0  0  0  0  0  0
  179.7770  183.2990  137.5500 C   0  0  0  0  0  2  0  0  0  0  0  0
  179.6110  186.1190  137.0060 O   0  0  0  0  0  1  0  0  0  0  0  0
  180.8850  184.5170  135.3750 O   0  0  0  0  0  0  0  0  0  0  0  0
  180.6030  184.7560  136.8420 P   0  0  0  0  0  0  0  0  0  0  0  0
  182.0610  185.0280  137.6600 O   0  0  0  0  0  1  0  0  0  0  0  0
  187.5680  176.9510  135.9140 N   0  0  0  0  0  0  0  0  0  0  0  0
  186.3000  176.7980  135.2060 C   0  0  0  0  0  2  0  0  0  0  0  0
  186.0370  175.4430  135.0010 O   0  0  0  0  0  1  0  0  0  0  0  0
  188.2110  175.6400  135.8390 C   0  0  0  0  0  2  0  0  0  0  0  0
  189.7220  175.7990  135.7610 C   0  0  2  0  0  3  0  0  0  0  0  0
  190.0230  177.0570  135.2620 F   0  0  0  0  0  0  0  0  0  0  0  0
  190.2500  174.8260  134.9110 O   0  0  0  0  0  0  0  0  0  0  0  0
  191.9940  172.6840  134.9130 O   0  0  0  0  0  0  0  0  0  0  0  0
  190.6670  173.3570  137.0550 O   0  0  0  0  0  1  0  0  0  0  0  0
  191.3600  173.9430  135.8460 P   0  0  0  0  0  0  0  0  0  0  0  0
  192.6250  174.9540  136.3520 O   0  0  0  0  0  1  0  0  0  0  0  0
  186.2240  177.5030  142.2440 O   0  0  0  0  0  0  0  0  0  0  0  0
  186.7510  177.9420  143.4670 C   0  0  0  0  0  2  0  0  0  0  0  0
  187.8340  177.0010  143.9760 C   0  0  1  0  0  3  0  0  0  0  0  0
  187.8520  175.8710  143.1560 O   0  0  0  0  0  1  0  0  0  0  0  0
  189.1880  177.7270  143.9210 C   0  0  1  0  0  3  0  0  0  0  0  0
  189.8280  177.8270  145.3000 C   0  0  0  0  0  2  0  0  0  0  0  0
  190.1310  176.5040  145.8150 N   0  0  0  0  0  2  0  0  0  0  0  0
  191.6460  176.7290  147.6870 C   0  0  0  0  0  1  0  0  0  0  0  0
  190.1950  176.5860  147.2680 C   0  0  1  0  0  3  0  0  0  0  0  0
  189.4130  177.8020  147.7550 C   0  0  0  0  0  2  0  0  0  0  0  0
  188.0810  177.4230  148.0760 O   0  0  0  0  0  0  0  0  0  0  0  0
  186.8520  179.4050  147.6820 N   0  0  0  0  0  0  0  0  0  0  0  0
  186.9790  178.1270  147.5920 C   0  0  0  0  0  0  0  0  0  0  0  0
  184.9000  178.6240  146.6600 N   0  0  0  0  0  0  0  0  0  0  0  0
  185.8040  177.4960  146.9370 C   0  0  0  0  0  3  0  0  0  0  0  0
  185.6240  179.7440  147.1180 N   0  0  0  0  0  2  0  0  0  0  0  0
  190.1230  177.0500  143.0280 N   0  0  0  0  0  2  0  0  0  0  0  0
  192.2550  178.0420  143.1070 O   0  0  0  0  0  1  0  0  0  0  0  0
  191.0180  178.0500  142.4430 C   0  0  1  0  0  3  0  0  0  0  0  0
  191.2340  177.7930  140.9550 C   0  0  1  0  0  3  0  0  0  0  0  0
  192.6760  177.3830  140.6770 C   0  0  0  0  0  1  0  0  0  0  0  0
  190.2650  176.7420  140.4400 C   0  0  0  0  0  2  0  0  0  0  0  0
  190.6790  176.2730  139.0610 C   0  0  0  0  0  1  0  0  0  0  0  0
  2 24  1  6  0  0  0
  2  9  1  0  0  0  0
  2  4  1  0  0  0  0
  3  9  1  6  0  0  0
  3  6  1  0  0  0  0
  3 10  1  0  0  0  0
  4  1  1  0  0  0  0
  5 11  1  0  0  0  0
  5 35  1  1  0  0  0
  6  7  1  0  0  0  0
  7 14  1  6  0  0  0
  7  8  1  0  0  0  0
 10  1  1  6  0  0  0
 10  5  1  0  0  0  0
 11  8  1  0  0  0  0
 12 14  1  0  0  0  0
 13 12  2  0  0  0  0
 15 12  1  0  0  0  0
 16 18  2  0  0  0  0
 17 15  1  0  0  0  0
 18 17  1  0  0  0  0
 18 19  1  0  0  0  0
 21 22  2  0  0  0  0
 22 20  1  0  0  0  0
 22 19  1  0  0  0  0
 22 23  1  0  0  0  0
 25 24  1  0  0  0  0
 26 25  1  0  0  0  0
 27 24  1  0  0  0  0
 28 29  1  6  0  0  0
 28 27  1  0  0  0  0
 30 28  1  0  0  0  0
 30 33  1  0  0  0  0
 31 33  2  0  0  0  0
 33 34  1  0  0  0  0
 33 32  1  0  0  0  0
 35 36  1  0  0  0  0
 36 37  1  0  0  0  0
 37 38  1  6  0  0  0
 39 37  1  0  0  0  0
 39 40  1  1  0  0  0
 40 41  1  0  0  0  0
 41 43  1  0  0  0  0
 43 42  1  6  0  0  0
 43 44  1  0  0  0  0
 44 45  1  0  0  0  0
 47 46  2  0  0  0  0
 47 45  1  0  0  0  0
 48 49  2  0  0  0  0
 48 50  1  0  0  0  0
 49 47  1  0  0  0  0
 50 46  1  0  0  0  0
 51 39  1  0  0  0  0
 53 51  1  0  0  0  0
 53 52  1  1  0  0  0
 54 55  1  1  0  0  0
 54 53  1  0  0  0  0
 56 54  1  0  0  0  0
 57 56  1  0  0  0  0
M  END
>  <MODEL>
6

>  <REMARK>
 VINA RESULT:      -5.4      3.980      9.160
  Name = 
  25 active torsions:
  status: ('A' for Active; 'I' for Inactive)
    1  A    between atoms: C_1  and  C_47
    2  A    between atoms: C_1  and  O_52
    3  A    between atoms: C_2  and  P_48
    4  A    between atoms: C_2  and  C_56
    5  A    between atoms: C_5  and  C_24
    6  A    between atoms: C_5  and  C_43
    7  A    between atoms: C_6  and  N_57
    8  A    between atoms: C_7  and  N_57
    9  A    between atoms: N_9  and  C_15
   10  A    between atoms: N_9  and  C_37
   11  A    between atoms: N_11  and  O_22
   12  A    between atoms: C_15  and  C_21
   13  A    between atoms: N_16  and  C_17
   14  A    between atoms: N_16  and  C_43
   15  A    between atoms: C_17  and  C_18
   16  A    between atoms: C_17  and  C_37
   17  A    between atoms: C_18  and  C_45
   18  A    between atoms: C_21  and  O_39
   19  A    between atoms: O_22  and  C_31
   20  A    between atoms: O_26  and  C_28
   21  A    between atoms: O_26  and  C_45
   22  A    between atoms: C_29  and  O_39
   23  A    between atoms: C_33  and  N_53
   24  A    between atoms: P_34  and  O_52
   25  A    between atoms: C_47  and  N_57
                            x       y       z     vdW  Elec       q    Type
                         _______ _______ _______ _____ _____    ______ ____

>  <TORSDO>
F 25

$$$$
=
 OpenBabel10222417343D

 57 59  0  0  1  0  0  0  0  0999 V2000
  188.7440  175.9610  143.0410 C   0  0  0  0  0  2  0  0  0  0  0  0
  187.6000  177.6030  144.6020 C   0  0  1  0  0  3  0  0  0  0  0  0
  187.5930  177.9770  142.0480 C   0  0  2  0  0  3  0  0  0  0  0  0
  187.7420  176.1320  144.1920 C   0  0  0  0  0  2  0  0  0  0  0  0
  189.7170  176.9010  140.9260 C   0  0  1  0  0  3  0  0  0  0  0  0
  187.7170  179.2050  141.1570 C   0  0  0  0  0  2  0  0  0  0  0  0
  187.4260  178.8770  139.6930 C   0  0  1  0  0  3  0  0  0  0  0  0
  188.5550  178.1020  139.0110 C   0  0  0  0  0  2  0  0  0  0  0  0
  187.0220  178.4010  143.4140 C   0  0  0  0  0  2  0  0  0  0  0  0
  188.9280  177.2330  142.2080 C   0  0  2  0  0  3  0  0  0  0  0  0
  188.8510  176.7520  139.6690 C   0  0  0  0  0  2  0  0  0  0  0  0
  184.9370  178.7140  140.1050 C   0  0  0  0  0  0  0  0  0  0  0  0
  184.9640  179.7610  140.8110 O   0  0  0  0  0  0  0  0  0  0  0  0
  186.1460  178.1910  139.5490 N   0  0  0  0  0  2  0  0  0  0  0  0
  183.7280  178.0540  139.8610 O   0  0  0  0  0  0  0  0  0  0  0  0
  181.7470  177.8390  136.8560 O   0  0  0  0  0  0  0  0  0  0  0  0
  183.2970  177.7320  138.5880 N   0  0  0  0  0  2  0  0  0  0  0  0
  181.9980  178.0620  138.0680 C   0  0  0  0  0  0  0  0  0  0  0  0
  180.9080  178.5710  138.9560 C   0  0  0  0  0  2  0  0  0  0  0  0
  180.4170  180.9590  140.4830 O   0  0  0  0  0  1  0  0  0  0  0  0
  179.9140  180.8890  137.9150 O   0  0  0  0  0  0  0  0  0  0  0  0
  180.8890  180.3890  138.9600 P   0  0  0  0  0  0  0  0  0  0  0  0
  182.4410  180.9680  138.6050 O   0  0  0  0  0  1  0  0  0  0  0  0
  186.7580  177.7300  145.8020 N   0  0  0  0  0  0  0  0  0  0  0  0
  185.7950  178.8080  145.5900 C   0  0  0  0  0  2  0  0  0  0  0  0
  184.7120  178.6470  146.4550 O   0  0  0  0  0  1  0  0  0  0  0  0
  187.6080  178.1850  146.9010 C   0  0  0  0  0  2  0  0  0  0  0  0
  188.6330  177.1170  147.2510 C   0  0  2  0  0  3  0  0  0  0  0  0
  188.0700  176.2200  148.1470 F   0  0  0  0  0  0  0  0  0  0  0  0
  189.7500  177.7150  147.8350 O   0  0  0  0  0  0  0  0  0  0  0  0
  191.5470  177.2170  145.7980 O   0  0  0  0  0  0  0  0  0  0  0  0
  190.7110  175.3100  147.3680 O   0  0  0  0  0  1  0  0  0  0  0  0
  191.0830  176.7760  147.3630 P   0  0  0  0  0  0  0  0  0  0  0  0
  192.3800  177.0360  148.4240 O   0  0  0  0  0  1  0  0  0  0  0  0
  190.7830  177.7950  140.7050 O   0  0  0  0  0  0  0  0  0  0  0  0
  191.9570  177.0290  140.7300 C   0  0  0  0  0  2  0  0  0  0  0  0
  192.7630  177.2060  139.4510 C   0  0  1  0  0  3  0  0  0  0  0  0
  194.0540  177.6110  139.8000 O   0  0  0  0  0  1  0  0  0  0  0  0
  192.8050  175.8660  138.7000 C   0  0  1  0  0  3  0  0  0  0  0  0
  191.5490  175.6530  137.8620 C   0  0  0  0  0  2  0  0  0  0  0  0
  191.4720  176.6430  136.8040 N   0  0  0  0  0  2  0  0  0  0  0  0
  190.8020  174.5060  135.8930 C   0  0  0  0  0  1  0  0  0  0  0  0
  191.0210  175.9760  135.5900 C   0  0  1  0  0  3  0  0  0  0  0  0
  189.7080  176.5910  135.1160 C   0  0  0  0  0  2  0  0  0  0  0  0
  188.6880  175.6020  135.1040 O   0  0  0  0  0  0  0  0  0  0  0  0
  186.7590  176.8500  135.6660 N   0  0  0  0  0  0  0  0  0  0  0  0
  187.4760  175.7860  135.7700 C   0  0  0  0  0  0  0  0  0  0  0  0
  185.6510  175.4600  137.1830 N   0  0  0  0  0  0  0  0  0  0  0  0
  186.8730  174.7970  136.7000 C   0  0  0  0  0  3  0  0  0  0  0  0
  185.6460  176.6870  136.4870 N   0  0  0  0  0  2  0  0  0  0  0  0
  193.9650  175.7810  137.8190 N   0  0  0  0  0  2  0  0  0  0  0  0
  194.1780  173.9060  136.4140 O   0  0  0  0  0  1  0  0  0  0  0  0
  194.3760  174.3780  137.7210 C   0  0  1  0  0  3  0  0  0  0  0  0
  195.8390  174.2040  138.1130 C   0  0  1  0  0  3  0  0  0  0  0  0
  196.0420  174.4810  139.5980 C   0  0  0  0  0  1  0  0  0  0  0  0
  196.3360  172.8150  137.7490 C   0  0  0  0  0  2  0  0  0  0  0  0
  197.5870  172.9070  136.9000 C   0  0  0  0  0  1  0  0  0  0  0  0
  1  4  1  0  0  0  0
  2 24  1  1  0  0  0
  3  6  1  6  0  0  0
  3 10  1  0  0  0  0
  3  9  1  0  0  0  0
  4  2  1  0  0  0  0
  5 35  1  6  0  0  0
  5 10  1  0  0  0  0
  7 14  1  1  0  0  0
  7  6  1  0  0  0  0
  8 11  1  0  0  0  0
  8  7  1  0  0  0  0
  9  2  1  0  0  0  0
 10  1  1  6  0  0  0
 11  5  1  0  0  0  0
 12 13  2  0  0  0  0
 14 12  1  0  0  0  0
 15 12  1  0  0  0  0
 16 18  2  0  0  0  0
 17 15  1  0  0  0  0
 18 17  1  0  0  0  0
 18 19  1  0  0  0  0
 19 22  1  0  0  0  0
 21 22  2  0  0  0  0
 22 20  1  0  0  0  0
 23 22  1  0  0  0  0
 24 27  1  0  0  0  0
 25 24  1  0  0  0  0
 25 26  1  0  0  0  0
 27 28  1  0  0  0  0
 28 30  1  0  0  0  0
 28 29  1  1  0  0  0
 31 33  2  0  0  0  0
 33 32  1  0  0  0  0
 33 30  1  0  0  0  0
 33 34  1  0  0  0  0
 35 36  1  0  0  0  0
 37 38  1  1  0  0  0
 37 36  1  0  0  0  0
 39 40  1  6  0  0  0
 39 37  1  0  0  0  0
 41 40  1  0  0  0  0
 43 42  1  1  0  0  0
 43 41  1  0  0  0  0
 44 43  1  0  0  0  0
 45 44  1  0  0  0  0
 45 47  1  0  0  0  0
 46 47  2  0  0  0  0
 46 50  1  0  0  0  0
 47 49  1  0  0  0  0
 49 48  2  0  0  0  0
 50 48  1  0  0  0  0
 51 39  1  0  0  0  0
 53 52  1  6  0  0  0
 53 51  1  0  0  0  0
 53 54  1  0  0  0  0
 54 55  1  1  0  0  0
 56 54  1  0  0  0  0
 57 56  1  0  0  0  0
M  END
>  <MODEL>
7

>  <REMARK>
 VINA RESULT:      -5.2      2.015      3.130
  Name = 
  25 active torsions:
  status: ('A' for Active; 'I' for Inactive)
    1  A    between atoms: C_1  and  C_47
    2  A    between atoms: C_1  and  O_52
    3  A    between atoms: C_2  and  P_48
    4  A    between atoms: C_2  and  C_56
    5  A    between atoms: C_5  and  C_24
    6  A    between atoms: C_5  and  C_43
    7  A    between atoms: C_6  and  N_57
    8  A    between atoms: C_7  and  N_57
    9  A    between atoms: N_9  and  C_15
   10  A    between atoms: N_9  and  C_37
   11  A    between atoms: N_11  and  O_22
   12  A    between atoms: C_15  and  C_21
   13  A    between atoms: N_16  and  C_17
   14  A    between atoms: N_16  and  C_43
   15  A    between atoms: C_17  and  C_18
   16  A    between atoms: C_17  and  C_37
   17  A    between atoms: C_18  and  C_45
   18  A    between atoms: C_21  and  O_39
   19  A    between atoms: O_22  and  C_31
   20  A    between atoms: O_26  and  C_28
   21  A    between atoms: O_26  and  C_45
   22  A    between atoms: C_29  and  O_39
   23  A    between atoms: C_33  and  N_53
   24  A    between atoms: P_34  and  O_52
   25  A    between atoms: C_47  and  N_57
                            x       y       z     vdW  Elec       q    Type
                         _______ _______ _______ _____ _____    ______ ____

>  <TORSDO>
F 25

$$$$
=
 OpenBabel10222417343D

 57 59  0  0  1  0  0  0  0  0999 V2000
  185.3740  177.0650  138.2320 C   0  0  0  0  0  2  0  0  0  0  0  0
  187.6650  178.1350  138.0040 C   0  0  1  0  0  3  0  0  0  0  0  0
  186.2780  178.4170  140.1640 C   0  0  2  0  0  3  0  0  0  0  0  0
  186.8520  176.8410  137.8810 C   0  0  0  0  0  2  0  0  0  0  0  0
  183.6990  178.2710  139.6610 C   0  0  1  0  0  3  0  0  0  0  0  0
  186.0470  179.5680  141.1320 C   0  0  0  0  0  2  0  0  0  0  0  0
  185.2940  179.1170  142.3830 C   0  0  1  0  0  3  0  0  0  0  0  0
  183.8090  178.8520  142.1320 C   0  0  0  0  0  2  0  0  0  0  0  0
  187.6430  178.6030  139.4750 C   0  0  0  0  0  2  0  0  0  0  0  0
  185.1470  178.2820  139.1330 C   0  0  2  0  0  3  0  0  0  0  0  0
  183.5520  177.7540  141.0970 C   0  0  0  0  0  2  0  0  0  0  0  0
  186.2070  177.9110  144.4090 C   0  0  0  0  0  0  0  0  0  0  0  0
  185.9500  178.9050  145.1440 O   0  0  0  0  0  0  0  0  0  0  0  0
  185.9430  177.9670  143.0050 N   0  0  0  0  0  2  0  0  0  0  0  0
  186.7550  176.7460  144.9580 O   0  0  0  0  0  0  0  0  0  0  0  0
  190.0060  177.4590  146.3440 O   0  0  0  0  0  0  0  0  0  0  0  0
  187.8570  176.7590  145.7910 N   0  0  0  0  0  2  0  0  0  0  0  0
  189.1070  177.3910  145.4670 C   0  0  0  0  0  0  0  0  0  0  0  0
  189.3980  177.8800  144.0840 C   0  0  0  0  0  2  0  0  0  0  0  0
  191.5650  176.0150  144.4030 O   0  0  0  0  0  1  0  0  0  0  0  0
  192.0400  178.5460  143.9410 O   0  0  0  0  0  1  0  0  0  0  0  0
  191.0880  177.4230  143.5920 P   0  0  0  0  0  0  0  0  0  0  0  0
  191.1310  177.1450  141.9220 O   0  0  0  0  0  0  0  0  0  0  0  0
  189.0390  177.9370  137.5180 N   0  0  0  0  0  0  0  0  0  0  0  0
  188.9980  177.1020  136.3200 C   0  0  0  0  0  2  0  0  0  0  0  0
  189.0230  177.9110  135.1830 O   0  0  0  0  0  1  0  0  0  0  0  0
  189.7580  177.1440  138.5140 C   0  0  0  0  0  2  0  0  0  0  0  0
  190.7760  176.2420  137.8330 C   0  0  2  0  0  3  0  0  0  0  0  0
  190.4420  174.9170  138.0710 F   0  0  0  0  0  0  0  0  0  0  0  0
  192.0470  176.4980  138.3490 O   0  0  0  0  0  0  0  0  0  0  0  0
  193.9360  174.5270  137.9360 O   0  0  0  0  0  1  0  0  0  0  0  0
  194.1730  176.8850  136.8470 O   0  0  0  0  0  1  0  0  0  0  0  0
  193.1450  175.8440  137.2310 P   0  0  0  0  0  0  0  0  0  0  0  0
  192.3200  175.3240  135.8440 O   0  0  0  0  0  0  0  0  0  0  0  0
  183.0590  179.5160  139.5010 O   0  0  0  0  0  0  0  0  0  0  0  0
  182.6310  179.5750  138.1670 C   0  0  0  0  0  2  0  0  0  0  0  0
  181.1180  179.7250  138.0750 C   0  0  1  0  0  3  0  0  0  0  0  0
  180.6900  180.5060  139.1510 O   0  0  0  0  0  1  0  0  0  0  0  0
  180.7660  180.4050  136.7420 C   0  0  1  0  0  3  0  0  0  0  0  0
  180.0340  179.4530  135.8040 C   0  0  0  0  0  2  0  0  0  0  0  0
  180.9200  179.0010  134.7470 N   0  0  0  0  0  2  0  0  0  0  0  0
  182.4990  177.3280  135.4940 C   0  0  0  0  0  1  0  0  0  0  0  0
  181.1210  177.5670  134.9060 C   0  0  1  0  0  3  0  0  0  0  0  0
  180.0680  176.9960  135.8520 C   0  0  0  0  0  2  0  0  0  0  0  0
  180.4790  175.7180  136.3180 O   0  0  0  0  0  0  0  0  0  0  0  0
  179.2060  175.8050  138.3090 N   0  0  0  0  0  0  0  0  0  0  0  0
  179.9810  175.1710  137.5000 C   0  0  0  0  0  0  0  0  0  0  0  0
  179.5950  173.7150  139.2790 N   0  0  0  0  0  0  0  0  0  0  0  0
  180.2990  173.8050  137.9900 C   0  0  0  0  0  3  0  0  0  0  0  0
  178.9380  174.9580  139.3820 N   0  0  0  0  0  2  0  0  0  0  0  0
  179.9310  181.5830  136.9460 N   0  0  0  0  0  2  0  0  0  0  0  0
  180.1880  183.1380  135.1990 O   0  0  0  0  0  1  0  0  0  0  0  0
  180.6580  182.7610  136.4670 C   0  0  1  0  0  3  0  0  0  0  0  0
  180.5130  183.9300  137.4350 C   0  0  1  0  0  3  0  0  0  0  0  0
  181.6000  184.9710  137.1990 C   0  0  0  0  0  1  0  0  0  0  0  0
  179.1330  184.5560  137.3280 C   0  0  0  0  0  2  0  0  0  0  0  0
  179.1910  186.0270  137.6810 C   0  0  0  0  0  1  0  0  0  0  0  0
  2 24  1  1  0  0  0
  2  9  1  0  0  0  0
  3  9  1  6  0  0  0
  3  6  1  0  0  0  0
  4  2  1  0  0  0  0
  4  1  1  0  0  0  0
  5 35  1  1  0  0  0
  5 11  1  0  0  0  0
  6  7  1  0  0  0  0
  7 14  1  6  0  0  0
  8  7  1  0  0  0  0
 10  1  1  1  0  0  0
 10  5  1  0  0  0  0
 10  3  1  0  0  0  0
 11  8  1  0  0  0  0
 12 15  1  0  0  0  0
 12 13  2  0  0  0  0
 14 12  1  0  0  0  0
 15 17  1  0  0  0  0
 18 17  1  0  0  0  0
 18 16  2  0  0  0  0
 19 18  1  0  0  0  0
 22 21  1  0  0  0  0
 22 19  1  0  0  0  0
 22 20  1  0  0  0  0
 23 22  2  0  0  0  0
 24 27  1  0  0  0  0
 25 24  1  0  0  0  0
 26 25  1  0  0  0  0
 28 29  1  1  0  0  0
 28 30  1  0  0  0  0
 28 27  1  0  0  0  0
 32 33  1  0  0  0  0
 33 31  1  0  0  0  0
 33 30  1  0  0  0  0
 34 33  2  0  0  0  0
 36 35  1  0  0  0  0
 37 36  1  0  0  0  0
 37 38  1  1  0  0  0
 39 40  1  6  0  0  0
 39 51  1  0  0  0  0
 39 37  1  0  0  0  0
 41 43  1  0  0  0  0
 41 40  1  0  0  0  0
 43 42  1  1  0  0  0
 43 44  1  0  0  0  0
 44 45  1  0  0  0  0
 45 47  1  0  0  0  0
 46 50  1  0  0  0  0
 47 49  1  0  0  0  0
 47 46  2  0  0  0  0
 48 50  1  0  0  0  0
 49 48  2  0  0  0  0
 53 52  1  6  0  0  0
 53 51  1  0  0  0  0
 53 54  1  0  0  0  0
 54 55  1  6  0  0  0
 56 54  1  0  0  0  0
 56 57  1  0  0  0  0
M  END
>  <MODEL>
8

>  <REMARK>
 VINA RESULT:      -5.0      4.652     10.824
  Name = 
  25 active torsions:
  status: ('A' for Active; 'I' for Inactive)
    1  A    between atoms: C_1  and  C_47
    2  A    between atoms: C_1  and  O_52
    3  A    between atoms: C_2  and  P_48
    4  A    between atoms: C_2  and  C_56
    5  A    between atoms: C_5  and  C_24
    6  A    between atoms: C_5  and  C_43
    7  A    between atoms: C_6  and  N_57
    8  A    between atoms: C_7  and  N_57
    9  A    between atoms: N_9  and  C_15
   10  A    between atoms: N_9  and  C_37
   11  A    between atoms: N_11  and  O_22
   12  A    between atoms: C_15  and  C_21
   13  A    between atoms: N_16  and  C_17
   14  A    between atoms: N_16  and  C_43
   15  A    between atoms: C_17  and  C_18
   16  A    between atoms: C_17  and  C_37
   17  A    between atoms: C_18  and  C_45
   18  A    between atoms: C_21  and  O_39
   19  A    between atoms: O_22  and  C_31
   20  A    between atoms: O_26  and  C_28
   21  A    between atoms: O_26  and  C_45
   22  A    between atoms: C_29  and  O_39
   23  A    between atoms: C_33  and  N_53
   24  A    between atoms: P_34  and  O_52
   25  A    between atoms: C_47  and  N_57
                            x       y       z     vdW  Elec       q    Type
                         _______ _______ _______ _____ _____    ______ ____

>  <TORSDO>
F 25

$$$$
=
 OpenBabel10222417343D

 57 59  0  0  1  0  0  0  0  0999 V2000
  189.0520  175.0870  137.2790 C   0  0  0  0  0  2  0  0  0  0  0  0
  191.5410  175.1950  136.7900 C   0  0  1  0  0  3  0  0  0  0  0  0
  190.5220  176.4900  138.7780 C   0  0  2  0  0  3  0  0  0  0  0  0
  190.3320  174.2790  137.0180 C   0  0  0  0  0  2  0  0  0  0  0  0
  188.0120  177.1270  138.3080 C   0  0  1  0  0  3  0  0  0  0  0  0
  190.7770  177.8580  139.3930 C   0  0  0  0  0  2  0  0  0  0  0  0
  190.0270  178.0380  140.7120 C   0  0  1  0  0  3  0  0  0  0  0  0
  188.5240  178.2520  140.5280 C   0  0  0  0  0  2  0  0  0  0  0  0
  191.8050  176.0040  138.0780 C   0  0  0  0  0  2  0  0  0  0  0  0
  189.3270  176.4960  137.8110 C   0  0  2  0  0  3  0  0  0  0  0  0
  187.8230  177.0840  139.8300 C   0  0  0  0  0  2  0  0  0  0  0  0
  191.0880  177.1110  142.8110 C   0  0  0  0  0  0  0  0  0  0  0  0
  191.6380  178.2230  143.0500 O   0  0  0  0  0  0  0  0  0  0  0  0
  190.3000  176.9370  141.6300 N   0  0  0  0  0  2  0  0  0  0  0  0
  191.2440  176.0380  143.6950 O   0  0  0  0  0  0  0  0  0  0  0  0
  191.4980  176.7830  147.2140 O   0  0  0  0  0  0  0  0  0  0  0  0
  191.7390  176.1910  144.9760 N   0  0  0  0  0  2  0  0  0  0  0  0
  191.0130  176.8070  146.0530 C   0  0  0  0  0  0  0  0  0  0  0  0
  189.7440  177.5600  145.8090 C   0  0  0  0  0  2  0  0  0  0  0  0
  189.4470  178.5570  148.4910 O   0  0  0  0  0  1  0  0  0  0  0  0
  188.5750  176.1750  147.8490 O   0  0  0  0  0  1  0  0  0  0  0  0
  188.7200  177.5820  147.3120 P   0  0  0  0  0  0  0  0  0  0  0  0
  187.1900  178.2050  146.9400 O   0  0  0  0  0  0  0  0  0  0  0  0
  192.7200  174.4120  136.3900 N   0  0  0  0  0  0  0  0  0  0  0  0
  192.2940  173.0540  136.0610 C   0  0  0  0  0  2  0  0  0  0  0  0
  193.2820  172.1450  136.4450 O   0  0  0  0  0  1  0  0  0  0  0  0
  193.5850  174.2700  137.5610 C   0  0  0  0  0  2  0  0  0  0  0  0
  194.9870  174.7680  137.2430 C   0  0  2  0  0  3  0  0  0  0  0  0
  195.0400  175.1610  135.9140 F   0  0  0  0  0  0  0  0  0  0  0  0
  195.9060  173.7410  137.4600 O   0  0  0  0  0  0  0  0  0  0  0  0
  197.5820  175.8350  136.8000 O   0  0  0  0  0  0  0  0  0  0  0  0
  198.5260  173.5410  137.6040 O   0  0  0  0  0  1  0  0  0  0  0  0
  197.3800  174.5030  137.8210 P   0  0  0  0  0  0  0  0  0  0  0  0
  197.3790  175.0310  139.4330 O   0  0  0  0  0  1  0  0  0  0  0  0
  187.8180  178.4290  137.8080 O   0  0  0  0  0  0  0  0  0  0  0  0
  186.5250  178.4590  137.2650 C   0  0  0  0  0  2  0  0  0  0  0  0
  185.4680  178.2100  138.3320 C   0  0  1  0  0  3  0  0  0  0  0  0
  185.3550  179.3620  139.1130 O   0  0  0  0  0  1  0  0  0  0  0  0
  184.1320  177.8940  137.6420 C   0  0  1  0  0  3  0  0  0  0  0  0
  183.7430  176.4300  137.8170 C   0  0  0  0  0  2  0  0  0  0  0  0
  184.8320  175.5640  137.4060 N   0  0  0  0  0  2  0  0  0  0  0  0
  185.9470  175.4350  135.2640 C   0  0  0  0  0  1  0  0  0  0  0  0
  184.6380  175.2260  136.0030 C   0  0  1  0  0  3  0  0  0  0  0  0
  184.2180  173.7650  135.8730 C   0  0  0  0  0  2  0  0  0  0  0  0
  182.8660  173.6870  135.4420 O   0  0  0  0  0  0  0  0  0  0  0  0
  181.4900  173.8280  137.3600 N   0  0  0  0  0  0  0  0  0  0  0  0
  181.8520  173.2270  136.2810 C   0  0  0  0  0  0  0  0  0  0  0  0
  180.1840  171.8950  137.2190 N   0  0  0  0  0  0  0  0  0  0  0  0
  181.0810  171.9760  136.0560 C   0  0  0  0  0  3  0  0  0  0  0  0
  180.4780  173.0690  137.9440 N   0  0  0  0  0  2  0  0  0  0  0  0
  183.0500  178.7220  138.1640 N   0  0  0  0  0  2  0  0  0  0  0  0
  182.5750  178.1460  140.3940 O   0  0  0  0  0  1  0  0  0  0  0  0
  182.2240  177.9070  139.0560 C   0  0  1  0  0  3  0  0  0  0  0  0
  180.7410  178.2000  138.8560 C   0  0  1  0  0  3  0  0  0  0  0  0
  179.8860  177.0280  139.3250 C   0  0  0  0  0  1  0  0  0  0  0  0
  180.3400  179.4810  139.5670 C   0  0  0  0  0  2  0  0  0  0  0  0
  179.1660  180.1300  138.8630 C   0  0  0  0  0  1  0  0  0  0  0  0
  2 24  1  1  0  0  0
  2  4  1  0  0  0  0
  2  9  1  0  0  0  0
  3  9  1  6  0  0  0
  3  6  1  0  0  0  0
  4  1  1  0  0  0  0
  5 35  1  1  0  0  0
  5 11  1  0  0  0  0
  6  7  1  0  0  0  0
  7 14  1  1  0  0  0
  8  7  1  0  0  0  0
 10  1  1  1  0  0  0
 10  5  1  0  0  0  0
 10  3  1  0  0  0  0
 11  8  1  0  0  0  0
 12 13  2  0  0  0  0
 12 15  1  0  0  0  0
 14 12  1  0  0  0  0
 15 17  1  0  0  0  0
 17 18  1  0  0  0  0
 18 16  2  0  0  0  0
 19 18  1  0  0  0  0
 19 22  1  0  0  0  0
 22 21  1  0  0  0  0
 22 20  1  0  0  0  0
 23 22  2  0  0  0  0
 24 27  1  0  0  0  0
 25 24  1  0  0  0  0
 25 26  1  0  0  0  0
 28 29  1  6  0  0  0
 28 30  1  0  0  0  0
 28 27  1  0  0  0  0
 30 33  1  0  0  0  0
 31 33  2  0  0  0  0
 32 33  1  0  0  0  0
 33 34  1  0  0  0  0
 36 35  1  0  0  0  0
 36 37  1  0  0  0  0
 37 38  1  6  0  0  0
 39 40  1  1  0  0  0
 39 51  1  0  0  0  0
 39 37  1  0  0  0  0
 41 40  1  0  0  0  0
 43 42  1  6  0  0  0
 43 41  1  0  0  0  0
 44 43  1  0  0  0  0
 45 44  1  0  0  0  0
 45 47  1  0  0  0  0
 46 50  1  0  0  0  0
 47 46  2  0  0  0  0
 48 50  1  0  0  0  0
 49 47  1  0  0  0  0
 49 48  2  0  0  0  0
 51 53  1  0  0  0  0
 53 52  1  1  0  0  0
 54 53  1  0  0  0  0
 54 55  1  1  0  0  0
 54 56  1  0  0  0  0
 57 56  1  0  0  0  0
M  END
>  <MODEL>
9

>  <REMARK>
 VINA RESULT:      -5.0      3.934     10.117
  Name = 
  25 active torsions:
  status: ('A' for Active; 'I' for Inactive)
    1  A    between atoms: C_1  and  C_47
    2  A    between atoms: C_1  and  O_52
    3  A    between atoms: C_2  and  P_48
    4  A    between atoms: C_2  and  C_56
    5  A    between atoms: C_5  and  C_24
    6  A    between atoms: C_5  and  C_43
    7  A    between atoms: C_6  and  N_57
    8  A    between atoms: C_7  and  N_57
    9  A    between atoms: N_9  and  C_15
   10  A    between atoms: N_9  and  C_37
   11  A    between atoms: N_11  and  O_22
   12  A    between atoms: C_15  and  C_21
   13  A    between atoms: N_16  and  C_17
   14  A    between atoms: N_16  and  C_43
   15  A    between atoms: C_17  and  C_18
   16  A    between atoms: C_17  and  C_37
   17  A    between atoms: C_18  and  C_45
   18  A    between atoms: C_21  and  O_39
   19  A    between atoms: O_22  and  C_31
   20  A    between atoms: O_26  and  C_28
   21  A    between atoms: O_26  and  C_45
   22  A    between atoms: C_29  and  O_39
   23  A    between atoms: C_33  and  N_53
   24  A    between atoms: P_34  and  O_52
   25  A    between atoms: C_47  and  N_57
                            x       y       z     vdW  Elec       q    Type
                         _______ _______ _______ _____ _____    ______ ____

>  <TORSDO>
F 25

$$$$
