=
 OpenBabel10222419373D

 39 42  0  0  1  0  0  0  0  0999 V2000
  189.7070  177.4810  140.1400 C   0  0  1  0  0  3  0  0  0  0  0  0
  188.0570  177.4120  144.0870 C   0  0  0  0  0  0  0  0  0  0  0  0
  189.9820  177.3240  142.6240 C   0  0  0  0  0  3  0  0  0  0  0  0
  189.9940  177.2080  145.1430 C   0  0  0  0  0  0  0  0  0  0  0  0
  189.1170  177.4450  141.5210 C   0  0  0  0  0  0  0  0  0  0  0  0
  191.4480  177.0820  145.4480 C   0  0  0  0  0  1  0  0  0  0  0  0
  188.9430  177.2520  146.0530 C   0  0  0  0  0  0  0  0  0  0  0  0
  187.7600  177.3780  145.4020 N   0  0  0  0  0  0  0  0  0  0  0  0
  187.1740  177.5400  143.0150 C   0  0  0  0  0  3  0  0  0  0  0  0
  189.0840  177.1840  147.5390 C   0  0  0  0  0  1  0  0  0  0  0  0
  189.4130  177.3110  143.8960 C   0  0  0  0  0  0  0  0  0  0  0  0
  187.7200  177.5590  141.7190 C   0  0  0  0  0  3  0  0  0  0  0  0
  186.4310  177.4360  146.0020 C   0  0  0  0  0  2  0  0  0  0  0  0
  185.8830  178.8590  145.9630 C   0  0  0  0  0  2  0  0  0  0  0  0
  184.4340  179.6310  144.0830 C   0  0  0  0  0  1  0  0  0  0  0  0
  184.4670  178.8970  145.4100 C   0  0  0  0  0  2  0  0  0  0  0  0
  189.2600  178.6680  139.4240 N   0  0  0  0  0  2  0  0  0  0  0  0
  188.7370  178.2330  138.1370 C   0  0  0  0  0  2  0  0  0  0  0  0
  187.2680  177.8490  138.2650 C   0  0  0  0  0  2  0  0  0  0  0  0
  186.8230  176.9510  137.1160 C   0  0  0  0  0  2  0  0  0  0  0  0
  185.5030  177.4170  136.5140 C   0  0  0  0  0  2  0  0  0  0  0  0
  184.3410  175.6840  137.6500 O   0  0  0  0  0  0  0  0  0  0  0  0
  184.3290  176.8880  137.2790 C   0  0  0  0  0  0  0  0  0  0  0  0
  183.1410  177.6670  137.4790 N   0  0  0  0  0  0  0  0  0  0  0  0
  182.9520  178.6480  138.3160 C   0  0  0  0  0  3  0  0  0  0  0  0
  184.6770  180.0430  139.1960 O   0  0  0  0  0  0  0  0  0  0  0  0
  183.9740  178.2860  140.6240 C   0  0  0  0  0  1  0  0  0  0  0  0
  183.8880  179.0780  139.3690 C   0  0  0  0  0  0  0  0  0  0  0  0
  191.2310  177.4510  140.1850 C   0  0  0  0  0  2  0  0  0  0  0  0
  190.2960  173.2170  136.1480 C   0  0  0  0  0  3  0  0  0  0  0  0
  193.1070  176.7610  138.8130 N   0  0  0  0  0  0  0  0  0  0  0  0
  190.9000  175.7340  138.5080 N   0  0  0  0  0  2  0  0  0  0  0  0
  193.9280  176.1810  137.9450 N   0  0  0  0  0  2  0  0  0  0  0  0
  191.7780  176.6020  139.0870 C   0  0  0  0  0  0  0  0  0  0  0  0
  189.8410  174.0520  137.1580 C   0  0  0  0  0  2  0  0  0  0  0  0
  191.6070  173.4280  135.9060 N   0  0  0  0  0  0  0  0  0  0  0  0
  191.9820  174.3940  136.7580 C   0  0  0  0  0  0  0  0  0  0  0  0
  193.5450  174.9860  136.8420 S   0  0  0  0  0  0  0  0  0  0  0  0
  190.9390  174.7950  137.5330 C   0  0  0  0  0  0  0  0  0  0  0  0
  1 29  1  1  0  0  0
  1  5  1  0  0  0  0
  2  8  1  0  0  0  0
  3 11  2  0  0  0  0
  4  6  1  0  0  0  0
  4  7  2  0  0  0  0
  5 12  2  0  0  0  0
  5  3  1  0  0  0  0
  7 10  1  0  0  0  0
  8 13  1  0  0  0  0
  8  7  1  0  0  0  0
  9  2  2  0  0  0  0
 11  2  1  0  0  0  0
 11  4  1  0  0  0  0
 12  9  1  0  0  0  0
 14 13  1  0  0  0  0
 15 16  1  0  0  0  0
 16 14  1  0  0  0  0
 17  1  1  0  0  0  0
 18 19  1  0  0  0  0
 18 17  1  0  0  0  0
 20 19  1  0  0  0  0
 21 20  1  0  0  0  0
 21 23  1  0  0  0  0
 23 24  1  0  0  0  0
 23 22  2  0  0  0  0
 24 25  2  0  0  0  0
 25 28  1  0  0  0  0
 26 28  2  0  0  0  0
 28 27  1  0  0  0  0
 30 35  1  0  0  0  0
 31 34  2  0  0  0  0
 32 34  1  0  0  0  0
 33 31  1  0  0  0  0
 34 29  1  0  0  0  0
 35 39  1  0  0  0  0
 36 30  2  0  0  0  0
 36 37  1  0  0  0  0
 37 38  1  0  0  0  0
 37 39  2  0  0  0  0
 38 33  1  0  0  0  0
 39 32  1  0  0  0  0
M  END
>  <MODEL>
1

>  <REMARK>
 VINA RESULT:      -8.0      0.000      0.000
  Name = 
  14 active torsions:
  status: ('A' for Active; 'I' for Inactive)
    1  A    between atoms: N_1  and  C_11
    2  A    between atoms: N_1  and  C_24
    3  A    between atoms: C_3  and  C_4
    4  A    between atoms: C_3  and  N_29
    5  A    between atoms: C_4  and  C_22
    6  A    between atoms: N_6  and  C_33
    7  A    between atoms: C_7  and  C_24
    8  A    between atoms: C_7  and  C_34
    9  A    between atoms: C_11  and  C_23
   10  A    between atoms: C_11  and  C_39
   11  A    between atoms: C_12  and  C_39
   12  A    between atoms: C_15  and  C_27
   13  A    between atoms: C_33  and  C_37
   14  A    between atoms: C_34  and  C_37
                            x       y       z     vdW  Elec       q    Type
                         _______ _______ _______ _____ _____    ______ ____

>  <TORSDO>
F 14

$$$$
=
 OpenBabel10222419373D

 39 42  0  0  1  0  0  0  0  0999 V2000
  189.4170  177.5750  139.7720 C   0  0  1  0  0  3  0  0  0  0  0  0
  188.0990  177.4210  143.8390 C   0  0  0  0  0  0  0  0  0  0  0  0
  189.8890  177.3070  142.2160 C   0  0  0  0  0  3  0  0  0  0  0  0
  190.1050  177.0900  144.7190 C   0  0  0  0  0  0  0  0  0  0  0  0
  188.9430  177.5100  141.1950 C   0  0  0  0  0  0  0  0  0  0  0  0
  191.5720  176.8880  144.8950 C   0  0  0  0  0  1  0  0  0  0  0  0
  189.1360  177.1440  145.7160 C   0  0  0  0  0  0  0  0  0  0  0  0
  187.9110  177.3470  145.1720 N   0  0  0  0  0  0  0  0  0  0  0  0
  187.1360  177.6310  142.8510 C   0  0  0  0  0  3  0  0  0  0  0  0
  189.3970  177.0100  147.1810 C   0  0  0  0  0  1  0  0  0  0  0  0
  189.4280  177.2680  143.5300 C   0  0  0  0  0  0  0  0  0  0  0  0
  187.5730  177.6770  141.5150 C   0  0  0  0  0  3  0  0  0  0  0  0
  186.6400  177.4390  145.8850 C   0  0  0  0  0  2  0  0  0  0  0  0
  185.9600  178.7750  145.6030 C   0  0  0  0  0  2  0  0  0  0  0  0
  183.6270  179.1050  144.7770 C   0  0  0  0  0  1  0  0  0  0  0  0
  184.4840  178.7390  145.9730 C   0  0  0  0  0  2  0  0  0  0  0  0
  189.0590  178.8530  139.1720 N   0  0  0  0  0  2  0  0  0  0  0  0
  188.6610  178.5950  137.7960 C   0  0  0  0  0  2  0  0  0  0  0  0
  187.4610  177.6560  137.7580 C   0  0  0  0  0  2  0  0  0  0  0  0
  186.1510  178.4270  137.6440 C   0  0  0  0  0  2  0  0  0  0  0  0
  185.1040  177.9070  138.6230 C   0  0  0  0  0  2  0  0  0  0  0  0
  184.5660  180.1840  139.0390 O   0  0  0  0  0  0  0  0  0  0  0  0
  184.5610  179.0050  139.4850 C   0  0  0  0  0  0  0  0  0  0  0  0
  184.1670  178.7770  140.8460 N   0  0  0  0  0  0  0  0  0  0  0  0
  182.9790  178.5080  141.3060 C   0  0  0  0  0  3  0  0  0  0  0  0
  181.0750  179.5970  140.3650 O   0  0  0  0  0  0  0  0  0  0  0  0
  181.1650  177.2520  140.0260 C   0  0  0  0  0  1  0  0  0  0  0  0
  181.7260  178.5330  140.5320 C   0  0  0  0  0  0  0  0  0  0  0  0
  190.9250  177.3670  139.6770 C   0  0  0  0  0  2  0  0  0  0  0  0
  194.5250  175.6490  135.2970 C   0  0  0  0  0  3  0  0  0  0  0  0
  190.3850  175.3150  138.5080 N   0  0  0  0  0  0  0  0  0  0  0  0
  192.3730  176.6120  137.8880 N   0  0  0  0  0  2  0  0  0  0  0  0
  190.3380  174.2640  137.6960 N   0  0  0  0  0  2  0  0  0  0  0  0
  191.2570  176.3580  138.6300 C   0  0  0  0  0  0  0  0  0  0  0  0
  194.1770  176.5380  136.3030 C   0  0  0  0  0  2  0  0  0  0  0  0
  193.6420  174.6310  135.2320 N   0  0  0  0  0  0  0  0  0  0  0  0
  192.7390  174.8720  136.1930 C   0  0  0  0  0  0  0  0  0  0  0  0
  191.4250  173.8790  136.4860 S   0  0  0  0  0  0  0  0  0  0  0  0
  193.0300  176.0190  136.8620 C   0  0  0  0  0  0  0  0  0  0  0  0
  1 29  1  1  0  0  0
  1  5  1  0  0  0  0
  2  8  1  0  0  0  0
  3 11  2  0  0  0  0
  4  6  1  0  0  0  0
  4  7  2  0  0  0  0
  5 12  2  0  0  0  0
  5  3  1  0  0  0  0
  7 10  1  0  0  0  0
  8  7  1  0  0  0  0
  8 13  1  0  0  0  0
  9  2  2  0  0  0  0
 11  2  1  0  0  0  0
 11  4  1  0  0  0  0
 12  9  1  0  0  0  0
 14 13  1  0  0  0  0
 14 16  1  0  0  0  0
 15 16  1  0  0  0  0
 17  1  1  0  0  0  0
 18 17  1  0  0  0  0
 19 18  1  0  0  0  0
 20 19  1  0  0  0  0
 20 21  1  0  0  0  0
 21 23  1  0  0  0  0
 22 23  2  0  0  0  0
 23 24  1  0  0  0  0
 24 25  2  0  0  0  0
 26 28  2  0  0  0  0
 27 28  1  0  0  0  0
 28 25  1  0  0  0  0
 30 35  1  0  0  0  0
 31 34  2  0  0  0  0
 32 34  1  0  0  0  0
 33 31  1  0  0  0  0
 34 29  1  0  0  0  0
 35 39  1  0  0  0  0
 36 30  2  0  0  0  0
 36 37  1  0  0  0  0
 37 38  1  0  0  0  0
 37 39  2  0  0  0  0
 38 33  1  0  0  0  0
 39 32  1  0  0  0  0
M  END
>  <MODEL>
2

>  <REMARK>
 VINA RESULT:      -7.9      1.565      2.246
  Name = 
  14 active torsions:
  status: ('A' for Active; 'I' for Inactive)
    1  A    between atoms: N_1  and  C_11
    2  A    between atoms: N_1  and  C_24
    3  A    between atoms: C_3  and  C_4
    4  A    between atoms: C_3  and  N_29
    5  A    between atoms: C_4  and  C_22
    6  A    between atoms: N_6  and  C_33
    7  A    between atoms: C_7  and  C_24
    8  A    between atoms: C_7  and  C_34
    9  A    between atoms: C_11  and  C_23
   10  A    between atoms: C_11  and  C_39
   11  A    between atoms: C_12  and  C_39
   12  A    between atoms: C_15  and  C_27
   13  A    between atoms: C_33  and  C_37
   14  A    between atoms: C_34  and  C_37
                            x       y       z     vdW  Elec       q    Type
                         _______ _______ _______ _____ _____    ______ ____

>  <TORSDO>
F 14

$$$$
=
 OpenBabel10222419373D

 39 42  0  0  1  0  0  0  0  0999 V2000
  189.1990  177.4780  139.8800 C   0  0  1  0  0  3  0  0  0  0  0  0
  187.9780  177.3370  143.9770 C   0  0  0  0  0  0  0  0  0  0  0  0
  187.5520  178.0040  141.6910 C   0  0  0  0  0  3  0  0  0  0  0  0
  186.0530  178.3920  143.6810 C   0  0  0  0  0  0  0  0  0  0  0  0
  188.7860  177.4340  141.3220 C   0  0  0  0  0  0  0  0  0  0  0  0
  184.8950  179.1070  143.0710 C   0  0  0  0  0  1  0  0  0  0  0  0
  186.2200  178.0450  145.0170 C   0  0  0  0  0  0  0  0  0  0  0  0
  187.3990  177.3990  145.1930 N   0  0  0  0  0  0  0  0  0  0  0  0
  189.2030  176.7580  143.6430 C   0  0  0  0  0  3  0  0  0  0  0  0
  185.2420  178.3270  146.1110 C   0  0  0  0  0  1  0  0  0  0  0  0
  187.1820  177.9350  143.0320 C   0  0  0  0  0  0  0  0  0  0  0  0
  189.6020  176.8100  142.2960 C   0  0  0  0  0  3  0  0  0  0  0  0
  187.9440  176.8970  146.4510 C   0  0  0  0  0  2  0  0  0  0  0  0
  188.4570  178.0460  147.3140 C   0  0  0  0  0  2  0  0  0  0  0  0
  190.5110  176.6350  147.1580 C   0  0  0  0  0  1  0  0  0  0  0  0
  189.7930  177.7070  147.9560 C   0  0  0  0  0  2  0  0  0  0  0  0
  188.7460  178.7130  139.2540 N   0  0  0  0  0  2  0  0  0  0  0  0
  188.3090  178.3870  137.9050 C   0  0  0  0  0  2  0  0  0  0  0  0
  187.1230  177.4300  137.9480 C   0  0  0  0  0  2  0  0  0  0  0  0
  185.8490  178.0970  137.4420 C   0  0  0  0  0  2  0  0  0  0  0  0
  184.6860  177.8930  138.4050 C   0  0  0  0  0  2  0  0  0  0  0  0
  184.9340  179.7710  139.8390 O   0  0  0  0  0  0  0  0  0  0  0  0
  184.2130  179.1920  138.9840 C   0  0  0  0  0  0  0  0  0  0  0  0
  182.9090  179.7190  138.6990 N   0  0  0  0  0  0  0  0  0  0  0  0
  181.7920  179.4860  139.3270 C   0  0  0  0  0  3  0  0  0  0  0  0
  181.7950  178.7680  141.6040 O   0  0  0  0  0  0  0  0  0  0  0  0
  181.2400  177.0940  140.0180 C   0  0  0  0  0  1  0  0  0  0  0  0
  181.5910  178.4900  140.3930 C   0  0  0  0  0  0  0  0  0  0  0  0
  190.7120  177.3500  139.7290 C   0  0  0  0  0  2  0  0  0  0  0  0
  194.4330  175.6750  135.4340 C   0  0  0  0  0  3  0  0  0  0  0  0
  190.1660  175.3490  138.4750 N   0  0  0  0  0  0  0  0  0  0  0  0
  192.2070  176.6130  137.9720 N   0  0  0  0  0  2  0  0  0  0  0  0
  190.1240  174.3250  137.6290 N   0  0  0  0  0  2  0  0  0  0  0  0
  191.0590  176.3650  138.6640 C   0  0  0  0  0  0  0  0  0  0  0  0
  194.0690  176.5420  136.4540 C   0  0  0  0  0  2  0  0  0  0  0  0
  193.5280  174.6830  135.3030 N   0  0  0  0  0  0  0  0  0  0  0  0
  192.5940  174.9170  136.2370 C   0  0  0  0  0  0  0  0  0  0  0  0
  191.2460  173.9500  136.4490 S   0  0  0  0  0  0  0  0  0  0  0  0
  192.8880  176.0360  136.9530 C   0  0  0  0  0  0  0  0  0  0  0  0
  1 29  1  1  0  0  0
  1  5  1  0  0  0  0
  2  8  1  0  0  0  0
  3 11  1  0  0  0  0
  4  7  2  0  0  0  0
  5  3  2  0  0  0  0
  5 12  1  0  0  0  0
  6  4  1  0  0  0  0
  7  8  1  0  0  0  0
  7 10  1  0  0  0  0
  8 13  1  0  0  0  0
  9  2  1  0  0  0  0
 11  4  1  0  0  0  0
 11  2  2  0  0  0  0
 12  9  2  0  0  0  0
 13 14  1  0  0  0  0
 14 16  1  0  0  0  0
 15 16  1  0  0  0  0
 17  1  1  0  0  0  0
 18 19  1  0  0  0  0
 18 17  1  0  0  0  0
 20 19  1  0  0  0  0
 20 21  1  0  0  0  0
 21 23  1  0  0  0  0
 23 22  2  0  0  0  0
 24 23  1  0  0  0  0
 24 25  2  0  0  0  0
 25 28  1  0  0  0  0
 27 28  1  0  0  0  0
 28 26  2  0  0  0  0
 30 35  1  0  0  0  0
 31 34  2  0  0  0  0
 32 34  1  0  0  0  0
 33 31  1  0  0  0  0
 34 29  1  0  0  0  0
 35 39  1  0  0  0  0
 36 30  2  0  0  0  0
 36 37  1  0  0  0  0
 37 38  1  0  0  0  0
 37 39  2  0  0  0  0
 38 33  1  0  0  0  0
 39 32  1  0  0  0  0
M  END
>  <MODEL>
3

>  <REMARK>
 VINA RESULT:      -7.6      1.601      3.219
  Name = 
  14 active torsions:
  status: ('A' for Active; 'I' for Inactive)
    1  A    between atoms: N_1  and  C_11
    2  A    between atoms: N_1  and  C_24
    3  A    between atoms: C_3  and  C_4
    4  A    between atoms: C_3  and  N_29
    5  A    between atoms: C_4  and  C_22
    6  A    between atoms: N_6  and  C_33
    7  A    between atoms: C_7  and  C_24
    8  A    between atoms: C_7  and  C_34
    9  A    between atoms: C_11  and  C_23
   10  A    between atoms: C_11  and  C_39
   11  A    between atoms: C_12  and  C_39
   12  A    between atoms: C_15  and  C_27
   13  A    between atoms: C_33  and  C_37
   14  A    between atoms: C_34  and  C_37
                            x       y       z     vdW  Elec       q    Type
                         _______ _______ _______ _____ _____    ______ ____

>  <TORSDO>
F 14

$$$$
=
 OpenBabel10222419373D

 39 42  0  0  1  0  0  0  0  0999 V2000
  189.7650  177.4640  139.8100 C   0  0  1  0  0  3  0  0  0  0  0  0
  188.4190  177.2820  143.8660 C   0  0  0  0  0  0  0  0  0  0  0  0
  188.0050  177.8440  141.5500 C   0  0  0  0  0  3  0  0  0  0  0  0
  186.4010  178.1080  143.4770 C   0  0  0  0  0  0  0  0  0  0  0  0
  189.3060  177.4080  141.2380 C   0  0  0  0  0  0  0  0  0  0  0  0
  185.1930  178.6740  142.8100 C   0  0  0  0  0  1  0  0  0  0  0  0
  186.5560  177.8120  144.8270 C   0  0  0  0  0  0  0  0  0  0  0  0
  187.7920  177.3060  145.0600 N   0  0  0  0  0  0  0  0  0  0  0  0
  189.7120  176.8360  143.5890 C   0  0  0  0  0  3  0  0  0  0  0  0
  185.5130  178.0070  145.8790 C   0  0  0  0  0  1  0  0  0  0  0  0
  187.5960  177.7650  142.8790 C   0  0  0  0  0  0  0  0  0  0  0  0
  190.1510  176.9010  142.2550 C   0  0  0  0  0  3  0  0  0  0  0  0
  188.3440  176.8970  146.3480 C   0  0  0  0  0  2  0  0  0  0  0  0
  189.3710  177.9110  146.8420 C   0  0  0  0  0  2  0  0  0  0  0  0
  187.8310  177.9320  148.8080 C   0  0  0  0  0  1  0  0  0  0  0  0
  189.2620  178.1290  148.3440 C   0  0  0  0  0  2  0  0  0  0  0  0
  189.1860  178.6160  139.1320 N   0  0  0  0  0  2  0  0  0  0  0  0
  188.7510  178.1760  137.8140 C   0  0  0  0  0  2  0  0  0  0  0  0
  187.5160  177.2910  137.9320 C   0  0  0  0  0  2  0  0  0  0  0  0
  186.3620  177.8270  137.0930 C   0  0  0  0  0  2  0  0  0  0  0  0
  185.3670  176.7290  136.7350 C   0  0  0  0  0  2  0  0  0  0  0  0
  183.1630  177.5510  136.4010 O   0  0  0  0  0  0  0  0  0  0  0  0
  183.9860  177.0550  137.2160 C   0  0  0  0  0  0  0  0  0  0  0  0
  183.6210  176.9510  138.5990 N   0  0  0  0  0  0  0  0  0  0  0  0
  183.4030  177.9140  139.4490 C   0  0  0  0  0  3  0  0  0  0  0  0
  184.7430  179.8880  139.4870 O   0  0  0  0  0  0  0  0  0  0  0  0
  182.5160  180.1940  138.7310 C   0  0  0  0  0  1  0  0  0  0  0  0
  183.6400  179.3480  139.2110 C   0  0  0  0  0  0  0  0  0  0  0  0
  191.2860  177.5230  139.7140 C   0  0  0  0  0  2  0  0  0  0  0  0
  190.1380  172.9550  136.1210 C   0  0  0  0  0  3  0  0  0  0  0  0
  193.1410  176.5440  138.5000 N   0  0  0  0  0  0  0  0  0  0  0  0
  190.8690  175.6620  138.2200 N   0  0  0  0  0  2  0  0  0  0  0  0
  193.9400  175.8100  137.7320 N   0  0  0  0  0  2  0  0  0  0  0  0
  191.7960  176.5180  138.7370 C   0  0  0  0  0  0  0  0  0  0  0  0
  189.7210  173.9280  137.0170 C   0  0  0  0  0  2  0  0  0  0  0  0
  191.4680  173.0370  135.9100 N   0  0  0  0  0  0  0  0  0  0  0  0
  191.8930  174.0580  136.6670 C   0  0  0  0  0  0  0  0  0  0  0  0
  193.4950  174.5340  136.7500 S   0  0  0  0  0  0  0  0  0  0  0  0
  190.8630  174.6210  137.3530 C   0  0  0  0  0  0  0  0  0  0  0  0
  1 29  1  1  0  0  0
  1  5  1  0  0  0  0
  2  8  1  0  0  0  0
  3 11  1  0  0  0  0
  4  7  2  0  0  0  0
  5  3  2  0  0  0  0
  5 12  1  0  0  0  0
  6  4  1  0  0  0  0
  7  8  1  0  0  0  0
  7 10  1  0  0  0  0
  8 13  1  0  0  0  0
  9  2  1  0  0  0  0
 11  4  1  0  0  0  0
 11  2  2  0  0  0  0
 12  9  2  0  0  0  0
 13 14  1  0  0  0  0
 14 16  1  0  0  0  0
 16 15  1  0  0  0  0
 17  1  1  0  0  0  0
 18 19  1  0  0  0  0
 18 17  1  0  0  0  0
 20 19  1  0  0  0  0
 21 20  1  0  0  0  0
 21 23  1  0  0  0  0
 22 23  2  0  0  0  0
 23 24  1  0  0  0  0
 24 25  2  0  0  0  0
 27 28  1  0  0  0  0
 28 25  1  0  0  0  0
 28 26  2  0  0  0  0
 30 35  1  0  0  0  0
 31 34  2  0  0  0  0
 32 34  1  0  0  0  0
 33 31  1  0  0  0  0
 34 29  1  0  0  0  0
 35 39  1  0  0  0  0
 36 30  2  0  0  0  0
 36 37  1  0  0  0  0
 37 38  1  0  0  0  0
 37 39  2  0  0  0  0
 38 33  1  0  0  0  0
 39 32  1  0  0  0  0
M  END
>  <MODEL>
4

>  <REMARK>
 VINA RESULT:      -7.5      0.961      2.396
  Name = 
  14 active torsions:
  status: ('A' for Active; 'I' for Inactive)
    1  A    between atoms: N_1  and  C_11
    2  A    between atoms: N_1  and  C_24
    3  A    between atoms: C_3  and  C_4
    4  A    between atoms: C_3  and  N_29
    5  A    between atoms: C_4  and  C_22
    6  A    between atoms: N_6  and  C_33
    7  A    between atoms: C_7  and  C_24
    8  A    between atoms: C_7  and  C_34
    9  A    between atoms: C_11  and  C_23
   10  A    between atoms: C_11  and  C_39
   11  A    between atoms: C_12  and  C_39
   12  A    between atoms: C_15  and  C_27
   13  A    between atoms: C_33  and  C_37
   14  A    between atoms: C_34  and  C_37
                            x       y       z     vdW  Elec       q    Type
                         _______ _______ _______ _____ _____    ______ ____

>  <TORSDO>
F 14

$$$$
=
 OpenBabel10222419373D

 39 42  0  0  1  0  0  0  0  0999 V2000
  187.6380  178.2960  142.4200 C   0  0  1  0  0  3  0  0  0  0  0  0
  189.8310  177.2630  138.8960 C   0  0  0  0  0  0  0  0  0  0  0  0
  187.8350  178.1590  139.9280 C   0  0  0  0  0  3  0  0  0  0  0  0
  188.2860  177.9340  137.4570 C   0  0  0  0  0  0  0  0  0  0  0  0
  188.4110  177.9190  141.1900 C   0  0  0  0  0  0  0  0  0  0  0  0
  187.0380  178.4850  136.8560 C   0  0  0  0  0  1  0  0  0  0  0  0
  189.3960  177.4350  136.7850 C   0  0  0  0  0  0  0  0  0  0  0  0
  190.3390  177.0260  137.6690 N   0  0  0  0  0  0  0  0  0  0  0  0
  190.4320  177.0180  140.1310 C   0  0  0  0  0  3  0  0  0  0  0  0
  189.5470  177.3640  135.3000 C   0  0  0  0  0  1  0  0  0  0  0  0
  188.5780  177.8170  138.8000 C   0  0  0  0  0  0  0  0  0  0  0  0
  189.7060  177.3560  141.2870 C   0  0  0  0  0  3  0  0  0  0  0  0
  191.6330  176.4260  137.3570 C   0  0  0  0  0  2  0  0  0  0  0  0
  191.6180  174.9290  137.6550 C   0  0  0  0  0  2  0  0  0  0  0  0
  189.6290  173.5900  136.9600 C   0  0  0  0  0  1  0  0  0  0  0  0
  190.9730  174.1420  136.5240 C   0  0  0  0  0  2  0  0  0  0  0  0
  186.4020  178.9760  142.0600 N   0  0  0  0  0  2  0  0  0  0  0  0
  185.2970  178.1190  142.4610 C   0  0  0  0  0  2  0  0  0  0  0  0
  184.0250  178.9400  142.6400 C   0  0  0  0  0  2  0  0  0  0  0  0
  182.9810  178.5920  141.5860 C   0  0  0  0  0  2  0  0  0  0  0  0
  183.6160  177.9660  140.3490 C   0  0  0  0  0  2  0  0  0  0  0  0
  184.4460  179.8980  139.2430 O   0  0  0  0  0  0  0  0  0  0  0  0
  183.6480  178.9240  139.1980 C   0  0  0  0  0  0  0  0  0  0  0  0
  182.7050  178.8450  138.1190 N   0  0  0  0  0  0  0  0  0  0  0  0
  181.7140  179.6490  137.8550 C   0  0  0  0  0  3  0  0  0  0  0  0
  180.6360  180.5300  139.7930 O   0  0  0  0  0  0  0  0  0  0  0  0
  181.3930  182.1500  138.2350 C   0  0  0  0  0  1  0  0  0  0  0  0
  181.2420  180.7500  138.7120 C   0  0  0  0  0  0  0  0  0  0  0  0
  187.3220  177.0750  143.2770 C   0  0  0  0  0  2  0  0  0  0  0  0
  192.0320  176.4370  146.8130 C   0  0  0  0  0  3  0  0  0  0  0  0
  187.0670  177.6540  145.6170 N   0  0  0  0  0  0  0  0  0  0  0  0
  189.2210  176.8470  144.7640 N   0  0  0  0  0  2  0  0  0  0  0  0
  187.2230  177.8740  146.9180 N   0  0  0  0  0  2  0  0  0  0  0  0
  187.9130  177.2130  144.6400 C   0  0  0  0  0  0  0  0  0  0  0  0
  191.4320  176.3550  145.5650 C   0  0  0  0  0  3  0  0  0  0  0  0
  191.1600  176.8940  147.7350 N   0  0  0  0  0  2  0  0  0  0  0  0
  190.0100  177.1020  147.0750 C   0  0  0  0  0  0  0  0  0  0  0  0
  188.6160  177.6580  147.8140 S   0  0  0  0  0  0  0  0  0  0  0  0
  190.1380  176.7850  145.7590 C   0  0  0  0  0  0  0  0  0  0  0  0
  1 29  1  6  0  0  0
  2  9  1  0  0  0  0
  3  5  2  0  0  0  0
  4 11  1  0  0  0  0
  5 12  1  0  0  0  0
  5  1  1  0  0  0  0
  6  4  1  0  0  0  0
  7  4  2  0  0  0  0
  7  8  1  0  0  0  0
  8  2  1  0  0  0  0
  9 12  2  0  0  0  0
 10  7  1  0  0  0  0
 11  2  2  0  0  0  0
 11  3  1  0  0  0  0
 13 14  1  0  0  0  0
 13  8  1  0  0  0  0
 16 15  1  0  0  0  0
 16 14  1  0  0  0  0
 17  1  1  0  0  0  0
 17 18  1  0  0  0  0
 18 19  1  0  0  0  0
 20 19  1  0  0  0  0
 21 20  1  0  0  0  0
 23 22  2  0  0  0  0
 23 21  1  0  0  0  0
 24 23  1  0  0  0  0
 25 24  2  0  0  0  0
 25 28  1  0  0  0  0
 27 28  1  0  0  0  0
 28 26  2  0  0  0  0
 29 34  1  0  0  0  0
 30 36  1  0  0  0  0
 31 33  1  0  0  0  0
 32 39  1  0  0  0  0
 33 38  1  0  0  0  0
 34 32  1  0  0  0  0
 34 31  2  0  0  0  0
 35 39  1  0  0  0  0
 35 30  2  0  0  0  0
 37 36  1  0  0  0  0
 37 38  1  0  0  0  0
 39 37  2  0  0  0  0
M  END
>  <MODEL>
5

>  <REMARK>
 VINA RESULT:      -7.5      2.703      7.661
  Name = 
  14 active torsions:
  status: ('A' for Active; 'I' for Inactive)
    1  A    between atoms: N_1  and  C_11
    2  A    between atoms: N_1  and  C_24
    3  A    between atoms: C_3  and  C_4
    4  A    between atoms: C_3  and  N_29
    5  A    between atoms: C_4  and  C_22
    6  A    between atoms: N_6  and  C_33
    7  A    between atoms: C_7  and  C_24
    8  A    between atoms: C_7  and  C_34
    9  A    between atoms: C_11  and  C_23
   10  A    between atoms: C_11  and  C_39
   11  A    between atoms: C_12  and  C_39
   12  A    between atoms: C_15  and  C_27
   13  A    between atoms: C_33  and  C_37
   14  A    between atoms: C_34  and  C_37
                            x       y       z     vdW  Elec       q    Type
                         _______ _______ _______ _____ _____    ______ ____

>  <TORSDO>
F 14

$$$$
=
 OpenBabel10222419373D

 39 42  0  0  1  0  0  0  0  0999 V2000
  188.6350  177.7860  141.0530 C   0  0  1  0  0  3  0  0  0  0  0  0
  189.7590  177.4410  145.1660 C   0  0  0  0  0  0  0  0  0  0  0  0
  188.0460  177.7490  143.4860 C   0  0  0  0  0  3  0  0  0  0  0  0
  187.7120  177.6530  145.9840 C   0  0  0  0  0  0  0  0  0  0  0  0
  189.0410  177.6770  142.4940 C   0  0  0  0  0  0  0  0  0  0  0  0
  186.2360  177.8280  146.1130 C   0  0  0  0  0  1  0  0  0  0  0  0
  188.6330  177.4810  147.0110 C   0  0  0  0  0  0  0  0  0  0  0  0
  189.8840  177.3500  146.5060 N   0  0  0  0  0  0  0  0  0  0  0  0
  190.7690  177.3580  144.2060 C   0  0  0  0  0  3  0  0  0  0  0  0
  188.3030  177.4310  148.4670 C   0  0  0  0  0  1  0  0  0  0  0  0
  188.4450  177.6260  144.8150 C   0  0  0  0  0  0  0  0  0  0  0  0
  190.3960  177.4760  142.8560 C   0  0  0  0  0  3  0  0  0  0  0  0
  191.1210  177.1750  147.2610 C   0  0  0  0  0  2  0  0  0  0  0  0
  191.6910  175.7770  147.0450 C   0  0  0  0  0  2  0  0  0  0  0  0
  192.9570  176.6070  149.0310 C   0  0  0  0  0  1  0  0  0  0  0  0
  192.7430  175.4360  148.0900 C   0  0  0  0  0  2  0  0  0  0  0  0
  187.8670  179.0030  140.8290 N   0  0  0  0  0  2  0  0  0  0  0  0
  186.4730  178.6170  140.6630 C   0  0  0  0  0  2  0  0  0  0  0  0
  185.6280  179.1780  141.8010 C   0  0  0  0  0  2  0  0  0  0  0  0
  184.4550  178.2620  142.1300 C   0  0  0  0  0  2  0  0  0  0  0  0
  183.4550  178.1930  140.9810 C   0  0  0  0  0  2  0  0  0  0  0  0
  181.8690  178.8840  142.6090 O   0  0  0  0  0  0  0  0  0  0  0  0
  182.1130  178.7240  141.3840 C   0  0  0  0  0  0  0  0  0  0  0  0
  181.0580  178.9190  140.4310 N   0  0  0  0  0  0  0  0  0  0  0  0
  180.0990  178.0970  140.1120 C   0  0  0  0  0  3  0  0  0  0  0  0
  179.3070  176.3860  141.5760 O   0  0  0  0  0  0  0  0  0  0  0  0
  180.7460  175.6450  139.8420 C   0  0  0  0  0  1  0  0  0  0  0  0
  179.9750  176.6980  140.5560 C   0  0  0  0  0  0  0  0  0  0  0  0
  189.8480  177.7670  140.1290 C   0  0  0  0  0  2  0  0  0  0  0  0
  186.4040  175.5680  135.8390 C   0  0  0  0  0  3  0  0  0  0  0  0
  190.6860  175.8800  138.8610 N   0  0  0  0  0  0  0  0  0  0  0  0
  188.4860  176.8390  138.3530 N   0  0  0  0  0  2  0  0  0  0  0  0
  190.8680  174.8620  138.0260 N   0  0  0  0  0  2  0  0  0  0  0  0
  189.6670  176.7720  139.0330 C   0  0  0  0  0  0  0  0  0  0  0  0
  186.6430  176.4840  136.8540 C   0  0  0  0  0  2  0  0  0  0  0  0
  187.4480  174.7240  135.7000 N   0  0  0  0  0  0  0  0  0  0  0  0
  188.3460  175.1040  136.6210 C   0  0  0  0  0  0  0  0  0  0  0  0
  189.8140  174.3320  136.8430 S   0  0  0  0  0  0  0  0  0  0  0  0
  187.8920  176.1650  137.3390 C   0  0  0  0  0  0  0  0  0  0  0  0
  1 29  1  6  0  0  0
  1  5  1  0  0  0  0
  2  8  1  0  0  0  0
  3 11  2  0  0  0  0
  4  6  1  0  0  0  0
  4  7  2  0  0  0  0
  5 12  2  0  0  0  0
  5  3  1  0  0  0  0
  7 10  1  0  0  0  0
  8  7  1  0  0  0  0
  8 13  1  0  0  0  0
  9  2  2  0  0  0  0
 11  2  1  0  0  0  0
 11  4  1  0  0  0  0
 12  9  1  0  0  0  0
 14 13  1  0  0  0  0
 14 16  1  0  0  0  0
 16 15  1  0  0  0  0
 17  1  1  0  0  0  0
 18 17  1  0  0  0  0
 18 19  1  0  0  0  0
 19 20  1  0  0  0  0
 21 23  1  0  0  0  0
 21 20  1  0  0  0  0
 23 22  2  0  0  0  0
 24 23  1  0  0  0  0
 25 24  2  0  0  0  0
 25 28  1  0  0  0  0
 27 28  1  0  0  0  0
 28 26  2  0  0  0  0
 30 35  1  0  0  0  0
 31 34  2  0  0  0  0
 32 34  1  0  0  0  0
 33 31  1  0  0  0  0
 34 29  1  0  0  0  0
 35 39  1  0  0  0  0
 36 30  2  0  0  0  0
 36 37  1  0  0  0  0
 37 38  1  0  0  0  0
 37 39  2  0  0  0  0
 38 33  1  0  0  0  0
 39 32  1  0  0  0  0
M  END
>  <MODEL>
6

>  <REMARK>
 VINA RESULT:      -7.4      2.491      4.351
  Name = 
  14 active torsions:
  status: ('A' for Active; 'I' for Inactive)
    1  A    between atoms: N_1  and  C_11
    2  A    between atoms: N_1  and  C_24
    3  A    between atoms: C_3  and  C_4
    4  A    between atoms: C_3  and  N_29
    5  A    between atoms: C_4  and  C_22
    6  A    between atoms: N_6  and  C_33
    7  A    between atoms: C_7  and  C_24
    8  A    between atoms: C_7  and  C_34
    9  A    between atoms: C_11  and  C_23
   10  A    between atoms: C_11  and  C_39
   11  A    between atoms: C_12  and  C_39
   12  A    between atoms: C_15  and  C_27
   13  A    between atoms: C_33  and  C_37
   14  A    between atoms: C_34  and  C_37
                            x       y       z     vdW  Elec       q    Type
                         _______ _______ _______ _____ _____    ______ ____

>  <TORSDO>
F 14

$$$$
=
 OpenBabel10222419373D

 39 42  0  0  1  0  0  0  0  0999 V2000
  184.2130  179.2840  140.2840 C   0  0  1  0  0  3  0  0  0  0  0  0
  186.1810  177.9900  143.8550 C   0  0  0  0  0  0  0  0  0  0  0  0
  186.2740  178.5510  141.5040 C   0  0  0  0  0  3  0  0  0  0  0  0
  188.1980  177.8120  142.9560 C   0  0  0  0  0  0  0  0  0  0  0  0
  184.8920  178.8180  141.5390 C   0  0  0  0  0  0  0  0  0  0  0  0
  189.3420  177.8260  141.9990 C   0  0  0  0  0  1  0  0  0  0  0  0
  188.2320  177.4740  144.3040 C   0  0  0  0  0  0  0  0  0  0  0  0
  186.9960  177.5850  144.8500 N   0  0  0  0  0  0  0  0  0  0  0  0
  184.8130  178.2520  143.9250 C   0  0  0  0  0  3  0  0  0  0  0  0
  189.4530  177.0570  145.0590 C   0  0  0  0  0  1  0  0  0  0  0  0
  186.8850  178.1380  142.6850 C   0  0  0  0  0  0  0  0  0  0  0  0
  184.1690  178.6740  142.7480 C   0  0  0  0  0  3  0  0  0  0  0  0
  186.6180  177.2960  146.2310 C   0  0  0  0  0  2  0  0  0  0  0  0
  186.9840  178.4620  147.1440 C   0  0  0  0  0  2  0  0  0  0  0  0
  189.0910  178.2660  148.4710 C   0  0  0  0  0  1  0  0  0  0  0  0
  187.6020  177.9760  148.4470 C   0  0  0  0  0  2  0  0  0  0  0  0
  185.1020  179.1400  139.1390 N   0  0  0  0  0  2  0  0  0  0  0  0
  184.4830  178.1990  138.2180 C   0  0  0  0  0  2  0  0  0  0  0  0
  185.5470  177.3570  137.5240 C   0  0  0  0  0  2  0  0  0  0  0  0
  186.9510  177.7600  137.9620 C   0  0  0  0  0  2  0  0  0  0  0  0
  188.0000  176.7650  137.4780 C   0  0  0  0  0  2  0  0  0  0  0  0
  189.2920  178.7080  137.0300 O   0  0  0  0  0  0  0  0  0  0  0  0
  189.1930  177.4590  136.8960 C   0  0  0  0  0  0  0  0  0  0  0  0
  190.1470  176.7680  136.0760 N   0  0  0  0  0  0  0  0  0  0  0  0
  191.1450  176.0220  136.4560 C   0  0  0  0  0  3  0  0  0  0  0  0
  190.9140  175.2660  138.7080 O   0  0  0  0  0  0  0  0  0  0  0  0
  192.9050  176.4690  138.2470 C   0  0  0  0  0  1  0  0  0  0  0  0
  191.6160  175.8480  137.8410 C   0  0  0  0  0  0  0  0  0  0  0  0
  182.9210  178.5140  140.0310 C   0  0  0  0  0  2  0  0  0  0  0  0
  179.9360  183.0270  137.6170 C   0  0  0  0  0  3  0  0  0  0  0  0
  180.9030  179.2620  141.1460 N   0  0  0  0  0  0  0  0  0  0  0  0
  181.6540  180.3460  139.0770 N   0  0  0  0  0  2  0  0  0  0  0  0
  179.7940  179.8840  141.5300 N   0  0  0  0  0  2  0  0  0  0  0  0
  181.7410  179.4260  140.0800 C   0  0  0  0  0  0  0  0  0  0  0  0
  180.9980  182.1340  137.6130 C   0  0  0  0  0  3  0  0  0  0  0  0
  179.1310  182.8090  138.6780 N   0  0  0  0  0  2  0  0  0  0  0  0
  179.6790  181.7810  139.3440 C   0  0  0  0  0  0  0  0  0  0  0  0
  179.0370  181.1570  140.7570 S   0  0  0  0  0  0  0  0  0  0  0  0
  180.8110  181.3470  138.7290 C   0  0  0  0  0  0  0  0  0  0  0  0
  1 29  1  6  0  0  0
  1  5  1  0  0  0  0
  2  9  1  0  0  0  0
  2  8  1  0  0  0  0
  3  5  2  0  0  0  0
  3 11  1  0  0  0  0
  4  7  2  0  0  0  0
  5 12  1  0  0  0  0
  6  4  1  0  0  0  0
  7  8  1  0  0  0  0
  7 10  1  0  0  0  0
  8 13  1  0  0  0  0
 11  4  1  0  0  0  0
 11  2  2  0  0  0  0
 12  9  2  0  0  0  0
 13 14  1  0  0  0  0
 14 16  1  0  0  0  0
 16 15  1  0  0  0  0
 17  1  1  0  0  0  0
 18 17  1  0  0  0  0
 19 20  1  0  0  0  0
 19 18  1  0  0  0  0
 21 20  1  0  0  0  0
 23 22  2  0  0  0  0
 23 21  1  0  0  0  0
 24 25  2  0  0  0  0
 24 23  1  0  0  0  0
 25 28  1  0  0  0  0
 28 27  1  0  0  0  0
 28 26  2  0  0  0  0
 29 34  1  0  0  0  0
 30 36  1  0  0  0  0
 31 33  1  0  0  0  0
 32 34  1  0  0  0  0
 34 31  2  0  0  0  0
 35 30  2  0  0  0  0
 35 39  1  0  0  0  0
 36 37  1  0  0  0  0
 37 38  1  0  0  0  0
 38 33  1  0  0  0  0
 39 32  1  0  0  0  0
 39 37  2  0  0  0  0
M  END
>  <MODEL>
7

>  <REMARK>
 VINA RESULT:      -7.4      3.877      8.107
  Name = 
  14 active torsions:
  status: ('A' for Active; 'I' for Inactive)
    1  A    between atoms: N_1  and  C_11
    2  A    between atoms: N_1  and  C_24
    3  A    between atoms: C_3  and  C_4
    4  A    between atoms: C_3  and  N_29
    5  A    between atoms: C_4  and  C_22
    6  A    between atoms: N_6  and  C_33
    7  A    between atoms: C_7  and  C_24
    8  A    between atoms: C_7  and  C_34
    9  A    between atoms: C_11  and  C_23
   10  A    between atoms: C_11  and  C_39
   11  A    between atoms: C_12  and  C_39
   12  A    between atoms: C_15  and  C_27
   13  A    between atoms: C_33  and  C_37
   14  A    between atoms: C_34  and  C_37
                            x       y       z     vdW  Elec       q    Type
                         _______ _______ _______ _____ _____    ______ ____

>  <TORSDO>
F 14

$$$$
=
 OpenBabel10222419373D

 39 42  0  0  1  0  0  0  0  0999 V2000
  188.2910  177.8730  142.2810 C   0  0  1  0  0  3  0  0  0  0  0  0
  190.0470  177.0250  138.4730 C   0  0  0  0  0  0  0  0  0  0  0  0
  188.2410  177.9660  139.7790 C   0  0  0  0  0  3  0  0  0  0  0  0
  188.4370  177.9510  137.2650 C   0  0  0  0  0  0  0  0  0  0  0  0
  188.9090  177.5600  140.9490 C   0  0  0  0  0  0  0  0  0  0  0  0
  187.1900  178.6530  136.8450 C   0  0  0  0  0  1  0  0  0  0  0  0
  189.4320  177.4360  136.4410 C   0  0  0  0  0  0  0  0  0  0  0  0
  190.4150  176.8710  137.1850 N   0  0  0  0  0  0  0  0  0  0  0  0
  190.7370  176.6140  139.6140 C   0  0  0  0  0  3  0  0  0  0  0  0
  189.4360  177.5010  134.9480 C   0  0  0  0  0  1  0  0  0  0  0  0
  188.8430  177.6800  138.5550 C   0  0  0  0  0  0  0  0  0  0  0  0
  190.1550  176.8920  140.8630 C   0  0  0  0  0  3  0  0  0  0  0  0
  191.6160  176.2060  136.6900 C   0  0  0  0  0  2  0  0  0  0  0  0
  191.5510  174.7060  136.9570 C   0  0  0  0  0  2  0  0  0  0  0  0
  189.3510  173.5280  136.8590 C   0  0  0  0  0  1  0  0  0  0  0  0
  190.5370  174.0220  136.0520 C   0  0  0  0  0  2  0  0  0  0  0  0
  186.9820  178.4870  142.1050 N   0  0  0  0  0  2  0  0  0  0  0  0
  186.0570  177.8110  143.0020 C   0  0  0  0  0  2  0  0  0  0  0  0
  185.2720  178.8290  143.8210 C   0  0  0  0  0  2  0  0  0  0  0  0
  183.8430  178.9750  143.3100 C   0  0  0  0  0  2  0  0  0  0  0  0
  183.6930  178.4310  141.8940 C   0  0  0  0  0  2  0  0  0  0  0  0
  181.4060  179.0140  142.1700 O   0  0  0  0  0  0  0  0  0  0  0  0
  182.3000  178.6200  141.3740 C   0  0  0  0  0  0  0  0  0  0  0  0
  181.9290  178.2340  140.0430 N   0  0  0  0  0  0  0  0  0  0  0  0
  182.1940  178.8460  138.9240 C   0  0  0  0  0  3  0  0  0  0  0  0
  184.0330  180.3630  139.0320 O   0  0  0  0  0  0  0  0  0  0  0  0
  181.9480  181.3430  138.4680 C   0  0  0  0  0  1  0  0  0  0  0  0
  182.8120  180.1760  138.7910 C   0  0  0  0  0  0  0  0  0  0  0  0
  188.1610  176.6220  143.1430 C   0  0  0  0  0  2  0  0  0  0  0  0
  188.3100  178.2560  148.8360 C   0  0  0  0  0  3  0  0  0  0  0  0
  190.2640  176.4060  144.3280 N   0  0  0  0  0  0  0  0  0  0  0  0
  188.2730  177.2620  145.4770 N   0  0  0  0  0  2  0  0  0  0  0  0
  191.2560  176.4140  145.2120 N   0  0  0  0  0  2  0  0  0  0  0  0
  188.9470  176.7600  144.4030 C   0  0  0  0  0  0  0  0  0  0  0  0
  187.6260  178.0800  147.6420 C   0  0  0  0  0  3  0  0  0  0  0  0
  189.5980  177.8750  148.7110 N   0  0  0  0  0  2  0  0  0  0  0  0
  189.7320  177.4580  147.4430 C   0  0  0  0  0  0  0  0  0  0  0  0
  191.1760  176.9010  146.8080 S   0  0  0  0  0  0  0  0  0  0  0  0
  188.5580  177.5690  146.7650 C   0  0  0  0  0  0  0  0  0  0  0  0
  1 29  1  1  0  0  0
  2 11  2  0  0  0  0
  2  9  1  0  0  0  0
  3  5  2  0  0  0  0
  4 11  1  0  0  0  0
  5  1  1  0  0  0  0
  6  4  1  0  0  0  0
  7  8  1  0  0  0  0
  7  4  2  0  0  0  0
  8  2  1  0  0  0  0
  9 12  2  0  0  0  0
 10  7  1  0  0  0  0
 11  3  1  0  0  0  0
 12  5  1  0  0  0  0
 13 14  1  0  0  0  0
 13  8  1  0  0  0  0
 16 15  1  0  0  0  0
 16 14  1  0  0  0  0
 17  1  1  0  0  0  0
 17 18  1  0  0  0  0
 18 19  1  0  0  0  0
 20 19  1  0  0  0  0
 21 20  1  0  0  0  0
 23 21  1  0  0  0  0
 23 22  2  0  0  0  0
 24 23  1  0  0  0  0
 25 24  2  0  0  0  0
 27 28  1  0  0  0  0
 28 25  1  0  0  0  0
 28 26  2  0  0  0  0
 29 34  1  0  0  0  0
 31 34  2  0  0  0  0
 31 33  1  0  0  0  0
 32 39  1  0  0  0  0
 33 38  1  0  0  0  0
 34 32  1  0  0  0  0
 35 30  2  0  0  0  0
 36 30  1  0  0  0  0
 37 36  1  0  0  0  0
 38 37  1  0  0  0  0
 39 37  2  0  0  0  0
 39 35  1  0  0  0  0
M  END
>  <MODEL>
8

>  <REMARK>
 VINA RESULT:      -7.3      2.571      7.884
  Name = 
  14 active torsions:
  status: ('A' for Active; 'I' for Inactive)
    1  A    between atoms: N_1  and  C_11
    2  A    between atoms: N_1  and  C_24
    3  A    between atoms: C_3  and  C_4
    4  A    between atoms: C_3  and  N_29
    5  A    between atoms: C_4  and  C_22
    6  A    between atoms: N_6  and  C_33
    7  A    between atoms: C_7  and  C_24
    8  A    between atoms: C_7  and  C_34
    9  A    between atoms: C_11  and  C_23
   10  A    between atoms: C_11  and  C_39
   11  A    between atoms: C_12  and  C_39
   12  A    between atoms: C_15  and  C_27
   13  A    between atoms: C_33  and  C_37
   14  A    between atoms: C_34  and  C_37
                            x       y       z     vdW  Elec       q    Type
                         _______ _______ _______ _____ _____    ______ ____

>  <TORSDO>
F 14

$$$$
=
 OpenBabel10222419373D

 39 42  0  0  1  0  0  0  0  0999 V2000
  184.9120  179.0370  140.3970 C   0  0  1  0  0  3  0  0  0  0  0  0
  187.3610  177.8770  143.7080 C   0  0  0  0  0  0  0  0  0  0  0  0
  185.2510  178.7000  142.8550 C   0  0  0  0  0  3  0  0  0  0  0  0
  185.8350  178.2580  145.2680 C   0  0  0  0  0  0  0  0  0  0  0  0
  185.7830  178.6400  141.5530 C   0  0  0  0  0  0  0  0  0  0  0  0
  184.5730  178.6260  145.9720 C   0  0  0  0  0  1  0  0  0  0  0  0
  187.0130  177.7890  145.8400 C   0  0  0  0  0  0  0  0  0  0  0  0
  187.9430  177.5560  144.8810 N   0  0  0  0  0  0  0  0  0  0  0  0
  187.9150  177.8000  142.4300 C   0  0  0  0  0  3  0  0  0  0  0  0
  187.2310  177.5570  147.3000 C   0  0  0  0  0  1  0  0  0  0  0  0
  186.0730  178.3090  143.9100 C   0  0  0  0  0  0  0  0  0  0  0  0
  187.1080  178.1850  141.3450 C   0  0  0  0  0  3  0  0  0  0  0  0
  189.3080  177.0810  145.0810 C   0  0  0  0  0  2  0  0  0  0  0  0
  190.2880  178.2500  145.1000 C   0  0  0  0  0  2  0  0  0  0  0  0
  191.3820  176.7240  143.4550 C   0  0  0  0  0  1  0  0  0  0  0  0
  191.2990  178.1490  143.9680 C   0  0  0  0  0  2  0  0  0  0  0  0
  185.6790  179.0520  139.1600 N   0  0  0  0  0  2  0  0  0  0  0  0
  185.1750  177.9770  138.3170 C   0  0  0  0  0  2  0  0  0  0  0  0
  186.1180  177.7350  137.1450 C   0  0  0  0  0  2  0  0  0  0  0  0
  186.0360  176.2950  136.6510 C   0  0  0  0  0  2  0  0  0  0  0  0
  187.1310  175.4270  137.2610 C   0  0  0  0  0  2  0  0  0  0  0  0
  188.8980  174.5300  135.9510 O   0  0  0  0  0  0  0  0  0  0  0  0
  188.4200  175.5530  136.5090 C   0  0  0  0  0  0  0  0  0  0  0  0
  189.1910  176.7630  136.5230 N   0  0  0  0  0  0  0  0  0  0  0  0
  190.1900  177.0720  137.3000 C   0  0  0  0  0  3  0  0  0  0  0  0
  191.2100  175.1730  138.3240 O   0  0  0  0  0  0  0  0  0  0  0  0
  190.3660  176.7990  139.8300 C   0  0  0  0  0  1  0  0  0  0  0  0
  190.6550  176.2940  138.4610 C   0  0  0  0  0  0  0  0  0  0  0  0
  183.7180  178.0980  140.2510 C   0  0  0  0  0  2  0  0  0  0  0  0
  180.0320  182.2410  138.1670 C   0  0  0  0  0  3  0  0  0  0  0  0
  181.6890  178.5380  141.5000 N   0  0  0  0  0  0  0  0  0  0  0  0
  182.1690  179.7720  139.4340 N   0  0  0  0  0  2  0  0  0  0  0  0
  180.5320  178.9970  141.9660 N   0  0  0  0  0  2  0  0  0  0  0  0
  182.4340  178.8430  140.3970 C   0  0  0  0  0  0  0  0  0  0  0  0
  181.2000  181.4980  138.0730 C   0  0  0  0  0  3  0  0  0  0  0  0
  179.3270  181.8880  139.2620 N   0  0  0  0  0  2  0  0  0  0  0  0
  180.0420  180.9240  139.8600 C   0  0  0  0  0  0  0  0  0  0  0  0
  179.5710  180.1800  141.2820 S   0  0  0  0  0  0  0  0  0  0  0  0
  181.1830  180.6620  139.1680 C   0  0  0  0  0  0  0  0  0  0  0  0
  1 29  1  6  0  0  0
  1  5  1  0  0  0  0
  2 11  1  0  0  0  0
  2  8  1  0  0  0  0
  3 11  2  0  0  0  0
  4  7  2  0  0  0  0
  4  6  1  0  0  0  0
  5  3  1  0  0  0  0
  7 10  1  0  0  0  0
  8 13  1  0  0  0  0
  8  7  1  0  0  0  0
  9  2  2  0  0  0  0
 11  4  1  0  0  0  0
 12  5  2  0  0  0  0
 12  9  1  0  0  0  0
 13 14  1  0  0  0  0
 15 16  1  0  0  0  0
 16 14  1  0  0  0  0
 17  1  1  0  0  0  0
 18 17  1  0  0  0  0
 19 18  1  0  0  0  0
 20 19  1  0  0  0  0
 20 21  1  0  0  0  0
 22 23  2  0  0  0  0
 23 24  1  0  0  0  0
 23 21  1  0  0  0  0
 24 25  2  0  0  0  0
 25 28  1  0  0  0  0
 26 28  2  0  0  0  0
 28 27  1  0  0  0  0
 29 34  1  0  0  0  0
 30 36  1  0  0  0  0
 31 33  1  0  0  0  0
 32 34  1  0  0  0  0
 34 31  2  0  0  0  0
 35 30  2  0  0  0  0
 35 39  1  0  0  0  0
 36 37  1  0  0  0  0
 37 38  1  0  0  0  0
 38 33  1  0  0  0  0
 39 32  1  0  0  0  0
 39 37  2  0  0  0  0
M  END
>  <MODEL>
9

>  <REMARK>
 VINA RESULT:      -7.3      3.690      7.752
  Name = 
  14 active torsions:
  status: ('A' for Active; 'I' for Inactive)
    1  A    between atoms: N_1  and  C_11
    2  A    between atoms: N_1  and  C_24
    3  A    between atoms: C_3  and  C_4
    4  A    between atoms: C_3  and  N_29
    5  A    between atoms: C_4  and  C_22
    6  A    between atoms: N_6  and  C_33
    7  A    between atoms: C_7  and  C_24
    8  A    between atoms: C_7  and  C_34
    9  A    between atoms: C_11  and  C_23
   10  A    between atoms: C_11  and  C_39
   11  A    between atoms: C_12  and  C_39
   12  A    between atoms: C_15  and  C_27
   13  A    between atoms: C_33  and  C_37
   14  A    between atoms: C_34  and  C_37
                            x       y       z     vdW  Elec       q    Type
                         _______ _______ _______ _____ _____    ______ ____

>  <TORSDO>
F 14

$$$$
