=
 OpenBabel10222419063D

 50 55  0  0  1  0  0  0  0  0999 V2000
  185.5960  178.4550  141.1440 C   0  0  0  0  0  0  0  0  0  0  0  0
  189.2130  178.0450  140.3570 O   0  0  0  0  0  1  0  0  0  0  0  0
  182.8600  178.8310  140.7120 C   0  0  0  0  0  3  0  0  0  0  0  0
  184.9360  178.4280  146.0130 C   0  0  0  0  0  1  0  0  0  0  0  0
  183.3610  178.7330  142.0160 C   0  0  0  0  0  0  0  0  0  0  0  0
  184.4120  178.5360  144.6200 C   0  0  0  0  0  0  0  0  0  0  0  0
  185.2700  178.4230  143.5140 C   0  0  0  0  0  0  0  0  0  0  0  0
  187.8400  178.2280  140.2250 C   0  0  0  0  0  0  0  0  0  0  0  0
  186.9850  178.2680  141.3520 C   0  0  0  0  0  0  0  0  0  0  0  0
  187.4420  178.1430  142.6910 C   0  0  0  0  0  0  0  0  0  0  0  0
  185.9590  178.5350  138.7770 N   0  0  0  0  0  0  0  0  0  0  0  0
  187.2990  178.3840  138.9450 C   0  0  0  0  0  0  0  0  0  0  0  0
  183.2540  178.7950  138.3880 N   0  0  0  0  0  0  0  0  0  0  0  0
  184.7500  178.5300  142.2060 C   0  0  0  0  0  0  0  0  0  0  0  0
  186.5730  178.2260  143.6940 O   0  0  0  0  0  0  0  0  0  0  0  0
  185.0960  178.5740  139.8270 C   0  0  0  0  0  0  0  0  0  0  0  0
  182.5080  178.8440  143.1350 C   0  0  0  0  0  0  0  0  0  0  0  0
  183.7170  178.7360  139.6050 C   0  0  0  0  0  0  0  0  0  0  0  0
  183.0480  178.7510  144.4270 C   0  0  0  0  0  3  0  0  0  0  0  0
  181.5060  180.3070  137.9720 O   0  0  0  0  0  0  0  0  0  0  0  0
  181.0080  179.3600  134.6610 C   0  0  0  0  0  1  0  0  0  0  0  0
  181.8440  178.9410  138.0340 C   0  0  1  0  0  3  0  0  0  0  0  0
  180.9400  180.5190  136.6960 C   0  0  0  0  0  2  0  0  0  0  0  0
  181.5750  178.3440  136.6770 C   0  0  0  0  0  2  0  0  0  0  0  0
  180.6350  179.2420  136.0630 N   0  0  0  0  0  0  0  0  0  0  0  0
  180.7630  180.4580  143.1480 O   0  0  0  0  0  1  0  0  0  0  0  0
  181.0350  179.1010  142.9620 C   0  0  2  0  0  3  0  0  0  0  0  0
  180.2100  178.2740  143.9290 C   0  0  0  0  0  1  0  0  0  0  0  0
  188.8820  177.9210  143.0370 C   0  0  0  0  0  2  0  0  0  0  0  0
  189.1200  176.4780  143.4330 C   0  0  0  0  0  2  0  0  0  0  0  0
  190.3520  175.9520  142.7180 C   0  0  0  0  0  2  0  0  0  0  0  0
  191.4320  175.6040  143.7280 C   0  0  0  0  0  2  0  0  0  0  0  0
  191.5900  176.6800  144.6970 N   0  0  0  0  0  2  0  0  0  0  0  0
  192.1400  174.7740  145.7090 O   0  0  0  0  0  1  0  0  0  0  0  0
  192.1540  176.1210  145.8570 N   0  0  0  0  0  0  0  0  0  0  0  0
  191.3140  176.4530  147.0160 C   0  0  1  0  0  3  0  0  0  0  0  0
  192.0850  176.9670  148.0630 O   0  0  0  0  0  1  0  0  0  0  0  0
  190.1120  177.3570  146.6870 C   0  0  0  0  0  2  0  0  0  0  0  0
  188.8130  176.8870  147.3300 C   0  0  0  0  0  2  0  0  0  0  0  0
  188.4510  177.7820  148.4690 C   0  0  0  0  0  0  0  0  0  0  0  0
  187.3020  177.7110  148.9830 O   0  0  0  0  0  1  0  0  0  0  0  0
  189.3700  178.6960  148.9690 O   0  0  0  0  0  0  0  0  0  0  0  0
  188.1920  178.3880  137.7520 C   0  0  0  0  0  2  0  0  0  0  0  0
  188.6210  176.4950  136.1570 C   0  0  0  0  0  0  0  0  0  0  0  0
  191.2050  174.3480  137.2800 C   0  0  0  0  0  1  0  0  0  0  0  0
  189.9570  176.3570  136.6380 N   0  0  0  0  0  0  0  0  0  0  0  0
  191.0600  176.7020  137.5820 C   0  0  0  0  0  2  0  0  0  0  0  0
  191.3090  175.7210  136.6430 C   0  0  1  0  0  3  0  0  0  0  0  0
  188.2290  175.7880  135.1910 O   0  0  0  0  0  0  0  0  0  0  0  0
  187.7230  177.4240  136.7700 N   0  0  0  0  0  2  0  0  0  0  0  0
  1  9  1  0  0  0  0
  1 14  2  0  0  0  0
  3  5  2  0  0  0  0
  5 14  1  0  0  0  0
  5 17  1  0  0  0  0
  6  4  1  0  0  0  0
  7 15  1  0  0  0  0
  7  6  2  0  0  0  0
  8  2  1  0  0  0  0
  8  9  1  0  0  0  0
  9 10  2  0  0  0  0
 10 29  1  0  0  0  0
 10 15  1  0  0  0  0
 11 12  1  0  0  0  0
 11 16  2  0  0  0  0
 12  8  2  0  0  0  0
 13 18  2  0  0  0  0
 14  7  1  0  0  0  0
 16  1  1  0  0  0  0
 17 19  2  0  0  0  0
 18 16  1  0  0  0  0
 18  3  1  0  0  0  0
 19  6  1  0  0  0  0
 20 22  1  0  0  0  0
 21 25  1  0  0  0  0
 22 13  1  6  0  0  0
 23 20  1  0  0  0  0
 24 22  1  0  0  0  0
 25 24  1  0  0  0  0
 25 23  1  0  0  0  0
 27 17  1  0  0  0  0
 27 26  1  0  0  0  0
 27 28  1  1  0  0  0
 29 30  1  0  0  0  0
 31 30  1  0  0  0  0
 31 32  1  0  0  0  0
 32 33  1  0  0  0  0
 33 35  1  0  0  0  0
 34 35  1  0  0  0  0
 35 36  1  0  0  0  0
 36 37  1  1  0  0  0
 38 36  1  0  0  0  0
 38 39  1  0  0  0  0
 39 40  1  0  0  0  0
 40 42  2  0  0  0  0
 40 41  1  0  0  0  0
 43 12  1  0  0  0  0
 44 46  1  0  0  0  0
 44 50  1  0  0  0  0
 46 48  1  0  0  0  0
 46 47  1  0  0  0  0
 48 45  1  1  0  0  0
 48 47  1  0  0  0  0
 49 44  2  0  0  0  0
 50 43  1  0  0  0  0
M  END
>  <MODEL>
1

>  <REMARK>
 VINA RESULT:      -9.2      0.000      0.000
  Name = 
  14 active torsions:
  status: ('A' for Active; 'I' for Inactive)
    1  A    between atoms: C_16  and  C_17
    2  A    between atoms: C_16  and  C_24
    3  A    between atoms: C_17  and  C_49
    4  A    between atoms: C_18  and  C_31
    5  A    between atoms: C_18  and  C_34
    6  A    between atoms: N_19  and  C_23
    7  A    between atoms: N_19  and  N_37
    8  A    between atoms: C_23  and  C_49
    9  A    between atoms: C_25  and  C_46
   10  A    between atoms: C_26  and  C_29
   11  A    between atoms: C_26  and  N_47
   12  A    between atoms: C_28  and  C_34
   13  A    between atoms: C_28  and  N_37
   14  A    between atoms: N_30  and  C_32
                            x       y       z     vdW  Elec       q    Type
                         _______ _______ _______ _____ _____    ______ ____

>  <TORSDO>
F 14

$$$$
=
 OpenBabel10222419063D

 50 55  0  0  1  0  0  0  0  0999 V2000
  184.2800  178.5960  140.7950 C   0  0  0  0  0  0  0  0  0  0  0  0
  187.8320  178.0340  139.8260 O   0  0  0  0  0  1  0  0  0  0  0  0
  181.5390  179.0580  140.5010 C   0  0  0  0  0  3  0  0  0  0  0  0
  183.8890  178.7250  145.6910 C   0  0  0  0  0  1  0  0  0  0  0  0
  182.1070  178.9780  141.7780 C   0  0  0  0  0  0  0  0  0  0  0  0
  183.2930  178.8140  144.3260 C   0  0  0  0  0  0  0  0  0  0  0  0
  184.0840  178.6400  143.1790 C   0  0  0  0  0  0  0  0  0  0  0  0
  186.4610  178.2630  139.7630 C   0  0  0  0  0  0  0  0  0  0  0  0
  185.6710  178.3650  140.9330 C   0  0  0  0  0  0  0  0  0  0  0  0
  186.1970  178.2600  142.2480 C   0  0  0  0  0  0  0  0  0  0  0  0
  184.5150  178.5980  138.4100 N   0  0  0  0  0  0  0  0  0  0  0  0
  185.8550  178.4040  138.5100 C   0  0  0  0  0  0  0  0  0  0  0  0
  181.8020  178.9440  138.1620 N   0  0  0  0  0  0  0  0  0  0  0  0
  183.4960  178.7300  141.8990 C   0  0  0  0  0  0  0  0  0  0  0  0
  185.3870  178.4020  143.2940 O   0  0  0  0  0  0  0  0  0  0  0  0
  183.7130  178.6960  139.5040 C   0  0  0  0  0  0  0  0  0  0  0  0
  181.3220  179.1500  142.9380 C   0  0  0  0  0  0  0  0  0  0  0  0
  182.3300  178.9030  139.3520 C   0  0  0  0  0  0  0  0  0  0  0  0
  181.9280  179.0730  144.2010 C   0  0  0  0  0  3  0  0  0  0  0  0
  180.0530  180.4990  137.9630 O   0  0  0  0  0  0  0  0  0  0  0  0
  179.4170  179.8770  134.5990 C   0  0  0  0  0  1  0  0  0  0  0  0
  180.3810  179.1310  137.8800 C   0  0  1  0  0  3  0  0  0  0  0  0
  179.4400  180.8350  136.7370 C   0  0  0  0  0  2  0  0  0  0  0  0
  180.0530  178.6690  136.4840 C   0  0  0  0  0  2  0  0  0  0  0  0
  179.0980  179.6270  135.9970 N   0  0  0  0  0  0  0  0  0  0  0  0
  179.6630  180.8100  142.5580 O   0  0  0  0  0  1  0  0  0  0  0  0
  179.8510  179.4550  142.8380 C   0  0  2  0  0  3  0  0  0  0  0  0
  179.1190  179.0870  144.1140 C   0  0  0  0  0  1  0  0  0  0  0  0
  187.6450  177.9950  142.5220 C   0  0  0  0  0  2  0  0  0  0  0  0
  187.8020  177.0090  143.6610 C   0  0  0  0  0  2  0  0  0  0  0  0
  187.8100  177.7560  144.9830 C   0  0  0  0  0  2  0  0  0  0  0  0
  188.8030  177.1170  145.9370 C   0  0  0  0  0  2  0  0  0  0  0  0
  190.1200  177.7200  145.7840 N   0  0  0  0  0  2  0  0  0  0  0  0
  191.9540  176.9680  146.7970 O   0  0  0  0  0  1  0  0  0  0  0  0
  191.0660  176.6800  145.8150 N   0  0  0  0  0  0  0  0  0  0  0  0
  191.7990  176.6510  144.5430 C   0  0  1  0  0  3  0  0  0  0  0  0
  191.9190  175.3420  144.0640 O   0  0  0  0  0  1  0  0  0  0  0  0
  191.2460  177.6070  143.4710 C   0  0  0  0  0  2  0  0  0  0  0  0
  192.0310  177.5670  142.1660 C   0  0  0  0  0  2  0  0  0  0  0  0
  191.1490  177.1100  141.0500 C   0  0  0  0  0  0  0  0  0  0  0  0
  191.2430  177.6510  139.9150 O   0  0  0  0  0  0  0  0  0  0  0  0
  190.2240  176.0950  141.2520 O   0  0  0  0  0  1  0  0  0  0  0  0
  186.6810  178.3430  137.2710 C   0  0  0  0  0  2  0  0  0  0  0  0
  187.3690  176.3270  135.9400 C   0  0  0  0  0  0  0  0  0  0  0  0
  190.4250  174.9420  137.0760 C   0  0  0  0  0  1  0  0  0  0  0  0
  188.7380  176.5330  136.2840 N   0  0  0  0  0  0  0  0  0  0  0  0
  189.8160  177.2400  137.0360 C   0  0  0  0  0  2  0  0  0  0  0  0
  190.1890  176.1810  136.2320 C   0  0  1  0  0  3  0  0  0  0  0  0
  187.0580  175.4040  135.1410 O   0  0  0  0  0  0  0  0  0  0  0  0
  186.3480  177.1540  136.5030 N   0  0  0  0  0  2  0  0  0  0  0  0
  1  9  1  0  0  0  0
  1 14  2  0  0  0  0
  3  5  2  0  0  0  0
  5 14  1  0  0  0  0
  5 17  1  0  0  0  0
  6  4  1  0  0  0  0
  7 15  1  0  0  0  0
  7  6  2  0  0  0  0
  8  2  1  0  0  0  0
  8  9  1  0  0  0  0
  9 10  2  0  0  0  0
 10 29  1  0  0  0  0
 10 15  1  0  0  0  0
 11 12  1  0  0  0  0
 11 16  2  0  0  0  0
 12  8  2  0  0  0  0
 13 18  2  0  0  0  0
 14  7  1  0  0  0  0
 16  1  1  0  0  0  0
 17 19  2  0  0  0  0
 18 16  1  0  0  0  0
 18  3  1  0  0  0  0
 19  6  1  0  0  0  0
 21 25  1  0  0  0  0
 22 20  1  0  0  0  0
 22 13  1  6  0  0  0
 23 20  1  0  0  0  0
 24 22  1  0  0  0  0
 25 24  1  0  0  0  0
 25 23  1  0  0  0  0
 26 27  1  0  0  0  0
 27 17  1  0  0  0  0
 27 28  1  1  0  0  0
 29 30  1  0  0  0  0
 30 31  1  0  0  0  0
 31 32  1  0  0  0  0
 33 35  1  0  0  0  0
 33 32  1  0  0  0  0
 35 34  1  0  0  0  0
 36 37  1  6  0  0  0
 36 35  1  0  0  0  0
 38 36  1  0  0  0  0
 39 38  1  0  0  0  0
 40 42  1  0  0  0  0
 40 39  1  0  0  0  0
 41 40  2  0  0  0  0
 43 12  1  0  0  0  0
 44 46  1  0  0  0  0
 44 50  1  0  0  0  0
 46 47  1  0  0  0  0
 48 46  1  0  0  0  0
 48 47  1  0  0  0  0
 48 45  1  1  0  0  0
 49 44  2  0  0  0  0
 50 43  1  0  0  0  0
M  END
>  <MODEL>
2

>  <REMARK>
 VINA RESULT:      -8.2      1.625      2.881
  Name = 
  14 active torsions:
  status: ('A' for Active; 'I' for Inactive)
    1  A    between atoms: C_16  and  C_17
    2  A    between atoms: C_16  and  C_24
    3  A    between atoms: C_17  and  C_49
    4  A    between atoms: C_18  and  C_31
    5  A    between atoms: C_18  and  C_34
    6  A    between atoms: N_19  and  C_23
    7  A    between atoms: N_19  and  N_37
    8  A    between atoms: C_23  and  C_49
    9  A    between atoms: C_25  and  C_46
   10  A    between atoms: C_26  and  C_29
   11  A    between atoms: C_26  and  N_47
   12  A    between atoms: C_28  and  C_34
   13  A    between atoms: C_28  and  N_37
   14  A    between atoms: N_30  and  C_32
                            x       y       z     vdW  Elec       q    Type
                         _______ _______ _______ _____ _____    ______ ____

>  <TORSDO>
F 14

$$$$
=
 OpenBabel10222419063D

 50 55  0  0  1  0  0  0  0  0999 V2000
  186.7390  178.3070  142.2410 C   0  0  0  0  0  0  0  0  0  0  0  0
  183.3380  179.5700  141.3960 O   0  0  0  0  0  1  0  0  0  0  0  0
  189.3330  177.3430  141.8510 C   0  0  0  0  0  3  0  0  0  0  0  0
  187.2110  177.9270  147.1170 C   0  0  0  0  0  1  0  0  0  0  0  0
  188.8200  177.4830  143.1460 C   0  0  0  0  0  0  0  0  0  0  0  0
  187.7470  177.7760  145.7320 C   0  0  0  0  0  0  0  0  0  0  0  0
  186.9770  178.1400  144.6150 C   0  0  0  0  0  0  0  0  0  0  0  0
  184.6380  179.0870  141.2850 C   0  0  0  0  0  0  0  0  0  0  0  0
  185.4210  178.7940  142.4270 C   0  0  0  0  0  0  0  0  0  0  0  0
  184.9560  178.9480  143.7600 C   0  0  0  0  0  0  0  0  0  0  0  0
  186.4520  178.4370  139.8650 N   0  0  0  0  0  0  0  0  0  0  0  0
  185.1770  178.8790  140.0110 C   0  0  0  0  0  0  0  0  0  0  0  0
  189.0420  177.5900  139.5250 N   0  0  0  0  0  0  0  0  0  0  0  0
  187.5070  177.9860  143.3160 C   0  0  0  0  0  0  0  0  0  0  0  0
  185.7470  178.6170  144.7770 O   0  0  0  0  0  0  0  0  0  0  0  0
  187.2460  178.1480  140.9310 C   0  0  0  0  0  0  0  0  0  0  0  0
  189.5850  177.1220  144.2760 C   0  0  0  0  0  0  0  0  0  0  0  0
  188.5600  177.6880  140.7320 C   0  0  0  0  0  0  0  0  0  0  0  0
  189.0340  177.2670  145.5590 C   0  0  0  0  0  3  0  0  0  0  0  0
  190.4920  175.7500  139.3570 O   0  0  0  0  0  0  0  0  0  0  0  0
  191.0400  176.0520  135.9350 C   0  0  0  0  0  1  0  0  0  0  0  0
  190.3950  177.1460  139.1960 C   0  0  1  0  0  3  0  0  0  0  0  0
  190.9730  175.2410  138.1320 C   0  0  0  0  0  2  0  0  0  0  0  0
  190.7190  177.4620  137.7580 C   0  0  0  0  0  2  0  0  0  0  0  0
  191.4720  176.3270  137.2970 N   0  0  0  0  0  0  0  0  0  0  0  0
  190.8980  175.3010  143.4960 O   0  0  0  0  0  1  0  0  0  0  0  0
  190.9680  176.5460  144.1230 C   0  0  2  0  0  3  0  0  0  0  0  0
  191.6640  176.4090  145.4630 C   0  0  0  0  0  1  0  0  0  0  0  0
  183.5920  179.4740  144.0860 C   0  0  0  0  0  2  0  0  0  0  0  0
  182.5820  178.3460  144.1370 C   0  0  0  0  0  2  0  0  0  0  0  0
  181.1810  178.9220  144.2430 C   0  0  0  0  0  2  0  0  0  0  0  0
  180.1930  178.0270  143.5170 C   0  0  0  0  0  2  0  0  0  0  0  0
  179.2480  178.8260  142.7500 N   0  0  0  0  0  2  0  0  0  0  0  0
  179.5370  180.9590  142.1830 O   0  0  0  0  0  1  0  0  0  0  0  0
  179.9950  179.7060  141.9470 N   0  0  0  0  0  0  0  0  0  0  0  0
  179.7510  179.4000  140.5320 C   0  0  1  0  0  3  0  0  0  0  0  0
  180.0250  180.5090  139.7250 O   0  0  0  0  0  1  0  0  0  0  0  0
  180.4620  178.1310  140.0280 C   0  0  0  0  0  2  0  0  0  0  0  0
  179.4990  177.0220  139.6240 C   0  0  0  0  0  2  0  0  0  0  0  0
  180.1200  175.6870  139.8720 C   0  0  0  0  0  0  0  0  0  0  0  0
  179.7040  174.9680  140.8210 O   0  0  0  0  0  1  0  0  0  0  0  0
  181.1550  175.2300  139.0680 O   0  0  0  0  0  0  0  0  0  0  0  0
  184.3490  179.1420  138.8000 C   0  0  0  0  0  2  0  0  0  0  0  0
  184.1660  177.1550  137.2750 C   0  0  0  0  0  0  0  0  0  0  0  0
  187.3330  175.9800  136.2080 C   0  0  0  0  0  1  0  0  0  0  0  0
  185.4340  177.4510  136.6910 N   0  0  0  0  0  0  0  0  0  0  0  0
  186.7010  178.2340  136.6230 C   0  0  0  0  0  2  0  0  0  0  0  0
  186.5490  177.1900  135.7330 C   0  0  1  0  0  3  0  0  0  0  0  0
  183.4770  176.2020  136.8210 O   0  0  0  0  0  0  0  0  0  0  0  0
  183.6770  177.9240  138.3760 N   0  0  0  0  0  2  0  0  0  0  0  0
  1  9  1  0  0  0  0
  1 14  2  0  0  0  0
  3  5  2  0  0  0  0
  5 14  1  0  0  0  0
  5 17  1  0  0  0  0
  6  4  1  0  0  0  0
  7 15  1  0  0  0  0
  7  6  2  0  0  0  0
  8  2  1  0  0  0  0
  8  9  1  0  0  0  0
  9 10  2  0  0  0  0
 10 29  1  0  0  0  0
 10 15  1  0  0  0  0
 11 12  1  0  0  0  0
 11 16  2  0  0  0  0
 12  8  2  0  0  0  0
 13 18  2  0  0  0  0
 14  7  1  0  0  0  0
 16  1  1  0  0  0  0
 17 19  2  0  0  0  0
 18 16  1  0  0  0  0
 18  3  1  0  0  0  0
 19  6  1  0  0  0  0
 21 25  1  0  0  0  0
 22 20  1  0  0  0  0
 22 13  1  6  0  0  0
 23 20  1  0  0  0  0
 24 22  1  0  0  0  0
 25 24  1  0  0  0  0
 25 23  1  0  0  0  0
 26 27  1  0  0  0  0
 27 17  1  0  0  0  0
 27 28  1  1  0  0  0
 29 30  1  0  0  0  0
 30 31  1  0  0  0  0
 32 31  1  0  0  0  0
 33 32  1  0  0  0  0
 35 34  1  0  0  0  0
 35 33  1  0  0  0  0
 36 37  1  6  0  0  0
 36 35  1  0  0  0  0
 38 36  1  0  0  0  0
 39 40  1  0  0  0  0
 39 38  1  0  0  0  0
 40 41  1  0  0  0  0
 42 40  2  0  0  0  0
 43 12  1  0  0  0  0
 44 50  1  0  0  0  0
 46 44  1  0  0  0  0
 47 46  1  0  0  0  0
 48 45  1  1  0  0  0
 48 47  1  0  0  0  0
 48 46  1  0  0  0  0
 49 44  2  0  0  0  0
 50 43  1  0  0  0  0
M  END
>  <MODEL>
3

>  <REMARK>
 VINA RESULT:      -7.9      2.611      8.407
  Name = 
  14 active torsions:
  status: ('A' for Active; 'I' for Inactive)
    1  A    between atoms: C_16  and  C_17
    2  A    between atoms: C_16  and  C_24
    3  A    between atoms: C_17  and  C_49
    4  A    between atoms: C_18  and  C_31
    5  A    between atoms: C_18  and  C_34
    6  A    between atoms: N_19  and  C_23
    7  A    between atoms: N_19  and  N_37
    8  A    between atoms: C_23  and  C_49
    9  A    between atoms: C_25  and  C_46
   10  A    between atoms: C_26  and  C_29
   11  A    between atoms: C_26  and  N_47
   12  A    between atoms: C_28  and  C_34
   13  A    between atoms: C_28  and  N_37
   14  A    between atoms: N_30  and  C_32
                            x       y       z     vdW  Elec       q    Type
                         _______ _______ _______ _____ _____    ______ ____

>  <TORSDO>
F 14

$$$$
=
 OpenBabel10222419063D

 50 55  0  0  1  0  0  0  0  0999 V2000
  187.0850  178.1020  140.9400 C   0  0  0  0  0  0  0  0  0  0  0  0
  189.8930  177.1190  138.6990 O   0  0  0  0  0  1  0  0  0  0  0  0
  184.5980  179.1190  141.7110 C   0  0  0  0  0  3  0  0  0  0  0  0
  188.2970  177.2150  145.6180 C   0  0  0  0  0  1  0  0  0  0  0  0
  185.4990  178.6540  142.6760 C   0  0  0  0  0  0  0  0  0  0  0  0
  187.3450  177.7130  144.5820 C   0  0  0  0  0  0  0  0  0  0  0  0
  187.6660  177.6530  143.2170 C   0  0  0  0  0  0  0  0  0  0  0  0
  188.6750  177.6070  139.1620 C   0  0  0  0  0  0  0  0  0  0  0  0
  188.3440  177.5920  140.5380 C   0  0  0  0  0  0  0  0  0  0  0  0
  189.2130  177.1030  141.5500 C   0  0  0  0  0  0  0  0  0  0  0  0
  186.5520  178.5880  138.6540 N   0  0  0  0  0  0  0  0  0  0  0  0
  187.7620  178.1310  138.2420 C   0  0  0  0  0  0  0  0  0  0  0  0
  184.0760  179.4790  139.4410 N   0  0  0  0  0  0  0  0  0  0  0  0
  186.7480  178.1320  142.2570 C   0  0  0  0  0  0  0  0  0  0  0  0
  188.8360  177.1570  142.8250 O   0  0  0  0  0  0  0  0  0  0  0  0
  186.1850  178.5900  139.9640 C   0  0  0  0  0  0  0  0  0  0  0  0
  185.1880  178.7080  144.0510 C   0  0  0  0  0  0  0  0  0  0  0  0
  184.9230  179.0770  140.3460 C   0  0  0  0  0  0  0  0  0  0  0  0
  186.1200  178.2420  144.9910 C   0  0  0  0  0  3  0  0  0  0  0  0
  182.3540  180.9000  138.7120 O   0  0  0  0  0  0  0  0  0  0  0  0
  180.0110  178.3770  138.2120 C   0  0  0  0  0  1  0  0  0  0  0  0
  182.7330  179.9840  139.7140 C   0  0  1  0  0  3  0  0  0  0  0  0
  181.1230  180.4380  138.1990 C   0  0  0  0  0  2  0  0  0  0  0  0
  181.7320  178.8580  139.7030 C   0  0  0  0  0  2  0  0  0  0  0  0
  180.5650  179.4120  139.0700 N   0  0  0  0  0  0  0  0  0  0  0  0
  183.7870  179.1760  145.9140 O   0  0  0  0  0  1  0  0  0  0  0  0
  183.8860  179.2960  144.5270 C   0  0  2  0  0  3  0  0  0  0  0  0
  182.6990  178.6220  143.8660 C   0  0  0  0  0  1  0  0  0  0  0  0
  190.5590  176.5200  141.2500 C   0  0  0  0  0  2  0  0  0  0  0  0
  191.6610  177.4360  141.7410 C   0  0  0  0  0  2  0  0  0  0  0  0
  192.4710  177.9350  140.5580 C   0  0  0  0  0  2  0  0  0  0  0  0
  193.3110  176.8070  139.9870 C   0  0  0  0  0  2  0  0  0  0  0  0
  192.9250  176.5280  138.6110 N   0  0  0  0  0  2  0  0  0  0  0  0
  194.0210  176.8160  136.6940 O   0  0  0  0  0  1  0  0  0  0  0  0
  194.0960  176.2070  137.9020 N   0  0  0  0  0  0  0  0  0  0  0  0
  194.1420  174.7570  137.6690 C   0  0  1  0  0  3  0  0  0  0  0  0
  193.5830  174.4310  136.4290 O   0  0  0  0  0  1  0  0  0  0  0  0
  195.5350  174.1310  137.8560 C   0  0  0  0  0  2  0  0  0  0  0  0
  196.0100  174.1400  139.3040 C   0  0  0  0  0  2  0  0  0  0  0  0
  197.2740  174.9270  139.4250 C   0  0  0  0  0  0  0  0  0  0  0  0
  197.8650  175.3280  138.3860 O   0  0  0  0  0  0  0  0  0  0  0  0
  197.8050  175.2200  140.6730 O   0  0  0  0  0  1  0  0  0  0  0  0
  188.1140  178.1930  136.7950 C   0  0  0  0  0  2  0  0  0  0  0  0
  186.4610  176.8850  135.4300 C   0  0  0  0  0  0  0  0  0  0  0  0
  186.0430  173.5780  136.6280 C   0  0  0  0  0  1  0  0  0  0  0  0
  187.0660  175.6550  135.8260 N   0  0  0  0  0  0  0  0  0  0  0  0
  188.0410  174.8670  136.6350 C   0  0  0  0  0  2  0  0  0  0  0  0
  187.1800  174.1660  135.8140 C   0  0  1  0  0  3  0  0  0  0  0  0
  185.5180  176.8760  134.5940 O   0  0  0  0  0  0  0  0  0  0  0  0
  186.9110  178.1250  135.9810 N   0  0  0  0  0  2  0  0  0  0  0  0
  1 14  2  0  0  0  0
  2  8  1  0  0  0  0
  3  5  2  0  0  0  0
  5 17  1  0  0  0  0
  6 19  1  0  0  0  0
  6  4  1  0  0  0  0
  7  6  2  0  0  0  0
  8  9  1  0  0  0  0
  9  1  1  0  0  0  0
  9 10  2  0  0  0  0
 10 15  1  0  0  0  0
 11 16  2  0  0  0  0
 12 11  1  0  0  0  0
 12  8  2  0  0  0  0
 13 18  2  0  0  0  0
 14  5  1  0  0  0  0
 14  7  1  0  0  0  0
 15  7  1  0  0  0  0
 16 18  1  0  0  0  0
 16  1  1  0  0  0  0
 17 27  1  0  0  0  0
 17 19  2  0  0  0  0
 18  3  1  0  0  0  0
 20 22  1  0  0  0  0
 21 25  1  0  0  0  0
 22 13  1  6  0  0  0
 23 20  1  0  0  0  0
 23 25  1  0  0  0  0
 24 22  1  0  0  0  0
 25 24  1  0  0  0  0
 27 28  1  6  0  0  0
 27 26  1  0  0  0  0
 29 10  1  0  0  0  0
 29 30  1  0  0  0  0
 31 30  1  0  0  0  0
 32 31  1  0  0  0  0
 33 32  1  0  0  0  0
 34 35  1  0  0  0  0
 35 33  1  0  0  0  0
 36 37  1  6  0  0  0
 36 38  1  0  0  0  0
 36 35  1  0  0  0  0
 38 39  1  0  0  0  0
 39 40  1  0  0  0  0
 40 42  1  0  0  0  0
 41 40  2  0  0  0  0
 43 12  1  0  0  0  0
 44 46  1  0  0  0  0
 44 50  1  0  0  0  0
 46 47  1  0  0  0  0
 48 46  1  0  0  0  0
 48 45  1  1  0  0  0
 48 47  1  0  0  0  0
 49 44  2  0  0  0  0
 50 43  1  0  0  0  0
M  END
>  <MODEL>
4

>  <REMARK>
 VINA RESULT:      -7.8      3.129      5.539
  Name = 
  14 active torsions:
  status: ('A' for Active; 'I' for Inactive)
    1  A    between atoms: C_16  and  C_17
    2  A    between atoms: C_16  and  C_24
    3  A    between atoms: C_17  and  C_49
    4  A    between atoms: C_18  and  C_31
    5  A    between atoms: C_18  and  C_34
    6  A    between atoms: N_19  and  C_23
    7  A    between atoms: N_19  and  N_37
    8  A    between atoms: C_23  and  C_49
    9  A    between atoms: C_25  and  C_46
   10  A    between atoms: C_26  and  C_29
   11  A    between atoms: C_26  and  N_47
   12  A    between atoms: C_28  and  C_34
   13  A    between atoms: C_28  and  N_37
   14  A    between atoms: N_30  and  C_32
                            x       y       z     vdW  Elec       q    Type
                         _______ _______ _______ _____ _____    ______ ____

>  <TORSDO>
F 14

$$$$
=
 OpenBabel10222419063D

 50 55  0  0  1  0  0  0  0  0999 V2000
  187.0740  178.2060  141.9460 C   0  0  0  0  0  0  0  0  0  0  0  0
  187.6700  178.0010  138.2750 O   0  0  0  0  0  1  0  0  0  0  0  0
  187.6300  178.1480  144.6840 C   0  0  0  0  0  3  0  0  0  0  0  0
  182.3090  179.0300  142.8180 C   0  0  0  0  0  1  0  0  0  0  0  0
  186.3220  178.3650  144.2350 C   0  0  0  0  0  0  0  0  0  0  0  0
  183.7060  178.7930  143.2870 C   0  0  0  0  0  0  0  0  0  0  0  0
  184.7580  178.6260  142.3720 C   0  0  1  0  0  3  0  0  0  0  0  0
  187.8650  177.9890  139.6520 C   0  0  0  0  0  0  0  0  0  0  0  0
  186.8030  178.2300  140.5550 C   0  0  0  0  0  0  0  0  0  0  0  0
  185.4660  178.4850  140.1470 C   0  0  0  0  0  0  0  0  0  0  0  0
  189.3790  177.7340  141.4890 N   0  0  0  0  0  0  0  0  0  0  0  0
  189.1450  177.7240  140.1510 C   0  0  0  0  0  0  0  0  0  0  0  0
  189.9060  177.7920  144.1830 N   0  0  0  0  0  2  0  0  0  0  0  0
  186.0700  178.4030  142.8420 C   0  0  0  0  0  0  0  0  0  0  0  0
  184.5200  178.6680  141.0640 O   0  0  0  0  0  0  0  0  0  0  0  0
  188.3930  177.9660  142.3960 C   0  0  0  0  0  0  0  0  0  0  0  0
  185.2570  178.5350  145.1450 C   0  0  0  0  0  0  0  0  0  0  0  0
  188.6810  177.9630  143.7720 C   0  0  0  0  0  0  0  0  0  0  0  0
  183.9570  178.7400  144.6580 C   0  0  0  0  0  3  0  0  0  0  0  0
  189.4640  176.9760  146.3410 O   0  0  0  0  0  0  0  0  0  0  0  0
  192.4590  175.2360  146.6720 C   0  0  0  0  0  1  0  0  0  0  0  0
  190.3280  177.7900  145.5810 C   0  0  1  0  0  3  0  0  0  0  0  0
  190.2840  176.0390  147.0060 C   0  0  0  0  0  2  0  0  0  0  0  0
  191.7190  177.2220  145.7120 C   0  0  0  0  0  2  0  0  0  0  0  0
  191.6820  176.4410  146.9190 N   0  0  0  0  0  0  0  0  0  0  0  0
  184.2890  178.1830  147.2880 O   0  0  0  0  0  1  0  0  0  0  0  0
  185.4890  178.4590  146.6310 C   0  0  2  0  0  3  0  0  0  0  0  0
  186.0850  179.7460  147.1660 C   0  0  0  0  0  1  0  0  0  0  0  0
  185.0590  178.5570  138.7070 C   0  0  0  0  0  2  0  0  0  0  0  0
  183.5570  178.7040  138.5830 C   0  0  0  0  0  2  0  0  0  0  0  0
  183.0490  177.8070  137.4680 C   0  0  0  0  0  2  0  0  0  0  0  0
  184.1840  176.9560  136.9260 C   0  0  0  0  0  2  0  0  0  0  0  0
  183.6720  175.6980  136.4000 N   0  0  0  0  0  2  0  0  0  0  0  0
  184.3430  173.9300  135.2240 O   0  0  0  0  0  1  0  0  0  0  0  0
  184.7800  174.9000  136.0650 N   0  0  0  0  0  0  0  0  0  0  0  0
  185.2930  174.2450  137.2750 C   0  0  1  0  0  3  0  0  0  0  0  0
  184.3980  173.2740  137.7360 O   0  0  0  0  0  1  0  0  0  0  0  0
  186.7220  173.6920  137.1380 C   0  0  0  0  0  2  0  0  0  0  0  0
  187.6070  174.5320  136.2250 C   0  0  0  0  0  2  0  0  0  0  0  0
  188.9940  173.9790  136.2020 C   0  0  0  0  0  0  0  0  0  0  0  0
  189.6600  173.9970  135.1320 O   0  0  0  0  0  0  0  0  0  0  0  0
  189.5580  173.4420  137.3520 O   0  0  0  0  0  1  0  0  0  0  0  0
  190.2640  177.4260  139.2130 C   0  0  0  0  0  2  0  0  0  0  0  0
  192.7400  177.0370  139.3810 C   0  0  0  0  0  0  0  0  0  0  0  0
  194.2520  176.6040  136.2060 C   0  0  0  0  0  1  0  0  0  0  0  0
  192.7460  176.3600  138.1240 N   0  0  0  0  0  0  0  0  0  0  0  0
  192.0780  175.9040  136.8710 C   0  0  0  0  0  2  0  0  0  0  0  0
  193.4220  175.6230  137.0160 C   0  0  1  0  0  3  0  0  0  0  0  0
  193.8000  177.1040  140.0590 O   0  0  0  0  0  0  0  0  0  0  0  0
  191.5430  177.6460  139.8700 N   0  0  0  0  0  2  0  0  0  0  0  0
  1 16  1  0  0  0  0
  1 14  2  0  0  0  0
  2  8  1  0  0  0  0
  4  6  1  0  0  0  0
  5  3  1  0  0  0  0
  5 17  2  0  0  0  0
  6 19  2  0  0  0  0
  7 15  1  6  0  0  0
  7 14  1  0  0  0  0
  7  6  1  0  0  0  0
  8 12  2  0  0  0  0
  8  9  1  0  0  0  0
  9  1  1  0  0  0  0
 10  9  2  0  0  0  0
 10 15  1  0  0  0  0
 11 16  2  0  0  0  0
 12 11  1  0  0  0  0
 14  5  1  0  0  0  0
 16 18  1  0  0  0  0
 17 27  1  0  0  0  0
 18 13  1  0  0  0  0
 18  3  2  0  0  0  0
 19 17  1  0  0  0  0
 20 23  1  0  0  0  0
 21 25  1  0  0  0  0
 22 13  1  6  0  0  0
 22 24  1  0  0  0  0
 22 20  1  0  0  0  0
 24 25  1  0  0  0  0
 25 23  1  0  0  0  0
 27 28  1  1  0  0  0
 27 26  1  0  0  0  0
 29 10  1  0  0  0  0
 30 29  1  0  0  0  0
 31 30  1  0  0  0  0
 32 31  1  0  0  0  0
 33 32  1  0  0  0  0
 34 35  1  0  0  0  0
 35 33  1  0  0  0  0
 35 36  1  0  0  0  0
 36 37  1  6  0  0  0
 38 36  1  0  0  0  0
 39 38  1  0  0  0  0
 40 39  1  0  0  0  0
 40 42  1  0  0  0  0
 41 40  2  0  0  0  0
 43 50  1  0  0  0  0
 43 12  1  0  0  0  0
 44 50  1  0  0  0  0
 44 49  2  0  0  0  0
 46 44  1  0  0  0  0
 47 48  1  0  0  0  0
 47 46  1  0  0  0  0
 48 45  1  6  0  0  0
 48 46  1  0  0  0  0
M  END
>  <MODEL>
5

>  <REMARK>
 VINA RESULT:      -7.6      2.485      8.483
  Name = 
  14 active torsions:
  status: ('A' for Active; 'I' for Inactive)
    1  A    between atoms: C_16  and  C_17
    2  A    between atoms: C_16  and  C_24
    3  A    between atoms: C_17  and  C_49
    4  A    between atoms: C_18  and  C_31
    5  A    between atoms: C_18  and  C_34
    6  A    between atoms: N_19  and  C_23
    7  A    between atoms: N_19  and  N_37
    8  A    between atoms: C_23  and  C_49
    9  A    between atoms: C_25  and  C_46
   10  A    between atoms: C_26  and  C_29
   11  A    between atoms: C_26  and  N_47
   12  A    between atoms: C_28  and  C_34
   13  A    between atoms: C_28  and  N_37
   14  A    between atoms: N_30  and  C_32
                            x       y       z     vdW  Elec       q    Type
                         _______ _______ _______ _____ _____    ______ ____

>  <TORSDO>
F 14

$$$$
=
 OpenBabel10222419063D

 50 55  0  0  1  0  0  0  0  0999 V2000
  186.5610  178.2750  142.1120 C   0  0  0  0  0  0  0  0  0  0  0  0
  183.2070  179.4250  140.9700 O   0  0  0  0  0  1  0  0  0  0  0  0
  189.1990  177.3670  141.9520 C   0  0  0  0  0  3  0  0  0  0  0  0
  186.6630  178.0510  147.0190 C   0  0  0  0  0  1  0  0  0  0  0  0
  188.5850  177.5320  143.1990 C   0  0  0  0  0  0  0  0  0  0  0  0
  187.3080  177.8730  145.6850 C   0  0  0  0  0  0  0  0  0  0  0  0
  186.6190  178.1840  144.5020 C   0  0  0  0  0  0  0  0  0  0  0  0
  184.5230  178.9720  140.9740 C   0  0  0  0  0  0  0  0  0  0  0  0
  185.2220  178.7330  142.1810 C   0  0  0  0  0  0  0  0  0  0  0  0
  184.6510  178.9150  143.4700 C   0  0  0  0  0  0  0  0  0  0  0  0
  186.4560  178.3280  139.7180 N   0  0  0  0  0  0  0  0  0  0  0  0
  185.1630  178.7410  139.7520 C   0  0  0  0  0  0  0  0  0  0  0  0
  189.0830  177.5380  139.6040 N   0  0  0  0  0  0  0  0  0  0  0  0
  187.2510  178.0060  143.2520 C   0  0  0  0  0  0  0  0  0  0  0  0
  185.3690  178.6340  144.5540 O   0  0  0  0  0  0  0  0  0  0  0  0
  187.1720  178.0910  140.8500 C   0  0  0  0  0  0  0  0  0  0  0  0
  189.2680  177.2240  144.3960 C   0  0  0  0  0  0  0  0  0  0  0  0
  188.5070  177.6590  140.7670 C   0  0  0  0  0  0  0  0  0  0  0  0
  188.6160  177.3920  145.6270 C   0  0  0  0  0  3  0  0  0  0  0  0
  190.5650  175.7190  139.5090 O   0  0  0  0  0  0  0  0  0  0  0  0
  191.4460  176.1640  136.1720 C   0  0  0  0  0  1  0  0  0  0  0  0
  190.4670  177.1200  139.3940 C   0  0  1  0  0  3  0  0  0  0  0  0
  191.1710  175.2650  138.3180 C   0  0  0  0  0  2  0  0  0  0  0  0
  190.9280  177.4960  138.0090 C   0  0  0  0  0  2  0  0  0  0  0  0
  191.7370  176.3870  137.5800 N   0  0  0  0  0  0  0  0  0  0  0  0
  191.0960  176.3880  145.6640 O   0  0  0  0  0  1  0  0  0  0  0  0
  190.6710  176.6800  144.3670 C   0  0  2  0  0  3  0  0  0  0  0  0
  191.6320  177.6570  143.7180 C   0  0  0  0  0  1  0  0  0  0  0  0
  183.2540  179.4150  143.6730 C   0  0  0  0  0  2  0  0  0  0  0  0
  182.3370  178.2840  144.0920 C   0  0  0  0  0  2  0  0  0  0  0  0
  180.8970  178.7630  144.0690 C   0  0  0  0  0  2  0  0  0  0  0  0
  180.4150  178.9000  142.6360 C   0  0  0  0  0  2  0  0  0  0  0  0
  180.5320  177.6290  141.9340 N   0  0  0  0  0  2  0  0  0  0  0  0
  178.9400  176.3950  140.9840 O   0  0  0  0  0  1  0  0  0  0  0  0
  179.5430  177.6080  140.9350 N   0  0  0  0  0  0  0  0  0  0  0  0
  180.1790  177.7370  139.6170 C   0  0  1  0  0  3  0  0  0  0  0  0
  180.1150  176.5330  138.9090 O   0  0  0  0  0  1  0  0  0  0  0  0
  179.6670  178.9240  138.7820 C   0  0  0  0  0  2  0  0  0  0  0  0
  180.7860  179.7420  138.1490 C   0  0  0  0  0  2  0  0  0  0  0  0
  180.9320  181.0490  138.8570 C   0  0  0  0  0  0  0  0  0  0  0  0
  180.3130  181.2500  139.9360 O   0  0  0  0  0  1  0  0  0  0  0  0
  181.7440  182.0470  138.3350 O   0  0  0  0  0  0  0  0  0  0  0  0
  184.4260  178.9470  138.4740 C   0  0  0  0  0  2  0  0  0  0  0  0
  184.4590  176.9660  136.9300 C   0  0  0  0  0  0  0  0  0  0  0  0
  187.7510  176.0260  136.0170 C   0  0  0  0  0  1  0  0  0  0  0  0
  185.7310  177.3560  136.4130 N   0  0  0  0  0  0  0  0  0  0  0  0
  186.9420  178.2270  136.4130 C   0  0  0  0  0  2  0  0  0  0  0  0
  186.9080  177.1830  135.5110 C   0  0  1  0  0  3  0  0  0  0  0  0
  183.8630  175.9720  136.4360 O   0  0  0  0  0  0  0  0  0  0  0  0
  183.8630  177.6890  138.0090 N   0  0  0  0  0  2  0  0  0  0  0  0
  1  9  1  0  0  0  0
  1 14  2  0  0  0  0
  2  8  1  0  0  0  0
  3  5  2  0  0  0  0
  5 14  1  0  0  0  0
  5 17  1  0  0  0  0
  6  4  1  0  0  0  0
  7 15  1  0  0  0  0
  7  6  2  0  0  0  0
  8  9  1  0  0  0  0
  9 10  2  0  0  0  0
 10 29  1  0  0  0  0
 10 15  1  0  0  0  0
 11 12  1  0  0  0  0
 11 16  2  0  0  0  0
 12  8  2  0  0  0  0
 13 18  2  0  0  0  0
 14  7  1  0  0  0  0
 16  1  1  0  0  0  0
 17 19  2  0  0  0  0
 18 16  1  0  0  0  0
 18  3  1  0  0  0  0
 19  6  1  0  0  0  0
 21 25  1  0  0  0  0
 22 20  1  0  0  0  0
 22 13  1  6  0  0  0
 23 20  1  0  0  0  0
 24 22  1  0  0  0  0
 25 24  1  0  0  0  0
 25 23  1  0  0  0  0
 27 28  1  1  0  0  0
 27 17  1  0  0  0  0
 27 26  1  0  0  0  0
 29 30  1  0  0  0  0
 31 30  1  0  0  0  0
 32 31  1  0  0  0  0
 33 32  1  0  0  0  0
 35 34  1  0  0  0  0
 35 33  1  0  0  0  0
 36 37  1  6  0  0  0
 36 35  1  0  0  0  0
 38 36  1  0  0  0  0
 39 38  1  0  0  0  0
 39 40  1  0  0  0  0
 40 41  1  0  0  0  0
 42 40  2  0  0  0  0
 43 12  1  0  0  0  0
 44 50  1  0  0  0  0
 46 44  1  0  0  0  0
 47 46  1  0  0  0  0
 48 45  1  1  0  0  0
 48 47  1  0  0  0  0
 48 46  1  0  0  0  0
 49 44  2  0  0  0  0
 50 43  1  0  0  0  0
M  END
>  <MODEL>
6

>  <REMARK>
 VINA RESULT:      -7.6      2.409      8.434
  Name = 
  14 active torsions:
  status: ('A' for Active; 'I' for Inactive)
    1  A    between atoms: C_16  and  C_17
    2  A    between atoms: C_16  and  C_24
    3  A    between atoms: C_17  and  C_49
    4  A    between atoms: C_18  and  C_31
    5  A    between atoms: C_18  and  C_34
    6  A    between atoms: N_19  and  C_23
    7  A    between atoms: N_19  and  N_37
    8  A    between atoms: C_23  and  C_49
    9  A    between atoms: C_25  and  C_46
   10  A    between atoms: C_26  and  C_29
   11  A    between atoms: C_26  and  N_47
   12  A    between atoms: C_28  and  C_34
   13  A    between atoms: C_28  and  N_37
   14  A    between atoms: N_30  and  C_32
                            x       y       z     vdW  Elec       q    Type
                         _______ _______ _______ _____ _____    ______ ____

>  <TORSDO>
F 14

$$$$
=
 OpenBabel10222419063D

 50 55  0  0  1  0  0  0  0  0999 V2000
  186.3950  178.3070  139.9230 C   0  0  0  0  0  0  0  0  0  0  0  0
  182.8980  179.1130  140.9200 O   0  0  0  0  0  1  0  0  0  0  0  0
  188.5520  177.6730  138.2620 C   0  0  0  0  0  3  0  0  0  0  0  0
  189.2550  178.0770  143.9120 C   0  0  0  0  0  1  0  0  0  0  0  0
  188.7340  177.7700  139.6470 C   0  0  0  0  0  0  0  0  0  0  0  0
  189.0510  177.9710  142.4370 C   0  0  0  0  0  0  0  0  0  0  0  0
  187.7930  178.2140  141.8620 C   0  0  0  0  0  0  0  0  0  0  0  0
  184.0210  178.7960  140.1620 C   0  0  0  0  0  0  0  0  0  0  0  0
  185.2940  178.6250  140.7560 C   0  0  0  0  0  0  0  0  0  0  0  0
  185.5330  178.7440  142.1510 C   0  0  0  0  0  0  0  0  0  0  0  0
  184.9600  178.3570  138.0040 N   0  0  0  0  0  0  0  0  0  0  0  0
  183.8800  178.6360  138.7790 C   0  0  0  0  0  0  0  0  0  0  0  0
  187.1240  177.8400  136.3950 N   0  0  0  0  0  0  0  0  0  0  0  0
  187.6260  178.1060  140.4640 C   0  0  0  0  0  0  0  0  0  0  0  0
  186.7560  178.5340  142.6300 O   0  0  0  0  0  0  0  0  0  0  0  0
  186.2040  178.1900  138.5270 C   0  0  0  0  0  0  0  0  0  0  0  0
  189.9930  177.5300  140.2360 C   0  0  0  0  0  0  0  0  0  0  0  0
  187.2930  177.8970  137.6860 C   0  0  0  0  0  0  0  0  0  0  0  0
  190.1350  177.6260  141.6290 C   0  0  0  0  0  3  0  0  0  0  0  0
  189.4260  177.5020  136.0750 O   0  0  0  0  0  0  0  0  0  0  0  0
  189.1380  174.2400  134.9000 C   0  0  0  0  0  1  0  0  0  0  0  0
  188.1790  177.5650  135.4220 C   0  0  1  0  0  3  0  0  0  0  0  0
  189.9940  176.2580  135.7270 C   0  0  0  0  0  2  0  0  0  0  0  0
  187.9480  176.2350  134.7530 C   0  0  0  0  0  2  0  0  0  0  0  0
  189.2600  175.6620  134.6180 N   0  0  0  0  0  0  0  0  0  0  0  0
  191.1010  175.7740  139.0780 O   0  0  0  0  0  1  0  0  0  0  0  0
  191.1770  177.1310  139.3960 C   0  0  2  0  0  3  0  0  0  0  0  0
  192.4850  177.4210  140.1070 C   0  0  0  0  0  1  0  0  0  0  0  0
  184.4560  179.0970  143.1300 C   0  0  0  0  0  2  0  0  0  0  0  0
  185.0560  179.5820  144.4330 C   0  0  0  0  0  2  0  0  0  0  0  0
  184.6830  178.6260  145.5510 C   0  0  0  0  0  2  0  0  0  0  0  0
  185.6590  178.7670  146.7060 C   0  0  0  0  0  2  0  0  0  0  0  0
  186.7740  177.8440  146.5490 N   0  0  0  0  0  2  0  0  0  0  0  0
  187.0230  178.8100  148.5390 O   0  0  0  0  0  1  0  0  0  0  0  0
  187.4220  177.7510  147.7930 N   0  0  0  0  0  0  0  0  0  0  0  0
  188.8730  177.8650  147.5950 C   0  0  1  0  0  3  0  0  0  0  0  0
  189.4480  178.6880  148.5690 O   0  0  0  0  0  1  0  0  0  0  0  0
  189.6030  176.5150  147.4790 C   0  0  0  0  0  2  0  0  0  0  0  0
  190.8180  176.5650  146.5610 C   0  0  0  0  0  2  0  0  0  0  0  0
  192.0510  176.1990  147.3200 C   0  0  0  0  0  0  0  0  0  0  0  0
  192.7780  175.2510  146.9160 O   0  0  0  0  0  0  0  0  0  0  0  0
  192.4040  176.8920  148.4700 O   0  0  0  0  0  1  0  0  0  0  0  0
  182.5380  178.7700  138.1460 C   0  0  0  0  0  2  0  0  0  0  0  0
  181.8320  176.5050  137.3210 C   0  0  0  0  0  0  0  0  0  0  0  0
  179.0330  175.2410  139.0860 C   0  0  0  0  0  1  0  0  0  0  0  0
  181.2280  176.2050  138.5780 N   0  0  0  0  0  0  0  0  0  0  0  0
  180.7930  176.5830  139.9540 C   0  0  0  0  0  2  0  0  0  0  0  0
  180.4870  175.3100  139.5160 C   0  0  1  0  0  3  0  0  0  0  0  0
  181.8680  175.6250  136.4200 O   0  0  0  0  0  0  0  0  0  0  0  0
  182.3890  177.7980  137.0740 N   0  0  0  0  0  2  0  0  0  0  0  0
  1 14  2  0  0  0  0
  1  9  1  0  0  0  0
  3  5  2  0  0  0  0
  5 17  1  0  0  0  0
  5 14  1  0  0  0  0
  6  4  1  0  0  0  0
  7  6  2  0  0  0  0
  7 15  1  0  0  0  0
  8  9  1  0  0  0  0
  8  2  1  0  0  0  0
  9 10  2  0  0  0  0
 10 15  1  0  0  0  0
 10 29  1  0  0  0  0
 11 16  2  0  0  0  0
 11 12  1  0  0  0  0
 12  8  2  0  0  0  0
 13 18  2  0  0  0  0
 14  7  1  0  0  0  0
 16  1  1  0  0  0  0
 17 19  2  0  0  0  0
 18  3  1  0  0  0  0
 18 16  1  0  0  0  0
 19  6  1  0  0  0  0
 22 20  1  0  0  0  0
 22 13  1  1  0  0  0
 23 20  1  0  0  0  0
 24 22  1  0  0  0  0
 25 24  1  0  0  0  0
 25 21  1  0  0  0  0
 25 23  1  0  0  0  0
 26 27  1  0  0  0  0
 27 28  1  1  0  0  0
 27 17  1  0  0  0  0
 29 30  1  0  0  0  0
 30 31  1  0  0  0  0
 31 32  1  0  0  0  0
 33 32  1  0  0  0  0
 33 35  1  0  0  0  0
 35 34  1  0  0  0  0
 36 35  1  0  0  0  0
 36 37  1  1  0  0  0
 38 36  1  0  0  0  0
 39 40  1  0  0  0  0
 39 38  1  0  0  0  0
 40 42  1  0  0  0  0
 41 40  2  0  0  0  0
 43 12  1  0  0  0  0
 44 46  1  0  0  0  0
 46 48  1  0  0  0  0
 46 47  1  0  0  0  0
 48 45  1  6  0  0  0
 48 47  1  0  0  0  0
 49 44  2  0  0  0  0
 50 44  1  0  0  0  0
 50 43  1  0  0  0  0
M  END
>  <MODEL>
7

>  <REMARK>
 VINA RESULT:      -7.4      2.192      6.702
  Name = 
  14 active torsions:
  status: ('A' for Active; 'I' for Inactive)
    1  A    between atoms: C_16  and  C_17
    2  A    between atoms: C_16  and  C_24
    3  A    between atoms: C_17  and  C_49
    4  A    between atoms: C_18  and  C_31
    5  A    between atoms: C_18  and  C_34
    6  A    between atoms: N_19  and  C_23
    7  A    between atoms: N_19  and  N_37
    8  A    between atoms: C_23  and  C_49
    9  A    between atoms: C_25  and  C_46
   10  A    between atoms: C_26  and  C_29
   11  A    between atoms: C_26  and  N_47
   12  A    between atoms: C_28  and  C_34
   13  A    between atoms: C_28  and  N_37
   14  A    between atoms: N_30  and  C_32
                            x       y       z     vdW  Elec       q    Type
                         _______ _______ _______ _____ _____    ______ ____

>  <TORSDO>
F 14

$$$$
=
 OpenBabel10222419063D

 50 55  0  0  1  0  0  0  0  0999 V2000
  186.6940  178.3800  141.9820 C   0  0  0  0  0  0  0  0  0  0  0  0
  186.8960  178.2710  138.2640 O   0  0  0  0  0  1  0  0  0  0  0  0
  187.5470  178.3070  144.6420 C   0  0  0  0  0  3  0  0  0  0  0  0
  182.0140  178.9140  143.3810 C   0  0  0  0  0  1  0  0  0  0  0  0
  186.1880  178.4560  144.3420 C   0  0  0  0  0  0  0  0  0  0  0  0
  183.4650  178.7490  143.6910 C   0  0  0  0  0  0  0  0  0  0  0  0
  184.4180  178.6590  142.6640 C   0  0  1  0  0  3  0  0  0  0  0  0
  187.2410  178.2480  139.6120 C   0  0  0  0  0  0  0  0  0  0  0  0
  186.2720  178.4120  140.6290 C   0  0  0  0  0  0  0  0  0  0  0  0
  184.8870  178.5960  140.3730 C   0  0  0  0  0  0  0  0  0  0  0  0
  188.9580  178.0490  141.2680 N   0  0  0  0  0  0  0  0  0  0  0  0
  188.5800  178.0480  139.9640 C   0  0  0  0  0  0  0  0  0  0  0  0
  189.7710  178.0920  143.8900 N   0  0  0  0  0  2  0  0  0  0  0  0
  185.7840  178.5030  142.9850 C   0  0  0  0  0  0  0  0  0  0  0  0
  184.0380  178.7090  141.3910 O   0  0  0  0  0  0  0  0  0  0  0  0
  188.0650  178.2090  142.2820 C   0  0  0  0  0  0  0  0  0  0  0  0
  185.2200  178.5490  145.3650 C   0  0  0  0  0  0  0  0  0  0  0  0
  188.5010  178.1980  143.6180 C   0  0  0  0  0  0  0  0  0  0  0  0
  183.8660  178.6880  145.0260 C   0  0  0  0  0  3  0  0  0  0  0  0
  189.4510  177.4690  146.1330 O   0  0  0  0  0  0  0  0  0  0  0  0
  192.1500  175.2770  146.2710 C   0  0  0  0  0  1  0  0  0  0  0  0
  190.3430  178.0900  145.2350 C   0  0  1  0  0  3  0  0  0  0  0  0
  190.1820  176.4450  146.7720 C   0  0  0  0  0  2  0  0  0  0  0  0
  191.6310  177.3080  145.2600 C   0  0  0  0  0  2  0  0  0  0  0  0
  191.6070  176.6050  146.5140 N   0  0  0  0  0  0  0  0  0  0  0  0
  184.5100  178.1150  147.5920 O   0  0  0  0  0  1  0  0  0  0  0  0
  185.6170  178.4610  146.8150 C   0  0  2  0  0  3  0  0  0  0  0  0
  186.2040  179.7690  147.3100 C   0  0  0  0  0  1  0  0  0  0  0  0
  184.3220  178.6690  138.9880 C   0  0  0  0  0  2  0  0  0  0  0  0
  182.8990  178.1510  138.9620 C   0  0  0  0  0  2  0  0  0  0  0  0
  182.6690  177.3620  137.6860 C   0  0  0  0  0  2  0  0  0  0  0  0
  183.9740  177.2070  136.9250 C   0  0  0  0  0  2  0  0  0  0  0  0
  184.0790  175.8710  136.3570 N   0  0  0  0  0  2  0  0  0  0  0  0
  186.2900  175.6970  136.1690 O   0  0  0  0  0  1  0  0  0  0  0  0
  185.2300  175.2720  136.8980 N   0  0  0  0  0  0  0  0  0  0  0  0
  185.1380  173.8140  136.7470 C   0  0  1  0  0  3  0  0  0  0  0  0
  185.3700  173.1690  137.9660 O   0  0  0  0  0  1  0  0  0  0  0  0
  183.8410  173.3280  136.0760 C   0  0  0  0  0  2  0  0  0  0  0  0
  183.0730  172.3150  136.9160 C   0  0  0  0  0  2  0  0  0  0  0  0
  181.6150  172.3830  136.5970 C   0  0  0  0  0  0  0  0  0  0  0  0
  180.9460  173.3960  136.9340 O   0  0  0  0  0  1  0  0  0  0  0  0
  180.9890  171.3370  135.9320 O   0  0  0  0  0  0  0  0  0  0  0  0
  189.6050  177.8300  138.9040 C   0  0  0  0  0  2  0  0  0  0  0  0
  190.4550  175.6510  137.9900 C   0  0  0  0  0  0  0  0  0  0  0  0
  191.6230  175.9510  134.6590 C   0  0  0  0  0  1  0  0  0  0  0  0
  190.2050  176.0820  136.6530 N   0  0  0  0  0  0  0  0  0  0  0  0
  189.8060  177.1180  135.6570 C   0  0  0  0  0  2  0  0  0  0  0  0
  190.1960  175.8850  135.1730 C   0  0  1  0  0  3  0  0  0  0  0  0
  190.8640  174.4780  138.2010 O   0  0  0  0  0  0  0  0  0  0  0  0
  190.2550  176.5420  139.0900 N   0  0  0  0  0  2  0  0  0  0  0  0
  1 16  1  0  0  0  0
  1 14  2  0  0  0  0
  2  8  1  0  0  0  0
  4  6  1  0  0  0  0
  5  3  1  0  0  0  0
  5 17  2  0  0  0  0
  6 19  2  0  0  0  0
  7 15  1  6  0  0  0
  7 14  1  0  0  0  0
  7  6  1  0  0  0  0
  8 12  2  0  0  0  0
  8  9  1  0  0  0  0
  9  1  1  0  0  0  0
 10  9  2  0  0  0  0
 10 15  1  0  0  0  0
 11 16  2  0  0  0  0
 12 11  1  0  0  0  0
 14  5  1  0  0  0  0
 16 18  1  0  0  0  0
 17 27  1  0  0  0  0
 18 13  1  0  0  0  0
 18  3  2  0  0  0  0
 19 17  1  0  0  0  0
 20 23  1  0  0  0  0
 21 25  1  0  0  0  0
 22 13  1  6  0  0  0
 22 24  1  0  0  0  0
 22 20  1  0  0  0  0
 24 25  1  0  0  0  0
 25 23  1  0  0  0  0
 27 28  1  1  0  0  0
 27 26  1  0  0  0  0
 29 10  1  0  0  0  0
 30 29  1  0  0  0  0
 31 30  1  0  0  0  0
 32 31  1  0  0  0  0
 33 35  1  0  0  0  0
 33 32  1  0  0  0  0
 34 35  1  0  0  0  0
 36 35  1  0  0  0  0
 36 37  1  1  0  0  0
 38 36  1  0  0  0  0
 38 39  1  0  0  0  0
 40 39  1  0  0  0  0
 40 41  1  0  0  0  0
 42 40  2  0  0  0  0
 43 50  1  0  0  0  0
 43 12  1  0  0  0  0
 44 49  2  0  0  0  0
 44 50  1  0  0  0  0
 46 44  1  0  0  0  0
 47 46  1  0  0  0  0
 48 45  1  6  0  0  0
 48 47  1  0  0  0  0
 48 46  1  0  0  0  0
M  END
>  <MODEL>
8

>  <REMARK>
 VINA RESULT:      -7.4      2.971      8.529
  Name = 
  14 active torsions:
  status: ('A' for Active; 'I' for Inactive)
    1  A    between atoms: C_16  and  C_17
    2  A    between atoms: C_16  and  C_24
    3  A    between atoms: C_17  and  C_49
    4  A    between atoms: C_18  and  C_31
    5  A    between atoms: C_18  and  C_34
    6  A    between atoms: N_19  and  C_23
    7  A    between atoms: N_19  and  N_37
    8  A    between atoms: C_23  and  C_49
    9  A    between atoms: C_25  and  C_46
   10  A    between atoms: C_26  and  C_29
   11  A    between atoms: C_26  and  N_47
   12  A    between atoms: C_28  and  C_34
   13  A    between atoms: C_28  and  N_37
   14  A    between atoms: N_30  and  C_32
                            x       y       z     vdW  Elec       q    Type
                         _______ _______ _______ _____ _____    ______ ____

>  <TORSDO>
F 14

$$$$
=
 OpenBabel10222419063D

 50 55  0  0  1  0  0  0  0  0999 V2000
  187.9370  177.7920  140.3570 C   0  0  0  0  0  0  0  0  0  0  0  0
  185.0230  179.0140  138.3840 O   0  0  0  0  0  1  0  0  0  0  0  0
  190.4750  176.7460  140.8830 C   0  0  0  0  0  3  0  0  0  0  0  0
  186.8800  177.9350  145.1530 C   0  0  0  0  0  1  0  0  0  0  0  0
  189.5990  177.0350  141.9370 C   0  0  0  0  0  0  0  0  0  0  0  0
  187.8040  177.6250  144.0230 C   0  0  0  0  0  0  0  0  0  0  0  0
  187.4310  177.8790  142.6940 C   0  0  0  0  0  0  0  0  0  0  0  0
  186.2690  178.4990  138.7280 C   0  0  0  0  0  0  0  0  0  0  0  0
  186.6510  178.3180  140.0790 C   0  0  0  0  0  0  0  0  0  0  0  0
  185.8090  178.6240  141.1820 C   0  0  0  0  0  0  0  0  0  0  0  0
  188.3950  177.6680  138.0080 N   0  0  0  0  0  0  0  0  0  0  0  0
  187.1590  178.1450  137.7090 C   0  0  0  0  0  0  0  0  0  0  0  0
  190.9200  176.7450  138.5680 N   0  0  0  0  0  0  0  0  0  0  0  0
  188.3240  177.5760  141.6430 C   0  0  0  0  0  0  0  0  0  0  0  0
  186.2350  178.3920  142.4200 O   0  0  0  0  0  0  0  0  0  0  0  0
  188.8110  177.4830  139.2890 C   0  0  0  0  0  0  0  0  0  0  0  0
  189.9640  176.7860  143.2770 C   0  0  0  0  0  0  0  0  0  0  0  0
  190.0980  176.9810  139.5520 C   0  0  0  0  0  0  0  0  0  0  0  0
  189.0560  177.0780  144.3060 C   0  0  0  0  0  3  0  0  0  0  0  0
  192.3340  174.8800  138.3710 O   0  0  0  0  0  0  0  0  0  0  0  0
  194.3770  176.2540  135.9120 C   0  0  0  0  0  1  0  0  0  0  0  0
  192.2840  176.2450  138.7180 C   0  0  1  0  0  3  0  0  0  0  0  0
  193.3350  174.7580  137.3830 C   0  0  0  0  0  2  0  0  0  0  0  0
  193.2220  176.9830  137.7960 C   0  0  0  0  0  2  0  0  0  0  0  0
  194.1320  175.9770  137.3190 N   0  0  0  0  0  0  0  0  0  0  0  0
  191.2630  174.7980  143.3770 O   0  0  0  0  0  1  0  0  0  0  0  0
  191.2970  176.1730  143.6150 C   0  0  2  0  0  3  0  0  0  0  0  0
  191.6790  176.4370  145.0580 C   0  0  0  0  0  1  0  0  0  0  0  0
  184.4390  179.2050  141.0170 C   0  0  0  0  0  2  0  0  0  0  0  0
  183.3870  178.2550  141.5520 C   0  0  0  0  0  2  0  0  0  0  0  0
  182.0640  178.9860  141.6870 C   0  0  0  0  0  2  0  0  0  0  0  0
  181.2460  178.8250  140.4180 C   0  0  0  0  0  2  0  0  0  0  0  0
  180.9340  180.1250  139.8430 N   0  0  0  0  0  2  0  0  0  0  0  0
  182.5810  181.1540  138.7530 O   0  0  0  0  0  1  0  0  0  0  0  0
  181.6120  180.2160  138.6150 N   0  0  0  0  0  0  0  0  0  0  0  0
  180.6830  180.6840  137.5780 C   0  0  1  0  0  3  0  0  0  0  0  0
  179.4460  180.0410  137.6880 O   0  0  0  0  0  1  0  0  0  0  0  0
  180.5320  182.2140  137.5070 C   0  0  0  0  0  2  0  0  0  0  0  0
  180.7670  182.7770  136.1110 C   0  0  0  0  0  2  0  0  0  0  0  0
  181.1880  184.2080  136.1990 C   0  0  0  0  0  0  0  0  0  0  0  0
  180.7700  185.0380  135.3470 O   0  0  0  0  0  0  0  0  0  0  0  0
  182.0390  184.6320  137.2100 O   0  0  0  0  0  1  0  0  0  0  0  0
  186.7550  178.2890  136.2820 C   0  0  0  0  0  2  0  0  0  0  0  0
  186.7820  175.9710  135.3160 C   0  0  0  0  0  0  0  0  0  0  0  0
  183.5250  174.7630  134.6230 C   0  0  0  0  0  1  0  0  0  0  0  0
  185.4540  175.7310  135.7820 N   0  0  0  0  0  0  0  0  0  0  0  0
  184.1810  176.1790  136.4170 C   0  0  0  0  0  2  0  0  0  0  0  0
  184.2410  174.8790  135.9560 C   0  0  1  0  0  3  0  0  0  0  0  0
  187.4230  175.0430  134.7550 O   0  0  0  0  0  0  0  0  0  0  0  0
  187.3850  177.2570  135.4740 N   0  0  0  0  0  2  0  0  0  0  0  0
  1 14  2  0  0  0  0
  2  8  1  0  0  0  0
  3  5  2  0  0  0  0
  5 17  1  0  0  0  0
  6 19  1  0  0  0  0
  6  4  1  0  0  0  0
  7  6  2  0  0  0  0
  8  9  1  0  0  0  0
  9  1  1  0  0  0  0
  9 10  2  0  0  0  0
 10 15  1  0  0  0  0
 11 16  2  0  0  0  0
 12 11  1  0  0  0  0
 12  8  2  0  0  0  0
 13 18  2  0  0  0  0
 14  5  1  0  0  0  0
 14  7  1  0  0  0  0
 15  7  1  0  0  0  0
 16 18  1  0  0  0  0
 16  1  1  0  0  0  0
 17 27  1  0  0  0  0
 17 19  2  0  0  0  0
 18  3  1  0  0  0  0
 20 22  1  0  0  0  0
 21 25  1  0  0  0  0
 22 13  1  6  0  0  0
 23 20  1  0  0  0  0
 24 22  1  0  0  0  0
 25 23  1  0  0  0  0
 25 24  1  0  0  0  0
 26 27  1  0  0  0  0
 27 28  1  1  0  0  0
 29 10  1  0  0  0  0
 29 30  1  0  0  0  0
 30 31  1  0  0  0  0
 32 31  1  0  0  0  0
 33 32  1  0  0  0  0
 35 34  1  0  0  0  0
 35 33  1  0  0  0  0
 36 37  1  1  0  0  0
 36 35  1  0  0  0  0
 38 36  1  0  0  0  0
 39 40  1  0  0  0  0
 39 38  1  0  0  0  0
 40 42  1  0  0  0  0
 41 40  2  0  0  0  0
 43 12  1  0  0  0  0
 44 50  1  0  0  0  0
 44 46  1  0  0  0  0
 46 48  1  0  0  0  0
 46 47  1  0  0  0  0
 48 45  1  6  0  0  0
 48 47  1  0  0  0  0
 49 44  2  0  0  0  0
 50 43  1  0  0  0  0
M  END
>  <MODEL>
9

>  <REMARK>
 VINA RESULT:      -7.4      2.900      9.418
  Name = 
  14 active torsions:
  status: ('A' for Active; 'I' for Inactive)
    1  A    between atoms: C_16  and  C_17
    2  A    between atoms: C_16  and  C_24
    3  A    between atoms: C_17  and  C_49
    4  A    between atoms: C_18  and  C_31
    5  A    between atoms: C_18  and  C_34
    6  A    between atoms: N_19  and  C_23
    7  A    between atoms: N_19  and  N_37
    8  A    between atoms: C_23  and  C_49
    9  A    between atoms: C_25  and  C_46
   10  A    between atoms: C_26  and  C_29
   11  A    between atoms: C_26  and  N_47
   12  A    between atoms: C_28  and  C_34
   13  A    between atoms: C_28  and  N_37
   14  A    between atoms: N_30  and  C_32
                            x       y       z     vdW  Elec       q    Type
                         _______ _______ _______ _____ _____    ______ ____

>  <TORSDO>
F 14

$$$$
