=
 OpenBabel10222415303D

 31 34  0  0  0  0  0  0  0  0999 V2000
  186.5790  178.2560  143.6500 C   0  0  0  0  0  0  0  0  0  0  0  0
  189.4280  178.0080  141.1880 C   0  0  0  0  0  0  0  0  0  0  0  0
  189.3770  177.8370  143.6320 C   0  0  0  0  0  0  0  0  0  0  0  0
  187.2260  178.0600  144.8790 C   0  0  0  0  0  0  0  0  0  0  0  0
  190.8940  177.8150  143.6250 C   0  0  0  0  0  2  0  0  0  0  0  0
  189.0990  178.2790  147.1470 O   0  0  0  0  0  0  0  0  0  0  0  0
  191.4970  177.4250  142.3030 C   0  0  0  0  0  3  0  0  0  0  0  0
  185.1990  178.4670  143.6000 C   0  0  0  0  0  3  0  0  0  0  0  0
  190.8300  177.5410  141.1550 C   0  0  0  0  0  0  0  0  0  0  0  0
  184.4420  178.4790  144.7820 C   0  0  0  0  0  0  0  0  0  0  0  0
  186.4620  178.0620  146.0570 C   0  0  0  0  0  3  0  0  0  0  0  0
  187.3220  178.2310  142.4700 O   0  0  0  0  0  0  0  0  0  0  0  0
  185.0800  178.2720  146.0070 C   0  0  0  0  0  3  0  0  0  0  0  0
  189.3420  177.5710  146.1320 C   0  0  0  0  0  0  0  0  0  0  0  0
  188.6550  177.8300  144.8900 N   0  0  0  0  0  0  0  0  0  0  0  0
  188.8470  178.3910  140.1380 O   0  0  0  0  0  0  0  0  0  0  0  0
  188.7080  178.0260  142.4720 C   0  0  0  0  0  0  0  0  0  0  0  0
  190.9960  176.3740  138.8950 C   0  0  0  0  0  0  0  0  0  0  0  0
  191.5070  177.2150  139.9350 N   0  0  0  0  0  2  0  0  0  0  0  0
  190.0110  175.6140  139.1050 O   0  0  0  0  0  0  0  0  0  0  0  0
  193.2040  176.3590  137.7600 C   0  0  0  0  0  2  0  0  0  0  0  0
  193.8860  176.2480  136.3990 C   0  0  0  0  0  2  0  0  0  0  0  0
  193.4700  175.0170  135.7280 N   0  0  0  0  0  2  0  0  0  0  0  0
  192.0390  175.1030  135.4440 C   0  0  0  0  0  2  0  0  0  0  0  0
  191.2470  175.1470  136.7490 C   0  0  0  0  0  2  0  0  0  0  0  0
  191.6880  176.3560  137.5730 C   0  0  0  0  0  3  0  0  0  0  0  0
  183.0600  178.6900  144.7660 O   0  0  0  0  0  0  0  0  0  0  0  0
  182.3540  179.0600  143.5900 C   0  0  0  0  0  1  0  0  0  0  0  0
  190.2640  176.3940  146.2560 C   0  0  0  0  0  2  0  0  0  0  0  0
  191.3610  176.6270  147.2860 C   0  0  0  0  0  2  0  0  0  0  0  0
  192.4020  175.6240  147.1510 N   0  0  0  0  0  1  0  0  0  0  0  0
  1  4  1  0  0  0  0
  2 17  1  0  0  0  0
  3 15  1  0  0  0  0
  4 15  1  0  0  0  0
  4 11  2  0  0  0  0
  5  3  1  0  0  0  0
  7  5  1  0  0  0  0
  8  1  2  0  0  0  0
  8 10  1  0  0  0  0
  9  2  1  0  0  0  0
  9  7  2  0  0  0  0
 10 13  2  0  0  0  0
 12 17  1  0  0  0  0
 12  1  1  0  0  0  0
 13 11  1  0  0  0  0
 14 29  1  0  0  0  0
 14  6  2  0  0  0  0
 15 14  1  0  0  0  0
 16  2  2  0  0  0  0
 17  3  2  0  0  0  0
 18 20  2  0  0  0  0
 18 19  1  0  0  0  0
 19  9  1  0  0  0  0
 22 21  1  0  0  0  0
 23 22  1  0  0  0  0
 24 23  1  0  0  0  0
 24 25  1  0  0  0  0
 25 26  1  0  0  0  0
 26 21  1  0  0  0  0
 26 18  1  0  0  0  0
 27 10  1  0  0  0  0
 28 27  1  0  0  0  0
 29 30  1  0  0  0  0
 31 30  1  0  0  0  0
M  END
>  <MODEL>
1

>  <REMARK>
 VINA RESULT:      -8.7      0.000      0.000
  Name = 
  5 active torsions:
  status: ('A' for Active; 'I' for Inactive)
    1  A    between atoms: C_3  and  C_23
    2  A    between atoms: C_3  and  C_24
    3  A    between atoms: O_8  and  C_17
    4  A    between atoms: C_9  and  C_31
    5  A    between atoms: N_11  and  C_15
                            x       y       z     vdW  Elec       q    Type
                         _______ _______ _______ _____ _____    ______ ____

>  <TORSDO>
F 5

$$$$
=
 OpenBabel10222415303D

 31 34  0  0  0  0  0  0  0  0999 V2000
  189.1260  177.5050  144.2500 C   0  0  0  0  0  0  0  0  0  0  0  0
  186.1090  178.5500  142.2380 C   0  0  0  0  0  0  0  0  0  0  0  0
  188.3870  177.9550  141.5560 C   0  0  0  0  0  0  0  0  0  0  0  0
  190.0950  177.3040  143.2560 C   0  0  0  0  0  0  0  0  0  0  0  0
  188.0390  178.3910  140.1450 C   0  0  0  0  0  2  0  0  0  0  0  0
  191.8750  177.6830  140.9340 O   0  0  0  0  0  0  0  0  0  0  0  0
  186.5620  178.4330  139.8620 C   0  0  0  0  0  3  0  0  0  0  0  0
  189.4370  177.2980  145.5960 C   0  0  0  0  0  3  0  0  0  0  0  0
  185.6540  178.5390  140.8310 C   0  0  0  0  0  0  0  0  0  0  0  0
  190.7230  176.8780  145.9690 C   0  0  0  0  0  0  0  0  0  0  0  0
  191.3780  176.8740  143.6340 C   0  0  0  0  0  3  0  0  0  0  0  0
  187.8420  177.9070  143.8860 O   0  0  0  0  0  0  0  0  0  0  0  0
  191.6880  176.6650  144.9810 C   0  0  0  0  0  3  0  0  0  0  0  0
  190.6900  177.2660  140.8200 C   0  0  0  0  0  0  0  0  0  0  0  0
  189.7330  177.5160  141.8700 N   0  0  0  0  0  0  0  0  0  0  0  0
  185.3400  178.9160  143.1650 O   0  0  0  0  0  0  0  0  0  0  0  0
  187.4870  178.1310  142.5490 C   0  0  0  0  0  0  0  0  0  0  0  0
  183.7370  179.5220  139.4690 C   0  0  0  0  0  0  0  0  0  0  0  0
  184.2720  178.6450  140.4660 N   0  0  0  0  0  2  0  0  0  0  0  0
  184.4170  180.4880  139.0260 O   0  0  0  0  0  0  0  0  0  0  0  0
  181.4670  178.7700  140.1390 C   0  0  0  0  0  2  0  0  0  0  0  0
  180.0200  178.6580  139.6680 C   0  0  0  0  0  2  0  0  0  0  0  0
  179.5240  179.9710  139.2550 N   0  0  0  0  0  2  0  0  0  0  0  0
  180.2860  180.4090  138.0860 C   0  0  0  0  0  2  0  0  0  0  0  0
  181.7490  180.6230  138.4630 C   0  0  0  0  0  2  0  0  0  0  0  0
  182.3320  179.3190  139.0070 C   0  0  0  0  0  3  0  0  0  0  0  0
  191.0660  176.6640  147.3070 O   0  0  0  0  0  0  0  0  0  0  0  0
  192.1500  175.8340  147.6970 C   0  0  0  0  0  1  0  0  0  0  0  0
  190.3160  176.4170  139.6410 C   0  0  0  0  0  2  0  0  0  0  0  0
  191.4550  176.2900  138.6380 C   0  0  0  0  0  2  0  0  0  0  0  0
  191.4840  174.9520  138.0740 N   0  0  0  0  0  1  0  0  0  0  0  0
  1  8  1  0  0  0  0
  2 17  1  0  0  0  0
  2 16  2  0  0  0  0
  3 15  1  0  0  0  0
  3 17  2  0  0  0  0
  4 11  1  0  0  0  0
  4  1  2  0  0  0  0
  5  3  1  0  0  0  0
  7  5  1  0  0  0  0
  7  9  2  0  0  0  0
  8 10  2  0  0  0  0
  9  2  1  0  0  0  0
 10 27  1  0  0  0  0
 11 13  2  0  0  0  0
 12  1  1  0  0  0  0
 13 10  1  0  0  0  0
 14  6  2  0  0  0  0
 14 15  1  0  0  0  0
 15  4  1  0  0  0  0
 17 12  1  0  0  0  0
 18 19  1  0  0  0  0
 19  9  1  0  0  0  0
 20 18  2  0  0  0  0
 22 21  1  0  0  0  0
 23 22  1  0  0  0  0
 24 25  1  0  0  0  0
 24 23  1  0  0  0  0
 25 26  1  0  0  0  0
 26 18  1  0  0  0  0
 26 21  1  0  0  0  0
 27 28  1  0  0  0  0
 29 14  1  0  0  0  0
 30 29  1  0  0  0  0
 31 30  1  0  0  0  0
M  END
>  <MODEL>
2

>  <REMARK>
 VINA RESULT:      -8.5      3.590      7.894
  Name = 
  5 active torsions:
  status: ('A' for Active; 'I' for Inactive)
    1  A    between atoms: C_3  and  C_23
    2  A    between atoms: C_3  and  C_24
    3  A    between atoms: O_8  and  C_17
    4  A    between atoms: C_9  and  C_31
    5  A    between atoms: N_11  and  C_15
                            x       y       z     vdW  Elec       q    Type
                         _______ _______ _______ _____ _____    ______ ____

>  <TORSDO>
F 5

$$$$
=
 OpenBabel10222415303D

 31 34  0  0  0  0  0  0  0  0999 V2000
  192.0050  176.3080  138.1370 C   0  0  0  0  0  0  0  0  0  0  0  0
  190.7700  177.4920  141.5010 C   0  0  0  0  0  0  0  0  0  0  0  0
  189.7160  177.5070  139.2890 C   0  0  0  0  0  0  0  0  0  0  0  0
  190.9180  176.5960  137.3000 C   0  0  0  0  0  0  0  0  0  0  0  0
  188.5830  178.3280  139.8740 C   0  0  0  0  0  2  0  0  0  0  0  0
  188.7180  177.9850  135.9120 O   0  0  0  0  0  0  0  0  0  0  0  0
  188.4700  178.2390  141.3720 C   0  0  0  0  0  3  0  0  0  0  0  0
  193.1610  175.7150  137.6220 C   0  0  0  0  0  3  0  0  0  0  0  0
  189.4960  177.8790  142.1420 C   0  0  0  0  0  0  0  0  0  0  0  0
  193.2440  175.3950  136.2590 C   0  0  0  0  0  0  0  0  0  0  0  0
  191.0030  176.2630  135.9380 C   0  0  0  0  0  3  0  0  0  0  0  0
  191.9240  176.6090  139.4960 O   0  0  0  0  0  0  0  0  0  0  0  0
  192.1590  175.6690  135.4220 C   0  0  0  0  0  3  0  0  0  0  0  0
  188.5760  177.4560  137.0480 C   0  0  0  0  0  0  0  0  0  0  0  0
  189.7320  177.1970  137.8710 N   0  0  0  0  0  0  0  0  0  0  0  0
  191.8340  177.4100  142.1690 O   0  0  0  0  0  0  0  0  0  0  0  0
  190.7870  177.2070  140.0560 C   0  0  0  0  0  0  0  0  0  0  0  0
  188.4340  177.0450  144.3050 C   0  0  0  0  0  0  0  0  0  0  0  0
  189.3200  177.8910  143.5650 N   0  0  0  0  0  2  0  0  0  0  0  0
  187.5150  176.4070  143.7220 O   0  0  0  0  0  0  0  0  0  0  0  0
  189.9660  177.4140  146.2240 C   0  0  0  0  0  2  0  0  0  0  0  0
  190.0470  177.4240  147.7480 C   0  0  0  0  0  2  0  0  0  0  0  0
  189.0470  178.3400  148.2970 N   0  0  0  0  0  2  0  0  0  0  0  0
  187.7180  177.8230  147.9780 C   0  0  0  0  0  2  0  0  0  0  0  0
  187.4990  177.8350  146.4670 C   0  0  0  0  0  2  0  0  0  0  0  0
  188.5680  176.9780  145.7890 C   0  0  0  0  0  3  0  0  0  0  0  0
  194.3870  174.8040  135.7120 O   0  0  0  0  0  0  0  0  0  0  0  0
  195.6630  174.8830  136.3320 C   0  0  0  0  0  1  0  0  0  0  0  0
  187.2160  176.9990  137.4860 C   0  0  0  0  0  2  0  0  0  0  0  0
  186.1220  177.9780  137.0830 C   0  0  0  0  0  2  0  0  0  0  0  0
  185.6420  178.7060  138.2450 N   0  0  0  0  0  1  0  0  0  0  0  0
  1 12  1  0  0  0  0
  2  9  1  0  0  0  0
  2 16  2  0  0  0  0
  3  5  1  0  0  0  0
  3 17  2  0  0  0  0
  4 15  1  0  0  0  0
  4  1  2  0  0  0  0
  5  7  1  0  0  0  0
  6 14  2  0  0  0  0
  7  9  2  0  0  0  0
  8  1  1  0  0  0  0
  9 19  1  0  0  0  0
 10  8  2  0  0  0  0
 11  4  1  0  0  0  0
 12 17  1  0  0  0  0
 13 11  2  0  0  0  0
 13 10  1  0  0  0  0
 14 29  1  0  0  0  0
 14 15  1  0  0  0  0
 15  3  1  0  0  0  0
 17  2  1  0  0  0  0
 18 26  1  0  0  0  0
 19 18  1  0  0  0  0
 20 18  2  0  0  0  0
 21 22  1  0  0  0  0
 22 23  1  0  0  0  0
 24 23  1  0  0  0  0
 25 24  1  0  0  0  0
 26 21  1  0  0  0  0
 26 25  1  0  0  0  0
 27 10  1  0  0  0  0
 27 28  1  0  0  0  0
 30 29  1  0  0  0  0
 30 31  1  0  0  0  0
M  END
>  <MODEL>
3

>  <REMARK>
 VINA RESULT:      -8.4      2.665      9.460
  Name = 
  5 active torsions:
  status: ('A' for Active; 'I' for Inactive)
    1  A    between atoms: C_3  and  C_23
    2  A    between atoms: C_3  and  C_24
    3  A    between atoms: O_8  and  C_17
    4  A    between atoms: C_9  and  C_31
    5  A    between atoms: N_11  and  C_15
                            x       y       z     vdW  Elec       q    Type
                         _______ _______ _______ _____ _____    ______ ____

>  <TORSDO>
F 5

$$$$
=
 OpenBabel10222415303D

 31 34  0  0  0  0  0  0  0  0999 V2000
  188.3750  177.5270  144.7530 C   0  0  0  0  0  0  0  0  0  0  0  0
  190.2920  176.8740  141.5680 C   0  0  0  0  0  0  0  0  0  0  0  0
  187.9700  177.5560  141.9520 C   0  0  0  0  0  0  0  0  0  0  0  0
  187.1080  177.8880  144.2720 C   0  0  0  0  0  0  0  0  0  0  0  0
  187.7100  177.3740  140.4690 C   0  0  0  0  0  2  0  0  0  0  0  0
  184.5410  177.8990  142.8190 O   0  0  0  0  0  0  0  0  0  0  0  0
  188.9520  177.3950  139.6200 C   0  0  0  0  0  3  0  0  0  0  0  0
  188.6310  177.4960  146.1250 C   0  0  0  0  0  3  0  0  0  0  0  0
  190.1590  177.1320  140.1190 C   0  0  0  0  0  0  0  0  0  0  0  0
  187.6220  177.8330  147.0410 C   0  0  0  0  0  0  0  0  0  0  0  0
  186.1050  178.2340  145.1920 C   0  0  0  0  0  3  0  0  0  0  0  0
  189.3870  177.2060  143.8490 O   0  0  0  0  0  0  0  0  0  0  0  0
  186.3610  178.2040  146.5660 C   0  0  0  0  0  3  0  0  0  0  0  0
  185.6090  178.3410  142.3130 C   0  0  0  0  0  0  0  0  0  0  0  0
  186.8840  177.9220  142.8420 N   0  0  0  0  0  0  0  0  0  0  0  0
  191.3400  176.3600  142.0420 O   0  0  0  0  0  0  0  0  0  0  0  0
  189.1750  177.2200  142.4640 C   0  0  0  0  0  0  0  0  0  0  0  0
  191.5580  176.0730  138.2700 C   0  0  0  0  0  0  0  0  0  0  0  0
  191.2780  177.1030  139.2240 N   0  0  0  0  0  2  0  0  0  0  0  0
  190.9850  174.9510  138.3440 O   0  0  0  0  0  0  0  0  0  0  0  0
  193.8550  175.5080  137.5130 C   0  0  0  0  0  2  0  0  0  0  0  0
  194.8600  175.7060  136.3820 C   0  0  0  0  0  2  0  0  0  0  0  0
  194.2760  175.2780  135.1120 N   0  0  0  0  0  2  0  0  0  0  0  0
  193.1520  176.1580  134.7970 C   0  0  0  0  0  2  0  0  0  0  0  0
  192.0460  175.9880  135.8350 C   0  0  0  0  0  2  0  0  0  0  0  0
  192.5930  176.3180  137.2230 C   0  0  0  0  0  3  0  0  0  0  0  0
  187.8450  177.8090  148.4210 O   0  0  0  0  0  0  0  0  0  0  0  0
  189.0590  178.2520  149.0090 C   0  0  0  0  0  1  0  0  0  0  0  0
  185.5410  179.3850  141.2380 C   0  0  0  0  0  2  0  0  0  0  0  0
  184.5170  179.0400  140.1650 C   0  0  0  0  0  2  0  0  0  0  0  0
  184.5560  180.0220  139.0950 N   0  0  0  0  0  1  0  0  0  0  0  0
  1  8  1  0  0  0  0
  2 16  2  0  0  0  0
  2 17  1  0  0  0  0
  3 17  2  0  0  0  0
  3 15  1  0  0  0  0
  4  1  2  0  0  0  0
  4 11  1  0  0  0  0
  5  3  1  0  0  0  0
  7  9  2  0  0  0  0
  7  5  1  0  0  0  0
  8 10  2  0  0  0  0
  9  2  1  0  0  0  0
 10 27  1  0  0  0  0
 11 13  2  0  0  0  0
 12  1  1  0  0  0  0
 13 10  1  0  0  0  0
 14  6  2  0  0  0  0
 14 15  1  0  0  0  0
 15  4  1  0  0  0  0
 17 12  1  0  0  0  0
 18 20  2  0  0  0  0
 18 19  1  0  0  0  0
 19  9  1  0  0  0  0
 22 21  1  0  0  0  0
 23 22  1  0  0  0  0
 24 23  1  0  0  0  0
 24 25  1  0  0  0  0
 25 26  1  0  0  0  0
 26 21  1  0  0  0  0
 26 18  1  0  0  0  0
 27 28  1  0  0  0  0
 29 14  1  0  0  0  0
 30 29  1  0  0  0  0
 31 30  1  0  0  0  0
M  END
>  <MODEL>
4

>  <REMARK>
 VINA RESULT:      -8.1      2.202      4.451
  Name = 
  5 active torsions:
  status: ('A' for Active; 'I' for Inactive)
    1  A    between atoms: C_3  and  C_23
    2  A    between atoms: C_3  and  C_24
    3  A    between atoms: O_8  and  C_17
    4  A    between atoms: C_9  and  C_31
    5  A    between atoms: N_11  and  C_15
                            x       y       z     vdW  Elec       q    Type
                         _______ _______ _______ _____ _____    ______ ____

>  <TORSDO>
F 5

$$$$
=
 OpenBabel10222415303D

 31 34  0  0  0  0  0  0  0  0999 V2000
  184.1210  178.6940  141.9280 C   0  0  0  0  0  0  0  0  0  0  0  0
  187.3270  178.2530  139.9850 C   0  0  0  0  0  0  0  0  0  0  0  0
  186.8810  178.2790  142.3950 C   0  0  0  0  0  0  0  0  0  0  0  0
  184.5600  178.5980  143.2570 C   0  0  0  0  0  0  0  0  0  0  0  0
  188.3790  178.2600  142.6350 C   0  0  0  0  0  2  0  0  0  0  0  0
  186.0450  179.0030  145.7720 O   0  0  0  0  0  0  0  0  0  0  0  0
  189.1820  177.7660  141.4630 C   0  0  0  0  0  3  0  0  0  0  0  0
  182.7700  178.8980  141.6390 C   0  0  0  0  0  3  0  0  0  0  0  0
  188.7110  177.7880  140.2170 C   0  0  0  0  0  0  0  0  0  0  0  0
  181.8330  179.0030  142.6780 C   0  0  0  0  0  0  0  0  0  0  0  0
  183.6160  178.6930  144.2920 C   0  0  0  0  0  3  0  0  0  0  0  0
  185.0450  178.5750  140.8890 O   0  0  0  0  0  0  0  0  0  0  0  0
  182.2630  178.8970  144.0040 C   0  0  0  0  0  3  0  0  0  0  0  0
  186.4410  178.2150  144.8700 C   0  0  0  0  0  0  0  0  0  0  0  0
  185.9660  178.3730  143.5170 N   0  0  0  0  0  0  0  0  0  0  0  0
  186.9280  178.5500  138.8290 O   0  0  0  0  0  0  0  0  0  0  0  0
  186.4100  178.3740  141.1320 C   0  0  0  0  0  0  0  0  0  0  0  0
  190.9740  177.1020  139.2660 C   0  0  0  0  0  0  0  0  0  0  0  0
  189.5720  177.3650  139.1520 N   0  0  0  0  0  2  0  0  0  0  0  0
  191.6270  177.5030  140.2680 O   0  0  0  0  0  0  0  0  0  0  0  0
  193.1810  176.3740  138.3890 C   0  0  0  0  0  2  0  0  0  0  0  0
  193.8600  175.5770  137.2790 C   0  0  0  0  0  2  0  0  0  0  0  0
  193.3350  174.2120  137.2470 N   0  0  0  0  0  2  0  0  0  0  0  0
  191.9200  174.2670  136.8820 C   0  0  0  0  0  2  0  0  0  0  0  0
  191.1250  174.9880  137.9680 C   0  0  0  0  0  2  0  0  0  0  0  0
  191.6720  176.4030  138.1470 C   0  0  0  0  0  3  0  0  0  0  0  0
  180.4740  179.2100  142.4230 O   0  0  0  0  0  0  0  0  0  0  0  0
  179.6710  180.0820  143.2050 C   0  0  0  0  0  1  0  0  0  0  0  0
  187.3170  177.0540  145.2350 C   0  0  0  0  0  2  0  0  0  0  0  0
  188.3140  177.4060  146.3310 C   0  0  0  0  0  2  0  0  0  0  0  0
  189.6720  177.1650  145.8740 N   0  0  0  0  0  1  0  0  0  0  0  0
  1  4  1  0  0  0  0
  2  9  1  0  0  0  0
  2 17  1  0  0  0  0
  3  5  1  0  0  0  0
  3 15  1  0  0  0  0
  4 15  1  0  0  0  0
  4 11  2  0  0  0  0
  7  5  1  0  0  0  0
  8  1  2  0  0  0  0
  8 10  1  0  0  0  0
  9  7  2  0  0  0  0
 10 13  2  0  0  0  0
 12 17  1  0  0  0  0
 12  1  1  0  0  0  0
 13 11  1  0  0  0  0
 14 29  1  0  0  0  0
 14  6  2  0  0  0  0
 15 14  1  0  0  0  0
 16  2  2  0  0  0  0
 17  3  2  0  0  0  0
 18 20  2  0  0  0  0
 19 18  1  0  0  0  0
 19  9  1  0  0  0  0
 22 21  1  0  0  0  0
 23 22  1  0  0  0  0
 24 23  1  0  0  0  0
 24 25  1  0  0  0  0
 25 26  1  0  0  0  0
 26 21  1  0  0  0  0
 26 18  1  0  0  0  0
 27 10  1  0  0  0  0
 27 28  1  0  0  0  0
 29 30  1  0  0  0  0
 31 30  1  0  0  0  0
M  END
>  <MODEL>
5

>  <REMARK>
 VINA RESULT:      -8.0      1.924      2.692
  Name = 
  5 active torsions:
  status: ('A' for Active; 'I' for Inactive)
    1  A    between atoms: C_3  and  C_23
    2  A    between atoms: C_3  and  C_24
    3  A    between atoms: O_8  and  C_17
    4  A    between atoms: C_9  and  C_31
    5  A    between atoms: N_11  and  C_15
                            x       y       z     vdW  Elec       q    Type
                         _______ _______ _______ _____ _____    ______ ____

>  <TORSDO>
F 5

$$$$
=
 OpenBabel10222415303D

 31 34  0  0  0  0  0  0  0  0999 V2000
  188.3550  178.0330  141.3590 C   0  0  0  0  0  0  0  0  0  0  0  0
  185.1480  178.9550  139.5960 C   0  0  0  0  0  0  0  0  0  0  0  0
  185.6070  178.3810  141.9340 C   0  0  0  0  0  0  0  0  0  0  0  0
  187.9260  177.8370  142.6800 C   0  0  0  0  0  0  0  0  0  0  0  0
  184.1110  178.3730  142.1870 C   0  0  0  0  0  2  0  0  0  0  0  0
  186.4470  176.9050  145.0550 O   0  0  0  0  0  0  0  0  0  0  0  0
  183.3110  179.1310  141.1630 C   0  0  0  0  0  3  0  0  0  0  0  0
  189.7010  177.8760  141.0190 C   0  0  0  0  0  3  0  0  0  0  0  0
  183.7750  179.3800  139.9390 C   0  0  0  0  0  0  0  0  0  0  0  0
  190.6420  177.5240  141.9990 C   0  0  0  0  0  0  0  0  0  0  0  0
  188.8740  177.4950  143.6580 C   0  0  0  0  0  3  0  0  0  0  0  0
  187.4290  178.3980  140.3820 O   0  0  0  0  0  0  0  0  0  0  0  0
  190.2200  177.3380  143.3180 C   0  0  0  0  0  3  0  0  0  0  0  0
  186.0610  177.8810  144.3560 C   0  0  0  0  0  0  0  0  0  0  0  0
  186.5260  178.0230  142.9970 N   0  0  0  0  0  0  0  0  0  0  0  0
  185.5350  178.9180  138.3980 O   0  0  0  0  0  0  0  0  0  0  0  0
  186.0690  178.5640  140.6770 C   0  0  0  0  0  0  0  0  0  0  0  0
  181.7310  179.4950  138.4190 C   0  0  0  0  0  0  0  0  0  0  0  0
  182.9170  180.0460  139.0040 N   0  0  0  0  0  2  0  0  0  0  0  0
  181.5040  178.2550  138.4680 O   0  0  0  0  0  0  0  0  0  0  0  0
  181.1490  181.8640  137.9520 C   0  0  0  0  0  2  0  0  0  0  0  0
  180.2380  182.7650  137.1240 C   0  0  0  0  0  2  0  0  0  0  0  0
  180.3930  182.4640  135.7010 N   0  0  0  0  0  2  0  0  0  0  0  0
  179.9220  181.1010  135.4600 C   0  0  0  0  0  2  0  0  0  0  0  0
  180.8140  180.1000  136.1910 C   0  0  0  0  0  2  0  0  0  0  0  0
  180.7970  180.4000  137.6890 C   0  0  0  0  0  3  0  0  0  0  0  0
  191.9950  177.3560  141.6910 O   0  0  0  0  0  0  0  0  0  0  0  0
  192.5050  177.5020  140.3730 C   0  0  0  0  0  1  0  0  0  0  0  0
  185.2100  178.9470  144.9800 C   0  0  0  0  0  2  0  0  0  0  0  0
  184.8460  178.6230  146.4220 C   0  0  0  0  0  2  0  0  0  0  0  0
  185.6810  179.3810  147.3370 N   0  0  0  0  0  1  0  0  0  0  0  0
  1  4  1  0  0  0  0
  2  9  1  0  0  0  0
  2 17  1  0  0  0  0
  3  5  1  0  0  0  0
  3 15  1  0  0  0  0
  4 15  1  0  0  0  0
  4 11  2  0  0  0  0
  7  5  1  0  0  0  0
  8  1  2  0  0  0  0
  8 10  1  0  0  0  0
  9  7  2  0  0  0  0
 10 13  2  0  0  0  0
 12 17  1  0  0  0  0
 12  1  1  0  0  0  0
 13 11  1  0  0  0  0
 14 29  1  0  0  0  0
 14  6  2  0  0  0  0
 15 14  1  0  0  0  0
 16  2  2  0  0  0  0
 17  3  2  0  0  0  0
 18 20  2  0  0  0  0
 18 19  1  0  0  0  0
 19  9  1  0  0  0  0
 22 21  1  0  0  0  0
 23 22  1  0  0  0  0
 24 23  1  0  0  0  0
 24 25  1  0  0  0  0
 25 26  1  0  0  0  0
 26 21  1  0  0  0  0
 26 18  1  0  0  0  0
 27 10  1  0  0  0  0
 28 27  1  0  0  0  0
 29 30  1  0  0  0  0
 30 31  1  0  0  0  0
M  END
>  <MODEL>
6

>  <REMARK>
 VINA RESULT:      -8.0      4.797      8.232
  Name = 
  5 active torsions:
  status: ('A' for Active; 'I' for Inactive)
    1  A    between atoms: C_3  and  C_23
    2  A    between atoms: C_3  and  C_24
    3  A    between atoms: O_8  and  C_17
    4  A    between atoms: C_9  and  C_31
    5  A    between atoms: N_11  and  C_15
                            x       y       z     vdW  Elec       q    Type
                         _______ _______ _______ _____ _____    ______ ____

>  <TORSDO>
F 5

$$$$
=
 OpenBabel10222415303D

 31 34  0  0  0  0  0  0  0  0999 V2000
  192.3190  176.1080  137.9660 C   0  0  0  0  0  0  0  0  0  0  0  0
  190.5740  177.6820  140.9190 C   0  0  0  0  0  0  0  0  0  0  0  0
  189.8260  177.2750  138.6210 C   0  0  0  0  0  0  0  0  0  0  0  0
  191.3370  176.1750  136.9660 C   0  0  0  0  0  0  0  0  0  0  0  0
  188.5760  178.0780  138.9250 C   0  0  0  0  0  2  0  0  0  0  0  0
  189.2590  177.1510  135.1150 O   0  0  0  0  0  0  0  0  0  0  0  0
  188.2700  178.2080  140.3920 C   0  0  0  0  0  3  0  0  0  0  0  0
  193.5670  175.5420  137.6970 C   0  0  0  0  0  3  0  0  0  0  0  0
  189.2040  178.0550  141.3300 C   0  0  0  0  0  0  0  0  0  0  0  0
  193.8510  175.0260  136.4240 C   0  0  0  0  0  0  0  0  0  0  0  0
  191.6230  175.6480  135.6960 C   0  0  0  0  0  3  0  0  0  0  0  0
  192.0390  176.6040  139.2390 O   0  0  0  0  0  0  0  0  0  0  0  0
  192.8720  175.0800  135.4280 C   0  0  0  0  0  3  0  0  0  0  0  0
  189.0000  176.7910  136.2960 C   0  0  0  0  0  0  0  0  0  0  0  0
  190.0500  176.7550  137.2850 N   0  0  0  0  0  0  0  0  0  0  0  0
  191.5430  177.7900  141.7160 O   0  0  0  0  0  0  0  0  0  0  0  0
  190.8020  177.1830  139.5520 C   0  0  0  0  0  0  0  0  0  0  0  0
  188.8570  177.2770  143.7320 C   0  0  0  0  0  0  0  0  0  0  0  0
  188.8400  178.2680  142.7000 N   0  0  0  0  0  2  0  0  0  0  0  0
  188.9220  176.0490  143.4470 O   0  0  0  0  0  0  0  0  0  0  0  0
  187.3060  177.4640  145.6630 C   0  0  0  0  0  2  0  0  0  0  0  0
  187.2230  177.8300  147.1420 C   0  0  0  0  0  2  0  0  0  0  0  0
  188.1730  177.0270  147.9110 N   0  0  0  0  0  2  0  0  0  0  0  0
  189.5280  177.3840  147.4940 C   0  0  0  0  0  2  0  0  0  0  0  0
  189.7470  176.9920  146.0340 C   0  0  0  0  0  2  0  0  0  0  0  0
  188.7250  177.7100  145.1540 C   0  0  0  0  0  3  0  0  0  0  0  0
  195.0910  174.4560  136.1220 O   0  0  0  0  0  0  0  0  0  0  0  0
  196.1470  174.3700  137.0690 C   0  0  0  0  0  1  0  0  0  0  0  0
  187.6250  176.2940  136.6330 C   0  0  0  0  0  2  0  0  0  0  0  0
  187.3520  174.9150  136.0500 C   0  0  0  0  0  2  0  0  0  0  0  0
  188.3320  173.9580  136.5340 N   0  0  0  0  0  1  0  0  0  0  0  0
  1 12  1  0  0  0  0
  2  9  1  0  0  0  0
  2 16  2  0  0  0  0
  3  5  1  0  0  0  0
  3 17  2  0  0  0  0
  4 15  1  0  0  0  0
  4  1  2  0  0  0  0
  5  7  1  0  0  0  0
  6 14  2  0  0  0  0
  7  9  2  0  0  0  0
  8  1  1  0  0  0  0
  9 19  1  0  0  0  0
 10  8  2  0  0  0  0
 11  4  1  0  0  0  0
 12 17  1  0  0  0  0
 13 11  2  0  0  0  0
 13 10  1  0  0  0  0
 14 29  1  0  0  0  0
 14 15  1  0  0  0  0
 15  3  1  0  0  0  0
 17  2  1  0  0  0  0
 18 26  1  0  0  0  0
 19 18  1  0  0  0  0
 20 18  2  0  0  0  0
 21 22  1  0  0  0  0
 22 23  1  0  0  0  0
 24 23  1  0  0  0  0
 25 24  1  0  0  0  0
 26 21  1  0  0  0  0
 26 25  1  0  0  0  0
 27 10  1  0  0  0  0
 27 28  1  0  0  0  0
 30 31  1  0  0  0  0
 30 29  1  0  0  0  0
M  END
>  <MODEL>
7

>  <REMARK>
 VINA RESULT:      -7.8      2.675      9.650
  Name = 
  5 active torsions:
  status: ('A' for Active; 'I' for Inactive)
    1  A    between atoms: C_3  and  C_23
    2  A    between atoms: C_3  and  C_24
    3  A    between atoms: O_8  and  C_17
    4  A    between atoms: C_9  and  C_31
    5  A    between atoms: N_11  and  C_15
                            x       y       z     vdW  Elec       q    Type
                         _______ _______ _______ _____ _____    ______ ____

>  <TORSDO>
F 5

$$$$
=
 OpenBabel10222415303D

 31 34  0  0  0  0  0  0  0  0999 V2000
  189.5840  177.3240  144.9820 C   0  0  0  0  0  0  0  0  0  0  0  0
  188.3790  177.4740  141.4090 C   0  0  0  0  0  0  0  0  0  0  0  0
  187.2050  177.8170  143.5320 C   0  0  0  0  0  0  0  0  0  0  0  0
  188.4210  177.6260  145.7040 C   0  0  0  0  0  0  0  0  0  0  0  0
  185.9010  177.8800  142.7600 C   0  0  0  0  0  2  0  0  0  0  0  0
  185.6530  177.6210  146.7230 O   0  0  0  0  0  0  0  0  0  0  0  0
  186.0690  178.1910  141.2970 C   0  0  0  0  0  3  0  0  0  0  0  0
  190.7870  177.0730  145.6470 C   0  0  0  0  0  3  0  0  0  0  0  0
  187.2140  177.9750  140.6500 C   0  0  0  0  0  0  0  0  0  0  0  0
  190.8460  177.1260  147.0480 C   0  0  0  0  0  0  0  0  0  0  0  0
  188.4880  177.6880  147.1060 C   0  0  0  0  0  3  0  0  0  0  0  0
  189.5380  177.2850  143.5890 O   0  0  0  0  0  0  0  0  0  0  0  0
  189.6910  177.4370  147.7710 C   0  0  0  0  0  3  0  0  0  0  0  0
  185.9950  178.2610  145.6910 C   0  0  0  0  0  0  0  0  0  0  0  0
  187.1960  177.8950  144.9810 N   0  0  0  0  0  0  0  0  0  0  0  0
  189.3840  177.0000  140.8160 O   0  0  0  0  0  0  0  0  0  0  0  0
  188.3530  177.5270  142.8810 C   0  0  0  0  0  0  0  0  0  0  0  0
  188.4190  178.6470  138.5070 C   0  0  0  0  0  0  0  0  0  0  0  0
  187.2620  178.2310  139.2410 N   0  0  0  0  0  2  0  0  0  0  0  0
  189.4330  179.1020  139.1040 O   0  0  0  0  0  0  0  0  0  0  0  0
  189.4260  177.6160  136.4840 C   0  0  0  0  0  2  0  0  0  0  0  0
  189.3100  177.5200  134.9660 C   0  0  0  0  0  2  0  0  0  0  0  0
  187.9680  177.0730  134.5940 N   0  0  0  0  0  2  0  0  0  0  0  0
  187.0070  178.0990  134.9970 C   0  0  0  0  0  2  0  0  0  0  0  0
  186.9890  178.2310  136.5180 C   0  0  0  0  0  2  0  0  0  0  0  0
  188.3850  178.6000  137.0160 C   0  0  0  0  0  3  0  0  0  0  0  0
  192.0330  176.8760  147.7420 O   0  0  0  0  0  0  0  0  0  0  0  0
  192.6160  175.5830  147.8250 C   0  0  0  0  0  1  0  0  0  0  0  0
  185.2080  179.4690  145.2760 C   0  0  0  0  0  2  0  0  0  0  0  0
  183.7230  179.1650  145.1270 C   0  0  0  0  0  2  0  0  0  0  0  0
  183.2390  179.6300  143.8390 N   0  0  0  0  0  1  0  0  0  0  0  0
  1  8  2  0  0  0  0
  1  4  1  0  0  0  0
  2 17  1  0  0  0  0
  3 15  1  0  0  0  0
  4 11  2  0  0  0  0
  5  3  1  0  0  0  0
  7  5  1  0  0  0  0
  8 10  1  0  0  0  0
  9  7  2  0  0  0  0
  9  2  1  0  0  0  0
 10 27  1  0  0  0  0
 10 13  2  0  0  0  0
 11 13  1  0  0  0  0
 12  1  1  0  0  0  0
 14  6  2  0  0  0  0
 15 14  1  0  0  0  0
 15  4  1  0  0  0  0
 16  2  2  0  0  0  0
 17  3  2  0  0  0  0
 17 12  1  0  0  0  0
 18 20  2  0  0  0  0
 18 19  1  0  0  0  0
 19  9  1  0  0  0  0
 21 26  1  0  0  0  0
 22 21  1  0  0  0  0
 23 22  1  0  0  0  0
 23 24  1  0  0  0  0
 24 25  1  0  0  0  0
 25 26  1  0  0  0  0
 26 18  1  0  0  0  0
 27 28  1  0  0  0  0
 29 14  1  0  0  0  0
 30 29  1  0  0  0  0
 31 30  1  0  0  0  0
M  END
>  <MODEL>
8

>  <REMARK>
 VINA RESULT:      -7.8      2.866      5.351
  Name = 
  5 active torsions:
  status: ('A' for Active; 'I' for Inactive)
    1  A    between atoms: C_3  and  C_23
    2  A    between atoms: C_3  and  C_24
    3  A    between atoms: O_8  and  C_17
    4  A    between atoms: C_9  and  C_31
    5  A    between atoms: N_11  and  C_15
                            x       y       z     vdW  Elec       q    Type
                         _______ _______ _______ _____ _____    ______ ____

>  <TORSDO>
F 5

$$$$
=
 OpenBabel10222415303D

 31 34  0  0  0  0  0  0  0  0999 V2000
  185.4670  178.6630  139.9920 C   0  0  0  0  0  0  0  0  0  0  0  0
  189.1270  178.1060  139.2580 C   0  0  0  0  0  0  0  0  0  0  0  0
  187.8800  178.1220  141.3680 C   0  0  0  0  0  0  0  0  0  0  0  0
  185.4170  178.5310  141.3880 C   0  0  0  0  0  0  0  0  0  0  0  0
  189.2020  178.0340  142.1070 C   0  0  0  0  0  2  0  0  0  0  0  0
  185.9600  178.8390  144.2700 O   0  0  0  0  0  0  0  0  0  0  0  0
  190.3410  177.5200  141.2690 C   0  0  0  0  0  3  0  0  0  0  0  0
  184.3060  178.9300  139.2630 C   0  0  0  0  0  3  0  0  0  0  0  0
  190.3280  177.5780  139.9380 C   0  0  0  0  0  0  0  0  0  0  0  0
  183.0730  179.0620  139.9190 C   0  0  0  0  0  0  0  0  0  0  0  0
  184.1790  178.6550  142.0380 C   0  0  0  0  0  3  0  0  0  0  0  0
  186.6860  178.5170  139.3310 O   0  0  0  0  0  0  0  0  0  0  0  0
  183.0170  178.9210  141.3080 C   0  0  0  0  0  3  0  0  0  0  0  0
  186.6130  178.0460  143.5380 C   0  0  0  0  0  0  0  0  0  0  0  0
  186.6380  178.2410  142.1090 N   0  0  0  0  0  0  0  0  0  0  0  0
  189.1620  178.4350  138.0430 O   0  0  0  0  0  0  0  0  0  0  0  0
  187.8760  178.2530  140.0220 C   0  0  0  0  0  0  0  0  0  0  0  0
  191.5420  176.0070  138.3390 C   0  0  0  0  0  0  0  0  0  0  0  0
  191.4870  177.1320  139.2230 N   0  0  0  0  0  2  0  0  0  0  0  0
  190.6270  175.1380  138.3440 O   0  0  0  0  0  0  0  0  0  0  0  0
  193.3890  174.4790  137.6930 C   0  0  0  0  0  2  0  0  0  0  0  0
  194.5470  174.2930  136.7170 C   0  0  0  0  0  2  0  0  0  0  0  0
  194.0600  174.3770  135.3400 N   0  0  0  0  0  2  0  0  0  0  0  0
  193.5600  175.7300  135.1050 C   0  0  0  0  0  2  0  0  0  0  0  0
  192.3440  176.0010  135.9870 C   0  0  0  0  0  2  0  0  0  0  0  0
  192.7330  175.8380  137.4560 C   0  0  0  0  0  3  0  0  0  0  0  0
  181.8940  179.3320  139.2180 O   0  0  0  0  0  0  0  0  0  0  0  0
  181.7160  180.5070  138.4400 C   0  0  0  0  0  1  0  0  0  0  0  0
  187.2660  176.8430  144.1500 C   0  0  0  0  0  2  0  0  0  0  0  0
  187.8090  177.1280  145.5440 C   0  0  0  0  0  2  0  0  0  0  0  0
  189.2610  177.1530  145.5250 N   0  0  0  0  0  1  0  0  0  0  0  0
  1  4  1  0  0  0  0
  2  9  1  0  0  0  0
  2 17  1  0  0  0  0
  3  5  1  0  0  0  0
  3 15  1  0  0  0  0
  4 11  2  0  0  0  0
  4 15  1  0  0  0  0
  7  5  1  0  0  0  0
  8 10  1  0  0  0  0
  8  1  2  0  0  0  0
  9  7  2  0  0  0  0
 10 13  2  0  0  0  0
 12  1  1  0  0  0  0
 12 17  1  0  0  0  0
 13 11  1  0  0  0  0
 14 29  1  0  0  0  0
 14  6  2  0  0  0  0
 15 14  1  0  0  0  0
 16  2  2  0  0  0  0
 17  3  2  0  0  0  0
 18 20  2  0  0  0  0
 18 19  1  0  0  0  0
 19  9  1  0  0  0  0
 22 21  1  0  0  0  0
 23 22  1  0  0  0  0
 24 23  1  0  0  0  0
 24 25  1  0  0  0  0
 25 26  1  0  0  0  0
 26 21  1  0  0  0  0
 26 18  1  0  0  0  0
 27 10  1  0  0  0  0
 28 27  1  0  0  0  0
 29 30  1  0  0  0  0
 31 30  1  0  0  0  0
M  END
>  <MODEL>
9

>  <REMARK>
 VINA RESULT:      -7.7      2.422      3.290
  Name = 
  5 active torsions:
  status: ('A' for Active; 'I' for Inactive)
    1  A    between atoms: C_3  and  C_23
    2  A    between atoms: C_3  and  C_24
    3  A    between atoms: O_8  and  C_17
    4  A    between atoms: C_9  and  C_31
    5  A    between atoms: N_11  and  C_15
                            x       y       z     vdW  Elec       q    Type
                         _______ _______ _______ _____ _____    ______ ____

>  <TORSDO>
F 5

$$$$
