=
 OpenBabel10222420203D

 27 31  0  0  1  0  0  0  0  0999 V2000
  188.2790  178.5740  139.2420 N   0  0  0  0  0  0  0  0  0  0  0  0
  190.0500  176.9750  139.4910 C   0  0  0  0  0  0  0  0  0  0  0  0
  189.2270  177.7440  138.7160 C   0  0  0  0  0  0  0  0  0  0  0  0
  190.6670  176.3720  141.8560 N   0  0  0  0  0  2  0  0  0  0  0  0
  188.9590  177.8580  141.4230 C   0  0  0  0  0  0  0  0  0  0  0  0
  190.9780  176.2160  138.6080 C   0  0  0  0  0  3  0  0  0  0  0  0
  190.5670  176.6550  137.2640 N   0  0  0  0  0  0  0  0  0  0  0  0
  189.0240  177.7470  142.9140 C   0  0  2  0  0  3  0  0  0  0  0  0
  188.9580  178.1370  136.1540 C   0  0  0  0  0  1  0  0  0  0  0  0
  188.1290  178.6470  140.6040 C   0  0  0  0  0  2  0  0  0  0  0  0
  189.9100  177.0350  140.8680 C   0  0  0  0  0  0  0  0  0  0  0  0
  190.1520  176.8130  143.0870 N   0  0  0  0  0  0  0  0  0  0  0  0
  189.5910  177.5060  137.3430 C   0  0  0  0  0  0  0  0  0  0  0  0
  192.0450  175.9380  146.7840 C   0  0  0  0  0  0  0  0  0  0  0  0
  190.6100  177.3530  145.4420 C   0  0  0  0  0  3  0  0  0  0  0  0
  191.2280  177.0660  146.6620 C   0  0  0  0  0  3  0  0  0  0  0  0
  190.7990  176.5140  144.3340 C   0  0  0  0  0  0  0  0  0  0  0  0
  192.2290  175.0890  145.6880 C   0  0  0  0  0  3  0  0  0  0  0  0
  191.6090  175.3770  144.4680 C   0  0  0  0  0  3  0  0  0  0  0  0
  192.6850  175.6180  148.0880 C   0  0  0  0  0  2  0  0  0  0  0  0
  192.9430  176.7960  148.7880 O   0  0  0  0  0  1  0  0  0  0  0  0
  187.7390  177.1100  143.4360 C   0  0  1  0  0  3  0  0  0  0  0  0
  187.5460  177.4520  144.9000 C   0  0  0  0  0  2  0  0  0  0  0  0
  186.7590  178.1950  143.8430 C   0  0  2  0  0  3  0  0  0  0  0  0
  184.3610  179.7820  143.9270 N   0  0  0  0  0  2  0  0  0  0  0  0
  184.2520  178.4980  143.8280 C   0  0  0  0  0  3  0  0  0  0  0  0
  185.4080  177.6610  143.7820 N   0  0  0  0  0  2  0  0  0  0  0  0
  1 10  1  0  0  0  0
  2 11  1  0  0  0  0
  3  1  2  0  0  0  0
  3  2  1  0  0  0  0
  4 12  1  0  0  0  0
  6  2  2  0  0  0  0
  7 13  2  0  0  0  0
  7  6  1  0  0  0  0
  8  5  1  6  0  0  0
  8 12  1  0  0  0  0
  8 22  1  0  0  0  0
  9 13  1  0  0  0  0
 10  5  1  0  0  0  0
 11  5  2  0  0  0  0
 11  4  1  0  0  0  0
 12 17  1  0  0  0  0
 13  3  1  0  0  0  0
 14 20  1  0  0  0  0
 15 16  2  0  0  0  0
 16 14  1  0  0  0  0
 17 19  2  0  0  0  0
 17 15  1  0  0  0  0
 18 14  2  0  0  0  0
 19 18  1  0  0  0  0
 20 21  1  0  0  0  0
 22 24  1  0  0  0  0
 22 23  1  1  0  0  0
 24 27  1  1  0  0  0
 24 23  1  0  0  0  0
 26 25  2  0  0  0  0
 27 26  1  0  0  0  0
M  END
>  <MODEL>
1

>  <REMARK>
 VINA RESULT:      -8.3      0.000      0.000
  Name = 
  4 active torsions:
  status: ('A' for Active; 'I' for Inactive)
    1  A    between atoms: C_2  and  C_4
    2  A    between atoms: C_6  and  C_14
    3  A    between atoms: N_18  and  C_25
    4  A    between atoms: C_21  and  N_26
                            x       y       z     vdW  Elec       q    Type
                         _______ _______ _______ _____ _____    ______ ____

>  <TORSDO>
F 4

$$$$
=
 OpenBabel10222420203D

 27 31  0  0  1  0  0  0  0  0999 V2000
  190.1640  176.4870  141.9700 N   0  0  0  0  0  0  0  0  0  0  0  0
  188.7960  177.8940  140.5900 C   0  0  0  0  0  0  0  0  0  0  0  0
  189.9470  177.1950  140.8220 C   0  0  0  0  0  0  0  0  0  0  0  0
  186.5400  178.5010  141.5290 N   0  0  0  0  0  2  0  0  0  0  0  0
  188.0070  177.1930  142.7330 C   0  0  0  0  0  0  0  0  0  0  0  0
  188.8730  178.5220  139.2420 C   0  0  0  0  0  3  0  0  0  0  0  0
  190.1970  178.0870  138.7650 N   0  0  0  0  0  0  0  0  0  0  0  0
  186.8000  177.3440  143.6030 C   0  0  2  0  0  3  0  0  0  0  0  0
  192.1300  176.7530  139.4700 C   0  0  0  0  0  1  0  0  0  0  0  0
  189.1990  176.4730  142.9450 C   0  0  0  0  0  2  0  0  0  0  0  0
  187.8120  177.8930  141.5650 C   0  0  0  0  0  0  0  0  0  0  0  0
  185.9190  178.1560  142.7420 N   0  0  0  0  0  0  0  0  0  0  0  0
  190.7810  177.3490  139.6580 C   0  0  0  0  0  0  0  0  0  0  0  0
  181.8070  178.9250  143.4580 C   0  0  0  0  0  0  0  0  0  0  0  0
  183.6110  178.3990  141.9300 C   0  0  0  0  0  3  0  0  0  0  0  0
  182.2550  178.6480  142.1630 C   0  0  0  0  0  3  0  0  0  0  0  0
  184.5300  178.4220  142.9890 C   0  0  0  0  0  0  0  0  0  0  0  0
  182.7150  178.9360  144.5210 C   0  0  0  0  0  3  0  0  0  0  0  0
  184.0700  178.6860  144.2880 C   0  0  0  0  0  3  0  0  0  0  0  0
  180.3620  179.1670  143.7100 C   0  0  0  0  0  2  0  0  0  0  0  0
  179.7030  177.9500  143.8840 O   0  0  0  0  0  1  0  0  0  0  0  0
  187.1670  178.1310  144.8570 C   0  0  1  0  0  3  0  0  0  0  0  0
  186.4530  177.5520  146.0630 C   0  0  0  0  0  2  0  0  0  0  0  0
  187.9110  177.2300  145.8260 C   0  0  2  0  0  3  0  0  0  0  0  0
  190.2460  176.3030  147.2280 N   0  0  0  0  0  2  0  0  0  0  0  0
  189.8860  177.5360  147.3710 C   0  0  0  0  0  3  0  0  0  0  0  0
  188.7340  178.0500  146.6990 N   0  0  0  0  0  2  0  0  0  0  0  0
  1 10  1  0  0  0  0
  2  3  1  0  0  0  0
  2 11  1  0  0  0  0
  3  1  2  0  0  0  0
  4 11  1  0  0  0  0
  4 12  1  0  0  0  0
  5 10  1  0  0  0  0
  6  2  2  0  0  0  0
  7  6  1  0  0  0  0
  7 13  2  0  0  0  0
  8  5  1  6  0  0  0
  8 22  1  0  0  0  0
  9 13  1  0  0  0  0
 11  5  2  0  0  0  0
 12 17  1  0  0  0  0
 12  8  1  0  0  0  0
 13  3  1  0  0  0  0
 14 20  1  0  0  0  0
 14 18  1  0  0  0  0
 15 16  1  0  0  0  0
 15 17  2  0  0  0  0
 16 14  2  0  0  0  0
 17 19  1  0  0  0  0
 19 18  2  0  0  0  0
 20 21  1  0  0  0  0
 22 24  1  0  0  0  0
 22 23  1  1  0  0  0
 24 23  1  0  0  0  0
 24 27  1  1  0  0  0
 25 26  2  0  0  0  0
 27 26  1  0  0  0  0
M  END
>  <MODEL>
2

>  <REMARK>
 VINA RESULT:      -8.3      3.336      6.567
  Name = 
  4 active torsions:
  status: ('A' for Active; 'I' for Inactive)
    1  A    between atoms: C_2  and  C_4
    2  A    between atoms: C_6  and  C_14
    3  A    between atoms: N_18  and  C_25
    4  A    between atoms: C_21  and  N_26
                            x       y       z     vdW  Elec       q    Type
                         _______ _______ _______ _____ _____    ______ ____

>  <TORSDO>
F 4

$$$$
=
 OpenBabel10222420203D

 27 31  0  0  1  0  0  0  0  0999 V2000
  182.4700  178.0510  139.9740 N   0  0  0  0  0  0  0  0  0  0  0  0
  181.8730  178.9850  142.1010 C   0  0  0  0  0  0  0  0  0  0  0  0
  181.5720  178.6480  140.8110 C   0  0  0  0  0  0  0  0  0  0  0  0
  183.6640  178.9350  143.8700 N   0  0  0  0  0  2  0  0  0  0  0  0
  184.0730  178.1220  141.7520 C   0  0  0  0  0  0  0  0  0  0  0  0
  180.6690  179.5870  142.7390 C   0  0  0  0  0  2  0  0  0  0  0  0
  179.6780  179.5420  141.6510 N   0  0  0  0  0  0  0  0  0  0  0  0
  185.3510  177.9340  142.5050 C   0  0  2  0  0  3  0  0  0  0  0  0
  179.4460  178.8290  139.3150 C   0  0  0  0  0  1  0  0  0  0  0  0
  183.7350  177.7770  140.4280 C   0  0  0  0  0  3  0  0  0  0  0  0
  183.1470  178.7170  142.5760 C   0  0  0  0  0  0  0  0  0  0  0  0
  184.9820  178.4460  143.8380 N   0  0  0  0  0  0  0  0  0  0  0  0
  180.1980  179.0160  140.5840 C   0  0  0  0  0  0  0  0  0  0  0  0
  187.2940  178.0380  147.3730 C   0  0  0  0  0  0  0  0  0  0  0  0
  185.5080  179.1160  146.1450 C   0  0  0  0  0  3  0  0  0  0  0  0
  186.2650  178.9820  147.3120 C   0  0  0  0  0  3  0  0  0  0  0  0
  185.7710  178.3070  145.0300 C   0  0  0  0  0  0  0  0  0  0  0  0
  187.5540  177.2170  146.2710 C   0  0  0  0  0  3  0  0  0  0  0  0
  186.7960  177.3520  145.1050 C   0  0  0  0  0  3  0  0  0  0  0  0
  188.0850  177.8770  148.6230 C   0  0  0  0  0  2  0  0  0  0  0  0
  189.3770  178.3660  148.4300 O   0  0  0  0  0  1  0  0  0  0  0  0
  186.4390  178.8130  141.8960 C   0  0  1  0  0  3  0  0  0  0  0  0
  187.8070  178.3180  142.3200 C   0  0  0  0  0  2  0  0  0  0  0  0
  187.2840  177.9910  140.9390 C   0  0  2  0  0  3  0  0  0  0  0  0
  189.4770  177.2770  139.2200 N   0  0  0  0  0  2  0  0  0  0  0  0
  188.9880  178.4710  139.1380 C   0  0  0  0  0  3  0  0  0  0  0  0
  187.9000  178.8800  139.9670 N   0  0  0  0  0  2  0  0  0  0  0  0
  1 10  2  0  0  0  0
  1  3  1  0  0  0  0
  2 11  1  0  0  0  0
  2  6  1  0  0  0  0
  3  2  2  0  0  0  0
  5 11  2  0  0  0  0
  7  6  1  0  0  0  0
  8  5  1  6  0  0  0
  8 12  1  0  0  0  0
  9 13  1  0  0  0  0
 10  5  1  0  0  0  0
 11  4  1  0  0  0  0
 12  4  1  0  0  0  0
 12 17  1  0  0  0  0
 13  3  1  0  0  0  0
 13  7  2  0  0  0  0
 14 20  1  0  0  0  0
 15 16  2  0  0  0  0
 16 14  1  0  0  0  0
 17 19  2  0  0  0  0
 17 15  1  0  0  0  0
 18 14  2  0  0  0  0
 19 18  1  0  0  0  0
 21 20  1  0  0  0  0
 22 23  1  1  0  0  0
 22  8  1  0  0  0  0
 24 27  1  6  0  0  0
 24 22  1  0  0  0  0
 24 23  1  0  0  0  0
 26 25  2  0  0  0  0
 26 27  1  0  0  0  0
M  END
>  <MODEL>
3

>  <REMARK>
 VINA RESULT:      -8.0      3.080      6.703
  Name = 
  4 active torsions:
  status: ('A' for Active; 'I' for Inactive)
    1  A    between atoms: C_2  and  C_4
    2  A    between atoms: C_6  and  C_14
    3  A    between atoms: N_18  and  C_25
    4  A    between atoms: C_21  and  N_26
                            x       y       z     vdW  Elec       q    Type
                         _______ _______ _______ _____ _____    ______ ____

>  <TORSDO>
F 4

$$$$
=
 OpenBabel10222420203D

 27 31  0  0  1  0  0  0  0  0999 V2000
  187.3500  177.2270  145.5050 N   0  0  0  0  0  0  0  0  0  0  0  0
  189.7390  177.4240  145.4160 C   0  0  0  0  0  0  0  0  0  0  0  0
  188.5670  177.3510  146.1130 C   0  0  0  0  0  0  0  0  0  0  0  0
  190.7630  177.3960  143.1150 N   0  0  0  0  0  2  0  0  0  0  0  0
  188.4790  177.2620  143.3940 C   0  0  0  0  0  0  0  0  0  0  0  0
  190.8710  177.5240  146.3780 C   0  0  0  0  0  2  0  0  0  0  0  0
  190.1840  177.4990  147.6800 N   0  0  0  0  0  0  0  0  0  0  0  0
  188.7040  177.2250  141.9150 C   0  0  2  0  0  3  0  0  0  0  0  0
  187.9320  177.3490  148.6410 C   0  0  0  0  0  1  0  0  0  0  0  0
  187.2840  177.1800  144.1350 C   0  0  0  0  0  3  0  0  0  0  0  0
  189.6910  177.3800  144.0320 C   0  0  0  0  0  0  0  0  0  0  0  0
  190.1770  177.2820  141.8430 N   0  0  0  0  0  0  0  0  0  0  0  0
  188.9000  177.4020  147.5140 C   0  0  0  0  0  0  0  0  0  0  0  0
  192.5110  176.6150  138.3620 C   0  0  0  0  0  0  0  0  0  0  0  0
  192.2890  177.5030  140.6040 C   0  0  0  0  0  3  0  0  0  0  0  0
  193.0620  177.2820  139.4610 C   0  0  0  0  0  3  0  0  0  0  0  0
  190.9600  177.0580  140.6610 C   0  0  0  0  0  0  0  0  0  0  0  0
  191.1920  176.1560  138.4160 C   0  0  0  0  0  3  0  0  0  0  0  0
  190.4200  176.3770  139.5600 C   0  0  0  0  0  3  0  0  0  0  0  0
  193.3400  176.3580  137.1540 C   0  0  0  0  0  2  0  0  0  0  0  0
  194.4910  175.6560  137.5120 O   0  0  0  0  0  1  0  0  0  0  0  0
  188.1070  178.4740  141.2750 C   0  0  1  0  0  3  0  0  0  0  0  0
  187.9230  178.2590  139.7850 C   0  0  0  0  0  2  0  0  0  0  0  0
  186.7330  178.1530  140.7130 C   0  0  2  0  0  3  0  0  0  0  0  0
  183.8620  178.2650  140.5850 N   0  0  0  0  0  2  0  0  0  0  0  0
  184.5260  179.3740  140.5770 C   0  0  0  0  0  3  0  0  0  0  0  0
  185.9540  179.3780  140.6380 N   0  0  0  0  0  2  0  0  0  0  0  0
  1  3  1  0  0  0  0
  2  3  2  0  0  0  0
  2  6  1  0  0  0  0
  3 13  1  0  0  0  0
  4 11  1  0  0  0  0
  5 11  2  0  0  0  0
  5 10  1  0  0  0  0
  6  7  1  0  0  0  0
  8  5  1  1  0  0  0
 10  1  2  0  0  0  0
 11  2  1  0  0  0  0
 12  8  1  0  0  0  0
 12  4  1  0  0  0  0
 13  7  2  0  0  0  0
 13  9  1  0  0  0  0
 14 18  2  0  0  0  0
 14 16  1  0  0  0  0
 15 17  1  0  0  0  0
 16 15  2  0  0  0  0
 17 12  1  0  0  0  0
 18 19  1  0  0  0  0
 19 17  2  0  0  0  0
 20 21  1  0  0  0  0
 20 14  1  0  0  0  0
 22 23  1  6  0  0  0
 22  8  1  0  0  0  0
 23 24  1  0  0  0  0
 24 27  1  6  0  0  0
 24 22  1  0  0  0  0
 26 25  2  0  0  0  0
 26 27  1  0  0  0  0
M  END
>  <MODEL>
4

>  <REMARK>
 VINA RESULT:      -7.8      3.079      6.619
  Name = 
  4 active torsions:
  status: ('A' for Active; 'I' for Inactive)
    1  A    between atoms: C_2  and  C_4
    2  A    between atoms: C_6  and  C_14
    3  A    between atoms: N_18  and  C_25
    4  A    between atoms: C_21  and  N_26
                            x       y       z     vdW  Elec       q    Type
                         _______ _______ _______ _____ _____    ______ ____

>  <TORSDO>
F 4

$$$$
=
 OpenBabel10222420203D

 27 31  0  0  1  0  0  0  0  0999 V2000
  187.0590  178.3440  145.5710 N   0  0  0  0  0  0  0  0  0  0  0  0
  186.4250  177.8780  143.3040 C   0  0  0  0  0  0  0  0  0  0  0  0
  186.1170  178.2340  144.5870 C   0  0  0  0  0  0  0  0  0  0  0  0
  188.2990  177.2660  141.7380 N   0  0  0  0  0  2  0  0  0  0  0  0
  188.7140  177.7030  143.9630 C   0  0  0  0  0  0  0  0  0  0  0  0
  185.1790  177.8820  142.4880 C   0  0  0  0  0  3  0  0  0  0  0  0
  184.1570  178.2800  143.4710 N   0  0  0  0  0  0  0  0  0  0  0  0
  190.0450  177.3740  143.3650 C   0  0  2  0  0  3  0  0  0  0  0  0
  183.9250  178.8860  145.8360 C   0  0  0  0  0  1  0  0  0  0  0  0
  188.3730  178.0810  145.2760 C   0  0  0  0  0  2  0  0  0  0  0  0
  187.7470  177.6070  142.9910 C   0  0  0  0  0  0  0  0  0  0  0  0
  189.6830  177.1460  141.9540 N   0  0  0  0  0  0  0  0  0  0  0  0
  184.6970  178.4720  144.6350 C   0  0  0  0  0  0  0  0  0  0  0  0
  192.4150  176.7390  138.7320 C   0  0  0  0  0  0  0  0  0  0  0  0
  190.2130  176.3870  139.6760 C   0  0  0  0  0  3  0  0  0  0  0  0
  191.1090  176.2550  138.6110 C   0  0  0  0  0  3  0  0  0  0  0  0
  190.6130  177.0070  140.8690 C   0  0  0  0  0  0  0  0  0  0  0  0
  192.8180  177.3710  139.9130 C   0  0  0  0  0  3  0  0  0  0  0  0
  191.9200  177.5030  140.9770 C   0  0  0  0  0  3  0  0  0  0  0  0
  193.3620  176.6200  137.5920 C   0  0  0  0  0  2  0  0  0  0  0  0
  194.3050  175.6290  137.8630 O   0  0  0  0  0  1  0  0  0  0  0  0
  190.5770  176.0830  143.9790 C   0  0  1  0  0  3  0  0  0  0  0  0
  192.0300  175.8830  143.5950 C   0  0  0  0  0  2  0  0  0  0  0  0
  191.6800  176.4040  144.9710 C   0  0  2  0  0  3  0  0  0  0  0  0
  192.0560  176.7580  147.8000 N   0  0  0  0  0  2  0  0  0  0  0  0
  191.9660  175.5570  147.3330 C   0  0  0  0  0  3  0  0  0  0  0  0
  191.7800  175.3220  145.9360 N   0  0  0  0  0  2  0  0  0  0  0  0
  2  3  1  0  0  0  0
  3 13  1  0  0  0  0
  3  1  2  0  0  0  0
  4 12  1  0  0  0  0
  4 11  1  0  0  0  0
  5 10  1  0  0  0  0
  6  2  2  0  0  0  0
  6  7  1  0  0  0  0
  7 13  2  0  0  0  0
  8  5  1  1  0  0  0
  8 22  1  0  0  0  0
 10  1  1  0  0  0  0
 11  2  1  0  0  0  0
 11  5  2  0  0  0  0
 12  8  1  0  0  0  0
 13  9  1  0  0  0  0
 14 18  1  0  0  0  0
 15 17  2  0  0  0  0
 16 14  2  0  0  0  0
 16 15  1  0  0  0  0
 17 19  1  0  0  0  0
 17 12  1  0  0  0  0
 18 19  2  0  0  0  0
 20 21  1  0  0  0  0
 20 14  1  0  0  0  0
 22 23  1  6  0  0  0
 22 24  1  0  0  0  0
 23 24  1  0  0  0  0
 24 27  1  1  0  0  0
 26 25  2  0  0  0  0
 27 26  1  0  0  0  0
M  END
>  <MODEL>
5

>  <REMARK>
 VINA RESULT:      -7.7      2.821      6.772
  Name = 
  4 active torsions:
  status: ('A' for Active; 'I' for Inactive)
    1  A    between atoms: C_2  and  C_4
    2  A    between atoms: C_6  and  C_14
    3  A    between atoms: N_18  and  C_25
    4  A    between atoms: C_21  and  N_26
                            x       y       z     vdW  Elec       q    Type
                         _______ _______ _______ _____ _____    ______ ____

>  <TORSDO>
F 4

$$$$
=
 OpenBabel10222420203D

 27 31  0  0  1  0  0  0  0  0999 V2000
  183.5880  178.2200  141.2700 N   0  0  0  0  0  0  0  0  0  0  0  0
  183.8830  178.6950  143.6030 C   0  0  0  0  0  0  0  0  0  0  0  0
  183.1060  178.6280  142.4800 C   0  0  0  0  0  0  0  0  0  0  0  0
  186.1910  178.2920  144.5270 N   0  0  0  0  0  2  0  0  0  0  0  0
  185.7330  177.9330  142.2970 C   0  0  0  0  0  0  0  0  0  0  0  0
  183.0450  179.1460  144.7480 C   0  0  0  0  0  2  0  0  0  0  0  0
  181.7230  179.3200  144.1230 N   0  0  0  0  0  0  0  0  0  0  0  0
  187.1810  177.6020  142.4650 C   0  0  2  0  0  3  0  0  0  0  0  0
  180.5980  179.1010  141.9540 C   0  0  0  0  0  1  0  0  0  0  0  0
  184.9090  177.8650  141.1560 C   0  0  0  0  0  3  0  0  0  0  0  0
  185.2200  178.3420  143.5050 C   0  0  0  0  0  0  0  0  0  0  0  0
  187.3660  177.8270  143.9110 N   0  0  0  0  0  0  0  0  0  0  0  0
  181.7750  179.0270  142.8600 C   0  0  0  0  0  0  0  0  0  0  0  0
  190.8070  176.7190  146.1350 C   0  0  0  0  0  0  0  0  0  0  0  0
  189.5660  176.7400  144.0550 C   0  0  0  0  0  3  0  0  0  0  0  0
  190.7030  176.3770  144.7830 C   0  0  0  0  0  3  0  0  0  0  0  0
  188.5250  177.4510  144.6700 C   0  0  0  0  0  0  0  0  0  0  0  0
  189.7790  177.4390  146.7520 C   0  0  0  0  0  3  0  0  0  0  0  0
  188.6430  177.8020  146.0230 C   0  0  0  0  0  3  0  0  0  0  0  0
  192.0250  176.3530  146.9040 C   0  0  0  0  0  2  0  0  0  0  0  0
  192.0530  177.0570  148.1080 O   0  0  0  0  0  1  0  0  0  0  0  0
  188.0290  178.5930  141.6740 C   0  0  1  0  0  3  0  0  0  0  0  0
  189.4450  178.0690  141.5300 C   0  0  0  0  0  2  0  0  0  0  0  0
  188.4790  177.9560  140.3710 C   0  0  2  0  0  3  0  0  0  0  0  0
  189.0840  177.5080  137.5950 N   0  0  0  0  0  2  0  0  0  0  0  0
  189.0550  178.7230  138.0350 C   0  0  0  0  0  3  0  0  0  0  0  0
  188.7610  179.0040  139.4040 N   0  0  0  0  0  2  0  0  0  0  0  0
  1  3  1  0  0  0  0
  2  6  1  0  0  0  0
  3 13  1  0  0  0  0
  3  2  2  0  0  0  0
  5 11  2  0  0  0  0
  7  6  1  0  0  0  0
  8  5  1  6  0  0  0
  8 12  1  0  0  0  0
  9 13  1  0  0  0  0
 10  1  2  0  0  0  0
 10  5  1  0  0  0  0
 11  2  1  0  0  0  0
 11  4  1  0  0  0  0
 12  4  1  0  0  0  0
 12 17  1  0  0  0  0
 13  7  2  0  0  0  0
 14 18  1  0  0  0  0
 14 20  1  0  0  0  0
 15 17  2  0  0  0  0
 15 16  1  0  0  0  0
 16 14  2  0  0  0  0
 17 19  1  0  0  0  0
 19 18  2  0  0  0  0
 20 21  1  0  0  0  0
 22 23  1  1  0  0  0
 22  8  1  0  0  0  0
 24 27  1  6  0  0  0
 24 23  1  0  0  0  0
 24 22  1  0  0  0  0
 25 26  2  0  0  0  0
 26 27  1  0  0  0  0
M  END
>  <MODEL>
6

>  <REMARK>
 VINA RESULT:      -7.6      1.765      5.823
  Name = 
  4 active torsions:
  status: ('A' for Active; 'I' for Inactive)
    1  A    between atoms: C_2  and  C_4
    2  A    between atoms: C_6  and  C_14
    3  A    between atoms: N_18  and  C_25
    4  A    between atoms: C_21  and  N_26
                            x       y       z     vdW  Elec       q    Type
                         _______ _______ _______ _____ _____    ______ ____

>  <TORSDO>
F 4

$$$$
=
 OpenBabel10222420203D

 27 31  0  0  1  0  0  0  0  0999 V2000
  188.6510  178.2020  137.5010 N   0  0  0  0  0  0  0  0  0  0  0  0
  190.0100  176.6820  138.7650 C   0  0  0  0  0  0  0  0  0  0  0  0
  189.6050  177.2280  137.5800 C   0  0  0  0  0  0  0  0  0  0  0  0
  189.7030  176.7460  141.2630 N   0  0  0  0  0  2  0  0  0  0  0  0
  188.4510  178.1030  139.8850 C   0  0  0  0  0  0  0  0  0  0  0  0
  191.0770  175.6780  138.4980 C   0  0  0  0  0  3  0  0  0  0  0  0
  191.2080  175.7370  137.0330 N   0  0  0  0  0  0  0  0  0  0  0  0
  187.9900  178.4100  141.2740 C   0  0  2  0  0  3  0  0  0  0  0  0
  190.2760  176.8980  135.0830 C   0  0  0  0  0  1  0  0  0  0  0  0
  188.0570  178.6570  138.6510 C   0  0  0  0  0  2  0  0  0  0  0  0
  189.4190  177.1290  139.9360 C   0  0  0  0  0  0  0  0  0  0  0  0
  188.8620  177.5280  142.0730 N   0  0  0  0  0  0  0  0  0  0  0  0
  190.3810  176.6060  136.5370 C   0  0  0  0  0  0  0  0  0  0  0  0
  189.2860  177.6760  146.2930 C   0  0  0  0  0  0  0  0  0  0  0  0
  190.1190  178.1920  144.0780 C   0  0  0  0  0  3  0  0  0  0  0  0
  190.2600  178.2460  145.4680 C   0  0  0  0  0  3  0  0  0  0  0  0
  189.0020  177.5710  143.5010 C   0  0  0  0  0  0  0  0  0  0  0  0
  188.1630  177.0670  145.7260 C   0  0  0  0  0  3  0  0  0  0  0  0
  188.0220  177.0140  144.3360 C   0  0  0  0  0  3  0  0  0  0  0  0
  189.4230  177.7530  147.7710 C   0  0  0  0  0  2  0  0  0  0  0  0
  188.3300  178.4280  148.3120 O   0  0  0  0  0  1  0  0  0  0  0  0
  186.5340  177.9840  141.4370 C   0  0  1  0  0  3  0  0  0  0  0  0
  185.9420  178.6160  142.6810 C   0  0  0  0  0  2  0  0  0  0  0  0
  185.6290  179.1980  141.3200 C   0  0  2  0  0  3  0  0  0  0  0  0
  184.2210  180.2080  139.0250 N   0  0  0  0  0  2  0  0  0  0  0  0
  183.6530  179.3020  139.7510 C   0  0  0  0  0  3  0  0  0  0  0  0
  184.3060  178.7650  140.9030 N   0  0  0  0  0  2  0  0  0  0  0  0
  1  3  2  0  0  0  0
  1 10  1  0  0  0  0
  2 11  1  0  0  0  0
  3  2  1  0  0  0  0
  4 12  1  0  0  0  0
  5 11  2  0  0  0  0
  6  2  2  0  0  0  0
  7  6  1  0  0  0  0
  8  5  1  6  0  0  0
  8 22  1  0  0  0  0
  8 12  1  0  0  0  0
  9 13  1  0  0  0  0
 10  5  1  0  0  0  0
 11  4  1  0  0  0  0
 12 17  1  0  0  0  0
 13  7  2  0  0  0  0
 13  3  1  0  0  0  0
 14 20  1  0  0  0  0
 15 16  1  0  0  0  0
 16 14  2  0  0  0  0
 17 15  2  0  0  0  0
 17 19  1  0  0  0  0
 18 14  1  0  0  0  0
 19 18  2  0  0  0  0
 20 21  1  0  0  0  0
 22 23  1  1  0  0  0
 24 27  1  6  0  0  0
 24 22  1  0  0  0  0
 24 23  1  0  0  0  0
 25 26  2  0  0  0  0
 26 27  1  0  0  0  0
M  END
>  <MODEL>
7

>  <REMARK>
 VINA RESULT:      -7.6      2.189      2.752
  Name = 
  4 active torsions:
  status: ('A' for Active; 'I' for Inactive)
    1  A    between atoms: C_2  and  C_4
    2  A    between atoms: C_6  and  C_14
    3  A    between atoms: N_18  and  C_25
    4  A    between atoms: C_21  and  N_26
                            x       y       z     vdW  Elec       q    Type
                         _______ _______ _______ _____ _____    ______ ____

>  <TORSDO>
F 4

$$$$
=
 OpenBabel10222420203D

 27 31  0  0  1  0  0  0  0  0999 V2000
  188.2630  177.0290  145.3830 N   0  0  0  0  0  0  0  0  0  0  0  0
  190.2150  177.5040  144.0720 C   0  0  0  0  0  0  0  0  0  0  0  0
  189.6100  177.2160  145.2630 C   0  0  2  0  0  3  0  0  0  0  0  0
  189.8280  177.8670  141.6100 N   0  0  0  0  0  2  0  0  0  0  0  0
  188.0650  177.4430  143.0330 C   0  0  0  0  0  0  0  0  0  0  0  0
  191.6840  177.6160  144.2870 C   0  0  0  0  0  3  0  0  0  0  0  0
  191.8130  177.3570  145.7310 N   0  0  0  0  0  0  0  0  0  0  0  0
  187.4530  177.6090  141.6780 C   0  0  2  0  0  3  0  0  0  0  0  0
  190.4480  176.8400  147.7020 C   0  0  0  0  0  1  0  0  0  0  0  0
  187.4670  177.1380  144.2720 C   0  0  0  0  0  3  0  0  0  0  0  0
  189.4250  177.6200  142.9390 C   0  0  0  0  0  0  0  0  0  0  0  0
  188.6490  177.8400  140.8450 N   0  0  0  0  0  0  0  0  0  0  0  0
  190.6490  177.1370  146.2590 C   0  0  0  0  0  0  0  0  0  0  0  0
  188.6980  177.8540  136.6020 C   0  0  0  0  0  0  0  0  0  0  0  0
  188.2960  176.7030  138.6940 C   0  0  0  0  0  3  0  0  0  0  0  0
  188.3070  176.7050  137.2960 C   0  0  0  0  0  3  0  0  0  0  0  0
  188.6720  177.8490  139.4100 C   0  0  0  0  0  0  0  0  0  0  0  0
  189.0610  179.0050  137.3070 C   0  0  0  0  0  3  0  0  0  0  0  0
  189.0480  179.0020  138.7050 C   0  0  0  0  0  3  0  0  0  0  0  0
  188.6870  177.8650  135.1150 C   0  0  0  0  0  2  0  0  0  0  0  0
  189.1140  176.6290  134.6300 O   0  0  0  0  0  1  0  0  0  0  0  0
  186.5660  178.8490  141.6650 C   0  0  1  0  0  3  0  0  0  0  0  0
  185.4720  178.6970  140.6260 C   0  0  0  0  0  2  0  0  0  0  0  0
  185.1560  178.4750  142.0880 C   0  0  2  0  0  3  0  0  0  0  0  0
  184.2150  178.7420  144.7930 N   0  0  0  0  0  2  0  0  0  0  0  0
  184.0460  179.7300  143.9770 C   0  0  0  0  0  3  0  0  0  0  0  0
  184.4930  179.6520  142.6230 N   0  0  0  0  0  2  0  0  0  0  0  0
  2  6  2  0  0  0  0
  3  2  1  6  0  0  0
  3  1  1  0  0  0  0
  3 13  1  0  0  0  0
  4 11  1  0  0  0  0
  5 10  1  0  0  0  0
  6  7  1  0  0  0  0
  7 13  2  0  0  0  0
  8  5  1  1  0  0  0
 10  1  2  0  0  0  0
 11  5  2  0  0  0  0
 11  2  1  0  0  0  0
 12  4  1  0  0  0  0
 12  8  1  0  0  0  0
 13  9  1  0  0  0  0
 14 16  2  0  0  0  0
 14 18  1  0  0  0  0
 15 17  2  0  0  0  0
 16 15  1  0  0  0  0
 17 12  1  0  0  0  0
 18 19  2  0  0  0  0
 19 17  1  0  0  0  0
 20 14  1  0  0  0  0
 21 20  1  0  0  0  0
 22 23  1  6  0  0  0
 22  8  1  0  0  0  0
 22 24  1  0  0  0  0
 23 24  1  0  0  0  0
 24 27  1  1  0  0  0
 26 25  2  0  0  0  0
 27 26  1  0  0  0  0
M  END
>  <MODEL>
8

>  <REMARK>
 VINA RESULT:      -7.4      3.329      7.118
  Name = 
  4 active torsions:
  status: ('A' for Active; 'I' for Inactive)
    1  A    between atoms: C_2  and  C_4
    2  A    between atoms: C_6  and  C_14
    3  A    between atoms: N_18  and  C_25
    4  A    between atoms: C_21  and  N_26
                            x       y       z     vdW  Elec       q    Type
                         _______ _______ _______ _____ _____    ______ ____

>  <TORSDO>
F 4

$$$$
=
 OpenBabel10222420203D

 27 31  0  0  1  0  0  0  0  0999 V2000
  190.7730  177.7090  144.7810 N   0  0  0  0  0  0  0  0  0  0  0  0
  188.5270  177.3560  145.5460 C   0  0  0  0  0  0  0  0  0  0  0  0
  189.8760  177.4030  145.7630 C   0  0  0  0  0  0  0  0  0  0  0  0
  186.7140  177.6730  143.8270 N   0  0  0  0  0  2  0  0  0  0  0  0
  188.9350  177.9260  143.2620 C   0  0  0  0  0  0  0  0  0  0  0  0
  187.8400  177.0250  146.8250 C   0  0  0  0  0  2  0  0  0  0  0  0
  188.9660  176.8940  147.7640 N   0  0  0  0  0  0  0  0  0  0  0  0
  188.1700  178.1780  142.0010 C   0  0  2  0  0  3  0  0  0  0  0  0
  191.4130  177.0530  147.8380 C   0  0  0  0  0  1  0  0  0  0  0  0
  190.3200  177.9760  143.5140 C   0  0  0  0  0  3  0  0  0  0  0  0
  188.0520  177.6210  144.2710 C   0  0  0  0  0  0  0  0  0  0  0  0
  186.7790  178.0280  142.4690 N   0  0  0  0  0  0  0  0  0  0  0  0
  190.0920  177.1090  147.1560 C   0  0  0  0  0  0  0  0  0  0  0  0
  183.3050  179.0710  140.2650 C   0  0  0  0  0  0  0  0  0  0  0  0
  184.3330  178.1850  142.2700 C   0  0  0  0  0  3  0  0  0  0  0  0
  183.1870  178.5310  141.5490 C   0  0  0  0  0  3  0  0  0  0  0  0
  185.6070  178.3780  141.7160 C   0  0  0  0  0  0  0  0  0  0  0  0
  184.5720  179.2800  139.7110 C   0  0  0  0  0  3  0  0  0  0  0  0
  185.7180  178.9340  140.4330 C   0  0  0  0  0  3  0  0  0  0  0  0
  182.0880  179.4620  139.5060 C   0  0  0  0  0  2  0  0  0  0  0  0
  182.3670  180.5660  138.7010 O   0  0  0  0  0  1  0  0  0  0  0  0
  188.4940  177.0930  140.9800 C   0  0  1  0  0  3  0  0  0  0  0  0
  188.5010  177.6780  139.5810 C   0  0  0  0  0  2  0  0  0  0  0  0
  189.8090  177.4120  140.2920 C   0  0  2  0  0  3  0  0  0  0  0  0
  191.0150  177.1110  137.6980 N   0  0  0  0  0  2  0  0  0  0  0  0
  190.9780  176.0880  138.4870 C   0  0  0  0  0  3  0  0  0  0  0  0
  190.3910  176.1800  139.7870 N   0  0  0  0  0  2  0  0  0  0  0  0
  1  3  1  0  0  0  0
  2  3  2  0  0  0  0
  2  6  1  0  0  0  0
  3 13  1  0  0  0  0
  4 11  1  0  0  0  0
  5 10  1  0  0  0  0
  5 11  2  0  0  0  0
  6  7  1  0  0  0  0
  8 12  1  0  0  0  0
  8  5  1  1  0  0  0
 10  1  2  0  0  0  0
 11  2  1  0  0  0  0
 12  4  1  0  0  0  0
 13  7  2  0  0  0  0
 13  9  1  0  0  0  0
 14 16  1  0  0  0  0
 16 15  2  0  0  0  0
 17 15  1  0  0  0  0
 17 12  1  0  0  0  0
 18 14  2  0  0  0  0
 18 19  1  0  0  0  0
 19 17  2  0  0  0  0
 20 14  1  0  0  0  0
 21 20  1  0  0  0  0
 22 23  1  6  0  0  0
 22  8  1  0  0  0  0
 23 24  1  0  0  0  0
 24 27  1  6  0  0  0
 24 22  1  0  0  0  0
 25 26  2  0  0  0  0
 26 27  1  0  0  0  0
M  END
>  <MODEL>
9

>  <REMARK>
 VINA RESULT:      -7.2      3.621      8.190
  Name = 
  4 active torsions:
  status: ('A' for Active; 'I' for Inactive)
    1  A    between atoms: C_2  and  C_4
    2  A    between atoms: C_6  and  C_14
    3  A    between atoms: N_18  and  C_25
    4  A    between atoms: C_21  and  N_26
                            x       y       z     vdW  Elec       q    Type
                         _______ _______ _______ _____ _____    ______ ____

>  <TORSDO>
F 4

$$$$
