=
 OpenBabel10222419223D

 49 52  0  0  1  0  0  0  0  0999 V2000
  187.8220  176.4850  143.6990 C   0  0  0  0  0  2  0  0  0  0  0  0
  191.5580  177.7530  143.2990 C   0  0  2  0  0  3  0  0  0  0  0  0
  190.1480  177.3810  143.8720 C   0  0  2  0  0  0  0  0  0  0  0  0
  190.1880  175.8400  143.8060 C   0  0  0  0  0  2  0  0  0  0  0  0
  189.1740  176.5600  143.0060 C   0  0  1  0  0  3  0  0  0  0  0  0
  190.3680  178.5150  142.8670 C   0  0  0  0  0  2  0  0  0  0  0  0
  191.9940  176.9330  142.1650 N   0  0  0  0  0  2  0  0  0  0  0  0
  191.8250  177.6800  140.9790 N   0  0  0  0  0  2  0  0  0  0  0  0
  191.2070  176.8160  139.9760 C   0  0  0  0  0  2  0  0  0  0  0  0
  191.2550  175.9810  137.6440 C   0  0  0  0  0  3  0  0  0  0  0  0
  191.8430  176.9830  138.5940 C   0  0  2  0  0  3  0  0  0  0  0  0
  193.2520  176.5990  138.6570 N   0  0  0  0  0  0  0  0  0  0  0  0
  193.4260  175.5560  137.9100 C   0  0  0  0  0  0  0  0  0  0  0  0
  192.2010  175.1440  137.2360 C   0  0  0  0  0  3  0  0  0  0  0  0
  194.7760  174.9290  137.7490 C   0  0  1  0  0  3  0  0  0  0  0  0
  196.6080  174.9710  139.2830 O   0  0  0  0  0  1  0  0  0  0  0  0
  195.3400  174.4290  139.0790 C   0  0  0  0  0  2  0  0  0  0  0  0
  194.7700  173.8590  136.6570 C   0  0  0  0  0  2  0  0  0  0  0  0
  195.6740  172.6740  136.9750 C   0  0  1  0  0  3  0  0  0  0  0  0
  194.9050  171.3870  136.7450 C   0  0  0  0  0  1  0  0  0  0  0  0
  196.8810  172.7110  136.0530 C   0  0  0  0  0  2  0  0  0  0  0  0
  198.1620  172.9780  136.8310 C   0  0  0  0  0  2  0  0  0  0  0  0
  198.9300  174.1490  136.2430 C   0  0  0  0  0  2  0  0  0  0  0  0
  198.0270  174.9980  135.3490 C   0  0  0  0  0  2  0  0  0  0  0  0
  197.5400  176.1530  136.0890 N   0  0  0  0  0  1  0  0  0  0  0  0
  186.8850  177.5570  143.1440 C   0  0  2  0  0  3  0  0  0  0  0  0
  186.3100  178.4790  140.8360 C   0  0  0  0  0  0  0  0  0  0  0  0
  186.6570  178.6970  139.6040 N   0  0  0  0  0  0  0  0  0  0  0  0
  187.2330  177.8870  141.7610 N   0  0  0  0  0  2  0  0  0  0  0  0
  184.9780  178.8010  141.2590 N   0  0  0  0  0  2  0  0  0  0  0  0
  187.9890  178.4330  139.0780 C   0  0  0  0  0  2  0  0  0  0  0  0
  187.3770  176.5320  137.5840 O   0  0  0  0  0  1  0  0  0  0  0  0
  188.3610  178.4540  136.6670 C   0  0  0  0  0  2  0  0  0  0  0  0
  187.9010  177.8070  137.7280 C   0  0  0  0  0  0  0  0  0  0  0  0
  183.9050  179.1170  140.3280 C   0  0  0  0  0  2  0  0  0  0  0  0
  182.7800  178.1120  140.4970 C   0  0  0  0  0  2  0  0  0  0  0  0
  183.1950  176.8220  139.9740 N   0  0  0  0  0  2  0  0  0  0  0  0
  181.9930  176.1440  139.4970 C   0  0  0  0  0  2  0  0  0  0  0  0
  180.9770  176.9600  137.3680 C   0  0  0  0  0  1  0  0  0  0  0  0
  182.0090  176.0300  137.9730 C   0  0  1  0  0  3  0  0  0  0  0  0
  183.2760  176.3840  137.4960 O   0  0  0  0  0  1  0  0  0  0  0  0
  186.8610  178.7440  144.0200 N   0  0  0  0  0  2  0  0  0  0  0  0
  185.8290  178.7300  145.0600 C   0  0  2  0  0  0  0  0  0  0  0  0
  187.6810  178.2660  146.7610 C   0  0  0  0  0  1  0  0  0  0  0  0
  186.2010  178.4870  146.5240 C   0  0  2  0  0  3  0  0  0  0  0  0
  185.6780  177.3470  145.6610 C   0  0  0  0  0  2  0  0  0  0  0  0
  184.4680  179.3300  144.7380 C   0  0  0  0  0  2  0  0  0  0  0  0
  182.4490  179.0230  143.9380 C   0  0  0  0  0  1  0  0  0  0  0  0
  183.5820  178.3320  144.3450 O   0  0  0  0  0  0  0  0  0  0  0  0
  2  7  1  6  0  0  0
  2  3  1  0  0  0  0
  3  6  1  1  0  0  0
  4  3  1  0  0  0  0
  5  1  1  1  0  0  0
  5  4  1  0  0  0  0
  5  3  1  0  0  0  0
  6  2  1  0  0  0  0
  8  7  1  0  0  0  0
  9  8  1  0  0  0  0
 10 11  1  0  0  0  0
 11 12  1  0  0  0  0
 11  9  1  1  0  0  0
 13 12  2  0  0  0  0
 14 10  2  0  0  0  0
 14 13  1  0  0  0  0
 15 18  1  6  0  0  0
 15 13  1  0  0  0  0
 15 17  1  0  0  0  0
 17 16  1  0  0  0  0
 18 19  1  0  0  0  0
 19 20  1  6  0  0  0
 21 22  1  0  0  0  0
 21 19  1  0  0  0  0
 23 22  1  0  0  0  0
 24 25  1  0  0  0  0
 24 23  1  0  0  0  0
 26  1  1  1  0  0  0
 26 42  1  0  0  0  0
 27 30  1  0  0  0  0
 27 29  1  0  0  0  0
 28 27  2  0  0  0  0
 29 26  1  0  0  0  0
 31 28  1  0  0  0  0
 32 34  1  0  0  0  0
 33 34  2  0  0  0  0
 34 31  1  0  0  0  0
 35 36  1  0  0  0  0
 35 30  1  0  0  0  0
 37 36  1  0  0  0  0
 38 37  1  0  0  0  0
 40 39  1  6  0  0  0
 40 38  1  0  0  0  0
 41 40  1  0  0  0  0
 42 43  1  0  0  0  0
 43 47  1  6  0  0  0
 43 46  1  0  0  0  0
 43 45  1  0  0  0  0
 45 44  1  6  0  0  0
 46 45  1  0  0  0  0
 48 49  1  0  0  0  0
 49 47  1  0  0  0  0
M  END
>  <MODEL>
1

>  <REMARK>
 VINA RESULT:      -5.4      0.000      0.000
  Name = 
  26 active torsions:
  status: ('A' for Active; 'I' for Inactive)
    1  A    between atoms: C_1  and  N_12
    2  A    between atoms: C_3  and  C_4
    3  A    between atoms: C_3  and  N_32
    4  A    between atoms: C_4  and  N_49
    5  A    between atoms: C_7  and  C_17
    6  A    between atoms: C_7  and  C_24
    7  A    between atoms: C_8  and  N_10
    8  A    between atoms: C_8  and  C_23
    9  A    between atoms: N_10  and  C_44
   10  A    between atoms: C_11  and  C_39
   11  A    between atoms: N_12  and  N_15
   12  A    between atoms: C_14  and  C_37
   13  A    between atoms: N_15  and  C_37
   14  A    between atoms: C_17  and  C_39
   15  A    between atoms: C_19  and  C_46
   16  A    between atoms: C_20  and  C_28
   17  A    between atoms: C_20  and  C_44
   18  A    between atoms: C_23  and  O_35
   19  A    between atoms: C_24  and  C_36
   20  A    between atoms: C_29  and  C_31
   21  A    between atoms: C_29  and  C_36
   22  A    between atoms: C_29  and  C_47
   23  A    between atoms: N_32  and  C_46
   24  A    between atoms: N_38  and  C_43
   25  A    between atoms: C_42  and  C_43
   26  A    between atoms: C_44  and  N_48
                            x       y       z     vdW  Elec       q    Type
                         _______ _______ _______ _____ _____    ______ ____

>  <TORSDO>
F 26

$$$$
=
 OpenBabel10222419223D

 49 52  0  0  1  0  0  0  0  0999 V2000
  184.8780  177.6800  142.1890 C   0  0  0  0  0  2  0  0  0  0  0  0
  182.2550  178.9970  139.5220 C   0  0  2  0  0  3  0  0  0  0  0  0
  183.0820  178.7650  140.8330 C   0  0  2  0  0  0  0  0  0  0  0  0
  184.4550  179.3440  140.4360 C   0  0  0  0  0  2  0  0  0  0  0  0
  184.3610  177.9090  140.7770 C   0  0  1  0  0  3  0  0  0  0  0  0
  182.1370  177.7120  140.2430 C   0  0  0  0  0  2  0  0  0  0  0  0
  182.9920  178.7420  138.2810 N   0  0  0  0  0  2  0  0  0  0  0  0
  182.0600  178.4970  137.2480 N   0  0  0  0  0  2  0  0  0  0  0  0
  182.4130  177.2350  136.6010 C   0  0  0  0  0  2  0  0  0  0  0  0
  180.1810  176.4380  137.3210 C   0  0  0  0  0  3  0  0  0  0  0  0
  181.1790  176.4230  136.2010 C   0  0  2  0  0  3  0  0  0  0  0  0
  181.5390  175.0110  136.0910 N   0  0  0  0  0  0  0  0  0  0  0  0
  180.8930  174.3520  136.9980 C   0  0  0  0  0  0  0  0  0  0  0  0
  180.0100  175.2060  137.7840 C   0  0  0  0  0  3  0  0  0  0  0  0
  181.0350  172.8670  137.1330 C   0  0  1  0  0  3  0  0  0  0  0  0
  179.9210  170.8230  136.5940 O   0  0  0  0  0  1  0  0  0  0  0  0
  179.6970  172.1460  136.9720 C   0  0  0  0  0  2  0  0  0  0  0  0
  182.1270  172.3230  136.2110 C   0  0  0  0  0  2  0  0  0  0  0  0
  183.2430  171.6100  136.9630 C   0  0  1  0  0  3  0  0  0  0  0  0
  183.9060  170.6100  136.0350 C   0  0  0  0  0  1  0  0  0  0  0  0
  184.2700  172.6350  137.4140 C   0  0  0  0  0  2  0  0  0  0  0  0
  185.6070  172.4210  136.7170 C   0  0  0  0  0  2  0  0  0  0  0  0
  186.3750  173.7240  136.5860 C   0  0  0  0  0  2  0  0  0  0  0  0
  185.4420  174.9240  136.7470 C   0  0  0  0  0  2  0  0  0  0  0  0
  185.5160  175.7720  135.5670 N   0  0  0  0  0  1  0  0  0  0  0  0
  186.0790  178.5830  142.4640 C   0  0  2  0  0  3  0  0  0  0  0  0
  188.2240  177.8080  141.3180 C   0  0  0  0  0  0  0  0  0  0  0  0
  189.2860  177.0630  141.3280 N   0  0  0  0  0  0  0  0  0  0  0  0
  187.3260  177.8150  142.4360 N   0  0  0  0  0  2  0  0  0  0  0  0
  187.9310  178.6020  140.1600 N   0  0  0  0  0  2  0  0  0  0  0  0
  189.6910  176.2420  142.4610 C   0  0  0  0  0  2  0  0  0  0  0  0
  191.6630  175.9320  143.9550 O   0  0  0  0  0  1  0  0  0  0  0  0
  191.7760  177.4810  142.1960 C   0  0  0  0  0  2  0  0  0  0  0  0
  191.0900  176.5620  142.8620 C   0  0  0  0  0  0  0  0  0  0  0  0
  188.6140  178.4280  138.8860 C   0  0  0  0  0  2  0  0  0  0  0  0
  187.9070  177.3550  138.0790 C   0  0  0  0  0  2  0  0  0  0  0  0
  188.8890  176.5240  137.4040 N   0  0  0  0  0  2  0  0  0  0  0  0
  190.1690  177.2240  137.4750 C   0  0  0  0  0  2  0  0  0  0  0  0
  191.2820  175.0070  137.7480 C   0  0  0  0  0  1  0  0  0  0  0  0
  191.3020  176.3200  136.9920 C   0  0  1  0  0  3  0  0  0  0  0  0
  191.1390  176.0620  135.6270 O   0  0  0  0  0  1  0  0  0  0  0  0
  185.9030  179.3290  143.7240 N   0  0  0  0  0  2  0  0  0  0  0  0
  185.7240  178.5000  144.9200 C   0  0  2  0  0  0  0  0  0  0  0  0
  183.2570  179.1730  144.9020 C   0  0  0  0  0  1  0  0  0  0  0  0
  184.3510  178.3770  145.5830 C   0  0  2  0  0  3  0  0  0  0  0  0
  185.3860  179.3510  146.1280 C   0  0  0  0  0  2  0  0  0  0  0  0
  186.8000  177.4800  145.2610 C   0  0  0  0  0  2  0  0  0  0  0  0
  188.9200  177.5720  145.8160 C   0  0  0  0  0  1  0  0  0  0  0  0
  187.6610  177.9930  146.2250 O   0  0  0  0  0  0  0  0  0  0  0  0
  2  7  1  6  0  0  0
  2  6  1  0  0  0  0
  2  3  1  0  0  0  0
  3  6  1  1  0  0  0
  4  5  1  0  0  0  0
  4  3  1  0  0  0  0
  5  3  1  0  0  0  0
  5  1  1  1  0  0  0
  8  7  1  0  0  0  0
  9  8  1  0  0  0  0
 10 14  2  0  0  0  0
 11  9  1  1  0  0  0
 11 10  1  0  0  0  0
 12 11  1  0  0  0  0
 12 13  2  0  0  0  0
 13 15  1  0  0  0  0
 13 14  1  0  0  0  0
 15 18  1  6  0  0  0
 16 17  1  0  0  0  0
 17 15  1  0  0  0  0
 18 19  1  0  0  0  0
 19 20  1  6  0  0  0
 19 21  1  0  0  0  0
 22 21  1  0  0  0  0
 23 22  1  0  0  0  0
 23 24  1  0  0  0  0
 25 24  1  0  0  0  0
 26  1  1  1  0  0  0
 26 42  1  0  0  0  0
 27 28  2  0  0  0  0
 27 29  1  0  0  0  0
 28 31  1  0  0  0  0
 29 26  1  0  0  0  0
 30 27  1  0  0  0  0
 31 34  1  0  0  0  0
 33 34  2  0  0  0  0
 34 32  1  0  0  0  0
 35 30  1  0  0  0  0
 36 35  1  0  0  0  0
 37 38  1  0  0  0  0
 37 36  1  0  0  0  0
 40 38  1  0  0  0  0
 40 39  1  1  0  0  0
 41 40  1  0  0  0  0
 42 43  1  0  0  0  0
 43 47  1  1  0  0  0
 43 45  1  0  0  0  0
 43 46  1  0  0  0  0
 45 44  1  6  0  0  0
 45 46  1  0  0  0  0
 47 49  1  0  0  0  0
 48 49  1  0  0  0  0
M  END
>  <MODEL>
2

>  <REMARK>
 VINA RESULT:      -5.3      3.539      9.078
  Name = 
  26 active torsions:
  status: ('A' for Active; 'I' for Inactive)
    1  A    between atoms: C_1  and  N_12
    2  A    between atoms: C_3  and  C_4
    3  A    between atoms: C_3  and  N_32
    4  A    between atoms: C_4  and  N_49
    5  A    between atoms: C_7  and  C_17
    6  A    between atoms: C_7  and  C_24
    7  A    between atoms: C_8  and  N_10
    8  A    between atoms: C_8  and  C_23
    9  A    between atoms: N_10  and  C_44
   10  A    between atoms: C_11  and  C_39
   11  A    between atoms: N_12  and  N_15
   12  A    between atoms: C_14  and  C_37
   13  A    between atoms: N_15  and  C_37
   14  A    between atoms: C_17  and  C_39
   15  A    between atoms: C_19  and  C_46
   16  A    between atoms: C_20  and  C_28
   17  A    between atoms: C_20  and  C_44
   18  A    between atoms: C_23  and  O_35
   19  A    between atoms: C_24  and  C_36
   20  A    between atoms: C_29  and  C_31
   21  A    between atoms: C_29  and  C_36
   22  A    between atoms: C_29  and  C_47
   23  A    between atoms: N_32  and  C_46
   24  A    between atoms: N_38  and  C_43
   25  A    between atoms: C_42  and  C_43
   26  A    between atoms: C_44  and  N_48
                            x       y       z     vdW  Elec       q    Type
                         _______ _______ _______ _____ _____    ______ ____

>  <TORSDO>
F 26

$$$$
=
 OpenBabel10222419223D

 49 52  0  0  1  0  0  0  0  0999 V2000
  189.6180  177.8820  137.1430 C   0  0  0  0  0  2  0  0  0  0  0  0
  189.0520  176.9880  140.9660 C   0  0  2  0  0  3  0  0  0  0  0  0
  188.8880  177.1380  139.4140 C   0  0  2  0  0  0  0  0  0  0  0  0
  190.0070  176.2110  138.8970 C   0  0  0  0  0  2  0  0  0  0  0  0
  190.0740  177.6510  138.5760 C   0  0  1  0  0  3  0  0  0  0  0  0
  188.8240  178.3260  140.3790 C   0  0  0  0  0  2  0  0  0  0  0  0
  190.4410  176.9410  141.4320 N   0  0  0  0  0  2  0  0  0  0  0  0
  190.6240  177.9530  142.4010 N   0  0  0  0  0  2  0  0  0  0  0  0
  191.7150  177.5490  143.2850 C   0  0  0  0  0  2  0  0  0  0  0  0
  191.8020  176.8380  145.6560 C   0  0  0  0  0  3  0  0  0  0  0  0
  191.4750  177.9760  144.7350 C   0  0  2  0  0  3  0  0  0  0  0  0
  190.0440  178.1840  144.9520 N   0  0  0  0  0  0  0  0  0  0  0  0
  189.6290  177.3080  145.8090 C   0  0  0  0  0  0  0  0  0  0  0  0
  190.7040  176.4530  146.2960 C   0  0  0  0  0  3  0  0  0  0  0  0
  188.2010  177.2720  146.2580 C   0  0  1  0  0  3  0  0  0  0  0  0
  187.5500  178.6510  148.0980 O   0  0  0  0  0  1  0  0  0  0  0  0
  188.0720  177.3980  147.7750 C   0  0  0  0  0  2  0  0  0  0  0  0
  187.3480  178.2870  145.4940 C   0  0  0  0  0  2  0  0  0  0  0  0
  186.0100  177.7200  145.0390 C   0  0  1  0  0  3  0  0  0  0  0  0
  184.9020  178.6700  145.4550 C   0  0  0  0  0  1  0  0  0  0  0  0
  186.0170  177.5890  143.5260 C   0  0  0  0  0  2  0  0  0  0  0  0
  184.9050  178.4150  142.8940 C   0  0  0  0  0  2  0  0  0  0  0  0
  185.4510  179.3550  141.8340 C   0  0  0  0  0  2  0  0  0  0  0  0
  185.0110  178.9160  140.4380 C   0  0  0  0  0  2  0  0  0  0  0  0
  183.8820  178.0040  140.5370 N   0  0  0  0  0  1  0  0  0  0  0  0
  189.9900  176.6830  136.2720 C   0  0  2  0  0  3  0  0  0  0  0  0
  192.1530  175.7040  135.3390 C   0  0  0  0  0  0  0  0  0  0  0  0
  193.3750  175.8800  134.9390 N   0  0  0  0  0  0  0  0  0  0  0  0
  191.3510  176.8190  135.7510 N   0  0  0  0  0  2  0  0  0  0  0  0
  191.6180  174.3740  135.4020 N   0  0  0  0  0  2  0  0  0  0  0  0
  194.0060  177.1860  134.8110 C   0  0  0  0  0  2  0  0  0  0  0  0
  196.2310  178.1700  135.3640 O   0  0  0  0  0  1  0  0  0  0  0  0
  196.0890  175.9190  134.7170 C   0  0  0  0  0  2  0  0  0  0  0  0
  195.4840  177.0690  134.9780 C   0  0  0  0  0  0  0  0  0  0  0  0
  192.4440  173.1810  135.2930 C   0  0  0  0  0  2  0  0  0  0  0  0
  192.7150  172.6280  136.6800 C   0  0  0  0  0  2  0  0  0  0  0  0
  193.6400  173.5010  137.3820 N   0  0  0  0  0  2  0  0  0  0  0  0
  194.9800  173.1990  136.8850 C   0  0  0  0  0  2  0  0  0  0  0  0
  196.8990  171.6110  137.0270 C   0  0  0  0  0  1  0  0  0  0  0  0
  195.4450  171.8350  137.3900 C   0  0  1  0  0  3  0  0  0  0  0  0
  195.3110  171.7850  138.7810 O   0  0  0  0  0  1  0  0  0  0  0  0
  188.9940  176.4770  135.2040 N   0  0  0  0  0  2  0  0  0  0  0  0
  188.0890  175.3410  135.4060 C   0  0  2  0  0  0  0  0  0  0  0  0
  186.2290  177.0300  135.8830 C   0  0  0  0  0  1  0  0  0  0  0  0
  186.6190  175.5710  135.7630 C   0  0  2  0  0  3  0  0  0  0  0  0
  187.6360  175.2550  136.8500 C   0  0  0  0  0  2  0  0  0  0  0  0
  188.5150  173.9740  134.8910 C   0  0  0  0  0  2  0  0  0  0  0  0
  189.0740  171.9040  135.3540 C   0  0  0  0  0  1  0  0  0  0  0  0
  188.5920  173.0660  135.9420 O   0  0  0  0  0  0  0  0  0  0  0  0
  2  7  1  6  0  0  0
  3  4  1  6  0  0  0
  3  6  1  0  0  0  0
  3  2  1  0  0  0  0
  5  1  1  6  0  0  0
  5  4  1  0  0  0  0
  5  3  1  0  0  0  0
  6  2  1  0  0  0  0
  7  8  1  0  0  0  0
  8  9  1  0  0  0  0
 10 14  2  0  0  0  0
 11  9  1  6  0  0  0
 11 12  1  0  0  0  0
 11 10  1  0  0  0  0
 12 13  2  0  0  0  0
 13 15  1  0  0  0  0
 13 14  1  0  0  0  0
 15 18  1  6  0  0  0
 15 17  1  0  0  0  0
 17 16  1  0  0  0  0
 19 20  1  6  0  0  0
 19 18  1  0  0  0  0
 21 19  1  0  0  0  0
 22 21  1  0  0  0  0
 23 22  1  0  0  0  0
 24 25  1  0  0  0  0
 24 23  1  0  0  0  0
 26  1  1  6  0  0  0
 27 30  1  0  0  0  0
 27 29  1  0  0  0  0
 28 27  2  0  0  0  0
 29 26  1  0  0  0  0
 31 28  1  0  0  0  0
 31 34  1  0  0  0  0
 33 34  2  0  0  0  0
 34 32  1  0  0  0  0
 35 30  1  0  0  0  0
 35 36  1  0  0  0  0
 36 37  1  0  0  0  0
 38 37  1  0  0  0  0
 38 40  1  0  0  0  0
 40 39  1  1  0  0  0
 40 41  1  0  0  0  0
 42 43  1  0  0  0  0
 42 26  1  0  0  0  0
 43 47  1  6  0  0  0
 43 45  1  0  0  0  0
 43 46  1  0  0  0  0
 45 44  1  1  0  0  0
 45 46  1  0  0  0  0
 47 49  1  0  0  0  0
 48 49  1  0  0  0  0
M  END
>  <MODEL>
3

>  <REMARK>
 VINA RESULT:      -5.1      2.764     10.506
  Name = 
  26 active torsions:
  status: ('A' for Active; 'I' for Inactive)
    1  A    between atoms: C_1  and  N_12
    2  A    between atoms: C_3  and  C_4
    3  A    between atoms: C_3  and  N_32
    4  A    between atoms: C_4  and  N_49
    5  A    between atoms: C_7  and  C_17
    6  A    between atoms: C_7  and  C_24
    7  A    between atoms: C_8  and  N_10
    8  A    between atoms: C_8  and  C_23
    9  A    between atoms: N_10  and  C_44
   10  A    between atoms: C_11  and  C_39
   11  A    between atoms: N_12  and  N_15
   12  A    between atoms: C_14  and  C_37
   13  A    between atoms: N_15  and  C_37
   14  A    between atoms: C_17  and  C_39
   15  A    between atoms: C_19  and  C_46
   16  A    between atoms: C_20  and  C_28
   17  A    between atoms: C_20  and  C_44
   18  A    between atoms: C_23  and  O_35
   19  A    between atoms: C_24  and  C_36
   20  A    between atoms: C_29  and  C_31
   21  A    between atoms: C_29  and  C_36
   22  A    between atoms: C_29  and  C_47
   23  A    between atoms: N_32  and  C_46
   24  A    between atoms: N_38  and  C_43
   25  A    between atoms: C_42  and  C_43
   26  A    between atoms: C_44  and  N_48
                            x       y       z     vdW  Elec       q    Type
                         _______ _______ _______ _____ _____    ______ ____

>  <TORSDO>
F 26

$$$$
=
 OpenBabel10222419223D

 49 52  0  0  1  0  0  0  0  0999 V2000
  188.7270  176.5860  138.6140 C   0  0  0  0  0  2  0  0  0  0  0  0
  190.4060  176.9190  142.1910 C   0  0  2  0  0  3  0  0  0  0  0  0
  190.0040  176.4350  140.7550 C   0  0  2  0  0  0  0  0  0  0  0  0
  190.5900  177.5600  139.8780 C   0  0  0  0  0  2  0  0  0  0  0  0
  189.1280  177.3420  139.8710 C   0  0  1  0  0  3  0  0  0  0  0  0
  189.0510  176.3780  141.9530 C   0  0  0  0  0  2  0  0  0  0  0  0
  190.2750  178.3620  142.4090 N   0  0  0  0  0  2  0  0  0  0  0  0
  190.9350  178.6960  143.6130 N   0  0  0  0  0  2  0  0  0  0  0  0
  191.5600  177.4860  144.1440 C   0  0  0  0  0  2  0  0  0  0  0  0
  191.8620  176.1220  146.1890 C   0  0  0  0  0  3  0  0  0  0  0  0
  191.6800  177.5170  145.6690 C   0  0  2  0  0  3  0  0  0  0  0  0
  190.4050  177.9290  146.2510 N   0  0  0  0  0  0  0  0  0  0  0  0
  189.9330  176.9430  146.9440 C   0  0  0  0  0  0  0  0  0  0  0  0
  190.8260  175.7900  146.9510 C   0  0  0  0  0  3  0  0  0  0  0  0
  188.6370  177.0600  147.6850 C   0  0  1  0  0  3  0  0  0  0  0  0
  187.7600  178.1730  149.6090 O   0  0  0  0  0  1  0  0  0  0  0  0
  188.5400  178.3680  148.4690 C   0  0  0  0  0  2  0  0  0  0  0  0
  187.4410  176.8200  146.7630 C   0  0  0  0  0  2  0  0  0  0  0  0
  187.1070  178.0240  145.8900 C   0  0  1  0  0  3  0  0  0  0  0  0
  187.2610  177.6370  144.4310 C   0  0  0  0  0  1  0  0  0  0  0  0
  185.6710  178.4410  146.1510 C   0  0  0  0  0  2  0  0  0  0  0  0
  184.9360  178.7360  144.8500 C   0  0  0  0  0  2  0  0  0  0  0  0
  183.4610  178.9990  145.0970 C   0  0  0  0  0  2  0  0  0  0  0  0
  182.7680  179.4570  143.8140 C   0  0  0  0  0  2  0  0  0  0  0  0
  182.1260  178.3240  143.1650 N   0  0  0  0  0  1  0  0  0  0  0  0
  188.3210  177.5670  137.5150 C   0  0  2  0  0  3  0  0  0  0  0  0
  185.7780  177.7390  137.6120 C   0  0  0  0  0  0  0  0  0  0  0  0
  184.6180  177.3840  137.1500 N   0  0  0  0  0  0  0  0  0  0  0  0
  186.9840  177.2570  137.0050 N   0  0  0  0  0  2  0  0  0  0  0  0
  185.8460  178.5930  138.7630 N   0  0  0  0  0  2  0  0  0  0  0  0
  184.4350  176.5460  135.9730 C   0  0  0  0  0  2  0  0  0  0  0  0
  183.3250  174.9100  137.4930 O   0  0  0  0  0  1  0  0  0  0  0  0
  184.6020  174.1280  135.6870 C   0  0  0  0  0  2  0  0  0  0  0  0
  184.1090  175.1480  136.3760 C   0  0  0  0  0  0  0  0  0  0  0  0
  184.6950  178.8790  139.6070 C   0  0  0  0  0  2  0  0  0  0  0  0
  183.9880  180.1180  139.0900 C   0  0  0  0  0  2  0  0  0  0  0  0
  182.6470  179.7710  138.6540 N   0  0  0  0  0  2  0  0  0  0  0  0
  181.9770  179.1330  139.7830 C   0  0  0  0  0  2  0  0  0  0  0  0
  180.4390  181.0070  139.1950 C   0  0  0  0  0  1  0  0  0  0  0  0
  180.7850  179.9690  140.2440 C   0  0  1  0  0  3  0  0  0  0  0  0
  179.6800  179.1340  140.4380 O   0  0  0  0  0  1  0  0  0  0  0  0
  189.3370  177.6140  136.4460 N   0  0  0  0  0  2  0  0  0  0  0  0
  189.5570  176.3480  135.7400 C   0  0  2  0  0  0  0  0  0  0  0  0
  191.8770  176.2610  136.8120 C   0  0  0  0  0  1  0  0  0  0  0  0
  190.8740  175.5880  135.8970 C   0  0  2  0  0  3  0  0  0  0  0  0
  190.6430  176.4890  134.6920 C   0  0  0  0  0  2  0  0  0  0  0  0
  188.3490  175.6170  135.1710 C   0  0  0  0  0  2  0  0  0  0  0  0
  188.1750  173.8460  136.4540 C   0  0  0  0  0  1  0  0  0  0  0  0
  188.5690  174.2430  135.1830 O   0  0  0  0  0  0  0  0  0  0  0  0
  2  7  1  6  0  0  0
  3  4  1  6  0  0  0
  3  6  1  0  0  0  0
  3  2  1  0  0  0  0
  5  1  1  6  0  0  0
  5  4  1  0  0  0  0
  5  3  1  0  0  0  0
  6  2  1  0  0  0  0
  7  8  1  0  0  0  0
  8  9  1  0  0  0  0
 10 14  2  0  0  0  0
 11  9  1  6  0  0  0
 11 10  1  0  0  0  0
 11 12  1  0  0  0  0
 12 13  2  0  0  0  0
 13 14  1  0  0  0  0
 13 15  1  0  0  0  0
 15 18  1  6  0  0  0
 15 17  1  0  0  0  0
 17 16  1  0  0  0  0
 19 20  1  6  0  0  0
 19 21  1  0  0  0  0
 19 18  1  0  0  0  0
 22 23  1  0  0  0  0
 22 21  1  0  0  0  0
 24 23  1  0  0  0  0
 25 24  1  0  0  0  0
 26  1  1  1  0  0  0
 27 30  1  0  0  0  0
 28 27  2  0  0  0  0
 29 26  1  0  0  0  0
 29 27  1  0  0  0  0
 30 35  1  0  0  0  0
 31 34  1  0  0  0  0
 31 28  1  0  0  0  0
 33 34  2  0  0  0  0
 34 32  1  0  0  0  0
 36 35  1  0  0  0  0
 37 36  1  0  0  0  0
 37 38  1  0  0  0  0
 38 40  1  0  0  0  0
 40 39  1  6  0  0  0
 40 41  1  0  0  0  0
 42 26  1  0  0  0  0
 43 47  1  6  0  0  0
 43 45  1  0  0  0  0
 43 42  1  0  0  0  0
 45 44  1  1  0  0  0
 46 43  1  0  0  0  0
 46 45  1  0  0  0  0
 47 49  1  0  0  0  0
 49 48  1  0  0  0  0
M  END
>  <MODEL>
4

>  <REMARK>
 VINA RESULT:      -4.8      3.596      9.261
  Name = 
  26 active torsions:
  status: ('A' for Active; 'I' for Inactive)
    1  A    between atoms: C_1  and  N_12
    2  A    between atoms: C_3  and  C_4
    3  A    between atoms: C_3  and  N_32
    4  A    between atoms: C_4  and  N_49
    5  A    between atoms: C_7  and  C_17
    6  A    between atoms: C_7  and  C_24
    7  A    between atoms: C_8  and  N_10
    8  A    between atoms: C_8  and  C_23
    9  A    between atoms: N_10  and  C_44
   10  A    between atoms: C_11  and  C_39
   11  A    between atoms: N_12  and  N_15
   12  A    between atoms: C_14  and  C_37
   13  A    between atoms: N_15  and  C_37
   14  A    between atoms: C_17  and  C_39
   15  A    between atoms: C_19  and  C_46
   16  A    between atoms: C_20  and  C_28
   17  A    between atoms: C_20  and  C_44
   18  A    between atoms: C_23  and  O_35
   19  A    between atoms: C_24  and  C_36
   20  A    between atoms: C_29  and  C_31
   21  A    between atoms: C_29  and  C_36
   22  A    between atoms: C_29  and  C_47
   23  A    between atoms: N_32  and  C_46
   24  A    between atoms: N_38  and  C_43
   25  A    between atoms: C_42  and  C_43
   26  A    between atoms: C_44  and  N_48
                            x       y       z     vdW  Elec       q    Type
                         _______ _______ _______ _____ _____    ______ ____

>  <TORSDO>
F 26

$$$$
=
 OpenBabel10222419223D

 49 52  0  0  1  0  0  0  0  0999 V2000
  186.8160  178.7160  141.0650 C   0  0  0  0  0  2  0  0  0  0  0  0
  189.5270  177.7980  138.3200 C   0  0  2  0  0  3  0  0  0  0  0  0
  188.6060  178.5670  139.3280 C   0  0  2  0  0  0  0  0  0  0  0  0
  189.1510  178.0680  140.6820 C   0  0  0  0  0  2  0  0  0  0  0  0
  187.7490  177.7670  140.3270 C   0  0  1  0  0  3  0  0  0  0  0  0
  188.0750  177.8940  138.0590 C   0  0  0  0  0  2  0  0  0  0  0  0
  189.8190  176.4110  138.6930 N   0  0  0  0  0  2  0  0  0  0  0  0
  190.4170  175.7660  137.5870 N   0  0  0  0  0  2  0  0  0  0  0  0
  191.7130  176.3920  137.3360 C   0  0  0  0  0  2  0  0  0  0  0  0
  192.1260  174.0980  136.4970 C   0  0  0  0  0  3  0  0  0  0  0  0
  192.6260  175.5120  136.4790 C   0  0  2  0  0  3  0  0  0  0  0  0
  193.9400  175.4120  137.1110 N   0  0  0  0  0  0  0  0  0  0  0  0
  194.1370  174.1790  137.4540 C   0  0  0  0  0  0  0  0  0  0  0  0
  193.0300  173.3120  137.0690 C   0  0  0  0  0  3  0  0  0  0  0  0
  195.4100  173.7460  138.1130 C   0  0  1  0  0  3  0  0  0  0  0  0
  197.0570  174.8890  139.4130 O   0  0  0  0  0  1  0  0  0  0  0  0
  195.7050  174.5530  139.3770 C   0  0  0  0  0  2  0  0  0  0  0  0
  195.4350  172.2350  138.3430 C   0  0  0  0  0  2  0  0  0  0  0  0
  196.4310  171.5100  137.4470 C   0  0  1  0  0  3  0  0  0  0  0  0
  195.7220  170.3730  136.7360 C   0  0  0  0  0  1  0  0  0  0  0  0
  196.9730  172.4870  136.4170 C   0  0  0  0  0  2  0  0  0  0  0  0
  198.4950  172.5060  136.4220 C   0  0  0  0  0  2  0  0  0  0  0  0
  199.0280  173.9100  136.6560 C   0  0  0  0  0  2  0  0  0  0  0  0
  198.4400  174.8900  135.6420 C   0  0  0  0  0  2  0  0  0  0  0  0
  197.7000  175.9350  136.3330 N   0  0  0  0  0  1  0  0  0  0  0  0
  186.4010  178.1110  142.4050 C   0  0  2  0  0  3  0  0  0  0  0  0
  183.9520  178.3010  141.7170 C   0  0  0  0  0  0  0  0  0  0  0  0
  182.7310  178.6260  142.0160 N   0  0  0  0  0  0  0  0  0  0  0  0
  184.9950  178.4000  142.6950 N   0  0  0  0  0  2  0  0  0  0  0  0
  184.2590  177.8760  140.3820 N   0  0  0  0  0  2  0  0  0  0  0  0
  182.3060  179.0430  143.3460 C   0  0  0  0  0  2  0  0  0  0  0  0
  180.1690  178.0010  144.0980 O   0  0  0  0  0  1  0  0  0  0  0  0
  180.1120  179.9970  142.8670 C   0  0  0  0  0  2  0  0  0  0  0  0
  180.8180  179.0350  143.4430 C   0  0  0  0  0  0  0  0  0  0  0  0
  183.3360  178.0320  139.2680 C   0  0  0  0  0  2  0  0  0  0  0  0
  182.7410  176.6810  138.9140 C   0  0  0  0  0  2  0  0  0  0  0  0
  181.2930  176.7420  139.0190 N   0  0  0  0  0  2  0  0  0  0  0  0
  180.9290  178.1490  139.1610 C   0  0  0  0  0  2  0  0  0  0  0  0
  180.8360  179.5750  137.1160 C   0  0  0  0  0  1  0  0  0  0  0  0
  180.0660  178.6010  137.9850 C   0  0  1  0  0  3  0  0  0  0  0  0
  179.7120  177.4880  137.2160 O   0  0  0  0  0  1  0  0  0  0  0  0
  187.3030  178.5510  143.4860 N   0  0  0  0  0  2  0  0  0  0  0  0
  187.6010  177.5370  144.5020 C   0  0  2  0  0  0  0  0  0  0  0  0
  190.0840  177.9720  144.0750 C   0  0  0  0  0  1  0  0  0  0  0  0
  189.0480  177.1920  144.8570 C   0  0  2  0  0  3  0  0  0  0  0  0
  188.2650  176.3230  143.8830 C   0  0  0  0  0  2  0  0  0  0  0  0
  186.4900  177.1180  145.4540 C   0  0  0  0  0  2  0  0  0  0  0  0
  187.4490  177.6220  147.3620 C   0  0  0  0  0  1  0  0  0  0  0  0
  186.4120  178.0060  146.5220 O   0  0  0  0  0  0  0  0  0  0  0  0
  2  7  1  1  0  0  0
  2  3  1  0  0  0  0
  3  6  1  6  0  0  0
  3  5  1  0  0  0  0
  3  4  1  0  0  0  0
  5  4  1  0  0  0  0
  5  1  1  1  0  0  0
  6  2  1  0  0  0  0
  8  7  1  0  0  0  0
  9  8  1  0  0  0  0
 10 14  2  0  0  0  0
 11 10  1  0  0  0  0
 11 12  1  0  0  0  0
 11  9  1  1  0  0  0
 12 13  2  0  0  0  0
 13 15  1  0  0  0  0
 14 13  1  0  0  0  0
 15 18  1  1  0  0  0
 15 17  1  0  0  0  0
 17 16  1  0  0  0  0
 19 20  1  6  0  0  0
 19 18  1  0  0  0  0
 21 22  1  0  0  0  0
 21 19  1  0  0  0  0
 22 23  1  0  0  0  0
 24 25  1  0  0  0  0
 24 23  1  0  0  0  0
 26  1  1  6  0  0  0
 26 29  1  0  0  0  0
 26 42  1  0  0  0  0
 27 28  2  0  0  0  0
 27 29  1  0  0  0  0
 28 31  1  0  0  0  0
 30 27  1  0  0  0  0
 31 34  1  0  0  0  0
 33 34  2  0  0  0  0
 34 32  1  0  0  0  0
 35 30  1  0  0  0  0
 36 37  1  0  0  0  0
 36 35  1  0  0  0  0
 37 38  1  0  0  0  0
 40 39  1  6  0  0  0
 40 38  1  0  0  0  0
 41 40  1  0  0  0  0
 42 43  1  0  0  0  0
 43 45  1  0  0  0  0
 43 47  1  1  0  0  0
 45 44  1  6  0  0  0
 46 43  1  0  0  0  0
 46 45  1  0  0  0  0
 47 49  1  0  0  0  0
 49 48  1  0  0  0  0
M  END
>  <MODEL>
5

>  <REMARK>
 VINA RESULT:      -4.5      1.994      3.858
  Name = 
  26 active torsions:
  status: ('A' for Active; 'I' for Inactive)
    1  A    between atoms: C_1  and  N_12
    2  A    between atoms: C_3  and  C_4
    3  A    between atoms: C_3  and  N_32
    4  A    between atoms: C_4  and  N_49
    5  A    between atoms: C_7  and  C_17
    6  A    between atoms: C_7  and  C_24
    7  A    between atoms: C_8  and  N_10
    8  A    between atoms: C_8  and  C_23
    9  A    between atoms: N_10  and  C_44
   10  A    between atoms: C_11  and  C_39
   11  A    between atoms: N_12  and  N_15
   12  A    between atoms: C_14  and  C_37
   13  A    between atoms: N_15  and  C_37
   14  A    between atoms: C_17  and  C_39
   15  A    between atoms: C_19  and  C_46
   16  A    between atoms: C_20  and  C_28
   17  A    between atoms: C_20  and  C_44
   18  A    between atoms: C_23  and  O_35
   19  A    between atoms: C_24  and  C_36
   20  A    between atoms: C_29  and  C_31
   21  A    between atoms: C_29  and  C_36
   22  A    between atoms: C_29  and  C_47
   23  A    between atoms: N_32  and  C_46
   24  A    between atoms: N_38  and  C_43
   25  A    between atoms: C_42  and  C_43
   26  A    between atoms: C_44  and  N_48
                            x       y       z     vdW  Elec       q    Type
                         _______ _______ _______ _____ _____    ______ ____

>  <TORSDO>
F 26

$$$$
=
 OpenBabel10222419223D

 49 52  0  0  1  0  0  0  0  0999 V2000
  186.6080  173.8300  137.1220 C   0  0  0  0  0  2  0  0  0  0  0  0
  190.1730  175.3340  136.2550 C   0  0  2  0  0  3  0  0  0  0  0  0
  188.8260  174.5350  136.2140 C   0  0  2  0  0  0  0  0  0  0  0  0
  187.8010  175.6730  136.0270 C   0  0  0  0  0  2  0  0  0  0  0  0
  187.7310  174.8470  137.2510 C   0  0  1  0  0  3  0  0  0  0  0  0
  189.9430  174.2360  137.2180 C   0  0  0  0  0  2  0  0  0  0  0  0
  190.1150  176.5950  137.0000 N   0  0  0  0  0  2  0  0  0  0  0  0
  191.3270  176.7560  137.7070 N   0  0  0  0  0  2  0  0  0  0  0  0
  191.0350  177.4250  138.9720 C   0  0  0  0  0  2  0  0  0  0  0  0
  188.8710  178.1690  139.9200 C   0  0  0  0  0  3  0  0  0  0  0  0
  189.7040  176.9700  139.5760 C   0  0  2  0  0  3  0  0  0  0  0  0
  189.9460  176.3450  140.8750 N   0  0  0  0  0  0  0  0  0  0  0  0
  189.3840  177.0700  141.7880 C   0  0  0  0  0  0  0  0  0  0  0  0
  188.6780  178.2180  141.2320 C   0  0  0  0  0  3  0  0  0  0  0  0
  189.4380  176.6820  143.2340 C   0  0  1  0  0  3  0  0  0  0  0  0
  191.7870  177.0470  143.4760 O   0  0  0  0  0  1  0  0  0  0  0  0
  190.7900  176.0820  143.6180 C   0  0  0  0  0  2  0  0  0  0  0  0
  189.0110  177.8370  144.1400 C   0  0  0  0  0  2  0  0  0  0  0  0
  188.0400  177.4120  145.2340 C   0  0  1  0  0  3  0  0  0  0  0  0
  188.7570  177.4370  146.5710 C   0  0  0  0  0  1  0  0  0  0  0  0
  186.8770  178.3880  145.2700 C   0  0  0  0  0  2  0  0  0  0  0  0
  186.0410  178.2050  146.5290 C   0  0  0  0  0  2  0  0  0  0  0  0
  184.5550  178.2770  146.2200 C   0  0  0  0  0  2  0  0  0  0  0  0
  184.2910  179.2040  145.0350 C   0  0  0  0  0  2  0  0  0  0  0  0
  183.0730  178.8000  144.3490 N   0  0  0  0  0  1  0  0  0  0  0  0
  185.4260  174.4400  136.3700 C   0  0  2  0  0  3  0  0  0  0  0  0
  184.0160  176.1670  137.6100 C   0  0  0  0  0  0  0  0  0  0  0  0
  183.0920  176.4330  138.4830 N   0  0  0  0  0  0  0  0  0  0  0  0
  184.3530  174.8090  137.2960 N   0  0  0  0  0  2  0  0  0  0  0  0
  184.7270  177.2450  136.9870 N   0  0  0  0  0  2  0  0  0  0  0  0
  182.2920  175.4170  139.1530 C   0  0  0  0  0  2  0  0  0  0  0  0
  180.6770  175.8460  137.3020 O   0  0  0  0  0  1  0  0  0  0  0  0
  179.9040  174.9460  139.3260 C   0  0  0  0  0  2  0  0  0  0  0  0
  180.9130  175.3830  138.5860 C   0  0  0  0  0  0  0  0  0  0  0  0
  184.6590  178.6190  137.4620 C   0  0  0  0  0  2  0  0  0  0  0  0
  184.9190  178.6480  138.9570 C   0  0  0  0  0  2  0  0  0  0  0  0
  184.1940  179.7540  139.5590 N   0  0  0  0  0  2  0  0  0  0  0  0
  183.0940  179.1800  140.3290 C   0  0  0  0  0  2  0  0  0  0  0  0
  181.9760  180.7510  138.7450 C   0  0  0  0  0  1  0  0  0  0  0  0
  181.7550  179.7400  139.8520 C   0  0  1  0  0  3  0  0  0  0  0  0
  180.9640  178.6950  139.3630 O   0  0  0  0  0  1  0  0  0  0  0  0
  184.9620  173.5420  135.2950 N   0  0  0  0  0  2  0  0  0  0  0  0
  184.7230  172.1550  135.7030 C   0  0  2  0  0  0  0  0  0  0  0  0
  182.2240  172.6940  135.7350 C   0  0  0  0  0  1  0  0  0  0  0  0
  183.3000  171.6490  135.9450 C   0  0  2  0  0  3  0  0  0  0  0  0
  184.1730  172.0870  137.1130 C   0  0  0  0  0  2  0  0  0  0  0  0
  185.8410  171.1400  135.5090 C   0  0  0  0  0  2  0  0  0  0  0  0
  187.8680  170.7810  134.7530 C   0  0  0  0  0  1  0  0  0  0  0  0
  186.7720  171.6180  134.5940 O   0  0  0  0  0  0  0  0  0  0  0  0
  2  7  1  1  0  0  0
  2  6  1  0  0  0  0
  3  4  1  6  0  0  0
  3  2  1  0  0  0  0
  3  6  1  0  0  0  0
  3  5  1  0  0  0  0
  4  5  1  0  0  0  0
  5  1  1  6  0  0  0
  7  8  1  0  0  0  0
  8  9  1  0  0  0  0
 10 14  2  0  0  0  0
 11  9  1  1  0  0  0
 11 10  1  0  0  0  0
 11 12  1  0  0  0  0
 12 13  2  0  0  0  0
 13 15  1  0  0  0  0
 14 13  1  0  0  0  0
 15 17  1  1  0  0  0
 15 18  1  0  0  0  0
 16 17  1  0  0  0  0
 18 19  1  0  0  0  0
 19 21  1  0  0  0  0
 19 20  1  1  0  0  0
 21 22  1  0  0  0  0
 23 22  1  0  0  0  0
 24 23  1  0  0  0  0
 25 24  1  0  0  0  0
 26  1  1  1  0  0  0
 26 29  1  0  0  0  0
 27 28  2  0  0  0  0
 28 31  1  0  0  0  0
 29 27  1  0  0  0  0
 30 35  1  0  0  0  0
 30 27  1  0  0  0  0
 32 34  1  0  0  0  0
 34 31  1  0  0  0  0
 34 33  2  0  0  0  0
 35 36  1  0  0  0  0
 36 37  1  0  0  0  0
 37 38  1  0  0  0  0
 40 39  1  6  0  0  0
 40 38  1  0  0  0  0
 41 40  1  0  0  0  0
 42 43  1  0  0  0  0
 42 26  1  0  0  0  0
 43 47  1  6  0  0  0
 43 45  1  0  0  0  0
 43 46  1  0  0  0  0
 45 44  1  6  0  0  0
 45 46  1  0  0  0  0
 49 48  1  0  0  0  0
 49 47  1  0  0  0  0
M  END
>  <MODEL>
6

>  <REMARK>
 VINA RESULT:      -4.5      3.767      9.155
  Name = 
  26 active torsions:
  status: ('A' for Active; 'I' for Inactive)
    1  A    between atoms: C_1  and  N_12
    2  A    between atoms: C_3  and  C_4
    3  A    between atoms: C_3  and  N_32
    4  A    between atoms: C_4  and  N_49
    5  A    between atoms: C_7  and  C_17
    6  A    between atoms: C_7  and  C_24
    7  A    between atoms: C_8  and  N_10
    8  A    between atoms: C_8  and  C_23
    9  A    between atoms: N_10  and  C_44
   10  A    between atoms: C_11  and  C_39
   11  A    between atoms: N_12  and  N_15
   12  A    between atoms: C_14  and  C_37
   13  A    between atoms: N_15  and  C_37
   14  A    between atoms: C_17  and  C_39
   15  A    between atoms: C_19  and  C_46
   16  A    between atoms: C_20  and  C_28
   17  A    between atoms: C_20  and  C_44
   18  A    between atoms: C_23  and  O_35
   19  A    between atoms: C_24  and  C_36
   20  A    between atoms: C_29  and  C_31
   21  A    between atoms: C_29  and  C_36
   22  A    between atoms: C_29  and  C_47
   23  A    between atoms: N_32  and  C_46
   24  A    between atoms: N_38  and  C_43
   25  A    between atoms: C_42  and  C_43
   26  A    between atoms: C_44  and  N_48
                            x       y       z     vdW  Elec       q    Type
                         _______ _______ _______ _____ _____    ______ ____

>  <TORSDO>
F 26

$$$$
=
 OpenBabel10222419223D

 49 52  0  0  1  0  0  0  0  0999 V2000
  188.9700  178.6630  137.6850 C   0  0  0  0  0  2  0  0  0  0  0  0
  189.2530  176.7500  141.1470 C   0  0  2  0  0  3  0  0  0  0  0  0
  188.8930  177.1580  139.6780 C   0  0  2  0  0  0  0  0  0  0  0  0
  190.2620  177.0270  138.9790 C   0  0  0  0  0  2  0  0  0  0  0  0
  189.6140  178.3540  139.0280 C   0  0  1  0  0  3  0  0  0  0  0  0
  188.3690  177.9090  140.9050 C   0  0  0  0  0  2  0  0  0  0  0  0
  190.5380  177.2660  141.6280 N   0  0  0  0  0  2  0  0  0  0  0  0
  190.2880  178.2240  142.6360 N   0  0  0  0  0  2  0  0  0  0  0  0
  190.7350  177.6730  143.9130 C   0  0  0  0  0  2  0  0  0  0  0  0
  190.0600  177.4150  146.2830 C   0  0  0  0  0  3  0  0  0  0  0  0
  190.0510  178.3460  145.1060 C   0  0  2  0  0  3  0  0  0  0  0  0
  188.6280  178.5150  144.8210 N   0  0  0  0  0  0  0  0  0  0  0  0
  187.9550  177.7910  145.6570 C   0  0  0  0  0  0  0  0  0  0  0  0
  188.8130  177.0970  146.6090 C   0  0  0  0  0  3  0  0  0  0  0  0
  186.4580  177.7630  145.6350 C   0  0  1  0  0  3  0  0  0  0  0  0
  184.7060  178.0830  147.2290 O   0  0  0  0  0  1  0  0  0  0  0  0
  185.8510  178.6770  146.6980 C   0  0  0  0  0  2  0  0  0  0  0  0
  185.9130  178.0280  144.2300 C   0  0  0  0  0  2  0  0  0  0  0  0
  184.7080  178.9590  144.2220 C   0  0  1  0  0  3  0  0  0  0  0  0
  185.1040  180.2770  143.5810 C   0  0  0  0  0  1  0  0  0  0  0  0
  183.5940  178.3210  143.4120 C   0  0  0  0  0  2  0  0  0  0  0  0
  182.2280  178.6310  144.0100 C   0  0  0  0  0  2  0  0  0  0  0  0
  181.3600  179.4020  143.0310 C   0  0  0  0  0  2  0  0  0  0  0  0
  180.4970  178.4500  142.2030 C   0  0  0  0  0  2  0  0  0  0  0  0
  181.2450  177.9790  141.0470 N   0  0  0  0  0  1  0  0  0  0  0  0
  188.5490  177.3680  136.9920 C   0  0  2  0  0  3  0  0  0  0  0  0
  189.7710  175.3020  136.1270 C   0  0  0  0  0  0  0  0  0  0  0  0
  190.8400  174.7710  135.6180 N   0  0  0  0  0  0  0  0  0  0  0  0
  189.6980  176.7150  136.3630 N   0  0  0  0  0  2  0  0  0  0  0  0
  188.6690  174.4570  136.4890 N   0  0  0  0  0  2  0  0  0  0  0  0
  192.0020  175.5380  135.1900 C   0  0  0  0  0  2  0  0  0  0  0  0
  192.7170  175.0890  137.5370 O   0  0  0  0  0  1  0  0  0  0  0  0
  194.1640  176.2310  136.0860 C   0  0  0  0  0  2  0  0  0  0  0  0
  193.0060  175.6180  136.2900 C   0  0  0  0  0  0  0  0  0  0  0  0
  188.7730  173.0080  136.5620 C   0  0  0  0  0  2  0  0  0  0  0  0
  187.7070  172.3820  135.6810 C   0  0  0  0  0  2  0  0  0  0  0  0
  186.4930  172.1770  136.4530 N   0  0  0  0  0  2  0  0  0  0  0  0
  185.3670  172.4640  135.5690 C   0  0  0  0  0  2  0  0  0  0  0  0
  183.4910  171.0000  136.3200 C   0  0  0  0  0  1  0  0  0  0  0  0
  184.0510  172.4080  136.3420 C   0  0  1  0  0  3  0  0  0  0  0  0
  184.2770  172.7860  137.6700 O   0  0  0  0  0  1  0  0  0  0  0  0
  187.4470  177.6100  136.0420 N   0  0  0  0  0  2  0  0  0  0  0  0
  186.1080  177.2860  136.5440 C   0  0  2  0  0  0  0  0  0  0  0  0
  185.8920  175.6180  134.6180 C   0  0  0  0  0  1  0  0  0  0  0  0
  185.2430  176.2410  135.8370 C   0  0  2  0  0  3  0  0  0  0  0  0
  185.0370  177.7240  135.5660 C   0  0  0  0  0  2  0  0  0  0  0  0
  185.7460  177.7010  137.9630 C   0  0  0  0  0  2  0  0  0  0  0  0
  183.9550  178.7460  138.6780 C   0  0  0  0  0  1  0  0  0  0  0  0
  184.3850  177.5210  138.1850 O   0  0  0  0  0  0  0  0  0  0  0  0
  2  7  1  6  0  0  0
  3  4  1  6  0  0  0
  3  6  1  0  0  0  0
  3  2  1  0  0  0  0
  4  5  1  0  0  0  0
  5  1  1  6  0  0  0
  5  3  1  0  0  0  0
  6  2  1  0  0  0  0
  7  8  1  0  0  0  0
  8  9  1  0  0  0  0
 10 14  2  0  0  0  0
 11  9  1  6  0  0  0
 11 10  1  0  0  0  0
 12 11  1  0  0  0  0
 12 13  2  0  0  0  0
 13 14  1  0  0  0  0
 15 18  1  6  0  0  0
 15 13  1  0  0  0  0
 15 17  1  0  0  0  0
 17 16  1  0  0  0  0
 19 20  1  6  0  0  0
 19 18  1  0  0  0  0
 21 22  1  0  0  0  0
 21 19  1  0  0  0  0
 23 22  1  0  0  0  0
 24 23  1  0  0  0  0
 25 24  1  0  0  0  0
 26  1  1  6  0  0  0
 27 29  1  0  0  0  0
 27 30  1  0  0  0  0
 28 27  2  0  0  0  0
 29 26  1  0  0  0  0
 30 35  1  0  0  0  0
 31 28  1  0  0  0  0
 31 34  1  0  0  0  0
 33 34  2  0  0  0  0
 34 32  1  0  0  0  0
 36 37  1  0  0  0  0
 36 35  1  0  0  0  0
 38 40  1  0  0  0  0
 38 37  1  0  0  0  0
 40 39  1  1  0  0  0
 40 41  1  0  0  0  0
 42 43  1  0  0  0  0
 42 26  1  0  0  0  0
 43 47  1  1  0  0  0
 45 44  1  6  0  0  0
 45 43  1  0  0  0  0
 46 45  1  0  0  0  0
 46 43  1  0  0  0  0
 47 49  1  0  0  0  0
 49 48  1  0  0  0  0
M  END
>  <MODEL>
7

>  <REMARK>
 VINA RESULT:      -4.5      2.971      9.699
  Name = 
  26 active torsions:
  status: ('A' for Active; 'I' for Inactive)
    1  A    between atoms: C_1  and  N_12
    2  A    between atoms: C_3  and  C_4
    3  A    between atoms: C_3  and  N_32
    4  A    between atoms: C_4  and  N_49
    5  A    between atoms: C_7  and  C_17
    6  A    between atoms: C_7  and  C_24
    7  A    between atoms: C_8  and  N_10
    8  A    between atoms: C_8  and  C_23
    9  A    between atoms: N_10  and  C_44
   10  A    between atoms: C_11  and  C_39
   11  A    between atoms: N_12  and  N_15
   12  A    between atoms: C_14  and  C_37
   13  A    between atoms: N_15  and  C_37
   14  A    between atoms: C_17  and  C_39
   15  A    between atoms: C_19  and  C_46
   16  A    between atoms: C_20  and  C_28
   17  A    between atoms: C_20  and  C_44
   18  A    between atoms: C_23  and  O_35
   19  A    between atoms: C_24  and  C_36
   20  A    between atoms: C_29  and  C_31
   21  A    between atoms: C_29  and  C_36
   22  A    between atoms: C_29  and  C_47
   23  A    between atoms: N_32  and  C_46
   24  A    between atoms: N_38  and  C_43
   25  A    between atoms: C_42  and  C_43
   26  A    between atoms: C_44  and  N_48
                            x       y       z     vdW  Elec       q    Type
                         _______ _______ _______ _____ _____    ______ ____

>  <TORSDO>
F 26

$$$$
=
 OpenBabel10222419223D

 49 52  0  0  1  0  0  0  0  0999 V2000
  183.3790  178.7810  140.7110 C   0  0  0  0  0  2  0  0  0  0  0  0
  186.4940  178.7820  143.1650 C   0  0  2  0  0  3  0  0  0  0  0  0
  185.3360  179.2150  142.2020 C   0  0  2  0  0  0  0  0  0  0  0  0
  184.0920  178.8950  143.0560 C   0  0  0  0  0  2  0  0  0  0  0  0
  184.2800  178.1780  141.7770 C   0  0  1  0  0  3  0  0  0  0  0  0
  186.5610  178.4250  141.7320 C   0  0  0  0  0  2  0  0  0  0  0  0
  186.2370  177.5500  143.9160 N   0  0  0  0  0  2  0  0  0  0  0  0
  187.2410  176.6100  143.5940 N   0  0  0  0  0  2  0  0  0  0  0  0
  188.5340  177.1670  143.9860 C   0  0  0  0  0  2  0  0  0  0  0  0
  190.9950  176.8830  144.0020 C   0  0  0  0  0  3  0  0  0  0  0  0
  189.7060  176.3340  143.4640 C   0  0  2  0  0  3  0  0  0  0  0  0
  189.8370  176.5250  142.0210 N   0  0  0  0  0  0  0  0  0  0  0  0
  190.9700  177.1050  141.7850 C   0  0  0  0  0  0  0  0  0  0  0  0
  191.7430  177.3310  143.0010 C   0  0  0  0  0  3  0  0  0  0  0  0
  191.4080  177.4220  140.3890 C   0  0  1  0  0  3  0  0  0  0  0  0
  193.4790  176.6630  139.4700 O   0  0  0  0  0  1  0  0  0  0  0  0
  192.9190  177.6370  140.2960 C   0  0  0  0  0  2  0  0  0  0  0  0
  190.8830  176.3920  139.3890 C   0  0  0  0  0  2  0  0  0  0  0  0
  190.3950  177.0160  138.0880 C   0  0  1  0  0  3  0  0  0  0  0  0
  191.0780  176.3270  136.9210 C   0  0  0  0  0  1  0  0  0  0  0  0
  188.8930  176.8210  137.9770 C   0  0  0  0  0  2  0  0  0  0  0  0
  188.1420  178.0890  138.3590 C   0  0  0  0  0  2  0  0  0  0  0  0
  187.3180  178.6130  137.1960 C   0  0  0  0  0  2  0  0  0  0  0  0
  187.1550  177.5410  136.1190 C   0  0  0  0  0  2  0  0  0  0  0  0
  185.8730  176.8710  136.2750 N   0  0  0  0  0  1  0  0  0  0  0  0
  182.4080  177.7270  140.1820 C   0  0  2  0  0  3  0  0  0  0  0  0
  182.2450  176.7440  137.8340 C   0  0  0  0  0  0  0  0  0  0  0  0
  182.1400  176.9270  136.5530 N   0  0  0  0  0  0  0  0  0  0  0  0
  182.2310  177.8590  138.7350 N   0  0  0  0  0  2  0  0  0  0  0  0
  182.4130  175.4130  138.3420 N   0  0  0  0  0  2  0  0  0  0  0  0
  181.9380  178.2310  135.9340 C   0  0  0  0  0  2  0  0  0  0  0  0
  179.5280  177.6180  136.1190 O   0  0  0  0  0  1  0  0  0  0  0  0
  180.1840  179.2870  134.6070 C   0  0  0  0  0  2  0  0  0  0  0  0
  180.5100  178.4050  135.5410 C   0  0  0  0  0  0  0  0  0  0  0  0
  182.7350  174.2750  137.4940 C   0  0  0  0  0  2  0  0  0  0  0  0
  184.2160  173.9660  137.6080 C   0  0  0  0  0  2  0  0  0  0  0  0
  184.4380  172.5460  137.3960 N   0  0  0  0  0  2  0  0  0  0  0  0
  184.1540  172.2700  135.9910 C   0  0  0  0  0  2  0  0  0  0  0  0
  182.1130  171.7820  134.6420 C   0  0  0  0  0  1  0  0  0  0  0  0
  182.9210  171.3770  135.8580 C   0  0  1  0  0  3  0  0  0  0  0  0
  183.3270  170.0470  135.7120 O   0  0  0  0  0  1  0  0  0  0  0  0
  181.1280  177.7720  140.9150 N   0  0  0  0  0  2  0  0  0  0  0  0
  180.5010  179.0950  140.9930 C   0  0  2  0  0  0  0  0  0  0  0  0
  180.4970  178.8390  143.5370 C   0  0  0  0  0  1  0  0  0  0  0  0
  180.1490  179.7110  142.3480 C   0  0  2  0  0  3  0  0  0  0  0  0
  179.0850  178.9970  141.5250 C   0  0  0  0  0  2  0  0  0  0  0  0
  180.5570  179.9970  139.7680 C   0  0  0  0  0  2  0  0  0  0  0  0
  179.3130  181.0210  138.2800 C   0  0  0  0  0  1  0  0  0  0  0  0
  179.4080  179.8370  139.0000 O   0  0  0  0  0  0  0  0  0  0  0  0
  2  7  1  1  0  0  0
  3  6  1  6  0  0  0
  3  4  1  0  0  0  0
  3  2  1  0  0  0  0
  5  1  1  6  0  0  0
  5  3  1  0  0  0  0
  5  4  1  0  0  0  0
  6  2  1  0  0  0  0
  8  7  1  0  0  0  0
  8  9  1  0  0  0  0
 11  9  1  1  0  0  0
 11 10  1  0  0  0  0
 12 11  1  0  0  0  0
 13 12  2  0  0  0  0
 13 14  1  0  0  0  0
 14 10  2  0  0  0  0
 15 18  1  6  0  0  0
 15 13  1  0  0  0  0
 16 17  1  0  0  0  0
 17 15  1  0  0  0  0
 19 20  1  6  0  0  0
 19 18  1  0  0  0  0
 21 19  1  0  0  0  0
 21 22  1  0  0  0  0
 23 22  1  0  0  0  0
 24 25  1  0  0  0  0
 24 23  1  0  0  0  0
 26  1  1  1  0  0  0
 26 42  1  0  0  0  0
 27 30  1  0  0  0  0
 27 29  1  0  0  0  0
 28 27  2  0  0  0  0
 29 26  1  0  0  0  0
 31 28  1  0  0  0  0
 33 34  2  0  0  0  0
 34 31  1  0  0  0  0
 34 32  1  0  0  0  0
 35 36  1  0  0  0  0
 35 30  1  0  0  0  0
 37 36  1  0  0  0  0
 38 37  1  0  0  0  0
 40 39  1  6  0  0  0
 40 38  1  0  0  0  0
 41 40  1  0  0  0  0
 42 43  1  0  0  0  0
 43 47  1  6  0  0  0
 43 46  1  0  0  0  0
 43 45  1  0  0  0  0
 45 44  1  1  0  0  0
 46 45  1  0  0  0  0
 48 49  1  0  0  0  0
 49 47  1  0  0  0  0
M  END
>  <MODEL>
8

>  <REMARK>
 VINA RESULT:      -4.5      3.804      6.775
  Name = 
  26 active torsions:
  status: ('A' for Active; 'I' for Inactive)
    1  A    between atoms: C_1  and  N_12
    2  A    between atoms: C_3  and  C_4
    3  A    between atoms: C_3  and  N_32
    4  A    between atoms: C_4  and  N_49
    5  A    between atoms: C_7  and  C_17
    6  A    between atoms: C_7  and  C_24
    7  A    between atoms: C_8  and  N_10
    8  A    between atoms: C_8  and  C_23
    9  A    between atoms: N_10  and  C_44
   10  A    between atoms: C_11  and  C_39
   11  A    between atoms: N_12  and  N_15
   12  A    between atoms: C_14  and  C_37
   13  A    between atoms: N_15  and  C_37
   14  A    between atoms: C_17  and  C_39
   15  A    between atoms: C_19  and  C_46
   16  A    between atoms: C_20  and  C_28
   17  A    between atoms: C_20  and  C_44
   18  A    between atoms: C_23  and  O_35
   19  A    between atoms: C_24  and  C_36
   20  A    between atoms: C_29  and  C_31
   21  A    between atoms: C_29  and  C_36
   22  A    between atoms: C_29  and  C_47
   23  A    between atoms: N_32  and  C_46
   24  A    between atoms: N_38  and  C_43
   25  A    between atoms: C_42  and  C_43
   26  A    between atoms: C_44  and  N_48
                            x       y       z     vdW  Elec       q    Type
                         _______ _______ _______ _____ _____    ______ ____

>  <TORSDO>
F 26

$$$$
=
 OpenBabel10222419223D

 49 52  0  0  1  0  0  0  0  0999 V2000
  187.4870  178.6370  140.2330 C   0  0  0  0  0  2  0  0  0  0  0  0
  184.0470  178.9030  142.1880 C   0  0  2  0  0  3  0  0  0  0  0  0
  185.4550  179.2060  141.5700 C   0  0  2  0  0  0  0  0  0  0  0  0
  185.1220  179.2680  140.0650 C   0  0  0  0  0  2  0  0  0  0  0  0
  186.0550  178.2280  140.5440 C   0  0  1  0  0  3  0  0  0  0  0  0
  185.2370  178.1820  142.6880 C   0  0  0  0  0  2  0  0  0  0  0  0
  183.2380  177.9470  141.4270 N   0  0  0  0  0  2  0  0  0  0  0  0
  181.8810  178.3270  141.5290 N   0  0  0  0  0  2  0  0  0  0  0  0
  181.4550  178.8610  140.2370 C   0  0  0  0  0  2  0  0  0  0  0  0
  180.0980  176.7960  140.4230 C   0  0  0  0  0  3  0  0  0  0  0  0
  180.3220  178.0410  139.6160 C   0  0  2  0  0  3  0  0  0  0  0  0
  180.7480  177.5270  138.3160 N   0  0  0  0  0  0  0  0  0  0  0  0
  180.7920  176.2350  138.3810 C   0  0  0  0  0  0  0  0  0  0  0  0
  180.3710  175.7290  139.6820 C   0  0  0  0  0  3  0  0  0  0  0  0
  181.1780  175.4070  137.1950 C   0  0  1  0  0  3  0  0  0  0  0  0
  179.1930  175.6510  135.8870 O   0  0  0  0  0  1  0  0  0  0  0  0
  179.9730  174.7120  136.5620 C   0  0  0  0  0  2  0  0  0  0  0  0
  182.0030  176.2150  136.1930 C   0  0  0  0  0  2  0  0  0  0  0  0
  183.4990  175.9490  136.2970 C   0  0  1  0  0  3  0  0  0  0  0  0
  184.0340  176.6110  137.5530 C   0  0  0  0  0  1  0  0  0  0  0  0
  183.7320  174.4500  136.3810 C   0  0  0  0  0  2  0  0  0  0  0  0
  184.3330  174.0580  137.7240 C   0  0  0  0  0  2  0  0  0  0  0  0
  185.4690  173.0650  137.5500 C   0  0  0  0  0  2  0  0  0  0  0  0
  185.7770  172.8440  136.0700 C   0  0  0  0  0  2  0  0  0  0  0  0
  186.9670  172.0200  135.9280 N   0  0  0  0  0  1  0  0  0  0  0  0
  188.3170  177.4100  139.8580 C   0  0  2  0  0  3  0  0  0  0  0  0
  190.5190  176.9710  141.0690 C   0  0  0  0  0  0  0  0  0  0  0  0
  191.1510  176.4790  142.0900 N   0  0  0  0  0  0  0  0  0  0  0  0
  189.0870  176.9300  141.0070 N   0  0  0  0  0  2  0  0  0  0  0  0
  191.2680  177.5250  139.9780 N   0  0  0  0  0  2  0  0  0  0  0  0
  190.4900  175.9190  143.2600 C   0  0  0  0  0  2  0  0  0  0  0  0
  189.6250  177.9080  144.4910 O   0  0  0  0  0  1  0  0  0  0  0  0
  191.5080  176.7710  145.3070 C   0  0  0  0  0  2  0  0  0  0  0  0
  190.5480  176.8790  144.4000 C   0  0  0  0  0  0  0  0  0  0  0  0
  192.7030  177.3370  139.8250 C   0  0  0  0  0  2  0  0  0  0  0  0
  192.9820  176.6520  138.4990 C   0  0  0  0  0  2  0  0  0  0  0  0
  194.2030  175.8710  138.5990 N   0  0  0  0  0  2  0  0  0  0  0  0
  194.4110  175.2280  137.3050 C   0  0  0  0  0  2  0  0  0  0  0  0
  195.5460  173.4940  138.6940 C   0  0  0  0  0  1  0  0  0  0  0  0
  195.5750  174.2410  137.3760 C   0  0  1  0  0  3  0  0  0  0  0  0
  195.4660  173.3200  136.3290 O   0  0  0  0  0  1  0  0  0  0  0  0
  189.1650  177.6830  138.6830 N   0  0  0  0  0  2  0  0  0  0  0  0
  188.8930  176.8470  137.5100 C   0  0  2  0  0  0  0  0  0  0  0  0
  187.3180  178.6850  136.6830 C   0  0  0  0  0  1  0  0  0  0  0  0
  187.9310  177.3240  136.4200 C   0  0  2  0  0  3  0  0  0  0  0  0
  187.4560  176.3660  137.5040 C   0  0  0  0  0  2  0  0  0  0  0  0
  189.8480  175.7030  137.1980 C   0  0  0  0  0  2  0  0  0  0  0  0
  190.1540  173.5440  136.9700 C   0  0  0  0  0  1  0  0  0  0  0  0
  189.1820  174.4850  137.2810 O   0  0  0  0  0  0  0  0  0  0  0  0
  2  7  1  6  0  0  0
  2  6  1  0  0  0  0
  3  4  1  1  0  0  0
  3  2  1  0  0  0  0
  3  6  1  0  0  0  0
  4  5  1  0  0  0  0
  5  1  1  6  0  0  0
  5  3  1  0  0  0  0
  7  8  1  0  0  0  0
  9  8  1  0  0  0  0
 11  9  1  1  0  0  0
 11 10  1  0  0  0  0
 12 13  2  0  0  0  0
 12 11  1  0  0  0  0
 13 14  1  0  0  0  0
 14 10  2  0  0  0  0
 15 18  1  6  0  0  0
 15 13  1  0  0  0  0
 16 17  1  0  0  0  0
 17 15  1  0  0  0  0
 18 19  1  0  0  0  0
 19 21  1  0  0  0  0
 19 20  1  1  0  0  0
 21 22  1  0  0  0  0
 23 22  1  0  0  0  0
 24 23  1  0  0  0  0
 25 24  1  0  0  0  0
 26  1  1  1  0  0  0
 26 29  1  0  0  0  0
 27 28  2  0  0  0  0
 28 31  1  0  0  0  0
 29 27  1  0  0  0  0
 30 27  1  0  0  0  0
 31 34  1  0  0  0  0
 34 32  1  0  0  0  0
 34 33  2  0  0  0  0
 35 30  1  0  0  0  0
 36 37  1  0  0  0  0
 36 35  1  0  0  0  0
 38 40  1  0  0  0  0
 38 37  1  0  0  0  0
 40 39  1  1  0  0  0
 41 40  1  0  0  0  0
 42 26  1  0  0  0  0
 43 47  1  6  0  0  0
 43 42  1  0  0  0  0
 45 44  1  1  0  0  0
 45 46  1  0  0  0  0
 45 43  1  0  0  0  0
 46 43  1  0  0  0  0
 47 49  1  0  0  0  0
 48 49  1  0  0  0  0
M  END
>  <MODEL>
9

>  <REMARK>
 VINA RESULT:      -4.5      2.536     10.466
  Name = 
  26 active torsions:
  status: ('A' for Active; 'I' for Inactive)
    1  A    between atoms: C_1  and  N_12
    2  A    between atoms: C_3  and  C_4
    3  A    between atoms: C_3  and  N_32
    4  A    between atoms: C_4  and  N_49
    5  A    between atoms: C_7  and  C_17
    6  A    between atoms: C_7  and  C_24
    7  A    between atoms: C_8  and  N_10
    8  A    between atoms: C_8  and  C_23
    9  A    between atoms: N_10  and  C_44
   10  A    between atoms: C_11  and  C_39
   11  A    between atoms: N_12  and  N_15
   12  A    between atoms: C_14  and  C_37
   13  A    between atoms: N_15  and  C_37
   14  A    between atoms: C_17  and  C_39
   15  A    between atoms: C_19  and  C_46
   16  A    between atoms: C_20  and  C_28
   17  A    between atoms: C_20  and  C_44
   18  A    between atoms: C_23  and  O_35
   19  A    between atoms: C_24  and  C_36
   20  A    between atoms: C_29  and  C_31
   21  A    between atoms: C_29  and  C_36
   22  A    between atoms: C_29  and  C_47
   23  A    between atoms: N_32  and  C_46
   24  A    between atoms: N_38  and  C_43
   25  A    between atoms: C_42  and  C_43
   26  A    between atoms: C_44  and  N_48
                            x       y       z     vdW  Elec       q    Type
                         _______ _______ _______ _____ _____    ______ ____

>  <TORSDO>
F 26

$$$$
