=
 OpenBabel10222417473D

 52 60  0  0  1  0  0  0  0  0999 V2000
  190.4000  177.5530  141.1980 C   0  0  0  0  0  0  0  0  0  0  0  0
  187.2920  177.2240  139.2120 O   0  0  0  0  0  0  0  0  0  0  0  0
  189.0230  177.3880  140.8850 C   0  0  0  0  0  0  0  0  0  0  0  0
  190.8160  177.9530  142.5610 C   0  0  0  0  0  0  0  0  0  0  0  0
  191.9390  176.5990  137.9030 C   0  0  0  0  0  0  0  0  0  0  0  0
  190.1600  176.4440  136.2560 C   0  0  0  0  0  3  0  0  0  0  0  0
  187.7740  176.7740  136.7960 C   0  0  0  0  0  3  0  0  0  0  0  0
  187.9090  177.6400  141.8800 C   0  0  0  0  0  2  0  0  0  0  0  0
  186.8550  177.2000  137.8900 C   0  0  0  0  0  0  0  0  0  0  0  0
  185.6430  177.5410  137.5910 N   0  0  0  0  0  2  0  0  0  0  0  0
  190.7360  178.1740  144.6750 C   0  0  0  0  0  0  0  0  0  0  0  0
  191.3770  177.2960  140.2170 C   0  0  0  0  0  0  0  0  0  0  0  0
  187.9830  176.8340  143.1020 N   0  0  0  0  0  2  0  0  0  0  0  0
  190.9950  176.9570  138.8960 C   0  0  0  0  0  0  0  0  0  0  0  0
  192.7220  177.3760  140.5690 O   0  0  0  0  0  1  0  0  0  0  0  0
  189.6150  176.9790  138.5580 C   0  0  0  0  0  0  0  0  0  0  0  0
  191.5040  176.3570  136.5950 C   0  0  0  0  0  3  0  0  0  0  0  0
  189.2120  176.7620  137.2250 C   0  0  0  0  0  0  0  0  0  0  0  0
  191.7540  178.9900  144.3460 N   0  0  0  0  0  0  0  0  0  0  0  0
  189.9960  178.1240  145.7990 N   0  0  0  0  0  0  0  0  0  0  0  0
  190.1990  177.5690  143.6590 N   0  0  0  0  0  0  0  0  0  0  0  0
  189.0490  177.0440  144.0260 C   0  0  1  0  0  3  0  0  0  0  0  0
  188.6460  177.1840  139.5520 C   0  0  0  0  0  0  0  0  0  0  0  0
  188.9280  177.3700  145.3820 C   0  0  0  0  0  0  0  0  0  0  0  0
  191.8250  178.8320  142.9820 C   0  0  0  0  0  3  0  0  0  0  0  0
  182.7400  177.6480  139.6230 C   0  0  2  0  0  3  0  0  0  0  0  0
  182.6980  179.1280  140.0890 C   0  0  0  0  0  2  0  0  0  0  0  0
  184.7080  178.0590  138.5850 C   0  0  2  0  0  3  0  0  0  0  0  0
  183.4400  177.4780  138.4000 O   0  0  0  0  0  0  0  0  0  0  0  0
  184.5820  179.5820  138.4490 C   0  0  0  0  0  2  0  0  0  0  0  0
  183.2420  180.0770  139.0160 C   0  0  0  0  0  2  0  0  0  0  0  0
  181.4190  175.5060  139.5050 C   0  0  0  0  0  1  0  0  0  0  0  0
  180.4570  177.4660  140.6800 C   0  0  0  0  0  1  0  0  0  0  0  0
  180.6830  177.4650  138.2210 C   0  0  0  0  0  1  0  0  0  0  0  0
  181.3340  177.0250  139.5170 C   0  0  0  0  0  0  0  0  0  0  0  0
  193.9750  175.0900  138.1540 C   0  0  0  0  0  0  0  0  0  0  0  0
  195.3030  174.9540  138.6630 N   0  0  0  0  0  2  0  0  0  0  0  0
  193.3140  176.3590  138.2430 N   0  0  0  0  0  2  0  0  0  0  0  0
  193.3820  174.0830  137.6750 O   0  0  0  0  0  0  0  0  0  0  0  0
  195.9590  173.6560  138.7340 C   0  0  0  0  0  2  0  0  0  0  0  0
  196.8590  173.4000  137.5130 C   0  0  1  0  0  3  0  0  0  0  0  0
  198.7350  172.5840  135.5360 C   0  0  0  0  0  2  0  0  0  0  0  0
  199.0800  173.8080  136.3920 C   0  0  0  0  0  2  0  0  0  0  0  0
  198.3140  173.8460  137.7190 C   0  0  0  0  0  2  0  0  0  0  0  0
  197.9720  171.5360  136.3430 C   0  0  0  0  0  2  0  0  0  0  0  0
  196.6930  172.0840  136.8210 N   0  0  1  0  0  0  0  0  0  0  0  0
  196.0650  171.0610  137.6620 C   0  0  0  0  0  3  0  0  0  0  0  0
  194.7600  170.6140  137.0220 C   0  0  0  0  0  2  0  0  0  0  0  0
  195.9860  169.7410  136.9130 C   0  0  0  0  0  2  0  0  0  0  0  0
  187.7740  177.0720  146.2370 C   0  0  0  0  0  0  0  0  0  0  0  0
  186.4520  177.3070  145.7680 N   0  0  0  0  0  1  0  0  0  0  0  0
  187.9530  176.6580  147.4080 O   0  0  0  0  0  0  0  0  0  0  0  0
  1  4  1  0  0  0  0
  2 23  1  0  0  0  0
  3  1  1  0  0  0  0
  3  8  1  0  0  0  0
  4 25  2  0  0  0  0
  4 21  1  0  0  0  0
  5 38  1  0  0  0  0
  5 14  1  0  0  0  0
  6 17  1  0  0  0  0
  6 18  2  0  0  0  0
  7 18  1  0  0  0  0
  7  9  2  0  0  0  0
  8 13  1  0  0  0  0
  9  2  1  0  0  0  0
 10  9  1  0  0  0  0
 11 20  1  0  0  0  0
 12 15  1  0  0  0  0
 12  1  2  0  0  0  0
 14 12  1  0  0  0  0
 16 14  2  0  0  0  0
 16 23  1  0  0  0  0
 17  5  2  0  0  0  0
 18 16  1  0  0  0  0
 19 11  2  0  0  0  0
 21 22  1  0  0  0  0
 21 11  1  0  0  0  0
 22 13  1  6  0  0  0
 22 24  1  0  0  0  0
 23  3  2  0  0  0  0
 24 20  2  0  0  0  0
 24 50  1  0  0  0  0
 25 19  1  0  0  0  0
 26 35  1  6  0  0  0
 26 27  1  0  0  0  0
 28 10  1  6  0  0  0
 29 28  1  0  0  0  0
 29 26  1  0  0  0  0
 30 28  1  0  0  0  0
 30 31  1  0  0  0  0
 31 27  1  0  0  0  0
 32 35  1  0  0  0  0
 34 35  1  0  0  0  0
 35 33  1  0  0  0  0
 36 38  1  0  0  0  0
 36 37  1  0  0  0  0
 37 40  1  0  0  0  0
 39 36  2  0  0  0  0
 41 44  1  0  0  0  0
 41 40  1  1  0  0  0
 42 45  1  0  0  0  0
 42 43  1  0  0  0  0
 43 44  1  0  0  0  0
 45 46  1  0  0  0  0
 46 41  1  0  0  0  0
 46 47  1  1  0  0  0
 48 47  1  0  0  0  0
 49 48  1  0  0  0  0
 49 47  1  0  0  0  0
 50 52  2  0  0  0  0
 51 50  1  0  0  0  0
M  END
>  <MODEL>
1

>  <REMARK>
 VINA RESULT:      -8.5      0.000      0.000
  Name = 
  7 active torsions:
  status: ('A' for Active; 'I' for Inactive)
    1  A    between atoms: C_5  and  C_29
    2  A    between atoms: C_6  and  N_45
    3  A    between atoms: C_9  and  C_28
    4  A    between atoms: N_10  and  C_28
    5  A    between atoms: C_12  and  N_23
    6  A    between atoms: C_13  and  C_51
    7  A    between atoms: C_14  and  N_24
                            x       y       z     vdW  Elec       q    Type
                         _______ _______ _______ _____ _____    ______ ____

>  <TORSDO>
F 7

$$$$
=
 OpenBabel10222417473D

 52 60  0  0  1  0  0  0  0  0999 V2000
  188.3010  177.1410  139.0180 C   0  0  0  0  0  0  0  0  0  0  0  0
  188.6920  177.8480  142.6310 O   0  0  0  0  0  0  0  0  0  0  0  0
  188.0000  177.5810  140.3350 C   0  0  0  0  0  0  0  0  0  0  0  0
  187.2170  176.9200  138.0350 C   0  0  0  0  0  0  0  0  0  0  0  0
  192.0540  177.0280  139.2080 C   0  0  0  0  0  0  0  0  0  0  0  0
  192.7010  177.3030  141.5340 C   0  0  0  0  0  3  0  0  0  0  0  0
  191.0830  177.6890  143.3590 C   0  0  0  0  0  3  0  0  0  0  0  0
  186.5870  177.8120  140.8310 C   0  0  0  0  0  2  0  0  0  0  0  0
  189.6240  177.7250  143.6590 C   0  0  0  0  0  0  0  0  0  0  0  0
  189.2370  177.6470  144.8920 N   0  0  0  0  0  2  0  0  0  0  0  0
  185.3270  177.1370  137.0840 C   0  0  0  0  0  0  0  0  0  0  0  0
  189.6420  176.9520  138.6320 C   0  0  0  0  0  0  0  0  0  0  0  0
  185.8190  178.7930  140.0600 N   0  0  0  0  0  2  0  0  0  0  0  0
  190.6890  177.1150  139.5720 C   0  0  0  0  0  0  0  0  0  0  0  0
  189.9220  176.6080  137.3110 O   0  0  0  0  0  1  0  0  0  0  0  0
  190.3530  177.3740  140.9280 C   0  0  0  0  0  0  0  0  0  0  0  0
  193.0380  177.1150  140.2000 C   0  0  0  0  0  3  0  0  0  0  0  0
  191.3650  177.4240  141.9080 C   0  0  0  0  0  0  0  0  0  0  0  0
  185.8240  176.0450  136.4740 N   0  0  0  0  0  0  0  0  0  0  0  0
  184.0590  177.5850  137.1560 N   0  0  0  0  0  0  0  0  0  0  0  0
  186.1230  177.6500  137.9720 N   0  0  0  0  0  0  0  0  0  0  0  0
  185.4510  178.5060  138.7130 C   0  0  1  0  0  3  0  0  0  0  0  0
  189.0200  177.6120  141.2940 C   0  0  0  0  0  0  0  0  0  0  0  0
  184.1540  178.4870  138.1850 C   0  0  0  0  0  0  0  0  0  0  0  0
  187.0560  175.9150  137.0700 C   0  0  0  0  0  3  0  0  0  0  0  0
  185.7340  178.0840  144.5760 C   0  0  2  0  0  3  0  0  0  0  0  0
  185.2300  177.9000  146.0320 C   0  0  0  0  0  2  0  0  0  0  0  0
  187.8290  177.5790  145.2670 C   0  0  2  0  0  3  0  0  0  0  0  0
  187.0860  178.5080  144.5140 O   0  0  0  0  0  0  0  0  0  0  0  0
  187.6620  177.9010  146.7580 C   0  0  0  0  0  2  0  0  0  0  0  0
  186.2450  178.4190  147.0560 C   0  0  0  0  0  2  0  0  0  0  0  0
  185.6740  180.1580  143.1490 C   0  0  0  0  0  1  0  0  0  0  0  0
  184.1160  178.2940  142.6520 C   0  0  0  0  0  1  0  0  0  0  0  0
  183.8140  179.6750  144.6770 C   0  0  0  0  0  1  0  0  0  0  0  0
  184.8420  179.0420  143.7620 C   0  0  0  0  0  0  0  0  0  0  0  0
  192.8000  175.7830  137.1150 C   0  0  0  0  0  0  0  0  0  0  0  0
  193.3170  175.8860  135.7880 N   0  0  0  0  0  2  0  0  0  0  0  0
  192.4490  176.9770  137.8280 N   0  0  0  0  0  2  0  0  0  0  0  0
  192.7000  174.6500  137.6620 O   0  0  0  0  0  0  0  0  0  0  0  0
  193.8280  174.7210  135.0810 C   0  0  0  0  0  2  0  0  0  0  0  0
  195.3630  174.7440  134.9710 C   0  0  1  0  0  3  0  0  0  0  0  0
  198.1910  174.8740  135.2500 C   0  0  0  0  0  2  0  0  0  0  0  0
  197.4570  176.1370  134.7900 C   0  0  0  0  0  2  0  0  0  0  0  0
  195.9720  176.1390  135.1710 C   0  0  0  0  0  2  0  0  0  0  0  0
  197.3610  174.0790  136.2560 C   0  0  0  0  0  2  0  0  0  0  0  0
  196.1010  173.6290  135.6440 N   0  0  1  0  0  0  0  0  0  0  0  0
  195.3190  172.9620  136.6880 C   0  0  0  0  0  3  0  0  0  0  0  0
  195.2300  171.4760  136.3800 C   0  0  0  0  0  2  0  0  0  0  0  0
  196.1870  171.9660  137.4390 C   0  0  0  0  0  2  0  0  0  0  0  0
  183.0010  179.2230  138.7160 C   0  0  0  0  0  0  0  0  0  0  0  0
  181.8810  178.5210  139.2410 N   0  0  0  0  0  1  0  0  0  0  0  0
  182.9770  180.4760  138.6570 O   0  0  0  0  0  0  0  0  0  0  0  0
  1  3  1  0  0  0  0
  2  9  1  0  0  0  0
  3  8  1  0  0  0  0
  3 23  2  0  0  0  0
  4  1  1  0  0  0  0
  5 14  2  0  0  0  0
  5 17  1  0  0  0  0
  6 18  1  0  0  0  0
  7  9  2  0  0  0  0
  9 10  1  0  0  0  0
 11 20  1  0  0  0  0
 11 21  1  0  0  0  0
 12  1  2  0  0  0  0
 12 14  1  0  0  0  0
 13  8  1  0  0  0  0
 14 16  1  0  0  0  0
 15 12  1  0  0  0  0
 16 23  1  0  0  0  0
 16 18  2  0  0  0  0
 17  6  2  0  0  0  0
 18  7  1  0  0  0  0
 19 25  1  0  0  0  0
 19 11  2  0  0  0  0
 20 24  2  0  0  0  0
 21  4  1  0  0  0  0
 21 22  1  0  0  0  0
 22 24  1  1  0  0  0
 22 13  1  0  0  0  0
 23  2  1  0  0  0  0
 24 50  1  0  0  0  0
 25  4  2  0  0  0  0
 26 35  1  1  0  0  0
 26 27  1  0  0  0  0
 27 31  1  0  0  0  0
 28 10  1  6  0  0  0
 28 30  1  0  0  0  0
 29 26  1  0  0  0  0
 29 28  1  0  0  0  0
 30 31  1  0  0  0  0
 32 35  1  0  0  0  0
 33 35  1  0  0  0  0
 35 34  1  0  0  0  0
 36 39  2  0  0  0  0
 36 38  1  0  0  0  0
 37 36  1  0  0  0  0
 38  5  1  0  0  0  0
 40 37  1  0  0  0  0
 41 40  1  1  0  0  0
 41 44  1  0  0  0  0
 41 46  1  0  0  0  0
 42 45  1  0  0  0  0
 43 44  1  0  0  0  0
 43 42  1  0  0  0  0
 46 45  1  0  0  0  0
 46 47  1  1  0  0  0
 47 49  1  0  0  0  0
 48 47  1  0  0  0  0
 48 49  1  0  0  0  0
 50 51  1  0  0  0  0
 52 50  2  0  0  0  0
M  END
>  <MODEL>
2

>  <REMARK>
 VINA RESULT:      -7.7      2.214      5.829
  Name = 
  7 active torsions:
  status: ('A' for Active; 'I' for Inactive)
    1  A    between atoms: C_5  and  C_29
    2  A    between atoms: C_6  and  N_45
    3  A    between atoms: C_9  and  C_28
    4  A    between atoms: N_10  and  C_28
    5  A    between atoms: C_12  and  N_23
    6  A    between atoms: C_13  and  C_51
    7  A    between atoms: C_14  and  N_24
                            x       y       z     vdW  Elec       q    Type
                         _______ _______ _______ _____ _____    ______ ____

>  <TORSDO>
F 7

$$$$
=
 OpenBabel10222417473D

 52 60  0  0  1  0  0  0  0  0999 V2000
  189.4820  177.8240  141.2530 C   0  0  0  0  0  0  0  0  0  0  0  0
  186.2720  177.6810  139.4120 O   0  0  0  0  0  0  0  0  0  0  0  0
  188.0850  177.7360  141.0030 C   0  0  0  0  0  0  0  0  0  0  0  0
  189.9810  178.1870  142.5980 C   0  0  0  0  0  0  0  0  0  0  0  0
  190.8130  176.8230  137.8820 C   0  0  0  0  0  0  0  0  0  0  0  0
  188.9540  176.7800  136.3190 C   0  0  0  0  0  3  0  0  0  0  0  0
  186.6170  177.2320  136.9720 C   0  0  0  0  0  3  0  0  0  0  0  0
  187.0330  178.0360  142.0510 C   0  0  0  0  0  2  0  0  0  0  0  0
  185.7740  177.6950  138.1110 C   0  0  0  0  0  0  0  0  0  0  0  0
  184.5690  178.1020  137.8720 N   0  0  0  0  0  2  0  0  0  0  0  0
  190.0110  178.3900  144.7150 C   0  0  0  0  0  0  0  0  0  0  0  0
  190.3970  177.5250  140.2250 C   0  0  0  0  0  0  0  0  0  0  0  0
  187.1210  177.2150  143.2620 N   0  0  0  0  0  2  0  0  0  0  0  0
  189.9370  177.2210  138.9210 C   0  0  0  0  0  0  0  0  0  0  0  0
  191.7600  177.5300  140.5140 O   0  0  0  0  0  1  0  0  0  0  0  0
  188.5460  177.3190  138.6480 C   0  0  0  0  0  0  0  0  0  0  0  0
  190.3060  176.6180  136.5940 C   0  0  0  0  0  3  0  0  0  0  0  0
  188.0710  177.1380  137.3340 C   0  0  0  0  0  0  0  0  0  0  0  0
  191.0560  179.1540  144.3450 N   0  0  0  0  0  0  0  0  0  0  0  0
  189.3230  178.3680  145.8720 N   0  0  0  0  0  0  0  0  0  0  0  0
  189.3960  177.8250  143.7210 N   0  0  0  0  0  0  0  0  0  0  0  0
  188.2370  177.3580  144.1370 C   0  0  1  0  0  3  0  0  0  0  0  0
  187.6370  177.5660  139.6880 C   0  0  0  0  0  0  0  0  0  0  0  0
  188.1980  177.6760  145.5000 C   0  0  0  0  0  0  0  0  0  0  0  0
  191.0540  179.0060  142.9780 C   0  0  0  0  0  3  0  0  0  0  0  0
  181.8890  178.2410  140.1880 C   0  0  2  0  0  3  0  0  0  0  0  0
  181.8030  179.7530  140.5270 C   0  0  0  0  0  2  0  0  0  0  0  0
  183.7110  178.6600  138.9130 C   0  0  2  0  0  3  0  0  0  0  0  0
  182.4690  177.9970  138.9170 O   0  0  0  0  0  0  0  0  0  0  0  0
  183.4760  180.1550  138.6610 C   0  0  0  0  0  2  0  0  0  0  0  0
  182.1720  180.6280  139.3240 C   0  0  0  0  0  2  0  0  0  0  0  0
  180.6440  176.0690  139.9070 C   0  0  0  0  0  1  0  0  0  0  0  0
  179.9610  177.6400  141.7000 C   0  0  0  0  0  1  0  0  0  0  0  0
  179.5470  178.1880  139.3280 C   0  0  0  0  0  1  0  0  0  0  0  0
  180.5220  177.5370  140.2880 C   0  0  0  0  0  0  0  0  0  0  0  0
  193.1020  175.9290  137.2140 C   0  0  0  0  0  0  0  0  0  0  0  0
  194.4000  175.5270  137.6560 N   0  0  0  0  0  2  0  0  0  0  0  0
  192.1880  176.5070  138.1560 N   0  0  0  0  0  2  0  0  0  0  0  0
  192.7590  175.7290  136.0160 O   0  0  0  0  0  0  0  0  0  0  0  0
  195.3070  174.7980  136.7800 C   0  0  0  0  0  2  0  0  0  0  0  0
  195.3860  173.3060  137.1490 C   0  0  1  0  0  3  0  0  0  0  0  0
  195.7680  170.4990  137.4030 C   0  0  0  0  0  2  0  0  0  0  0  0
  194.4240  170.9940  136.8570 C   0  0  0  0  0  2  0  0  0  0  0  0
  194.5010  172.4090  136.2730 C   0  0  0  0  0  2  0  0  0  0  0  0
  196.9210  171.3870  136.9410 C   0  0  0  0  0  2  0  0  0  0  0  0
  196.7480  172.7590  137.4420 N   0  0  1  0  0  0  0  0  0  0  0  0
  197.8330  173.5700  136.8820 C   0  0  0  0  0  3  0  0  0  0  0  0
  198.6420  174.1820  138.0140 C   0  0  0  0  0  2  0  0  0  0  0  0
  199.1800  172.9850  137.2690 C   0  0  0  0  0  2  0  0  0  0  0  0
  187.0700  177.4310  146.4060 C   0  0  0  0  0  0  0  0  0  0  0  0
  185.7640  177.8800  146.0650 N   0  0  0  0  0  1  0  0  0  0  0  0
  187.2650  176.8700  147.5110 O   0  0  0  0  0  0  0  0  0  0  0  0
  1  4  1  0  0  0  0
  2 23  1  0  0  0  0
  3  1  1  0  0  0  0
  3  8  1  0  0  0  0
  4 25  2  0  0  0  0
  4 21  1  0  0  0  0
  5 38  1  0  0  0  0
  5 14  1  0  0  0  0
  6 17  1  0  0  0  0
  6 18  2  0  0  0  0
  7 18  1  0  0  0  0
  7  9  2  0  0  0  0
  8 13  1  0  0  0  0
  9  2  1  0  0  0  0
 10  9  1  0  0  0  0
 11 20  1  0  0  0  0
 12 15  1  0  0  0  0
 12  1  2  0  0  0  0
 14 12  1  0  0  0  0
 16 14  2  0  0  0  0
 16 23  1  0  0  0  0
 17  5  2  0  0  0  0
 18 16  1  0  0  0  0
 19 11  2  0  0  0  0
 21 22  1  0  0  0  0
 21 11  1  0  0  0  0
 22 13  1  6  0  0  0
 22 24  1  0  0  0  0
 23  3  2  0  0  0  0
 24 20  2  0  0  0  0
 24 50  1  0  0  0  0
 25 19  1  0  0  0  0
 26 35  1  6  0  0  0
 26 27  1  0  0  0  0
 28 10  1  6  0  0  0
 28 29  1  0  0  0  0
 29 26  1  0  0  0  0
 30 28  1  0  0  0  0
 30 31  1  0  0  0  0
 31 27  1  0  0  0  0
 32 35  1  0  0  0  0
 34 35  1  0  0  0  0
 35 33  1  0  0  0  0
 36 37  1  0  0  0  0
 36 38  1  0  0  0  0
 39 36  2  0  0  0  0
 40 37  1  0  0  0  0
 41 40  1  6  0  0  0
 41 46  1  0  0  0  0
 43 42  1  0  0  0  0
 44 43  1  0  0  0  0
 44 41  1  0  0  0  0
 45 42  1  0  0  0  0
 45 46  1  0  0  0  0
 46 47  1  6  0  0  0
 47 49  1  0  0  0  0
 47 48  1  0  0  0  0
 49 48  1  0  0  0  0
 50 52  2  0  0  0  0
 51 50  1  0  0  0  0
M  END
>  <MODEL>
3

>  <REMARK>
 VINA RESULT:      -7.3      1.098      1.915
  Name = 
  7 active torsions:
  status: ('A' for Active; 'I' for Inactive)
    1  A    between atoms: C_5  and  C_29
    2  A    between atoms: C_6  and  N_45
    3  A    between atoms: C_9  and  C_28
    4  A    between atoms: N_10  and  C_28
    5  A    between atoms: C_12  and  N_23
    6  A    between atoms: C_13  and  C_51
    7  A    between atoms: C_14  and  N_24
                            x       y       z     vdW  Elec       q    Type
                         _______ _______ _______ _____ _____    ______ ____

>  <TORSDO>
F 7

$$$$
=
 OpenBabel10222417473D

 52 60  0  0  1  0  0  0  0  0999 V2000
  185.5270  177.8680  139.2180 C   0  0  0  0  0  0  0  0  0  0  0  0
  182.3040  178.6010  137.5490 O   0  0  0  0  0  0  0  0  0  0  0  0
  184.1710  178.2540  139.0370 C   0  0  0  0  0  0  0  0  0  0  0  0
  186.2550  178.2410  140.4500 C   0  0  0  0  0  0  0  0  0  0  0  0
  186.0730  175.9050  136.0570 C   0  0  0  0  0  0  0  0  0  0  0  0
  184.1700  176.2840  134.5950 C   0  0  0  0  0  3  0  0  0  0  0  0
  182.2190  177.6590  135.2300 C   0  0  0  0  0  3  0  0  0  0  0  0
  183.4040  179.0870  140.0440 C   0  0  0  0  0  2  0  0  0  0  0  0
  181.7140  178.5790  136.2870 C   0  0  0  0  0  0  0  0  0  0  0  0
  180.7120  179.3530  136.0160 N   0  0  0  0  0  2  0  0  0  0  0  0
  186.5690  178.7670  142.4870 C   0  0  0  0  0  0  0  0  0  0  0  0
  186.1700  177.0890  138.2350 C   0  0  0  0  0  0  0  0  0  0  0  0
  183.3190  178.5030  141.3850 N   0  0  0  0  0  2  0  0  0  0  0  0
  185.5030  176.7620  137.0300 C   0  0  0  0  0  0  0  0  0  0  0  0
  187.4680  176.6450  138.4710 O   0  0  0  0  0  1  0  0  0  0  0  0
  184.2150  177.3140  136.7910 C   0  0  0  0  0  0  0  0  0  0  0  0
  185.3980  175.6890  134.8500 C   0  0  0  0  0  3  0  0  0  0  0  0
  183.5760  177.1030  135.5530 C   0  0  0  0  0  0  0  0  0  0  0  0
  187.7720  179.0250  141.9420 N   0  0  0  0  0  0  0  0  0  0  0  0
  186.0370  179.1900  143.6500 N   0  0  0  0  0  0  0  0  0  0  0  0
  185.6970  178.3090  141.6410 N   0  0  0  0  0  0  0  0  0  0  0  0
  184.4960  178.3720  142.1780 C   0  0  1  0  0  3  0  0  0  0  0  0
  183.5610  178.0440  137.7950 C   0  0  0  0  0  0  0  0  0  0  0  0
  184.7100  178.9050  143.4550 C   0  0  0  0  0  0  0  0  0  0  0  0
  187.5810  178.6640  140.6300 C   0  0  0  0  0  3  0  0  0  0  0  0
  180.0910  182.5720  137.3630 C   0  0  2  0  0  3  0  0  0  0  0  0
  179.7200  182.2640  138.8390 C   0  0  0  0  0  2  0  0  0  0  0  0
  180.2150  180.3490  136.9600 C   0  0  2  0  0  3  0  0  0  0  0  0
  180.9020  181.5640  136.7810 O   0  0  0  0  0  0  0  0  0  0  0  0
  180.4250  179.8650  138.4000 C   0  0  0  0  0  2  0  0  0  0  0  0
  180.4860  181.0510  139.3770 C   0  0  0  0  0  2  0  0  0  0  0  0
  179.9170  185.0380  137.8440 C   0  0  0  0  0  1  0  0  0  0  0  0
  182.1480  183.9550  137.8360 C   0  0  0  0  0  1  0  0  0  0  0  0
  180.9000  184.2740  135.7280 C   0  0  0  0  0  1  0  0  0  0  0  0
  180.7630  183.9490  137.2020 C   0  0  0  0  0  0  0  0  0  0  0  0
  188.5840  175.5160  135.8930 C   0  0  0  0  0  0  0  0  0  0  0  0
  189.6670  174.6110  136.1160 N   0  0  0  0  0  2  0  0  0  0  0  0
  187.2680  175.1600  136.3390 N   0  0  0  0  0  2  0  0  0  0  0  0
  188.7870  176.5940  135.2680 O   0  0  0  0  0  0  0  0  0  0  0  0
  190.9870  174.8550  135.5510 C   0  0  0  0  0  2  0  0  0  0  0  0
  192.0920  174.1350  136.3440 C   0  0  1  0  0  3  0  0  0  0  0  0
  194.4210  173.1770  137.6670 C   0  0  0  0  0  2  0  0  0  0  0  0
  194.1000  172.6110  136.2790 C   0  0  0  0  0  2  0  0  0  0  0  0
  193.1880  173.5280  135.4560 C   0  0  0  0  0  2  0  0  0  0  0  0
  194.0340  174.6500  137.7740 C   0  0  0  0  0  2  0  0  0  0  0  0
  192.5860  174.8190  137.5800 N   0  0  1  0  0  0  0  0  0  0  0  0
  192.3060  176.2570  137.5990 C   0  0  0  0  0  3  0  0  0  0  0  0
  191.3590  176.5720  138.7460 C   0  0  0  0  0  2  0  0  0  0  0  0
  192.8300  176.8780  138.8830 C   0  0  0  0  0  2  0  0  0  0  0  0
  183.6660  179.2420  144.4300 C   0  0  0  0  0  0  0  0  0  0  0  0
  183.8950  179.0590  145.8210 N   0  0  0  0  0  1  0  0  0  0  0  0
  182.5440  179.6420  144.0330 O   0  0  0  0  0  0  0  0  0  0  0  0
  1  4  1  0  0  0  0
  2 23  1  0  0  0  0
  3  1  1  0  0  0  0
  3  8  1  0  0  0  0
  4 25  2  0  0  0  0
  4 21  1  0  0  0  0
  5 38  1  0  0  0  0
  5 14  1  0  0  0  0
  6 17  1  0  0  0  0
  6 18  2  0  0  0  0
  7 18  1  0  0  0  0
  7  9  2  0  0  0  0
  8 13  1  0  0  0  0
  9  2  1  0  0  0  0
 10  9  1  0  0  0  0
 11 20  1  0  0  0  0
 12 15  1  0  0  0  0
 12  1  2  0  0  0  0
 14 12  1  0  0  0  0
 16 14  2  0  0  0  0
 16 23  1  0  0  0  0
 17  5  2  0  0  0  0
 18 16  1  0  0  0  0
 19 11  2  0  0  0  0
 21 22  1  0  0  0  0
 21 11  1  0  0  0  0
 22 13  1  6  0  0  0
 22 24  1  0  0  0  0
 23  3  2  0  0  0  0
 24 20  2  0  0  0  0
 24 50  1  0  0  0  0
 25 19  1  0  0  0  0
 26 35  1  1  0  0  0
 26 27  1  0  0  0  0
 27 31  1  0  0  0  0
 28 10  1  6  0  0  0
 28 30  1  0  0  0  0
 29 28  1  0  0  0  0
 29 26  1  0  0  0  0
 30 31  1  0  0  0  0
 34 35  1  0  0  0  0
 35 33  1  0  0  0  0
 35 32  1  0  0  0  0
 36 37  1  0  0  0  0
 36 38  1  0  0  0  0
 39 36  2  0  0  0  0
 40 37  1  0  0  0  0
 41 40  1  6  0  0  0
 41 46  1  0  0  0  0
 42 45  1  0  0  0  0
 43 42  1  0  0  0  0
 44 43  1  0  0  0  0
 44 41  1  0  0  0  0
 46 47  1  6  0  0  0
 46 45  1  0  0  0  0
 47 48  1  0  0  0  0
 47 49  1  0  0  0  0
 48 49  1  0  0  0  0
 50 51  1  0  0  0  0
 52 50  2  0  0  0  0
M  END
>  <MODEL>
4

>  <REMARK>
 VINA RESULT:      -6.2      3.217      5.731
  Name = 
  7 active torsions:
  status: ('A' for Active; 'I' for Inactive)
    1  A    between atoms: C_5  and  C_29
    2  A    between atoms: C_6  and  N_45
    3  A    between atoms: C_9  and  C_28
    4  A    between atoms: N_10  and  C_28
    5  A    between atoms: C_12  and  N_23
    6  A    between atoms: C_13  and  C_51
    7  A    between atoms: C_14  and  N_24
                            x       y       z     vdW  Elec       q    Type
                         _______ _______ _______ _____ _____    ______ ____

>  <TORSDO>
F 7

$$$$
=
 OpenBabel10222417473D

 52 60  0  0  1  0  0  0  0  0999 V2000
  185.2870  178.7000  141.0570 C   0  0  0  0  0  0  0  0  0  0  0  0
  183.9920  177.6290  137.7580 O   0  0  0  0  0  0  0  0  0  0  0  0
  184.3910  178.2250  140.0620 C   0  0  0  0  0  0  0  0  0  0  0  0
  184.7720  179.2240  142.3420 C   0  0  0  0  0  0  0  0  0  0  0  0
  188.5720  178.0080  139.3630 C   0  0  0  0  0  0  0  0  0  0  0  0
  188.1180  177.4120  137.0520 C   0  0  0  0  0  3  0  0  0  0  0  0
  185.8400  177.2220  136.1180 C   0  0  0  0  0  3  0  0  0  0  0  0
  182.8840  178.2540  140.2190 C   0  0  0  0  0  2  0  0  0  0  0  0
  184.4060  177.4680  136.4380 C   0  0  0  0  0  0  0  0  0  0  0  0
  183.5490  177.5220  135.4680 N   0  0  0  0  0  2  0  0  0  0  0  0
  183.4570  179.4880  143.9920 C   0  0  0  0  0  0  0  0  0  0  0  0
  186.6770  178.6350  140.8370 C   0  0  0  0  0  0  0  0  0  0  0  0
  182.3740  177.5230  141.3820 N   0  0  0  0  0  2  0  0  0  0  0  0
  187.1860  178.1800  139.5960 C   0  0  0  0  0  0  0  0  0  0  0  0
  187.5400  179.0220  141.8590 O   0  0  0  0  0  1  0  0  0  0  0  0
  186.2700  177.8840  138.5510 C   0  0  0  0  0  0  0  0  0  0  0  0
  189.0150  177.6350  138.0890 C   0  0  0  0  0  3  0  0  0  0  0  0
  186.7490  177.5420  137.2700 C   0  0  0  0  0  0  0  0  0  0  0  0
  184.3290  180.4980  144.1640 N   0  0  0  0  0  0  0  0  0  0  0  0
  182.2250  179.3100  144.5080 N   0  0  0  0  0  0  0  0  0  0  0  0
  183.7090  178.7470  142.9550 N   0  0  0  0  0  0  0  0  0  0  0  0
  182.6620  177.9920  142.6970 C   0  0  1  0  0  3  0  0  0  0  0  0
  184.8880  177.9010  138.7940 C   0  0  0  0  0  0  0  0  0  0  0  0
  181.7330  178.3260  143.6890 C   0  0  0  0  0  0  0  0  0  0  0  0
  185.1950  180.3180  143.1120 C   0  0  0  0  0  3  0  0  0  0  0  0
  180.7330  179.5260  136.2580 C   0  0  2  0  0  3  0  0  0  0  0  0
  179.6240  178.4730  136.5250 C   0  0  0  0  0  2  0  0  0  0  0  0
  182.1440  177.8520  135.6840 C   0  0  2  0  0  3  0  0  0  0  0  0
  182.0380  179.0130  136.4730 O   0  0  0  0  0  0  0  0  0  0  0  0
  181.4330  176.6970  136.4000 C   0  0  0  0  0  2  0  0  0  0  0  0
  180.1910  177.1970  137.1560 C   0  0  0  0  0  2  0  0  0  0  0  0
  181.6260  180.9630  138.1230 C   0  0  0  0  0  1  0  0  0  0  0  0
  180.5350  182.0390  136.1730 C   0  0  0  0  0  1  0  0  0  0  0  0
  179.2010  180.7480  137.8030 C   0  0  0  0  0  1  0  0  0  0  0  0
  180.5310  180.8140  137.0780 C   0  0  0  0  0  0  0  0  0  0  0  0
  189.6360  177.1370  141.5060 C   0  0  0  0  0  0  0  0  0  0  0  0
  190.5180  177.4110  142.5960 N   0  0  0  0  0  2  0  0  0  0  0  0
  189.5180  178.0900  140.4410 N   0  0  0  0  0  2  0  0  0  0  0  0
  188.9400  176.0840  141.5130 O   0  0  0  0  0  0  0  0  0  0  0  0
  190.5610  176.5520  143.7710 C   0  0  0  0  0  2  0  0  0  0  0  0
  189.8320  177.1850  144.9700 C   0  0  1  0  0  3  0  0  0  0  0  0
  188.4250  177.8900  147.3400 C   0  0  0  0  0  2  0  0  0  0  0  0
  187.6290  177.7940  146.0340 C   0  0  0  0  0  2  0  0  0  0  0  0
  188.3190  176.9270  144.9750 C   0  0  0  0  0  2  0  0  0  0  0  0
  189.5370  176.8440  147.3950 C   0  0  0  0  0  2  0  0  0  0  0  0
  190.5000  177.0560  146.3040 N   0  0  1  0  0  0  0  0  0  0  0  0
  191.4770  175.9660  146.3620 C   0  0  0  0  0  3  0  0  0  0  0  0
  192.4280  176.2010  147.5250 C   0  0  0  0  0  2  0  0  0  0  0  0
  191.3180  175.1870  147.6570 C   0  0  0  0  0  2  0  0  0  0  0  0
  180.3650  177.8060  143.7930 C   0  0  0  0  0  0  0  0  0  0  0  0
  179.3590  178.2420  142.8860 N   0  0  0  0  0  1  0  0  0  0  0  0
  180.0640  177.0150  144.7190 O   0  0  0  0  0  0  0  0  0  0  0  0
  1  4  1  0  0  0  0
  2 23  1  0  0  0  0
  3  8  1  0  0  0  0
  3  1  2  0  0  0  0
  4 21  1  0  0  0  0
  4 25  2  0  0  0  0
  5 14  1  0  0  0  0
  5 38  1  0  0  0  0
  6 18  2  0  0  0  0
  6 17  1  0  0  0  0
  7  9  2  0  0  0  0
  7 18  1  0  0  0  0
  8 13  1  0  0  0  0
  9  2  1  0  0  0  0
 10  9  1  0  0  0  0
 11 19  2  0  0  0  0
 11 20  1  0  0  0  0
 12  1  1  0  0  0  0
 12 15  1  0  0  0  0
 14 12  2  0  0  0  0
 16 23  2  0  0  0  0
 16 14  1  0  0  0  0
 17  5  2  0  0  0  0
 18 16  1  0  0  0  0
 21 11  1  0  0  0  0
 22 13  1  6  0  0  0
 22 21  1  0  0  0  0
 22 24  1  0  0  0  0
 23  3  1  0  0  0  0
 24 50  1  0  0  0  0
 24 20  2  0  0  0  0
 25 19  1  0  0  0  0
 26 29  1  0  0  0  0
 26 27  1  0  0  0  0
 26 35  1  1  0  0  0
 27 31  1  0  0  0  0
 28 10  1  1  0  0  0
 28 30  1  0  0  0  0
 28 29  1  0  0  0  0
 30 31  1  0  0  0  0
 33 35  1  0  0  0  0
 35 34  1  0  0  0  0
 35 32  1  0  0  0  0
 36 39  2  0  0  0  0
 36 37  1  0  0  0  0
 37 40  1  0  0  0  0
 38 36  1  0  0  0  0
 41 40  1  6  0  0  0
 41 44  1  0  0  0  0
 41 46  1  0  0  0  0
 42 45  1  0  0  0  0
 43 42  1  0  0  0  0
 44 43  1  0  0  0  0
 46 47  1  6  0  0  0
 46 45  1  0  0  0  0
 47 48  1  0  0  0  0
 47 49  1  0  0  0  0
 48 49  1  0  0  0  0
 50 52  2  0  0  0  0
 51 50  1  0  0  0  0
M  END
>  <MODEL>
5

>  <REMARK>
 VINA RESULT:      -6.0      5.053      7.469
  Name = 
  7 active torsions:
  status: ('A' for Active; 'I' for Inactive)
    1  A    between atoms: C_5  and  C_29
    2  A    between atoms: C_6  and  N_45
    3  A    between atoms: C_9  and  C_28
    4  A    between atoms: N_10  and  C_28
    5  A    between atoms: C_12  and  N_23
    6  A    between atoms: C_13  and  C_51
    7  A    between atoms: C_14  and  N_24
                            x       y       z     vdW  Elec       q    Type
                         _______ _______ _______ _____ _____    ______ ____

>  <TORSDO>
F 7

$$$$
=
 OpenBabel10222417473D

 52 60  0  0  1  0  0  0  0  0999 V2000
  186.8820  177.7940  139.9280 C   0  0  0  0  0  0  0  0  0  0  0  0
  183.5840  178.4100  138.3620 O   0  0  0  0  0  0  0  0  0  0  0  0
  185.4940  178.0730  139.7960 C   0  0  0  0  0  0  0  0  0  0  0  0
  187.5900  178.0940  141.1920 C   0  0  0  0  0  0  0  0  0  0  0  0
  187.5590  176.2500  136.5670 C   0  0  0  0  0  0  0  0  0  0  0  0
  185.6100  176.6120  135.1630 C   0  0  0  0  0  3  0  0  0  0  0  0
  183.5530  177.7250  135.9530 C   0  0  0  0  0  3  0  0  0  0  0  0
  184.6690  178.7160  140.8910 C   0  0  0  0  0  2  0  0  0  0  0  0
  182.9810  178.4730  137.1070 C   0  0  0  0  0  0  0  0  0  0  0  0
  181.9090  179.1770  136.9270 N   0  0  0  0  0  2  0  0  0  0  0  0
  187.8820  178.4200  143.2730 C   0  0  0  0  0  0  0  0  0  0  0  0
  187.5790  177.1900  138.8630 C   0  0  0  0  0  0  0  0  0  0  0  0
  184.6550  177.9830  142.1600 N   0  0  0  0  0  2  0  0  0  0  0  0
  186.9280  176.9380  137.6310 C   0  0  0  0  0  0  0  0  0  0  0  0
  188.9150  176.8430  139.0440 O   0  0  0  0  0  1  0  0  0  0  0  0
  185.5930  177.3930  137.4590 C   0  0  0  0  0  0  0  0  0  0  0  0
  186.8910  176.1060  135.3460 C   0  0  0  0  0  3  0  0  0  0  0  0
  184.9590  177.2630  136.2070 C   0  0  0  0  0  0  0  0  0  0  0  0
  189.0500  178.8440  142.7560 N   0  0  0  0  0  0  0  0  0  0  0  0
  187.3310  178.6620  144.4780 N   0  0  0  0  0  0  0  0  0  0  0  0
  187.0440  177.9790  142.3840 N   0  0  0  0  0  0  0  0  0  0  0  0
  185.8500  177.8740  142.9290 C   0  0  1  0  0  3  0  0  0  0  0  0
  184.8890  177.9460  138.5400 C   0  0  0  0  0  0  0  0  0  0  0  0
  186.0320  178.2800  144.2570 C   0  0  0  0  0  0  0  0  0  0  0  0
  188.8740  178.6140  141.4120 C   0  0  0  0  0  3  0  0  0  0  0  0
  180.6640  180.0180  140.1380 C   0  0  2  0  0  3  0  0  0  0  0  0
  179.8900  181.3380  139.8730 C   0  0  0  0  0  2  0  0  0  0  0  0
  181.3370  180.0140  137.9770 C   0  0  2  0  0  3  0  0  0  0  0  0
  180.7700  179.2050  138.9800 O   0  0  0  0  0  0  0  0  0  0  0  0
  180.2460  180.9220  137.3950 C   0  0  0  0  0  2  0  0  0  0  0  0
  179.2480  181.3520  138.4820 C   0  0  0  0  0  2  0  0  0  0  0  0
  179.3600  177.9610  140.7780 C   0  0  0  0  0  1  0  0  0  0  0  0
  181.1420  178.7920  142.2900 C   0  0  0  0  0  1  0  0  0  0  0  0
  179.0320  180.0500  142.0260 C   0  0  0  0  0  1  0  0  0  0  0  0
  180.0610  179.2060  141.3000 C   0  0  0  0  0  0  0  0  0  0  0  0
  190.0850  176.0750  136.2860 C   0  0  0  0  0  0  0  0  0  0  0  0
  191.2440  175.2510  136.4150 N   0  0  0  0  0  2  0  0  0  0  0  0
  188.8210  175.5900  136.7600 N   0  0  0  0  0  2  0  0  0  0  0  0
  190.1750  177.1980  135.7160 O   0  0  0  0  0  0  0  0  0  0  0  0
  192.5150  175.6310  135.8160 C   0  0  0  0  0  2  0  0  0  0  0  0
  193.7100  175.2200  136.6950 C   0  0  1  0  0  3  0  0  0  0  0  0
  196.0820  174.2330  137.9160 C   0  0  0  0  0  2  0  0  0  0  0  0
  194.7890  173.4320  138.1070 C   0  0  0  0  0  2  0  0  0  0  0  0
  193.7410  173.7220  137.0270 C   0  0  0  0  0  2  0  0  0  0  0  0
  196.1460  174.8690  136.5290 C   0  0  0  0  0  2  0  0  0  0  0  0
  195.0370  175.8180  136.3450 N   0  0  1  0  0  0  0  0  0  0  0  0
  195.1070  176.3130  134.9680 C   0  0  0  0  0  3  0  0  0  0  0  0
  195.5800  177.7580  134.9730 C   0  0  0  0  0  2  0  0  0  0  0  0
  196.5410  176.6550  134.6040 C   0  0  0  0  0  2  0  0  0  0  0  0
  184.9750  178.4110  145.2660 C   0  0  0  0  0  0  0  0  0  0  0  0
  185.2710  178.2280  146.6460 N   0  0  0  0  0  1  0  0  0  0  0  0
  183.7920  178.6310  144.9100 O   0  0  0  0  0  0  0  0  0  0  0  0
  1  4  1  0  0  0  0
  2 23  1  0  0  0  0
  3  1  1  0  0  0  0
  3  8  1  0  0  0  0
  4 25  2  0  0  0  0
  4 21  1  0  0  0  0
  5 38  1  0  0  0  0
  5 14  1  0  0  0  0
  6 17  1  0  0  0  0
  6 18  2  0  0  0  0
  7 18  1  0  0  0  0
  7  9  2  0  0  0  0
  8 13  1  0  0  0  0
  9  2  1  0  0  0  0
 10  9  1  0  0  0  0
 11 20  1  0  0  0  0
 12 15  1  0  0  0  0
 12  1  2  0  0  0  0
 14 12  1  0  0  0  0
 16 14  2  0  0  0  0
 16 23  1  0  0  0  0
 17  5  2  0  0  0  0
 18 16  1  0  0  0  0
 19 11  2  0  0  0  0
 21 22  1  0  0  0  0
 21 11  1  0  0  0  0
 22 13  1  6  0  0  0
 22 24  1  0  0  0  0
 23  3  2  0  0  0  0
 24 20  2  0  0  0  0
 24 50  1  0  0  0  0
 25 19  1  0  0  0  0
 26 35  1  1  0  0  0
 27 26  1  0  0  0  0
 28 10  1  6  0  0  0
 28 29  1  0  0  0  0
 29 26  1  0  0  0  0
 30 28  1  0  0  0  0
 30 31  1  0  0  0  0
 31 27  1  0  0  0  0
 32 35  1  0  0  0  0
 35 34  1  0  0  0  0
 35 33  1  0  0  0  0
 36 37  1  0  0  0  0
 36 38  1  0  0  0  0
 39 36  2  0  0  0  0
 40 37  1  0  0  0  0
 41 40  1  6  0  0  0
 41 44  1  0  0  0  0
 42 43  1  0  0  0  0
 44 43  1  0  0  0  0
 45 42  1  0  0  0  0
 46 47  1  6  0  0  0
 46 45  1  0  0  0  0
 46 41  1  0  0  0  0
 47 48  1  0  0  0  0
 49 47  1  0  0  0  0
 49 48  1  0  0  0  0
 50 51  1  0  0  0  0
 52 50  2  0  0  0  0
M  END
>  <MODEL>
6

>  <REMARK>
 VINA RESULT:      -6.0      2.613      4.210
  Name = 
  7 active torsions:
  status: ('A' for Active; 'I' for Inactive)
    1  A    between atoms: C_5  and  C_29
    2  A    between atoms: C_6  and  N_45
    3  A    between atoms: C_9  and  C_28
    4  A    between atoms: N_10  and  C_28
    5  A    between atoms: C_12  and  N_23
    6  A    between atoms: C_13  and  C_51
    7  A    between atoms: C_14  and  N_24
                            x       y       z     vdW  Elec       q    Type
                         _______ _______ _______ _____ _____    ______ ____

>  <TORSDO>
F 7

$$$$
=
 OpenBabel10222417473D

 52 60  0  0  1  0  0  0  0  0999 V2000
  187.9490  177.7770  140.6300 C   0  0  0  0  0  0  0  0  0  0  0  0
  190.4290  176.9940  137.9950 O   0  0  0  0  0  0  0  0  0  0  0  0
  189.1940  177.4880  140.0080 C   0  0  0  0  0  0  0  0  0  0  0  0
  187.7890  177.6220  142.0930 C   0  0  0  0  0  0  0  0  0  0  0  0
  185.9750  178.9240  137.6430 C   0  0  0  0  0  0  0  0  0  0  0  0
  187.2580  178.4080  135.6460 C   0  0  0  0  0  3  0  0  0  0  0  0
  189.5100  177.3980  135.7000 C   0  0  0  0  0  3  0  0  0  0  0  0
  190.4020  176.9770  140.7640 C   0  0  0  0  0  2  0  0  0  0  0  0
  190.5120  176.7880  136.6190 C   0  0  0  0  0  0  0  0  0  0  0  0
  191.4660  176.0710  136.1180 N   0  0  0  0  0  2  0  0  0  0  0  0
  188.3250  177.5360  144.1490 C   0  0  0  0  0  0  0  0  0  0  0  0
  186.8720  178.2530  139.8570 C   0  0  0  0  0  0  0  0  0  0  0  0
  190.8630  177.8500  141.8470 N   0  0  0  0  0  2  0  0  0  0  0  0
  186.9940  178.3640  138.4500 C   0  0  0  0  0  0  0  0  0  0  0  0
  185.6900  178.6150  140.4980 O   0  0  0  0  0  1  0  0  0  0  0  0
  188.1830  177.8950  137.8290 C   0  0  0  0  0  0  0  0  0  0  0  0
  186.1210  178.9280  136.2510 C   0  0  0  0  0  3  0  0  0  0  0  0
  188.2870  177.8830  136.4240 C   0  0  0  0  0  0  0  0  0  0  0  0
  187.0690  177.0520  144.1660 N   0  0  0  0  0  0  0  0  0  0  0  0
  189.3030  177.4350  145.0690 N   0  0  0  0  0  0  0  0  0  0  0  0
  188.7410  177.8740  142.9670 N   0  0  0  0  0  0  0  0  0  0  0  0
  190.0470  178.0440  142.9990 C   0  0  1  0  0  3  0  0  0  0  0  0
  189.2700  177.4720  138.6090 C   0  0  0  0  0  0  0  0  0  0  0  0
  190.4020  177.7930  144.3300 C   0  0  0  0  0  0  0  0  0  0  0  0
  186.7100  177.1280  142.8420 C   0  0  0  0  0  3  0  0  0  0  0  0
  194.6440  175.0050  137.2720 C   0  0  2  0  0  3  0  0  0  0  0  0
  194.2980  173.7690  138.1450 C   0  0  0  0  0  2  0  0  0  0  0  0
  192.4320  175.3610  136.9500 C   0  0  2  0  0  3  0  0  0  0  0  0
  193.6650  175.2640  136.2780 O   0  0  0  0  0  0  0  0  0  0  0  0
  191.9240  173.9480  137.2640 C   0  0  0  0  0  2  0  0  0  0  0  0
  193.0910  173.0030  137.5940 C   0  0  0  0  0  2  0  0  0  0  0  0
  196.3040  176.0880  135.7180 C   0  0  0  0  0  1  0  0  0  0  0  0
  197.1260  174.8240  137.6870 C   0  0  0  0  0  1  0  0  0  0  0  0
  196.1030  173.6420  135.7750 C   0  0  0  0  0  1  0  0  0  0  0  0
  196.0380  174.8950  136.6240 C   0  0  0  0  0  0  0  0  0  0  0  0
  183.5850  178.9910  138.5220 C   0  0  0  0  0  0  0  0  0  0  0  0
  182.5030  179.8080  138.9730 N   0  0  0  0  0  2  0  0  0  0  0  0
  184.8520  179.5990  138.2340 N   0  0  0  0  0  2  0  0  0  0  0  0
  183.4020  177.7560  138.3380 O   0  0  0  0  0  0  0  0  0  0  0  0
  181.1610  179.2680  139.1320 C   0  0  0  0  0  2  0  0  0  0  0  0
  180.7920  179.0760  140.6140 C   0  0  1  0  0  3  0  0  0  0  0  0
  179.6570  178.6270  143.1840 C   0  0  0  0  0  2  0  0  0  0  0  0
  179.7780  180.0750  142.6950 C   0  0  0  0  0  2  0  0  0  0  0  0
  179.8870  180.1840  141.1700 C   0  0  0  0  0  2  0  0  0  0  0  0
  179.3430  177.6730  142.0340 C   0  0  0  0  0  2  0  0  0  0  0  0
  180.4270  177.6880  141.0400 N   0  0  1  0  0  0  0  0  0  0  0  0
  180.0130  176.8290  139.9270 C   0  0  0  0  0  3  0  0  0  0  0  0
  180.9430  175.6280  139.8430 C   0  0  0  0  0  2  0  0  0  0  0  0
  179.5690  175.4720  140.4470 C   0  0  0  0  0  2  0  0  0  0  0  0
  191.7680  177.7810  144.8650 C   0  0  0  0  0  0  0  0  0  0  0  0
  192.1410  176.8380  145.8630 N   0  0  0  0  0  1  0  0  0  0  0  0
  192.5980  178.6400  144.4820 O   0  0  0  0  0  0  0  0  0  0  0  0
  1  4  1  0  0  0  0
  2 23  1  0  0  0  0
  3  1  1  0  0  0  0
  3  8  1  0  0  0  0
  4 25  2  0  0  0  0
  4 21  1  0  0  0  0
  5 38  1  0  0  0  0
  5 14  1  0  0  0  0
  6 17  1  0  0  0  0
  6 18  2  0  0  0  0
  7 18  1  0  0  0  0
  7  9  2  0  0  0  0
  8 13  1  0  0  0  0
  9  2  1  0  0  0  0
 10  9  1  0  0  0  0
 11 19  2  0  0  0  0
 11 20  1  0  0  0  0
 12 15  1  0  0  0  0
 12  1  2  0  0  0  0
 14 12  1  0  0  0  0
 16 14  2  0  0  0  0
 16 23  1  0  0  0  0
 17  5  2  0  0  0  0
 18 16  1  0  0  0  0
 21 22  1  0  0  0  0
 21 11  1  0  0  0  0
 22 13  1  6  0  0  0
 22 24  1  0  0  0  0
 23  3  2  0  0  0  0
 24 50  1  0  0  0  0
 24 20  2  0  0  0  0
 25 19  1  0  0  0  0
 26 35  1  6  0  0  0
 26 27  1  0  0  0  0
 28 10  1  6  0  0  0
 28 30  1  0  0  0  0
 29 28  1  0  0  0  0
 29 26  1  0  0  0  0
 30 31  1  0  0  0  0
 31 27  1  0  0  0  0
 32 35  1  0  0  0  0
 34 35  1  0  0  0  0
 35 33  1  0  0  0  0
 36 37  1  0  0  0  0
 37 40  1  0  0  0  0
 38 36  1  0  0  0  0
 39 36  2  0  0  0  0
 41 40  1  6  0  0  0
 41 46  1  0  0  0  0
 41 44  1  0  0  0  0
 43 42  1  0  0  0  0
 44 43  1  0  0  0  0
 45 42  1  0  0  0  0
 46 47  1  6  0  0  0
 46 45  1  0  0  0  0
 47 49  1  0  0  0  0
 48 47  1  0  0  0  0
 48 49  1  0  0  0  0
 50 51  1  0  0  0  0
 52 50  2  0  0  0  0
M  END
>  <MODEL>
7

>  <REMARK>
 VINA RESULT:      -6.0      2.266     10.860
  Name = 
  7 active torsions:
  status: ('A' for Active; 'I' for Inactive)
    1  A    between atoms: C_5  and  C_29
    2  A    between atoms: C_6  and  N_45
    3  A    between atoms: C_9  and  C_28
    4  A    between atoms: N_10  and  C_28
    5  A    between atoms: C_12  and  N_23
    6  A    between atoms: C_13  and  C_51
    7  A    between atoms: C_14  and  N_24
                            x       y       z     vdW  Elec       q    Type
                         _______ _______ _______ _____ _____    ______ ____

>  <TORSDO>
F 7

$$$$
=
 OpenBabel10222417473D

 52 60  0  0  1  0  0  0  0  0999 V2000
  188.1530  177.5820  140.5260 C   0  0  0  0  0  0  0  0  0  0  0  0
  190.7560  176.9030  137.9820 O   0  0  0  0  0  0  0  0  0  0  0  0
  189.4320  177.3620  139.9460 C   0  0  0  0  0  0  0  0  0  0  0  0
  187.9600  177.4510  141.9870 C   0  0  0  0  0  0  0  0  0  0  0  0
  186.1970  178.5260  137.4560 C   0  0  0  0  0  0  0  0  0  0  0  0
  187.5710  178.0490  135.5100 C   0  0  0  0  0  3  0  0  0  0  0  0
  189.8820  177.1920  135.6530 C   0  0  0  0  0  3  0  0  0  0  0  0
  190.6480  176.9490  140.7490 C   0  0  0  0  0  2  0  0  0  0  0  0
  190.8940  176.6720  136.6150 C   0  0  0  0  0  0  0  0  0  0  0  0
  191.9070  176.0070  136.1590 N   0  0  0  0  0  2  0  0  0  0  0  0
  188.4390  177.4490  144.0590 C   0  0  0  0  0  0  0  0  0  0  0  0
  187.0710  177.9670  139.7100 C   0  0  0  0  0  0  0  0  0  0  0  0
  191.0190  177.8760  141.8220 N   0  0  0  0  0  2  0  0  0  0  0  0
  187.2270  178.0530  138.3050 C   0  0  0  0  0  0  0  0  0  0  0  0
  185.8490  178.2660  140.3080 O   0  0  0  0  0  1  0  0  0  0  0  0
  188.4620  177.6500  137.7300 C   0  0  0  0  0  0  0  0  0  0  0  0
  186.3850  178.5070  136.0690 C   0  0  0  0  0  3  0  0  0  0  0  0
  188.6080  177.6110  136.3290 C   0  0  0  0  0  0  0  0  0  0  0  0
  187.2170  176.8840  144.0530 N   0  0  0  0  0  0  0  0  0  0  0  0
  189.3940  177.4350  145.0080 N   0  0  0  0  0  0  0  0  0  0  0  0
  188.8670  177.7860  142.8800 N   0  0  0  0  0  0  0  0  0  0  0  0
  190.1570  178.0430  142.9450 C   0  0  1  0  0  3  0  0  0  0  0  0
  189.5500  177.3180  138.5520 C   0  0  0  0  0  0  0  0  0  0  0  0
  190.4880  177.8470  144.2910 C   0  0  0  0  0  0  0  0  0  0  0  0
  186.8940  176.9040  142.7170 C   0  0  0  0  0  3  0  0  0  0  0  0
  195.1080  175.0220  137.3190 C   0  0  2  0  0  3  0  0  0  0  0  0
  194.7750  173.9080  138.3470 C   0  0  0  0  0  2  0  0  0  0  0  0
  192.8920  175.3830  137.0360 C   0  0  2  0  0  3  0  0  0  0  0  0
  194.0970  175.1800  136.3370 O   0  0  0  0  0  0  0  0  0  0  0  0
  192.3730  174.0290  137.5360 C   0  0  0  0  0  2  0  0  0  0  0  0
  193.5360  173.1060  137.9360 C   0  0  0  0  0  2  0  0  0  0  0  0
  197.5930  174.8040  137.6710 C   0  0  0  0  0  1  0  0  0  0  0  0
  196.4990  173.4890  135.8760 C   0  0  0  0  0  1  0  0  0  0  0  0
  196.7390  175.9390  135.6680 C   0  0  0  0  0  1  0  0  0  0  0  0
  196.4740  174.8060  136.6400 C   0  0  0  0  0  0  0  0  0  0  0  0
  183.7460  178.4880  138.1460 C   0  0  0  0  0  0  0  0  0  0  0  0
  182.6120  179.2520  138.5610 N   0  0  0  0  0  2  0  0  0  0  0  0
  185.0160  179.1380  137.9980 N   0  0  0  0  0  2  0  0  0  0  0  0
  183.6090  177.2630  137.8710 O   0  0  0  0  0  0  0  0  0  0  0  0
  181.2760  178.6760  138.5800 C   0  0  0  0  0  2  0  0  0  0  0  0
  180.4480  179.1840  139.7750 C   0  0  1  0  0  3  0  0  0  0  0  0
  179.2260  180.5070  141.9760 C   0  0  0  0  0  2  0  0  0  0  0  0
  180.2560  179.4130  142.2780 C   0  0  0  0  0  2  0  0  0  0  0  0
  181.2100  179.1500  141.1070 C   0  0  0  0  0  2  0  0  0  0  0  0
  179.6000  181.2970  140.7230 C   0  0  0  0  0  2  0  0  0  0  0  0
  179.6270  180.4140  139.5470 N   0  0  1  0  0  0  0  0  0  0  0  0
  180.0840  181.2160  138.4080 C   0  0  0  0  0  3  0  0  0  0  0  0
  178.9310  181.4180  137.4380 C   0  0  0  0  0  2  0  0  0  0  0  0
  179.3380  182.5380  138.3630 C   0  0  0  0  0  2  0  0  0  0  0  0
  191.8360  177.9380  144.8650 C   0  0  0  0  0  0  0  0  0  0  0  0
  192.2440  177.0360  145.8860 N   0  0  0  0  0  1  0  0  0  0  0  0
  192.6140  178.8490  144.4930 O   0  0  0  0  0  0  0  0  0  0  0  0
  1  4  1  0  0  0  0
  2 23  1  0  0  0  0
  3  1  1  0  0  0  0
  3  8  1  0  0  0  0
  4 25  2  0  0  0  0
  4 21  1  0  0  0  0
  5 38  1  0  0  0  0
  5 14  1  0  0  0  0
  6 17  1  0  0  0  0
  6 18  2  0  0  0  0
  7 18  1  0  0  0  0
  7  9  2  0  0  0  0
  8 13  1  0  0  0  0
  9  2  1  0  0  0  0
 10  9  1  0  0  0  0
 11 20  1  0  0  0  0
 12 15  1  0  0  0  0
 12  1  2  0  0  0  0
 14 12  1  0  0  0  0
 16 14  2  0  0  0  0
 16 23  1  0  0  0  0
 17  5  2  0  0  0  0
 18 16  1  0  0  0  0
 19 11  2  0  0  0  0
 21 22  1  0  0  0  0
 21 11  1  0  0  0  0
 22 13  1  6  0  0  0
 22 24  1  0  0  0  0
 23  3  2  0  0  0  0
 24 50  1  0  0  0  0
 24 20  2  0  0  0  0
 25 19  1  0  0  0  0
 26 35  1  6  0  0  0
 26 27  1  0  0  0  0
 28 10  1  6  0  0  0
 28 30  1  0  0  0  0
 29 28  1  0  0  0  0
 29 26  1  0  0  0  0
 30 31  1  0  0  0  0
 31 27  1  0  0  0  0
 33 35  1  0  0  0  0
 34 35  1  0  0  0  0
 35 32  1  0  0  0  0
 36 37  1  0  0  0  0
 37 40  1  0  0  0  0
 38 36  1  0  0  0  0
 39 36  2  0  0  0  0
 41 40  1  6  0  0  0
 41 44  1  0  0  0  0
 42 43  1  0  0  0  0
 44 43  1  0  0  0  0
 45 42  1  0  0  0  0
 46 47  1  6  0  0  0
 46 41  1  0  0  0  0
 46 45  1  0  0  0  0
 48 49  1  0  0  0  0
 48 47  1  0  0  0  0
 49 47  1  0  0  0  0
 50 51  1  0  0  0  0
 52 50  2  0  0  0  0
M  END
>  <MODEL>
8

>  <REMARK>
 VINA RESULT:      -5.6      2.311     11.229
  Name = 
  7 active torsions:
  status: ('A' for Active; 'I' for Inactive)
    1  A    between atoms: C_5  and  C_29
    2  A    between atoms: C_6  and  N_45
    3  A    between atoms: C_9  and  C_28
    4  A    between atoms: N_10  and  C_28
    5  A    between atoms: C_12  and  N_23
    6  A    between atoms: C_13  and  C_51
    7  A    between atoms: C_14  and  N_24
                            x       y       z     vdW  Elec       q    Type
                         _______ _______ _______ _____ _____    ______ ____

>  <TORSDO>
F 7

$$$$
=
 OpenBabel10222417473D

 52 60  0  0  1  0  0  0  0  0999 V2000
  187.7030  177.8020  140.9990 C   0  0  0  0  0  0  0  0  0  0  0  0
  190.1100  177.2460  138.2410 O   0  0  0  0  0  0  0  0  0  0  0  0
  188.9330  177.5900  140.3190 C   0  0  0  0  0  0  0  0  0  0  0  0
  187.6010  177.5640  142.4560 C   0  0  0  0  0  0  0  0  0  0  0  0
  185.5860  179.0390  138.1480 C   0  0  0  0  0  0  0  0  0  0  0  0
  186.8120  178.6750  136.0830 C   0  0  0  0  0  3  0  0  0  0  0  0
  189.0970  177.7410  136.0050 C   0  0  0  0  0  3  0  0  0  0  0  0
  190.1840  177.0800  141.0040 C   0  0  0  0  0  2  0  0  0  0  0  0
  190.1500  177.1180  136.8540 C   0  0  0  0  0  0  0  0  0  0  0  0
  191.1080  176.4610  136.2820 N   0  0  0  0  0  2  0  0  0  0  0  0
  188.2130  177.3870  144.4840 C   0  0  0  0  0  0  0  0  0  0  0  0
  186.5840  178.2820  140.2900 C   0  0  0  0  0  0  0  0  0  0  0  0
  190.6560  177.9100  142.1170 N   0  0  0  0  0  2  0  0  0  0  0  0
  186.6510  178.4710  138.8880 C   0  0  0  0  0  0  0  0  0  0  0  0
  185.4150  178.5690  140.9900 O   0  0  0  0  0  1  0  0  0  0  0  0
  187.8320  178.0780  138.2020 C   0  0  0  0  0  0  0  0  0  0  0  0
  185.6820  179.1230  136.7550 C   0  0  0  0  0  3  0  0  0  0  0  0
  187.8850  178.1440  136.7950 C   0  0  0  0  0  0  0  0  0  0  0  0
  186.9750  176.8600  144.5180 N   0  0  0  0  0  0  0  0  0  0  0  0
  189.2270  177.2700  145.3630 N   0  0  0  0  0  0  0  0  0  0  0  0
  188.5750  177.8010  143.3080 N   0  0  0  0  0  0  0  0  0  0  0  0
  189.8750  178.0140  143.3050 C   0  0  1  0  0  3  0  0  0  0  0  0
  188.9590  177.6510  138.9200 C   0  0  0  0  0  0  0  0  0  0  0  0
  190.2860  177.7040  144.6070 C   0  0  0  0  0  0  0  0  0  0  0  0
  186.5670  176.9940  143.2130 C   0  0  0  0  0  3  0  0  0  0  0  0
  194.3440  175.3080  137.1550 C   0  0  2  0  0  3  0  0  0  0  0  0
  194.0420  174.1170  138.1030 C   0  0  0  0  0  2  0  0  0  0  0  0
  192.1260  175.7420  137.0400 C   0  0  2  0  0  3  0  0  0  0  0  0
  193.2810  175.5730  136.2540 O   0  0  0  0  0  0  0  0  0  0  0  0
  191.6010  174.3620  137.4550 C   0  0  0  0  0  2  0  0  0  0  0  0
  192.7590  173.3820  137.7030 C   0  0  0  0  0  2  0  0  0  0  0  0
  196.0620  176.4130  135.6810 C   0  0  0  0  0  1  0  0  0  0  0  0
  196.7850  174.6880  137.3090 C   0  0  0  0  0  1  0  0  0  0  0  0
  195.4730  174.0580  135.3130 C   0  0  0  0  0  1  0  0  0  0  0  0
  195.6610  175.1210  136.3770 C   0  0  0  0  0  0  0  0  0  0  0  0
  183.0890  179.3150  138.5690 C   0  0  0  0  0  0  0  0  0  0  0  0
  182.0640  180.0920  139.1900 N   0  0  0  0  0  2  0  0  0  0  0  0
  184.4640  179.6420  138.8140 N   0  0  0  0  0  2  0  0  0  0  0  0
  182.7760  178.3820  137.7790 O   0  0  0  0  0  0  0  0  0  0  0  0
  180.6600  179.8990  138.8570 C   0  0  0  0  0  2  0  0  0  0  0  0
  180.1140  181.0450  137.9850 C   0  0  1  0  0  3  0  0  0  0  0  0
  179.5080  183.0880  136.1010 C   0  0  0  0  0  2  0  0  0  0  0  0
  180.2030  183.4960  137.4040 C   0  0  0  0  0  2  0  0  0  0  0  0
  180.9420  182.3340  138.0780 C   0  0  0  0  0  2  0  0  0  0  0  0
  179.9870  181.7210  135.6160 C   0  0  0  0  0  2  0  0  0  0  0  0
  179.6630  180.6810  136.6050 N   0  0  1  0  0  0  0  0  0  0  0  0
  180.2340  179.4210  136.1200 C   0  0  0  0  0  3  0  0  0  0  0  0
  179.1120  178.4960  135.6760 C   0  0  0  0  0  2  0  0  0  0  0  0
  179.9250  179.2380  134.6440 C   0  0  0  0  0  2  0  0  0  0  0  0
  191.6700  177.7100  145.0940 C   0  0  0  0  0  0  0  0  0  0  0  0
  192.0990  176.7520  146.0540 N   0  0  0  0  0  1  0  0  0  0  0  0
  192.4680  178.5980  144.7030 O   0  0  0  0  0  0  0  0  0  0  0  0
  1  4  1  0  0  0  0
  2 23  1  0  0  0  0
  3  1  1  0  0  0  0
  3  8  1  0  0  0  0
  4 25  2  0  0  0  0
  4 21  1  0  0  0  0
  5 38  1  0  0  0  0
  5 14  1  0  0  0  0
  6 17  1  0  0  0  0
  6 18  2  0  0  0  0
  7 18  1  0  0  0  0
  7  9  2  0  0  0  0
  8 13  1  0  0  0  0
  9  2  1  0  0  0  0
 10  9  1  0  0  0  0
 11 19  2  0  0  0  0
 11 20  1  0  0  0  0
 12 15  1  0  0  0  0
 12  1  2  0  0  0  0
 14 12  1  0  0  0  0
 16 14  2  0  0  0  0
 16 23  1  0  0  0  0
 17  5  2  0  0  0  0
 18 16  1  0  0  0  0
 21 11  1  0  0  0  0
 22 13  1  6  0  0  0
 22 21  1  0  0  0  0
 22 24  1  0  0  0  0
 23  3  2  0  0  0  0
 24 50  1  0  0  0  0
 24 20  2  0  0  0  0
 25 19  1  0  0  0  0
 26 35  1  6  0  0  0
 26 27  1  0  0  0  0
 28 10  1  6  0  0  0
 28 30  1  0  0  0  0
 29 28  1  0  0  0  0
 29 26  1  0  0  0  0
 30 31  1  0  0  0  0
 31 27  1  0  0  0  0
 32 35  1  0  0  0  0
 34 35  1  0  0  0  0
 35 33  1  0  0  0  0
 36 38  1  0  0  0  0
 36 37  1  0  0  0  0
 39 36  2  0  0  0  0
 40 37  1  0  0  0  0
 41 44  1  0  0  0  0
 41 40  1  6  0  0  0
 42 43  1  0  0  0  0
 43 44  1  0  0  0  0
 45 42  1  0  0  0  0
 45 46  1  0  0  0  0
 46 47  1  6  0  0  0
 46 41  1  0  0  0  0
 48 47  1  0  0  0  0
 49 48  1  0  0  0  0
 49 47  1  0  0  0  0
 50 51  1  0  0  0  0
 52 50  2  0  0  0  0
M  END
>  <MODEL>
9

>  <REMARK>
 VINA RESULT:      -5.6      2.633     11.070
  Name = 
  7 active torsions:
  status: ('A' for Active; 'I' for Inactive)
    1  A    between atoms: C_5  and  C_29
    2  A    between atoms: C_6  and  N_45
    3  A    between atoms: C_9  and  C_28
    4  A    between atoms: N_10  and  C_28
    5  A    between atoms: C_12  and  N_23
    6  A    between atoms: C_13  and  C_51
    7  A    between atoms: C_14  and  N_24
                            x       y       z     vdW  Elec       q    Type
                         _______ _______ _______ _____ _____    ______ ____

>  <TORSDO>
F 7

$$$$
