=
 OpenBabel10222417583D

 33 36  0  0  1  0  0  0  0  0999 V2000
  189.3120  176.6790  143.9790 C   0  0  2  0  0  3  0  0  0  0  0  0
  184.5650  178.4040  143.7390 C   0  0  0  0  0  3  0  0  0  0  0  0
  188.1470  177.5430  144.1960 N   0  0  0  0  0  0  0  0  0  0  0  0
  185.3570  178.5510  146.4250 C   0  0  0  0  0  3  0  0  0  0  0  0
  188.3330  177.7480  146.5550 O   0  0  0  0  0  0  0  0  0  0  0  0
  183.6590  178.7550  144.7530 C   0  0  0  0  0  0  0  0  0  0  0  0
  187.0360  177.7190  143.2400 C   0  0  1  0  0  3  0  0  0  0  0  0
  184.0700  178.8210  146.0580 N   0  0  0  0  0  0  0  0  0  0  0  0
  186.2640  178.2110  145.4280 C   0  0  0  0  0  0  0  0  0  0  0  0
  182.3050  179.0420  144.4230 N   0  0  0  0  0  1  0  0  0  0  0  0
  185.8820  178.1380  144.1110 C   0  0  0  0  0  0  0  0  0  0  0  0
  187.6510  177.8400  145.4990 C   0  0  0  0  0  0  0  0  0  0  0  0
  186.8290  178.7490  140.9820 C   0  0  0  0  0  2  0  0  0  0  0  0
  187.3600  178.7630  142.2070 C   0  0  0  0  0  3  0  0  0  0  0  0
  190.6390  177.4440  144.1030 C   0  0  1  0  0  3  0  0  0  0  0  0
  190.3790  178.9170  144.3650 C   0  0  0  0  0  1  0  0  0  0  0  0
  191.4920  176.9050  145.2080 C   0  0  0  0  0  0  0  0  0  0  0  0
  191.6950  177.6020  146.2370 O   0  0  0  0  0  1  0  0  0  0  0  0
  192.0440  175.6320  145.1160 O   0  0  0  0  0  0  0  0  0  0  0  0
  189.1720  175.8620  142.6860 C   0  0  0  0  0  2  0  0  0  0  0  0
  189.9730  176.4220  141.5550 C   0  0  0  0  0  0  0  0  0  0  0  0
  191.0090  177.1600  140.1340 C   0  0  1  0  0  3  0  0  0  0  0  0
  189.6490  176.9130  140.3500 N   0  0  0  0  0  0  0  0  0  0  0  0
  191.4200  176.6350  141.3420 N   0  0  0  0  0  2  0  0  0  0  0  0
  191.5250  176.3230  139.0050 C   0  0  0  0  0  3  0  0  0  0  0  0
  192.6210  176.6840  138.3450 C   0  0  0  0  0  3  0  0  0  0  0  0
  195.0030  175.1400  138.6290 O   0  0  0  0  0  1  0  0  0  0  0  0
  194.8710  174.4180  136.3390 C   0  0  0  0  0  3  0  0  0  0  0  0
  194.3480  175.1550  137.4030 C   0  0  0  0  0  0  0  0  0  0  0  0
  193.0790  175.1600  134.9470 N   0  0  0  0  0  0  0  0  0  0  0  0
  193.1730  175.9010  137.2260 C   0  0  0  0  0  0  0  0  0  0  0  0
  194.2170  174.4330  135.1060 C   0  0  0  0  0  3  0  0  0  0  0  0
  192.5490  175.8850  135.9680 C   0  0  0  0  0  3  0  0  0  0  0  0
  1 20  1  6  0  0  0
  1 15  1  0  0  0  0
  1  3  1  0  0  0  0
  2 11  2  0  0  0  0
  2  6  1  0  0  0  0
  3 12  1  0  0  0  0
  6  8  2  0  0  0  0
  7 14  1  6  0  0  0
  7 11  1  0  0  0  0
  7  3  1  0  0  0  0
  8  4  1  0  0  0  0
  9 12  1  0  0  0  0
  9  4  2  0  0  0  0
 10  6  1  0  0  0  0
 11  9  1  0  0  0  0
 12  5  2  0  0  0  0
 13 14  2  0  0  0  0
 15 16  1  1  0  0  0
 15 17  1  0  0  0  0
 17 18  1  0  0  0  0
 19 17  2  0  0  0  0
 21 20  1  0  0  0  0
 22 25  1  6  0  0  0
 22 23  1  0  0  0  0
 22 24  1  0  0  0  0
 23 21  2  0  0  0  0
 24 21  1  0  0  0  0
 26 25  2  0  0  0  0
 28 29  1  0  0  0  0
 29 27  1  0  0  0  0
 30 32  1  0  0  0  0
 30 33  2  0  0  0  0
 31 29  2  0  0  0  0
 31 26  1  0  0  0  0
 32 28  2  0  0  0  0
 33 31  1  0  0  0  0
M  END
>  <MODEL>
1

>  <REMARK>
 VINA RESULT:      -8.1      0.000      0.000
  Name = 
  8 active torsions:
  status: ('A' for Active; 'I' for Inactive)
    1  A    between atoms: N_5  and  C_21
    2  A    between atoms: C_7  and  C_20
    3  A    between atoms: C_10  and  C_13
    4  A    between atoms: C_11  and  C_26
    5  A    between atoms: C_13  and  C_21
    6  A    between atoms: C_14  and  C_19
    7  A    between atoms: C_16  and  C_17
    8  A    between atoms: C_16  and  C_21
                            x       y       z     vdW  Elec       q    Type
                         _______ _______ _______ _____ _____    ______ ____

>  <TORSDO>
F 8

$$$$
=
 OpenBabel10222417583D

 33 36  0  0  1  0  0  0  0  0999 V2000
  189.8440  176.6620  138.9370 C   0  0  2  0  0  3  0  0  0  0  0  0
  191.9360  173.1170  136.0010 C   0  0  0  0  0  3  0  0  0  0  0  0
  190.1210  175.8380  137.7560 N   0  0  0  0  0  0  0  0  0  0  0  0
  189.1590  172.9270  135.6650 C   0  0  0  0  0  3  0  0  0  0  0  0
  187.8770  175.2460  137.2450 O   0  0  0  0  0  0  0  0  0  0  0  0
  191.3560  172.0790  135.2540 C   0  0  0  0  0  0  0  0  0  0  0  0
  191.4320  175.2480  137.4250 C   0  0  1  0  0  3  0  0  0  0  0  0
  189.9970  172.0070  135.1030 N   0  0  0  0  0  0  0  0  0  0  0  0
  189.7230  173.9640  136.3990 C   0  0  0  0  0  0  0  0  0  0  0  0
  192.1860  171.0920  134.6520 N   0  0  0  0  0  1  0  0  0  0  0  0
  191.0820  174.0620  136.5660 C   0  0  0  0  0  0  0  0  0  0  0  0
  189.1150  175.0430  137.1310 C   0  0  0  0  0  0  0  0  0  0  0  0
  193.6330  176.2500  136.8310 C   0  0  0  0  0  2  0  0  0  0  0  0
  192.3060  176.2270  136.6900 C   0  0  0  0  0  3  0  0  0  0  0  0
  189.4050  178.0880  138.5650 C   0  0  1  0  0  3  0  0  0  0  0  0
  189.4210  178.2710  137.0580 C   0  0  0  0  0  1  0  0  0  0  0  0
  188.0300  178.3950  139.0700 C   0  0  0  0  0  0  0  0  0  0  0  0
  187.0510  178.3530  138.2790 O   0  0  0  0  0  0  0  0  0  0  0  0
  187.8230  178.7070  140.4090 O   0  0  0  0  0  1  0  0  0  0  0  0
  191.0010  176.6020  139.9470 C   0  0  0  0  0  2  0  0  0  0  0  0
  190.5430  176.7280  141.3630 C   0  0  0  0  0  0  0  0  0  0  0  0
  189.9900  176.8970  143.1810 C   0  0  1  0  0  3  0  0  0  0  0  0
  189.9530  175.8810  142.2210 N   0  0  0  0  0  0  0  0  0  0  0  0
  190.5610  177.8330  142.3430 N   0  0  0  0  0  2  0  0  0  0  0  0
  188.6040  177.3200  143.5570 C   0  0  0  0  0  3  0  0  0  0  0  0
  188.2850  177.5290  144.8300 C   0  0  0  0  0  3  0  0  0  0  0  0
  187.6220  177.8450  147.5870 O   0  0  0  0  0  1  0  0  0  0  0  0
  185.3690  178.4750  147.0260 C   0  0  0  0  0  3  0  0  0  0  0  0
  186.6480  178.0860  146.6240 C   0  0  0  0  0  0  0  0  0  0  0  0
  184.6830  178.5730  144.7420 N   0  0  0  0  0  0  0  0  0  0  0  0
  186.9380  177.9430  145.2580 C   0  0  0  0  0  0  0  0  0  0  0  0
  184.3890  178.7150  146.0620 C   0  0  0  0  0  3  0  0  0  0  0  0
  185.9210  178.1960  144.3240 C   0  0  0  0  0  3  0  0  0  0  0  0
  1 20  1  1  0  0  0
  2 11  1  0  0  0  0
  3  1  1  0  0  0  0
  4  9  1  0  0  0  0
  6  2  2  0  0  0  0
  7 14  1  6  0  0  0
  7  3  1  0  0  0  0
  8  6  1  0  0  0  0
  8  4  2  0  0  0  0
  9 11  2  0  0  0  0
  9 12  1  0  0  0  0
 10  6  1  0  0  0  0
 11  7  1  0  0  0  0
 12  5  2  0  0  0  0
 12  3  1  0  0  0  0
 14 13  2  0  0  0  0
 15 16  1  6  0  0  0
 15  1  1  0  0  0  0
 15 17  1  0  0  0  0
 17 19  1  0  0  0  0
 18 17  2  0  0  0  0
 20 21  1  0  0  0  0
 21 23  2  0  0  0  0
 21 24  1  0  0  0  0
 22 25  1  6  0  0  0
 23 22  1  0  0  0  0
 24 22  1  0  0  0  0
 25 26  2  0  0  0  0
 26 31  1  0  0  0  0
 29 28  1  0  0  0  0
 29 27  1  0  0  0  0
 30 32  1  0  0  0  0
 31 29  2  0  0  0  0
 32 28  2  0  0  0  0
 33 30  2  0  0  0  0
 33 31  1  0  0  0  0
M  END
>  <MODEL>
2

>  <REMARK>
 VINA RESULT:      -7.9      3.145      9.781
  Name = 
  8 active torsions:
  status: ('A' for Active; 'I' for Inactive)
    1  A    between atoms: N_5  and  C_21
    2  A    between atoms: C_7  and  C_20
    3  A    between atoms: C_10  and  C_13
    4  A    between atoms: C_11  and  C_26
    5  A    between atoms: C_13  and  C_21
    6  A    between atoms: C_14  and  C_19
    7  A    between atoms: C_16  and  C_17
    8  A    between atoms: C_16  and  C_21
                            x       y       z     vdW  Elec       q    Type
                         _______ _______ _______ _____ _____    ______ ____

>  <TORSDO>
F 8

$$$$
=
 OpenBabel10222417583D

 33 36  0  0  1  0  0  0  0  0999 V2000
  190.0070  176.9970  145.7170 C   0  0  2  0  0  3  0  0  0  0  0  0
  185.4820  179.1970  145.2190 C   0  0  0  0  0  3  0  0  0  0  0  0
  188.5670  177.1490  145.4870 N   0  0  0  0  0  0  0  0  0  0  0  0
  185.7940  177.4600  143.0400 C   0  0  0  0  0  3  0  0  0  0  0  0
  188.4330  175.9170  143.4600 O   0  0  0  0  0  0  0  0  0  0  0  0
  184.5500  179.1620  144.1680 C   0  0  0  0  0  0  0  0  0  0  0  0
  187.7150  178.1800  146.1130 C   0  0  1  0  0  3  0  0  0  0  0  0
  184.7240  178.3050  143.1150 N   0  0  0  0  0  0  0  0  0  0  0  0
  186.7180  177.4810  144.0780 C   0  0  0  0  0  0  0  0  0  0  0  0
  183.4200  180.0260  144.1980 N   0  0  0  0  0  1  0  0  0  0  0  0
  186.5700  178.3280  145.1480 C   0  0  0  0  0  0  0  0  0  0  0  0
  187.9450  176.7540  144.2660 C   0  0  0  0  0  0  0  0  0  0  0  0
  187.5500  178.4200  148.5860 C   0  0  0  0  0  2  0  0  0  0  0  0
  187.2430  177.7480  147.4750 C   0  0  0  0  0  3  0  0  0  0  0  0
  190.3390  176.7430  147.1960 C   0  0  1  0  0  3  0  0  0  0  0  0
  189.5110  175.5910  147.7350 C   0  0  0  0  0  1  0  0  0  0  0  0
  191.7880  176.4240  147.3940 C   0  0  0  0  0  0  0  0  0  0  0  0
  192.4350  177.0040  148.3060 O   0  0  0  0  0  1  0  0  0  0  0  0
  192.4180  175.4790  146.5930 O   0  0  0  0  0  0  0  0  0  0  0  0
  190.8020  178.1460  145.0790 C   0  0  0  0  0  2  0  0  0  0  0  0
  191.1990  177.8650  143.6660 C   0  0  0  0  0  0  0  0  0  0  0  0
  191.7370  177.4950  141.8740 C   0  0  1  0  0  3  0  0  0  0  0  0
  191.2870  178.6250  142.5650 N   0  0  0  0  0  0  0  0  0  0  0  0
  191.6350  176.6450  142.9560 N   0  0  0  0  0  2  0  0  0  0  0  0
  190.7570  177.1000  140.8130 C   0  0  0  0  0  3  0  0  0  0  0  0
  191.0390  177.2950  139.5290 C   0  0  0  0  0  3  0  0  0  0  0  0
  189.0850  179.1250  138.5450 O   0  0  0  0  0  1  0  0  0  0  0  0
  188.2850  177.5010  136.9610 C   0  0  0  0  0  3  0  0  0  0  0  0
  189.1640  177.8540  137.9870 C   0  0  0  0  0  0  0  0  0  0  0  0
  189.2860  175.3360  136.8520 N   0  0  0  0  0  0  0  0  0  0  0  0
  190.1140  176.9280  138.4440 C   0  0  0  0  0  0  0  0  0  0  0  0
  188.3610  176.2250  136.4010 C   0  0  0  0  0  3  0  0  0  0  0  0
  190.1530  175.6560  137.8500 C   0  0  0  0  0  3  0  0  0  0  0  0
  1 20  1  1  0  0  0
  1 15  1  0  0  0  0
  3  1  1  0  0  0  0
  3  7  1  0  0  0  0
  4  8  2  0  0  0  0
  4  9  1  0  0  0  0
  5 12  2  0  0  0  0
  6 10  1  0  0  0  0
  6  2  2  0  0  0  0
  7 14  1  1  0  0  0
  8  6  1  0  0  0  0
  9 12  1  0  0  0  0
  9 11  2  0  0  0  0
 11  2  1  0  0  0  0
 11  7  1  0  0  0  0
 12  3  1  0  0  0  0
 14 13  2  0  0  0  0
 15 17  1  0  0  0  0
 15 16  1  6  0  0  0
 17 18  1  0  0  0  0
 19 17  2  0  0  0  0
 21 20  1  0  0  0  0
 22 25  1  6  0  0  0
 22 23  1  0  0  0  0
 22 24  1  0  0  0  0
 23 21  2  0  0  0  0
 24 21  1  0  0  0  0
 26 25  2  0  0  0  0
 28 29  1  0  0  0  0
 29 31  2  0  0  0  0
 29 27  1  0  0  0  0
 30 33  2  0  0  0  0
 31 26  1  0  0  0  0
 32 30  1  0  0  0  0
 32 28  2  0  0  0  0
 33 31  1  0  0  0  0
M  END
>  <MODEL>
3

>  <REMARK>
 VINA RESULT:      -7.9      2.684      3.739
  Name = 
  8 active torsions:
  status: ('A' for Active; 'I' for Inactive)
    1  A    between atoms: N_5  and  C_21
    2  A    between atoms: C_7  and  C_20
    3  A    between atoms: C_10  and  C_13
    4  A    between atoms: C_11  and  C_26
    5  A    between atoms: C_13  and  C_21
    6  A    between atoms: C_14  and  C_19
    7  A    between atoms: C_16  and  C_17
    8  A    between atoms: C_16  and  C_21
                            x       y       z     vdW  Elec       q    Type
                         _______ _______ _______ _____ _____    ______ ____

>  <TORSDO>
F 8

$$$$
=
 OpenBabel10222417583D

 33 36  0  0  1  0  0  0  0  0999 V2000
  188.6810  177.8690  143.9550 C   0  0  2  0  0  3  0  0  0  0  0  0
  188.6720  178.5370  138.9430 C   0  0  0  0  0  3  0  0  0  0  0  0
  188.6460  177.5540  142.5230 N   0  0  0  0  0  0  0  0  0  0  0  0
  190.5110  176.4930  139.4960 C   0  0  0  0  0  3  0  0  0  0  0  0
  190.3430  175.8920  142.5170 O   0  0  0  0  0  0  0  0  0  0  0  0
  189.4930  177.9960  137.9400 C   0  0  0  0  0  0  0  0  0  0  0  0
  188.0650  178.4240  141.4810 C   0  0  1  0  0  3  0  0  0  0  0  0
  190.3840  176.9980  138.2340 N   0  0  0  0  0  0  0  0  0  0  0  0
  189.6970  177.0150  140.4950 C   0  0  0  0  0  0  0  0  0  0  0  0
  189.4020  178.4910  136.6090 N   0  0  0  0  0  1  0  0  0  0  0  0
  188.7950  178.0150  140.2300 C   0  0  0  0  0  0  0  0  0  0  0  0
  189.6250  176.7250  141.9020 C   0  0  0  0  0  0  0  0  0  0  0  0
  185.7410  179.1980  141.0350 C   0  0  0  0  0  2  0  0  0  0  0  0
  186.5810  178.2110  141.3530 C   0  0  0  0  0  3  0  0  0  0  0  0
  190.0970  177.7650  144.5420 C   0  0  1  0  0  3  0  0  0  0  0  0
  190.8480  179.0710  144.3490 C   0  0  0  0  0  1  0  0  0  0  0  0
  190.0720  177.4390  146.0020 C   0  0  0  0  0  0  0  0  0  0  0  0
  190.6800  176.4200  146.4250 O   0  0  0  0  0  0  0  0  0  0  0  0
  189.4000  178.2630  146.8980 O   0  0  0  0  0  1  0  0  0  0  0  0
  187.6170  177.0760  144.7300 C   0  0  0  0  0  2  0  0  0  0  0  0
  186.4180  177.8970  145.0780 C   0  0  0  0  0  0  0  0  0  0  0  0
  184.9080  178.9740  145.5250 C   0  0  1  0  0  3  0  0  0  0  0  0
  185.5120  177.8330  146.0650 N   0  0  0  0  0  0  0  0  0  0  0  0
  185.7820  179.0800  144.4620 N   0  0  0  0  0  2  0  0  0  0  0  0
  183.5310  178.6590  145.0310 C   0  0  0  0  0  3  0  0  0  0  0  0
  183.1110  179.1280  143.8600 C   0  0  0  0  0  3  0  0  0  0  0  0
  182.6150  178.9920  141.0540 O   0  0  0  0  0  1  0  0  0  0  0  0
  180.2840  178.5390  141.4340 C   0  0  0  0  0  3  0  0  0  0  0  0
  181.5610  178.7960  141.9380 C   0  0  0  0  0  0  0  0  0  0  0  0
  179.4360  178.4020  143.6620 N   0  0  0  0  0  0  0  0  0  0  0  0
  181.7670  178.8530  143.3250 C   0  0  0  0  0  0  0  0  0  0  0  0
  179.2230  178.3440  142.3200 C   0  0  0  0  0  3  0  0  0  0  0  0
  180.6700  178.6500  144.1770 C   0  0  0  0  0  3  0  0  0  0  0  0
  1 15  1  0  0  0  0
  1 20  1  1  0  0  0
  2 11  1  0  0  0  0
  3  1  1  0  0  0  0
  4  9  1  0  0  0  0
  6  8  1  0  0  0  0
  6  2  2  0  0  0  0
  7 14  1  6  0  0  0
  7  3  1  0  0  0  0
  8  4  2  0  0  0  0
  9 12  1  0  0  0  0
 10  6  1  0  0  0  0
 11  9  2  0  0  0  0
 11  7  1  0  0  0  0
 12  5  2  0  0  0  0
 12  3  1  0  0  0  0
 13 14  2  0  0  0  0
 15 16  1  1  0  0  0
 15 17  1  0  0  0  0
 17 18  2  0  0  0  0
 17 19  1  0  0  0  0
 20 21  1  0  0  0  0
 21 23  2  0  0  0  0
 22 25  1  6  0  0  0
 22 23  1  0  0  0  0
 24 21  1  0  0  0  0
 24 22  1  0  0  0  0
 26 25  2  0  0  0  0
 27 29  1  0  0  0  0
 28 29  2  0  0  0  0
 28 32  1  0  0  0  0
 29 31  1  0  0  0  0
 30 33  1  0  0  0  0
 31 26  1  0  0  0  0
 31 33  2  0  0  0  0
 32 30  2  0  0  0  0
M  END
>  <MODEL>
4

>  <REMARK>
 VINA RESULT:      -7.8      2.726      8.832
  Name = 
  8 active torsions:
  status: ('A' for Active; 'I' for Inactive)
    1  A    between atoms: N_5  and  C_21
    2  A    between atoms: C_7  and  C_20
    3  A    between atoms: C_10  and  C_13
    4  A    between atoms: C_11  and  C_26
    5  A    between atoms: C_13  and  C_21
    6  A    between atoms: C_14  and  C_19
    7  A    between atoms: C_16  and  C_17
    8  A    between atoms: C_16  and  C_21
                            x       y       z     vdW  Elec       q    Type
                         _______ _______ _______ _____ _____    ______ ____

>  <TORSDO>
F 8

$$$$
=
 OpenBabel10222417583D

 33 36  0  0  1  0  0  0  0  0999 V2000
  186.2800  176.7460  137.7180 C   0  0  2  0  0  3  0  0  0  0  0  0
  191.2610  176.5060  138.5530 C   0  0  0  0  0  3  0  0  0  0  0  0
  187.7140  177.0230  137.5870 N   0  0  0  0  0  0  0  0  0  0  0  0
  190.8860  176.3650  135.7780 C   0  0  0  0  0  3  0  0  0  0  0  0
  187.8770  176.7690  135.2310 O   0  0  0  0  0  0  0  0  0  0  0  0
  192.3310  176.2520  137.6790 C   0  0  0  0  0  0  0  0  0  0  0  0
  188.6920  176.9560  138.6910 C   0  0  1  0  0  3  0  0  0  0  0  0
  192.1230  176.1880  136.3280 N   0  0  0  0  0  0  0  0  0  0  0  0
  189.8210  176.6260  136.6330 C   0  0  0  0  0  0  0  0  0  0  0  0
  193.6390  176.0550  138.2030 N   0  0  0  0  0  1  0  0  0  0  0  0
  189.9990  176.6970  137.9920 C   0  0  0  0  0  0  0  0  0  0  0  0
  188.4210  176.8160  136.3670 C   0  0  0  0  0  0  0  0  0  0  0  0
  188.3430  178.3120  140.7510 C   0  0  0  0  0  2  0  0  0  0  0  0
  188.7250  178.2410  139.4740 C   0  0  0  0  0  3  0  0  0  0  0  0
  185.8140  175.6220  136.7790 C   0  0  1  0  0  3  0  0  0  0  0  0
  186.3850  174.2870  137.2240 C   0  0  0  0  0  1  0  0  0  0  0  0
  184.3220  175.5130  136.7380 C   0  0  0  0  0  0  0  0  0  0  0  0
  183.7050  175.7750  135.6710 O   0  0  0  0  0  0  0  0  0  0  0  0
  183.6130  175.1070  137.8630 O   0  0  0  0  0  1  0  0  0  0  0  0
  185.4480  178.0340  137.6230 C   0  0  0  0  0  2  0  0  0  0  0  0
  184.9200  178.4840  138.9460 C   0  0  0  0  0  0  0  0  0  0  0  0
  184.2150  179.0500  140.6260 C   0  0  1  0  0  3  0  0  0  0  0  0
  184.9340  179.6600  139.5920 N   0  0  0  0  0  0  0  0  0  0  0  0
  184.1950  177.8020  140.0380 N   0  0  0  0  0  2  0  0  0  0  0  0
  185.0260  179.0140  141.8840 C   0  0  0  0  0  3  0  0  0  0  0  0
  184.5950  178.3380  142.9440 C   0  0  0  0  0  3  0  0  0  0  0  0
  183.4540  179.1920  145.4160 O   0  0  0  0  0  1  0  0  0  0  0  0
  185.4750  178.6390  146.5990 C   0  0  0  0  0  3  0  0  0  0  0  0
  184.7550  178.7010  145.4040 C   0  0  0  0  0  0  0  0  0  0  0  0
  187.3450  177.7350  145.4230 N   0  0  0  0  0  0  0  0  0  0  0  0
  185.3490  178.2700  144.2080 C   0  0  0  0  0  0  0  0  0  0  0  0
  186.7810  178.1490  146.5890 C   0  0  0  0  0  3  0  0  0  0  0  0
  186.6650  177.7840  144.2470 C   0  0  0  0  0  3  0  0  0  0  0  0
  1 20  1  6  0  0  0
  3  1  1  0  0  0  0
  3  7  1  0  0  0  0
  4  8  2  0  0  0  0
  4  9  1  0  0  0  0
  5 12  2  0  0  0  0
  6 10  1  0  0  0  0
  6  2  2  0  0  0  0
  7 14  1  6  0  0  0
  8  6  1  0  0  0  0
  9 11  2  0  0  0  0
 11  2  1  0  0  0  0
 11  7  1  0  0  0  0
 12  9  1  0  0  0  0
 12  3  1  0  0  0  0
 14 13  2  0  0  0  0
 15 16  1  1  0  0  0
 15  1  1  0  0  0  0
 17 15  1  0  0  0  0
 17 19  1  0  0  0  0
 18 17  2  0  0  0  0
 20 21  1  0  0  0  0
 21 23  2  0  0  0  0
 21 24  1  0  0  0  0
 22 25  1  1  0  0  0
 23 22  1  0  0  0  0
 24 22  1  0  0  0  0
 25 26  2  0  0  0  0
 26 31  1  0  0  0  0
 29 27  1  0  0  0  0
 29 28  2  0  0  0  0
 30 32  2  0  0  0  0
 31 33  2  0  0  0  0
 31 29  1  0  0  0  0
 32 28  1  0  0  0  0
 33 30  1  0  0  0  0
M  END
>  <MODEL>
5

>  <REMARK>
 VINA RESULT:      -7.8      4.320      9.996
  Name = 
  8 active torsions:
  status: ('A' for Active; 'I' for Inactive)
    1  A    between atoms: N_5  and  C_21
    2  A    between atoms: C_7  and  C_20
    3  A    between atoms: C_10  and  C_13
    4  A    between atoms: C_11  and  C_26
    5  A    between atoms: C_13  and  C_21
    6  A    between atoms: C_14  and  C_19
    7  A    between atoms: C_16  and  C_17
    8  A    between atoms: C_16  and  C_21
                            x       y       z     vdW  Elec       q    Type
                         _______ _______ _______ _____ _____    ______ ____

>  <TORSDO>
F 8

$$$$
=
 OpenBabel10222417583D

 33 36  0  0  1  0  0  0  0  0999 V2000
  183.9400  177.1110  137.8640 C   0  0  2  0  0  3  0  0  0  0  0  0
  188.2980  174.8930  136.5770 C   0  0  0  0  0  3  0  0  0  0  0  0
  184.8770  176.1780  137.2290 N   0  0  0  0  0  0  0  0  0  0  0  0
  186.5160  172.8490  137.2900 C   0  0  0  0  0  3  0  0  0  0  0  0
  183.7750  174.1600  137.8290 O   0  0  0  0  0  0  0  0  0  0  0  0
  188.7150  173.5550  136.6740 C   0  0  0  0  0  0  0  0  0  0  0  0
  186.2600  176.5070  136.8340 C   0  0  1  0  0  3  0  0  0  0  0  0
  187.8260  172.5750  137.0230 N   0  0  0  0  0  0  0  0  0  0  0  0
  186.0900  174.1690  137.1890 C   0  0  0  0  0  0  0  0  0  0  0  0
  190.0720  173.2180  136.4100 N   0  0  0  0  0  1  0  0  0  0  0  0
  186.9580  175.1740  136.8400 C   0  0  0  0  0  0  0  0  0  0  0  0
  184.8080  174.7690  137.4410 C   0  0  0  0  0  0  0  0  0  0  0  0
  187.1320  178.1580  135.1870 C   0  0  0  0  0  2  0  0  0  0  0  0
  186.3040  177.1520  135.4750 C   0  0  0  0  0  3  0  0  0  0  0  0
  182.7020  177.3800  136.9930 C   0  0  1  0  0  3  0  0  0  0  0  0
  182.9040  176.8170  135.5970 C   0  0  0  0  0  1  0  0  0  0  0  0
  181.4660  176.7740  137.5790 C   0  0  0  0  0  0  0  0  0  0  0  0
  180.5440  176.3770  136.8190 O   0  0  0  0  0  0  0  0  0  0  0  0
  181.3370  176.6260  138.9560 O   0  0  0  0  0  1  0  0  0  0  0  0
  184.6560  178.3800  138.3520 C   0  0  0  0  0  2  0  0  0  0  0  0
  184.5620  178.5670  139.8310 C   0  0  0  0  0  0  0  0  0  0  0  0
  184.4090  178.8040  141.7180 C   0  0  1  0  0  3  0  0  0  0  0  0
  184.9680  179.5360  140.6650 N   0  0  0  0  0  0  0  0  0  0  0  0
  183.9960  177.7520  140.9260 N   0  0  0  0  0  2  0  0  0  0  0  0
  185.4720  178.3480  142.6680 C   0  0  0  0  0  3  0  0  0  0  0  0
  185.3440  178.5580  143.9740 C   0  0  0  0  0  3  0  0  0  0  0  0
  185.0190  179.0360  146.7680 O   0  0  0  0  0  1  0  0  0  0  0  0
  187.1300  177.9880  147.2460 C   0  0  0  0  0  3  0  0  0  0  0  0
  186.1650  178.3880  146.3210 C   0  0  0  0  0  0  0  0  0  0  0  0
  188.4590  177.0980  145.4730 N   0  0  0  0  0  0  0  0  0  0  0  0
  186.3580  178.1330  144.9540 C   0  0  0  0  0  0  0  0  0  0  0  0
  188.2820  177.3390  146.8000 C   0  0  0  0  0  3  0  0  0  0  0  0
  187.5320  177.4770  144.5520 C   0  0  0  0  0  3  0  0  0  0  0  0
  1 20  1  6  0  0  0
  2  6  2  0  0  0  0
  2 11  1  0  0  0  0
  3 12  1  0  0  0  0
  3  1  1  0  0  0  0
  6  8  1  0  0  0  0
  7 14  1  6  0  0  0
  7 11  1  0  0  0  0
  7  3  1  0  0  0  0
  8  4  2  0  0  0  0
  9  4  1  0  0  0  0
  9 12  1  0  0  0  0
 10  6  1  0  0  0  0
 11  9  2  0  0  0  0
 12  5  2  0  0  0  0
 13 14  2  0  0  0  0
 15 16  1  6  0  0  0
 15 17  1  0  0  0  0
 15  1  1  0  0  0  0
 17 19  1  0  0  0  0
 18 17  2  0  0  0  0
 20 21  1  0  0  0  0
 21 23  2  0  0  0  0
 21 24  1  0  0  0  0
 22 25  1  1  0  0  0
 23 22  1  0  0  0  0
 24 22  1  0  0  0  0
 25 26  2  0  0  0  0
 26 31  1  0  0  0  0
 29 27  1  0  0  0  0
 29 28  2  0  0  0  0
 30 32  2  0  0  0  0
 31 29  1  0  0  0  0
 32 28  1  0  0  0  0
 33 31  2  0  0  0  0
 33 30  1  0  0  0  0
M  END
>  <MODEL>
6

>  <REMARK>
 VINA RESULT:      -7.4      5.376     10.141
  Name = 
  8 active torsions:
  status: ('A' for Active; 'I' for Inactive)
    1  A    between atoms: N_5  and  C_21
    2  A    between atoms: C_7  and  C_20
    3  A    between atoms: C_10  and  C_13
    4  A    between atoms: C_11  and  C_26
    5  A    between atoms: C_13  and  C_21
    6  A    between atoms: C_14  and  C_19
    7  A    between atoms: C_16  and  C_17
    8  A    between atoms: C_16  and  C_21
                            x       y       z     vdW  Elec       q    Type
                         _______ _______ _______ _____ _____    ______ ____

>  <TORSDO>
F 8

$$$$
=
 OpenBabel10222417583D

 33 36  0  0  1  0  0  0  0  0999 V2000
  188.0000  176.7920  137.6060 C   0  0  2  0  0  3  0  0  0  0  0  0
  185.2600  172.6040  136.8830 C   0  0  0  0  0  3  0  0  0  0  0  0
  186.9680  175.8950  137.0760 N   0  0  0  0  0  0  0  0  0  0  0  0
  183.4510  174.7190  137.2290 C   0  0  0  0  0  3  0  0  0  0  0  0
  185.0980  177.3220  137.4140 O   0  0  0  0  0  0  0  0  0  0  0  0
  183.8770  172.3800  136.9790 C   0  0  0  0  0  0  0  0  0  0  0  0
  187.1220  174.4370  136.9070 C   0  0  1  0  0  3  0  0  0  0  0  0
  183.0130  173.4290  137.1480 N   0  0  0  0  0  0  0  0  0  0  0  0
  184.8180  174.9540  137.1260 C   0  0  0  0  0  0  0  0  0  0  0  0
  183.3700  171.0520  136.9050 N   0  0  0  0  0  1  0  0  0  0  0  0
  185.7080  173.9230  136.9550 C   0  0  0  0  0  0  0  0  0  0  0  0
  185.5760  176.1730  137.2110 C   0  0  0  0  0  0  0  0  0  0  0  0
  188.7780  173.2110  135.5090 C   0  0  0  0  0  2  0  0  0  0  0  0
  187.7890  174.1040  135.6000 C   0  0  0  0  0  3  0  0  0  0  0  0
  188.5100  177.7850  136.5490 C   0  0  1  0  0  3  0  0  0  0  0  0
  187.8320  177.5330  135.2140 C   0  0  0  0  0  1  0  0  0  0  0  0
  188.2610  179.2040  136.9520 C   0  0  0  0  0  0  0  0  0  0  0  0
  189.0690  179.7860  137.7230 O   0  0  0  0  0  1  0  0  0  0  0  0
  187.1540  179.8910  136.4670 O   0  0  0  0  0  0  0  0  0  0  0  0
  189.1090  176.0090  138.3250 C   0  0  0  0  0  2  0  0  0  0  0  0
  189.5650  176.6700  139.5850 C   0  0  0  0  0  0  0  0  0  0  0  0
  190.1540  177.5430  141.1760 C   0  0  1  0  0  3  0  0  0  0  0  0
  190.5090  176.3750  140.4910 N   0  0  0  0  0  0  0  0  0  0  0  0
  189.1410  177.8890  140.3040 N   0  0  0  0  0  2  0  0  0  0  0  0
  189.5860  177.2150  142.5210 C   0  0  0  0  0  3  0  0  0  0  0  0
  189.9210  177.9350  143.5870 C   0  0  0  0  0  3  0  0  0  0  0  0
  191.6320  177.1410  145.7270 O   0  0  0  0  0  1  0  0  0  0  0  0
  189.7660  177.0000  147.2380 C   0  0  0  0  0  3  0  0  0  0  0  0
  190.2680  177.2670  145.9630 C   0  0  0  0  0  0  0  0  0  0  0  0
  187.5610  177.5030  146.4720 N   0  0  0  0  0  0  0  0  0  0  0  0
  189.3950  177.6580  144.9350 C   0  0  0  0  0  0  0  0  0  0  0  0
  188.3970  177.1240  147.4760 C   0  0  0  0  0  3  0  0  0  0  0  0
  188.0260  177.7690  145.2220 C   0  0  0  0  0  3  0  0  0  0  0  0
  1 20  1  6  0  0  0
  2 11  2  0  0  0  0
  2  6  1  0  0  0  0
  3 12  1  0  0  0  0
  3  1  1  0  0  0  0
  6  8  2  0  0  0  0
  7 14  1  6  0  0  0
  7 11  1  0  0  0  0
  7  3  1  0  0  0  0
  8  4  1  0  0  0  0
  9 12  1  0  0  0  0
  9  4  2  0  0  0  0
 10  6  1  0  0  0  0
 11  9  1  0  0  0  0
 12  5  2  0  0  0  0
 13 14  2  0  0  0  0
 15 16  1  6  0  0  0
 15 17  1  0  0  0  0
 15  1  1  0  0  0  0
 17 18  1  0  0  0  0
 19 17  2  0  0  0  0
 20 21  1  0  0  0  0
 21 24  1  0  0  0  0
 21 23  2  0  0  0  0
 22 25  1  1  0  0  0
 23 22  1  0  0  0  0
 24 22  1  0  0  0  0
 25 26  2  0  0  0  0
 26 31  1  0  0  0  0
 27 29  1  0  0  0  0
 28 32  1  0  0  0  0
 29 28  2  0  0  0  0
 30 32  2  0  0  0  0
 31 33  2  0  0  0  0
 31 29  1  0  0  0  0
 33 30  1  0  0  0  0
M  END
>  <MODEL>
7

>  <REMARK>
 VINA RESULT:      -7.4      5.108      8.707
  Name = 
  8 active torsions:
  status: ('A' for Active; 'I' for Inactive)
    1  A    between atoms: N_5  and  C_21
    2  A    between atoms: C_7  and  C_20
    3  A    between atoms: C_10  and  C_13
    4  A    between atoms: C_11  and  C_26
    5  A    between atoms: C_13  and  C_21
    6  A    between atoms: C_14  and  C_19
    7  A    between atoms: C_16  and  C_17
    8  A    between atoms: C_16  and  C_21
                            x       y       z     vdW  Elec       q    Type
                         _______ _______ _______ _____ _____    ______ ____

>  <TORSDO>
F 8

$$$$
=
 OpenBabel10222417583D

 33 36  0  0  1  0  0  0  0  0999 V2000
  191.0680  176.1600  137.0180 C   0  0  2  0  0  3  0  0  0  0  0  0
  186.1100  175.1670  136.9910 C   0  0  0  0  0  3  0  0  0  0  0  0
  189.6530  176.2210  136.6400 N   0  0  0  0  0  0  0  0  0  0  0  0
  186.3900  177.9580  136.9640 C   0  0  0  0  0  3  0  0  0  0  0  0
  189.4010  178.5820  136.7190 O   0  0  0  0  0  0  0  0  0  0  0  0
  185.0000  176.0180  137.1150 C   0  0  0  0  0  0  0  0  0  0  0  0
  188.7070  175.0900  136.7190 C   0  0  1  0  0  3  0  0  0  0  0  0
  185.1610  177.3780  137.0980 N   0  0  0  0  0  0  0  0  0  0  0  0
  187.4950  177.1250  136.8320 C   0  0  0  0  0  0  0  0  0  0  0  0
  183.6980  175.4630  137.2610 N   0  0  0  0  0  1  0  0  0  0  0  0
  187.3650  175.7580  136.8440 C   0  0  0  0  0  0  0  0  0  0  0  0
  188.8970  177.4270  136.7160 C   0  0  0  0  0  0  0  0  0  0  0  0
  189.3280  173.0040  135.5090 C   0  0  0  0  0  2  0  0  0  0  0  0
  188.7840  174.2230  135.4920 C   0  0  0  0  0  3  0  0  0  0  0  0
  191.9500  175.5930  135.8930 C   0  0  1  0  0  3  0  0  0  0  0  0
  191.7660  176.3980  134.6190 C   0  0  0  0  0  1  0  0  0  0  0  0
  193.4010  175.6080  136.2620 C   0  0  0  0  0  0  0  0  0  0  0  0
  194.1000  174.5760  136.0850 O   0  0  0  0  0  0  0  0  0  0  0  0
  193.9850  176.7590  136.7790 O   0  0  0  0  0  1  0  0  0  0  0  0
  191.2570  175.4670  138.3760 C   0  0  0  0  0  2  0  0  0  0  0  0
  190.9440  176.3610  139.5330 C   0  0  0  0  0  0  0  0  0  0  0  0
  190.5230  177.5180  140.9890 C   0  0  1  0  0  3  0  0  0  0  0  0
  191.6970  177.1270  140.3370 N   0  0  0  0  0  0  0  0  0  0  0  0
  189.6910  176.7250  140.2260 N   0  0  0  0  0  2  0  0  0  0  0  0
  190.5250  177.0470  142.4090 C   0  0  0  0  0  3  0  0  0  0  0  0
  190.5040  177.9210  143.4100 C   0  0  0  0  0  3  0  0  0  0  0  0
  188.1100  177.8790  144.9600 O   0  0  0  0  0  1  0  0  0  0  0  0
  189.3170  177.1270  146.9000 C   0  0  0  0  0  3  0  0  0  0  0  0
  189.3090  177.5080  145.5570 C   0  0  0  0  0  0  0  0  0  0  0  0
  191.6740  176.7670  146.7830 N   0  0  0  0  0  0  0  0  0  0  0  0
  190.5070  177.5150  144.8260 C   0  0  0  0  0  0  0  0  0  0  0  0
  190.5200  176.7570  147.5030 C   0  0  0  0  0  3  0  0  0  0  0  0
  191.6930  177.1340  145.4730 C   0  0  0  0  0  3  0  0  0  0  0  0
  1 20  1  1  0  0  0
  2  6  1  0  0  0  0
  3 12  1  0  0  0  0
  3  7  1  0  0  0  0
  3  1  1  0  0  0  0
  4  8  1  0  0  0  0
  6 10  1  0  0  0  0
  7 14  1  6  0  0  0
  7 11  1  0  0  0  0
  8  6  2  0  0  0  0
  9 11  1  0  0  0  0
  9  4  2  0  0  0  0
 11  2  2  0  0  0  0
 12  5  2  0  0  0  0
 12  9  1  0  0  0  0
 14 13  2  0  0  0  0
 15 16  1  6  0  0  0
 15 17  1  0  0  0  0
 15  1  1  0  0  0  0
 17 19  1  0  0  0  0
 18 17  2  0  0  0  0
 20 21  1  0  0  0  0
 21 24  1  0  0  0  0
 21 23  2  0  0  0  0
 22 25  1  1  0  0  0
 23 22  1  0  0  0  0
 24 22  1  0  0  0  0
 25 26  2  0  0  0  0
 26 31  1  0  0  0  0
 27 29  1  0  0  0  0
 28 32  1  0  0  0  0
 29 28  2  0  0  0  0
 30 32  2  0  0  0  0
 31 33  2  0  0  0  0
 31 29  1  0  0  0  0
 33 30  1  0  0  0  0
M  END
>  <MODEL>
8

>  <REMARK>
 VINA RESULT:      -7.2      3.410      8.419
  Name = 
  8 active torsions:
  status: ('A' for Active; 'I' for Inactive)
    1  A    between atoms: N_5  and  C_21
    2  A    between atoms: C_7  and  C_20
    3  A    between atoms: C_10  and  C_13
    4  A    between atoms: C_11  and  C_26
    5  A    between atoms: C_13  and  C_21
    6  A    between atoms: C_14  and  C_19
    7  A    between atoms: C_16  and  C_17
    8  A    between atoms: C_16  and  C_21
                            x       y       z     vdW  Elec       q    Type
                         _______ _______ _______ _____ _____    ______ ____

>  <TORSDO>
F 8

$$$$
=
 OpenBabel10222417583D

 33 36  0  0  1  0  0  0  0  0999 V2000
  190.1730  176.8980  145.9170 C   0  0  2  0  0  3  0  0  0  0  0  0
  185.4390  178.0460  144.5620 C   0  0  0  0  0  3  0  0  0  0  0  0
  188.9440  177.6750  145.7270 N   0  0  0  0  0  0  0  0  0  0  0  0
  185.7860  178.9610  147.1900 C   0  0  0  0  0  3  0  0  0  0  0  0
  188.7420  178.5030  147.9440 O   0  0  0  0  0  0  0  0  0  0  0  0
  184.3660  178.5620  145.3080 C   0  0  0  0  0  0  0  0  0  0  0  0
  187.9910  177.4900  144.6160 C   0  0  1  0  0  3  0  0  0  0  0  0
  184.5610  179.0030  146.5900 N   0  0  0  0  0  0  0  0  0  0  0  0
  186.8560  178.4600  146.4580 C   0  0  0  0  0  0  0  0  0  0  0  0
  183.0690  178.6240  144.7280 N   0  0  0  0  0  1  0  0  0  0  0  0
  186.6930  178.0110  145.1710 C   0  0  0  0  0  0  0  0  0  0  0  0
  188.2330  178.2530  146.8200 C   0  0  0  0  0  0  0  0  0  0  0  0
  187.8630  178.0600  142.1950 C   0  0  0  0  0  2  0  0  0  0  0  0
  188.4180  178.2560  143.3930 C   0  0  0  0  0  3  0  0  0  0  0  0
  190.3990  176.5110  147.3880 C   0  0  1  0  0  3  0  0  0  0  0  0
  189.6620  175.2250  147.7170 C   0  0  0  0  0  1  0  0  0  0  0  0
  191.8510  176.3230  147.6970 C   0  0  0  0  0  0  0  0  0  0  0  0
  192.4340  177.1270  148.4700 O   0  0  0  0  0  1  0  0  0  0  0  0
  192.5560  175.2550  147.1520 O   0  0  0  0  0  0  0  0  0  0  0  0
  191.3780  177.5800  145.2520 C   0  0  0  0  0  2  0  0  0  0  0  0
  191.5150  177.2370  143.8040 C   0  0  0  0  0  0  0  0  0  0  0  0
  191.7120  176.7730  141.9650 C   0  0  1  0  0  3  0  0  0  0  0  0
  191.8840  177.9370  142.7210 N   0  0  0  0  0  0  0  0  0  0  0  0
  191.2880  176.0010  143.0270 N   0  0  0  0  0  2  0  0  0  0  0  0
  190.6020  176.9450  140.9760 C   0  0  0  0  0  3  0  0  0  0  0  0
  190.8700  177.1710  139.6940 C   0  0  0  0  0  3  0  0  0  0  0  0
  190.1580  175.0760  137.8930 O   0  0  0  0  0  1  0  0  0  0  0  0
  188.5030  176.4710  136.8420 C   0  0  0  0  0  3  0  0  0  0  0  0
  189.4970  176.2960  137.8070 C   0  0  0  0  0  0  0  0  0  0  0  0
  188.1620  178.7080  137.6020 N   0  0  0  0  0  0  0  0  0  0  0  0
  189.8190  177.3490  138.6770 C   0  0  0  0  0  0  0  0  0  0  0  0
  187.8410  177.6960  136.7520 C   0  0  0  0  0  3  0  0  0  0  0  0
  189.1250  178.5630  138.5500 C   0  0  0  0  0  3  0  0  0  0  0  0
  1 20  1  1  0  0  0
  1 15  1  0  0  0  0
  2 11  2  0  0  0  0
  2  6  1  0  0  0  0
  3  1  1  0  0  0  0
  3 12  1  0  0  0  0
  6  8  2  0  0  0  0
  7 14  1  6  0  0  0
  7 11  1  0  0  0  0
  7  3  1  0  0  0  0
  8  4  1  0  0  0  0
  9 12  1  0  0  0  0
  9  4  2  0  0  0  0
 10  6  1  0  0  0  0
 11  9  1  0  0  0  0
 12  5  2  0  0  0  0
 13 14  2  0  0  0  0
 15 17  1  0  0  0  0
 15 16  1  6  0  0  0
 17 18  1  0  0  0  0
 19 17  2  0  0  0  0
 21 20  1  0  0  0  0
 22 25  1  6  0  0  0
 22 23  1  0  0  0  0
 22 24  1  0  0  0  0
 23 21  2  0  0  0  0
 24 21  1  0  0  0  0
 26 25  2  0  0  0  0
 28 29  1  0  0  0  0
 29 27  1  0  0  0  0
 29 31  2  0  0  0  0
 30 33  2  0  0  0  0
 31 26  1  0  0  0  0
 32 28  2  0  0  0  0
 32 30  1  0  0  0  0
 33 31  1  0  0  0  0
M  END
>  <MODEL>
9

>  <REMARK>
 VINA RESULT:      -7.2      2.734      3.338
  Name = 
  8 active torsions:
  status: ('A' for Active; 'I' for Inactive)
    1  A    between atoms: N_5  and  C_21
    2  A    between atoms: C_7  and  C_20
    3  A    between atoms: C_10  and  C_13
    4  A    between atoms: C_11  and  C_26
    5  A    between atoms: C_13  and  C_21
    6  A    between atoms: C_14  and  C_19
    7  A    between atoms: C_16  and  C_17
    8  A    between atoms: C_16  and  C_21
                            x       y       z     vdW  Elec       q    Type
                         _______ _______ _______ _____ _____    ______ ____

>  <TORSDO>
F 8

$$$$
