=
 OpenBabel10222416453D

 45 51  0  0  1  0  0  0  0  0999 V2000
  187.0380  178.0740  139.4780 C   0  0  0  0  0  0  0  0  0  0  0  0
  185.9850  178.4830  141.3230 C   0  0  0  0  0  0  0  0  0  0  0  0
  187.2170  178.6540  141.6790 N   0  0  0  0  0  0  0  0  0  0  0  0
  188.0570  178.4040  140.5150 C   0  0  1  0  0  3  0  0  0  0  0  0
  185.8410  178.1150  139.9590 N   0  0  0  0  0  0  0  0  0  0  0  0
  182.6150  178.9570  143.8950 N   0  0  0  0  0  0  0  0  0  0  0  0
  182.4560  178.9270  142.5490 C   0  0  0  0  0  3  0  0  0  0  0  0
  183.8440  178.8590  144.4650 C   0  0  0  0  0  3  0  0  0  0  0  0
  183.5640  178.7830  141.7180 C   0  0  0  0  0  3  0  0  0  0  0  0
  184.8510  178.6780  142.2630 C   0  0  0  0  0  0  0  0  0  0  0  0
  185.0000  178.7370  143.6760 C   0  0  0  0  0  0  0  0  0  0  0  0
  186.1310  178.2810  145.8260 C   0  0  0  0  0  2  0  0  0  0  0  0
  186.3400  178.5990  144.3540 C   0  0  0  0  0  3  0  0  0  0  0  0
  186.5860  177.1930  144.8850 C   0  0  0  0  0  2  0  0  0  0  0  0
  186.1350  177.6900  137.1340 C   0  0  0  0  0  1  0  0  0  0  0  0
  187.3490  177.7160  138.0520 C   0  0  1  0  0  3  0  0  0  0  0  0
  188.4950  178.5070  137.4840 C   0  0  0  0  0  0  0  0  0  0  0  0
  189.8220  177.9780  137.3180 N   0  0  0  0  0  2  0  0  0  0  0  0
  188.2910  179.7140  137.1950 O   0  0  0  0  0  0  0  0  0  0  0  0
  189.3240  175.5530  137.3790 C   0  0  0  0  0  3  0  0  0  0  0  0
  190.2250  176.6090  137.1960 C   0  0  0  0  0  0  0  0  0  0  0  0
  191.0600  173.9530  136.8570 C   0  0  0  0  0  3  0  0  0  0  0  0
  189.7390  174.2300  137.2160 C   0  0  0  0  0  3  0  0  0  0  0  0
  191.5400  176.3240  136.8160 C   0  0  0  0  0  3  0  0  0  0  0  0
  191.9660  174.9970  136.6530 C   0  0  0  0  0  0  0  0  0  0  0  0
  193.3160  174.6900  136.2880 N   0  0  0  0  0  2  0  0  0  0  0  0
  195.1730  172.8680  138.8550 O   0  0  0  0  0  1  0  0  0  0  0  0
  194.3840  174.4820  137.2560 C   0  0  1  0  0  0  0  0  0  0  0  0
  194.4530  175.3840  138.3210 O   0  0  0  0  0  1  0  0  0  0  0  0
  194.7310  173.0300  137.5380 C   0  0  1  0  0  3  0  0  0  0  0  0
  195.6700  173.9140  136.6840 C   0  0  2  0  0  3  0  0  0  0  0  0
  198.3010  173.1740  137.5640 O   0  0  0  0  0  1  0  0  0  0  0  0
  196.8480  174.9380  139.0950 O   0  0  0  0  0  1  0  0  0  0  0  0
  197.8840  175.6330  136.8050 O   0  0  0  0  0  0  0  0  0  0  0  0
  197.2200  174.4740  137.5110 P   0  0  0  0  0  0  0  0  0  0  0  0
  188.9540  177.2000  140.7660 C   0  0  0  0  0  2  0  0  0  0  0  0
  190.1290  177.5770  141.6620 C   0  0  1  0  0  3  0  0  0  0  0  0
  189.7830  177.3780  143.0830 N   0  0  0  0  0  0  0  0  0  0  0  0
  190.4510  176.2190  143.6410 C   0  0  0  0  0  2  0  0  0  0  0  0
  191.3350  178.1050  144.6880 O   0  0  0  0  0  0  0  0  0  0  0  0
  190.2690  178.5090  143.8650 C   0  0  0  0  0  2  0  0  0  0  0  0
  191.1720  176.7280  144.8550 C   0  0  0  0  0  2  0  0  0  0  0  0
  191.9630  177.5000  140.0320 N   0  0  0  0  0  2  0  0  0  0  0  0
  192.5590  177.7080  141.3580 C   0  0  0  0  0  2  0  0  0  0  0  0
  191.3980  176.8370  141.2180 C   0  0  1  0  0  3  0  0  0  0  0  0
  1  5  2  0  0  0  0
  1  4  1  0  0  0  0
  2  3  2  0  0  0  0
  2 10  1  0  0  0  0
  4 36  1  1  0  0  0
  4  3  1  0  0  0  0
  5  2  1  0  0  0  0
  6  8  1  0  0  0  0
  7  6  2  0  0  0  0
  9 10  2  0  0  0  0
  9  7  1  0  0  0  0
 10 11  1  0  0  0  0
 11 13  1  0  0  0  0
 11  8  2  0  0  0  0
 13 14  1  0  0  0  0
 13 12  1  0  0  0  0
 14 12  1  0  0  0  0
 16 15  1  6  0  0  0
 16  1  1  0  0  0  0
 17 16  1  0  0  0  0
 18 17  1  0  0  0  0
 19 17  2  0  0  0  0
 21 18  1  0  0  0  0
 21 20  2  0  0  0  0
 22 23  2  0  0  0  0
 23 20  1  0  0  0  0
 24 21  1  0  0  0  0
 25 24  2  0  0  0  0
 25 22  1  0  0  0  0
 26 25  1  0  0  0  0
 26 28  1  0  0  0  0
 28 30  1  0  0  0  0
 28 29  1  1  0  0  0
 30 27  1  1  0  0  0
 31 28  1  0  0  0  0
 31 35  1  1  0  0  0
 31 30  1  0  0  0  0
 34 35  2  0  0  0  0
 35 32  1  0  0  0  0
 35 33  1  0  0  0  0
 37 36  1  6  0  0  0
 37 38  1  0  0  0  0
 38 39  1  0  0  0  0
 38 41  1  0  0  0  0
 39 42  1  0  0  0  0
 40 42  1  0  0  0  0
 41 40  1  0  0  0  0
 43 45  1  0  0  0  0
 43 44  1  0  0  0  0
 45 44  1  0  0  0  0
 45 37  1  1  0  0  0
M  END
>  <MODEL>
1

>  <REMARK>
 VINA RESULT:      -8.2      0.000      0.000
  Name = 
  12 active torsions:
  status: ('A' for Active; 'I' for Inactive)
    1  A    between atoms: C_6  and  C_44
    2  A    between atoms: N_7  and  C_41
    3  A    between atoms: C_9  and  C_24
    4  A    between atoms: C_14  and  N_16
    5  A    between atoms: N_16  and  C_39
    6  A    between atoms: C_18  and  N_43
    7  A    between atoms: C_19  and  C_24
    8  A    between atoms: C_22  and  C_26
    9  A    between atoms: C_31  and  C_41
   10  A    between atoms: C_32  and  C_35
   11  A    between atoms: C_35  and  C_41
   12  A    between atoms: P_36  and  C_38
                            x       y       z     vdW  Elec       q    Type
                         _______ _______ _______ _____ _____    ______ ____

>  <TORSDO>
F 12

$$$$
=
 OpenBabel10222416453D

 45 51  0  0  1  0  0  0  0  0999 V2000
  187.0660  178.1600  139.5750 C   0  0  0  0  0  0  0  0  0  0  0  0
  185.6360  178.5880  141.1400 C   0  0  0  0  0  0  0  0  0  0  0  0
  186.7590  178.8230  141.7370 N   0  0  0  0  0  0  0  0  0  0  0  0
  187.8330  178.5670  140.7870 C   0  0  1  0  0  3  0  0  0  0  0  0
  185.7930  178.1680  139.7920 N   0  0  0  0  0  0  0  0  0  0  0  0
  181.9540  179.2180  143.2000 N   0  0  0  0  0  0  0  0  0  0  0  0
  183.1320  179.2360  143.8730 C   0  0  0  0  0  3  0  0  0  0  0  0
  181.9050  178.9810  141.8640 C   0  0  0  0  0  3  0  0  0  0  0  0
  184.3270  179.0180  143.1920 C   0  0  0  0  0  3  0  0  0  0  0  0
  184.3230  178.7690  141.8130 C   0  0  0  0  0  0  0  0  0  0  0  0
  183.0760  178.7290  141.1310 C   0  0  0  0  0  0  0  0  0  0  0  0
  181.6390  179.0250  139.1420 C   0  0  0  0  0  2  0  0  0  0  0  0
  182.9760  178.5030  139.6430 C   0  0  0  0  0  3  0  0  0  0  0  0
  182.8970  179.8050  138.8560 C   0  0  0  0  0  2  0  0  0  0  0  0
  186.7100  177.7650  137.0890 C   0  0  0  0  0  1  0  0  0  0  0  0
  187.6820  177.7650  138.2610 C   0  0  1  0  0  3  0  0  0  0  0  0
  188.9570  178.5060  137.9640 C   0  0  0  0  0  0  0  0  0  0  0  0
  190.2390  177.8660  137.8450 N   0  0  0  0  0  2  0  0  0  0  0  0
  188.9020  179.7590  137.8750 O   0  0  0  0  0  0  0  0  0  0  0  0
  189.5280  175.5170  137.5190 C   0  0  0  0  0  3  0  0  0  0  0  0
  190.5250  176.5000  137.5230 C   0  0  0  0  0  0  0  0  0  0  0  0
  191.1370  173.8600  136.8010 C   0  0  0  0  0  3  0  0  0  0  0  0
  189.8320  174.2000  137.1640 C   0  0  0  0  0  3  0  0  0  0  0  0
  191.8240  176.1550  137.1370 C   0  0  0  0  0  3  0  0  0  0  0  0
  192.1380  174.8350  136.7820 C   0  0  0  0  0  0  0  0  0  0  0  0
  193.4690  174.4630  136.4090 N   0  0  0  0  0  2  0  0  0  0  0  0
  195.4570  172.8360  139.0080 O   0  0  0  0  0  1  0  0  0  0  0  0
  194.5680  174.3420  137.3570 C   0  0  1  0  0  0  0  0  0  0  0  0
  194.6270  175.2950  138.3780 O   0  0  0  0  0  1  0  0  0  0  0  0
  194.9770  172.9180  137.6980 C   0  0  1  0  0  3  0  0  0  0  0  0
  195.8610  173.7950  136.7790 C   0  0  2  0  0  3  0  0  0  0  0  0
  197.0380  175.0430  139.0810 O   0  0  0  0  0  1  0  0  0  0  0  0
  197.9760  175.7280  136.5880 O   0  0  0  0  0  0  0  0  0  0  0  0
  198.4950  173.4100  137.6640 O   0  0  0  0  0  1  0  0  0  0  0  0
  197.4070  174.4510  137.5400 P   0  0  0  0  0  0  0  0  0  0  0  0
  188.6960  177.4110  141.2710 C   0  0  0  0  0  2  0  0  0  0  0  0
  189.5530  177.8340  142.4580 C   0  0  1  0  0  3  0  0  0  0  0  0
  189.2040  177.0490  143.6570 N   0  0  0  0  0  0  0  0  0  0  0  0
  188.7780  177.9000  144.7520 C   0  0  0  0  0  2  0  0  0  0  0  0
  186.9250  176.6590  144.0720 O   0  0  0  0  0  0  0  0  0  0  0  0
  188.0520  176.2020  143.3660 C   0  0  0  0  0  2  0  0  0  0  0  0
  187.4330  177.3720  145.1600 C   0  0  0  0  0  2  0  0  0  0  0  0
  191.8480  178.2380  143.2310 N   0  0  0  0  0  2  0  0  0  0  0  0
  191.7310  176.8070  142.9240 C   0  0  0  0  0  2  0  0  0  0  0  0
  191.0420  177.7830  142.0880 C   0  0  1  0  0  3  0  0  0  0  0  0
  1  5  2  0  0  0  0
  1  4  1  0  0  0  0
  2  3  2  0  0  0  0
  2 10  1  0  0  0  0
  4 36  1  1  0  0  0
  4  3  1  0  0  0  0
  5  2  1  0  0  0  0
  6  7  1  0  0  0  0
  8  6  2  0  0  0  0
  9  7  2  0  0  0  0
 10  9  1  0  0  0  0
 11 10  2  0  0  0  0
 11  8  1  0  0  0  0
 12 13  1  0  0  0  0
 13 11  1  0  0  0  0
 14 12  1  0  0  0  0
 14 13  1  0  0  0  0
 16 15  1  6  0  0  0
 16  1  1  0  0  0  0
 17 16  1  0  0  0  0
 18 17  1  0  0  0  0
 19 17  2  0  0  0  0
 20 21  1  0  0  0  0
 21 18  1  0  0  0  0
 22 23  1  0  0  0  0
 23 20  2  0  0  0  0
 24 21  2  0  0  0  0
 25 22  2  0  0  0  0
 25 24  1  0  0  0  0
 26 25  1  0  0  0  0
 26 28  1  0  0  0  0
 28 30  1  0  0  0  0
 28 29  1  1  0  0  0
 30 27  1  1  0  0  0
 31 28  1  0  0  0  0
 31 35  1  1  0  0  0
 31 30  1  0  0  0  0
 33 35  2  0  0  0  0
 35 34  1  0  0  0  0
 35 32  1  0  0  0  0
 37 36  1  6  0  0  0
 37 38  1  0  0  0  0
 38 39  1  0  0  0  0
 39 42  1  0  0  0  0
 40 42  1  0  0  0  0
 41 38  1  0  0  0  0
 41 40  1  0  0  0  0
 44 43  1  0  0  0  0
 45 37  1  1  0  0  0
 45 44  1  0  0  0  0
 45 43  1  0  0  0  0
M  END
>  <MODEL>
2

>  <REMARK>
 VINA RESULT:      -8.0      1.299      2.499
  Name = 
  12 active torsions:
  status: ('A' for Active; 'I' for Inactive)
    1  A    between atoms: C_6  and  C_44
    2  A    between atoms: N_7  and  C_41
    3  A    between atoms: C_9  and  C_24
    4  A    between atoms: C_14  and  N_16
    5  A    between atoms: N_16  and  C_39
    6  A    between atoms: C_18  and  N_43
    7  A    between atoms: C_19  and  C_24
    8  A    between atoms: C_22  and  C_26
    9  A    between atoms: C_31  and  C_41
   10  A    between atoms: C_32  and  C_35
   11  A    between atoms: C_35  and  C_41
   12  A    between atoms: P_36  and  C_38
                            x       y       z     vdW  Elec       q    Type
                         _______ _______ _______ _____ _____    ______ ____

>  <TORSDO>
F 12

$$$$
=
 OpenBabel10222416453D

 45 51  0  0  1  0  0  0  0  0999 V2000
  188.1470  178.4520  140.0190 C   0  0  0  0  0  0  0  0  0  0  0  0
  186.0980  178.7050  140.6630 C   0  0  0  0  0  0  0  0  0  0  0  0
  186.7420  178.8380  141.7770 N   0  0  0  0  0  0  0  0  0  0  0  0
  188.1630  178.6840  141.4920 C   0  0  1  0  0  3  0  0  0  0  0  0
  186.9450  178.4580  139.5490 N   0  0  0  0  0  0  0  0  0  0  0  0
  181.8620  178.9880  140.2430 N   0  0  0  0  0  0  0  0  0  0  0  0
  182.6730  179.1560  139.1690 C   0  0  0  0  0  3  0  0  0  0  0  0
  182.3670  178.7480  141.4810 C   0  0  0  0  0  3  0  0  0  0  0  0
  184.0560  179.0730  139.3190 C   0  0  0  0  0  3  0  0  0  0  0  0
  184.6190  178.8260  140.5790 C   0  0  0  0  0  0  0  0  0  0  0  0
  183.7530  178.6780  141.6970 C   0  0  0  0  0  0  0  0  0  0  0  0
  184.3980  179.6730  143.8660 C   0  0  0  0  0  2  0  0  0  0  0  0
  184.2660  178.3770  143.0830 C   0  0  0  0  0  3  0  0  0  0  0  0
  183.2600  178.7320  144.1700 C   0  0  0  0  0  2  0  0  0  0  0  0
  189.9700  176.8250  139.3190 C   0  0  0  0  0  1  0  0  0  0  0  0
  189.3690  178.2160  139.1750 C   0  0  1  0  0  3  0  0  0  0  0  0
  189.1790  178.6260  137.7400 C   0  0  0  0  0  0  0  0  0  0  0  0
  189.3210  177.7230  136.6300 N   0  0  0  0  0  2  0  0  0  0  0  0
  188.9430  179.8380  137.5010 O   0  0  0  0  0  0  0  0  0  0  0  0
  187.9820  175.6550  136.8820 C   0  0  0  0  0  3  0  0  0  0  0  0
  189.2000  176.2960  136.6240 C   0  0  0  0  0  0  0  0  0  0  0  0
  189.0140  173.5000  136.5100 C   0  0  0  0  0  3  0  0  0  0  0  0
  187.8880  174.2630  136.8310 C   0  0  0  0  0  3  0  0  0  0  0  0
  190.3160  175.5260  136.2820 C   0  0  0  0  0  3  0  0  0  0  0  0
  190.2310  174.1260  136.2310 C   0  0  0  0  0  0  0  0  0  0  0  0
  191.3720  173.3240  135.9070 N   0  0  0  0  0  2  0  0  0  0  0  0
  194.7860  172.4180  136.8420 O   0  0  0  0  0  1  0  0  0  0  0  0
  192.7000  173.5520  136.4580 C   0  0  1  0  0  0  0  0  0  0  0  0
  192.7710  173.8760  137.8160 O   0  0  0  0  0  1  0  0  0  0  0  0
  193.7990  172.6730  135.8850 C   0  0  1  0  0  3  0  0  0  0  0  0
  193.7000  174.1680  135.4970 C   0  0  2  0  0  3  0  0  0  0  0  0
  194.5820  176.8780  135.8400 O   0  0  0  0  0  1  0  0  0  0  0  0
  196.4750  174.8920  135.6420 O   0  0  0  0  0  0  0  0  0  0  0  0
  194.9960  175.1760  137.7710 O   0  0  0  0  0  1  0  0  0  0  0  0
  194.9520  175.2830  136.2640 P   0  0  0  0  0  0  0  0  0  0  0  0
  188.7100  177.4580  142.2080 C   0  0  0  0  0  2  0  0  0  0  0  0
  189.4000  177.8540  143.5090 C   0  0  1  0  0  3  0  0  0  0  0  0
  188.8950  177.0420  144.6330 N   0  0  0  0  0  0  0  0  0  0  0  0
  188.7560  177.8280  145.8430 C   0  0  0  0  0  2  0  0  0  0  0  0
  186.6120  177.2180  145.1570 O   0  0  0  0  0  0  0  0  0  0  0  0
  187.5470  176.5740  144.3280 C   0  0  0  0  0  2  0  0  0  0  0  0
  187.3340  177.6270  146.2810 C   0  0  0  0  0  2  0  0  0  0  0  0
  191.5070  179.0830  143.7900 N   0  0  0  0  0  2  0  0  0  0  0  0
  191.5750  177.8890  144.6430 C   0  0  0  0  0  2  0  0  0  0  0  0
  190.9250  177.8090  143.3400 C   0  0  1  0  0  3  0  0  0  0  0  0
  1  4  1  0  0  0  0
  2  3  2  0  0  0  0
  4  3  1  0  0  0  0
  4 36  1  1  0  0  0
  5  1  2  0  0  0  0
  5  2  1  0  0  0  0
  6  8  1  0  0  0  0
  7  9  1  0  0  0  0
  7  6  2  0  0  0  0
  8 11  2  0  0  0  0
  9 10  2  0  0  0  0
 10  2  1  0  0  0  0
 10 11  1  0  0  0  0
 11 13  1  0  0  0  0
 12 14  1  0  0  0  0
 13 12  1  0  0  0  0
 13 14  1  0  0  0  0
 16 15  1  6  0  0  0
 16  1  1  0  0  0  0
 17 16  1  0  0  0  0
 18 17  1  0  0  0  0
 19 17  2  0  0  0  0
 21 18  1  0  0  0  0
 21 20  2  0  0  0  0
 22 23  2  0  0  0  0
 23 20  1  0  0  0  0
 24 21  1  0  0  0  0
 25 24  2  0  0  0  0
 25 22  1  0  0  0  0
 26 25  1  0  0  0  0
 26 28  1  0  0  0  0
 28 29  1  1  0  0  0
 30 28  1  0  0  0  0
 30 27  1  1  0  0  0
 31 30  1  0  0  0  0
 31 35  1  1  0  0  0
 31 28  1  0  0  0  0
 32 35  1  0  0  0  0
 33 35  2  0  0  0  0
 35 34  1  0  0  0  0
 37 36  1  6  0  0  0
 37 38  1  0  0  0  0
 38 39  1  0  0  0  0
 39 42  1  0  0  0  0
 40 42  1  0  0  0  0
 41 38  1  0  0  0  0
 41 40  1  0  0  0  0
 43 44  1  0  0  0  0
 45 37  1  1  0  0  0
 45 43  1  0  0  0  0
 45 44  1  0  0  0  0
M  END
>  <MODEL>
3

>  <REMARK>
 VINA RESULT:      -7.8      1.946      2.688
  Name = 
  12 active torsions:
  status: ('A' for Active; 'I' for Inactive)
    1  A    between atoms: C_6  and  C_44
    2  A    between atoms: N_7  and  C_41
    3  A    between atoms: C_9  and  C_24
    4  A    between atoms: C_14  and  N_16
    5  A    between atoms: N_16  and  C_39
    6  A    between atoms: C_18  and  N_43
    7  A    between atoms: C_19  and  C_24
    8  A    between atoms: C_22  and  C_26
    9  A    between atoms: C_31  and  C_41
   10  A    between atoms: C_32  and  C_35
   11  A    between atoms: C_35  and  C_41
   12  A    between atoms: P_36  and  C_38
                            x       y       z     vdW  Elec       q    Type
                         _______ _______ _______ _____ _____    ______ ____

>  <TORSDO>
F 12

$$$$
=
 OpenBabel10222416453D

 45 51  0  0  1  0  0  0  0  0999 V2000
  188.7790  177.3380  141.5320 C   0  0  0  0  0  0  0  0  0  0  0  0
  189.0000  177.1960  143.6790 C   0  0  0  0  0  0  0  0  0  0  0  0
  187.7160  177.3010  143.5520 N   0  0  0  0  0  0  0  0  0  0  0  0
  187.4160  177.4100  142.1300 C   0  0  1  0  0  3  0  0  0  0  0  0
  189.6910  177.2220  142.4380 N   0  0  0  0  0  0  0  0  0  0  0  0
  191.0510  176.8270  147.4010 N   0  0  0  0  0  0  0  0  0  0  0  0
  191.7250  176.7170  146.2290 C   0  0  0  0  0  3  0  0  0  0  0  0
  189.7100  177.0360  147.4290 C   0  0  0  0  0  3  0  0  0  0  0  0
  191.0440  176.8280  145.0190 C   0  0  0  0  0  3  0  0  0  0  0  0
  189.6590  177.0440  145.0020 C   0  0  0  0  0  0  0  0  0  0  0  0
  188.9670  177.1310  146.2410 C   0  0  0  0  0  0  0  0  0  0  0  0
  187.1200  177.7990  147.7420 C   0  0  0  0  0  2  0  0  0  0  0  0
  187.4840  177.3950  146.3220 C   0  0  0  0  0  3  0  0  0  0  0  0
  187.1650  178.8470  146.6570 C   0  0  0  0  0  2  0  0  0  0  0  0
  188.9620  178.8100  139.4680 C   0  0  0  0  0  1  0  0  0  0  0  0
  189.0760  177.4120  140.0600 C   0  0  1  0  0  3  0  0  0  0  0  0
  190.3570  176.7190  139.6820 C   0  0  0  0  0  0  0  0  0  0  0  0
  190.4720  175.8120  138.5730 N   0  0  0  0  0  2  0  0  0  0  0  0
  191.3620  176.9020  140.4150 O   0  0  0  0  0  0  0  0  0  0  0  0
  189.6610  176.7220  136.4190 C   0  0  0  0  0  3  0  0  0  0  0  0
  189.6510  175.7270  137.4030 C   0  0  0  0  0  0  0  0  0  0  0  0
  188.0810  175.4570  135.0950 C   0  0  0  0  0  3  0  0  0  0  0  0
  188.8760  176.5920  135.2710 C   0  0  0  0  0  3  0  0  0  0  0  0
  188.8690  174.5840  137.2090 C   0  0  0  0  0  3  0  0  0  0  0  0
  188.0750  174.4460  136.0610 C   0  0  0  0  0  0  0  0  0  0  0  0
  187.2510  173.2940  135.8600 N   0  0  0  0  0  2  0  0  0  0  0  0
  184.1560  172.1990  137.4660 O   0  0  0  0  0  1  0  0  0  0  0  0
  185.8140  173.2790  136.0990 C   0  0  1  0  0  0  0  0  0  0  0  0
  185.0020  172.8940  135.0300 O   0  0  0  0  0  1  0  0  0  0  0  0
  185.3930  172.8490  137.4950 C   0  0  1  0  0  3  0  0  0  0  0  0
  185.3120  174.3350  137.0680 C   0  0  2  0  0  3  0  0  0  0  0  0
  183.7570  176.5500  136.1120 O   0  0  0  0  0  1  0  0  0  0  0  0
  182.7590  175.0380  138.1810 O   0  0  0  0  0  1  0  0  0  0  0  0
  182.8500  174.1350  135.7360 O   0  0  0  0  0  0  0  0  0  0  0  0
  183.6190  174.9800  136.7260 P   0  0  0  0  0  0  0  0  0  0  0  0
  186.7860  178.7630  141.8320 C   0  0  0  0  0  2  0  0  0  0  0  0
  185.3450  178.5980  141.3620 C   0  0  1  0  0  3  0  0  0  0  0  0
  184.4280  179.3800  142.2140 N   0  0  0  0  0  0  0  0  0  0  0  0
  183.2880  178.5920  142.6400 C   0  0  0  0  0  2  0  0  0  0  0  0
  184.5640  179.0550  144.5360 O   0  0  0  0  0  0  0  0  0  0  0  0
  185.1110  179.7560  143.4470 C   0  0  0  0  0  2  0  0  0  0  0  0
  183.2730  178.7000  144.1370 C   0  0  0  0  0  2  0  0  0  0  0  0
  184.3200  177.9510  139.2260 N   0  0  0  0  0  2  0  0  0  0  0  0
  183.8660  179.3120  139.5390 C   0  0  0  0  0  2  0  0  0  0  0  0
  185.2310  178.9150  139.8640 C   0  0  1  0  0  3  0  0  0  0  0  0
  1  4  1  0  0  0  0
  1  5  2  0  0  0  0
  2 10  1  0  0  0  0
  3  2  2  0  0  0  0
  4 36  1  1  0  0  0
  4  3  1  0  0  0  0
  5  2  1  0  0  0  0
  6  8  1  0  0  0  0
  7  6  2  0  0  0  0
  9  7  1  0  0  0  0
 10  9  2  0  0  0  0
 10 11  1  0  0  0  0
 11 13  1  0  0  0  0
 11  8  2  0  0  0  0
 13 14  1  0  0  0  0
 13 12  1  0  0  0  0
 14 12  1  0  0  0  0
 16 15  1  1  0  0  0
 16  1  1  0  0  0  0
 17 16  1  0  0  0  0
 17 19  2  0  0  0  0
 18 17  1  0  0  0  0
 20 21  1  0  0  0  0
 21 18  1  0  0  0  0
 22 23  1  0  0  0  0
 22 25  2  0  0  0  0
 23 20  2  0  0  0  0
 24 21  2  0  0  0  0
 25 24  1  0  0  0  0
 26 25  1  0  0  0  0
 26 28  1  0  0  0  0
 28 29  1  6  0  0  0
 28 31  1  0  0  0  0
 28 30  1  0  0  0  0
 30 27  1  6  0  0  0
 31 35  1  6  0  0  0
 31 30  1  0  0  0  0
 32 35  1  0  0  0  0
 34 35  2  0  0  0  0
 35 33  1  0  0  0  0
 37 36  1  1  0  0  0
 37 38  1  0  0  0  0
 38 39  1  0  0  0  0
 38 41  1  0  0  0  0
 39 42  1  0  0  0  0
 41 40  1  0  0  0  0
 42 40  1  0  0  0  0
 43 44  1  0  0  0  0
 43 45  1  0  0  0  0
 44 45  1  0  0  0  0
 45 37  1  1  0  0  0
M  END
>  <MODEL>
4

>  <REMARK>
 VINA RESULT:      -7.7      4.025      7.292
  Name = 
  12 active torsions:
  status: ('A' for Active; 'I' for Inactive)
    1  A    between atoms: C_6  and  C_44
    2  A    between atoms: N_7  and  C_41
    3  A    between atoms: C_9  and  C_24
    4  A    between atoms: C_14  and  N_16
    5  A    between atoms: N_16  and  C_39
    6  A    between atoms: C_18  and  N_43
    7  A    between atoms: C_19  and  C_24
    8  A    between atoms: C_22  and  C_26
    9  A    between atoms: C_31  and  C_41
   10  A    between atoms: C_32  and  C_35
   11  A    between atoms: C_35  and  C_41
   12  A    between atoms: P_36  and  C_38
                            x       y       z     vdW  Elec       q    Type
                         _______ _______ _______ _____ _____    ______ ____

>  <TORSDO>
F 12

$$$$
=
 OpenBabel10222416453D

 45 51  0  0  1  0  0  0  0  0999 V2000
  187.9940  178.3830  140.0050 C   0  0  0  0  0  0  0  0  0  0  0  0
  185.9530  178.6730  140.6630 C   0  0  0  0  0  0  0  0  0  0  0  0
  186.5960  178.6810  141.7860 N   0  0  0  0  0  0  0  0  0  0  0  0
  188.0100  178.4880  141.4930 C   0  0  1  0  0  3  0  0  0  0  0  0
  186.7960  178.4840  139.5350 N   0  0  0  0  0  0  0  0  0  0  0  0
  181.7350  179.1640  140.2640 N   0  0  0  0  0  0  0  0  0  0  0  0
  182.5460  179.2730  139.1830 C   0  0  0  0  0  3  0  0  0  0  0  0
  182.2350  178.9170  141.5020 C   0  0  0  0  0  3  0  0  0  0  0  0
  183.9230  179.1220  139.3260 C   0  0  0  0  0  3  0  0  0  0  0  0
  184.4820  178.8670  140.5860 C   0  0  0  0  0  0  0  0  0  0  0  0
  183.6170  178.7810  141.7110 C   0  0  0  0  0  0  0  0  0  0  0  0
  184.0500  179.7320  143.9510 C   0  0  0  0  0  2  0  0  0  0  0  0
  184.1230  178.4750  143.0980 C   0  0  0  0  0  3  0  0  0  0  0  0
  183.0440  178.6280  144.1630 C   0  0  0  0  0  2  0  0  0  0  0  0
  189.8440  176.7910  139.3000 C   0  0  0  0  0  1  0  0  0  0  0  0
  189.2090  178.1660  139.1470 C   0  0  1  0  0  3  0  0  0  0  0  0
  188.9900  178.5540  137.7100 C   0  0  0  0  0  0  0  0  0  0  0  0
  188.8030  177.6010  136.6490 N   0  0  0  0  0  2  0  0  0  0  0  0
  189.0330  179.7760  137.4170 O   0  0  0  0  0  0  0  0  0  0  0  0
  189.2080  175.1580  136.6030 C   0  0  0  0  0  3  0  0  0  0  0  0
  188.3400  176.2480  136.7400 C   0  0  0  0  0  0  0  0  0  0  0  0
  187.3820  173.6270  137.0130 C   0  0  0  0  0  3  0  0  0  0  0  0
  188.7320  173.8520  136.7340 C   0  0  0  0  0  3  0  0  0  0  0  0
  186.9940  176.0150  137.0400 C   0  0  0  0  0  3  0  0  0  0  0  0
  186.5070  174.7060  137.1700 C   0  0  0  0  0  0  0  0  0  0  0  0
  185.1270  174.4510  137.4530 N   0  0  0  0  0  2  0  0  0  0  0  0
  183.9040  171.4370  135.7880 O   0  0  0  0  0  1  0  0  0  0  0  0
  184.2540  173.6820  136.5780 C   0  0  1  0  0  0  0  0  0  0  0  0
  184.2620  174.0230  135.2230 O   0  0  0  0  0  1  0  0  0  0  0  0
  184.1120  172.2110  136.9340 C   0  0  1  0  0  3  0  0  0  0  0  0
  182.9610  173.2060  137.2140 C   0  0  2  0  0  3  0  0  0  0  0  0
  180.4430  174.3560  136.4530 O   0  0  0  0  0  1  0  0  0  0  0  0
  180.7310  171.6230  136.3370 O   0  0  0  0  0  1  0  0  0  0  0  0
  181.8940  173.2030  134.6190 O   0  0  0  0  0  0  0  0  0  0  0  0
  181.5120  173.1000  136.0780 P   0  0  0  0  0  0  0  0  0  0  0  0
  188.4970  177.1820  142.1020 C   0  0  0  0  0  2  0  0  0  0  0  0
  189.3740  177.4470  143.3210 C   0  0  1  0  0  3  0  0  0  0  0  0
  188.7790  176.8450  144.5300 N   0  0  0  0  0  0  0  0  0  0  0  0
  188.6320  177.8160  145.5970 C   0  0  0  0  0  2  0  0  0  0  0  0
  186.4890  177.2070  144.9060 O   0  0  0  0  0  0  0  0  0  0  0  0
  187.4220  176.3980  144.2340 C   0  0  0  0  0  2  0  0  0  0  0  0
  187.1840  177.7520  145.9880 C   0  0  0  0  0  2  0  0  0  0  0  0
  191.6820  178.1890  142.9310 N   0  0  0  0  0  2  0  0  0  0  0  0
  191.6790  177.3850  144.1610 C   0  0  0  0  0  2  0  0  0  0  0  0
  190.8180  177.0030  143.0470 C   0  0  1  0  0  3  0  0  0  0  0  0
  1  4  1  0  0  0  0
  2  3  2  0  0  0  0
  4  3  1  0  0  0  0
  4 36  1  1  0  0  0
  5  1  2  0  0  0  0
  5  2  1  0  0  0  0
  6  8  1  0  0  0  0
  7  9  1  0  0  0  0
  7  6  2  0  0  0  0
  8 11  2  0  0  0  0
  9 10  2  0  0  0  0
 10  2  1  0  0  0  0
 10 11  1  0  0  0  0
 11 13  1  0  0  0  0
 12 14  1  0  0  0  0
 13 12  1  0  0  0  0
 13 14  1  0  0  0  0
 16 15  1  6  0  0  0
 16  1  1  0  0  0  0
 17 16  1  0  0  0  0
 18 21  1  0  0  0  0
 18 17  1  0  0  0  0
 19 17  2  0  0  0  0
 20 23  2  0  0  0  0
 20 21  1  0  0  0  0
 21 24  2  0  0  0  0
 22 25  2  0  0  0  0
 23 22  1  0  0  0  0
 24 25  1  0  0  0  0
 25 26  1  0  0  0  0
 28 29  1  6  0  0  0
 28 30  1  0  0  0  0
 28 31  1  0  0  0  0
 28 26  1  0  0  0  0
 30 27  1  6  0  0  0
 30 31  1  0  0  0  0
 31 35  1  6  0  0  0
 34 35  2  0  0  0  0
 35 33  1  0  0  0  0
 35 32  1  0  0  0  0
 37 36  1  6  0  0  0
 37 38  1  0  0  0  0
 38 39  1  0  0  0  0
 39 42  1  0  0  0  0
 40 42  1  0  0  0  0
 41 38  1  0  0  0  0
 41 40  1  0  0  0  0
 43 45  1  0  0  0  0
 43 44  1  0  0  0  0
 45 37  1  1  0  0  0
 45 44  1  0  0  0  0
M  END
>  <MODEL>
5

>  <REMARK>
 VINA RESULT:      -7.6      4.609      6.829
  Name = 
  12 active torsions:
  status: ('A' for Active; 'I' for Inactive)
    1  A    between atoms: C_6  and  C_44
    2  A    between atoms: N_7  and  C_41
    3  A    between atoms: C_9  and  C_24
    4  A    between atoms: C_14  and  N_16
    5  A    between atoms: N_16  and  C_39
    6  A    between atoms: C_18  and  N_43
    7  A    between atoms: C_19  and  C_24
    8  A    between atoms: C_22  and  C_26
    9  A    between atoms: C_31  and  C_41
   10  A    between atoms: C_32  and  C_35
   11  A    between atoms: C_35  and  C_41
   12  A    between atoms: P_36  and  C_38
                            x       y       z     vdW  Elec       q    Type
                         _______ _______ _______ _____ _____    ______ ____

>  <TORSDO>
F 12

$$$$
=
 OpenBabel10222416453D

 45 51  0  0  1  0  0  0  0  0999 V2000
  186.9200  178.4170  139.5230 C   0  0  0  0  0  0  0  0  0  0  0  0
  185.8330  178.6320  141.3810 C   0  0  0  0  0  0  0  0  0  0  0  0
  187.0600  178.6380  141.7910 N   0  0  0  0  0  0  0  0  0  0  0  0
  187.9220  178.4950  140.6250 C   0  0  1  0  0  3  0  0  0  0  0  0
  185.7120  178.4890  139.9730 N   0  0  0  0  0  0  0  0  0  0  0  0
  182.4220  178.9690  143.9210 N   0  0  0  0  0  0  0  0  0  0  0  0
  182.2760  178.9240  142.5730 C   0  0  0  0  0  3  0  0  0  0  0  0
  183.6490  178.9290  144.5020 C   0  0  0  0  0  3  0  0  0  0  0  0
  183.3970  178.8260  141.7530 C   0  0  0  0  0  3  0  0  0  0  0  0
  184.6830  178.7810  142.3100 C   0  0  0  0  0  0  0  0  0  0  0  0
  184.8160  178.8550  143.7230 C   0  0  0  0  0  0  0  0  0  0  0  0
  185.9450  178.5150  145.8960 C   0  0  0  0  0  2  0  0  0  0  0  0
  186.1550  178.7810  144.4140 C   0  0  0  0  0  3  0  0  0  0  0  0
  186.4360  177.4040  145.0020 C   0  0  0  0  0  2  0  0  0  0  0  0
  188.5500  178.9350  137.6440 C   0  0  0  0  0  1  0  0  0  0  0  0
  187.2560  178.2530  138.0670 C   0  0  1  0  0  3  0  0  0  0  0  0
  187.1670  176.8260  137.6010 C   0  0  0  0  0  0  0  0  0  0  0  0
  185.9300  176.1760  137.2620 N   0  0  0  0  0  2  0  0  0  0  0  0
  188.2280  176.1520  137.5630 O   0  0  0  0  0  0  0  0  0  0  0  0
  184.3630  176.9420  135.5050 C   0  0  0  0  0  3  0  0  0  0  0  0
  184.6940  176.7730  136.8550 C   0  0  0  0  0  0  0  0  0  0  0  0
  182.2180  177.8710  136.1260 C   0  0  0  0  0  3  0  0  0  0  0  0
  183.1330  177.4930  135.1400 C   0  0  0  0  0  3  0  0  0  0  0  0
  183.7640  177.1350  137.8350 C   0  0  0  0  0  3  0  0  0  0  0  0
  182.5270  177.6920  137.4770 C   0  0  0  0  0  0  0  0  0  0  0  0
  181.5760  178.0890  138.4700 N   0  0  0  0  0  2  0  0  0  0  0  0
  179.9880  181.1480  139.6850 O   0  0  0  0  0  1  0  0  0  0  0  0
  180.7580  179.2890  138.3670 C   0  0  1  0  0  0  0  0  0  0  0  0
  179.4050  179.1050  138.0660 O   0  0  0  0  0  1  0  0  0  0  0  0
  181.1190  180.4060  139.3320 C   0  0  1  0  0  3  0  0  0  0  0  0
  181.4750  180.5150  137.8300 C   0  0  2  0  0  3  0  0  0  0  0  0
  180.8250  181.4770  135.2050 O   0  0  0  0  0  0  0  0  0  0  0  0
  180.7980  183.2550  137.3030 O   0  0  0  0  0  1  0  0  0  0  0  0
  178.9520  181.4350  137.0180 O   0  0  0  0  0  1  0  0  0  0  0  0
  180.4350  181.6700  136.8390 P   0  0  0  0  0  0  0  0  0  0  0  0
  188.7050  177.1930  140.7110 C   0  0  0  0  0  2  0  0  0  0  0  0
  190.0330  177.4060  141.4290 C   0  0  1  0  0  3  0  0  0  0  0  0
  189.8990  177.1070  142.8670 N   0  0  0  0  0  0  0  0  0  0  0  0
  190.8150  176.0640  143.2870 C   0  0  0  0  0  2  0  0  0  0  0  0
  191.4880  178.0420  144.3220 O   0  0  0  0  0  0  0  0  0  0  0  0
  190.2780  178.2800  143.6460 C   0  0  0  0  0  2  0  0  0  0  0  0
  191.5820  176.6530  144.4350 C   0  0  0  0  0  2  0  0  0  0  0  0
  191.3390  177.1460  139.3660 N   0  0  0  0  0  2  0  0  0  0  0  0
  192.2760  177.5040  140.4390 C   0  0  0  0  0  2  0  0  0  0  0  0
  191.1510  176.6220  140.7280 C   0  0  1  0  0  3  0  0  0  0  0  0
  1  5  2  0  0  0  0
  1  4  1  0  0  0  0
  2  3  2  0  0  0  0
  2 10  1  0  0  0  0
  4 36  1  1  0  0  0
  4  3  1  0  0  0  0
  5  2  1  0  0  0  0
  6  8  1  0  0  0  0
  7  6  2  0  0  0  0
  9 10  2  0  0  0  0
  9  7  1  0  0  0  0
 10 11  1  0  0  0  0
 11 13  1  0  0  0  0
 11  8  2  0  0  0  0
 13 14  1  0  0  0  0
 13 12  1  0  0  0  0
 14 12  1  0  0  0  0
 16 15  1  1  0  0  0
 16  1  1  0  0  0  0
 17 16  1  0  0  0  0
 18 17  1  0  0  0  0
 19 17  2  0  0  0  0
 20 21  1  0  0  0  0
 21 18  1  0  0  0  0
 21 24  2  0  0  0  0
 22 25  2  0  0  0  0
 23 20  2  0  0  0  0
 23 22  1  0  0  0  0
 25 24  1  0  0  0  0
 25 26  1  0  0  0  0
 28 29  1  6  0  0  0
 28 26  1  0  0  0  0
 28 30  1  0  0  0  0
 30 27  1  6  0  0  0
 31 35  1  6  0  0  0
 31 28  1  0  0  0  0
 31 30  1  0  0  0  0
 32 35  2  0  0  0  0
 35 34  1  0  0  0  0
 35 33  1  0  0  0  0
 37 36  1  6  0  0  0
 37 38  1  0  0  0  0
 38 39  1  0  0  0  0
 38 41  1  0  0  0  0
 39 42  1  0  0  0  0
 40 42  1  0  0  0  0
 41 40  1  0  0  0  0
 43 44  1  0  0  0  0
 43 45  1  0  0  0  0
 44 45  1  0  0  0  0
 45 37  1  1  0  0  0
M  END
>  <MODEL>
6

>  <REMARK>
 VINA RESULT:      -7.6      4.553      8.499
  Name = 
  12 active torsions:
  status: ('A' for Active; 'I' for Inactive)
    1  A    between atoms: C_6  and  C_44
    2  A    between atoms: N_7  and  C_41
    3  A    between atoms: C_9  and  C_24
    4  A    between atoms: C_14  and  N_16
    5  A    between atoms: N_16  and  C_39
    6  A    between atoms: C_18  and  N_43
    7  A    between atoms: C_19  and  C_24
    8  A    between atoms: C_22  and  C_26
    9  A    between atoms: C_31  and  C_41
   10  A    between atoms: C_32  and  C_35
   11  A    between atoms: C_35  and  C_41
   12  A    between atoms: P_36  and  C_38
                            x       y       z     vdW  Elec       q    Type
                         _______ _______ _______ _____ _____    ______ ____

>  <TORSDO>
F 12

$$$$
=
 OpenBabel10222416453D

 45 51  0  0  1  0  0  0  0  0999 V2000
  188.2930  177.6220  141.5250 C   0  0  0  0  0  0  0  0  0  0  0  0
  188.0580  177.5970  143.6750 C   0  0  0  0  0  0  0  0  0  0  0  0
  186.8480  177.8300  143.2800 N   0  0  0  0  0  0  0  0  0  0  0  0
  186.8550  177.8790  141.8240 C   0  0  1  0  0  3  0  0  0  0  0  0
  188.9830  177.4680  142.6050 N   0  0  0  0  0  0  0  0  0  0  0  0
  189.2550  177.2730  147.7570 N   0  0  0  0  0  0  0  0  0  0  0  0
  190.1630  177.1290  146.7590 C   0  0  0  0  0  3  0  0  0  0  0  0
  187.9430  177.5030  147.4930 C   0  0  0  0  0  3  0  0  0  0  0  0
  189.7590  177.2250  145.4300 C   0  0  0  0  0  3  0  0  0  0  0  0
  188.4140  177.4620  145.1120 C   0  0  0  0  0  0  0  0  0  0  0  0
  187.4750  177.5840  146.1710 C   0  0  0  0  0  0  0  0  0  0  0  0
  185.3900  178.4270  147.1970 C   0  0  0  0  0  2  0  0  0  0  0  0
  186.0140  177.8730  145.9270 C   0  0  0  0  0  3  0  0  0  0  0  0
  185.6820  179.3550  146.0450 C   0  0  0  0  0  2  0  0  0  0  0  0
  188.8510  178.8920  139.3960 C   0  0  0  0  0  1  0  0  0  0  0  0
  188.8860  177.5670  140.1450 C   0  0  1  0  0  3  0  0  0  0  0  0
  190.2400  176.9120  140.1120 C   0  0  0  0  0  0  0  0  0  0  0  0
  190.6550  175.9950  139.0850 N   0  0  0  0  0  2  0  0  0  0  0  0
  191.0250  177.1350  141.0690 O   0  0  0  0  0  0  0  0  0  0  0  0
  190.5260  176.7600  136.7340 C   0  0  0  0  0  3  0  0  0  0  0  0
  190.1540  175.8710  137.7490 C   0  0  0  0  0  0  0  0  0  0  0  0
  189.2050  175.5180  135.1340 C   0  0  0  0  0  3  0  0  0  0  0  0
  190.0500  176.5890  135.4320 C   0  0  0  0  0  3  0  0  0  0  0  0
  189.3250  174.7880  137.4370 C   0  0  0  0  0  3  0  0  0  0  0  0
  188.8400  174.6110  136.1330 C   0  0  0  0  0  0  0  0  0  0  0  0
  187.9700  173.5220  135.8050 N   0  0  0  0  0  2  0  0  0  0  0  0
  184.8170  174.5950  137.3070 O   0  0  0  0  0  1  0  0  0  0  0  0
  186.6540  173.3360  136.3980 C   0  0  1  0  0  0  0  0  0  0  0  0
  186.5990  172.6280  137.6020 O   0  0  0  0  0  1  0  0  0  0  0  0
  185.6930  174.5000  136.2220 C   0  0  1  0  0  3  0  0  0  0  0  0
  185.5130  173.1980  135.4050 C   0  0  2  0  0  3  0  0  0  0  0  0
  184.5350  170.5030  135.5540 O   0  0  0  0  0  1  0  0  0  0  0  0
  182.7390  172.5320  135.0780 O   0  0  0  0  0  0  0  0  0  0  0  0
  183.8390  172.1880  137.4180 O   0  0  0  0  0  1  0  0  0  0  0  0
  184.1310  172.1000  135.9370 P   0  0  0  0  0  0  0  0  0  0  0  0
  186.4630  179.2690  141.3450 C   0  0  0  0  0  2  0  0  0  0  0  0
  185.0160  179.2870  140.8630 C   0  0  1  0  0  3  0  0  0  0  0  0
  184.9600  179.2620  139.3890 N   0  0  0  0  0  0  0  0  0  0  0  0
  184.8520  177.9090  138.8780 C   0  0  0  0  0  2  0  0  0  0  0  0
  182.8500  179.0020  138.3900 O   0  0  0  0  0  0  0  0  0  0  0  0
  183.7470  179.9360  138.9370 C   0  0  0  0  0  2  0  0  0  0  0  0
  183.6390  177.9190  137.9930 C   0  0  0  0  0  2  0  0  0  0  0  0
  183.7390  178.6280  142.8540 N   0  0  0  0  0  2  0  0  0  0  0  0
  182.8240  178.5770  141.7060 C   0  0  0  0  0  2  0  0  0  0  0  0
  184.2140  178.1670  141.5390 C   0  0  1  0  0  3  0  0  0  0  0  0
  1  4  1  0  0  0  0
  1  5  2  0  0  0  0
  2 10  1  0  0  0  0
  3  2  2  0  0  0  0
  4 36  1  1  0  0  0
  4  3  1  0  0  0  0
  5  2  1  0  0  0  0
  7  6  2  0  0  0  0
  8  6  1  0  0  0  0
  9  7  1  0  0  0  0
 10  9  2  0  0  0  0
 10 11  1  0  0  0  0
 11  8  2  0  0  0  0
 13 14  1  0  0  0  0
 13 11  1  0  0  0  0
 13 12  1  0  0  0  0
 14 12  1  0  0  0  0
 16 15  1  1  0  0  0
 16  1  1  0  0  0  0
 17 16  1  0  0  0  0
 17 19  2  0  0  0  0
 18 17  1  0  0  0  0
 20 21  1  0  0  0  0
 21 18  1  0  0  0  0
 22 23  1  0  0  0  0
 22 25  2  0  0  0  0
 23 20  2  0  0  0  0
 24 21  2  0  0  0  0
 25 24  1  0  0  0  0
 26 25  1  0  0  0  0
 26 28  1  0  0  0  0
 28 29  1  1  0  0  0
 30 28  1  0  0  0  0
 30 27  1  1  0  0  0
 31 35  1  1  0  0  0
 31 30  1  0  0  0  0
 31 28  1  0  0  0  0
 32 35  1  0  0  0  0
 33 35  2  0  0  0  0
 35 34  1  0  0  0  0
 37 36  1  6  0  0  0
 38 37  1  0  0  0  0
 39 38  1  0  0  0  0
 40 41  1  0  0  0  0
 41 38  1  0  0  0  0
 42 40  1  0  0  0  0
 42 39  1  0  0  0  0
 44 43  1  0  0  0  0
 45 37  1  6  0  0  0
 45 44  1  0  0  0  0
 45 43  1  0  0  0  0
M  END
>  <MODEL>
7

>  <REMARK>
 VINA RESULT:      -7.5      4.109      7.226
  Name = 
  12 active torsions:
  status: ('A' for Active; 'I' for Inactive)
    1  A    between atoms: C_6  and  C_44
    2  A    between atoms: N_7  and  C_41
    3  A    between atoms: C_9  and  C_24
    4  A    between atoms: C_14  and  N_16
    5  A    between atoms: N_16  and  C_39
    6  A    between atoms: C_18  and  N_43
    7  A    between atoms: C_19  and  C_24
    8  A    between atoms: C_22  and  C_26
    9  A    between atoms: C_31  and  C_41
   10  A    between atoms: C_32  and  C_35
   11  A    between atoms: C_35  and  C_41
   12  A    between atoms: P_36  and  C_38
                            x       y       z     vdW  Elec       q    Type
                         _______ _______ _______ _____ _____    ______ ____

>  <TORSDO>
F 12

$$$$
=
 OpenBabel10222416453D

 45 51  0  0  1  0  0  0  0  0999 V2000
  187.0680  178.2110  139.6730 C   0  0  0  0  0  0  0  0  0  0  0  0
  186.0880  178.5460  141.5720 C   0  0  0  0  0  0  0  0  0  0  0  0
  187.3360  178.6460  141.8980 N   0  0  0  0  0  0  0  0  0  0  0  0
  188.1300  178.4350  140.6950 C   0  0  1  0  0  3  0  0  0  0  0  0
  185.8880  178.2690  140.1930 N   0  0  0  0  0  0  0  0  0  0  0  0
  182.8180  178.9870  144.2760 N   0  0  0  0  0  0  0  0  0  0  0  0
  182.6110  179.0030  142.9360 C   0  0  0  0  0  3  0  0  0  0  0  0
  184.0650  178.8520  144.7980 C   0  0  0  0  0  3  0  0  0  0  0  0
  183.6870  178.8700  142.0610 C   0  0  0  0  0  3  0  0  0  0  0  0
  184.9900  178.7280  142.5570 C   0  0  0  0  0  0  0  0  0  0  0  0
  185.1890  178.7390  143.9640 C   0  0  0  0  0  0  0  0  0  0  0  0
  186.3880  178.1830  146.0540 C   0  0  0  0  0  2  0  0  0  0  0  0
  186.5500  178.5590  144.5900 C   0  0  0  0  0  3  0  0  0  0  0  0
  186.7970  177.1300  145.0550 C   0  0  0  0  0  2  0  0  0  0  0  0
  186.1480  178.2520  137.3040 C   0  0  0  0  0  1  0  0  0  0  0  0
  187.3220  177.9290  138.2180 C   0  0  1  0  0  3  0  0  0  0  0  0
  188.6230  178.5040  137.7270 C   0  0  0  0  0  0  0  0  0  0  0  0
  189.7880  177.7090  137.4490 N   0  0  0  0  0  2  0  0  0  0  0  0
  188.7070  179.7530  137.6110 O   0  0  0  0  0  0  0  0  0  0  0  0
  190.9470  175.5220  137.5130 C   0  0  0  0  0  3  0  0  0  0  0  0
  189.8590  176.3150  137.1290 C   0  0  0  0  0  0  0  0  0  0  0  0
  189.8930  173.5720  136.5460 C   0  0  0  0  0  3  0  0  0  0  0  0
  190.9690  174.1570  137.2190 C   0  0  0  0  0  3  0  0  0  0  0  0
  188.7770  175.7170  136.4750 C   0  0  0  0  0  3  0  0  0  0  0  0
  188.7920  174.3470  136.1730 C   0  0  0  0  0  0  0  0  0  0  0  0
  187.7030  173.7270  135.4820 N   0  0  0  0  0  2  0  0  0  0  0  0
  185.3490  173.0030  138.1810 O   0  0  0  0  0  1  0  0  0  0  0  0
  186.6370  172.9940  136.1500 C   0  0  1  0  0  0  0  0  0  0  0  0
  186.8950  171.6580  136.4690 O   0  0  0  0  0  1  0  0  0  0  0  0
  185.8100  173.8050  137.1330 C   0  0  1  0  0  3  0  0  0  0  0  0
  185.2290  173.4030  135.7570 C   0  0  2  0  0  3  0  0  0  0  0  0
  184.5500  170.7730  134.8260 O   0  0  0  0  0  0  0  0  0  0  0  0
  182.5410  172.6320  135.1020 O   0  0  0  0  0  1  0  0  0  0  0  0
  183.6890  171.5300  137.1680 O   0  0  0  0  0  1  0  0  0  0  0  0
  183.9770  172.0490  135.7780 P   0  0  0  0  0  0  0  0  0  0  0  0
  188.9830  177.1840  140.8440 C   0  0  0  0  0  2  0  0  0  0  0  0
  190.2110  177.4650  141.7040 C   0  0  1  0  0  3  0  0  0  0  0  0
  189.9350  177.1570  143.1200 N   0  0  0  0  0  0  0  0  0  0  0  0
  190.7310  176.0410  143.5920 C   0  0  0  0  0  2  0  0  0  0  0  0
  191.4630  177.9470  144.7190 O   0  0  0  0  0  0  0  0  0  0  0  0
  190.3350  178.2870  143.9510 C   0  0  0  0  0  2  0  0  0  0  0  0
  191.4410  176.5530  144.8120 C   0  0  0  0  0  2  0  0  0  0  0  0
  191.9730  177.5030  139.9940 N   0  0  0  0  0  2  0  0  0  0  0  0
  192.6300  177.5650  141.3060 C   0  0  0  0  0  2  0  0  0  0  0  0
  191.4390  176.7410  141.1340 C   0  0  1  0  0  3  0  0  0  0  0  0
  1  5  2  0  0  0  0
  1  4  1  0  0  0  0
  2  3  2  0  0  0  0
  2 10  1  0  0  0  0
  4 36  1  1  0  0  0
  4  3  1  0  0  0  0
  5  2  1  0  0  0  0
  6  8  1  0  0  0  0
  7  6  2  0  0  0  0
  9 10  2  0  0  0  0
  9  7  1  0  0  0  0
 10 11  1  0  0  0  0
 11 13  1  0  0  0  0
 11  8  2  0  0  0  0
 13 14  1  0  0  0  0
 13 12  1  0  0  0  0
 14 12  1  0  0  0  0
 16 15  1  6  0  0  0
 16  1  1  0  0  0  0
 17 16  1  0  0  0  0
 18 17  1  0  0  0  0
 19 17  2  0  0  0  0
 21 18  1  0  0  0  0
 21 20  2  0  0  0  0
 22 23  2  0  0  0  0
 23 20  1  0  0  0  0
 24 21  1  0  0  0  0
 25 24  2  0  0  0  0
 25 22  1  0  0  0  0
 26 28  1  0  0  0  0
 26 25  1  0  0  0  0
 28 29  1  1  0  0  0
 28 30  1  0  0  0  0
 30 27  1  1  0  0  0
 31 35  1  1  0  0  0
 31 28  1  0  0  0  0
 31 30  1  0  0  0  0
 32 35  2  0  0  0  0
 33 35  1  0  0  0  0
 35 34  1  0  0  0  0
 37 36  1  6  0  0  0
 37 38  1  0  0  0  0
 38 39  1  0  0  0  0
 38 41  1  0  0  0  0
 39 42  1  0  0  0  0
 40 42  1  0  0  0  0
 41 40  1  0  0  0  0
 43 45  1  0  0  0  0
 43 44  1  0  0  0  0
 45 44  1  0  0  0  0
 45 37  1  1  0  0  0
M  END
>  <MODEL>
8

>  <REMARK>
 VINA RESULT:      -7.5      3.900      5.410
  Name = 
  12 active torsions:
  status: ('A' for Active; 'I' for Inactive)
    1  A    between atoms: C_6  and  C_44
    2  A    between atoms: N_7  and  C_41
    3  A    between atoms: C_9  and  C_24
    4  A    between atoms: C_14  and  N_16
    5  A    between atoms: N_16  and  C_39
    6  A    between atoms: C_18  and  N_43
    7  A    between atoms: C_19  and  C_24
    8  A    between atoms: C_22  and  C_26
    9  A    between atoms: C_31  and  C_41
   10  A    between atoms: C_32  and  C_35
   11  A    between atoms: C_35  and  C_41
   12  A    between atoms: P_36  and  C_38
                            x       y       z     vdW  Elec       q    Type
                         _______ _______ _______ _____ _____    ______ ____

>  <TORSDO>
F 12

$$$$
=
 OpenBabel10222416453D

 45 51  0  0  1  0  0  0  0  0999 V2000
  188.5330  177.4920  141.5230 C   0  0  0  0  0  0  0  0  0  0  0  0
  188.8500  177.3270  143.6560 C   0  0  0  0  0  0  0  0  0  0  0  0
  187.5700  177.5030  143.5920 N   0  0  0  0  0  0  0  0  0  0  0  0
  187.2060  177.6360  142.1880 C   0  0  1  0  0  3  0  0  0  0  0  0
  189.4800  177.3220  142.3830 N   0  0  0  0  0  0  0  0  0  0  0  0
  191.0550  176.8390  147.2750 N   0  0  0  0  0  0  0  0  0  0  0  0
  191.6790  176.7660  146.0730 C   0  0  0  0  0  3  0  0  0  0  0  0
  189.7170  177.0470  147.3660 C   0  0  0  0  0  3  0  0  0  0  0  0
  190.9480  176.9150  144.8970 C   0  0  0  0  0  3  0  0  0  0  0  0
  189.5640  177.1320  144.9450 C   0  0  0  0  0  0  0  0  0  0  0  0
  188.9250  177.1800  146.2140 C   0  0  0  0  0  0  0  0  0  0  0  0
  187.1500  177.8430  147.8020 C   0  0  0  0  0  2  0  0  0  0  0  0
  187.4470  177.4430  146.3660 C   0  0  0  0  0  3  0  0  0  0  0  0
  187.1430  178.8930  146.7190 C   0  0  0  0  0  2  0  0  0  0  0  0
  189.0660  178.9530  139.5120 C   0  0  0  0  0  1  0  0  0  0  0  0
  188.7600  177.5560  140.0380 C   0  0  1  0  0  3  0  0  0  0  0  0
  189.7340  176.5200  139.5470 C   0  0  0  0  0  0  0  0  0  0  0  0
  189.6760  175.9340  138.2350 N   0  0  0  0  0  2  0  0  0  0  0  0
  190.6060  176.1040  140.3510 O   0  0  0  0  0  0  0  0  0  0  0  0
  189.8350  176.7860  135.9150 C   0  0  0  0  0  3  0  0  0  0  0  0
  189.0760  176.4670  137.0480 C   0  0  0  0  0  0  0  0  0  0  0  0
  187.8280  177.4260  134.7270 C   0  0  0  0  0  3  0  0  0  0  0  0
  189.2150  177.2680  134.7600 C   0  0  0  0  0  3  0  0  0  0  0  0
  187.6860  176.6080  137.0000 C   0  0  0  0  0  3  0  0  0  0  0  0
  187.0560  177.0940  135.8440 C   0  0  0  0  0  0  0  0  0  0  0  0
  185.6360  177.2670  135.7890 N   0  0  0  0  0  2  0  0  0  0  0  0
  182.5870  175.2550  135.6900 O   0  0  0  0  0  1  0  0  0  0  0  0
  184.6850  176.2770  136.2740 C   0  0  1  0  0  0  0  0  0  0  0  0
  184.0700  176.5420  137.5000 O   0  0  0  0  0  1  0  0  0  0  0  0
  183.8500  175.5980  135.2000 C   0  0  1  0  0  3  0  0  0  0  0  0
  185.0030  174.8400  135.9010 C   0  0  2  0  0  3  0  0  0  0  0  0
  183.4680  174.3020  138.2660 O   0  0  0  0  0  1  0  0  0  0  0  0
  185.8760  173.0140  137.9380 O   0  0  0  0  0  1  0  0  0  0  0  0
  183.7790  172.3920  136.5180 O   0  0  0  0  0  0  0  0  0  0  0  0
  184.4940  173.5710  137.1380 P   0  0  0  0  0  0  0  0  0  0  0  0
  186.6380  179.0230  141.9230 C   0  0  0  0  0  2  0  0  0  0  0  0
  185.1160  179.0110  142.0160 C   0  0  1  0  0  3  0  0  0  0  0  0
  184.5240  178.4870  140.7700 N   0  0  0  0  0  0  0  0  0  0  0  0
  183.2070  179.0420  140.5270 C   0  0  0  0  0  2  0  0  0  0  0  0
  184.6250  179.8560  138.8640 O   0  0  0  0  0  0  0  0  0  0  0  0
  185.3310  178.9130  139.6310 C   0  0  0  0  0  2  0  0  0  0  0  0
  183.2760  179.6280  139.1460 C   0  0  0  0  0  2  0  0  0  0  0  0
  184.5250  179.2310  144.3890 N   0  0  0  0  0  2  0  0  0  0  0  0
  183.3390  178.7300  143.6840 C   0  0  0  0  0  2  0  0  0  0  0  0
  184.6640  178.2710  143.2830 C   0  0  1  0  0  3  0  0  0  0  0  0
  1  4  1  0  0  0  0
  1  5  2  0  0  0  0
  2 10  1  0  0  0  0
  3  2  2  0  0  0  0
  4 36  1  1  0  0  0
  4  3  1  0  0  0  0
  5  2  1  0  0  0  0
  6  8  1  0  0  0  0
  7  6  2  0  0  0  0
  9 10  2  0  0  0  0
  9  7  1  0  0  0  0
 10 11  1  0  0  0  0
 11 13  1  0  0  0  0
 11  8  2  0  0  0  0
 13 14  1  0  0  0  0
 13 12  1  0  0  0  0
 14 12  1  0  0  0  0
 16 15  1  1  0  0  0
 16  1  1  0  0  0  0
 17 16  1  0  0  0  0
 17 19  2  0  0  0  0
 18 17  1  0  0  0  0
 20 21  1  0  0  0  0
 21 18  1  0  0  0  0
 22 23  1  0  0  0  0
 22 25  2  0  0  0  0
 23 20  2  0  0  0  0
 24 21  2  0  0  0  0
 25 24  1  0  0  0  0
 26 25  1  0  0  0  0
 26 28  1  0  0  0  0
 28 29  1  1  0  0  0
 30 27  1  1  0  0  0
 30 31  1  0  0  0  0
 30 28  1  0  0  0  0
 31 28  1  0  0  0  0
 31 35  1  1  0  0  0
 34 35  2  0  0  0  0
 35 33  1  0  0  0  0
 35 32  1  0  0  0  0
 37 36  1  6  0  0  0
 38 37  1  0  0  0  0
 39 38  1  0  0  0  0
 40 42  1  0  0  0  0
 40 41  1  0  0  0  0
 41 38  1  0  0  0  0
 42 39  1  0  0  0  0
 44 43  1  0  0  0  0
 45 37  1  6  0  0  0
 45 44  1  0  0  0  0
 45 43  1  0  0  0  0
M  END
>  <MODEL>
9

>  <REMARK>
 VINA RESULT:      -7.5      3.902      7.585
  Name = 
  12 active torsions:
  status: ('A' for Active; 'I' for Inactive)
    1  A    between atoms: C_6  and  C_44
    2  A    between atoms: N_7  and  C_41
    3  A    between atoms: C_9  and  C_24
    4  A    between atoms: C_14  and  N_16
    5  A    between atoms: N_16  and  C_39
    6  A    between atoms: C_18  and  N_43
    7  A    between atoms: C_19  and  C_24
    8  A    between atoms: C_22  and  C_26
    9  A    between atoms: C_31  and  C_41
   10  A    between atoms: C_32  and  C_35
   11  A    between atoms: C_35  and  C_41
   12  A    between atoms: P_36  and  C_38
                            x       y       z     vdW  Elec       q    Type
                         _______ _______ _______ _____ _____    ______ ____

>  <TORSDO>
F 12

$$$$
