=
 OpenBabel10222421113D

 34 38  0  0  1  0  0  0  0  0999 V2000
  189.3340  177.8110  141.2730 C   0  0  1  0  0  3  0  0  0  0  0  0
  187.9190  178.2490  141.4810 C   0  0  0  0  0  0  0  0  0  0  0  0
  185.8490  178.7420  141.2310 C   0  0  0  0  0  0  0  0  0  0  0  0
  190.7440  176.9660  142.9290 C   0  0  0  0  0  2  0  0  0  0  0  0
  187.4230  176.7560  143.2820 C   0  0  0  0  0  2  0  0  0  0  0  0
  188.8710  176.2150  143.1930 C   0  0  2  0  0  3  0  0  0  0  0  0
  189.9200  176.6990  144.1850 C   0  0  2  0  0  3  0  0  0  0  0  0
  185.9130  178.5140  142.5030 N   0  0  0  0  0  0  0  0  0  0  0  0
  187.2970  178.1900  142.8100 C   0  0  2  0  0  3  0  0  0  0  0  0
  189.6790  176.5730  142.0060 N   0  0  1  0  0  0  0  0  0  0  0  0
  187.0850  178.5720  140.5500 N   0  0  0  0  0  0  0  0  0  0  0  0
  189.6950  177.6740  139.8240 C   0  0  0  0  0  0  0  0  0  0  0  0
  189.2360  178.1960  137.5030 C   0  0  0  0  0  3  0  0  0  0  0  0
  191.0860  176.7260  138.0650 C   0  0  0  0  0  0  0  0  0  0  0  0
  190.3100  177.3950  137.1080 C   0  0  0  0  0  3  0  0  0  0  0  0
  188.9260  178.3340  138.8590 C   0  0  0  0  0  3  0  0  0  0  0  0
  190.7720  176.8710  139.4240 C   0  0  0  0  0  3  0  0  0  0  0  0
  193.5810  174.1020  137.2760 C   0  0  0  0  0  0  0  0  0  0  0  0
  192.1860  175.8990  137.6550 N   0  0  0  0  0  0  0  0  0  0  0  0
  191.2590  173.9610  136.4790 C   0  0  0  0  0  1  0  0  0  0  0  0
  192.1630  174.4310  137.6060 C   0  0  1  0  0  3  0  0  0  0  0  0
  193.4540  176.4240  137.3640 N   0  0  0  0  0  2  0  0  0  0  0  0
  194.0460  172.9440  137.1060 O   0  0  0  0  0  0  0  0  0  0  0  0
  194.3340  175.3340  137.1740 C   0  0  0  0  0  0  0  0  0  0  0  0
  195.4700  175.4470  136.5700 N   0  0  0  0  0  2  0  0  0  0  0  0
  184.6300  179.9070  139.4190 O   0  0  0  0  0  0  0  0  0  0  0  0
  184.6020  179.0980  140.5490 C   0  0  0  0  0  0  0  0  0  0  0  0
  183.5000  178.6740  140.9840 O   0  0  0  0  0  1  0  0  0  0  0  0
  189.5470  177.9580  144.8320 N   0  0  0  0  0  0  0  0  0  0  0  0
  190.4670  178.8870  144.4700 O   0  0  0  0  0  1  0  0  0  0  0  0
  189.7080  177.7640  146.2660 C   0  0  0  0  0  2  0  0  0  0  0  0
  188.2940  176.7240  147.8780 O   0  0  0  0  0  1  0  0  0  0  0  0
  188.3840  177.5100  146.9000 C   0  0  0  0  0  0  0  0  0  0  0  0
  187.2540  178.1660  146.4340 O   0  0  0  0  0  0  0  0  0  0  0  0
  1 12  1  6  0  0  0
  1  2  1  0  0  0  0
  1 10  1  0  0  0  0
  2  9  1  0  0  0  0
  3  8  2  0  0  0  0
  4  7  1  0  0  0  0
  6  5  1  6  0  0  0
  6  7  1  0  0  0  0
  7 29  1  6  0  0  0
  8  9  1  0  0  0  0
  9  5  1  6  0  0  0
 10  4  1  1  0  0  0
 10  6  1  0  0  0  0
 11  3  1  0  0  0  0
 11  2  2  0  0  0  0
 13 16  1  0  0  0  0
 14 17  2  0  0  0  0
 15 13  2  0  0  0  0
 15 14  1  0  0  0  0
 16 12  2  0  0  0  0
 17 12  1  0  0  0  0
 18 21  1  0  0  0  0
 19 14  1  0  0  0  0
 21 20  1  6  0  0  0
 21 19  1  0  0  0  0
 22 19  1  0  0  0  0
 23 18  2  0  0  0  0
 24 18  1  0  0  0  0
 24 22  1  0  0  0  0
 25 24  2  0  0  0  0
 26 27  2  0  0  0  0
 27 28  1  0  0  0  0
 27  3  1  0  0  0  0
 29 31  1  0  0  0  0
 30 29  1  0  0  0  0
 31 33  1  0  0  0  0
 33 32  1  0  0  0  0
 34 33  2  0  0  0  0
M  END
>  <MODEL>
1

>  <REMARK>
 VINA RESULT:      -9.1      0.000      0.000
  Name = 
  6 active torsions:
  status: ('A' for Active; 'I' for Inactive)
    1  A    between atoms: N_3  and  C_5
    2  A    between atoms: N_3  and  C_24
    3  A    between atoms: C_5  and  C_27
    4  A    between atoms: C_6  and  C_7
    5  A    between atoms: N_8  and  C_17
    6  A    between atoms: C_12  and  C_14
                            x       y       z     vdW  Elec       q    Type
                         _______ _______ _______ _____ _____    ______ ____

>  <TORSDO>
F 6

$$$$
=
 OpenBabel10222421113D

 34 38  0  0  1  0  0  0  0  0999 V2000
  189.2650  177.7550  140.9340 C   0  0  1  0  0  3  0  0  0  0  0  0
  188.0110  178.0280  141.7040 C   0  0  0  0  0  0  0  0  0  0  0  0
  185.9740  178.3140  142.3040 C   0  0  0  0  0  0  0  0  0  0  0  0
  191.2630  176.9670  141.8460 C   0  0  0  0  0  2  0  0  0  0  0  0
  188.3610  176.3880  143.4080 C   0  0  0  0  0  2  0  0  0  0  0  0
  189.6990  176.0090  142.7260 C   0  0  2  0  0  3  0  0  0  0  0  0
  191.0100  176.5420  143.2890 C   0  0  2  0  0  3  0  0  0  0  0  0
  186.5400  178.0190  143.4290 N   0  0  0  0  0  0  0  0  0  0  0  0
  187.9560  177.8260  143.1580 C   0  0  2  0  0  3  0  0  0  0  0  0
  189.9570  176.5200  141.3620 N   0  0  1  0  0  0  0  0  0  0  0  0
  186.8600  178.3160  141.1930 N   0  0  0  0  0  0  0  0  0  0  0  0
  189.0470  177.7430  139.4510 C   0  0  0  0  0  0  0  0  0  0  0  0
  188.9860  178.9350  137.3430 C   0  0  0  0  0  3  0  0  0  0  0  0
  188.4260  176.5720  137.4090 C   0  0  0  0  0  0  0  0  0  0  0  0
  188.5950  177.7630  136.6900 C   0  0  0  0  0  3  0  0  0  0  0  0
  189.2090  178.9260  138.7230 C   0  0  0  0  0  3  0  0  0  0  0  0
  188.6550  176.5700  138.7920 C   0  0  0  0  0  3  0  0  0  0  0  0
  187.9490  173.5280  135.3500 C   0  0  0  0  0  0  0  0  0  0  0  0
  188.0200  175.3710  136.7340 N   0  0  0  0  0  0  0  0  0  0  0  0
  189.8940  173.7960  136.8310 C   0  0  0  0  0  1  0  0  0  0  0  0
  188.9040  174.5170  135.9300 C   0  0  1  0  0  3  0  0  0  0  0  0
  186.6820  174.9520  136.6860 N   0  0  0  0  0  2  0  0  0  0  0  0
  188.2550  172.5670  134.5950 O   0  0  0  0  0  0  0  0  0  0  0  0
  186.6120  173.8490  135.8040 C   0  0  0  0  0  0  0  0  0  0  0  0
  185.6190  173.0230  135.7900 N   0  0  0  0  0  2  0  0  0  0  0  0
  184.0040  178.9870  140.9660 O   0  0  0  0  0  0  0  0  0  0  0  0
  184.5380  178.5770  142.1820 C   0  0  0  0  0  0  0  0  0  0  0  0
  183.7820  178.4320  143.1770 O   0  0  0  0  0  1  0  0  0  0  0  0
  190.8220  177.7130  144.1450 N   0  0  0  0  0  0  0  0  0  0  0  0
  191.5250  178.7340  143.5930 O   0  0  0  0  0  1  0  0  0  0  0  0
  191.4650  177.4190  145.4170 C   0  0  0  0  0  2  0  0  0  0  0  0
  190.6720  176.2550  147.3400 O   0  0  0  0  0  1  0  0  0  0  0  0
  190.4370  177.1140  146.4520 C   0  0  0  0  0  0  0  0  0  0  0  0
  189.2320  177.8020  146.4570 O   0  0  0  0  0  0  0  0  0  0  0  0
  1 12  1  6  0  0  0
  1 10  1  0  0  0  0
  1  2  1  0  0  0  0
  2  9  1  0  0  0  0
  3  8  2  0  0  0  0
  4  7  1  0  0  0  0
  6  7  1  0  0  0  0
  6  5  1  1  0  0  0
  7 29  1  1  0  0  0
  9  5  1  6  0  0  0
  9  8  1  0  0  0  0
 10  4  1  1  0  0  0
 10  6  1  0  0  0  0
 11  2  2  0  0  0  0
 11  3  1  0  0  0  0
 13 16  1  0  0  0  0
 14 17  2  0  0  0  0
 15 13  2  0  0  0  0
 15 14  1  0  0  0  0
 16 12  2  0  0  0  0
 17 12  1  0  0  0  0
 18 24  1  0  0  0  0
 18 21  1  0  0  0  0
 19 14  1  0  0  0  0
 21 19  1  0  0  0  0
 21 20  1  1  0  0  0
 22 19  1  0  0  0  0
 23 18  2  0  0  0  0
 24 22  1  0  0  0  0
 25 24  2  0  0  0  0
 26 27  2  0  0  0  0
 27  3  1  0  0  0  0
 27 28  1  0  0  0  0
 29 31  1  0  0  0  0
 30 29  1  0  0  0  0
 31 33  1  0  0  0  0
 33 34  2  0  0  0  0
 33 32  1  0  0  0  0
M  END
>  <MODEL>
2

>  <REMARK>
 VINA RESULT:      -8.7      2.622      3.375
  Name = 
  6 active torsions:
  status: ('A' for Active; 'I' for Inactive)
    1  A    between atoms: N_3  and  C_5
    2  A    between atoms: N_3  and  C_24
    3  A    between atoms: C_5  and  C_27
    4  A    between atoms: C_6  and  C_7
    5  A    between atoms: N_8  and  C_17
    6  A    between atoms: C_12  and  C_14
                            x       y       z     vdW  Elec       q    Type
                         _______ _______ _______ _____ _____    ______ ____

>  <TORSDO>
F 6

$$$$
=
 OpenBabel10222421113D

 34 38  0  0  1  0  0  0  0  0999 V2000
  188.7960  178.0050  141.2030 C   0  0  1  0  0  3  0  0  0  0  0  0
  187.6320  178.1830  142.1270 C   0  0  0  0  0  0  0  0  0  0  0  0
  185.6710  178.3880  142.9660 C   0  0  0  0  0  0  0  0  0  0  0  0
  190.8730  177.1290  141.8040 C   0  0  0  0  0  2  0  0  0  0  0  0
  188.1480  176.3600  143.5860 C   0  0  0  0  0  2  0  0  0  0  0  0
  189.4040  176.0680  142.7290 C   0  0  2  0  0  3  0  0  0  0  0  0
  190.7710  176.5410  143.2080 C   0  0  2  0  0  3  0  0  0  0  0  0
  186.3500  177.9690  143.9840 N   0  0  0  0  0  0  0  0  0  0  0  0
  187.7280  177.8150  143.5450 C   0  0  2  0  0  3  0  0  0  0  0  0
  189.5210  176.7330  141.4120 N   0  0  1  0  0  0  0  0  0  0  0  0
  186.4360  178.5210  141.7750 N   0  0  0  0  0  0  0  0  0  0  0  0
  188.4240  178.1610  139.7600 C   0  0  0  0  0  0  0  0  0  0  0  0
  189.0440  178.7860  137.5030 C   0  0  0  0  0  3  0  0  0  0  0  0
  186.7720  178.0650  137.9740 C   0  0  0  0  0  0  0  0  0  0  0  0
  187.7430  178.5140  137.0680 C   0  0  0  0  0  3  0  0  0  0  0  0
  189.3830  178.6120  138.8470 C   0  0  0  0  0  3  0  0  0  0  0  0
  187.1210  177.8900  139.3210 C   0  0  0  0  0  3  0  0  0  0  0  0
  183.1780  177.3280  137.4540 C   0  0  0  0  0  0  0  0  0  0  0  0
  185.4360  177.7930  137.5250 N   0  0  0  0  0  0  0  0  0  0  0  0
  183.9240  179.2810  138.7500 C   0  0  0  0  0  1  0  0  0  0  0  0
  184.2360  177.8420  138.3720 C   0  0  1  0  0  3  0  0  0  0  0  0
  185.1560  177.3320  136.2290 N   0  0  0  0  0  2  0  0  0  0  0  0
  181.9560  177.2080  137.7370 O   0  0  0  0  0  0  0  0  0  0  0  0
  183.7830  176.9990  136.1820 C   0  0  0  0  0  0  0  0  0  0  0  0
  183.1310  176.8700  135.0750 N   0  0  0  0  0  2  0  0  0  0  0  0
  183.6860  179.2950  144.1310 O   0  0  0  0  0  1  0  0  0  0  0  0
  184.2320  178.6550  143.0260 C   0  0  0  0  0  0  0  0  0  0  0  0
  183.4840  178.3040  142.0770 O   0  0  0  0  0  0  0  0  0  0  0  0
  190.6810  177.6060  144.2070 N   0  0  0  0  0  0  0  0  0  0  0  0
  191.2440  178.7160  143.6660 O   0  0  0  0  0  1  0  0  0  0  0  0
  191.5360  177.2190  145.3200 C   0  0  0  0  0  2  0  0  0  0  0  0
  191.1640  176.1000  147.3910 O   0  0  0  0  0  1  0  0  0  0  0  0
  190.7060  176.8670  146.5050 C   0  0  0  0  0  0  0  0  0  0  0  0
  189.4370  177.4110  146.6500 O   0  0  0  0  0  0  0  0  0  0  0  0
  1 12  1  6  0  0  0
  1 10  1  0  0  0  0
  1  2  1  0  0  0  0
  2  9  1  0  0  0  0
  3 27  1  0  0  0  0
  3  8  2  0  0  0  0
  4  7  1  0  0  0  0
  6  7  1  0  0  0  0
  6  5  1  1  0  0  0
  7 29  1  1  0  0  0
  9  5  1  6  0  0  0
  9  8  1  0  0  0  0
 10  4  1  1  0  0  0
 10  6  1  0  0  0  0
 11  2  2  0  0  0  0
 11  3  1  0  0  0  0
 13 16  1  0  0  0  0
 14 17  2  0  0  0  0
 15 13  2  0  0  0  0
 15 14  1  0  0  0  0
 16 12  2  0  0  0  0
 17 12  1  0  0  0  0
 18 23  2  0  0  0  0
 18 21  1  0  0  0  0
 19 14  1  0  0  0  0
 19 21  1  0  0  0  0
 21 20  1  6  0  0  0
 22 19  1  0  0  0  0
 24 22  1  0  0  0  0
 24 18  1  0  0  0  0
 25 24  2  0  0  0  0
 27 26  1  0  0  0  0
 28 27  2  0  0  0  0
 29 31  1  0  0  0  0
 30 29  1  0  0  0  0
 31 33  1  0  0  0  0
 33 34  2  0  0  0  0
 33 32  1  0  0  0  0
M  END
>  <MODEL>
3

>  <REMARK>
 VINA RESULT:      -8.7      3.400      5.302
  Name = 
  6 active torsions:
  status: ('A' for Active; 'I' for Inactive)
    1  A    between atoms: N_3  and  C_5
    2  A    between atoms: N_3  and  C_24
    3  A    between atoms: C_5  and  C_27
    4  A    between atoms: C_6  and  C_7
    5  A    between atoms: N_8  and  C_17
    6  A    between atoms: C_12  and  C_14
                            x       y       z     vdW  Elec       q    Type
                         _______ _______ _______ _____ _____    ______ ____

>  <TORSDO>
F 6

$$$$
=
 OpenBabel10222421113D

 34 38  0  0  1  0  0  0  0  0999 V2000
  189.1740  177.8410  140.9100 C   0  0  1  0  0  3  0  0  0  0  0  0
  187.9260  178.0490  141.7070 C   0  0  0  0  0  0  0  0  0  0  0  0
  185.8910  178.2470  142.3490 C   0  0  0  0  0  0  0  0  0  0  0  0
  191.2150  177.1010  141.7660 C   0  0  0  0  0  2  0  0  0  0  0  0
  188.3640  176.3780  143.3600 C   0  0  0  0  0  2  0  0  0  0  0  0
  189.7010  176.0650  142.6460 C   0  0  2  0  0  3  0  0  0  0  0  0
  191.0030  176.6290  143.2010 C   0  0  2  0  0  3  0  0  0  0  0  0
  186.4870  177.9430  143.4560 N   0  0  0  0  0  0  0  0  0  0  0  0
  187.9040  177.8070  143.1560 C   0  0  2  0  0  3  0  0  0  0  0  0
  189.9170  176.6200  141.2920 N   0  0  1  0  0  0  0  0  0  0  0  0
  186.7570  178.3100  141.2240 N   0  0  0  0  0  0  0  0  0  0  0  0
  188.9310  177.8600  139.4310 C   0  0  0  0  0  0  0  0  0  0  0  0
  188.9760  179.0590  137.3260 C   0  0  0  0  0  3  0  0  0  0  0  0
  188.1390  176.7790  137.3980 C   0  0  0  0  0  0  0  0  0  0  0  0
  188.4360  177.9440  136.6780 C   0  0  0  0  0  3  0  0  0  0  0  0
  189.2200  179.0180  138.7020 C   0  0  0  0  0  3  0  0  0  0  0  0
  188.3900  176.7440  138.7770 C   0  0  0  0  0  3  0  0  0  0  0  0
  186.2100  173.8900  136.1090 C   0  0  0  0  0  0  0  0  0  0  0  0
  187.5800  175.6380  136.7290 N   0  0  0  0  0  0  0  0  0  0  0  0
  185.2340  176.1440  136.2350 C   0  0  0  0  0  1  0  0  0  0  0  0
  186.1980  175.1650  136.8850 C   0  0  1  0  0  3  0  0  0  0  0  0
  188.3520  174.7810  135.9310 N   0  0  0  0  0  2  0  0  0  0  0  0
  185.2220  173.1260  135.9360 O   0  0  0  0  0  0  0  0  0  0  0  0
  187.5400  173.6780  135.5800 C   0  0  0  0  0  0  0  0  0  0  0  0
  187.8160  172.8890  134.5950 N   0  0  0  0  0  2  0  0  0  0  0  0
  183.8110  178.4340  141.0220 O   0  0  0  0  0  0  0  0  0  0  0  0
  184.4450  178.4610  142.2580 C   0  0  0  0  0  0  0  0  0  0  0  0
  183.7700  178.6720  143.2990 O   0  0  0  0  0  1  0  0  0  0  0  0
  190.7890  177.7700  144.0910 N   0  0  0  0  0  0  0  0  0  0  0  0
  191.4710  178.8220  143.5710 O   0  0  0  0  0  1  0  0  0  0  0  0
  191.4370  177.4520  145.3550 C   0  0  0  0  0  2  0  0  0  0  0  0
  190.6530  176.3400  147.3130 O   0  0  0  0  0  1  0  0  0  0  0  0
  190.4120  177.1710  146.4000 C   0  0  0  0  0  0  0  0  0  0  0  0
  189.2030  177.8530  146.3860 O   0  0  0  0  0  0  0  0  0  0  0  0
  1 12  1  6  0  0  0
  1 10  1  0  0  0  0
  1  2  1  0  0  0  0
  2  9  1  0  0  0  0
  3  8  2  0  0  0  0
  4  7  1  0  0  0  0
  6  7  1  0  0  0  0
  6  5  1  1  0  0  0
  7 29  1  1  0  0  0
  9  5  1  6  0  0  0
  9  8  1  0  0  0  0
 10  4  1  1  0  0  0
 10  6  1  0  0  0  0
 11  2  2  0  0  0  0
 11  3  1  0  0  0  0
 13 16  1  0  0  0  0
 14 17  2  0  0  0  0
 15 13  2  0  0  0  0
 15 14  1  0  0  0  0
 16 12  2  0  0  0  0
 17 12  1  0  0  0  0
 18 21  1  0  0  0  0
 19 21  1  0  0  0  0
 19 14  1  0  0  0  0
 21 20  1  6  0  0  0
 22 19  1  0  0  0  0
 23 18  2  0  0  0  0
 24 22  1  0  0  0  0
 24 18  1  0  0  0  0
 25 24  2  0  0  0  0
 26 27  2  0  0  0  0
 27  3  1  0  0  0  0
 27 28  1  0  0  0  0
 29 31  1  0  0  0  0
 30 29  1  0  0  0  0
 31 33  1  0  0  0  0
 33 32  1  0  0  0  0
 34 33  2  0  0  0  0
M  END
>  <MODEL>
4

>  <REMARK>
 VINA RESULT:      -8.7      3.142      3.658
  Name = 
  6 active torsions:
  status: ('A' for Active; 'I' for Inactive)
    1  A    between atoms: N_3  and  C_5
    2  A    between atoms: N_3  and  C_24
    3  A    between atoms: C_5  and  C_27
    4  A    between atoms: C_6  and  C_7
    5  A    between atoms: N_8  and  C_17
    6  A    between atoms: C_12  and  C_14
                            x       y       z     vdW  Elec       q    Type
                         _______ _______ _______ _____ _____    ______ ____

>  <TORSDO>
F 6

$$$$
=
 OpenBabel10222421113D

 34 38  0  0  1  0  0  0  0  0999 V2000
  184.0840  178.7260  141.2060 C   0  0  1  0  0  3  0  0  0  0  0  0
  185.1030  178.7060  140.1110 C   0  0  0  0  0  0  0  0  0  0  0  0
  186.8920  178.4710  138.9550 C   0  0  0  0  0  0  0  0  0  0  0  0
  181.7750  178.5880  140.9030 C   0  0  0  0  0  2  0  0  0  0  0  0
  183.8490  177.3620  138.5820 C   0  0  0  0  0  2  0  0  0  0  0  0
  182.6990  177.3110  139.6170 C   0  0  2  0  0  3  0  0  0  0  0  0
  181.4910  178.2240  139.4480 C   0  0  2  0  0  3  0  0  0  0  0  0
  185.9800  178.4310  138.0380 N   0  0  0  0  0  0  0  0  0  0  0  0
  184.6980  178.6100  138.7020 C   0  0  2  0  0  3  0  0  0  0  0  0
  182.9800  177.7650  140.9970 N   0  0  1  0  0  0  0  0  0  0  0  0
  186.3820  178.6280  140.2720 N   0  0  0  0  0  0  0  0  0  0  0  0
  184.6860  178.5390  142.5660 C   0  0  0  0  0  0  0  0  0  0  0  0
  184.5020  178.7400  144.9730 C   0  0  0  0  0  3  0  0  0  0  0  0
  186.5600  177.9050  143.9860 C   0  0  0  0  0  0  0  0  0  0  0  0
  185.8050  178.2530  145.1150 C   0  0  0  0  0  3  0  0  0  0  0  0
  183.9450  178.8860  143.6990 C   0  0  0  0  0  3  0  0  0  0  0  0
  185.9920  178.0510  142.7120 C   0  0  0  0  0  3  0  0  0  0  0  0
  190.1080  177.1580  144.7480 C   0  0  0  0  0  0  0  0  0  0  0  0
  187.8990  177.4100  144.1360 N   0  0  0  0  0  0  0  0  0  0  0  0
  188.4310  177.4240  146.5280 C   0  0  0  0  0  1  0  0  0  0  0  0
  188.8620  177.8780  145.1420 C   0  0  1  0  0  3  0  0  0  0  0  0
  188.4650  176.4890  143.2410 N   0  0  0  0  0  2  0  0  0  0  0  0
  191.2160  177.2280  145.3430 O   0  0  0  0  0  0  0  0  0  0  0  0
  189.8330  176.3570  143.5740 C   0  0  0  0  0  0  0  0  0  0  0  0
  190.5560  175.3610  143.1840 N   0  0  0  0  0  2  0  0  0  0  0  0
  189.0280  179.3660  138.0850 O   0  0  0  0  0  0  0  0  0  0  0  0
  188.3200  178.3200  138.6630 C   0  0  0  0  0  0  0  0  0  0  0  0
  188.9100  177.2430  138.9340 O   0  0  0  0  0  1  0  0  0  0  0  0
  181.7630  179.3630  138.5710 N   0  0  0  0  0  0  0  0  0  0  0  0
  181.6840  180.4850  139.3290 O   0  0  0  0  0  1  0  0  0  0  0  0
  180.6640  179.4390  137.6190 C   0  0  0  0  0  2  0  0  0  0  0  0
  181.8850  178.3030  135.9150 O   0  0  0  0  0  1  0  0  0  0  0  0
  181.1800  179.2970  136.2290 C   0  0  0  0  0  0  0  0  0  0  0  0
  180.8550  180.2450  135.2680 O   0  0  0  0  0  0  0  0  0  0  0  0
  1 12  1  1  0  0  0
  2 11  2  0  0  0  0
  2  1  1  0  0  0  0
  3 11  1  0  0  0  0
  6  5  1  6  0  0  0
  6 10  1  0  0  0  0
  7 29  1  6  0  0  0
  7  6  1  0  0  0  0
  7  4  1  0  0  0  0
  8  9  1  0  0  0  0
  8  3  2  0  0  0  0
  9  5  1  1  0  0  0
  9  2  1  0  0  0  0
 10  4  1  6  0  0  0
 10  1  1  0  0  0  0
 12 17  2  0  0  0  0
 12 16  1  0  0  0  0
 13 15  1  0  0  0  0
 14 19  1  0  0  0  0
 14 15  2  0  0  0  0
 16 13  2  0  0  0  0
 17 14  1  0  0  0  0
 18 21  1  0  0  0  0
 18 23  2  0  0  0  0
 19 21  1  0  0  0  0
 21 20  1  1  0  0  0
 22 24  1  0  0  0  0
 22 19  1  0  0  0  0
 24 18  1  0  0  0  0
 25 24  2  0  0  0  0
 26 27  2  0  0  0  0
 27 28  1  0  0  0  0
 27  3  1  0  0  0  0
 29 30  1  0  0  0  0
 31 29  1  0  0  0  0
 32 33  1  0  0  0  0
 33 31  1  0  0  0  0
 34 33  2  0  0  0  0
M  END
>  <MODEL>
5

>  <REMARK>
 VINA RESULT:      -8.5      3.743      8.289
  Name = 
  6 active torsions:
  status: ('A' for Active; 'I' for Inactive)
    1  A    between atoms: N_3  and  C_5
    2  A    between atoms: N_3  and  C_24
    3  A    between atoms: C_5  and  C_27
    4  A    between atoms: C_6  and  C_7
    5  A    between atoms: N_8  and  C_17
    6  A    between atoms: C_12  and  C_14
                            x       y       z     vdW  Elec       q    Type
                         _______ _______ _______ _____ _____    ______ ____

>  <TORSDO>
F 6

$$$$
=
 OpenBabel10222421113D

 34 38  0  0  1  0  0  0  0  0999 V2000
  189.7870  177.0770  140.6830 C   0  0  1  0  0  3  0  0  0  0  0  0
  188.4230  177.5940  140.3510 C   0  0  0  0  0  0  0  0  0  0  0  0
  186.5460  178.6280  140.3560 C   0  0  0  0  0  0  0  0  0  0  0  0
  191.3390  176.2740  139.1370 C   0  0  0  0  0  2  0  0  0  0  0  0
  188.9530  178.4100  138.1670 C   0  0  0  0  0  2  0  0  0  0  0  0
  190.4040  177.9080  138.3650 C   0  0  2  0  0  3  0  0  0  0  0  0
  190.8410  176.5940  137.7300 C   0  0  2  0  0  3  0  0  0  0  0  0
  186.6930  178.3560  139.1000 N   0  0  0  0  0  0  0  0  0  0  0  0
  187.9390  177.6170  138.9650 C   0  0  2  0  0  3  0  0  0  0  0  0
  190.8280  177.5110  139.7260 N   0  0  1  0  0  0  0  0  0  0  0  0
  187.6180  178.1790  141.1740 N   0  0  0  0  0  0  0  0  0  0  0  0
  190.2060  177.3950  142.0870 C   0  0  0  0  0  0  0  0  0  0  0  0
  191.9670  177.8700  143.6800 C   0  0  0  0  0  3  0  0  0  0  0  0
  189.6620  177.7340  144.4360 C   0  0  0  0  0  0  0  0  0  0  0  0
  191.0230  177.9370  144.7080 C   0  0  0  0  0  3  0  0  0  0  0  0
  191.5600  177.5960  142.3710 C   0  0  0  0  0  3  0  0  0  0  0  0
  189.2610  177.4630  143.1200 C   0  0  0  0  0  3  0  0  0  0  0  0
  186.8060  178.2420  146.7400 C   0  0  0  0  0  0  0  0  0  0  0  0
  188.6960  177.7990  145.4950 N   0  0  0  0  0  0  0  0  0  0  0  0
  186.5300  177.1290  144.5640 C   0  0  0  0  0  1  0  0  0  0  0  0
  187.2920  178.1990  145.3300 C   0  0  1  0  0  3  0  0  0  0  0  0
  189.0370  177.5890  146.8400 N   0  0  0  0  0  2  0  0  0  0  0  0
  185.6320  178.5210  147.1050 O   0  0  0  0  0  0  0  0  0  0  0  0
  187.9020  177.9010  147.6220 C   0  0  0  0  0  0  0  0  0  0  0  0
  187.7600  177.5030  148.8420 N   0  0  0  0  0  2  0  0  0  0  0  0
  185.3130  179.6630  142.2350 O   0  0  0  0  0  1  0  0  0  0  0  0
  185.3980  179.3730  140.8780 C   0  0  0  0  0  0  0  0  0  0  0  0
  184.4840  179.7530  140.1020 O   0  0  0  0  0  0  0  0  0  0  0  0
  189.7100  175.7350  137.3770 N   0  0  0  0  0  0  0  0  0  0  0  0
  190.0240  174.4730  137.7670 O   0  0  0  0  0  1  0  0  0  0  0  0
  189.6360  175.7030  135.9240 C   0  0  0  0  0  2  0  0  0  0  0  0
  187.2620  175.4970  135.8750 O   0  0  0  0  0  1  0  0  0  0  0  0
  188.2790  176.1170  135.4710 C   0  0  0  0  0  0  0  0  0  0  0  0
  188.1320  177.2090  134.6270 O   0  0  0  0  0  0  0  0  0  0  0  0
  1 12  1  1  0  0  0
  2  1  1  0  0  0  0
  2 11  2  0  0  0  0
  3 27  1  0  0  0  0
  3 11  1  0  0  0  0
  6  5  1  1  0  0  0
  6 10  1  0  0  0  0
  7 29  1  1  0  0  0
  7  6  1  0  0  0  0
  7  4  1  0  0  0  0
  8  3  2  0  0  0  0
  9  5  1  6  0  0  0
  9  8  1  0  0  0  0
  9  2  1  0  0  0  0
 10  4  1  6  0  0  0
 10  1  1  0  0  0  0
 12 16  2  0  0  0  0
 12 17  1  0  0  0  0
 13 15  2  0  0  0  0
 14 15  1  0  0  0  0
 14 19  1  0  0  0  0
 16 13  1  0  0  0  0
 17 14  2  0  0  0  0
 18 23  2  0  0  0  0
 18 24  1  0  0  0  0
 19 22  1  0  0  0  0
 21 20  1  6  0  0  0
 21 19  1  0  0  0  0
 21 18  1  0  0  0  0
 22 24  1  0  0  0  0
 24 25  2  0  0  0  0
 27 26  1  0  0  0  0
 28 27  2  0  0  0  0
 29 30  1  0  0  0  0
 31 29  1  0  0  0  0
 33 32  1  0  0  0  0
 33 31  1  0  0  0  0
 34 33  2  0  0  0  0
M  END
>  <MODEL>
6

>  <REMARK>
 VINA RESULT:      -8.5      2.417      7.906
  Name = 
  6 active torsions:
  status: ('A' for Active; 'I' for Inactive)
    1  A    between atoms: N_3  and  C_5
    2  A    between atoms: N_3  and  C_24
    3  A    between atoms: C_5  and  C_27
    4  A    between atoms: C_6  and  C_7
    5  A    between atoms: N_8  and  C_17
    6  A    between atoms: C_12  and  C_14
                            x       y       z     vdW  Elec       q    Type
                         _______ _______ _______ _____ _____    ______ ____

>  <TORSDO>
F 6

$$$$
=
 OpenBabel10222421113D

 34 38  0  0  1  0  0  0  0  0999 V2000
  188.3990  177.9990  141.4920 C   0  0  1  0  0  3  0  0  0  0  0  0
  187.3870  178.2160  142.5730 C   0  0  0  0  0  0  0  0  0  0  0  0
  185.5760  178.4860  143.6850 C   0  0  0  0  0  0  0  0  0  0  0  0
  190.5110  177.0540  141.7910 C   0  0  0  0  0  2  0  0  0  0  0  0
  188.0470  176.3770  143.9510 C   0  0  0  0  0  2  0  0  0  0  0  0
  189.1560  176.0430  142.9240 C   0  0  2  0  0  3  0  0  0  0  0  0
  190.5930  176.4690  143.1980 C   0  0  2  0  0  3  0  0  0  0  0  0
  186.3800  178.0460  144.5970 N   0  0  0  0  0  0  0  0  0  0  0  0
  187.6750  177.8450  143.9640 C   0  0  2  0  0  3  0  0  0  0  0  0
  189.1040  176.7030  141.6000 N   0  0  1  0  0  0  0  0  0  0  0  0
  186.1650  178.5940  142.3960 N   0  0  0  0  0  0  0  0  0  0  0  0
  187.8280  178.1680  140.1160 C   0  0  0  0  0  0  0  0  0  0  0  0
  188.1740  178.4360  137.7340 C   0  0  0  0  0  3  0  0  0  0  0  0
  185.9170  178.4550  138.6340 C   0  0  0  0  0  0  0  0  0  0  0  0
  186.7930  178.5370  137.5430 C   0  0  0  0  0  3  0  0  0  0  0  0
  188.6910  178.2540  139.0200 C   0  0  0  0  0  3  0  0  0  0  0  0
  186.4440  178.2690  139.9210 C   0  0  0  0  0  3  0  0  0  0  0  0
  182.3670  178.3840  137.5760 C   0  0  0  0  0  0  0  0  0  0  0  0
  184.5000  178.5650  138.4350 N   0  0  0  0  0  0  0  0  0  0  0  0
  183.6410  176.3170  137.9730 C   0  0  0  0  0  1  0  0  0  0  0  0
  183.7180  177.7560  137.4890 C   0  0  1  0  0  3  0  0  0  0  0  0
  183.7270  179.5560  139.0570 N   0  0  0  0  0  2  0  0  0  0  0  0
  181.3410  178.0080  136.9490 O   0  0  0  0  0  0  0  0  0  0  0  0
  182.4250  179.4890  138.5090 C   0  0  0  0  0  0  0  0  0  0  0  0
  181.3950  180.0150  139.0820 N   0  0  0  0  0  2  0  0  0  0  0  0
  183.2230  178.6750  142.9410 O   0  0  0  0  0  0  0  0  0  0  0  0
  184.1700  178.8020  143.9500 C   0  0  0  0  0  0  0  0  0  0  0  0
  183.8140  179.1890  145.0930 O   0  0  0  0  0  1  0  0  0  0  0  0
  190.6840  177.5370  144.1940 N   0  0  0  0  0  0  0  0  0  0  0  0
  191.2200  178.6200  143.5780 O   0  0  0  0  0  1  0  0  0  0  0  0
  191.6590  177.1110  145.1880 C   0  0  0  0  0  2  0  0  0  0  0  0
  189.8720  177.3630  146.7440 O   0  0  0  0  0  0  0  0  0  0  0  0
  190.9810  176.8300  146.4840 C   0  0  0  0  0  0  0  0  0  0  0  0
  191.5580  175.9530  147.3920 O   0  0  0  0  0  1  0  0  0  0  0  0
  1 12  1  6  0  0  0
  1 10  1  0  0  0  0
  1  2  1  0  0  0  0
  2  9  1  0  0  0  0
  3 27  1  0  0  0  0
  3  8  2  0  0  0  0
  4  7  1  0  0  0  0
  6  7  1  0  0  0  0
  6  5  1  1  0  0  0
  7 29  1  1  0  0  0
  9  5  1  6  0  0  0
  9  8  1  0  0  0  0
 10  4  1  1  0  0  0
 10  6  1  0  0  0  0
 11  2  2  0  0  0  0
 11  3  1  0  0  0  0
 13 16  1  0  0  0  0
 14 17  2  0  0  0  0
 15 13  2  0  0  0  0
 15 14  1  0  0  0  0
 16 12  2  0  0  0  0
 17 12  1  0  0  0  0
 18 24  1  0  0  0  0
 19 14  1  0  0  0  0
 19 22  1  0  0  0  0
 21 18  1  0  0  0  0
 21 20  1  1  0  0  0
 21 19  1  0  0  0  0
 23 18  2  0  0  0  0
 24 22  1  0  0  0  0
 24 25  2  0  0  0  0
 26 27  2  0  0  0  0
 27 28  1  0  0  0  0
 29 31  1  0  0  0  0
 30 29  1  0  0  0  0
 31 33  1  0  0  0  0
 33 32  2  0  0  0  0
 33 34  1  0  0  0  0
M  END
>  <MODEL>
7

>  <REMARK>
 VINA RESULT:      -8.1      3.567      5.998
  Name = 
  6 active torsions:
  status: ('A' for Active; 'I' for Inactive)
    1  A    between atoms: N_3  and  C_5
    2  A    between atoms: N_3  and  C_24
    3  A    between atoms: C_5  and  C_27
    4  A    between atoms: C_6  and  C_7
    5  A    between atoms: N_8  and  C_17
    6  A    between atoms: C_12  and  C_14
                            x       y       z     vdW  Elec       q    Type
                         _______ _______ _______ _____ _____    ______ ____

>  <TORSDO>
F 6

$$$$
=
 OpenBabel10222421113D

 34 38  0  0  1  0  0  0  0  0999 V2000
  187.7400  177.3400  145.1220 C   0  0  1  0  0  3  0  0  0  0  0  0
  188.5150  177.1260  143.8600 C   0  0  0  0  0  0  0  0  0  0  0  0
  189.2060  177.1330  141.8330 C   0  0  0  0  0  0  0  0  0  0  0  0
  188.6360  177.3190  147.2760 C   0  0  0  0  0  2  0  0  0  0  0  0
  190.5920  178.0090  144.6510 C   0  0  0  0  0  2  0  0  0  0  0  0
  189.9240  178.2730  146.0220 C   0  0  2  0  0  3  0  0  0  0  0  0
  190.1590  177.3050  147.1750 C   0  0  2  0  0  3  0  0  0  0  0  0
  190.3030  176.9150  142.4830 N   0  0  0  0  0  0  0  0  0  0  0  0
  189.9590  176.8590  143.8950 C   0  0  2  0  0  3  0  0  0  0  0  0
  188.4490  178.1820  146.1100 N   0  0  1  0  0  0  0  0  0  0  0  0
  188.0620  177.2860  142.6620 N   0  0  0  0  0  0  0  0  0  0  0  0
  186.3620  177.8760  144.8760 C   0  0  0  0  0  0  0  0  0  0  0  0
  184.2280  178.6210  145.7480 C   0  0  0  0  0  3  0  0  0  0  0  0
  184.5940  178.5570  143.3470 C   0  0  0  0  0  0  0  0  0  0  0  0
  183.7650  178.8250  144.4450 C   0  0  0  0  0  3  0  0  0  0  0  0
  185.5240  178.1440  145.9630 C   0  0  0  0  0  3  0  0  0  0  0  0
  185.8940  178.0820  143.5710 C   0  0  0  0  0  3  0  0  0  0  0  0
  182.9360  178.5980  140.0330 C   0  0  0  0  0  0  0  0  0  0  0  0
  184.1120  178.7630  142.0100 N   0  0  0  0  0  0  0  0  0  0  0  0
  181.6690  178.9150  142.1170 C   0  0  0  0  0  1  0  0  0  0  0  0
  182.8570  178.2180  141.4740 C   0  0  1  0  0  3  0  0  0  0  0  0
  184.8680  179.4260  141.0320 N   0  0  0  0  0  2  0  0  0  0  0  0
  182.0580  178.3590  139.1610 O   0  0  0  0  0  0  0  0  0  0  0  0
  184.1840  179.2950  139.8020 C   0  0  0  0  0  0  0  0  0  0  0  0
  184.4170  180.0570  138.7850 N   0  0  0  0  0  2  0  0  0  0  0  0
  190.1020  176.6070  139.5860 O   0  0  0  0  0  0  0  0  0  0  0  0
  189.1590  177.2570  140.3730 C   0  0  0  0  0  0  0  0  0  0  0  0
  188.2650  177.9530  139.8260 O   0  0  0  0  0  1  0  0  0  0  0  0
  190.6320  175.9960  146.7240 N   0  0  0  0  0  0  0  0  0  0  0  0
  190.2600  175.0870  147.6610 O   0  0  0  0  0  1  0  0  0  0  0  0
  192.0860  176.0350  146.7520 C   0  0  0  0  0  2  0  0  0  0  0  0
  192.9380  174.9370  148.6880 O   0  0  0  0  0  0  0  0  0  0  0  0
  192.5730  176.0180  148.1600 C   0  0  0  0  0  0  0  0  0  0  0  0
  192.6560  177.2030  148.8790 O   0  0  0  0  0  1  0  0  0  0  0  0
  1 12  1  6  0  0  0
  1 10  1  0  0  0  0
  2  9  1  0  0  0  0
  2  1  1  0  0  0  0
  3  8  2  0  0  0  0
  3 11  1  0  0  0  0
  6  5  1  6  0  0  0
  6 10  1  0  0  0  0
  6  7  1  0  0  0  0
  7 29  1  6  0  0  0
  7  4  1  0  0  0  0
  8  9  1  0  0  0  0
  9  5  1  1  0  0  0
 10  4  1  1  0  0  0
 11  2  2  0  0  0  0
 12 16  1  0  0  0  0
 13 16  2  0  0  0  0
 14 17  1  0  0  0  0
 14 15  2  0  0  0  0
 15 13  1  0  0  0  0
 17 12  2  0  0  0  0
 18 21  1  0  0  0  0
 19 14  1  0  0  0  0
 21 19  1  0  0  0  0
 21 20  1  1  0  0  0
 22 19  1  0  0  0  0
 23 18  2  0  0  0  0
 24 18  1  0  0  0  0
 24 22  1  0  0  0  0
 25 24  2  0  0  0  0
 26 27  2  0  0  0  0
 27  3  1  0  0  0  0
 28 27  1  0  0  0  0
 29 31  1  0  0  0  0
 29 30  1  0  0  0  0
 31 33  1  0  0  0  0
 33 32  2  0  0  0  0
 33 34  1  0  0  0  0
M  END
>  <MODEL>
8

>  <REMARK>
 VINA RESULT:      -7.9      3.569      7.326
  Name = 
  6 active torsions:
  status: ('A' for Active; 'I' for Inactive)
    1  A    between atoms: N_3  and  C_5
    2  A    between atoms: N_3  and  C_24
    3  A    between atoms: C_5  and  C_27
    4  A    between atoms: C_6  and  C_7
    5  A    between atoms: N_8  and  C_17
    6  A    between atoms: C_12  and  C_14
                            x       y       z     vdW  Elec       q    Type
                         _______ _______ _______ _____ _____    ______ ____

>  <TORSDO>
F 6

$$$$
=
 OpenBabel10222421113D

 34 38  0  0  1  0  0  0  0  0999 V2000
  183.8860  178.3030  141.4220 C   0  0  1  0  0  3  0  0  0  0  0  0
  182.4200  178.5090  141.6400 C   0  0  0  0  0  0  0  0  0  0  0  0
  180.4990  178.9900  142.4570 C   0  0  0  0  0  0  0  0  0  0  0  0
  184.9540  178.3020  139.3480 C   0  0  0  0  0  2  0  0  0  0  0  0
  182.0440  179.9050  139.7360 C   0  0  0  0  0  2  0  0  0  0  0  0
  183.5430  179.7680  139.3760 C   0  0  2  0  0  3  0  0  0  0  0  0
  183.9710  178.7900  138.2880 C   0  0  2  0  0  3  0  0  0  0  0  0
  180.2670  179.0560  141.1870 N   0  0  0  0  0  0  0  0  0  0  0  0
  181.5090  178.7170  140.5080 C   0  0  2  0  0  3  0  0  0  0  0  0
  184.4560  179.1980  140.3910 N   0  0  1  0  0  0  0  0  0  0  0  0
  181.8430  178.6630  142.7850 N   0  0  0  0  0  0  0  0  0  0  0  0
  184.6830  178.3950  142.6880 C   0  0  0  0  0  0  0  0  0  0  0  0
  184.8850  179.1760  144.9720 C   0  0  0  0  0  3  0  0  0  0  0  0
  186.7210  177.9610  143.9470 C   0  0  0  0  0  0  0  0  0  0  0  0
  186.1680  178.6290  145.0480 C   0  0  0  0  0  3  0  0  0  0  0  0
  184.1440  179.0620  143.7930 C   0  0  0  0  0  3  0  0  0  0  0  0
  185.9700  177.8470  142.7680 C   0  0  0  0  0  3  0  0  0  0  0  0
  190.2580  177.0340  144.5490 C   0  0  0  0  0  0  0  0  0  0  0  0
  188.0420  177.4040  144.0270 N   0  0  0  0  0  0  0  0  0  0  0  0
  188.6540  177.2870  146.3970 C   0  0  0  0  0  1  0  0  0  0  0  0
  189.0580  177.7860  145.0190 C   0  0  1  0  0  3  0  0  0  0  0  0
  188.5390  176.5030  143.0730 N   0  0  0  0  0  2  0  0  0  0  0  0
  191.3870  177.0300  145.1070 O   0  0  0  0  0  0  0  0  0  0  0  0
  189.9100  176.3000  143.3510 C   0  0  0  0  0  0  0  0  0  0  0  0
  190.5760  175.2930  142.8920 N   0  0  0  0  0  2  0  0  0  0  0  0
  179.1020  178.2910  144.3770 O   0  0  0  0  0  1  0  0  0  0  0  0
  179.4760  179.2730  143.4670 C   0  0  0  0  0  0  0  0  0  0  0  0
  178.9320  180.4060  143.5150 O   0  0  0  0  0  0  0  0  0  0  0  0
  182.9590  177.7690  138.0180 N   0  0  0  0  0  0  0  0  0  0  0  0
  183.5370  176.5600  138.2290 O   0  0  0  0  0  1  0  0  0  0  0  0
  182.6590  177.8320  136.5940 C   0  0  0  0  0  2  0  0  0  0  0  0
  181.1090  179.3160  135.5570 O   0  0  0  0  0  0  0  0  0  0  0  0
  181.2920  178.3840  136.3820 C   0  0  0  0  0  0  0  0  0  0  0  0
  180.2130  177.8470  137.0700 O   0  0  0  0  0  1  0  0  0  0  0  0
  1  2  1  0  0  0  0
  1 12  1  1  0  0  0
  2 11  2  0  0  0  0
  3 11  1  0  0  0  0
  3 27  1  0  0  0  0
  6  5  1  1  0  0  0
  6 10  1  0  0  0  0
  7 29  1  1  0  0  0
  7  4  1  0  0  0  0
  7  6  1  0  0  0  0
  8  3  2  0  0  0  0
  9  5  1  6  0  0  0
  9  8  1  0  0  0  0
  9  2  1  0  0  0  0
 10  4  1  6  0  0  0
 10  1  1  0  0  0  0
 12 17  2  0  0  0  0
 12 16  1  0  0  0  0
 13 15  1  0  0  0  0
 14 19  1  0  0  0  0
 14 15  2  0  0  0  0
 16 13  2  0  0  0  0
 17 14  1  0  0  0  0
 18 21  1  0  0  0  0
 18 23  2  0  0  0  0
 19 21  1  0  0  0  0
 21 20  1  1  0  0  0
 22 24  1  0  0  0  0
 22 19  1  0  0  0  0
 24 18  1  0  0  0  0
 25 24  2  0  0  0  0
 27 28  2  0  0  0  0
 27 26  1  0  0  0  0
 29 30  1  0  0  0  0
 31 29  1  0  0  0  0
 32 33  2  0  0  0  0
 33 31  1  0  0  0  0
 33 34  1  0  0  0  0
M  END
>  <MODEL>
9

>  <REMARK>
 VINA RESULT:      -7.7      4.469      8.298
  Name = 
  6 active torsions:
  status: ('A' for Active; 'I' for Inactive)
    1  A    between atoms: N_3  and  C_5
    2  A    between atoms: N_3  and  C_24
    3  A    between atoms: C_5  and  C_27
    4  A    between atoms: C_6  and  C_7
    5  A    between atoms: N_8  and  C_17
    6  A    between atoms: C_12  and  C_14
                            x       y       z     vdW  Elec       q    Type
                         _______ _______ _______ _____ _____    ______ ____

>  <TORSDO>
F 6

$$$$
