=
 OpenBabel10222418273D

 28 30  0  0  1  0  0  0  0  0999 V2000
  188.8660  176.7710  144.0630 C   0  0  0  0  0  0  0  0  0  0  0  0
  189.5880  177.0190  145.1620 C   0  0  0  0  0  3  0  0  0  0  0  0
  191.0520  176.9420  145.1410 C   0  0  0  0  0  0  0  0  0  0  0  0
  191.7340  176.5240  143.9150 C   0  0  0  0  0  3  0  0  0  0  0  0
  191.7150  177.2130  146.1750 O   0  0  0  0  0  0  0  0  0  0  0  0
  189.5320  176.4690  142.7350 C   0  0  2  0  0  3  0  0  0  0  0  0
  191.0320  176.2890  142.8070 C   0  0  0  0  0  3  0  0  0  0  0  0
  190.3950  176.1710  138.5600 C   0  0  0  0  0  0  0  0  0  0  0  0
  189.5010  177.4140  140.3840 C   0  0  0  0  0  0  0  0  0  0  0  0
  189.4500  178.3610  138.1690 C   0  0  0  0  0  0  0  0  0  0  0  0
  190.0710  177.2130  137.6770 C   0  0  0  0  0  2  0  0  0  0  0  0
  189.1290  179.3720  137.3290 F   0  0  0  0  0  0  0  0  0  0  0  0
  190.1000  176.2980  139.8820 N   0  0  0  0  0  0  0  0  0  0  0  0
  189.1620  178.4650  139.5300 C   0  0  0  0  0  3  0  0  0  0  0  0
  189.2050  177.5170  141.7780 N   0  0  0  0  0  0  0  0  0  0  0  0
  191.0220  175.0030  138.1140 O   0  0  0  0  0  0  0  0  0  0  0  0
  189.7360  173.2670  137.3330 O   0  0  0  0  0  0  0  0  0  0  0  0
  190.5140  174.2220  137.0770 C   0  0  0  0  0  3  0  0  0  0  0  0
  187.4330  176.8470  144.0850 N   0  0  0  0  0  2  0  0  0  0  0  0
  185.4430  178.2780  144.5530 C   0  0  0  0  0  0  0  0  0  0  0  0
  186.6020  177.6340  144.9520 C   0  0  0  0  0  0  0  0  0  0  0  0
  186.7840  177.8610  146.6070 S   0  0  0  0  0  0  0  0  0  0  0  0
  185.3980  178.7930  146.8370 C   0  0  0  0  0  3  0  0  0  0  0  0
  184.7690  178.9240  145.5990 C   0  0  0  0  0  3  0  0  0  0  0  0
  184.9270  178.2600  143.1550 C   0  0  0  0  0  2  0  0  0  0  0  0
  185.2820  179.4430  142.5060 O   0  0  0  0  0  0  0  0  0  0  0  0
  185.8850  179.0220  141.3220 C   0  0  0  0  0  2  0  0  0  0  0  0
  184.8520  178.9670  140.2180 C   0  0  0  0  0  1  0  0  0  0  0  0
  1 19  1  0  0  0  0
  1  2  2  0  0  0  0
  3  2  1  0  0  0  0
  3  5  2  0  0  0  0
  4  3  1  0  0  0  0
  6 15  1  6  0  0  0
  6  7  1  0  0  0  0
  6  1  1  0  0  0  0
  7  4  2  0  0  0  0
  8 13  2  0  0  0  0
  9 15  2  0  0  0  0
 10 14  2  0  0  0  0
 11 10  1  0  0  0  0
 11  8  1  0  0  0  0
 12 10  1  0  0  0  0
 13  9  1  0  0  0  0
 14  9  1  0  0  0  0
 16  8  1  0  0  0  0
 18 17  2  0  0  0  0
 18 16  1  0  0  0  0
 19 21  1  0  0  0  0
 20 21  2  0  0  0  0
 20 24  1  0  0  0  0
 21 22  1  0  0  0  0
 22 23  1  0  0  0  0
 24 23  2  0  0  0  0
 25 20  1  0  0  0  0
 26 25  1  0  0  0  0
 27 26  1  0  0  0  0
 28 27  1  0  0  0  0
M  END
>  <MODEL>
1

>  <REMARK>
 VINA RESULT:      -8.3      0.000      0.000
  Name = 
  8 active torsions:
  status: ('A' for Active; 'I' for Inactive)
    1  A    between atoms: C_1  and  C_13
    2  A    between atoms: C_2  and  O_26
    3  A    between atoms: C_3  and  N_16
    4  A    between atoms: C_5  and  N_16
    5  A    between atoms: C_12  and  O_25
    6  A    between atoms: C_13  and  O_25
    7  A    between atoms: N_22  and  C_27
    8  A    between atoms: C_23  and  O_26
                            x       y       z     vdW  Elec       q    Type
                         _______ _______ _______ _____ _____    ______ ____

>  <TORSDO>
F 8

$$$$
=
 OpenBabel10222418273D

 28 30  0  0  1  0  0  0  0  0999 V2000
  188.9000  176.6700  143.8150 C   0  0  0  0  0  0  0  0  0  0  0  0
  189.4960  177.0140  144.9640 C   0  0  0  0  0  3  0  0  0  0  0  0
  190.9540  177.1390  145.0540 C   0  0  0  0  0  0  0  0  0  0  0  0
  191.7780  176.8210  143.8870 C   0  0  0  0  0  3  0  0  0  0  0  0
  191.4930  177.4970  146.1320 O   0  0  0  0  0  0  0  0  0  0  0  0
  189.7000  176.4650  142.5450 C   0  0  2  0  0  3  0  0  0  0  0  0
  191.2010  176.4930  142.7310 C   0  0  0  0  0  3  0  0  0  0  0  0
  190.4910  176.0450  138.3650 C   0  0  0  0  0  0  0  0  0  0  0  0
  189.5780  177.3160  140.1610 C   0  0  0  0  0  0  0  0  0  0  0  0
  189.4380  178.1730  137.9140 C   0  0  0  0  0  0  0  0  0  0  0  0
  190.1010  177.0360  137.4510 C   0  0  0  0  0  2  0  0  0  0  0  0
  189.0530  179.1360  137.0430 F   0  0  0  0  0  0  0  0  0  0  0  0
  190.2170  176.2100  139.6880 N   0  0  0  0  0  0  0  0  0  0  0  0
  189.1730  178.3170  139.2760 C   0  0  0  0  0  3  0  0  0  0  0  0
  189.3050  177.4590  141.5560 N   0  0  0  0  0  0  0  0  0  0  0  0
  191.1610  174.8900  137.9500 O   0  0  0  0  0  0  0  0  0  0  0  0
  193.2790  175.7690  138.0980 O   0  0  0  0  0  0  0  0  0  0  0  0
  192.5200  174.8770  137.6390 C   0  0  0  0  0  3  0  0  0  0  0  0
  187.4730  176.5480  143.7290 N   0  0  0  0  0  2  0  0  0  0  0  0
  185.9430  178.0650  144.9890 C   0  0  0  0  0  0  0  0  0  0  0  0
  186.4890  177.5910  143.8080 C   0  0  0  0  0  0  0  0  0  0  0  0
  185.8750  178.5090  142.5420 S   0  0  0  0  0  0  0  0  0  0  0  0
  184.8960  179.5140  143.4780 C   0  0  0  0  0  3  0  0  0  0  0  0
  185.0570  179.1350  144.8100 C   0  0  0  0  0  3  0  0  0  0  0  0
  186.2890  177.5230  146.3340 C   0  0  0  0  0  2  0  0  0  0  0  0
  187.0310  178.4680  147.0450 O   0  0  0  0  0  0  0  0  0  0  0  0
  187.5890  177.7480  148.1010 C   0  0  0  0  0  2  0  0  0  0  0  0
  188.9490  178.3180  148.4400 C   0  0  0  0  0  1  0  0  0  0  0  0
  1  2  2  0  0  0  0
  2  3  1  0  0  0  0
  3  5  2  0  0  0  0
  4  3  1  0  0  0  0
  6 15  1  6  0  0  0
  6  7  1  0  0  0  0
  6  1  1  0  0  0  0
  7  4  2  0  0  0  0
  8 13  2  0  0  0  0
  9 15  2  0  0  0  0
 10 14  2  0  0  0  0
 11 10  1  0  0  0  0
 11  8  1  0  0  0  0
 12 10  1  0  0  0  0
 13  9  1  0  0  0  0
 14  9  1  0  0  0  0
 16  8  1  0  0  0  0
 18 16  1  0  0  0  0
 18 17  2  0  0  0  0
 19 21  1  0  0  0  0
 19  1  1  0  0  0  0
 20 25  1  0  0  0  0
 21 20  2  0  0  0  0
 22 23  1  0  0  0  0
 22 21  1  0  0  0  0
 23 24  2  0  0  0  0
 24 20  1  0  0  0  0
 25 26  1  0  0  0  0
 26 27  1  0  0  0  0
 27 28  1  0  0  0  0
M  END
>  <MODEL>
2

>  <REMARK>
 VINA RESULT:      -8.3      1.696      2.869
  Name = 
  8 active torsions:
  status: ('A' for Active; 'I' for Inactive)
    1  A    between atoms: C_1  and  C_13
    2  A    between atoms: C_2  and  O_26
    3  A    between atoms: C_3  and  N_16
    4  A    between atoms: C_5  and  N_16
    5  A    between atoms: C_12  and  O_25
    6  A    between atoms: C_13  and  O_25
    7  A    between atoms: N_22  and  C_27
    8  A    between atoms: C_23  and  O_26
                            x       y       z     vdW  Elec       q    Type
                         _______ _______ _______ _____ _____    ______ ____

>  <TORSDO>
F 8

$$$$
=
 OpenBabel10222418273D

 28 30  0  0  1  0  0  0  0  0999 V2000
  188.3170  177.9190  139.0880 C   0  0  0  0  0  0  0  0  0  0  0  0
  188.8710  176.9540  138.3440 C   0  0  0  0  0  3  0  0  0  0  0  0
  190.0300  176.1960  138.8250 C   0  0  0  0  0  0  0  0  0  0  0  0
  190.6330  176.5430  140.1130 C   0  0  0  0  0  3  0  0  0  0  0  0
  190.5150  175.2700  138.1270 O   0  0  0  0  0  0  0  0  0  0  0  0
  188.8200  178.2210  140.4850 C   0  0  2  0  0  3  0  0  0  0  0  0
  190.0850  177.4900  140.8740 C   0  0  0  0  0  3  0  0  0  0  0  0
  189.5530  177.7910  144.6750 C   0  0  0  0  0  0  0  0  0  0  0  0
  188.0200  177.7890  142.8510 C   0  0  0  0  0  0  0  0  0  0  0  0
  187.2070  177.3690  145.0800 C   0  0  0  0  0  0  0  0  0  0  0  0
  188.5070  177.5060  145.5670 C   0  0  0  0  0  3  0  0  0  0  0  0
  186.1890  177.0980  145.9300 F   0  0  0  0  0  0  0  0  0  0  0  0
  189.2810  177.9270  143.3480 N   0  0  0  0  0  0  0  0  0  0  0  0
  186.9580  177.5110  143.7140 C   0  0  0  0  0  2  0  0  0  0  0  0
  187.7680  177.9380  141.4520 N   0  0  0  0  0  0  0  0  0  0  0  0
  190.8720  177.9330  145.1150 O   0  0  0  0  0  0  0  0  0  0  0  0
  191.8920  176.9120  146.9030 O   0  0  0  0  0  0  0  0  0  0  0  0
  191.5960  176.8850  145.6800 C   0  0  0  0  0  3  0  0  0  0  0  0
  187.1820  178.6600  138.6160 N   0  0  0  0  0  2  0  0  0  0  0  0
  184.7040  178.3870  138.7400 C   0  0  0  0  0  0  0  0  0  0  0  0
  185.9280  178.1480  138.1390 C   0  0  0  0  0  0  0  0  0  0  0  0
  185.6580  177.2610  136.7380 S   0  0  0  0  0  0  0  0  0  0  0  0
  183.9810  177.1580  136.8830 C   0  0  0  0  0  3  0  0  0  0  0  0
  183.6180  177.8390  138.0450 C   0  0  0  0  0  3  0  0  0  0  0  0
  184.5390  179.1870  139.9870 C   0  0  0  0  0  2  0  0  0  0  0  0
  184.5720  178.3410  141.0970 O   0  0  0  0  0  0  0  0  0  0  0  0
  183.3510  178.5590  141.7340 C   0  0  0  0  0  2  0  0  0  0  0  0
  183.5840  178.7770  143.2140 C   0  0  0  0  0  1  0  0  0  0  0  0
  1  6  1  0  0  0  0
  2  3  1  0  0  0  0
  2  1  2  0  0  0  0
  3  4  1  0  0  0  0
  4  7  2  0  0  0  0
  5  3  2  0  0  0  0
  6  7  1  0  0  0  0
  6 15  1  1  0  0  0
  8 16  1  0  0  0  0
  8 11  1  0  0  0  0
  9 13  1  0  0  0  0
  9 14  1  0  0  0  0
 10 11  2  0  0  0  0
 10 12  1  0  0  0  0
 13  8  2  0  0  0  0
 14 10  1  0  0  0  0
 15  9  2  0  0  0  0
 16 18  1  0  0  0  0
 18 17  2  0  0  0  0
 19  1  1  0  0  0  0
 20 25  1  0  0  0  0
 21 19  1  0  0  0  0
 21 20  2  0  0  0  0
 22 23  1  0  0  0  0
 22 21  1  0  0  0  0
 23 24  2  0  0  0  0
 24 20  1  0  0  0  0
 25 26  1  0  0  0  0
 26 27  1  0  0  0  0
 27 28  1  0  0  0  0
M  END
>  <MODEL>
3

>  <REMARK>
 VINA RESULT:      -7.3      3.107      6.465
  Name = 
  8 active torsions:
  status: ('A' for Active; 'I' for Inactive)
    1  A    between atoms: C_1  and  C_13
    2  A    between atoms: C_2  and  O_26
    3  A    between atoms: C_3  and  N_16
    4  A    between atoms: C_5  and  N_16
    5  A    between atoms: C_12  and  O_25
    6  A    between atoms: C_13  and  O_25
    7  A    between atoms: N_22  and  C_27
    8  A    between atoms: C_23  and  O_26
                            x       y       z     vdW  Elec       q    Type
                         _______ _______ _______ _____ _____    ______ ____

>  <TORSDO>
F 8

$$$$
=
 OpenBabel10222418273D

 28 30  0  0  1  0  0  0  0  0999 V2000
  188.6780  177.9540  141.2080 C   0  0  0  0  0  0  0  0  0  0  0  0
  189.4480  176.8690  141.3590 C   0  0  0  0  0  3  0  0  0  0  0  0
  189.5430  176.1800  142.6500 C   0  0  0  0  0  0  0  0  0  0  0  0
  188.8340  176.7220  143.8090 C   0  0  0  0  0  3  0  0  0  0  0  0
  190.2440  175.1420  142.7630 O   0  0  0  0  0  0  0  0  0  0  0  0
  187.8180  178.4720  142.3430 C   0  0  2  0  0  3  0  0  0  0  0  0
  188.0500  177.7910  143.6740 C   0  0  0  0  0  3  0  0  0  0  0  0
  184.6250  179.0250  145.1310 C   0  0  0  0  0  0  0  0  0  0  0  0
  185.3490  178.5510  142.9120 C   0  0  0  0  0  0  0  0  0  0  0  0
  182.9910  178.6100  143.3990 C   0  0  0  0  0  0  0  0  0  0  0  0
  183.2850  178.9060  144.7300 C   0  0  0  0  0  3  0  0  0  0  0  0
  181.7030  178.4960  142.9980 F   0  0  0  0  0  0  0  0  0  0  0  0
  185.6150  178.8480  144.2150 N   0  0  0  0  0  0  0  0  0  0  0  0
  184.0270  178.4310  142.4820 C   0  0  0  0  0  2  0  0  0  0  0  0
  186.4130  178.3710  141.9740 N   0  0  0  0  0  0  0  0  0  0  0  0
  184.9690  179.3160  146.4540 O   0  0  0  0  0  0  0  0  0  0  0  0
  186.9540  178.4650  147.2380 O   0  0  0  0  0  0  0  0  0  0  0  0
  185.6960  178.4380  147.2560 C   0  0  0  0  0  3  0  0  0  0  0  0
  188.5860  178.6280  139.9450 N   0  0  0  0  0  2  0  0  0  0  0  0
  187.3200  177.9140  137.9160 C   0  0  0  0  0  0  0  0  0  0  0  0
  188.4950  178.0450  138.6360 C   0  0  0  0  0  0  0  0  0  0  0  0
  189.7610  177.5020  137.6730 S   0  0  0  0  0  0  0  0  0  0  0  0
  188.8300  177.0810  136.3320 C   0  0  0  0  0  3  0  0  0  0  0  0
  187.5020  177.3780  136.6340 C   0  0  0  0  0  3  0  0  0  0  0  0
  185.9860  178.3370  138.4290 C   0  0  0  0  0  2  0  0  0  0  0  0
  184.9780  177.7210  137.6860 O   0  0  0  0  0  0  0  0  0  0  0  0
  183.7970  178.0960  138.3250 C   0  0  0  0  0  2  0  0  0  0  0  0
  183.9900  179.4370  139.0000 C   0  0  0  0  0  1  0  0  0  0  0  0
  1  2  2  0  0  0  0
  1  6  1  0  0  0  0
  2  3  1  0  0  0  0
  3  5  2  0  0  0  0
  3  4  1  0  0  0  0
  6 15  1  6  0  0  0
  6  7  1  0  0  0  0
  7  4  2  0  0  0  0
  8 16  1  0  0  0  0
  9 13  1  0  0  0  0
 10 11  2  0  0  0  0
 11  8  1  0  0  0  0
 12 10  1  0  0  0  0
 13  8  2  0  0  0  0
 14  9  1  0  0  0  0
 14 10  1  0  0  0  0
 15  9  2  0  0  0  0
 16 18  1  0  0  0  0
 17 18  2  0  0  0  0
 19  1  1  0  0  0  0
 20 25  1  0  0  0  0
 20 21  2  0  0  0  0
 21 19  1  0  0  0  0
 22 21  1  0  0  0  0
 23 24  2  0  0  0  0
 23 22  1  0  0  0  0
 24 20  1  0  0  0  0
 26 27  1  0  0  0  0
 26 25  1  0  0  0  0
 27 28  1  0  0  0  0
M  END
>  <MODEL>
4

>  <REMARK>
 VINA RESULT:      -7.0      3.495      7.119
  Name = 
  8 active torsions:
  status: ('A' for Active; 'I' for Inactive)
    1  A    between atoms: C_1  and  C_13
    2  A    between atoms: C_2  and  O_26
    3  A    between atoms: C_3  and  N_16
    4  A    between atoms: C_5  and  N_16
    5  A    between atoms: C_12  and  O_25
    6  A    between atoms: C_13  and  O_25
    7  A    between atoms: N_22  and  C_27
    8  A    between atoms: C_23  and  O_26
                            x       y       z     vdW  Elec       q    Type
                         _______ _______ _______ _____ _____    ______ ____

>  <TORSDO>
F 8

$$$$
=
 OpenBabel10222418273D

 28 30  0  0  1  0  0  0  0  0999 V2000
  188.7570  177.8560  141.1420 C   0  0  0  0  0  0  0  0  0  0  0  0
  189.4820  176.7710  141.4400 C   0  0  0  0  0  3  0  0  0  0  0  0
  189.3930  176.1380  142.7600 C   0  0  0  0  0  0  0  0  0  0  0  0
  188.5440  176.7380  143.7900 C   0  0  0  0  0  3  0  0  0  0  0  0
  190.0560  175.0990  143.0100 O   0  0  0  0  0  0  0  0  0  0  0  0
  187.7610  178.4320  142.1290 C   0  0  2  0  0  3  0  0  0  0  0  0
  187.8020  177.8080  143.5060 C   0  0  0  0  0  3  0  0  0  0  0  0
  184.2320  179.0550  144.4590 C   0  0  0  0  0  0  0  0  0  0  0  0
  185.2400  178.5330  142.3640 C   0  0  0  0  0  0  0  0  0  0  0  0
  182.8380  178.6110  142.5340 C   0  0  0  0  0  0  0  0  0  0  0  0
  182.9560  178.9330  143.8860 C   0  0  0  0  0  3  0  0  0  0  0  0
  181.6140  178.4940  141.9690 F   0  0  0  0  0  0  0  0  0  0  0  0
  185.3330  178.8550  143.6850 N   0  0  0  0  0  0  0  0  0  0  0  0
  183.9850  178.4090  141.7660 C   0  0  0  0  0  2  0  0  0  0  0  0
  186.4160  178.3290  141.5790 N   0  0  0  0  0  0  0  0  0  0  0  0
  184.4010  179.3710  145.8100 O   0  0  0  0  0  0  0  0  0  0  0  0
  186.1920  178.9940  147.1970 O   0  0  0  0  0  0  0  0  0  0  0  0
  185.1230  178.5670  146.6890 C   0  0  0  0  0  3  0  0  0  0  0  0
  188.8450  178.4740  139.8500 N   0  0  0  0  0  2  0  0  0  0  0  0
  189.4040  177.1900  137.7840 C   0  0  0  0  0  0  0  0  0  0  0  0
  188.5190  177.9050  138.5730 C   0  0  0  0  0  0  0  0  0  0  0  0
  187.0180  177.8920  137.8170 S   0  0  0  0  0  0  0  0  0  0  0  0
  187.4760  176.9860  136.4710 C   0  0  0  0  0  3  0  0  0  0  0  0
  188.8280  176.6760  136.6150 C   0  0  0  0  0  3  0  0  0  0  0  0
  190.8280  176.9460  138.1540 C   0  0  0  0  0  2  0  0  0  0  0  0
  190.9920  175.6150  138.5410 O   0  0  0  0  0  0  0  0  0  0  0  0
  192.0300  175.1460  137.7360 C   0  0  0  0  0  2  0  0  0  0  0  0
  193.0670  176.2340  137.5620 C   0  0  0  0  0  1  0  0  0  0  0  0
  1  2  2  0  0  0  0
  1  6  1  0  0  0  0
  2  3  1  0  0  0  0
  3  5  2  0  0  0  0
  3  4  1  0  0  0  0
  6 15  1  6  0  0  0
  6  7  1  0  0  0  0
  7  4  2  0  0  0  0
  8 16  1  0  0  0  0
  9 13  1  0  0  0  0
 10 11  2  0  0  0  0
 11  8  1  0  0  0  0
 12 10  1  0  0  0  0
 13  8  2  0  0  0  0
 14  9  1  0  0  0  0
 14 10  1  0  0  0  0
 15  9  2  0  0  0  0
 16 18  1  0  0  0  0
 18 17  2  0  0  0  0
 19  1  1  0  0  0  0
 20 25  1  0  0  0  0
 20 21  2  0  0  0  0
 21 19  1  0  0  0  0
 22 21  1  0  0  0  0
 23 24  2  0  0  0  0
 23 22  1  0  0  0  0
 24 20  1  0  0  0  0
 25 26  1  0  0  0  0
 27 26  1  0  0  0  0
 28 27  1  0  0  0  0
M  END
>  <MODEL>
5

>  <REMARK>
 VINA RESULT:      -7.0      3.169      7.570
  Name = 
  8 active torsions:
  status: ('A' for Active; 'I' for Inactive)
    1  A    between atoms: C_1  and  C_13
    2  A    between atoms: C_2  and  O_26
    3  A    between atoms: C_3  and  N_16
    4  A    between atoms: C_5  and  N_16
    5  A    between atoms: C_12  and  O_25
    6  A    between atoms: C_13  and  O_25
    7  A    between atoms: N_22  and  C_27
    8  A    between atoms: C_23  and  O_26
                            x       y       z     vdW  Elec       q    Type
                         _______ _______ _______ _____ _____    ______ ____

>  <TORSDO>
F 8

$$$$
=
 OpenBabel10222418273D

 28 30  0  0  1  0  0  0  0  0999 V2000
  186.1800  177.8620  143.6930 C   0  0  0  0  0  0  0  0  0  0  0  0
  186.0240  177.9560  145.0200 C   0  0  0  0  0  3  0  0  0  0  0  0
  184.9950  178.8240  145.6030 C   0  0  0  0  0  0  0  0  0  0  0  0
  184.1660  179.6490  144.7230 C   0  0  0  0  0  3  0  0  0  0  0  0
  184.8410  178.8730  146.8500 O   0  0  0  0  0  0  0  0  0  0  0  0
  185.2550  178.5900  142.7390 C   0  0  2  0  0  3  0  0  0  0  0  0
  184.2960  179.5550  143.4000 C   0  0  0  0  0  3  0  0  0  0  0  0
  183.0770  179.6350  139.2130 C   0  0  0  0  0  0  0  0  0  0  0  0
  183.7810  177.9770  140.7710 C   0  0  0  0  0  0  0  0  0  0  0  0
  182.3770  177.3400  138.9200 C   0  0  0  0  0  0  0  0  0  0  0  0
  182.3660  178.6660  138.4870 C   0  0  0  0  0  2  0  0  0  0  0  0
  181.6990  176.3950  138.2270 F   0  0  0  0  0  0  0  0  0  0  0  0
  183.7640  179.2650  140.3270 N   0  0  0  0  0  0  0  0  0  0  0  0
  183.0880  176.9900  140.0680 C   0  0  0  0  0  3  0  0  0  0  0  0
  184.5120  177.6200  141.9460 N   0  0  0  0  0  0  0  0  0  0  0  0
  183.0920  180.9770  138.8210 O   0  0  0  0  0  0  0  0  0  0  0  0
  180.9080  181.6410  139.0860 O   0  0  0  0  0  0  0  0  0  0  0  0
  181.9520  181.6480  138.3830 C   0  0  0  0  0  3  0  0  0  0  0  0
  187.1860  177.0120  143.1240 N   0  0  0  0  0  2  0  0  0  0  0  0
  189.5360  177.2960  143.9160 C   0  0  0  0  0  0  0  0  0  0  0  0
  188.5770  177.3040  142.9180 C   0  0  0  0  0  0  0  0  0  0  0  0
  189.3470  177.6100  141.4560 S   0  0  0  0  0  0  0  0  0  0  0  0
  190.9090  177.7490  142.0740 C   0  0  0  0  0  3  0  0  0  0  0  0
  190.8350  177.5430  143.4510 C   0  0  0  0  0  3  0  0  0  0  0  0
  189.2340  177.0120  145.3480 C   0  0  0  0  0  2  0  0  0  0  0  0
  190.1880  177.6260  146.1610 O   0  0  0  0  0  0  0  0  0  0  0  0
  190.4010  176.7160  147.1950 C   0  0  0  0  0  2  0  0  0  0  0  0
  191.7930  176.1330  147.0780 C   0  0  0  0  0  1  0  0  0  0  0  0
  1  2  2  0  0  0  0
  2  3  1  0  0  0  0
  3  5  2  0  0  0  0
  4  3  1  0  0  0  0
  6 15  1  1  0  0  0
  6  7  1  0  0  0  0
  6  1  1  0  0  0  0
  7  4  2  0  0  0  0
  8 13  2  0  0  0  0
  9 15  2  0  0  0  0
 10 14  2  0  0  0  0
 11 10  1  0  0  0  0
 11  8  1  0  0  0  0
 12 10  1  0  0  0  0
 13  9  1  0  0  0  0
 14  9  1  0  0  0  0
 16  8  1  0  0  0  0
 18 16  1  0  0  0  0
 18 17  2  0  0  0  0
 19  1  1  0  0  0  0
 20 25  1  0  0  0  0
 21 19  1  0  0  0  0
 21 20  2  0  0  0  0
 22 23  1  0  0  0  0
 22 21  1  0  0  0  0
 23 24  2  0  0  0  0
 24 20  1  0  0  0  0
 25 26  1  0  0  0  0
 26 27  1  0  0  0  0
 28 27  1  0  0  0  0
M  END
>  <MODEL>
6

>  <REMARK>
 VINA RESULT:      -6.9      3.964      7.111
  Name = 
  8 active torsions:
  status: ('A' for Active; 'I' for Inactive)
    1  A    between atoms: C_1  and  C_13
    2  A    between atoms: C_2  and  O_26
    3  A    between atoms: C_3  and  N_16
    4  A    between atoms: C_5  and  N_16
    5  A    between atoms: C_12  and  O_25
    6  A    between atoms: C_13  and  O_25
    7  A    between atoms: N_22  and  C_27
    8  A    between atoms: C_23  and  O_26
                            x       y       z     vdW  Elec       q    Type
                         _______ _______ _______ _____ _____    ______ ____

>  <TORSDO>
F 8

$$$$
=
 OpenBabel10222418273D

 28 30  0  0  1  0  0  0  0  0999 V2000
  186.1540  177.9260  143.6220 C   0  0  0  0  0  0  0  0  0  0  0  0
  186.1920  177.9010  144.9600 C   0  0  0  0  0  3  0  0  0  0  0  0
  185.3740  178.8190  145.7590 C   0  0  0  0  0  0  0  0  0  0  0  0
  184.5500  179.8220  145.0840 C   0  0  0  0  0  3  0  0  0  0  0  0
  185.3970  178.7570  147.0150 O   0  0  0  0  0  0  0  0  0  0  0  0
  185.2130  178.8530  142.8790 C   0  0  2  0  0  3  0  0  0  0  0  0
  184.4870  179.8510  143.7530 C   0  0  0  0  0  3  0  0  0  0  0  0
  185.4040  178.3720  138.6360 C   0  0  0  0  0  0  0  0  0  0  0  0
  184.3150  177.9120  140.7040 C   0  0  0  0  0  0  0  0  0  0  0  0
  183.4170  176.9960  138.6650 C   0  0  0  0  0  0  0  0  0  0  0  0
  184.4440  177.6110  137.9500 C   0  0  0  0  0  2  0  0  0  0  0  0
  182.4870  176.2560  138.0160 F   0  0  0  0  0  0  0  0  0  0  0  0
  185.3150  178.4990  139.9870 N   0  0  0  0  0  0  0  0  0  0  0  0
  183.3490  177.1450  140.0500 C   0  0  0  0  0  3  0  0  0  0  0  0
  184.2490  178.0650  142.1230 N   0  0  0  0  0  0  0  0  0  0  0  0
  186.4490  179.0110  137.9620 O   0  0  0  0  0  0  0  0  0  0  0  0
  188.5480  178.4190  137.2390 O   0  0  0  0  0  0  0  0  0  0  0  0
  187.3010  178.3440  137.0840 C   0  0  0  0  0  3  0  0  0  0  0  0
  186.9540  177.0270  142.8410 N   0  0  0  0  0  2  0  0  0  0  0  0
  189.4320  177.0920  143.1340 C   0  0  0  0  0  0  0  0  0  0  0  0
  188.2920  177.2240  142.3590 C   0  0  0  0  0  0  0  0  0  0  0  0
  188.7680  177.5490  140.7800 S   0  0  0  0  0  0  0  0  0  0  0  0
  190.4300  177.5390  141.0640 C   0  0  0  0  0  3  0  0  0  0  0  0
  190.6230  177.2650  142.4170 C   0  0  0  0  0  3  0  0  0  0  0  0
  189.4080  176.7550  144.5860 C   0  0  0  0  0  2  0  0  0  0  0  0
  189.8160  177.8610  145.3320 O   0  0  0  0  0  0  0  0  0  0  0  0
  190.1120  177.3400  146.5910 C   0  0  0  0  0  2  0  0  0  0  0  0
  188.8260  177.0310  147.3270 C   0  0  0  0  0  1  0  0  0  0  0  0
  1  2  2  0  0  0  0
  2  3  1  0  0  0  0
  3  5  2  0  0  0  0
  4  3  1  0  0  0  0
  6 15  1  1  0  0  0
  6  1  1  0  0  0  0
  6  7  1  0  0  0  0
  7  4  2  0  0  0  0
  8 13  2  0  0  0  0
  9 15  2  0  0  0  0
 10 14  2  0  0  0  0
 11  8  1  0  0  0  0
 11 10  1  0  0  0  0
 12 10  1  0  0  0  0
 13  9  1  0  0  0  0
 14  9  1  0  0  0  0
 16  8  1  0  0  0  0
 18 17  2  0  0  0  0
 18 16  1  0  0  0  0
 19  1  1  0  0  0  0
 20 25  1  0  0  0  0
 21 19  1  0  0  0  0
 21 20  2  0  0  0  0
 22 23  1  0  0  0  0
 22 21  1  0  0  0  0
 23 24  2  0  0  0  0
 24 20  1  0  0  0  0
 25 26  1  0  0  0  0
 26 27  1  0  0  0  0
 27 28  1  0  0  0  0
M  END
>  <MODEL>
7

>  <REMARK>
 VINA RESULT:      -6.9      3.080      5.849
  Name = 
  8 active torsions:
  status: ('A' for Active; 'I' for Inactive)
    1  A    between atoms: C_1  and  C_13
    2  A    between atoms: C_2  and  O_26
    3  A    between atoms: C_3  and  N_16
    4  A    between atoms: C_5  and  N_16
    5  A    between atoms: C_12  and  O_25
    6  A    between atoms: C_13  and  O_25
    7  A    between atoms: N_22  and  C_27
    8  A    between atoms: C_23  and  O_26
                            x       y       z     vdW  Elec       q    Type
                         _______ _______ _______ _____ _____    ______ ____

>  <TORSDO>
F 8

$$$$
=
 OpenBabel10222418273D

 28 30  0  0  1  0  0  0  0  0999 V2000
  185.6230  178.6890  143.2410 C   0  0  0  0  0  0  0  0  0  0  0  0
  185.8510  178.4940  144.5460 C   0  0  0  0  0  3  0  0  0  0  0  0
  184.7690  178.6070  145.5300 C   0  0  0  0  0  0  0  0  0  0  0  0
  183.4320  179.0030  145.0870 C   0  0  0  0  0  3  0  0  0  0  0  0
  184.9960  178.3860  146.7470 O   0  0  0  0  0  0  0  0  0  0  0  0
  184.2270  178.9650  142.7190 C   0  0  2  0  0  3  0  0  0  0  0  0
  183.1830  179.1850  143.7910 C   0  0  0  0  0  3  0  0  0  0  0  0
  182.5280  179.6080  138.8490 C   0  0  0  0  0  0  0  0  0  0  0  0
  183.2410  178.1000  140.5510 C   0  0  0  0  0  0  0  0  0  0  0  0
  182.3060  177.2250  138.5100 C   0  0  0  0  0  0  0  0  0  0  0  0
  182.1340  178.5280  138.0430 C   0  0  0  0  0  2  0  0  0  0  0  0
  181.9330  176.1750  137.7410 F   0  0  0  0  0  0  0  0  0  0  0  0
  183.0710  179.3650  140.0730 N   0  0  0  0  0  0  0  0  0  0  0  0
  182.8620  177.0060  139.7700 C   0  0  0  0  0  3  0  0  0  0  0  0
  183.8130  177.8790  141.8410 N   0  0  0  0  0  0  0  0  0  0  0  0
  182.3720  180.9320  138.4270 O   0  0  0  0  0  0  0  0  0  0  0  0
  180.3760  181.5610  139.3760 O   0  0  0  0  0  0  0  0  0  0  0  0
  181.1310  181.5640  138.3690 C   0  0  0  0  0  3  0  0  0  0  0  0
  186.6820  178.5770  142.2790 N   0  0  0  0  0  2  0  0  0  0  0  0
  188.7320  177.5570  141.2880 C   0  0  0  0  0  0  0  0  0  0  0  0
  187.8380  177.7270  142.3310 C   0  0  0  0  0  0  0  0  0  0  0  0
  188.4030  176.8560  143.6520 S   0  0  0  0  0  0  0  0  0  0  0  0
  189.7870  176.2410  142.9120 C   0  0  0  0  0  3  0  0  0  0  0  0
  189.8190  176.7320  141.6070 C   0  0  0  0  0  3  0  0  0  0  0  0
  188.5870  178.2180  139.9590 C   0  0  0  0  0  2  0  0  0  0  0  0
  188.3380  177.2560  138.9800 O   0  0  0  0  0  0  0  0  0  0  0  0
  187.7040  177.9600  137.9560 C   0  0  0  0  0  2  0  0  0  0  0  0
  186.2690  178.2390  138.3460 C   0  0  0  0  0  1  0  0  0  0  0  0
  1  2  2  0  0  0  0
  2  3  1  0  0  0  0
  3  5  2  0  0  0  0
  4  3  1  0  0  0  0
  6 15  1  1  0  0  0
  6  1  1  0  0  0  0
  6  7  1  0  0  0  0
  7  4  2  0  0  0  0
  8 13  2  0  0  0  0
  9 15  2  0  0  0  0
 10 14  2  0  0  0  0
 11 10  1  0  0  0  0
 11  8  1  0  0  0  0
 12 10  1  0  0  0  0
 13  9  1  0  0  0  0
 14  9  1  0  0  0  0
 16  8  1  0  0  0  0
 18 16  1  0  0  0  0
 18 17  2  0  0  0  0
 19 21  1  0  0  0  0
 19  1  1  0  0  0  0
 20 24  1  0  0  0  0
 20 21  2  0  0  0  0
 21 22  1  0  0  0  0
 23 22  1  0  0  0  0
 24 23  2  0  0  0  0
 25 20  1  0  0  0  0
 26 25  1  0  0  0  0
 27 28  1  0  0  0  0
 27 26  1  0  0  0  0
M  END
>  <MODEL>
8

>  <REMARK>
 VINA RESULT:      -6.8      3.453      6.940
  Name = 
  8 active torsions:
  status: ('A' for Active; 'I' for Inactive)
    1  A    between atoms: C_1  and  C_13
    2  A    between atoms: C_2  and  O_26
    3  A    between atoms: C_3  and  N_16
    4  A    between atoms: C_5  and  N_16
    5  A    between atoms: C_12  and  O_25
    6  A    between atoms: C_13  and  O_25
    7  A    between atoms: N_22  and  C_27
    8  A    between atoms: C_23  and  O_26
                            x       y       z     vdW  Elec       q    Type
                         _______ _______ _______ _____ _____    ______ ____

>  <TORSDO>
F 8

$$$$
=
 OpenBabel10222418273D

 28 30  0  0  1  0  0  0  0  0999 V2000
  185.4200  178.2140  144.1360 C   0  0  0  0  0  0  0  0  0  0  0  0
  185.1390  179.0230  145.1650 C   0  0  0  0  0  3  0  0  0  0  0  0
  185.9290  178.9840  146.4000 C   0  0  0  0  0  0  0  0  0  0  0  0
  187.0050  178.0000  146.5350 C   0  0  0  0  0  3  0  0  0  0  0  0
  185.6720  179.7760  147.3420 O   0  0  0  0  0  0  0  0  0  0  0  0
  186.6090  177.2750  144.1760 C   0  0  2  0  0  3  0  0  0  0  0  0
  187.3090  177.1980  145.5150 C   0  0  0  0  0  3  0  0  0  0  0  0
  190.8170  176.6050  144.5170 C   0  0  0  0  0  0  0  0  0  0  0  0
  188.9680  177.4310  143.2630 C   0  0  0  0  0  0  0  0  0  0  0  0
  191.1900  177.6080  142.3500 C   0  0  0  0  0  0  0  0  0  0  0  0
  191.6970  176.9970  143.4960 C   0  0  0  0  0  3  0  0  0  0  0  0
  192.0270  177.9880  141.3560 F   0  0  0  0  0  0  0  0  0  0  0  0
  189.4830  176.8300  144.3720 N   0  0  0  0  0  0  0  0  0  0  0  0
  189.8170  177.8280  142.2290 C   0  0  0  0  0  3  0  0  0  0  0  0
  187.5610  177.6530  143.1410 N   0  0  0  0  0  2  0  0  0  0  0  0
  191.2780  175.9940  145.6870 O   0  0  0  0  0  0  0  0  0  0  0  0
  192.0490  176.7580  147.7110 O   0  0  0  0  0  0  0  0  0  0  0  0
  191.0700  176.5340  146.9540 C   0  0  0  0  0  3  0  0  0  0  0  0
  184.6450  178.2540  142.9290 N   0  0  0  0  0  2  0  0  0  0  0  0
  182.5870  178.6280  141.5680 C   0  0  0  0  0  0  0  0  0  0  0  0
  183.2640  178.6160  142.7750 C   0  0  0  0  0  0  0  0  0  0  0  0
  182.1690  178.9940  143.9930 S   0  0  0  0  0  0  0  0  0  0  0  0
  180.8220  179.1910  142.9990 C   0  0  0  0  0  3  0  0  0  0  0  0
  181.2280  178.9470  141.6870 C   0  0  0  0  0  3  0  0  0  0  0  0
  183.2240  178.2950  140.2610 C   0  0  0  0  0  2  0  0  0  0  0  0
  183.9120  179.4070  139.7760 O   0  0  0  0  0  0  0  0  0  0  0  0
  184.9540  178.8680  139.0220 C   0  0  0  0  0  2  0  0  0  0  0  0
  184.3970  177.8740  138.0260 C   0  0  0  0  0  1  0  0  0  0  0  0
  1  6  1  0  0  0  0
  1  2  2  0  0  0  0
  2  3  1  0  0  0  0
  3  4  1  0  0  0  0
  3  5  2  0  0  0  0
  6 15  1  6  0  0  0
  6  7  1  0  0  0  0
  7  4  2  0  0  0  0
  8 16  1  0  0  0  0
  9 13  1  0  0  0  0
 10 11  2  0  0  0  0
 11  8  1  0  0  0  0
 12 10  1  0  0  0  0
 13  8  2  0  0  0  0
 14 10  1  0  0  0  0
 14  9  2  0  0  0  0
 15  9  1  0  0  0  0
 16 18  1  0  0  0  0
 18 17  2  0  0  0  0
 19  1  1  0  0  0  0
 20 24  1  0  0  0  0
 20 21  2  0  0  0  0
 21 19  1  0  0  0  0
 21 22  1  0  0  0  0
 23 22  1  0  0  0  0
 24 23  2  0  0  0  0
 25 20  1  0  0  0  0
 26 25  1  0  0  0  0
 27 26  1  0  0  0  0
 28 27  1  0  0  0  0
M  END
>  <MODEL>
9

>  <REMARK>
 VINA RESULT:      -6.8      3.546      5.342
  Name = 
  8 active torsions:
  status: ('A' for Active; 'I' for Inactive)
    1  A    between atoms: C_1  and  C_13
    2  A    between atoms: C_2  and  O_26
    3  A    between atoms: C_3  and  N_16
    4  A    between atoms: C_5  and  N_16
    5  A    between atoms: C_12  and  O_25
    6  A    between atoms: C_13  and  O_25
    7  A    between atoms: N_22  and  C_27
    8  A    between atoms: C_23  and  O_26
                            x       y       z     vdW  Elec       q    Type
                         _______ _______ _______ _____ _____    ______ ____

>  <TORSDO>
F 8

$$$$
