=
 OpenBabel10222416413D

 30 33  0  0  1  0  0  0  0  0999 V2000
  189.5750  177.2400  141.3870 C   0  0  0  0  0  0  0  0  0  0  0  0
  188.3220  177.5450  141.5920 N   0  0  0  0  0  0  0  0  0  0  0  0
  187.5720  177.2430  137.2370 C   0  0  0  0  0  1  0  0  0  0  0  0
  190.1980  177.5880  140.0690 C   0  0  1  0  0  3  0  0  0  0  0  0
  189.5350  175.8120  137.8950 C   0  0  0  0  0  0  0  0  0  0  0  0
  189.2140  174.9260  137.0100 N   0  0  0  0  0  2  0  0  0  0  0  0
  191.0900  176.4690  139.5920 C   0  0  0  0  0  3  0  0  0  0  0  0
  188.5880  179.0790  139.1220 O   0  0  0  0  0  0  0  0  0  0  0  0
  188.7400  176.9920  138.0720 N   0  0  0  0  0  0  0  0  0  0  0  0
  190.7540  175.6620  138.6300 N   0  0  0  0  0  0  0  0  0  0  0  0
  189.1430  177.9480  139.0610 C   0  0  0  0  0  0  0  0  0  0  0  0
  187.5010  177.9700  145.3000 C   0  0  1  0  0  3  0  0  0  0  0  0
  188.2610  178.0940  143.9700 C   0  0  0  0  0  2  0  0  0  0  0  0
  185.3330  177.6530  146.3150 O   0  0  0  0  0  1  0  0  0  0  0  0
  186.1380  177.8390  142.6250 C   0  0  0  0  0  2  0  0  0  0  0  0
  187.5750  177.3440  142.8250 C   0  0  1  0  0  3  0  0  0  0  0  0
  186.0640  177.4430  145.1450 C   0  0  1  0  0  3  0  0  0  0  0  0
  185.3560  178.0650  143.9280 C   0  0  1  0  0  3  0  0  0  0  0  0
  185.1070  179.5620  144.1010 C   0  0  0  0  0  2  0  0  0  0  0  0
  183.6440  179.8700  144.1010 C   0  0  0  0  0  3  0  0  0  0  0  0
  182.7850  178.9380  144.2880 N   0  0  0  0  0  2  0  0  0  0  0  0
  188.3000  177.1810  146.3340 C   0  0  0  0  0  2  0  0  0  0  0  0
  189.6920  177.7530  146.5480 C   0  0  0  0  0  3  0  0  0  0  0  0
  189.9800  177.8130  148.0330 C   0  0  0  0  0  2  0  0  0  0  0  0
  190.5660  176.6990  147.1950 C   0  0  0  0  0  2  0  0  0  0  0  0
  191.4880  177.0750  143.1100 C   0  0  0  0  0  3  0  0  0  0  0  0
  191.1560  175.0200  143.6680 N   0  0  0  0  0  0  0  0  0  0  0  0
  190.2680  175.3180  142.7690 O   0  0  0  0  0  0  0  0  0  0  0  0
  191.9220  176.0750  143.9020 N   0  0  0  0  0  0  0  0  0  0  0  0
  190.4270  176.5610  142.3890 C   0  0  0  0  0  0  0  0  0  0  0  0
  1  2  2  0  0  0  0
  1 30  1  0  0  0  0
  3  9  1  0  0  0  0
  4  1  1  1  0  0  0
  5  9  1  0  0  0  0
  5 10  1  0  0  0  0
  6  5  2  0  0  0  0
  7  4  1  0  0  0  0
  9 11  1  0  0  0  0
 10  7  2  0  0  0  0
 11  8  2  0  0  0  0
 11  4  1  0  0  0  0
 12 22  1  1  0  0  0
 13 12  1  0  0  0  0
 15 16  1  0  0  0  0
 15 18  1  0  0  0  0
 16  2  1  6  0  0  0
 16 13  1  0  0  0  0
 17 12  1  0  0  0  0
 17 14  1  1  0  0  0
 18 19  1  1  0  0  0
 18 17  1  0  0  0  0
 19 20  1  0  0  0  0
 20 21  2  0  0  0  0
 22 23  1  0  0  0  0
 23 25  1  0  0  0  0
 23 24  1  0  0  0  0
 25 24  1  0  0  0  0
 26 29  1  0  0  0  0
 27 29  2  0  0  0  0
 28 27  1  0  0  0  0
 30 28  1  0  0  0  0
 30 26  2  0  0  0  0
M  END
>  <MODEL>
1

>  <REMARK>
 VINA RESULT:      -8.0      0.000      0.000
  Name = 
  7 active torsions:
  status: ('A' for Active; 'I' for Inactive)
    1  A    between atoms: C_2  and  C_22
    2  A    between atoms: C_3  and  C_4
    3  A    between atoms: C_3  and  C_28
    4  A    between atoms: C_5  and  C_22
    5  A    between atoms: C_8  and  C_10
    6  A    between atoms: C_10  and  C_29
    7  A    between atoms: C_18  and  N_21
                            x       y       z     vdW  Elec       q    Type
                         _______ _______ _______ _____ _____    ______ ____

>  <TORSDO>
F 7

$$$$
=
 OpenBabel10222416413D

 30 33  0  0  1  0  0  0  0  0999 V2000
  188.1930  178.2220  139.8570 C   0  0  0  0  0  0  0  0  0  0  0  0
  189.0920  177.9810  140.7730 N   0  0  0  0  0  0  0  0  0  0  0  0
  187.9860  174.2750  137.4890 C   0  0  0  0  0  1  0  0  0  0  0  0
  188.5470  177.9970  138.4180 C   0  0  1  0  0  3  0  0  0  0  0  0
  190.0800  175.6110  137.8950 C   0  0  0  0  0  0  0  0  0  0  0  0
  190.8070  174.5470  137.7830 N   0  0  0  0  0  2  0  0  0  0  0  0
  190.0440  177.9800  138.2380 C   0  0  0  0  0  3  0  0  0  0  0  0
  186.6650  176.7630  137.6160 O   0  0  0  0  0  0  0  0  0  0  0  0
  188.6530  175.5380  137.7750 N   0  0  0  0  0  0  0  0  0  0  0  0
  190.7160  176.8860  138.0340 N   0  0  0  0  0  0  0  0  0  0  0  0
  187.8930  176.7470  137.8990 C   0  0  0  0  0  0  0  0  0  0  0  0
  187.9510  176.8600  144.2430 C   0  0  1  0  0  3  0  0  0  0  0  0
  188.1440  176.8520  142.7180 C   0  0  0  0  0  2  0  0  0  0  0  0
  188.8630  177.6180  146.3470 O   0  0  0  0  0  1  0  0  0  0  0  0
  190.2780  178.1920  142.8880 C   0  0  0  0  0  2  0  0  0  0  0  0
  188.9060  178.0800  142.2130 C   0  0  1  0  0  3  0  0  0  0  0  0
  188.8450  177.8760  144.9750 C   0  0  1  0  0  3  0  0  0  0  0  0
  190.2710  177.9020  144.3960 C   0  0  1  0  0  3  0  0  0  0  0  0
  191.0280  176.6010  144.6520 C   0  0  0  0  0  2  0  0  0  0  0  0
  191.7670  176.6510  145.9500 C   0  0  0  0  0  3  0  0  0  0  0  0
  192.1680  175.5710  146.5110 N   0  0  0  0  0  2  0  0  0  0  0  0
  186.4800  177.0020  144.6250 C   0  0  0  0  0  2  0  0  0  0  0  0
  186.1070  178.4350  144.9700 C   0  0  0  0  0  3  0  0  0  0  0  0
  184.6180  178.6200  144.7750 C   0  0  0  0  0  2  0  0  0  0  0  0
  185.1790  178.4310  146.1660 C   0  0  0  0  0  2  0  0  0  0  0  0
  186.2580  178.9750  141.3890 C   0  0  0  0  0  3  0  0  0  0  0  0
  184.8480  179.4220  139.8200 N   0  0  0  0  0  0  0  0  0  0  0  0
  185.9340  179.0040  139.2460 O   0  0  0  0  0  0  0  0  0  0  0  0
  185.0100  179.4160  141.1350 N   0  0  0  0  0  0  0  0  0  0  0  0
  186.8290  178.7130  140.1580 C   0  0  0  0  0  0  0  0  0  0  0  0
  1 30  1  0  0  0  0
  1  2  2  0  0  0  0
  3  9  1  0  0  0  0
  4  1  1  1  0  0  0
  5 10  1  0  0  0  0
  6  5  2  0  0  0  0
  7  4  1  0  0  0  0
  8 11  2  0  0  0  0
  9  5  1  0  0  0  0
  9 11  1  0  0  0  0
 10  7  2  0  0  0  0
 11  4  1  0  0  0  0
 12 22  1  6  0  0  0
 12 17  1  0  0  0  0
 13 12  1  0  0  0  0
 15 18  1  0  0  0  0
 16  2  1  6  0  0  0
 16 13  1  0  0  0  0
 16 15  1  0  0  0  0
 17 14  1  1  0  0  0
 18 19  1  6  0  0  0
 18 17  1  0  0  0  0
 19 20  1  0  0  0  0
 20 21  2  0  0  0  0
 22 23  1  0  0  0  0
 23 25  1  0  0  0  0
 24 23  1  0  0  0  0
 24 25  1  0  0  0  0
 27 29  2  0  0  0  0
 28 27  1  0  0  0  0
 28 30  1  0  0  0  0
 29 26  1  0  0  0  0
 30 26  2  0  0  0  0
M  END
>  <MODEL>
2

>  <REMARK>
 VINA RESULT:      -7.6      2.056      4.781
  Name = 
  7 active torsions:
  status: ('A' for Active; 'I' for Inactive)
    1  A    between atoms: C_2  and  C_22
    2  A    between atoms: C_3  and  C_4
    3  A    between atoms: C_3  and  C_28
    4  A    between atoms: C_5  and  C_22
    5  A    between atoms: C_8  and  C_10
    6  A    between atoms: C_10  and  C_29
    7  A    between atoms: C_18  and  N_21
                            x       y       z     vdW  Elec       q    Type
                         _______ _______ _______ _____ _____    ______ ____

>  <TORSDO>
F 7

$$$$
=
 OpenBabel10222416413D

 30 33  0  0  1  0  0  0  0  0999 V2000
  189.0830  178.0620  140.2190 C   0  0  0  0  0  0  0  0  0  0  0  0
  189.8040  177.9100  141.2970 N   0  0  0  0  0  0  0  0  0  0  0  0
  187.1260  178.3940  136.0600 C   0  0  0  0  0  1  0  0  0  0  0  0
  189.7200  177.8190  138.8830 C   0  0  1  0  0  3  0  0  0  0  0  0
  188.1250  176.2950  137.0260 C   0  0  0  0  0  0  0  0  0  0  0  0
  187.3480  175.5630  136.2960 N   0  0  0  0  0  2  0  0  0  0  0  0
  189.8920  176.3400  138.6400 C   0  0  0  0  0  3  0  0  0  0  0  0
  189.0390  179.7400  137.6360 O   0  0  0  0  0  0  0  0  0  0  0  0
  188.0500  177.7260  136.9680 N   0  0  0  0  0  0  0  0  0  0  0  0
  189.1380  175.6700  137.8200 N   0  0  0  0  0  0  0  0  0  0  0  0
  188.9380  178.4930  137.7910 C   0  0  0  0  0  0  0  0  0  0  0  0
  187.9970  176.8630  144.4970 C   0  0  1  0  0  3  0  0  0  0  0  0
  188.4850  176.8240  143.0400 C   0  0  0  0  0  2  0  0  0  0  0  0
  188.4840  177.6600  146.7240 O   0  0  0  0  0  1  0  0  0  0  0  0
  190.5530  178.1610  143.5990 C   0  0  0  0  0  2  0  0  0  0  0  0
  189.3400  178.0390  142.6710 C   0  0  1  0  0  3  0  0  0  0  0  0
  188.7370  177.8900  145.3700 C   0  0  1  0  0  3  0  0  0  0  0  0
  190.2490  177.9010  145.0820 C   0  0  1  0  0  3  0  0  0  0  0  0
  190.9330  176.6020  145.5060 C   0  0  0  0  0  2  0  0  0  0  0  0
  191.5720  176.7420  146.8500 C   0  0  0  0  0  3  0  0  0  0  0  0
  192.4360  175.8840  147.2500 N   0  0  0  0  0  2  0  0  0  0  0  0
  186.4800  177.0160  144.5800 C   0  0  0  0  0  2  0  0  0  0  0  0
  186.0300  178.4480  144.3340 C   0  0  0  0  0  3  0  0  0  0  0  0
  184.5490  178.4540  144.0230 C   0  0  0  0  0  2  0  0  0  0  0  0
  185.0320  178.8430  145.4020 C   0  0  0  0  0  2  0  0  0  0  0  0
  186.6080  177.9540  139.4990 C   0  0  0  0  0  3  0  0  0  0  0  0
  185.8930  179.5110  140.8070 N   0  0  0  0  0  0  0  0  0  0  0  0
  187.1700  179.4010  141.0120 O   0  0  0  0  0  0  0  0  0  0  0  0
  185.5140  178.6390  139.8850 N   0  0  0  0  0  0  0  0  0  0  0  0
  187.6590  178.4660  140.2350 C   0  0  0  0  0  0  0  0  0  0  0  0
  1 30  1  0  0  0  0
  1  2  2  0  0  0  0
  3  9  1  0  0  0  0
  4  1  1  1  0  0  0
  5 10  1  0  0  0  0
  6  5  2  0  0  0  0
  7  4  1  0  0  0  0
  8 11  2  0  0  0  0
  9  5  1  0  0  0  0
  9 11  1  0  0  0  0
 10  7  2  0  0  0  0
 11  4  1  0  0  0  0
 12 22  1  6  0  0  0
 12 17  1  0  0  0  0
 13 12  1  0  0  0  0
 15 18  1  0  0  0  0
 16  2  1  6  0  0  0
 16 13  1  0  0  0  0
 16 15  1  0  0  0  0
 17 14  1  1  0  0  0
 18 17  1  0  0  0  0
 18 19  1  6  0  0  0
 19 20  1  0  0  0  0
 20 21  2  0  0  0  0
 23 22  1  0  0  0  0
 23 25  1  0  0  0  0
 24 23  1  0  0  0  0
 24 25  1  0  0  0  0
 26 29  1  0  0  0  0
 26 30  2  0  0  0  0
 27 28  1  0  0  0  0
 29 27  2  0  0  0  0
 30 28  1  0  0  0  0
M  END
>  <MODEL>
3

>  <REMARK>
 VINA RESULT:      -7.4      2.107      4.653
  Name = 
  7 active torsions:
  status: ('A' for Active; 'I' for Inactive)
    1  A    between atoms: C_2  and  C_22
    2  A    between atoms: C_3  and  C_4
    3  A    between atoms: C_3  and  C_28
    4  A    between atoms: C_5  and  C_22
    5  A    between atoms: C_8  and  C_10
    6  A    between atoms: C_10  and  C_29
    7  A    between atoms: C_18  and  N_21
                            x       y       z     vdW  Elec       q    Type
                         _______ _______ _______ _____ _____    ______ ____

>  <TORSDO>
F 7

$$$$
=
 OpenBabel10222416413D

 30 33  0  0  1  0  0  0  0  0999 V2000
  188.0900  178.1570  140.8750 C   0  0  0  0  0  0  0  0  0  0  0  0
  186.8260  178.4450  140.7190 N   0  0  0  0  0  0  0  0  0  0  0  0
  187.9680  176.2960  136.6610 C   0  0  0  0  0  1  0  0  0  0  0  0
  189.0340  178.4020  139.7370 C   0  0  1  0  0  3  0  0  0  0  0  0
  189.8600  176.0420  138.3010 C   0  0  0  0  0  0  0  0  0  0  0  0
  190.2040  174.9160  137.7640 N   0  0  0  0  0  2  0  0  0  0  0  0
  190.3410  177.6890  139.9700 C   0  0  0  0  0  3  0  0  0  0  0  0
  187.5410  178.7880  137.9100 O   0  0  0  0  0  0  0  0  0  0  0  0
  188.7340  176.7760  137.8040 N   0  0  0  0  0  0  0  0  0  0  0  0
  190.6770  176.6080  139.3310 N   0  0  0  0  0  0  0  0  0  0  0  0
  188.3990  178.0230  138.4280 C   0  0  0  0  0  0  0  0  0  0  0  0
  184.5570  179.6320  143.5560 C   0  0  1  0  0  3  0  0  0  0  0  0
  185.6750  179.6530  142.5010 C   0  0  0  0  0  2  0  0  0  0  0  0
  182.4210  178.6790  144.1540 O   0  0  0  0  0  1  0  0  0  0  0  0
  184.4570  177.9880  141.0430 C   0  0  0  0  0  2  0  0  0  0  0  0
  185.7840  178.3360  141.7290 C   0  0  1  0  0  3  0  0  0  0  0  0
  183.5680  178.4670  143.3860 C   0  0  1  0  0  3  0  0  0  0  0  0
  183.2110  178.2320  141.9080 C   0  0  1  0  0  3  0  0  0  0  0  0
  182.4140  179.3900  141.3090 C   0  0  0  0  0  2  0  0  0  0  0  0
  181.1100  178.9170  140.7530 C   0  0  0  0  0  3  0  0  0  0  0  0
  180.6510  177.7620  141.0650 N   0  0  0  0  0  2  0  0  0  0  0  0
  185.1190  179.7140  144.9730 C   0  0  0  0  0  2  0  0  0  0  0  0
  185.2910  178.3420  145.6070 C   0  0  0  0  0  3  0  0  0  0  0  0
  186.7650  178.0860  145.8400 C   0  0  0  0  0  2  0  0  0  0  0  0
  185.8800  178.5070  146.9920 C   0  0  0  0  0  2  0  0  0  0  0  0
  189.4070  178.2260  143.0920 C   0  0  0  0  0  3  0  0  0  0  0  0
  189.0810  176.1690  143.6480 N   0  0  0  0  0  0  0  0  0  0  0  0
  188.4830  176.3540  142.5120 O   0  0  0  0  0  0  0  0  0  0  0  0
  189.6600  177.2960  144.0340 N   0  0  0  0  0  0  0  0  0  0  0  0
  188.6530  177.5930  142.1230 C   0  0  0  0  0  0  0  0  0  0  0  0
  1 30  1  0  0  0  0
  2  1  2  0  0  0  0
  3  9  1  0  0  0  0
  4  7  1  0  0  0  0
  4  1  1  1  0  0  0
  5 10  1  0  0  0  0
  6  5  2  0  0  0  0
  8 11  2  0  0  0  0
  9  5  1  0  0  0  0
  9 11  1  0  0  0  0
 10  7  2  0  0  0  0
 11  4  1  0  0  0  0
 12 22  1  1  0  0  0
 13 12  1  0  0  0  0
 15 16  1  0  0  0  0
 15 18  1  0  0  0  0
 16  2  1  6  0  0  0
 16 13  1  0  0  0  0
 17 12  1  0  0  0  0
 17 14  1  1  0  0  0
 18 19  1  6  0  0  0
 18 17  1  0  0  0  0
 20 21  2  0  0  0  0
 20 19  1  0  0  0  0
 22 23  1  0  0  0  0
 23 24  1  0  0  0  0
 23 25  1  0  0  0  0
 24 25  1  0  0  0  0
 26 29  1  0  0  0  0
 27 29  2  0  0  0  0
 28 27  1  0  0  0  0
 30 28  1  0  0  0  0
 30 26  2  0  0  0  0
M  END
>  <MODEL>
4

>  <REMARK>
 VINA RESULT:      -7.2      2.087      2.861
  Name = 
  7 active torsions:
  status: ('A' for Active; 'I' for Inactive)
    1  A    between atoms: C_2  and  C_22
    2  A    between atoms: C_3  and  C_4
    3  A    between atoms: C_3  and  C_28
    4  A    between atoms: C_5  and  C_22
    5  A    between atoms: C_8  and  C_10
    6  A    between atoms: C_10  and  C_29
    7  A    between atoms: C_18  and  N_21
                            x       y       z     vdW  Elec       q    Type
                         _______ _______ _______ _____ _____    ______ ____

>  <TORSDO>
F 7

$$$$
=
 OpenBabel10222416413D

 30 33  0  0  1  0  0  0  0  0999 V2000
  184.6510  178.8400  141.4910 C   0  0  0  0  0  0  0  0  0  0  0  0
  185.9130  178.6600  141.2040 N   0  0  0  0  0  0  0  0  0  0  0  0
  183.5980  175.6130  138.3740 C   0  0  0  0  0  1  0  0  0  0  0  0
  183.6610  178.9370  140.3700 C   0  0  1  0  0  3  0  0  0  0  0  0
  184.5640  177.8760  137.8440 C   0  0  0  0  0  0  0  0  0  0  0  0
  185.0890  177.4210  136.7530 N   0  0  0  0  0  2  0  0  0  0  0  0
  184.2110  179.7820  139.2490 C   0  0  0  0  0  3  0  0  0  0  0  0
  182.4330  176.9000  140.5970 O   0  0  0  0  0  0  0  0  0  0  0  0
  183.8170  177.0140  138.7130 N   0  0  0  0  0  0  0  0  0  0  0  0
  184.6410  179.2760  138.1310 N   0  0  0  0  0  0  0  0  0  0  0  0
  183.2480  177.5680  139.9060 C   0  0  0  0  0  0  0  0  0  0  0  0
  187.9930  176.8360  143.8400 C   0  0  1  0  0  3  0  0  0  0  0  0
  186.8510  177.1230  142.8510 C   0  0  0  0  0  2  0  0  0  0  0  0
  190.3100  177.2670  144.3630 O   0  0  0  0  0  1  0  0  0  0  0  0
  188.3360  178.5760  141.4150 C   0  0  0  0  0  2  0  0  0  0  0  0
  186.9980  178.4790  142.1570 C   0  0  1  0  0  3  0  0  0  0  0  0
  189.2040  177.7690  143.6750 C   0  0  1  0  0  3  0  0  0  0  0  0
  189.5360  178.0150  142.1920 C   0  0  1  0  0  3  0  0  0  0  0  0
  190.0340  176.7540  141.4890 C   0  0  0  0  0  2  0  0  0  0  0  0
  190.1340  176.9610  140.0120 C   0  0  0  0  0  3  0  0  0  0  0  0
  190.5580  176.0210  139.2520 N   0  0  0  0  0  2  0  0  0  0  0  0
  187.4900  176.7870  145.2810 C   0  0  0  0  0  2  0  0  0  0  0  0
  187.5660  178.1430  145.9660 C   0  0  0  0  0  3  0  0  0  0  0  0
  186.4380  178.2540  146.9690 C   0  0  0  0  0  2  0  0  0  0  0  0
  187.8400  177.9380  147.4410 C   0  0  0  0  0  2  0  0  0  0  0  0
  184.5970  179.7540  143.9030 C   0  0  0  0  0  3  0  0  0  0  0  0
  182.8830  178.6280  144.5650 N   0  0  0  0  0  0  0  0  0  0  0  0
  183.0960  178.3010  143.3270 O   0  0  0  0  0  0  0  0  0  0  0  0
  183.7850  179.5170  144.9520 N   0  0  0  0  0  0  0  0  0  0  0  0
  184.1350  178.9570  142.8730 C   0  0  0  0  0  0  0  0  0  0  0  0
  1 30  1  0  0  0  0
  2  1  2  0  0  0  0
  3  9  1  0  0  0  0
  4  1  1  1  0  0  0
  5 10  1  0  0  0  0
  5  9  1  0  0  0  0
  6  5  2  0  0  0  0
  7  4  1  0  0  0  0
  9 11  1  0  0  0  0
 10  7  2  0  0  0  0
 11  4  1  0  0  0  0
 11  8  2  0  0  0  0
 12 22  1  1  0  0  0
 13 12  1  0  0  0  0
 15 16  1  0  0  0  0
 15 18  1  0  0  0  0
 16  2  1  6  0  0  0
 16 13  1  0  0  0  0
 17 12  1  0  0  0  0
 17 14  1  1  0  0  0
 18 19  1  6  0  0  0
 18 17  1  0  0  0  0
 20 19  1  0  0  0  0
 21 20  2  0  0  0  0
 22 23  1  0  0  0  0
 23 24  1  0  0  0  0
 23 25  1  0  0  0  0
 24 25  1  0  0  0  0
 26 29  1  0  0  0  0
 27 29  2  0  0  0  0
 28 27  1  0  0  0  0
 30 28  1  0  0  0  0
 30 26  2  0  0  0  0
M  END
>  <MODEL>
5

>  <REMARK>
 VINA RESULT:      -7.0      2.804      5.763
  Name = 
  7 active torsions:
  status: ('A' for Active; 'I' for Inactive)
    1  A    between atoms: C_2  and  C_22
    2  A    between atoms: C_3  and  C_4
    3  A    between atoms: C_3  and  C_28
    4  A    between atoms: C_5  and  C_22
    5  A    between atoms: C_8  and  C_10
    6  A    between atoms: C_10  and  C_29
    7  A    between atoms: C_18  and  N_21
                            x       y       z     vdW  Elec       q    Type
                         _______ _______ _______ _____ _____    ______ ____

>  <TORSDO>
F 7

$$$$
=
 OpenBabel10222416413D

 30 33  0  0  1  0  0  0  0  0999 V2000
  185.1480  178.4800  141.1420 C   0  0  0  0  0  0  0  0  0  0  0  0
  186.4350  178.2710  141.2140 N   0  0  0  0  0  0  0  0  0  0  0  0
  181.4080  180.6630  139.5650 C   0  0  0  0  0  1  0  0  0  0  0  0
  184.4560  178.2810  139.8270 C   0  0  1  0  0  3  0  0  0  0  0  0
  181.5770  178.1830  139.9620 C   0  0  0  0  0  0  0  0  0  0  0  0
  180.2990  178.1030  140.1460 N   0  0  0  0  0  2  0  0  0  0  0  0
  183.6560  177.0030  139.8390 C   0  0  0  0  0  3  0  0  0  0  0  0
  184.1780  180.5240  139.0510 O   0  0  0  0  0  0  0  0  0  0  0  0
  182.1990  179.4450  139.6840 N   0  0  0  0  0  0  0  0  0  0  0  0
  182.3590  176.9850  139.9320 N   0  0  0  0  0  0  0  0  0  0  0  0
  183.6180  179.4790  139.4800 C   0  0  0  0  0  0  0  0  0  0  0  0
  187.8840  177.1070  144.5530 C   0  0  1  0  0  3  0  0  0  0  0  0
  187.0110  177.1190  143.2880 C   0  0  0  0  0  2  0  0  0  0  0  0
  189.9730  177.8350  145.5210 O   0  0  0  0  0  1  0  0  0  0  0  0
  188.7300  178.4510  142.0030 C   0  0  0  0  0  2  0  0  0  0  0  0
  187.2570  178.3510  142.4130 C   0  0  1  0  0  3  0  0  0  0  0  0
  189.0480  178.1110  144.5120 C   0  0  1  0  0  3  0  0  0  0  0  0
  189.7270  178.1410  143.1310 C   0  0  1  0  0  3  0  0  0  0  0  0
  190.4480  176.8350  142.8060 C   0  0  0  0  0  2  0  0  0  0  0  0
  190.8760  176.7940  141.3750 C   0  0  0  0  0  3  0  0  0  0  0  0
  191.8610  177.5090  140.9720 N   0  0  0  0  0  2  0  0  0  0  0  0
  187.0420  177.2470  145.8190 C   0  0  0  0  0  2  0  0  0  0  0  0
  186.1890  178.5060  145.8090 C   0  0  0  0  0  3  0  0  0  0  0  0
  184.9260  178.2540  146.6050 C   0  0  0  0  0  2  0  0  0  0  0  0
  186.0660  179.0310  147.2240 C   0  0  0  0  0  2  0  0  0  0  0  0
  183.2610  178.2530  142.8860 C   0  0  0  0  0  3  0  0  0  0  0  0
  183.6400  180.1080  143.9170 N   0  0  0  0  0  0  0  0  0  0  0  0
  184.5100  180.0220  142.9580 O   0  0  0  0  0  0  0  0  0  0  0  0
  182.8570  179.0400  143.9030 N   0  0  0  0  0  0  0  0  0  0  0  0
  184.3220  178.9100  142.2930 C   0  0  0  0  0  0  0  0  0  0  0  0
  1  2  2  0  0  0  0
  1 30  1  0  0  0  0
  3  9  1  0  0  0  0
  4  7  1  0  0  0  0
  4  1  1  1  0  0  0
  5  6  2  0  0  0  0
  7 10  2  0  0  0  0
  8 11  2  0  0  0  0
  9  5  1  0  0  0  0
 10  5  1  0  0  0  0
 11  9  1  0  0  0  0
 11  4  1  0  0  0  0
 12 22  1  1  0  0  0
 13 12  1  0  0  0  0
 15 16  1  0  0  0  0
 15 18  1  0  0  0  0
 16  2  1  6  0  0  0
 16 13  1  0  0  0  0
 17 12  1  0  0  0  0
 17 14  1  1  0  0  0
 18 19  1  6  0  0  0
 18 17  1  0  0  0  0
 20 19  1  0  0  0  0
 21 20  2  0  0  0  0
 23 22  1  0  0  0  0
 23 24  1  0  0  0  0
 23 25  1  0  0  0  0
 24 25  1  0  0  0  0
 26 29  1  0  0  0  0
 28 27  1  0  0  0  0
 29 27  2  0  0  0  0
 30 26  2  0  0  0  0
 30 28  1  0  0  0  0
M  END
>  <MODEL>
6

>  <REMARK>
 VINA RESULT:      -6.7      3.002      6.321
  Name = 
  7 active torsions:
  status: ('A' for Active; 'I' for Inactive)
    1  A    between atoms: C_2  and  C_22
    2  A    between atoms: C_3  and  C_4
    3  A    between atoms: C_3  and  C_28
    4  A    between atoms: C_5  and  C_22
    5  A    between atoms: C_8  and  C_10
    6  A    between atoms: C_10  and  C_29
    7  A    between atoms: C_18  and  N_21
                            x       y       z     vdW  Elec       q    Type
                         _______ _______ _______ _____ _____    ______ ____

>  <TORSDO>
F 7

$$$$
=
 OpenBabel10222416413D

 30 33  0  0  1  0  0  0  0  0999 V2000
  189.9170  177.8740  141.7530 C   0  0  0  0  0  0  0  0  0  0  0  0
  189.0270  178.6540  142.3060 N   0  0  0  0  0  0  0  0  0  0  0  0
  188.0540  176.1840  137.8910 C   0  0  0  0  0  1  0  0  0  0  0  0
  190.3350  178.1430  140.3390 C   0  0  1  0  0  3  0  0  0  0  0  0
  190.4330  175.8240  138.6290 C   0  0  0  0  0  0  0  0  0  0  0  0
  190.4930  174.7130  137.9690 N   0  0  0  0  0  2  0  0  0  0  0  0
  191.6010  177.3930  140.0090 C   0  0  0  0  0  3  0  0  0  0  0  0
  188.2520  178.6340  139.2750 O   0  0  0  0  0  0  0  0  0  0  0  0
  189.2290  176.6020  138.6450 N   0  0  0  0  0  0  0  0  0  0  0  0
  191.6130  176.3300  139.2600 N   0  0  0  0  0  0  0  0  0  0  0  0
  189.2170  177.8300  139.3850 C   0  0  0  0  0  0  0  0  0  0  0  0
  187.1140  177.2110  145.2830 C   0  0  1  0  0  3  0  0  0  0  0  0
  187.6190  177.3810  143.8410 C   0  0  0  0  0  2  0  0  0  0  0  0
  187.6180  177.5990  147.6130 O   0  0  0  0  0  1  0  0  0  0  0  0
  189.7580  178.4740  144.6200 C   0  0  0  0  0  2  0  0  0  0  0  0
  188.5520  178.5840  143.6800 C   0  0  1  0  0  3  0  0  0  0  0  0
  187.9040  178.0320  146.3160 C   0  0  1  0  0  3  0  0  0  0  0  0
  189.4170  177.9940  146.0390 C   0  0  1  0  0  3  0  0  0  0  0  0
  190.0130  176.6030  146.2460 C   0  0  0  0  0  2  0  0  0  0  0  0
  191.4180  176.6860  146.7490 C   0  0  0  0  0  3  0  0  0  0  0  0
  191.6600  177.1250  147.9290 N   0  0  0  0  0  2  0  0  0  0  0  0
  185.6090  177.4440  145.3850 C   0  0  0  0  0  2  0  0  0  0  0  0
  185.2120  178.8500  144.9610 C   0  0  0  0  0  3  0  0  0  0  0  0
  184.3320  178.7660  143.7320 C   0  0  0  0  0  2  0  0  0  0  0  0
  183.7110  179.0010  145.0910 C   0  0  0  0  0  2  0  0  0  0  0  0
  191.7480  176.6780  143.1210 C   0  0  0  0  0  3  0  0  0  0  0  0
  190.7800  174.7540  143.2180 N   0  0  0  0  0  0  0  0  0  0  0  0
  189.9990  175.5380  142.5400 O   0  0  0  0  0  0  0  0  0  0  0  0
  191.8630  175.4200  143.5900 N   0  0  0  0  0  0  0  0  0  0  0  0
  190.5430  176.7260  142.4460 C   0  0  0  0  0  0  0  0  0  0  0  0
  1  2  2  0  0  0  0
  1 30  1  0  0  0  0
  3  9  1  0  0  0  0
  4  1  1  1  0  0  0
  5  9  1  0  0  0  0
  5 10  1  0  0  0  0
  6  5  2  0  0  0  0
  7  4  1  0  0  0  0
  8 11  2  0  0  0  0
  9 11  1  0  0  0  0
 10  7  2  0  0  0  0
 11  4  1  0  0  0  0
 12 22  1  6  0  0  0
 12 17  1  0  0  0  0
 13 12  1  0  0  0  0
 15 18  1  0  0  0  0
 16  2  1  6  0  0  0
 16 13  1  0  0  0  0
 16 15  1  0  0  0  0
 17 14  1  1  0  0  0
 18 19  1  6  0  0  0
 18 17  1  0  0  0  0
 19 20  1  0  0  0  0
 20 21  2  0  0  0  0
 23 25  1  0  0  0  0
 23 22  1  0  0  0  0
 24 23  1  0  0  0  0
 24 25  1  0  0  0  0
 26 29  1  0  0  0  0
 27 29  2  0  0  0  0
 28 27  1  0  0  0  0
 30 28  1  0  0  0  0
 30 26  2  0  0  0  0
M  END
>  <MODEL>
7

>  <REMARK>
 VINA RESULT:      -6.7      1.649      3.742
  Name = 
  7 active torsions:
  status: ('A' for Active; 'I' for Inactive)
    1  A    between atoms: C_2  and  C_22
    2  A    between atoms: C_3  and  C_4
    3  A    between atoms: C_3  and  C_28
    4  A    between atoms: C_5  and  C_22
    5  A    between atoms: C_8  and  C_10
    6  A    between atoms: C_10  and  C_29
    7  A    between atoms: C_18  and  N_21
                            x       y       z     vdW  Elec       q    Type
                         _______ _______ _______ _____ _____    ______ ____

>  <TORSDO>
F 7

$$$$
=
 OpenBabel10222416413D

 30 33  0  0  1  0  0  0  0  0999 V2000
  190.2940  177.2140  139.2540 C   0  0  0  0  0  0  0  0  0  0  0  0
  190.8910  177.2070  140.4160 N   0  0  0  0  0  0  0  0  0  0  0  0
  188.6770  175.5070  135.2910 C   0  0  0  0  0  1  0  0  0  0  0  0
  191.0770  176.8240  138.0370 C   0  0  1  0  0  3  0  0  0  0  0  0
  190.2890  174.3300  136.8230 C   0  0  0  0  0  0  0  0  0  0  0  0
  189.8890  173.1770  136.3950 N   0  0  0  0  0  2  0  0  0  0  0  0
  191.7900  175.5150  138.2630 C   0  0  0  0  0  3  0  0  0  0  0  0
  189.8460  177.8760  136.2800 O   0  0  0  0  0  0  0  0  0  0  0  0
  189.7070  175.5400  136.3220 N   0  0  0  0  0  0  0  0  0  0  0  0
  191.3950  174.3970  137.7290 N   0  0  0  0  0  0  0  0  0  0  0  0
  190.1910  176.7930  136.8230 C   0  0  0  0  0  0  0  0  0  0  0  0
  188.7310  176.5250  143.4950 C   0  0  1  0  0  3  0  0  0  0  0  0
  189.3790  176.3200  142.1160 C   0  0  0  0  0  2  0  0  0  0  0  0
  188.9680  177.5820  145.6520 O   0  0  0  0  0  1  0  0  0  0  0  0
  191.3780  177.7320  142.7420 C   0  0  0  0  0  2  0  0  0  0  0  0
  190.2760  177.4910  141.7040 C   0  0  1  0  0  3  0  0  0  0  0  0
  189.3730  177.6540  144.3180 C   0  0  1  0  0  3  0  0  0  0  0  0
  190.9080  177.6450  144.2020 C   0  0  1  0  0  3  0  0  0  0  0  0
  191.5340  176.4110  144.8500 C   0  0  0  0  0  2  0  0  0  0  0  0
  191.8010  176.6400  146.3020 C   0  0  0  0  0  3  0  0  0  0  0  0
  192.2290  175.6850  147.0410 N   0  0  0  0  0  2  0  0  0  0  0  0
  187.2160  176.6740  143.3880 C   0  0  0  0  0  2  0  0  0  0  0  0
  186.7940  178.1080  143.1100 C   0  0  0  0  0  3  0  0  0  0  0  0
  185.4480  178.1020  142.4170 C   0  0  0  0  0  2  0  0  0  0  0  0
  185.5350  178.4140  143.8940 C   0  0  0  0  0  2  0  0  0  0  0  0
  187.8120  176.7910  138.6940 C   0  0  0  0  0  3  0  0  0  0  0  0
  187.1260  178.8070  139.0270 N   0  0  0  0  0  0  0  0  0  0  0  0
  188.4030  178.7980  139.2580 O   0  0  0  0  0  0  0  0  0  0  0  0
  186.7290  177.5930  138.6780 N   0  0  0  0  0  0  0  0  0  0  0  0
  188.8750  177.5910  139.0650 C   0  0  0  0  0  0  0  0  0  0  0  0
  1  2  2  0  0  0  0
  3  9  1  0  0  0  0
  4  7  1  0  0  0  0
  4  1  1  1  0  0  0
  5 10  1  0  0  0  0
  6  5  2  0  0  0  0
  8 11  2  0  0  0  0
  9  5  1  0  0  0  0
  9 11  1  0  0  0  0
 10  7  2  0  0  0  0
 11  4  1  0  0  0  0
 12 22  1  6  0  0  0
 12 17  1  0  0  0  0
 13 12  1  0  0  0  0
 15 18  1  0  0  0  0
 16  2  1  6  0  0  0
 16 13  1  0  0  0  0
 16 15  1  0  0  0  0
 17 14  1  1  0  0  0
 18 17  1  0  0  0  0
 18 19  1  6  0  0  0
 19 20  1  0  0  0  0
 20 21  2  0  0  0  0
 23 22  1  0  0  0  0
 23 25  1  0  0  0  0
 24 23  1  0  0  0  0
 24 25  1  0  0  0  0
 26 30  2  0  0  0  0
 27 28  1  0  0  0  0
 29 26  1  0  0  0  0
 29 27  2  0  0  0  0
 30  1  1  0  0  0  0
 30 28  1  0  0  0  0
M  END
>  <MODEL>
8

>  <REMARK>
 VINA RESULT:      -6.7      2.334      4.896
  Name = 
  7 active torsions:
  status: ('A' for Active; 'I' for Inactive)
    1  A    between atoms: C_2  and  C_22
    2  A    between atoms: C_3  and  C_4
    3  A    between atoms: C_3  and  C_28
    4  A    between atoms: C_5  and  C_22
    5  A    between atoms: C_8  and  C_10
    6  A    between atoms: C_10  and  C_29
    7  A    between atoms: C_18  and  N_21
                            x       y       z     vdW  Elec       q    Type
                         _______ _______ _______ _____ _____    ______ ____

>  <TORSDO>
F 7

$$$$
=
 OpenBabel10222416413D

 30 33  0  0  1  0  0  0  0  0999 V2000
  188.3340  178.0520  139.5740 C   0  0  0  0  0  0  0  0  0  0  0  0
  187.6200  178.2140  140.6550 N   0  0  0  0  0  0  0  0  0  0  0  0
  186.1730  176.0750  136.0170 C   0  0  0  0  0  1  0  0  0  0  0  0
  187.8780  178.7020  138.3020 C   0  0  1  0  0  3  0  0  0  0  0  0
  188.4200  177.2010  135.9000 C   0  0  0  0  0  0  0  0  0  0  0  0
  188.7590  176.4710  134.8880 N   0  0  0  0  0  2  0  0  0  0  0  0
  189.0510  178.9640  137.3920 C   0  0  0  0  0  3  0  0  0  0  0  0
  185.6360  177.9020  138.0970 O   0  0  0  0  0  0  0  0  0  0  0  0
  187.1400  177.0390  136.5250 N   0  0  0  0  0  0  0  0  0  0  0  0
  189.2910  178.2520  136.3310 N   0  0  0  0  0  0  0  0  0  0  0  0
  186.8100  177.8790  137.6390 C   0  0  0  0  0  0  0  0  0  0  0  0
  189.2530  178.2500  144.1100 C   0  0  1  0  0  3  0  0  0  0  0  0
  188.9050  178.6840  142.6770 C   0  0  0  0  0  2  0  0  0  0  0  0
  188.4760  177.0510  146.0560 O   0  0  0  0  0  1  0  0  0  0  0  0
  186.6440  177.5630  142.7880 C   0  0  0  0  0  2  0  0  0  0  0  0
  187.9410  177.7170  141.9850 C   0  0  1  0  0  3  0  0  0  0  0  0
  188.3160  177.1680  144.6740 C   0  0  1  0  0  3  0  0  0  0  0  0
  186.8460  177.4380  144.3050 C   0  0  1  0  0  3  0  0  0  0  0  0
  186.2950  178.6910  144.9820 C   0  0  0  0  0  2  0  0  0  0  0  0
  185.2840  178.3420  146.0260 C   0  0  0  0  0  3  0  0  0  0  0  0
  185.3050  178.9210  147.1690 N   0  0  0  0  0  2  0  0  0  0  0  0
  190.7250  177.8680  144.2420 C   0  0  0  0  0  2  0  0  0  0  0  0
  190.9170  176.3790  144.4840 C   0  0  0  0  0  3  0  0  0  0  0  0
  190.6230  175.6270  143.2040 C   0  0  0  0  0  2  0  0  0  0  0  0
  192.0560  175.8790  143.6210 C   0  0  0  0  0  2  0  0  0  0  0  0
  190.8200  177.5590  140.0590 C   0  0  0  0  0  3  0  0  0  0  0  0
  190.8890  175.6280  139.1050 N   0  0  0  0  0  0  0  0  0  0  0  0
  189.6780  176.0760  138.9670 O   0  0  0  0  0  0  0  0  0  0  0  0
  191.6170  176.5120  139.7690 N   0  0  0  0  0  0  0  0  0  0  0  0
  189.5810  177.2550  139.5280 C   0  0  0  0  0  0  0  0  0  0  0  0
  1  2  2  0  0  0  0
  3  9  1  0  0  0  0
  4  1  1  1  0  0  0
  5 10  1  0  0  0  0
  5  9  1  0  0  0  0
  6  5  2  0  0  0  0
  7  4  1  0  0  0  0
  9 11  1  0  0  0  0
 10  7  2  0  0  0  0
 11  8  2  0  0  0  0
 11  4  1  0  0  0  0
 12 22  1  6  0  0  0
 12 17  1  0  0  0  0
 13 12  1  0  0  0  0
 15 18  1  0  0  0  0
 16  2  1  6  0  0  0
 16 13  1  0  0  0  0
 16 15  1  0  0  0  0
 17 14  1  1  0  0  0
 18 17  1  0  0  0  0
 18 19  1  1  0  0  0
 19 20  1  0  0  0  0
 20 21  2  0  0  0  0
 22 23  1  0  0  0  0
 24 25  1  0  0  0  0
 24 23  1  0  0  0  0
 25 23  1  0  0  0  0
 27 29  2  0  0  0  0
 28 27  1  0  0  0  0
 28 30  1  0  0  0  0
 29 26  1  0  0  0  0
 30  1  1  0  0  0  0
 30 26  2  0  0  0  0
M  END
>  <MODEL>
9

>  <REMARK>
 VINA RESULT:      -6.5      2.346      3.045
  Name = 
  7 active torsions:
  status: ('A' for Active; 'I' for Inactive)
    1  A    between atoms: C_2  and  C_22
    2  A    between atoms: C_3  and  C_4
    3  A    between atoms: C_3  and  C_28
    4  A    between atoms: C_5  and  C_22
    5  A    between atoms: C_8  and  C_10
    6  A    between atoms: C_10  and  C_29
    7  A    between atoms: C_18  and  N_21
                            x       y       z     vdW  Elec       q    Type
                         _______ _______ _______ _____ _____    ______ ____

>  <TORSDO>
F 7

$$$$
