=
 OpenBabel10222420053D

 27 32  0  0  1  0  0  0  0  0999 V2000
  186.0690  179.9220  141.6470 O   0  0  0  0  0  0  0  0  0  0  0  0
  184.8880  178.1550  142.6450 N   0  0  0  0  0  2  0  0  0  0  0  0
  185.2330  178.9860  141.5300 C   0  0  0  0  0  0  0  0  0  0  0  0
  184.8650  179.0680  145.0470 C   0  0  0  0  0  2  0  0  0  0  0  0
  189.0120  176.8270  143.4650 C   0  0  0  0  0  2  0  0  0  0  0  0
  186.6310  178.1790  146.5560 N   0  0  0  0  0  0  0  0  0  0  0  0
  187.2880  177.7410  145.5250 C   0  0  0  0  0  0  0  0  0  0  0  0
  187.5050  177.0050  143.0550 C   0  0  0  0  0  2  0  0  0  0  0  0
  185.2180  178.5550  146.4510 C   0  0  0  0  0  2  0  0  0  0  0  0
  189.9140  177.6960  145.8670 N   0  0  0  0  0  2  0  0  0  0  0  0
  188.6160  177.0730  145.6280 C   0  0  2  0  0  3  0  0  0  0  0  0
  185.4670  178.2070  143.9580 C   0  0  0  0  0  0  0  0  0  0  0  0
  189.2880  177.8600  144.5520 C   0  0  2  0  0  3  0  0  0  0  0  0
  186.6550  177.6280  144.1790 C   0  0  0  0  0  0  0  0  0  0  0  0
  184.7990  178.1630  138.0710 C   0  0  2  0  0  3  0  0  0  0  0  0
  182.4620  177.6700  137.9570 O   0  0  0  0  0  1  0  0  0  0  0  0
  185.2060  179.1130  139.0270 O   0  0  0  0  0  0  0  0  0  0  0  0
  183.1920  179.0980  140.2200 O   0  0  0  0  0  0  0  0  0  0  0  0
  183.5350  177.7280  140.0840 C   0  0  1  0  0  3  0  0  0  0  0  0
  183.6410  177.3460  138.6310 C   0  0  2  0  0  3  0  0  0  0  0  0
  184.5550  178.7690  140.2220 C   0  0  2  0  0  0  0  0  0  0  0  0
  185.9740  177.2600  137.7180 C   0  0  0  0  0  2  0  0  0  0  0  0
  188.0410  177.8540  138.9360 O   0  0  0  0  0  0  0  0  0  0  0  0
  187.2650  177.9870  137.8910 C   0  0  0  0  0  0  0  0  0  0  0  0
  187.7700  178.8310  136.9740 N   0  0  0  0  0  0  0  0  0  0  0  0
  189.0910  178.6160  138.7480 C   0  0  0  0  0  3  0  0  0  0  0  0
  188.9340  179.2340  137.5210 C   0  0  0  0  0  3  0  0  0  0  0  0
  2 12  1  0  0  0  0
  3  1  2  0  0  0  0
  3  2  1  0  0  0  0
  4  9  1  0  0  0  0
  7  6  2  0  0  0  0
  8  5  1  0  0  0  0
  8 14  1  0  0  0  0
  9  6  1  0  0  0  0
 11  7  1  1  0  0  0
 11 10  1  0  0  0  0
 12 14  2  0  0  0  0
 12  4  1  0  0  0  0
 13  5  1  6  0  0  0
 13 11  1  0  0  0  0
 13 10  1  0  0  0  0
 14  7  1  0  0  0  0
 15 22  1  1  0  0  0
 15 20  1  0  0  0  0
 15 17  1  0  0  0  0
 17 21  1  0  0  0  0
 18 21  1  0  0  0  0
 19 18  1  6  0  0  0
 19 21  1  0  0  0  0
 20 16  1  6  0  0  0
 20 19  1  0  0  0  0
 21  3  1  1  0  0  0
 22 24  1  0  0  0  0
 24 23  1  0  0  0  0
 25 27  1  0  0  0  0
 25 24  2  0  0  0  0
 26 23  1  0  0  0  0
 27 26  2  0  0  0  0
M  END
>  <MODEL>
1

>  <REMARK>
 VINA RESULT:      -8.4      0.000      0.000
  Name = 
  4 active torsions:
  status: ('A' for Active; 'I' for Inactive)
    1  A    between atoms: C_1  and  C_3
    2  A    between atoms: C_1  and  C_6
    3  A    between atoms: C_19  and  N_21
    4  A    between atoms: C_22  and  C_27
                            x       y       z     vdW  Elec       q    Type
                         _______ _______ _______ _____ _____    ______ ____

>  <TORSDO>
F 4

$$$$
=
 OpenBabel10222420053D

 27 32  0  0  1  0  0  0  0  0999 V2000
  190.4640  175.6350  142.9590 O   0  0  0  0  0  0  0  0  0  0  0  0
  191.3110  177.7030  142.2420 N   0  0  0  0  0  2  0  0  0  0  0  0
  190.8580  176.7950  143.2530 C   0  0  0  0  0  0  0  0  0  0  0  0
  192.8180  177.3400  140.1920 C   0  0  0  0  0  2  0  0  0  0  0  0
  187.9750  178.1380  139.3910 C   0  0  0  0  0  2  0  0  0  0  0  0
  191.6410  176.7640  138.0790 N   0  0  0  0  0  0  0  0  0  0  0  0
  190.5210  177.1710  138.5930 C   0  0  0  0  0  0  0  0  0  0  0  0
  188.9640  177.7890  140.5630 C   0  0  0  0  0  2  0  0  0  0  0  0
  192.8030  176.4750  138.9240 C   0  0  0  0  0  2  0  0  0  0  0  0
  188.8180  178.1510  136.8170 N   0  0  0  0  0  2  0  0  0  0  0  0
  189.2370  177.1960  137.8370 C   0  0  2  0  0  3  0  0  0  0  0  0
  191.4530  177.4190  140.8420 C   0  0  0  0  0  0  0  0  0  0  0  0
  188.8410  178.5840  138.2180 C   0  0  2  0  0  3  0  0  0  0  0  0
  190.3660  177.3980  140.0590 C   0  0  0  0  0  0  0  0  0  0  0  0
  189.5100  177.6280  146.4650 C   0  0  2  0  0  3  0  0  0  0  0  0
  191.4350  177.4840  147.8760 O   0  0  0  0  0  1  0  0  0  0  0  0
  189.7240  178.0120  145.1290 O   0  0  0  0  0  0  0  0  0  0  0  0
  192.0410  177.6850  145.1770 O   0  0  0  0  0  0  0  0  0  0  0  0
  191.5020  176.4870  145.7130 C   0  0  1  0  0  3  0  0  0  0  0  0
  190.6790  176.7750  146.9410 C   0  0  2  0  0  3  0  0  0  0  0  0
  190.8090  177.2480  144.6710 C   0  0  2  0  0  0  0  0  0  0  0  0
  188.2020  176.8550  146.5700 C   0  0  0  0  0  2  0  0  0  0  0  0
  186.5670  177.4630  144.8180 O   0  0  0  0  0  0  0  0  0  0  0  0
  187.0740  177.6540  146.0090 C   0  0  0  0  0  0  0  0  0  0  0  0
  186.4490  178.6330  146.6870 N   0  0  0  0  0  0  0  0  0  0  0  0
  185.5870  178.3190  144.6630 C   0  0  0  0  0  3  0  0  0  0  0  0
  185.5020  179.0600  145.8280 C   0  0  0  0  0  3  0  0  0  0  0  0
  1  3  2  0  0  0  0
  2  3  1  0  0  0  0
  4 12  1  0  0  0  0
  5  8  1  0  0  0  0
  6  7  2  0  0  0  0
  6  9  1  0  0  0  0
  7 14  1  0  0  0  0
  9  4  1  0  0  0  0
 10 13  1  0  0  0  0
 11 10  1  6  0  0  0
 11 13  1  0  0  0  0
 11  7  1  0  0  0  0
 12  2  1  0  0  0  0
 13  5  1  1  0  0  0
 14  8  1  0  0  0  0
 14 12  2  0  0  0  0
 15 22  1  6  0  0  0
 15 20  1  0  0  0  0
 17 15  1  0  0  0  0
 19 18  1  1  0  0  0
 19 20  1  0  0  0  0
 20 16  1  1  0  0  0
 21  3  1  6  0  0  0
 21 17  1  0  0  0  0
 21 18  1  0  0  0  0
 21 19  1  0  0  0  0
 23 24  1  0  0  0  0
 24 22  1  0  0  0  0
 24 25  2  0  0  0  0
 26 23  1  0  0  0  0
 26 27  2  0  0  0  0
 27 25  1  0  0  0  0
M  END
>  <MODEL>
2

>  <REMARK>
 VINA RESULT:      -8.3      3.479      8.389
  Name = 
  4 active torsions:
  status: ('A' for Active; 'I' for Inactive)
    1  A    between atoms: C_1  and  C_3
    2  A    between atoms: C_1  and  C_6
    3  A    between atoms: C_19  and  N_21
    4  A    between atoms: C_22  and  C_27
                            x       y       z     vdW  Elec       q    Type
                         _______ _______ _______ _____ _____    ______ ____

>  <TORSDO>
F 4

$$$$
=
 OpenBabel10222420053D

 27 32  0  0  1  0  0  0  0  0999 V2000
  185.6930  179.7800  141.8720 O   0  0  0  0  0  0  0  0  0  0  0  0
  184.6780  178.0710  143.1200 N   0  0  0  0  0  2  0  0  0  0  0  0
  184.8520  178.8440  141.9270 C   0  0  0  0  0  0  0  0  0  0  0  0
  185.0100  179.1020  145.4510 C   0  0  0  0  0  2  0  0  0  0  0  0
  188.8800  176.7600  143.3850 C   0  0  0  0  0  2  0  0  0  0  0  0
  186.9810  178.2780  146.7230 N   0  0  0  0  0  0  0  0  0  0  0  0
  187.4800  177.7860  145.6300 C   0  0  0  0  0  0  0  0  0  0  0  0
  187.3280  176.9270  143.1950 C   0  0  0  0  0  2  0  0  0  0  0  0
  185.5680  178.6560  146.8100 C   0  0  0  0  0  2  0  0  0  0  0  0
  190.1270  177.7420  145.5810 N   0  0  0  0  0  2  0  0  0  0  0  0
  188.8090  177.1150  145.5680 C   0  0  2  0  0  3  0  0  0  0  0  0
  185.4460  178.1840  144.3290 C   0  0  0  0  0  0  0  0  0  0  0  0
  189.3120  177.8440  144.3670 C   0  0  2  0  0  3  0  0  0  0  0  0
  186.6530  177.6100  144.4000 C   0  0  0  0  0  0  0  0  0  0  0  0
  181.8880  178.4680  139.9510 C   0  0  2  0  0  3  0  0  0  0  0  0
  182.7330  178.6800  137.7240 O   0  0  0  0  0  1  0  0  0  0  0  0
  182.7550  177.9170  140.9130 O   0  0  0  0  0  0  0  0  0  0  0  0
  184.6890  178.1300  139.6130 O   0  0  0  0  0  0  0  0  0  0  0  0
  184.0770  179.4080  139.5520 C   0  0  1  0  0  3  0  0  0  0  0  0
  182.6920  179.3110  138.9690 C   0  0  2  0  0  3  0  0  0  0  0  0
  183.9880  178.5660  140.7460 C   0  0  2  0  0  0  0  0  0  0  0  0
  180.8280  179.3130  140.6440 C   0  0  0  0  0  2  0  0  0  0  0  0
  181.4270  179.3470  143.0420 O   0  0  0  0  0  0  0  0  0  0  0  0
  180.6750  178.8990  142.0690 C   0  0  0  0  0  0  0  0  0  0  0  0
  179.7300  178.0430  142.4960 N   0  0  0  0  0  0  0  0  0  0  0  0
  181.0060  178.7940  144.1530 C   0  0  0  0  0  3  0  0  0  0  0  0
  179.9420  177.9740  143.8250 C   0  0  0  0  0  3  0  0  0  0  0  0
  1  3  2  0  0  0  0
  2 12  1  0  0  0  0
  3  2  1  0  0  0  0
  4  9  1  0  0  0  0
  6  9  1  0  0  0  0
  7  6  2  0  0  0  0
  8  5  1  0  0  0  0
  8 14  1  0  0  0  0
 11 10  1  1  0  0  0
 11  7  1  0  0  0  0
 12 14  2  0  0  0  0
 12  4  1  0  0  0  0
 13  5  1  6  0  0  0
 13 11  1  0  0  0  0
 13 10  1  0  0  0  0
 14  7  1  0  0  0  0
 15 22  1  1  0  0  0
 15 17  1  0  0  0  0
 18 21  1  0  0  0  0
 19 18  1  6  0  0  0
 19 21  1  0  0  0  0
 20 16  1  6  0  0  0
 20 19  1  0  0  0  0
 20 15  1  0  0  0  0
 21 17  1  0  0  0  0
 21  3  1  1  0  0  0
 22 24  1  0  0  0  0
 23 26  1  0  0  0  0
 24 25  2  0  0  0  0
 24 23  1  0  0  0  0
 25 27  1  0  0  0  0
 27 26  2  0  0  0  0
M  END
>  <MODEL>
3

>  <REMARK>
 VINA RESULT:      -8.0      2.410      4.367
  Name = 
  4 active torsions:
  status: ('A' for Active; 'I' for Inactive)
    1  A    between atoms: C_1  and  C_3
    2  A    between atoms: C_1  and  C_6
    3  A    between atoms: C_19  and  N_21
    4  A    between atoms: C_22  and  C_27
                            x       y       z     vdW  Elec       q    Type
                         _______ _______ _______ _____ _____    ______ ____

>  <TORSDO>
F 4

$$$$
=
 OpenBabel10222420053D

 27 32  0  0  1  0  0  0  0  0999 V2000
  191.6160  177.5430  140.5980 O   0  0  0  0  0  0  0  0  0  0  0  0
  189.8230  176.2680  141.4140 N   0  0  0  0  0  2  0  0  0  0  0  0
  190.6600  176.7590  140.3600 C   0  0  0  0  0  0  0  0  0  0  0  0
  191.1370  175.9070  143.5930 C   0  0  0  0  0  2  0  0  0  0  0  0
  186.5530  177.8030  143.9440 C   0  0  0  0  0  2  0  0  0  0  0  0
  190.2840  177.1320  145.5820 N   0  0  0  0  0  0  0  0  0  0  0  0
  189.1590  177.3410  144.9690 C   0  0  0  0  0  0  0  0  0  0  0  0
  187.6620  177.5180  142.8670 C   0  0  0  0  0  2  0  0  0  0  0  0
  191.4840  176.7220  144.8470 C   0  0  0  0  0  2  0  0  0  0  0  0
  187.0680  177.4980  146.5860 N   0  0  0  0  0  2  0  0  0  0  0  0
  188.0010  178.0350  145.6010 C   0  0  2  0  0  3  0  0  0  0  0  0
  189.9870  176.5160  142.8190 C   0  0  0  0  0  0  0  0  0  0  0  0
  186.9640  177.0390  145.1970 C   0  0  2  0  0  3  0  0  0  0  0  0
  189.0190  177.1460  143.4960 C   0  0  0  0  0  0  0  0  0  0  0  0
  189.0680  176.7240  137.1520 C   0  0  2  0  0  3  0  0  0  0  0  0
  190.7460  175.7370  135.7640 O   0  0  0  0  0  1  0  0  0  0  0  0
  189.0370  176.3220  138.5000 O   0  0  0  0  0  0  0  0  0  0  0  0
  191.1460  175.3080  138.4750 O   0  0  0  0  0  0  0  0  0  0  0  0
  191.3600  176.5890  137.9030 C   0  0  1  0  0  3  0  0  0  0  0  0
  190.5130  176.7720  136.6710 C   0  0  2  0  0  3  0  0  0  0  0  0
  190.3640  176.3700  138.9530 C   0  0  2  0  0  0  0  0  0  0  0  0
  188.4080  178.0890  137.0110 C   0  0  0  0  0  2  0  0  0  0  0  0
  186.5340  178.6390  138.5260 O   0  0  0  0  0  0  0  0  0  0  0  0
  186.9860  178.0330  137.4580 C   0  0  0  0  0  0  0  0  0  0  0  0
  186.0230  177.3740  136.7890 N   0  0  0  0  0  0  0  0  0  0  0  0
  185.2480  178.3960  138.6040 C   0  0  0  0  0  3  0  0  0  0  0  0
  184.9150  177.6030  137.5210 C   0  0  0  0  0  3  0  0  0  0  0  0
  2 12  1  0  0  0  0
  3  1  2  0  0  0  0
  3  2  1  0  0  0  0
  4  9  1  0  0  0  0
  7  6  2  0  0  0  0
  8 14  1  0  0  0  0
  8  5  1  0  0  0  0
  9  6  1  0  0  0  0
 11  7  1  1  0  0  0
 11 10  1  0  0  0  0
 12 14  2  0  0  0  0
 12  4  1  0  0  0  0
 13  5  1  6  0  0  0
 13 11  1  0  0  0  0
 13 10  1  0  0  0  0
 14  7  1  0  0  0  0
 15 22  1  1  0  0  0
 15 17  1  0  0  0  0
 17 21  1  0  0  0  0
 18 21  1  0  0  0  0
 19 18  1  6  0  0  0
 19 21  1  0  0  0  0
 20 16  1  6  0  0  0
 20 15  1  0  0  0  0
 20 19  1  0  0  0  0
 21  3  1  1  0  0  0
 22 24  1  0  0  0  0
 23 26  1  0  0  0  0
 24 23  1  0  0  0  0
 25 24  2  0  0  0  0
 25 27  1  0  0  0  0
 27 26  2  0  0  0  0
M  END
>  <MODEL>
4

>  <REMARK>
 VINA RESULT:      -7.9      2.328      5.035
  Name = 
  4 active torsions:
  status: ('A' for Active; 'I' for Inactive)
    1  A    between atoms: C_1  and  C_3
    2  A    between atoms: C_1  and  C_6
    3  A    between atoms: C_19  and  N_21
    4  A    between atoms: C_22  and  C_27
                            x       y       z     vdW  Elec       q    Type
                         _______ _______ _______ _____ _____    ______ ____

>  <TORSDO>
F 4

$$$$
=
 OpenBabel10222420053D

 27 32  0  0  1  0  0  0  0  0999 V2000
  188.0380  176.1790  142.9930 O   0  0  0  0  0  0  0  0  0  0  0  0
  188.3580  178.4020  142.3120 N   0  0  0  0  0  2  0  0  0  0  0  0
  188.6220  177.2820  143.1640 C   0  0  0  0  0  0  0  0  0  0  0  0
  185.9970  178.4020  141.2970 C   0  0  0  0  0  2  0  0  0  0  0  0
  189.8090  177.3320  138.2880 C   0  0  0  0  0  2  0  0  0  0  0  0
  185.8910  178.5250  138.8150 N   0  0  0  0  0  0  0  0  0  0  0  0
  187.1440  178.1940  138.7470 C   0  0  0  0  0  0  0  0  0  0  0  0
  189.5280  177.9290  139.7150 C   0  0  0  0  0  2  0  0  0  0  0  0
  185.3000  179.0030  140.0680 C   0  0  0  0  0  2  0  0  0  0  0  0
  187.7800  176.8430  136.5600 N   0  0  0  0  0  2  0  0  0  0  0  0
  187.8660  177.9890  137.4590 C   0  0  2  0  0  3  0  0  0  0  0  0
  187.5040  178.4130  141.1570 C   0  0  0  0  0  0  0  0  0  0  0  0
  188.5050  176.6910  137.8260 C   0  0  2  0  0  3  0  0  0  0  0  0
  188.0380  178.2520  139.9400 C   0  0  0  0  0  0  0  0  0  0  0  0
  189.7960  177.6670  146.5260 C   0  0  2  0  0  3  0  0  0  0  0  0
  192.0560  176.9060  146.3650 O   0  0  0  0  0  1  0  0  0  0  0  0
  189.2420  178.2720  145.3830 O   0  0  0  0  0  0  0  0  0  0  0  0
  190.9150  177.5430  143.9180 O   0  0  0  0  0  0  0  0  0  0  0  0
  190.5230  176.3740  144.6200 C   0  0  1  0  0  3  0  0  0  0  0  0
  190.7340  176.5450  146.1020 C   0  0  2  0  0  3  0  0  0  0  0  0
  189.5710  177.4390  144.3020 C   0  0  2  0  0  0  0  0  0  0  0  0
  188.6790  177.1300  147.4100 C   0  0  0  0  0  2  0  0  0  0  0  0
  186.5910  177.2300  146.0900 O   0  0  0  0  0  0  0  0  0  0  0  0
  187.3680  177.7250  147.0210 C   0  0  0  0  0  0  0  0  0  0  0  0
  186.8430  178.8150  147.6070 N   0  0  0  0  0  0  0  0  0  0  0  0
  185.5220  177.9850  146.0250 C   0  0  0  0  0  3  0  0  0  0  0  0
  185.6670  178.9840  146.9720 C   0  0  0  0  0  3  0  0  0  0  0  0
  1  3  2  0  0  0  0
  2  3  1  0  0  0  0
  5  8  1  0  0  0  0
  6  9  1  0  0  0  0
  7  6  2  0  0  0  0
  7 14  1  0  0  0  0
  8 14  1  0  0  0  0
  9  4  1  0  0  0  0
 10 13  1  0  0  0  0
 11 10  1  6  0  0  0
 11 13  1  0  0  0  0
 11  7  1  0  0  0  0
 12  4  1  0  0  0  0
 12  2  1  0  0  0  0
 13  5  1  6  0  0  0
 14 12  2  0  0  0  0
 15 22  1  1  0  0  0
 17 15  1  0  0  0  0
 18 21  1  0  0  0  0
 19 18  1  6  0  0  0
 19 20  1  0  0  0  0
 20 16  1  6  0  0  0
 20 15  1  0  0  0  0
 21  3  1  6  0  0  0
 21 19  1  0  0  0  0
 21 17  1  0  0  0  0
 23 24  1  0  0  0  0
 24 22  1  0  0  0  0
 24 25  2  0  0  0  0
 26 23  1  0  0  0  0
 26 27  2  0  0  0  0
 27 25  1  0  0  0  0
M  END
>  <MODEL>
5

>  <REMARK>
 VINA RESULT:      -7.9      3.028      7.768
  Name = 
  4 active torsions:
  status: ('A' for Active; 'I' for Inactive)
    1  A    between atoms: C_1  and  C_3
    2  A    between atoms: C_1  and  C_6
    3  A    between atoms: C_19  and  N_21
    4  A    between atoms: C_22  and  C_27
                            x       y       z     vdW  Elec       q    Type
                         _______ _______ _______ _____ _____    ______ ____

>  <TORSDO>
F 4

$$$$
=
 OpenBabel10222420053D

 27 32  0  0  1  0  0  0  0  0999 V2000
  183.0880  178.6300  142.8820 O   0  0  0  0  0  0  0  0  0  0  0  0
  185.4250  178.4440  142.7750 N   0  0  0  0  0  2  0  0  0  0  0  0
  184.1310  178.5920  142.1780 C   0  0  0  0  0  0  0  0  0  0  0  0
  184.9210  179.2290  145.1690 C   0  0  0  0  0  2  0  0  0  0  0  0
  189.2470  176.9150  144.3560 C   0  0  0  0  0  2  0  0  0  0  0  0
  186.3050  178.1930  146.9570 N   0  0  0  0  0  0  0  0  0  0  0  0
  187.1530  177.7850  146.0620 C   0  0  0  0  0  0  0  0  0  0  0  0
  187.8640  177.1730  143.6520 C   0  0  0  0  0  2  0  0  0  0  0  0
  184.9570  178.6280  146.5820 C   0  0  0  0  0  2  0  0  0  0  0  0
  189.6450  177.6200  146.9410 N   0  0  0  0  0  2  0  0  0  0  0  0
  188.4110  177.0610  146.3990 C   0  0  2  0  0  3  0  0  0  0  0  0
  185.7160  178.4040  144.1800 C   0  0  0  0  0  0  0  0  0  0  0  0
  189.3140  177.8780  145.5360 C   0  0  2  0  0  3  0  0  0  0  0  0
  186.8140  177.7680  144.6090 C   0  0  0  0  0  0  0  0  0  0  0  0
  185.1190  178.7660  138.7390 C   0  0  2  0  0  3  0  0  0  0  0  0
  183.1870  177.9180  137.6130 O   0  0  0  0  0  1  0  0  0  0  0  0
  184.9040  179.4480  139.9520 O   0  0  0  0  0  0  0  0  0  0  0  0
  182.6960  178.7180  140.2230 O   0  0  0  0  0  0  0  0  0  0  0  0
  183.4310  177.5350  139.9520 C   0  0  1  0  0  3  0  0  0  0  0  0
  184.1160  177.6270  138.6140 C   0  0  2  0  0  3  0  0  0  0  0  0
  184.0160  178.6540  140.6940 C   0  0  2  0  0  0  0  0  0  0  0  0
  186.5450  178.2360  138.6990 C   0  0  0  0  0  2  0  0  0  0  0  0
  187.1220  178.6040  136.3240 O   0  0  0  0  0  0  0  0  0  0  0  0
  186.9000  177.7870  137.3220 C   0  0  0  0  0  0  0  0  0  0  0  0
  187.0520  176.4960  136.9780 N   0  0  0  0  0  0  0  0  0  0  0  0
  187.4260  177.8760  135.2760 C   0  0  0  0  0  3  0  0  0  0  0  0
  187.3850  176.5510  135.6730 C   0  0  0  0  0  3  0  0  0  0  0  0
  2 12  1  0  0  0  0
  3  2  1  0  0  0  0
  3  1  2  0  0  0  0
  4  9  1  0  0  0  0
  7  6  2  0  0  0  0
  8  5  1  0  0  0  0
  8 14  1  0  0  0  0
  9  6  1  0  0  0  0
 11  7  1  1  0  0  0
 11 10  1  0  0  0  0
 12 14  2  0  0  0  0
 12  4  1  0  0  0  0
 13  5  1  6  0  0  0
 13 11  1  0  0  0  0
 13 10  1  0  0  0  0
 14  7  1  0  0  0  0
 15 22  1  1  0  0  0
 15 17  1  0  0  0  0
 17 21  1  0  0  0  0
 18 21  1  0  0  0  0
 19 18  1  6  0  0  0
 19 21  1  0  0  0  0
 20 16  1  6  0  0  0
 20 15  1  0  0  0  0
 20 19  1  0  0  0  0
 21  3  1  1  0  0  0
 23 24  1  0  0  0  0
 24 22  1  0  0  0  0
 25 24  2  0  0  0  0
 26 27  2  0  0  0  0
 26 23  1  0  0  0  0
 27 25  1  0  0  0  0
M  END
>  <MODEL>
6

>  <REMARK>
 VINA RESULT:      -7.9      1.337      1.597
  Name = 
  4 active torsions:
  status: ('A' for Active; 'I' for Inactive)
    1  A    between atoms: C_1  and  C_3
    2  A    between atoms: C_1  and  C_6
    3  A    between atoms: C_19  and  N_21
    4  A    between atoms: C_22  and  C_27
                            x       y       z     vdW  Elec       q    Type
                         _______ _______ _______ _____ _____    ______ ____

>  <TORSDO>
F 4

$$$$
=
 OpenBabel10222420053D

 27 32  0  0  1  0  0  0  0  0999 V2000
  189.9550  178.8310  142.8080 O   0  0  0  0  0  0  0  0  0  0  0  0
  188.9500  176.8380  143.5340 N   0  0  0  0  0  2  0  0  0  0  0  0
  189.6360  177.6380  142.5620 C   0  0  0  0  0  0  0  0  0  0  0  0
  189.4250  176.7290  146.0570 C   0  0  0  0  0  2  0  0  0  0  0  0
  185.0150  178.5130  144.6070 C   0  0  0  0  0  2  0  0  0  0  0  0
  187.9420  178.1150  147.4930 N   0  0  0  0  0  0  0  0  0  0  0  0
  187.1000  178.2300  146.5110 C   0  0  0  0  0  0  0  0  0  0  0  0
  186.4280  178.1580  144.0150 C   0  0  0  0  0  2  0  0  0  0  0  0
  189.3200  177.6720  147.2640 C   0  0  0  0  0  2  0  0  0  0  0  0
  184.5790  178.4810  147.2810 N   0  0  0  0  0  2  0  0  0  0  0  0
  185.7990  178.9470  146.6300 C   0  0  2  0  0  3  0  0  0  0  0  0
  188.6180  177.2250  144.8760 C   0  0  0  0  0  0  0  0  0  0  0  0
  184.9610  177.8870  145.9970 C   0  0  2  0  0  3  0  0  0  0  0  0
  187.4790  177.8890  145.1090 C   0  0  0  0  0  0  0  0  0  0  0  0
  189.4340  177.0730  139.0310 C   0  0  2  0  0  3  0  0  0  0  0  0
  191.5650  176.1010  138.5510 O   0  0  0  0  0  1  0  0  0  0  0  0
  188.8940  176.8300  140.3080 O   0  0  0  0  0  0  0  0  0  0  0  0
  190.8880  176.0330  141.2390 O   0  0  0  0  0  0  0  0  0  0  0  0
  191.2510  177.2530  140.6130 C   0  0  1  0  0  3  0  0  0  0  0  0
  190.9470  177.2060  139.1380 C   0  0  2  0  0  3  0  0  0  0  0  0
  189.9340  177.0600  141.2220 C   0  0  2  0  0  0  0  0  0  0  0  0
  188.8210  178.3400  138.4520 C   0  0  0  0  0  2  0  0  0  0  0  0
  187.0080  177.4030  137.0570 O   0  0  0  0  0  0  0  0  0  0  0  0
  187.3920  178.1130  138.0870 C   0  0  0  0  0  0  0  0  0  0  0  0
  186.3590  178.5950  138.7990 N   0  0  0  0  0  0  0  0  0  0  0  0
  185.6970  177.3960  137.0490 C   0  0  0  0  0  3  0  0  0  0  0  0
  185.2770  178.1410  138.1360 C   0  0  0  0  0  3  0  0  0  0  0  0
  2 12  1  0  0  0  0
  3  1  2  0  0  0  0
  3  2  1  0  0  0  0
  4  9  1  0  0  0  0
  7  6  2  0  0  0  0
  8  5  1  0  0  0  0
  8 14  1  0  0  0  0
  9  6  1  0  0  0  0
 11  7  1  1  0  0  0
 11 10  1  0  0  0  0
 12 14  2  0  0  0  0
 12  4  1  0  0  0  0
 13  5  1  6  0  0  0
 13 11  1  0  0  0  0
 13 10  1  0  0  0  0
 14  7  1  0  0  0  0
 15 22  1  1  0  0  0
 15 20  1  0  0  0  0
 15 17  1  0  0  0  0
 17 21  1  0  0  0  0
 19 21  1  0  0  0  0
 19 18  1  1  0  0  0
 20 16  1  1  0  0  0
 20 19  1  0  0  0  0
 21 18  1  0  0  0  0
 21  3  1  1  0  0  0
 23 24  1  0  0  0  0
 24 22  1  0  0  0  0
 24 25  2  0  0  0  0
 26 23  1  0  0  0  0
 26 27  2  0  0  0  0
 27 25  1  0  0  0  0
M  END
>  <MODEL>
7

>  <REMARK>
 VINA RESULT:      -7.9      2.343      4.739
  Name = 
  4 active torsions:
  status: ('A' for Active; 'I' for Inactive)
    1  A    between atoms: C_1  and  C_3
    2  A    between atoms: C_1  and  C_6
    3  A    between atoms: C_19  and  N_21
    4  A    between atoms: C_22  and  C_27
                            x       y       z     vdW  Elec       q    Type
                         _______ _______ _______ _____ _____    ______ ____

>  <TORSDO>
F 4

$$$$
=
 OpenBabel10222420053D

 27 32  0  0  1  0  0  0  0  0999 V2000
  190.2120  176.4590  142.1950 O   0  0  0  0  0  0  0  0  0  0  0  0
  188.7860  178.3090  142.4250 N   0  0  0  0  0  2  0  0  0  0  0  0
  189.7850  177.4040  142.9100 C   0  0  0  0  0  0  0  0  0  0  0  0
  189.0660  178.6320  139.8910 C   0  0  0  0  0  2  0  0  0  0  0  0
  184.4440  178.6210  141.7250 C   0  0  0  0  0  2  0  0  0  0  0  0
  187.0250  178.2460  138.5230 N   0  0  0  0  0  0  0  0  0  0  0  0
  186.2940  178.3270  139.5940 C   0  0  0  0  0  0  0  0  0  0  0  0
  185.9130  178.2540  142.1500 C   0  0  0  0  0  2  0  0  0  0  0  0
  188.4720  178.0330  138.6070 C   0  0  0  0  0  2  0  0  0  0  0  0
  183.8600  179.2770  139.1620 N   0  0  0  0  0  2  0  0  0  0  0  0
  184.8060  178.2450  139.5750 C   0  0  2  0  0  3  0  0  0  0  0  0
  188.2180  178.3240  141.1060 C   0  0  0  0  0  0  0  0  0  0  0  0
  184.5590  179.4360  140.4410 C   0  0  2  0  0  3  0  0  0  0  0  0
  186.8890  178.2420  140.9590 C   0  0  0  0  0  0  0  0  0  0  0  0
  189.7710  177.5760  146.4880 C   0  0  2  0  0  3  0  0  0  0  0  0
  192.0550  177.1230  147.0270 O   0  0  0  0  0  1  0  0  0  0  0  0
  189.5190  178.2240  145.2640 O   0  0  0  0  0  0  0  0  0  0  0  0
  191.6580  177.8670  144.3840 O   0  0  0  0  0  0  0  0  0  0  0  0
  191.2470  176.5910  144.8490 C   0  0  1  0  0  3  0  0  0  0  0  0
  190.9530  176.6300  146.3260 C   0  0  2  0  0  3  0  0  0  0  0  0
  190.2930  177.5570  144.3020 C   0  0  2  0  0  0  0  0  0  0  0  0
  188.5270  176.8140  146.9260 C   0  0  0  0  0  2  0  0  0  0  0  0
  186.5530  177.5150  145.6150 O   0  0  0  0  0  0  0  0  0  0  0  0
  187.3000  177.6270  146.6830 C   0  0  0  0  0  0  0  0  0  0  0  0
  186.8280  178.5360  147.5540 N   0  0  0  0  0  0  0  0  0  0  0  0
  185.5560  178.3580  145.7400 C   0  0  0  0  0  3  0  0  0  0  0  0
  185.7170  179.0050  146.9520 C   0  0  0  0  0  3  0  0  0  0  0  0
  1  3  2  0  0  0  0
  2  3  1  0  0  0  0
  4 12  1  0  0  0  0
  5  8  1  0  0  0  0
  6  9  1  0  0  0  0
  6  7  2  0  0  0  0
  7 14  1  0  0  0  0
  9  4  1  0  0  0  0
 10 13  1  0  0  0  0
 11 10  1  6  0  0  0
 11  7  1  0  0  0  0
 11 13  1  0  0  0  0
 12  2  1  0  0  0  0
 13  5  1  1  0  0  0
 14 12  2  0  0  0  0
 14  8  1  0  0  0  0
 15 22  1  6  0  0  0
 17 15  1  0  0  0  0
 19 18  1  1  0  0  0
 19 20  1  0  0  0  0
 20 15  1  0  0  0  0
 20 16  1  1  0  0  0
 21  3  1  6  0  0  0
 21 18  1  0  0  0  0
 21 19  1  0  0  0  0
 21 17  1  0  0  0  0
 23 26  1  0  0  0  0
 23 24  1  0  0  0  0
 24 22  1  0  0  0  0
 24 25  2  0  0  0  0
 26 27  2  0  0  0  0
 27 25  1  0  0  0  0
M  END
>  <MODEL>
8

>  <REMARK>
 VINA RESULT:      -7.9      3.165      7.891
  Name = 
  4 active torsions:
  status: ('A' for Active; 'I' for Inactive)
    1  A    between atoms: C_1  and  C_3
    2  A    between atoms: C_1  and  C_6
    3  A    between atoms: C_19  and  N_21
    4  A    between atoms: C_22  and  C_27
                            x       y       z     vdW  Elec       q    Type
                         _______ _______ _______ _____ _____    ______ ____

>  <TORSDO>
F 4

$$$$
=
 OpenBabel10222420053D

 27 32  0  0  1  0  0  0  0  0999 V2000
  188.0020  178.6580  140.9850 O   0  0  0  0  0  0  0  0  0  0  0  0
  187.5580  177.7640  143.1090 N   0  0  0  0  0  2  0  0  0  0  0  0
  187.1630  178.4000  141.8880 C   0  0  0  0  0  0  0  0  0  0  0  0
  189.6370  176.3910  142.4770 C   0  0  0  0  0  2  0  0  0  0  0  0
  189.1290  177.7660  147.2290 C   0  0  0  0  0  2  0  0  0  0  0  0
  191.5030  176.4440  144.1200 N   0  0  0  0  0  0  0  0  0  0  0  0
  190.6940  176.9080  145.0220 C   0  0  0  0  0  0  0  0  0  0  0  0
  188.5270  178.0780  145.8110 C   0  0  0  0  0  2  0  0  0  0  0  0
  191.1540  176.4800  142.6970 C   0  0  0  0  0  2  0  0  0  0  0  0
  191.3200  176.1940  147.4940 N   0  0  0  0  0  2  0  0  0  0  0  0
  191.1050  177.1700  146.4310 C   0  0  2  0  0  3  0  0  0  0  0  0
  188.8710  177.2810  143.4330 C   0  0  0  0  0  0  0  0  0  0  0  0
  189.9450  176.4870  147.0770 C   0  0  2  0  0  3  0  0  0  0  0  0
  189.3590  177.4700  144.6660 C   0  0  0  0  0  0  0  0  0  0  0  0
  184.0540  179.0860  140.2450 C   0  0  2  0  0  3  0  0  0  0  0  0
  182.4900  178.9590  142.0490 O   0  0  0  0  0  1  0  0  0  0  0  0
  185.3560  179.5200  140.5580 O   0  0  0  0  0  0  0  0  0  0  0  0
  185.1200  179.2670  142.8730 O   0  0  0  0  0  0  0  0  0  0  0  0
  184.6680  178.0350  142.3330 C   0  0  1  0  0  3  0  0  0  0  0  0
  183.5060  178.2570  141.3990 C   0  0  2  0  0  3  0  0  0  0  0  0
  185.7420  178.8060  141.7030 C   0  0  2  0  0  0  0  0  0  0  0  0
  184.0850  178.2680  138.9610 C   0  0  0  0  0  2  0  0  0  0  0  0
  182.5380  177.8650  137.0760 O   0  0  0  0  0  0  0  0  0  0  0  0
  182.8970  178.5770  138.1140 C   0  0  0  0  0  0  0  0  0  0  0  0
  182.0620  179.6030  138.3510 N   0  0  0  0  0  0  0  0  0  0  0  0
  181.4490  178.4040  136.5840 C   0  0  0  0  0  3  0  0  0  0  0  0
  181.1390  179.4950  137.3750 C   0  0  0  0  0  3  0  0  0  0  0  0
  1  3  2  0  0  0  0
  2 12  1  0  0  0  0
  3  2  1  0  0  0  0
  4  9  1  0  0  0  0
  4 12  1  0  0  0  0
  6  7  2  0  0  0  0
  8  5  1  0  0  0  0
  9  6  1  0  0  0  0
 11  7  1  6  0  0  0
 11 13  1  0  0  0  0
 11 10  1  0  0  0  0
 12 14  2  0  0  0  0
 13  5  1  1  0  0  0
 13 10  1  0  0  0  0
 14  7  1  0  0  0  0
 14  8  1  0  0  0  0
 15 22  1  6  0  0  0
 15 17  1  0  0  0  0
 15 20  1  0  0  0  0
 17 21  1  0  0  0  0
 19 18  1  1  0  0  0
 20 16  1  1  0  0  0
 20 19  1  0  0  0  0
 21  3  1  1  0  0  0
 21 19  1  0  0  0  0
 21 18  1  0  0  0  0
 23 24  1  0  0  0  0
 24 25  2  0  0  0  0
 24 22  1  0  0  0  0
 26 23  1  0  0  0  0
 26 27  2  0  0  0  0
 27 25  1  0  0  0  0
M  END
>  <MODEL>
9

>  <REMARK>
 VINA RESULT:      -7.9      2.505      4.283
  Name = 
  4 active torsions:
  status: ('A' for Active; 'I' for Inactive)
    1  A    between atoms: C_1  and  C_3
    2  A    between atoms: C_1  and  C_6
    3  A    between atoms: C_19  and  N_21
    4  A    between atoms: C_22  and  C_27
                            x       y       z     vdW  Elec       q    Type
                         _______ _______ _______ _____ _____    ______ ____

>  <TORSDO>
F 4

$$$$
