=
 OpenBabel10222421253D

 40 45  0  0  1  0  0  0  0  0999 V2000
  188.2790  176.3460  136.8540 C   0  0  0  0  0  3  0  0  0  0  0  0
  187.5820  177.0510  137.8380 C   0  0  0  0  0  0  0  0  0  0  0  0
  190.2310  176.2320  138.3060 C   0  0  0  0  0  0  0  0  0  0  0  0
  188.2040  177.3510  139.0520 C   0  0  0  0  0  3  0  0  0  0  0  0
  189.5930  175.9350  137.0900 C   0  0  0  0  0  3  0  0  0  0  0  0
  189.5210  176.9450  139.2940 C   0  0  0  0  0  0  0  0  0  0  0  0
  190.1280  175.8940  142.6310 C   0  0  0  0  0  2  0  0  0  0  0  0
  190.1250  177.2720  140.5430 N   0  0  0  0  0  0  0  0  0  0  0  0
  189.1340  178.6410  142.3370 C   0  0  0  0  0  2  0  0  0  0  0  0
  188.6620  177.7360  143.4660 C   0  0  1  0  0  3  0  0  0  0  0  0
  190.4520  178.2190  141.6630 C   0  0  1  0  0  3  0  0  0  0  0  0
  190.9040  176.9010  141.7620 C   0  0  1  0  0  3  0  0  0  0  0  0
  188.7030  176.2950  142.9970 C   0  0  0  0  0  2  0  0  0  0  0  0
  189.4740  177.9410  144.7410 C   0  0  0  0  0  2  0  0  0  0  0  0
  188.8860  177.1400  145.9030 C   0  0  2  0  0  3  0  0  0  0  0  0
  187.6030  177.6110  146.1820 O   0  0  0  0  0  1  0  0  0  0  0  0
  189.2830  178.0610  148.3290 C   0  0  0  0  0  1  0  0  0  0  0  0
  191.8930  177.1620  148.2010 O   0  0  0  0  0  1  0  0  0  0  0  0
  190.0730  175.8790  147.6530 O   0  0  0  0  0  0  0  0  0  0  0  0
  189.7290  177.1610  147.1880 C   0  0  1  0  0  0  0  0  0  0  0  0
  191.1310  176.6650  147.1410 C   0  0  1  0  0  3  0  0  0  0  0  0
  191.6420  175.7700  138.5760 C   0  0  1  0  0  3  0  0  0  0  0  0
  192.0870  174.8040  137.5210 C   0  0  0  0  0  2  0  0  0  0  0  0
  192.6350  176.7070  138.0670 N   0  0  0  0  0  2  0  0  0  0  0  0
  193.0460  175.8010  137.0670 N   0  0  0  0  0  0  0  0  0  0  0  0
  194.7990  174.5250  135.2930 O   0  0  0  0  0  0  0  0  0  0  0  0
  195.1920  174.7230  136.4740 C   0  0  0  0  0  0  0  0  0  0  0  0
  194.3280  175.3520  137.4240 N   0  0  0  0  0  2  0  0  0  0  0  0
  197.3430  173.8010  135.6900 C   0  0  0  0  0  2  0  0  0  0  0  0
  197.6130  175.1530  136.3110 C   0  0  0  0  0  2  0  0  0  0  0  0
  196.5430  174.2500  136.9000 C   0  0  0  0  0  3  0  0  0  0  0  0
  186.1930  177.5130  137.5780 C   0  0  0  0  0  2  0  0  0  0  0  0
  185.9390  178.6990  138.3180 O   0  0  0  0  0  0  0  0  0  0  0  0
  183.9420  178.2650  139.3920 O   0  0  0  0  0  0  0  0  0  0  0  0
  185.1250  178.6980  139.4520 C   0  0  0  0  0  0  0  0  0  0  0  0
  185.6520  179.1890  140.6870 N   0  0  0  0  0  2  0  0  0  0  0  0
  184.8590  179.2610  141.9040 C   0  0  0  0  0  2  0  0  0  0  0  0
  185.2990  178.1820  142.8760 C   0  0  0  0  0  2  0  0  0  0  0  0
  184.8260  178.5350  144.2690 C   0  0  0  0  0  2  0  0  0  0  0  0
  183.3680  178.9400  144.2200 C   0  0  0  0  0  1  0  0  0  0  0  0
  1  5  2  0  0  0  0
  1  2  1  0  0  0  0
  2  4  2  0  0  0  0
  3  6  2  0  0  0  0
  4  6  1  0  0  0  0
  5  3  1  0  0  0  0
  6  8  1  0  0  0  0
  7 13  1  0  0  0  0
  8 11  1  0  0  0  0
  8 12  1  0  0  0  0
  9 10  1  0  0  0  0
 10 14  1  1  0  0  0
 11 12  1  0  0  0  0
 11  9  1  1  0  0  0
 12  7  1  1  0  0  0
 13 10  1  0  0  0  0
 14 15  1  0  0  0  0
 15 16  1  1  0  0  0
 15 20  1  0  0  0  0
 20 19  1  0  0  0  0
 20 17  1  1  0  0  0
 21 20  1  0  0  0  0
 21 19  1  0  0  0  0
 21 18  1  1  0  0  0
 22  3  1  6  0  0  0
 23 22  1  0  0  0  0
 24 22  1  0  0  0  0
 25 28  1  0  0  0  0
 25 23  1  0  0  0  0
 25 24  1  0  0  0  0
 26 27  2  0  0  0  0
 27 31  1  0  0  0  0
 27 28  1  0  0  0  0
 29 30  1  0  0  0  0
 29 31  1  0  0  0  0
 30 31  1  0  0  0  0
 32  2  1  0  0  0  0
 32 33  1  0  0  0  0
 33 35  1  0  0  0  0
 34 35  2  0  0  0  0
 35 36  1  0  0  0  0
 36 37  1  0  0  0  0
 37 38  1  0  0  0  0
 38 39  1  0  0  0  0
 40 39  1  0  0  0  0
M  END
>  <MODEL>
1

>  <REMARK>
 VINA RESULT:      -7.9      0.000      0.000
  Name = 
  13 active torsions:
  status: ('A' for Active; 'I' for Inactive)
    1  A    between atoms: C_2  and  C_10
    2  A    between atoms: C_4  and  C_14
    3  A    between atoms: C_4  and  C_36
    4  A    between atoms: C_8  and  C_17
    5  A    between atoms: C_9  and  C_23
    6  A    between atoms: C_9  and  N_33
    7  A    between atoms: N_12  and  C_22
    8  A    between atoms: C_14  and  C_30
    9  A    between atoms: C_15  and  C_37
   10  A    between atoms: C_17  and  O_34
   11  A    between atoms: C_18  and  O_34
   12  A    between atoms: C_19  and  C_23
   13  A    between atoms: N_27  and  N_38
                            x       y       z     vdW  Elec       q    Type
                         _______ _______ _______ _____ _____    ______ ____

>  <TORSDO>
F 13

$$$$
=
 OpenBabel10222421253D

 40 45  0  0  1  0  0  0  0  0999 V2000
  189.0310  177.8340  137.2130 C   0  0  0  0  0  3  0  0  0  0  0  0
  188.2620  178.2070  138.3170 C   0  0  0  0  0  0  0  0  0  0  0  0
  190.7080  176.8730  138.6950 C   0  0  0  0  0  0  0  0  0  0  0  0
  188.7110  177.9200  139.6070 C   0  0  0  0  0  3  0  0  0  0  0  0
  190.2430  177.1660  137.4010 C   0  0  0  0  0  3  0  0  0  0  0  0
  189.9260  177.2540  139.8040 C   0  0  0  0  0  0  0  0  0  0  0  0
  189.1740  175.5980  142.8530 C   0  0  0  0  0  2  0  0  0  0  0  0
  190.3550  176.9820  141.1360 N   0  0  0  0  0  0  0  0  0  0  0  0
  189.9900  178.4060  143.1140 C   0  0  0  0  0  2  0  0  0  0  0  0
  188.8810  177.8120  143.9720 C   0  0  1  0  0  3  0  0  0  0  0  0
  190.9370  177.3820  142.4630 C   0  0  1  0  0  3  0  0  0  0  0  0
  190.5340  176.0560  142.2950 C   0  0  1  0  0  3  0  0  0  0  0  0
  188.1890  176.7100  143.1950 C   0  0  0  0  0  2  0  0  0  0  0  0
  189.4030  177.3160  145.3170 C   0  0  0  0  0  2  0  0  0  0  0  0
  188.8790  178.1810  146.4630 C   0  0  2  0  0  3  0  0  0  0  0  0
  189.5870  177.8820  147.6260 O   0  0  0  0  0  1  0  0  0  0  0  0
  186.6320  176.8690  146.1080 C   0  0  0  0  0  1  0  0  0  0  0  0
  185.2410  179.0980  146.9630 O   0  0  0  0  0  1  0  0  0  0  0  0
  187.0270  178.2010  148.0860 O   0  0  0  0  0  0  0  0  0  0  0  0
  187.3710  178.0430  146.7320 C   0  0  1  0  0  0  0  0  0  0  0  0
  186.6100  179.2280  147.2090 C   0  0  1  0  0  3  0  0  0  0  0  0
  192.0050  176.1310  138.9050 C   0  0  1  0  0  3  0  0  0  0  0  0
  192.3440  175.3170  137.6940 C   0  0  0  0  0  2  0  0  0  0  0  0
  193.1670  176.9600  138.6130 N   0  0  0  0  0  2  0  0  0  0  0  0
  193.4790  176.2000  137.4660 N   0  0  0  0  0  0  0  0  0  0  0  0
  195.2100  175.1750  135.5160 O   0  0  0  0  0  0  0  0  0  0  0  0
  195.5070  174.9910  136.7270 C   0  0  0  0  0  0  0  0  0  0  0  0
  194.6470  175.4760  137.7600 N   0  0  0  0  0  2  0  0  0  0  0  0
  196.4930  173.4200  138.3570 C   0  0  0  0  0  2  0  0  0  0  0  0
  196.4380  172.7270  137.0140 C   0  0  0  0  0  2  0  0  0  0  0  0
  196.7330  174.2150  137.0850 C   0  0  0  0  0  3  0  0  0  0  0  0
  186.9850  178.9430  138.1180 C   0  0  0  0  0  2  0  0  0  0  0  0
  185.9530  178.3160  138.8670 O   0  0  0  0  0  0  0  0  0  0  0  0
  184.3720  179.7640  139.7230 O   0  0  0  0  0  0  0  0  0  0  0  0
  185.3220  178.9610  139.9320 C   0  0  0  0  0  0  0  0  0  0  0  0
  185.7610  178.6940  141.2660 N   0  0  0  0  0  2  0  0  0  0  0  0
  185.1860  179.3540  142.4280 C   0  0  0  0  0  2  0  0  0  0  0  0
  184.5560  178.3270  143.3490 C   0  0  0  0  0  2  0  0  0  0  0  0
  183.3470  178.9330  144.0280 C   0  0  0  0  0  2  0  0  0  0  0  0
  182.1970  178.9990  143.0450 C   0  0  0  0  0  1  0  0  0  0  0  0
  1  5  2  0  0  0  0
  1  2  1  0  0  0  0
  2  4  2  0  0  0  0
  3  6  2  0  0  0  0
  4  6  1  0  0  0  0
  5  3  1  0  0  0  0
  6  8  1  0  0  0  0
  7 13  1  0  0  0  0
  8 12  1  0  0  0  0
  8 11  1  0  0  0  0
  9 10  1  0  0  0  0
 10 14  1  1  0  0  0
 11  9  1  1  0  0  0
 12 11  1  0  0  0  0
 12  7  1  1  0  0  0
 13 10  1  0  0  0  0
 14 15  1  0  0  0  0
 15 20  1  0  0  0  0
 15 16  1  1  0  0  0
 20 17  1  6  0  0  0
 20 21  1  0  0  0  0
 20 19  1  0  0  0  0
 21 18  1  6  0  0  0
 21 19  1  0  0  0  0
 22  3  1  6  0  0  0
 23 22  1  0  0  0  0
 24 22  1  0  0  0  0
 25 23  1  0  0  0  0
 25 28  1  0  0  0  0
 25 24  1  0  0  0  0
 26 27  2  0  0  0  0
 27 31  1  0  0  0  0
 27 28  1  0  0  0  0
 30 31  1  0  0  0  0
 30 29  1  0  0  0  0
 31 29  1  0  0  0  0
 32  2  1  0  0  0  0
 32 33  1  0  0  0  0
 33 35  1  0  0  0  0
 34 35  2  0  0  0  0
 35 36  1  0  0  0  0
 36 37  1  0  0  0  0
 37 38  1  0  0  0  0
 38 39  1  0  0  0  0
 40 39  1  0  0  0  0
M  END
>  <MODEL>
2

>  <REMARK>
 VINA RESULT:      -7.6      1.316      2.044
  Name = 
  13 active torsions:
  status: ('A' for Active; 'I' for Inactive)
    1  A    between atoms: C_2  and  C_10
    2  A    between atoms: C_4  and  C_14
    3  A    between atoms: C_4  and  C_36
    4  A    between atoms: C_8  and  C_17
    5  A    between atoms: C_9  and  C_23
    6  A    between atoms: C_9  and  N_33
    7  A    between atoms: N_12  and  C_22
    8  A    between atoms: C_14  and  C_30
    9  A    between atoms: C_15  and  C_37
   10  A    between atoms: C_17  and  O_34
   11  A    between atoms: C_18  and  O_34
   12  A    between atoms: C_19  and  C_23
   13  A    between atoms: N_27  and  N_38
                            x       y       z     vdW  Elec       q    Type
                         _______ _______ _______ _____ _____    ______ ____

>  <TORSDO>
F 13

$$$$
=
 OpenBabel10222421253D

 40 45  0  0  1  0  0  0  0  0999 V2000
  184.8330  178.2470  142.7710 C   0  0  0  0  0  3  0  0  0  0  0  0
  186.2000  177.9940  142.9020 C   0  0  0  0  0  0  0  0  0  0  0  0
  185.1330  178.6840  140.3940 C   0  0  0  0  0  0  0  0  0  0  0  0
  187.0360  178.0880  141.7870 C   0  0  0  0  0  3  0  0  0  0  0  0
  184.3030  178.5830  141.5230 C   0  0  0  0  0  3  0  0  0  0  0  0
  186.5120  178.4270  140.5350 C   0  0  0  0  0  0  0  0  0  0  0  0
  187.3620  177.1220  137.3440 C   0  0  0  0  0  2  0  0  0  0  0  0
  187.3960  178.5180  139.4200 N   0  0  0  0  0  0  0  0  0  0  0  0
  189.6060  177.4480  139.2090 C   0  0  0  0  0  2  0  0  0  0  0  0
  189.5020  176.2420  138.2860 C   0  0  1  0  0  3  0  0  0  0  0  0
  188.7570  178.6650  138.8000 C   0  0  1  0  0  3  0  0  0  0  0  0
  187.6610  178.5060  137.9500 C   0  0  1  0  0  3  0  0  0  0  0  0
  188.0390  175.9390  138.0280 C   0  0  0  0  0  2  0  0  0  0  0  0
  190.2770  176.4480  136.9870 C   0  0  0  0  0  2  0  0  0  0  0  0
  191.3630  175.3860  136.8210 C   0  0  2  0  0  3  0  0  0  0  0  0
  191.1070  174.3280  137.6930 O   0  0  0  0  0  1  0  0  0  0  0  0
  193.1170  176.6050  138.3480 C   0  0  0  0  0  1  0  0  0  0  0  0
  194.7420  176.9460  136.1390 O   0  0  0  0  0  1  0  0  0  0  0  0
  193.7840  174.9460  136.7210 O   0  0  0  0  0  0  0  0  0  0  0  0
  192.7960  175.8950  137.0410 C   0  0  1  0  0  0  0  0  0  0  0  0
  193.6910  176.0680  135.8650 C   0  0  1  0  0  3  0  0  0  0  0  0
  184.5630  179.0230  139.0390 C   0  0  1  0  0  3  0  0  0  0  0  0
  183.2440  178.3420  138.8390 C   0  0  0  0  0  2  0  0  0  0  0  0
  183.8500  180.2940  139.0440 N   0  0  0  0  0  2  0  0  0  0  0  0
  182.6070  179.6500  138.8680 N   0  0  0  0  0  0  0  0  0  0  0  0
  179.9940  180.4310  138.2280 O   0  0  0  0  0  0  0  0  0  0  0  0
  180.8350  180.3550  137.2930 C   0  0  0  0  0  0  0  0  0  0  0  0
  182.1760  179.9420  137.5630 N   0  0  0  0  0  2  0  0  0  0  0  0
  179.2610  181.6300  135.8820 C   0  0  0  0  0  2  0  0  0  0  0  0
  180.6610  182.1100  135.5710 C   0  0  0  0  0  2  0  0  0  0  0  0
  180.4170  180.6450  135.8880 C   0  0  0  0  0  3  0  0  0  0  0  0
  186.7700  177.6620  144.2350 C   0  0  0  0  0  2  0  0  0  0  0  0
  185.8540  178.0430  145.2530 O   0  0  0  0  0  0  0  0  0  0  0  0
  185.7690  179.3930  147.1220 O   0  0  0  0  0  0  0  0  0  0  0  0
  186.2830  178.4060  146.5290 C   0  0  0  0  0  0  0  0  0  0  0  0
  187.3110  177.6400  147.1630 N   0  0  0  0  0  2  0  0  0  0  0  0
  187.8440  177.9750  148.4740 C   0  0  0  0  0  2  0  0  0  0  0  0
  189.3580  178.0480  148.4160 C   0  0  0  0  0  2  0  0  0  0  0  0
  189.8550  177.2580  147.2250 C   0  0  0  0  0  2  0  0  0  0  0  0
  191.2430  176.7270  147.5150 C   0  0  0  0  0  1  0  0  0  0  0  0
  1  2  1  0  0  0  0
  2 32  1  0  0  0  0
  3  6  2  0  0  0  0
  3  5  1  0  0  0  0
  4  2  2  0  0  0  0
  5  1  2  0  0  0  0
  6  4  1  0  0  0  0
  7 13  1  0  0  0  0
  8  6  1  0  0  0  0
 10 14  1  6  0  0  0
 10  9  1  0  0  0  0
 11  9  1  1  0  0  0
 11  8  1  0  0  0  0
 12  7  1  1  0  0  0
 12 11  1  0  0  0  0
 12  8  1  0  0  0  0
 13 10  1  0  0  0  0
 15 14  1  0  0  0  0
 15 20  1  0  0  0  0
 15 16  1  1  0  0  0
 19 20  1  0  0  0  0
 20 17  1  1  0  0  0
 21 18  1  1  0  0  0
 21 19  1  0  0  0  0
 21 20  1  0  0  0  0
 22 24  1  0  0  0  0
 22  3  1  1  0  0  0
 23 25  1  0  0  0  0
 23 22  1  0  0  0  0
 25 24  1  0  0  0  0
 27 28  1  0  0  0  0
 27 26  2  0  0  0  0
 28 25  1  0  0  0  0
 29 31  1  0  0  0  0
 30 29  1  0  0  0  0
 30 31  1  0  0  0  0
 31 27  1  0  0  0  0
 32 33  1  0  0  0  0
 33 35  1  0  0  0  0
 35 34  2  0  0  0  0
 35 36  1  0  0  0  0
 36 37  1  0  0  0  0
 38 37  1  0  0  0  0
 39 40  1  0  0  0  0
 39 38  1  0  0  0  0
M  END
>  <MODEL>
3

>  <REMARK>
 VINA RESULT:      -7.3      3.249      9.728
  Name = 
  13 active torsions:
  status: ('A' for Active; 'I' for Inactive)
    1  A    between atoms: C_2  and  C_10
    2  A    between atoms: C_4  and  C_14
    3  A    between atoms: C_4  and  C_36
    4  A    between atoms: C_8  and  C_17
    5  A    between atoms: C_9  and  C_23
    6  A    between atoms: C_9  and  N_33
    7  A    between atoms: N_12  and  C_22
    8  A    between atoms: C_14  and  C_30
    9  A    between atoms: C_15  and  C_37
   10  A    between atoms: C_17  and  O_34
   11  A    between atoms: C_18  and  O_34
   12  A    between atoms: C_19  and  C_23
   13  A    between atoms: N_27  and  N_38
                            x       y       z     vdW  Elec       q    Type
                         _______ _______ _______ _____ _____    ______ ____

>  <TORSDO>
F 13

$$$$
=
 OpenBabel10222421253D

 40 45  0  0  1  0  0  0  0  0999 V2000
  184.8810  178.3810  142.2610 C   0  0  0  0  0  3  0  0  0  0  0  0
  184.7320  178.7480  140.9220 C   0  0  0  0  0  0  0  0  0  0  0  0
  187.2700  178.0590  141.9150 C   0  0  0  0  0  0  0  0  0  0  0  0
  185.8440  178.7690  140.0770 C   0  0  0  0  0  3  0  0  0  0  0  0
  186.1430  178.0450  142.7550 C   0  0  0  0  0  3  0  0  0  0  0  0
  187.1110  178.4310  140.5640 C   0  0  0  0  0  0  0  0  0  0  0  0
  188.1790  178.1560  137.1890 C   0  0  0  0  0  2  0  0  0  0  0  0
  188.2230  178.4590  139.6720 N   0  0  0  0  0  0  0  0  0  0  0  0
  189.7150  176.5740  139.1280 C   0  0  0  0  0  2  0  0  0  0  0  0
  189.3670  176.0310  137.7490 C   0  0  1  0  0  3  0  0  0  0  0  0
  189.6280  178.1040  139.2740 C   0  0  1  0  0  3  0  0  0  0  0  0
  188.8600  178.8540  138.3810 C   0  0  1  0  0  3  0  0  0  0  0  0
  188.0560  176.6400  137.2920 C   0  0  0  0  0  2  0  0  0  0  0  0
  190.4870  176.2730  136.7410 C   0  0  0  0  0  2  0  0  0  0  0  0
  191.4610  175.0950  136.7100 C   0  0  2  0  0  3  0  0  0  0  0  0
  191.0520  174.1370  137.6370 O   0  0  0  0  0  1  0  0  0  0  0  0
  193.2620  176.2040  138.2660 C   0  0  0  0  0  1  0  0  0  0  0  0
  195.0060  176.2820  136.1230 O   0  0  0  0  0  1  0  0  0  0  0  0
  193.8280  174.4150  136.7410 O   0  0  0  0  0  0  0  0  0  0  0  0
  192.9280  175.4700  136.9760 C   0  0  1  0  0  0  0  0  0  0  0  0
  193.8850  175.5000  135.8370 C   0  0  1  0  0  3  0  0  0  0  0  0
  188.6400  177.7200  142.4480 C   0  0  1  0  0  3  0  0  0  0  0  0
  188.9110  178.4740  143.7140 C   0  0  0  0  0  2  0  0  0  0  0  0
  188.6360  176.4950  143.2370 N   0  0  0  0  0  2  0  0  0  0  0  0
  188.8800  177.2080  144.4300 N   0  0  0  0  0  0  0  0  0  0  0  0
  189.7240  177.1110  147.1000 O   0  0  0  0  0  0  0  0  0  0  0  0
  190.5700  176.8540  146.2020 C   0  0  0  0  0  0  0  0  0  0  0  0
  190.1950  176.9090  144.8240 N   0  0  0  0  0  2  0  0  0  0  0  0
  192.0150  175.7050  147.8400 C   0  0  0  0  0  2  0  0  0  0  0  0
  192.2190  175.0460  146.4950 C   0  0  0  0  0  2  0  0  0  0  0  0
  191.9830  176.5440  146.5750 C   0  0  0  0  0  3  0  0  0  0  0  0
  183.3840  179.0800  140.3880 C   0  0  0  0  0  2  0  0  0  0  0  0
  183.5110  179.9990  139.3120 O   0  0  0  0  0  0  0  0  0  0  0  0
  181.6100  179.6630  138.0460 O   0  0  0  0  0  0  0  0  0  0  0  0
  182.3990  180.4690  138.6110 C   0  0  0  0  0  0  0  0  0  0  0  0
  182.1610  181.8770  138.5460 N   0  0  0  0  0  2  0  0  0  0  0  0
  181.0510  182.4510  137.8030 C   0  0  0  0  0  2  0  0  0  0  0  0
  181.3890  183.8670  137.3770 C   0  0  0  0  0  2  0  0  0  0  0  0
  180.8620  184.1130  135.9800 C   0  0  0  0  0  2  0  0  0  0  0  0
  180.6310  182.7860  135.2870 C   0  0  0  0  0  1  0  0  0  0  0  0
  1  5  1  0  0  0  0
  2  1  2  0  0  0  0
  3  5  2  0  0  0  0
  4  6  2  0  0  0  0
  4  2  1  0  0  0  0
  6  3  1  0  0  0  0
  7 13  1  0  0  0  0
  8  6  1  0  0  0  0
 10 14  1  6  0  0  0
 10  9  1  0  0  0  0
 11  9  1  6  0  0  0
 11  8  1  0  0  0  0
 12  7  1  6  0  0  0
 12 11  1  0  0  0  0
 12  8  1  0  0  0  0
 13 10  1  0  0  0  0
 15 14  1  0  0  0  0
 15 20  1  0  0  0  0
 15 16  1  1  0  0  0
 19 20  1  0  0  0  0
 20 17  1  1  0  0  0
 21 18  1  1  0  0  0
 21 19  1  0  0  0  0
 21 20  1  0  0  0  0
 22  3  1  1  0  0  0
 22 24  1  0  0  0  0
 22 23  1  0  0  0  0
 23 25  1  0  0  0  0
 24 25  1  0  0  0  0
 25 28  1  0  0  0  0
 27 31  1  0  0  0  0
 27 26  2  0  0  0  0
 28 27  1  0  0  0  0
 30 31  1  0  0  0  0
 30 29  1  0  0  0  0
 31 29  1  0  0  0  0
 32  2  1  0  0  0  0
 33 32  1  0  0  0  0
 34 35  2  0  0  0  0
 35 33  1  0  0  0  0
 36 35  1  0  0  0  0
 37 36  1  0  0  0  0
 38 37  1  0  0  0  0
 39 38  1  0  0  0  0
 40 39  1  0  0  0  0
M  END
>  <MODEL>
4

>  <REMARK>
 VINA RESULT:      -7.2      3.011      8.141
  Name = 
  13 active torsions:
  status: ('A' for Active; 'I' for Inactive)
    1  A    between atoms: C_2  and  C_10
    2  A    between atoms: C_4  and  C_14
    3  A    between atoms: C_4  and  C_36
    4  A    between atoms: C_8  and  C_17
    5  A    between atoms: C_9  and  C_23
    6  A    between atoms: C_9  and  N_33
    7  A    between atoms: N_12  and  C_22
    8  A    between atoms: C_14  and  C_30
    9  A    between atoms: C_15  and  C_37
   10  A    between atoms: C_17  and  O_34
   11  A    between atoms: C_18  and  O_34
   12  A    between atoms: C_19  and  C_23
   13  A    between atoms: N_27  and  N_38
                            x       y       z     vdW  Elec       q    Type
                         _______ _______ _______ _____ _____    ______ ____

>  <TORSDO>
F 13

$$$$
=
 OpenBabel10222421253D

 40 45  0  0  1  0  0  0  0  0999 V2000
  184.7180  178.3620  142.2850 C   0  0  0  0  0  3  0  0  0  0  0  0
  184.5700  178.5850  140.9140 C   0  0  0  0  0  0  0  0  0  0  0  0
  187.1330  178.2110  142.0090 C   0  0  0  0  0  0  0  0  0  0  0  0
  185.6960  178.6180  140.0890 C   0  0  0  0  0  3  0  0  0  0  0  0
  185.9920  178.1830  142.8280 C   0  0  0  0  0  3  0  0  0  0  0  0
  186.9750  178.4360  140.6260 C   0  0  0  0  0  0  0  0  0  0  0  0
  188.1080  178.1140  137.2760 C   0  0  0  0  0  2  0  0  0  0  0  0
  188.1010  178.4720  139.7520 N   0  0  0  0  0  0  0  0  0  0  0  0
  189.6470  176.6130  139.2760 C   0  0  0  0  0  2  0  0  0  0  0  0
  189.3370  176.0320  137.9030 C   0  0  1  0  0  3  0  0  0  0  0  0
  189.5210  178.1430  139.3850 C   0  0  1  0  0  3  0  0  0  0  0  0
  188.7510  178.8550  138.4630 C   0  0  1  0  0  3  0  0  0  0  0  0
  188.0190  176.5980  137.4110 C   0  0  0  0  0  2  0  0  0  0  0  0
  190.4680  176.2780  136.9090 C   0  0  0  0  0  2  0  0  0  0  0  0
  191.4300  175.0910  136.8670 C   0  0  2  0  0  3  0  0  0  0  0  0
  190.9380  174.0730  137.6820 O   0  0  0  0  0  1  0  0  0  0  0  0
  193.0970  176.4950  138.3300 C   0  0  0  0  0  1  0  0  0  0  0  0
  195.1440  175.7740  136.6190 O   0  0  0  0  0  1  0  0  0  0  0  0
  193.6600  174.2840  137.5310 O   0  0  0  0  0  0  0  0  0  0  0  0
  192.8750  175.4220  137.2750 C   0  0  1  0  0  0  0  0  0  0  0  0
  193.9900  175.0260  136.3740 C   0  0  1  0  0  3  0  0  0  0  0  0
  188.5140  178.0420  142.5930 C   0  0  1  0  0  3  0  0  0  0  0  0
  188.4820  178.2420  144.0770 C   0  0  0  0  0  2  0  0  0  0  0  0
  188.8400  176.6440  142.8380 N   0  0  0  0  0  2  0  0  0  0  0  0
  188.7990  176.8300  144.2360 N   0  0  0  0  0  0  0  0  0  0  0  0
  189.4990  176.7930  146.9480 O   0  0  0  0  0  0  0  0  0  0  0  0
  190.4240  176.7060  146.0960 C   0  0  0  0  0  0  0  0  0  0  0  0
  190.1220  176.7410  144.7000 N   0  0  0  0  0  2  0  0  0  0  0  0
  191.9520  175.7420  147.7790 C   0  0  0  0  0  2  0  0  0  0  0  0
  192.3400  175.1910  146.4250 C   0  0  0  0  0  2  0  0  0  0  0  0
  191.8470  176.6220  146.5450 C   0  0  0  0  0  3  0  0  0  0  0  0
  183.2120  178.7480  140.3300 C   0  0  0  0  0  2  0  0  0  0  0  0
  182.8150  177.5370  139.7020 O   0  0  0  0  0  0  0  0  0  0  0  0
  182.6670  178.2140  137.5000 O   0  0  0  0  0  0  0  0  0  0  0  0
  182.9920  177.3260  138.3340 C   0  0  0  0  0  0  0  0  0  0  0  0
  183.5550  176.0890  137.8880 N   0  0  0  0  0  2  0  0  0  0  0  0
  183.7350  175.7720  136.4800 C   0  0  0  0  0  2  0  0  0  0  0  0
  184.7730  174.6770  136.3240 C   0  0  0  0  0  2  0  0  0  0  0  0
  184.7880  173.8150  137.5670 C   0  0  0  0  0  2  0  0  0  0  0  0
  186.0060  172.9150  137.5430 C   0  0  0  0  0  1  0  0  0  0  0  0
  1  5  1  0  0  0  0
  2  1  2  0  0  0  0
  3  5  2  0  0  0  0
  4  6  2  0  0  0  0
  4  2  1  0  0  0  0
  6  3  1  0  0  0  0
  7 13  1  0  0  0  0
  8  6  1  0  0  0  0
 10 14  1  6  0  0  0
 10  9  1  0  0  0  0
 11  9  1  6  0  0  0
 11  8  1  0  0  0  0
 12  7  1  6  0  0  0
 12 11  1  0  0  0  0
 12  8  1  0  0  0  0
 13 10  1  0  0  0  0
 15 14  1  0  0  0  0
 15 20  1  0  0  0  0
 15 16  1  1  0  0  0
 20 19  1  0  0  0  0
 20 17  1  1  0  0  0
 21 18  1  1  0  0  0
 21 20  1  0  0  0  0
 21 19  1  0  0  0  0
 22  3  1  1  0  0  0
 22 24  1  0  0  0  0
 22 23  1  0  0  0  0
 23 25  1  0  0  0  0
 24 25  1  0  0  0  0
 25 28  1  0  0  0  0
 27 31  1  0  0  0  0
 27 26  2  0  0  0  0
 28 27  1  0  0  0  0
 30 31  1  0  0  0  0
 30 29  1  0  0  0  0
 31 29  1  0  0  0  0
 32  2  1  0  0  0  0
 33 32  1  0  0  0  0
 34 35  2  0  0  0  0
 35 33  1  0  0  0  0
 36 35  1  0  0  0  0
 37 36  1  0  0  0  0
 38 37  1  0  0  0  0
 38 39  1  0  0  0  0
 40 39  1  0  0  0  0
M  END
>  <MODEL>
5

>  <REMARK>
 VINA RESULT:      -7.1      2.564      7.910
  Name = 
  13 active torsions:
  status: ('A' for Active; 'I' for Inactive)
    1  A    between atoms: C_2  and  C_10
    2  A    between atoms: C_4  and  C_14
    3  A    between atoms: C_4  and  C_36
    4  A    between atoms: C_8  and  C_17
    5  A    between atoms: C_9  and  C_23
    6  A    between atoms: C_9  and  N_33
    7  A    between atoms: N_12  and  C_22
    8  A    between atoms: C_14  and  C_30
    9  A    between atoms: C_15  and  C_37
   10  A    between atoms: C_17  and  O_34
   11  A    between atoms: C_18  and  O_34
   12  A    between atoms: C_19  and  C_23
   13  A    between atoms: N_27  and  N_38
                            x       y       z     vdW  Elec       q    Type
                         _______ _______ _______ _____ _____    ______ ____

>  <TORSDO>
F 13

$$$$
=
 OpenBabel10222421253D

 40 45  0  0  1  0  0  0  0  0999 V2000
  187.3610  177.7640  143.7820 C   0  0  0  0  0  3  0  0  0  0  0  0
  185.9890  178.0220  143.7610 C   0  0  0  0  0  0  0  0  0  0  0  0
  187.4870  178.1910  141.3880 C   0  0  0  0  0  0  0  0  0  0  0  0
  185.3620  178.3610  142.5610 C   0  0  0  0  0  3  0  0  0  0  0  0
  188.1050  177.8540  142.6040 C   0  0  0  0  0  3  0  0  0  0  0  0
  186.1010  178.4500  141.3760 C   0  0  0  0  0  0  0  0  0  0  0  0
  182.9620  179.0590  139.8320 C   0  0  0  0  0  2  0  0  0  0  0  0
  185.4270  178.7950  140.1670 N   0  0  0  0  0  0  0  0  0  0  0  0
  184.7510  177.2460  138.3730 C   0  0  0  0  0  2  0  0  0  0  0  0
  183.2520  176.9970  138.4530 C   0  0  1  0  0  3  0  0  0  0  0  0
  185.1960  178.6860  138.6860 C   0  0  1  0  0  3  0  0  0  0  0  0
  184.3670  179.5360  139.4200 C   0  0  1  0  0  3  0  0  0  0  0  0
  182.7250  177.5550  139.7600 C   0  0  0  0  0  2  0  0  0  0  0  0
  182.5110  177.5750  137.2500 C   0  0  0  0  0  2  0  0  0  0  0  0
  182.6150  176.6430  136.0420 C   0  0  2  0  0  3  0  0  0  0  0  0
  182.1780  177.3180  134.9030 O   0  0  0  0  0  1  0  0  0  0  0  0
  180.4180  175.3750  136.7220 C   0  0  0  0  0  1  0  0  0  0  0  0
  181.8510  173.0130  136.7930 O   0  0  0  0  0  1  0  0  0  0  0  0
  181.9250  174.4980  135.0480 O   0  0  0  0  0  0  0  0  0  0  0  0
  181.8400  175.3230  136.1830 C   0  0  1  0  0  0  0  0  0  0  0  0
  182.5940  174.0400  136.2060 C   0  0  1  0  0  3  0  0  0  0  0  0
  188.2890  178.3140  140.1160 C   0  0  1  0  0  3  0  0  0  0  0  0
  189.7400  178.0610  140.3860 C   0  0  0  0  0  2  0  0  0  0  0  0
  188.2710  177.0850  139.3340 N   0  0  0  0  0  2  0  0  0  0  0  0
  189.6350  176.8420  139.5980 N   0  0  0  0  0  0  0  0  0  0  0  0
  191.1870  174.8820  138.3320 O   0  0  0  0  0  0  0  0  0  0  0  0
  191.0920  176.0120  137.7800 C   0  0  0  0  0  0  0  0  0  0  0  0
  190.3290  177.0520  138.3950 N   0  0  0  0  0  2  0  0  0  0  0  0
  192.0260  174.9890  135.7370 C   0  0  0  0  0  2  0  0  0  0  0  0
  190.9340  175.9480  135.3210 C   0  0  0  0  0  2  0  0  0  0  0  0
  191.8240  176.2820  136.5060 C   0  0  0  0  0  3  0  0  0  0  0  0
  185.1900  177.9000  145.0100 C   0  0  0  0  0  2  0  0  0  0  0  0
  185.3360  179.0800  145.7870 O   0  0  0  0  0  0  0  0  0  0  0  0
  186.0660  180.1060  147.7210 O   0  0  0  0  0  0  0  0  0  0  0  0
  186.0850  179.0980  146.9640 C   0  0  0  0  0  0  0  0  0  0  0  0
  186.8710  177.9540  147.3070 N   0  0  0  0  0  2  0  0  0  0  0  0
  187.7120  177.9060  148.4930 C   0  0  0  0  0  2  0  0  0  0  0  0
  189.1590  178.1530  148.1130 C   0  0  0  0  0  2  0  0  0  0  0  0
  189.4950  177.3670  146.8640 C   0  0  0  0  0  2  0  0  0  0  0  0
  190.8710  176.7520  147.0090 C   0  0  0  0  0  1  0  0  0  0  0  0
  2  1  1  0  0  0  0
  2 32  1  0  0  0  0
  3  5  1  0  0  0  0
  4  2  2  0  0  0  0
  5  1  2  0  0  0  0
  6  3  2  0  0  0  0
  6  4  1  0  0  0  0
  8  6  1  0  0  0  0
  9 10  1  0  0  0  0
 10 14  1  6  0  0  0
 10 13  1  0  0  0  0
 11  9  1  1  0  0  0
 11 12  1  0  0  0  0
 11  8  1  0  0  0  0
 12  7  1  1  0  0  0
 12  8  1  0  0  0  0
 13  7  1  0  0  0  0
 15 16  1  6  0  0  0
 15 20  1  0  0  0  0
 15 14  1  0  0  0  0
 19 20  1  0  0  0  0
 19 21  1  0  0  0  0
 20 21  1  0  0  0  0
 20 17  1  1  0  0  0
 21 18  1  1  0  0  0
 22 23  1  0  0  0  0
 22  3  1  1  0  0  0
 24 25  1  0  0  0  0
 24 22  1  0  0  0  0
 25 23  1  0  0  0  0
 27 26  2  0  0  0  0
 27 28  1  0  0  0  0
 28 25  1  0  0  0  0
 29 31  1  0  0  0  0
 30 29  1  0  0  0  0
 30 31  1  0  0  0  0
 31 27  1  0  0  0  0
 32 33  1  0  0  0  0
 33 35  1  0  0  0  0
 35 36  1  0  0  0  0
 35 34  2  0  0  0  0
 36 37  1  0  0  0  0
 38 37  1  0  0  0  0
 39 40  1  0  0  0  0
 39 38  1  0  0  0  0
M  END
>  <MODEL>
6

>  <REMARK>
 VINA RESULT:      -6.9      3.097      8.261
  Name = 
  13 active torsions:
  status: ('A' for Active; 'I' for Inactive)
    1  A    between atoms: C_2  and  C_10
    2  A    between atoms: C_4  and  C_14
    3  A    between atoms: C_4  and  C_36
    4  A    between atoms: C_8  and  C_17
    5  A    between atoms: C_9  and  C_23
    6  A    between atoms: C_9  and  N_33
    7  A    between atoms: N_12  and  C_22
    8  A    between atoms: C_14  and  C_30
    9  A    between atoms: C_15  and  C_37
   10  A    between atoms: C_17  and  O_34
   11  A    between atoms: C_18  and  O_34
   12  A    between atoms: C_19  and  C_23
   13  A    between atoms: N_27  and  N_38
                            x       y       z     vdW  Elec       q    Type
                         _______ _______ _______ _____ _____    ______ ____

>  <TORSDO>
F 13

$$$$
=
 OpenBabel10222421253D

 40 45  0  0  1  0  0  0  0  0999 V2000
  188.4880  176.4740  136.9000 C   0  0  0  0  0  3  0  0  0  0  0  0
  187.8000  177.1590  137.9040 C   0  0  0  0  0  0  0  0  0  0  0  0
  190.4360  176.2900  138.3500 C   0  0  0  0  0  0  0  0  0  0  0  0
  188.4240  177.4150  139.1260 C   0  0  0  0  0  3  0  0  0  0  0  0
  189.7950  176.0380  137.1250 C   0  0  0  0  0  3  0  0  0  0  0  0
  189.7350  176.9830  139.3580 C   0  0  0  0  0  0  0  0  0  0  0  0
  190.2430  175.8720  142.6910 C   0  0  0  0  0  2  0  0  0  0  0  0
  190.3420  177.2660  140.6160 N   0  0  0  0  0  0  0  0  0  0  0  0
  189.4090  178.6740  142.4110 C   0  0  0  0  0  2  0  0  0  0  0  0
  188.8740  177.7870  143.5270 C   0  0  1  0  0  3  0  0  0  0  0  0
  190.7090  178.1830  141.7490 C   0  0  1  0  0  3  0  0  0  0  0  0
  191.0850  176.8420  141.8410 C   0  0  1  0  0  3  0  0  0  0  0  0
  188.8390  176.3500  143.0460 C   0  0  0  0  0  2  0  0  0  0  0  0
  189.6820  177.9360  144.8130 C   0  0  0  0  0  2  0  0  0  0  0  0
  189.0520  177.1360  145.9530 C   0  0  2  0  0  3  0  0  0  0  0  0
  187.7790  177.6390  146.2180 O   0  0  0  0  0  1  0  0  0  0  0  0
  189.3800  177.9370  148.4320 C   0  0  0  0  0  1  0  0  0  0  0  0
  192.0210  177.1320  148.3000 O   0  0  0  0  0  1  0  0  0  0  0  0
  190.2540  175.8220  147.6540 O   0  0  0  0  0  0  0  0  0  0  0  0
  189.8740  177.1140  147.2520 C   0  0  1  0  0  0  0  0  0  0  0  0
  191.2930  176.6670  147.2030 C   0  0  1  0  0  3  0  0  0  0  0  0
  191.8400  175.8010  138.6070 C   0  0  1  0  0  3  0  0  0  0  0  0
  192.2840  174.8830  137.5100 C   0  0  0  0  0  2  0  0  0  0  0  0
  192.8460  176.7510  138.1530 N   0  0  0  0  0  2  0  0  0  0  0  0
  193.2560  175.8910  137.1120 N   0  0  0  0  0  0  0  0  0  0  0  0
  195.0580  174.7940  135.2680 O   0  0  0  0  0  0  0  0  0  0  0  0
  195.4200  174.8780  136.4730 C   0  0  0  0  0  0  0  0  0  0  0  0
  194.5310  175.4110  137.4560 N   0  0  0  0  0  2  0  0  0  0  0  0
  196.6080  173.2820  137.9350 C   0  0  0  0  0  2  0  0  0  0  0  0
  196.8980  172.9050  136.4990 C   0  0  0  0  0  2  0  0  0  0  0  0
  196.7630  174.3680  136.8850 C   0  0  0  0  0  3  0  0  0  0  0  0
  186.4170  177.6480  137.6560 C   0  0  0  0  0  2  0  0  0  0  0  0
  186.0460  178.5640  138.6770 O   0  0  0  0  0  0  0  0  0  0  0  0
  184.4720  180.0650  139.4510 O   0  0  0  0  0  0  0  0  0  0  0  0
  184.7280  178.9940  138.8350 C   0  0  0  0  0  0  0  0  0  0  0  0
  183.6680  178.2080  138.2840 N   0  0  0  0  0  2  0  0  0  0  0  0
  182.2660  178.5630  138.4390 C   0  0  0  0  0  2  0  0  0  0  0  0
  181.7070  177.9280  139.6980 C   0  0  0  0  0  2  0  0  0  0  0  0
  181.3710  176.4780  139.4250 C   0  0  0  0  0  2  0  0  0  0  0  0
  180.1570  176.0800  140.2380 C   0  0  0  0  0  1  0  0  0  0  0  0
  1  5  2  0  0  0  0
  1  2  1  0  0  0  0
  2  4  2  0  0  0  0
  3  6  2  0  0  0  0
  4  6  1  0  0  0  0
  5  3  1  0  0  0  0
  6  8  1  0  0  0  0
  7 13  1  0  0  0  0
  8 11  1  0  0  0  0
  8 12  1  0  0  0  0
  9 10  1  0  0  0  0
 10 14  1  1  0  0  0
 11 12  1  0  0  0  0
 11  9  1  1  0  0  0
 12  7  1  1  0  0  0
 13 10  1  0  0  0  0
 14 15  1  0  0  0  0
 15 16  1  1  0  0  0
 15 20  1  0  0  0  0
 20 19  1  0  0  0  0
 20 17  1  1  0  0  0
 21 20  1  0  0  0  0
 21 19  1  0  0  0  0
 21 18  1  1  0  0  0
 22  3  1  6  0  0  0
 23 22  1  0  0  0  0
 24 22  1  0  0  0  0
 25 28  1  0  0  0  0
 25 23  1  0  0  0  0
 25 24  1  0  0  0  0
 26 27  2  0  0  0  0
 27 31  1  0  0  0  0
 27 28  1  0  0  0  0
 30 31  1  0  0  0  0
 30 29  1  0  0  0  0
 31 29  1  0  0  0  0
 32  2  1  0  0  0  0
 32 33  1  0  0  0  0
 33 35  1  0  0  0  0
 35 34  2  0  0  0  0
 36 37  1  0  0  0  0
 36 35  1  0  0  0  0
 37 38  1  0  0  0  0
 39 38  1  0  0  0  0
 39 40  1  0  0  0  0
M  END
>  <MODEL>
7

>  <REMARK>
 VINA RESULT:      -6.9      1.524      1.899
  Name = 
  13 active torsions:
  status: ('A' for Active; 'I' for Inactive)
    1  A    between atoms: C_2  and  C_10
    2  A    between atoms: C_4  and  C_14
    3  A    between atoms: C_4  and  C_36
    4  A    between atoms: C_8  and  C_17
    5  A    between atoms: C_9  and  C_23
    6  A    between atoms: C_9  and  N_33
    7  A    between atoms: N_12  and  C_22
    8  A    between atoms: C_14  and  C_30
    9  A    between atoms: C_15  and  C_37
   10  A    between atoms: C_17  and  O_34
   11  A    between atoms: C_18  and  O_34
   12  A    between atoms: C_19  and  C_23
   13  A    between atoms: N_27  and  N_38
                            x       y       z     vdW  Elec       q    Type
                         _______ _______ _______ _____ _____    ______ ____

>  <TORSDO>
F 13

$$$$
=
 OpenBabel10222421253D

 40 45  0  0  1  0  0  0  0  0999 V2000
  186.1660  178.3600  142.5200 C   0  0  0  0  0  3  0  0  0  0  0  0
  187.5080  178.0610  142.2730 C   0  0  0  0  0  0  0  0  0  0  0  0
  185.7730  178.6110  140.1300 C   0  0  0  0  0  0  0  0  0  0  0  0
  187.9860  178.0400  140.9620 C   0  0  0  0  0  3  0  0  0  0  0  0
  185.3040  178.6270  141.4550 C   0  0  0  0  0  3  0  0  0  0  0  0
  187.1290  178.3090  139.8890 C   0  0  0  0  0  0  0  0  0  0  0  0
  187.2890  176.5200  136.8270 C   0  0  0  0  0  2  0  0  0  0  0  0
  187.6540  178.2830  138.5640 N   0  0  0  0  0  0  0  0  0  0  0  0
  189.8690  177.4460  137.8800 C   0  0  0  0  0  2  0  0  0  0  0  0
  189.7170  176.0820  137.2220 C   0  0  1  0  0  3  0  0  0  0  0  0
  188.7560  178.4590  137.5570 C   0  0  1  0  0  3  0  0  0  0  0  0
  187.5120  178.0190  137.1010 C   0  0  1  0  0  3  0  0  0  0  0  0
  188.3070  175.5730  137.4540 C   0  0  0  0  0  2  0  0  0  0  0  0
  190.0700  176.1200  135.7380 C   0  0  0  0  0  2  0  0  0  0  0  0
  191.1270  175.0710  135.3970 C   0  0  2  0  0  3  0  0  0  0  0  0
  190.5990  173.7990  135.6170 O   0  0  0  0  0  1  0  0  0  0  0  0
  192.5530  174.5760  137.5460 C   0  0  0  0  0  1  0  0  0  0  0  0
  194.2850  176.6020  136.8140 O   0  0  0  0  0  1  0  0  0  0  0  0
  193.5870  174.9450  135.3920 O   0  0  0  0  0  0  0  0  0  0  0  0
  192.4480  175.2170  136.1700 C   0  0  1  0  0  0  0  0  0  0  0  0
  193.4000  176.2920  135.7790 C   0  0  1  0  0  3  0  0  0  0  0  0
  184.8420  178.8760  138.9730 C   0  0  1  0  0  3  0  0  0  0  0  0
  183.5130  178.2280  139.2120 C   0  0  0  0  0  2  0  0  0  0  0  0
  184.1780  180.1680  139.0850 N   0  0  0  0  0  2  0  0  0  0  0  0
  182.9280  179.5560  139.3220 N   0  0  0  0  0  0  0  0  0  0  0  0
  180.9480  181.5300  139.1390 O   0  0  0  0  0  0  0  0  0  0  0  0
  181.1580  180.8060  138.1280 C   0  0  0  0  0  0  0  0  0  0  0  0
  182.1440  179.7720  138.1770 N   0  0  0  0  0  2  0  0  0  0  0  0
  180.7670  179.9990  135.8280 C   0  0  0  0  0  2  0  0  0  0  0  0
  179.5120  179.7460  136.6320 C   0  0  0  0  0  2  0  0  0  0  0  0
  180.3380  180.9930  136.8930 C   0  0  0  0  0  3  0  0  0  0  0  0
  188.4330  177.8030  143.4090 C   0  0  0  0  0  2  0  0  0  0  0  0
  189.7150  177.4500  142.9090 O   0  0  0  0  0  0  0  0  0  0  0  0
  191.6670  176.2780  143.2830 O   0  0  0  0  0  0  0  0  0  0  0  0
  190.7270  176.9800  143.7460 C   0  0  0  0  0  0  0  0  0  0  0  0
  190.6900  177.3100  145.1360 N   0  0  0  0  0  2  0  0  0  0  0  0
  191.6820  176.8260  146.0840 C   0  0  0  0  0  2  0  0  0  0  0  0
  191.0050  176.4050  147.3740 C   0  0  0  0  0  2  0  0  0  0  0  0
  189.5300  176.7350  147.3010 C   0  0  0  0  0  2  0  0  0  0  0  0
  189.2200  177.8750  148.2470 C   0  0  0  0  0  1  0  0  0  0  0  0
  2  1  1  0  0  0  0
  2 32  1  0  0  0  0
  3  5  1  0  0  0  0
  4  2  2  0  0  0  0
  5  1  2  0  0  0  0
  6  3  2  0  0  0  0
  6  4  1  0  0  0  0
  7 13  1  0  0  0  0
  8  6  1  0  0  0  0
 10 14  1  6  0  0  0
 10 13  1  0  0  0  0
 10  9  1  0  0  0  0
 11  9  1  1  0  0  0
 11  8  1  0  0  0  0
 12  7  1  1  0  0  0
 12 11  1  0  0  0  0
 12  8  1  0  0  0  0
 15 16  1  1  0  0  0
 15 14  1  0  0  0  0
 15 20  1  0  0  0  0
 19 21  1  0  0  0  0
 19 20  1  0  0  0  0
 20 17  1  1  0  0  0
 21 20  1  0  0  0  0
 21 18  1  1  0  0  0
 22 24  1  0  0  0  0
 22 23  1  0  0  0  0
 22  3  1  1  0  0  0
 23 25  1  0  0  0  0
 24 25  1  0  0  0  0
 27 28  1  0  0  0  0
 27 26  2  0  0  0  0
 28 25  1  0  0  0  0
 29 30  1  0  0  0  0
 29 31  1  0  0  0  0
 30 31  1  0  0  0  0
 31 27  1  0  0  0  0
 33 32  1  0  0  0  0
 33 35  1  0  0  0  0
 34 35  2  0  0  0  0
 35 36  1  0  0  0  0
 36 37  1  0  0  0  0
 37 38  1  0  0  0  0
 39 38  1  0  0  0  0
 39 40  1  0  0  0  0
M  END
>  <MODEL>
8

>  <REMARK>
 VINA RESULT:      -6.7      3.049      9.804
  Name = 
  13 active torsions:
  status: ('A' for Active; 'I' for Inactive)
    1  A    between atoms: C_2  and  C_10
    2  A    between atoms: C_4  and  C_14
    3  A    between atoms: C_4  and  C_36
    4  A    between atoms: C_8  and  C_17
    5  A    between atoms: C_9  and  C_23
    6  A    between atoms: C_9  and  N_33
    7  A    between atoms: N_12  and  C_22
    8  A    between atoms: C_14  and  C_30
    9  A    between atoms: C_15  and  C_37
   10  A    between atoms: C_17  and  O_34
   11  A    between atoms: C_18  and  O_34
   12  A    between atoms: C_19  and  C_23
   13  A    between atoms: N_27  and  N_38
                            x       y       z     vdW  Elec       q    Type
                         _______ _______ _______ _____ _____    ______ ____

>  <TORSDO>
F 13

$$$$
=
 OpenBabel10222421253D

 40 45  0  0  1  0  0  0  0  0999 V2000
  185.2970  179.1060  145.9440 C   0  0  0  0  0  3  0  0  0  0  0  0
  186.4330  178.4860  146.4700 C   0  0  0  0  0  0  0  0  0  0  0  0
  185.8520  178.2630  143.7280 C   0  0  0  0  0  0  0  0  0  0  0  0
  187.2810  177.7590  145.6310 C   0  0  0  0  0  3  0  0  0  0  0  0
  185.0060  178.9890  144.5840 C   0  0  0  0  0  3  0  0  0  0  0  0
  186.9970  177.6400  144.2660 C   0  0  0  0  0  0  0  0  0  0  0  0
  190.3740  176.7320  143.6540 C   0  0  0  0  0  2  0  0  0  0  0  0
  187.8870  176.8940  143.4390 N   0  0  0  0  0  0  0  0  0  0  0  0
  188.8650  177.6300  141.3000 C   0  0  0  0  0  2  0  0  0  0  0  0
  190.3210  178.0200  141.5140 C   0  0  1  0  0  3  0  0  0  0  0  0
  188.3860  176.4100  142.1070 C   0  0  1  0  0  3  0  0  0  0  0  0
  189.0750  176.0080  143.2540 C   0  0  1  0  0  3  0  0  0  0  0  0
  190.6030  178.0910  143.0020 C   0  0  0  0  0  2  0  0  0  0  0  0
  191.2780  177.0690  140.8000 C   0  0  0  0  0  2  0  0  0  0  0  0
  191.4470  177.4610  139.3320 C   0  0  2  0  0  3  0  0  0  0  0  0
  190.2790  178.0750  138.8830 O   0  0  0  0  0  1  0  0  0  0  0  0
  190.7270  175.2710  138.0740 C   0  0  0  0  0  1  0  0  0  0  0  0
  193.3960  174.6490  137.7130 O   0  0  0  0  0  1  0  0  0  0  0  0
  192.4880  176.6990  137.2340 O   0  0  0  0  0  0  0  0  0  0  0  0
  191.8050  176.2950  138.3950 C   0  0  1  0  0  0  0  0  0  0  0  0
  193.2370  175.9570  138.1750 C   0  0  1  0  0  3  0  0  0  0  0  0
  185.5300  178.1130  142.2620 C   0  0  1  0  0  3  0  0  0  0  0  0
  184.0480  178.0430  142.0550 C   0  0  0  0  0  2  0  0  0  0  0  0
  185.5180  179.3930  141.5670 N   0  0  0  0  0  2  0  0  0  0  0  0
  184.1200  179.3330  141.3830 N   0  0  0  0  0  0  0  0  0  0  0  0
  181.6200  179.6040  140.1480 O   0  0  0  0  0  0  0  0  0  0  0  0
  182.6040  179.2830  139.4290 C   0  0  0  0  0  0  0  0  0  0  0  0
  183.8970  179.1120  140.0140 N   0  0  0  0  0  2  0  0  0  0  0  0
  183.3070  177.8880  137.5180 C   0  0  0  0  0  2  0  0  0  0  0  0
  181.8370  177.6340  137.7650 C   0  0  0  0  0  2  0  0  0  0  0  0
  182.4100  179.0260  137.9700 C   0  0  0  0  0  3  0  0  0  0  0  0
  186.7590  178.6320  147.9140 C   0  0  0  0  0  2  0  0  0  0  0  0
  187.6370  177.5890  148.3120 O   0  0  0  0  0  0  0  0  0  0  0  0
  189.6220  178.6280  148.8670 O   0  0  0  0  0  0  0  0  0  0  0  0
  189.0230  177.7210  148.2260 C   0  0  0  0  0  0  0  0  0  0  0  0
  189.7600  176.8100  147.4070 N   0  0  0  0  0  2  0  0  0  0  0  0
  191.2010  176.9040  147.2300 C   0  0  0  0  0  2  0  0  0  0  0  0
  191.8340  175.5350  147.3890 C   0  0  0  0  0  2  0  0  0  0  0  0
  193.0790  175.6510  148.2400 C   0  0  0  0  0  2  0  0  0  0  0  0
  192.9300  176.8140  149.1980 C   0  0  0  0  0  1  0  0  0  0  0  0
  1  2  1  0  0  0  0
  2 32  1  0  0  0  0
  3  6  2  0  0  0  0
  3  5  1  0  0  0  0
  4  2  2  0  0  0  0
  5  1  2  0  0  0  0
  6  4  1  0  0  0  0
  8  6  1  0  0  0  0
  9 10  1  0  0  0  0
 10 14  1  6  0  0  0
 10 13  1  0  0  0  0
 11  9  1  6  0  0  0
 11 12  1  0  0  0  0
 11  8  1  0  0  0  0
 12  8  1  0  0  0  0
 12  7  1  6  0  0  0
 13  7  1  0  0  0  0
 15 16  1  6  0  0  0
 15 14  1  0  0  0  0
 19 21  1  0  0  0  0
 19 20  1  0  0  0  0
 20 17  1  6  0  0  0
 20 15  1  0  0  0  0
 21 18  1  6  0  0  0
 21 20  1  0  0  0  0
 22  3  1  1  0  0  0
 23 22  1  0  0  0  0
 24 22  1  0  0  0  0
 25 24  1  0  0  0  0
 25 23  1  0  0  0  0
 27 28  1  0  0  0  0
 27 26  2  0  0  0  0
 28 25  1  0  0  0  0
 29 30  1  0  0  0  0
 29 31  1  0  0  0  0
 30 31  1  0  0  0  0
 31 27  1  0  0  0  0
 32 33  1  0  0  0  0
 35 33  1  0  0  0  0
 35 34  2  0  0  0  0
 36 35  1  0  0  0  0
 37 38  1  0  0  0  0
 37 36  1  0  0  0  0
 38 39  1  0  0  0  0
 39 40  1  0  0  0  0
M  END
>  <MODEL>
9

>  <REMARK>
 VINA RESULT:      -6.6      3.245      9.364
  Name = 
  13 active torsions:
  status: ('A' for Active; 'I' for Inactive)
    1  A    between atoms: C_2  and  C_10
    2  A    between atoms: C_4  and  C_14
    3  A    between atoms: C_4  and  C_36
    4  A    between atoms: C_8  and  C_17
    5  A    between atoms: C_9  and  C_23
    6  A    between atoms: C_9  and  N_33
    7  A    between atoms: N_12  and  C_22
    8  A    between atoms: C_14  and  C_30
    9  A    between atoms: C_15  and  C_37
   10  A    between atoms: C_17  and  O_34
   11  A    between atoms: C_18  and  O_34
   12  A    between atoms: C_19  and  C_23
   13  A    between atoms: N_27  and  N_38
                            x       y       z     vdW  Elec       q    Type
                         _______ _______ _______ _____ _____    ______ ____

>  <TORSDO>
F 13

$$$$
