=
 OpenBabel10222419073D

 50 55  0  0  1  0  0  0  0  0999 V2000
  189.8910  177.6480  139.3680 C   0  0  0  0  0  0  0  0  0  0  0  0
  188.8320  178.4110  139.1010 C   0  0  0  0  0  3  0  0  0  0  0  0
  190.6580  177.0950  138.2890 N   0  0  0  0  0  2  0  0  0  0  0  0
  189.2230  175.3340  137.7090 O   0  0  0  0  0  0  0  0  0  0  0  0
  190.3320  175.9110  137.5520 C   0  0  0  0  0  0  0  0  0  0  0  0
  191.2770  175.3710  136.6270 N   0  0  0  0  0  2  0  0  0  0  0  0
  192.4760  175.9690  136.4090 O   0  0  0  0  0  0  0  0  0  0  0  0
  192.9450  175.4320  135.1990 C   0  0  1  0  0  0  0  0  0  0  0  0
  194.2330  175.9980  134.8110 N   0  0  0  0  0  2  0  0  0  0  0  0
  194.1480  174.6560  135.3940 C   0  0  2  0  0  0  0  0  0  0  0  0
  192.1810  172.8890  135.0230 O   0  0  0  0  0  0  0  0  0  0  0  0
  192.8330  173.9150  135.1320 C   0  0  0  0  0  0  0  0  0  0  0  0
  195.4960  173.0380  138.3500 C   0  0  0  0  0  2  0  0  0  0  0  0
  194.3900  173.2850  137.3470 C   0  0  0  0  0  2  0  0  0  0  0  0
  196.0100  174.8670  136.8720 C   0  0  0  0  0  2  0  0  0  0  0  0
  196.5690  174.0430  138.0130 C   0  0  2  0  0  3  0  0  0  0  0  0
  194.5680  174.6340  136.8110 N   0  0  1  0  0  0  0  0  0  0  0  0
  197.7830  173.3480  137.5720 C   0  0  0  0  0  0  0  0  0  0  0  0
  198.7390  172.7970  137.2200 N   0  0  0  0  0  0  0  0  0  0  0  0
  188.3840  178.6790  137.7030 C   0  0  0  0  0  2  0  0  0  0  0  0
  187.1690  178.0380  137.4650 O   0  0  0  0  0  0  0  0  0  0  0  0
  186.5220  178.0380  138.7030 C   0  0  0  0  0  2  0  0  0  0  0  0
  184.5550  179.0160  139.9510 C   0  0  1  0  0  3  0  0  0  0  0  0
  185.1680  178.7320  138.5900 C   0  0  2  0  0  3  0  0  0  0  0  0
  184.1730  177.7710  138.0090 C   0  0  0  0  0  2  0  0  0  0  0  0
  183.3880  177.2610  139.2060 C   0  0  0  0  0  2  0  0  0  0  0  0
  183.8850  177.8610  140.3760 O   0  0  0  0  0  0  0  0  0  0  0  0
  185.5460  179.4240  140.9430 N   0  0  0  0  0  2  0  0  0  0  0  0
  186.2190  177.5590  144.1690 C   0  0  1  0  0  3  0  0  0  0  0  0
  185.2870  178.1690  146.4060 C   0  0  0  0  0  1  0  0  0  0  0  0
  184.3700  179.0890  144.4070 O   0  0  0  0  0  0  0  0  0  0  0  0
  185.2270  178.7430  142.1910 C   0  0  2  0  0  3  0  0  0  0  0  0
  184.7080  179.7540  143.2130 C   0  0  0  0  0  2  0  0  0  0  0  0
  185.5760  178.6730  145.0040 C   0  0  2  0  0  3  0  0  0  0  0  0
  186.4800  178.0730  142.7520 C   0  0  0  0  0  2  0  0  0  0  0  0
  187.4160  177.1650  144.7380 F   0  0  0  0  0  0  0  0  0  0  0  0
  190.2940  177.4250  140.7240 N   0  0  0  0  0  2  0  0  0  0  0  0
  191.6800  177.3880  141.1680 C   0  0  0  0  0  2  0  0  0  0  0  0
  191.5580  178.1660  143.4480 N   0  0  0  0  0  0  0  0  0  0  0  0
  191.7240  177.1720  142.6390 C   0  0  0  0  0  3  0  0  0  0  0  0
  191.5640  177.9610  144.8090 O   0  0  0  0  0  0  0  0  0  0  0  0
  190.8920  176.8450  145.3760 C   0  0  0  0  0  2  0  0  0  0  0  0
  191.1070  176.8080  146.8820 C   0  0  2  0  0  3  0  0  0  0  0  0
  192.2310  175.8780  147.2110 C   0  0  0  0  0  0  0  0  0  0  0  0
  192.6010  174.8800  146.3140 O   0  0  0  0  0  0  0  0  0  0  0  0
  192.8740  176.0240  148.2870 O   0  0  0  0  0  1  0  0  0  0  0  0
  189.9350  176.3990  147.5200 O   0  0  0  0  0  0  0  0  0  0  0  0
  189.1980  178.4230  148.5210 C   0  0  0  0  0  2  0  0  0  0  0  0
  189.0460  177.4630  147.3610 C   0  0  0  0  0  3  0  0  0  0  0  0
  188.0400  177.4520  148.4940 C   0  0  0  0  0  2  0  0  0  0  0  0
  1 37  1  0  0  0  0
  2  1  2  0  0  0  0
  3  1  1  0  0  0  0
  5  4  2  0  0  0  0
  5  3  1  0  0  0  0
  6  5  1  0  0  0  0
  7  6  1  0  0  0  0
  8 10  1  0  0  0  0
  8  7  1  1  0  0  0
  9  8  1  0  0  0  0
 10  9  1  6  0  0  0
 10 17  1  0  0  0  0
 11 12  2  0  0  0  0
 12  8  1  0  0  0  0
 12 10  1  0  0  0  0
 14 13  1  0  0  0  0
 15 16  1  0  0  0  0
 16 18  1  6  0  0  0
 16 13  1  0  0  0  0
 17 15  1  6  0  0  0
 17 14  1  0  0  0  0
 19 18  3  0  0  0  0
 20  2  1  0  0  0  0
 21 20  1  0  0  0  0
 21 22  1  0  0  0  0
 23 27  1  0  0  0  0
 23 28  1  1  0  0  0
 24 22  1  1  0  0  0
 24 23  1  0  0  0  0
 25 24  1  0  0  0  0
 25 26  1  0  0  0  0
 26 27  1  0  0  0  0
 29 36  1  1  0  0  0
 29 34  1  0  0  0  0
 31 34  1  0  0  0  0
 32 28  1  6  0  0  0
 32 35  1  0  0  0  0
 32 33  1  0  0  0  0
 33 31  1  0  0  0  0
 34 30  1  1  0  0  0
 35 29  1  0  0  0  0
 37 38  1  0  0  0  0
 38 40  1  0  0  0  0
 39 41  1  0  0  0  0
 40 39  2  0  0  0  0
 41 42  1  0  0  0  0
 43 42  1  6  0  0  0
 43 44  1  0  0  0  0
 43 47  1  0  0  0  0
 44 46  1  0  0  0  0
 45 44  2  0  0  0  0
 49 47  1  0  0  0  0
 49 50  1  0  0  0  0
 49 48  1  0  0  0  0
 50 48  1  0  0  0  0
M  END
>  <MODEL>
1

>  <REMARK>
 VINA RESULT:      -7.6      0.000      0.000
  Name = 
  20 active torsions:
  status: ('A' for Active; 'I' for Inactive)
    1  A    between atoms: N_1  and  O_28
    2  A    between atoms: C_2  and  O_25
    3  A    between atoms: C_6  and  N_48
    4  A    between atoms: C_7  and  C_10
    5  A    between atoms: C_7  and  O_44
    6  A    between atoms: C_8  and  C_41
    7  A    between atoms: N_11  and  C_40
    8  A    between atoms: C_13  and  C_39
    9  A    between atoms: C_14  and  N_45
   10  A    between atoms: C_19  and  C_23
   11  A    between atoms: C_23  and  C_26
   12  A    between atoms: C_23  and  O_27
   13  A    between atoms: C_24  and  O_27
   14  A    between atoms: O_25  and  N_49
   15  A    between atoms: C_26  and  O_28
   16  A    between atoms: N_30  and  C_39
   17  A    between atoms: N_30  and  C_40
   18  A    between atoms: C_31  and  N_48
   19  A    between atoms: C_32  and  C_43
   20  A    between atoms: C_32  and  O_44
                            x       y       z     vdW  Elec       q    Type
                         _______ _______ _______ _____ _____    ______ ____

>  <TORSDO>
F 20

$$$$
=
 OpenBabel10222419073D

 50 55  0  0  1  0  0  0  0  0999 V2000
  184.5780  178.6190  141.3910 C   0  0  0  0  0  0  0  0  0  0  0  0
  183.4680  177.8820  141.4250 C   0  0  0  0  0  3  0  0  0  0  0  0
  185.3590  178.6680  140.1880 N   0  0  0  0  0  2  0  0  0  0  0  0
  184.0410  180.1840  138.9780 O   0  0  0  0  0  0  0  0  0  0  0  0
  185.0180  179.3880  138.9980 C   0  0  0  0  0  0  0  0  0  0  0  0
  185.7910  179.2010  137.8120 N   0  0  0  0  0  2  0  0  0  0  0  0
  186.8650  178.3720  137.7900 O   0  0  0  0  0  0  0  0  0  0  0  0
  187.7060  178.8770  136.7850 C   0  0  1  0  0  0  0  0  0  0  0  0
  188.8210  179.6420  137.3370 N   0  0  0  0  0  2  0  0  0  0  0  0
  189.0190  178.2760  136.8400 C   0  0  2  0  0  0  0  0  0  0  0  0
  187.7780  177.1500  134.7620 O   0  0  0  0  0  0  0  0  0  0  0  0
  188.0620  177.8440  135.7250 C   0  0  0  0  0  0  0  0  0  0  0  0
  190.6360  175.5320  138.5790 C   0  0  0  0  0  2  0  0  0  0  0  0
  189.8070  176.0940  137.4450 C   0  0  0  0  0  2  0  0  0  0  0  0
  190.0350  177.8320  138.9540 C   0  0  0  0  0  2  0  0  0  0  0  0
  190.8190  176.6780  139.5430 C   0  0  2  0  0  3  0  0  0  0  0  0
  189.1320  177.2940  137.9380 N   0  0  1  0  0  0  0  0  0  0  0  0
  192.2380  177.0370  139.6270 C   0  0  0  0  0  0  0  0  0  0  0  0
  193.3590  177.3200  139.6980 N   0  0  0  0  0  0  0  0  0  0  0  0
  183.0270  177.0640  140.2580 C   0  0  0  0  0  2  0  0  0  0  0  0
  181.6490  176.8540  140.3230 O   0  0  0  0  0  0  0  0  0  0  0  0
  181.1500  177.4150  139.1460 C   0  0  0  0  0  2  0  0  0  0  0  0
  180.0270  179.6730  139.2810 C   0  0  1  0  0  3  0  0  0  0  0  0
  179.8560  178.1710  139.4290 C   0  0  2  0  0  3  0  0  0  0  0  0
  179.5290  178.0500  140.8880 C   0  0  0  0  0  2  0  0  0  0  0  0
  179.9860  179.3650  141.4950 C   0  0  0  0  0  2  0  0  0  0  0  0
  180.5390  180.1740  140.4860 O   0  0  0  0  0  0  0  0  0  0  0  0
  180.9000  180.0370  138.1680 N   0  0  0  0  0  2  0  0  0  0  0  0
  181.1150  183.7200  137.3160 C   0  0  1  0  0  3  0  0  0  0  0  0
  180.5610  184.7180  135.0930 C   0  0  0  0  0  1  0  0  0  0  0  0
  179.8800  182.5000  135.6420 O   0  0  0  0  0  0  0  0  0  0  0  0
  180.4490  181.3240  137.6560 C   0  0  2  0  0  3  0  0  0  0  0  0
  180.3460  181.2660  136.1320 C   0  0  0  0  0  2  0  0  0  0  0  0
  180.9170  183.4350  135.8220 C   0  0  2  0  0  3  0  0  0  0  0  0
  181.4470  182.4150  138.0410 C   0  0  0  0  0  2  0  0  0  0  0  0
  182.1490  184.6180  137.4990 F   0  0  0  0  0  0  0  0  0  0  0  0
  184.9600  179.4000  142.5280 N   0  0  0  0  0  2  0  0  0  0  0  0
  184.3630  179.2650  143.8490 C   0  0  0  0  0  2  0  0  0  0  0  0
  186.0090  177.6240  144.4920 N   0  0  0  0  0  0  0  0  0  0  0  0
  185.3670  178.7040  144.7920 C   0  0  0  0  0  3  0  0  0  0  0  0
  186.9640  177.1240  145.3490 O   0  0  0  0  0  0  0  0  0  0  0  0
  187.9130  177.9870  145.9590 C   0  0  0  0  0  2  0  0  0  0  0  0
  189.2700  177.3040  146.0460 C   0  0  2  0  0  3  0  0  0  0  0  0
  189.7580  177.3240  147.4590 C   0  0  0  0  0  0  0  0  0  0  0  0
  188.9570  177.8450  148.4710 O   0  0  0  0  0  1  0  0  0  0  0  0
  190.8830  176.8270  147.7420 O   0  0  0  0  0  0  0  0  0  0  0  0
  190.1810  177.9500  145.2080 O   0  0  0  0  0  0  0  0  0  0  0  0
  191.5740  177.0680  143.4980 C   0  0  0  0  0  2  0  0  0  0  0  0
  190.1610  177.2180  144.0190 C   0  0  0  0  0  3  0  0  0  0  0  0
  190.6510  178.0920  142.8830 C   0  0  0  0  0  2  0  0  0  0  0  0
  1  2  2  0  0  0  0
  1 37  1  0  0  0  0
  3  1  1  0  0  0  0
  4  5  2  0  0  0  0
  5  3  1  0  0  0  0
  6  5  1  0  0  0  0
  7  6  1  0  0  0  0
  8 10  1  0  0  0  0
  8  9  1  0  0  0  0
  8  7  1  1  0  0  0
 10 12  1  6  0  0  0
 10  9  1  0  0  0  0
 10 17  1  0  0  0  0
 11 12  2  0  0  0  0
 12  8  1  0  0  0  0
 13 16  1  0  0  0  0
 14 13  1  0  0  0  0
 15 16  1  0  0  0  0
 16 18  1  6  0  0  0
 17 14  1  6  0  0  0
 17 15  1  0  0  0  0
 18 19  3  0  0  0  0
 20 21  1  0  0  0  0
 20  2  1  0  0  0  0
 22 21  1  0  0  0  0
 23 28  1  6  0  0  0
 23 24  1  0  0  0  0
 23 27  1  0  0  0  0
 24 22  1  1  0  0  0
 24 25  1  0  0  0  0
 25 26  1  0  0  0  0
 27 26  1  0  0  0  0
 29 36  1  6  0  0  0
 29 35  1  0  0  0  0
 31 34  1  0  0  0  0
 31 33  1  0  0  0  0
 32 35  1  0  0  0  0
 32 28  1  6  0  0  0
 33 32  1  0  0  0  0
 34 30  1  6  0  0  0
 34 29  1  0  0  0  0
 37 38  1  0  0  0  0
 38 40  1  0  0  0  0
 39 40  2  0  0  0  0
 39 41  1  0  0  0  0
 41 42  1  0  0  0  0
 43 42  1  1  0  0  0
 43 44  1  0  0  0  0
 44 46  2  0  0  0  0
 44 45  1  0  0  0  0
 47 43  1  0  0  0  0
 48 49  1  0  0  0  0
 49 47  1  0  0  0  0
 50 48  1  0  0  0  0
 50 49  1  0  0  0  0
M  END
>  <MODEL>
2

>  <REMARK>
 VINA RESULT:      -7.3      3.696      6.709
  Name = 
  20 active torsions:
  status: ('A' for Active; 'I' for Inactive)
    1  A    between atoms: N_1  and  O_28
    2  A    between atoms: C_2  and  O_25
    3  A    between atoms: C_6  and  N_48
    4  A    between atoms: C_7  and  C_10
    5  A    between atoms: C_7  and  O_44
    6  A    between atoms: C_8  and  C_41
    7  A    between atoms: N_11  and  C_40
    8  A    between atoms: C_13  and  C_39
    9  A    between atoms: C_14  and  N_45
   10  A    between atoms: C_19  and  C_23
   11  A    between atoms: C_23  and  C_26
   12  A    between atoms: C_23  and  O_27
   13  A    between atoms: C_24  and  O_27
   14  A    between atoms: O_25  and  N_49
   15  A    between atoms: C_26  and  O_28
   16  A    between atoms: N_30  and  C_39
   17  A    between atoms: N_30  and  C_40
   18  A    between atoms: C_31  and  N_48
   19  A    between atoms: C_32  and  C_43
   20  A    between atoms: C_32  and  O_44
                            x       y       z     vdW  Elec       q    Type
                         _______ _______ _______ _____ _____    ______ ____

>  <TORSDO>
F 20

$$$$
=
 OpenBabel10222419073D

 50 55  0  0  1  0  0  0  0  0999 V2000
  190.5290  176.3950  138.5620 C   0  0  0  0  0  0  0  0  0  0  0  0
  189.8300  177.2270  137.7900 C   0  0  0  0  0  3  0  0  0  0  0  0
  190.7000  176.6950  139.9540 N   0  0  0  0  0  2  0  0  0  0  0  0
  192.9660  177.2910  139.9080 O   0  0  0  0  0  0  0  0  0  0  0  0
  191.9330  177.0550  140.5880 C   0  0  0  0  0  0  0  0  0  0  0  0
  191.9970  177.1450  142.0120 N   0  0  0  0  0  2  0  0  0  0  0  0
  190.9040  176.9210  142.7850 O   0  0  0  0  0  0  0  0  0  0  0  0
  190.2210  178.1480  142.8280 C   0  0  1  0  0  0  0  0  0  0  0  0
  188.7740  177.9670  142.8980 N   0  0  0  0  0  2  0  0  0  0  0  0
  189.5430  178.3340  144.0910 C   0  0  2  0  0  0  0  0  0  0  0  0
  191.6920  179.9160  144.1650 O   0  0  0  0  0  0  0  0  0  0  0  0
  190.8210  179.1350  143.8190 C   0  0  0  0  0  0  0  0  0  0  0  0
  190.5950  176.8270  147.2200 C   0  0  0  0  0  2  0  0  0  0  0  0
  190.8840  177.4600  145.8760 C   0  0  0  0  0  2  0  0  0  0  0  0
  188.5990  177.1040  145.9040 C   0  0  0  0  0  2  0  0  0  0  0  0
  189.1000  176.6320  147.2540 C   0  0  2  0  0  3  0  0  0  0  0  0
  189.7450  177.1880  145.0010 N   0  0  1  0  0  0  0  0  0  0  0  0
  188.5130  177.4590  148.3140 C   0  0  0  0  0  0  0  0  0  0  0  0
  188.0460  178.1110  149.1490 N   0  0  0  0  0  0  0  0  0  0  0  0
  189.2470  178.4950  138.3200 C   0  0  0  0  0  2  0  0  0  0  0  0
  188.0970  178.8210  137.6030 O   0  0  0  0  0  0  0  0  0  0  0  0
  187.1180  177.9520  138.0900 C   0  0  0  0  0  2  0  0  0  0  0  0
  184.6600  178.4770  138.3380 C   0  0  1  0  0  3  0  0  0  0  0  0
  185.7950  178.1910  137.3700 C   0  0  2  0  0  3  0  0  0  0  0  0
  185.3390  176.9050  136.7470 C   0  0  0  0  0  2  0  0  0  0  0  0
  184.2880  176.3670  137.7020 C   0  0  0  0  0  2  0  0  0  0  0  0
  184.1510  177.2510  138.7870 O   0  0  0  0  0  0  0  0  0  0  0  0
  185.0760  179.3000  139.4700 N   0  0  0  0  0  2  0  0  0  0  0  0
  184.7940  178.5610  143.1740 C   0  0  1  0  0  3  0  0  0  0  0  0
  182.6860  178.6820  144.5090 C   0  0  0  0  0  1  0  0  0  0  0  0
  182.6240  178.6480  142.1260 O   0  0  0  0  0  0  0  0  0  0  0  0
  184.5400  178.6900  140.6800 C   0  0  2  0  0  3  0  0  0  0  0  0
  183.1540  179.2620  140.9760 C   0  0  0  0  0  2  0  0  0  0  0  0
  183.3680  179.1200  143.2260 C   0  0  2  0  0  3  0  0  0  0  0  0
  185.4590  178.9880  141.8640 C   0  0  0  0  0  2  0  0  0  0  0  0
  185.5360  179.0410  144.2370 F   0  0  0  0  0  0  0  0  0  0  0  0
  191.0610  175.1830  138.0170 N   0  0  0  0  0  2  0  0  0  0  0  0
  190.6790  174.6330  136.7240 C   0  0  0  0  0  2  0  0  0  0  0  0
  192.7110  174.0810  135.5480 N   0  0  0  0  0  0  0  0  0  0  0  0
  191.7460  174.9200  135.7280 C   0  0  0  0  0  3  0  0  0  0  0  0
  193.6790  174.3310  134.6010 O   0  0  0  0  0  0  0  0  0  0  0  0
  195.0510  174.3820  134.9640 C   0  0  0  0  0  2  0  0  0  0  0  0
  195.2840  175.4710  136.0020 C   0  0  2  0  0  3  0  0  0  0  0  0
  195.5690  176.7700  135.3190 C   0  0  0  0  0  0  0  0  0  0  0  0
  194.5680  177.4210  134.6030 O   0  0  0  0  0  0  0  0  0  0  0  0
  196.7090  177.3000  135.4270 O   0  0  0  0  0  1  0  0  0  0  0  0
  196.3480  175.1150  136.8340 O   0  0  0  0  0  0  0  0  0  0  0  0
  194.8580  174.4510  138.5600 C   0  0  0  0  0  2  0  0  0  0  0  0
  195.8930  174.0060  137.5490 C   0  0  0  0  0  3  0  0  0  0  0  0
  196.2710  174.1590  139.0080 C   0  0  0  0  0  2  0  0  0  0  0  0
  1  3  1  0  0  0  0
  2 20  1  0  0  0  0
  2  1  2  0  0  0  0
  3  5  1  0  0  0  0
  4  5  2  0  0  0  0
  5  6  1  0  0  0  0
  6  7  1  0  0  0  0
  8  7  1  6  0  0  0
  8  9  1  0  0  0  0
  8 12  1  0  0  0  0
  8 10  1  0  0  0  0
 10  9  1  1  0  0  0
 10 17  1  0  0  0  0
 12 10  1  0  0  0  0
 12 11  2  0  0  0  0
 13 16  1  0  0  0  0
 14 13  1  0  0  0  0
 15 16  1  0  0  0  0
 16 18  1  1  0  0  0
 17 14  1  1  0  0  0
 17 15  1  0  0  0  0
 18 19  3  0  0  0  0
 21 22  1  0  0  0  0
 21 20  1  0  0  0  0
 23 27  1  0  0  0  0
 23 28  1  1  0  0  0
 24 22  1  1  0  0  0
 24 23  1  0  0  0  0
 25 24  1  0  0  0  0
 25 26  1  0  0  0  0
 26 27  1  0  0  0  0
 29 34  1  0  0  0  0
 29 36  1  1  0  0  0
 31 34  1  0  0  0  0
 32 28  1  6  0  0  0
 32 33  1  0  0  0  0
 32 35  1  0  0  0  0
 33 31  1  0  0  0  0
 34 30  1  1  0  0  0
 35 29  1  0  0  0  0
 37  1  1  0  0  0  0
 38 37  1  0  0  0  0
 39 40  2  0  0  0  0
 40 38  1  0  0  0  0
 41 42  1  0  0  0  0
 41 39  1  0  0  0  0
 43 42  1  6  0  0  0
 43 47  1  0  0  0  0
 44 46  1  0  0  0  0
 44 43  1  0  0  0  0
 45 44  2  0  0  0  0
 47 49  1  0  0  0  0
 48 50  1  0  0  0  0
 49 48  1  0  0  0  0
 49 50  1  0  0  0  0
M  END
>  <MODEL>
3

>  <REMARK>
 VINA RESULT:      -7.2      2.248      8.370
  Name = 
  20 active torsions:
  status: ('A' for Active; 'I' for Inactive)
    1  A    between atoms: N_1  and  O_28
    2  A    between atoms: C_2  and  O_25
    3  A    between atoms: C_6  and  N_48
    4  A    between atoms: C_7  and  C_10
    5  A    between atoms: C_7  and  O_44
    6  A    between atoms: C_8  and  C_41
    7  A    between atoms: N_11  and  C_40
    8  A    between atoms: C_13  and  C_39
    9  A    between atoms: C_14  and  N_45
   10  A    between atoms: C_19  and  C_23
   11  A    between atoms: C_23  and  C_26
   12  A    between atoms: C_23  and  O_27
   13  A    between atoms: C_24  and  O_27
   14  A    between atoms: O_25  and  N_49
   15  A    between atoms: C_26  and  O_28
   16  A    between atoms: N_30  and  C_39
   17  A    between atoms: N_30  and  C_40
   18  A    between atoms: C_31  and  N_48
   19  A    between atoms: C_32  and  C_43
   20  A    between atoms: C_32  and  O_44
                            x       y       z     vdW  Elec       q    Type
                         _______ _______ _______ _____ _____    ______ ____

>  <TORSDO>
F 20

$$$$
=
 OpenBabel10222419073D

 50 55  0  0  1  0  0  0  0  0999 V2000
  184.3960  178.5200  141.5690 C   0  0  0  0  0  0  0  0  0  0  0  0
  183.2160  177.9120  141.4490 C   0  0  0  0  0  3  0  0  0  0  0  0
  185.3720  178.3860  140.5250 N   0  0  0  0  0  2  0  0  0  0  0  0
  184.5300  180.0040  139.0520 O   0  0  0  0  0  0  0  0  0  0  0  0
  185.3560  179.0780  139.2710 C   0  0  0  0  0  0  0  0  0  0  0  0
  186.2850  178.7120  138.2490 N   0  0  0  0  0  2  0  0  0  0  0  0
  187.2070  177.7370  138.4470 O   0  0  0  0  0  0  0  0  0  0  0  0
  188.4070  178.2470  137.9240 C   0  0  1  0  0  0  0  0  0  0  0  0
  188.9150  179.3670  138.7110 N   0  0  0  0  0  2  0  0  0  0  0  0
  189.5130  178.0330  138.8290 C   0  0  2  0  0  0  0  0  0  0  0  0
  189.8110  176.2500  136.8640 O   0  0  0  0  0  0  0  0  0  0  0  0
  189.4160  177.1630  137.5720 C   0  0  0  0  0  0  0  0  0  0  0  0
  190.1440  176.4500  142.0330 C   0  0  0  0  0  2  0  0  0  0  0  0
  190.1720  176.4660  140.5200 C   0  0  0  0  0  2  0  0  0  0  0  0
  188.9440  178.3300  141.1280 C   0  0  0  0  0  2  0  0  0  0  0  0
  189.3780  177.6880  142.4290 C   0  0  2  0  0  3  0  0  0  0  0  0
  189.0910  177.3390  140.0640 N   0  0  1  0  0  0  0  0  0  0  0  0
  190.2560  178.6050  143.1630 C   0  0  0  0  0  0  0  0  0  0  0  0
  190.9490  179.3320  143.7400 N   0  0  0  0  0  0  0  0  0  0  0  0
  182.8860  177.0530  140.2740 C   0  0  0  0  0  2  0  0  0  0  0  0
  181.5020  176.9190  140.1630 O   0  0  0  0  0  0  0  0  0  0  0  0
  181.1610  177.6860  139.0470 C   0  0  0  0  0  2  0  0  0  0  0  0
  179.3250  179.3620  138.5990 C   0  0  1  0  0  3  0  0  0  0  0  0
  179.6570  177.9420  139.0230 C   0  0  2  0  0  3  0  0  0  0  0  0
  179.1350  177.9190  140.4290 C   0  0  0  0  0  2  0  0  0  0  0  0
  178.9960  179.3830  140.8100 C   0  0  0  0  0  2  0  0  0  0  0  0
  179.4080  180.1850  139.7300 O   0  0  0  0  0  0  0  0  0  0  0  0
  180.2040  179.8580  137.5440 N   0  0  0  0  0  2  0  0  0  0  0  0
  181.3060  183.4790  137.6550 C   0  0  1  0  0  3  0  0  0  0  0  0
  180.7440  185.2080  135.9400 C   0  0  0  0  0  1  0  0  0  0  0  0
  179.5610  183.1400  136.0260 O   0  0  0  0  0  0  0  0  0  0  0  0
  180.0600  181.3070  137.4930 C   0  0  2  0  0  3  0  0  0  0  0  0
  179.7320  181.7440  136.0660 C   0  0  0  0  0  2  0  0  0  0  0  0
  180.8310  183.7180  136.2160 C   0  0  2  0  0  3  0  0  0  0  0  0
  181.3630  181.9750  137.9270 C   0  0  0  0  0  2  0  0  0  0  0  0
  182.5640  184.0230  137.8400 F   0  0  0  0  0  0  0  0  0  0  0  0
  184.6690  179.3450  142.7060 N   0  0  0  0  0  2  0  0  0  0  0  0
  184.1700  179.0780  144.0470 C   0  0  0  0  0  2  0  0  0  0  0  0
  186.3750  178.1900  144.4550 N   0  0  0  0  0  0  0  0  0  0  0  0
  185.3080  178.7340  144.9410 C   0  0  0  0  0  3  0  0  0  0  0  0
  187.4420  177.9040  145.2760 O   0  0  0  0  0  0  0  0  0  0  0  0
  187.2350  177.3550  146.5700 C   0  0  0  0  0  2  0  0  0  0  0  0
  188.5640  177.1760  147.2880 C   0  0  2  0  0  3  0  0  0  0  0  0
  188.5950  178.0270  148.5180 C   0  0  0  0  0  0  0  0  0  0  0  0
  189.7440  178.7390  148.8500 O   0  0  0  0  0  0  0  0  0  0  0  0
  187.5620  178.1330  149.2350 O   0  0  0  0  0  1  0  0  0  0  0  0
  189.6160  177.5180  146.4350 O   0  0  0  0  0  0  0  0  0  0  0  0
  191.4710  176.2660  147.2310 C   0  0  0  0  0  2  0  0  0  0  0  0
  190.3260  176.3310  146.2430 C   0  0  0  0  0  3  0  0  0  0  0  0
  191.7360  176.6570  145.7960 C   0  0  0  0  0  2  0  0  0  0  0  0
  1 37  1  0  0  0  0
  2  1  2  0  0  0  0
  3  1  1  0  0  0  0
  4  5  2  0  0  0  0
  5  3  1  0  0  0  0
  6  7  1  0  0  0  0
  6  5  1  0  0  0  0
  8  7  1  1  0  0  0
  8  9  1  0  0  0  0
  8 10  1  0  0  0  0
  9 10  1  0  0  0  0
 10 12  1  6  0  0  0
 10 17  1  0  0  0  0
 11 12  2  0  0  0  0
 12  8  1  0  0  0  0
 13 16  1  0  0  0  0
 14 13  1  0  0  0  0
 15 16  1  0  0  0  0
 16 18  1  6  0  0  0
 17 14  1  1  0  0  0
 17 15  1  0  0  0  0
 18 19  3  0  0  0  0
 20  2  1  0  0  0  0
 21 20  1  0  0  0  0
 22 21  1  0  0  0  0
 23 28  1  6  0  0  0
 23 24  1  0  0  0  0
 23 27  1  0  0  0  0
 24 22  1  1  0  0  0
 24 25  1  0  0  0  0
 25 26  1  0  0  0  0
 27 26  1  0  0  0  0
 29 36  1  6  0  0  0
 29 35  1  0  0  0  0
 31 33  1  0  0  0  0
 31 34  1  0  0  0  0
 32 28  1  6  0  0  0
 32 35  1  0  0  0  0
 33 32  1  0  0  0  0
 34 30  1  1  0  0  0
 34 29  1  0  0  0  0
 37 38  1  0  0  0  0
 38 40  1  0  0  0  0
 39 40  2  0  0  0  0
 39 41  1  0  0  0  0
 41 42  1  0  0  0  0
 43 42  1  6  0  0  0
 43 44  1  0  0  0  0
 44 45  2  0  0  0  0
 44 46  1  0  0  0  0
 47 43  1  0  0  0  0
 49 47  1  0  0  0  0
 49 48  1  0  0  0  0
 50 49  1  0  0  0  0
 50 48  1  0  0  0  0
M  END
>  <MODEL>
4

>  <REMARK>
 VINA RESULT:      -7.2      4.116      7.053
  Name = 
  20 active torsions:
  status: ('A' for Active; 'I' for Inactive)
    1  A    between atoms: N_1  and  O_28
    2  A    between atoms: C_2  and  O_25
    3  A    between atoms: C_6  and  N_48
    4  A    between atoms: C_7  and  C_10
    5  A    between atoms: C_7  and  O_44
    6  A    between atoms: C_8  and  C_41
    7  A    between atoms: N_11  and  C_40
    8  A    between atoms: C_13  and  C_39
    9  A    between atoms: C_14  and  N_45
   10  A    between atoms: C_19  and  C_23
   11  A    between atoms: C_23  and  C_26
   12  A    between atoms: C_23  and  O_27
   13  A    between atoms: C_24  and  O_27
   14  A    between atoms: O_25  and  N_49
   15  A    between atoms: C_26  and  O_28
   16  A    between atoms: N_30  and  C_39
   17  A    between atoms: N_30  and  C_40
   18  A    between atoms: C_31  and  N_48
   19  A    between atoms: C_32  and  C_43
   20  A    between atoms: C_32  and  O_44
                            x       y       z     vdW  Elec       q    Type
                         _______ _______ _______ _____ _____    ______ ____

>  <TORSDO>
F 20

$$$$
=
 OpenBabel10222419073D

 50 55  0  0  1  0  0  0  0  0999 V2000
  190.3220  176.4000  138.8660 C   0  0  0  0  0  0  0  0  0  0  0  0
  189.5510  177.2290  138.1630 C   0  0  0  0  0  3  0  0  0  0  0  0
  190.6830  176.7380  140.2130 N   0  0  0  0  0  2  0  0  0  0  0  0
  192.8510  177.5300  139.8040 O   0  0  0  0  0  0  0  0  0  0  0  0
  191.9630  177.2160  140.6410 C   0  0  0  0  0  0  0  0  0  0  0  0
  192.2430  177.3370  142.0360 N   0  0  0  0  0  2  0  0  0  0  0  0
  191.3110  177.0320  142.9740 O   0  0  0  0  0  0  0  0  0  0  0  0
  191.4140  178.0440  143.9430 C   0  0  1  0  0  0  0  0  0  0  0  0
  190.5530  179.1840  143.6380 N   0  0  0  0  0  2  0  0  0  0  0  0
  190.1750  178.2110  144.6680 C   0  0  2  0  0  0  0  0  0  0  0  0
  191.8310  176.9300  146.3230 O   0  0  0  0  0  0  0  0  0  0  0  0
  191.3460  177.5180  145.3700 C   0  0  0  0  0  0  0  0  0  0  0  0
  186.7300  177.1430  144.2630 C   0  0  0  0  0  2  0  0  0  0  0  0
  187.9760  177.3550  145.0950 C   0  0  0  0  0  2  0  0  0  0  0  0
  188.6260  177.7540  142.9110 C   0  0  0  0  0  2  0  0  0  0  0  0
  187.1440  177.4440  142.8440 C   0  0  2  0  0  3  0  0  0  0  0  0
  189.1290  177.2790  144.1990 N   0  0  1  0  0  0  0  0  0  0  0  0
  186.4160  178.6170  142.3500 C   0  0  0  0  0  0  0  0  0  0  0  0
  185.8430  179.5430  141.9550 N   0  0  0  0  0  0  0  0  0  0  0  0
  189.0800  178.5310  138.7190 C   0  0  0  0  0  2  0  0  0  0  0  0
  187.9550  178.9640  138.0170 O   0  0  0  0  0  0  0  0  0  0  0  0
  186.9660  178.0260  138.3210 C   0  0  0  0  0  2  0  0  0  0  0  0
  184.5320  177.5720  137.8220 C   0  0  1  0  0  3  0  0  0  0  0  0
  185.8580  178.0690  137.2730 C   0  0  2  0  0  3  0  0  0  0  0  0
  186.1460  177.0450  136.2160 C   0  0  0  0  0  2  0  0  0  0  0  0
  185.2510  175.8690  136.5660 C   0  0  0  0  0  2  0  0  0  0  0  0
  184.5170  176.1740  137.7260 O   0  0  0  0  0  0  0  0  0  0  0  0
  184.2990  177.9890  139.2020 N   0  0  0  0  0  2  0  0  0  0  0  0
  181.0850  178.9070  140.9820 C   0  0  1  0  0  3  0  0  0  0  0  0
  179.2980  180.3870  140.0540 C   0  0  0  0  0  1  0  0  0  0  0  0
  180.9870  179.4750  138.6410 O   0  0  0  0  0  0  0  0  0  0  0  0
  182.8620  178.1670  139.3730 C   0  0  2  0  0  3  0  0  0  0  0  0
  182.3790  179.3250  138.5000 C   0  0  0  0  0  2  0  0  0  0  0  0
  180.7550  179.9780  139.9360 C   0  0  2  0  0  3  0  0  0  0  0  0
  182.5480  178.4860  140.8330 C   0  0  0  0  0  2  0  0  0  0  0  0
  180.8830  179.4050  142.2560 F   0  0  0  0  0  0  0  0  0  0  0  0
  190.7430  175.1540  138.3010 N   0  0  0  0  0  2  0  0  0  0  0  0
  191.2710  175.0060  136.9520 C   0  0  0  0  0  2  0  0  0  0  0  0
  193.4570  174.8150  137.9540 N   0  0  0  0  0  0  0  0  0  0  0  0
  192.7400  175.2400  136.9670 C   0  0  0  0  0  3  0  0  0  0  0  0
  194.8210  175.0000  137.9520 O   0  0  0  0  0  0  0  0  0  0  0  0
  195.6320  174.4270  138.9670 C   0  0  0  0  0  2  0  0  0  0  0  0
  196.9240  173.8870  138.3700 C   0  0  2  0  0  3  0  0  0  0  0  0
  197.8610  175.0170  138.0850 C   0  0  0  0  0  0  0  0  0  0  0  0
  198.5870  175.6040  139.1180 O   0  0  0  0  0  1  0  0  0  0  0  0
  198.0280  175.4120  136.8980 O   0  0  0  0  0  0  0  0  0  0  0  0
  196.6470  173.1790  137.1990 O   0  0  0  0  0  0  0  0  0  0  0  0
  196.8350  171.0080  136.2520 C   0  0  0  0  0  2  0  0  0  0  0  0
  196.9180  171.8450  137.5110 C   0  0  0  0  0  3  0  0  0  0  0  0
  195.6870  171.0050  137.2350 C   0  0  0  0  0  2  0  0  0  0  0  0
  1  3  1  0  0  0  0
  2 20  1  0  0  0  0
  2  1  2  0  0  0  0
  3  5  1  0  0  0  0
  4  5  2  0  0  0  0
  5  6  1  0  0  0  0
  6  7  1  0  0  0  0
  8  7  1  6  0  0  0
  8 10  1  0  0  0  0
  8 12  1  0  0  0  0
  9  8  1  0  0  0  0
 10  9  1  1  0  0  0
 10 12  1  0  0  0  0
 12 11  2  0  0  0  0
 13 14  1  0  0  0  0
 16 18  1  1  0  0  0
 16 15  1  0  0  0  0
 16 13  1  0  0  0  0
 17 15  1  6  0  0  0
 17 10  1  0  0  0  0
 17 14  1  0  0  0  0
 19 18  3  0  0  0  0
 21 22  1  0  0  0  0
 21 20  1  0  0  0  0
 23 28  1  1  0  0  0
 24 23  1  0  0  0  0
 24 22  1  1  0  0  0
 25 26  1  0  0  0  0
 25 24  1  0  0  0  0
 26 27  1  0  0  0  0
 27 23  1  0  0  0  0
 29 36  1  1  0  0  0
 31 34  1  0  0  0  0
 32 28  1  1  0  0  0
 32 35  1  0  0  0  0
 33 31  1  0  0  0  0
 33 32  1  0  0  0  0
 34 30  1  6  0  0  0
 34 29  1  0  0  0  0
 35 29  1  0  0  0  0
 37  1  1  0  0  0  0
 38 40  1  0  0  0  0
 38 37  1  0  0  0  0
 40 39  2  0  0  0  0
 41 39  1  0  0  0  0
 41 42  1  0  0  0  0
 43 42  1  6  0  0  0
 44 43  1  0  0  0  0
 44 45  1  0  0  0  0
 46 44  2  0  0  0  0
 47 49  1  0  0  0  0
 47 43  1  0  0  0  0
 48 50  1  0  0  0  0
 48 49  1  0  0  0  0
 50 49  1  0  0  0  0
M  END
>  <MODEL>
5

>  <REMARK>
 VINA RESULT:      -7.1      2.713      8.504
  Name = 
  20 active torsions:
  status: ('A' for Active; 'I' for Inactive)
    1  A    between atoms: N_1  and  O_28
    2  A    between atoms: C_2  and  O_25
    3  A    between atoms: C_6  and  N_48
    4  A    between atoms: C_7  and  C_10
    5  A    between atoms: C_7  and  O_44
    6  A    between atoms: C_8  and  C_41
    7  A    between atoms: N_11  and  C_40
    8  A    between atoms: C_13  and  C_39
    9  A    between atoms: C_14  and  N_45
   10  A    between atoms: C_19  and  C_23
   11  A    between atoms: C_23  and  C_26
   12  A    between atoms: C_23  and  O_27
   13  A    between atoms: C_24  and  O_27
   14  A    between atoms: O_25  and  N_49
   15  A    between atoms: C_26  and  O_28
   16  A    between atoms: N_30  and  C_39
   17  A    between atoms: N_30  and  C_40
   18  A    between atoms: C_31  and  N_48
   19  A    between atoms: C_32  and  C_43
   20  A    between atoms: C_32  and  O_44
                            x       y       z     vdW  Elec       q    Type
                         _______ _______ _______ _____ _____    ______ ____

>  <TORSDO>
F 20

$$$$
=
 OpenBabel10222419073D

 50 55  0  0  1  0  0  0  0  0999 V2000
  184.6310  178.4820  141.3710 C   0  0  0  0  0  0  0  0  0  0  0  0
  183.3740  178.0380  141.3680 C   0  0  0  0  0  3  0  0  0  0  0  0
  185.3590  178.5570  140.1370 N   0  0  0  0  0  2  0  0  0  0  0  0
  184.1260  180.2650  139.1080 O   0  0  0  0  0  0  0  0  0  0  0  0
  185.0300  179.3920  139.0200 C   0  0  0  0  0  0  0  0  0  0  0  0
  185.7300  179.2320  137.7860 N   0  0  0  0  0  2  0  0  0  0  0  0
  186.7250  178.3190  137.6500 O   0  0  0  0  0  0  0  0  0  0  0  0
  187.5810  178.8450  136.6680 C   0  0  1  0  0  0  0  0  0  0  0  0
  188.6770  179.6150  137.2510 N   0  0  0  0  0  2  0  0  0  0  0  0
  188.8990  178.2570  136.7430 C   0  0  2  0  0  0  0  0  0  0  0  0
  187.7120  177.1430  134.6270 O   0  0  0  0  0  0  0  0  0  0  0  0
  187.9690  177.8290  135.6030 C   0  0  0  0  0  0  0  0  0  0  0  0
  190.5580  175.5750  138.5370 C   0  0  0  0  0  2  0  0  0  0  0  0
  189.7690  176.1110  137.3630 C   0  0  0  0  0  2  0  0  0  0  0  0
  189.8080  177.8310  138.9080 C   0  0  0  0  0  2  0  0  0  0  0  0
  190.6180  176.7110  139.5270 C   0  0  2  0  0  3  0  0  0  0  0  0
  189.0000  177.2630  137.8310 N   0  0  1  0  0  0  0  0  0  0  0  0
  192.0080  177.1470  139.7040 C   0  0  0  0  0  0  0  0  0  0  0  0
  193.1040  177.4940  139.8420 N   0  0  0  0  0  0  0  0  0  0  0  0
  182.7040  177.5710  140.1190 C   0  0  0  0  0  2  0  0  0  0  0  0
  183.0380  176.2400  139.8740 O   0  0  0  0  0  0  0  0  0  0  0  0
  182.4510  175.9480  138.6410 C   0  0  0  0  0  2  0  0  0  0  0  0
  181.8160  177.3140  136.6130 C   0  0  1  0  0  3  0  0  0  0  0  0
  182.9230  176.9420  137.5840 C   0  0  2  0  0  3  0  0  0  0  0  0
  183.9010  176.2600  136.6750 C   0  0  0  0  0  2  0  0  0  0  0  0
  183.0940  175.9060  135.4380 C   0  0  0  0  0  2  0  0  0  0  0  0
  181.7660  176.3320  135.6140 O   0  0  0  0  0  0  0  0  0  0  0  0
  180.5140  177.4450  137.2630 N   0  0  0  0  0  2  0  0  0  0  0  0
  180.0810  181.0060  138.4780 C   0  0  1  0  0  3  0  0  0  0  0  0
  180.8010  183.0490  137.2330 C   0  0  0  0  0  1  0  0  0  0  0  0
  180.6490  180.9380  136.1350 O   0  0  0  0  0  0  0  0  0  0  0  0
  180.1280  178.8490  137.1960 C   0  0  2  0  0  3  0  0  0  0  0  0
  181.0440  179.5910  136.2230 C   0  0  0  0  0  2  0  0  0  0  0  0
  180.9810  181.5470  137.3610 C   0  0  2  0  0  3  0  0  0  0  0  0
  180.2520  179.4890  138.5770 C   0  0  0  0  0  2  0  0  0  0  0  0
  180.4200  181.5820  139.6880 F   0  0  0  0  0  0  0  0  0  0  0  0
  185.2330  178.9320  142.5890 N   0  0  0  0  0  2  0  0  0  0  0  0
  185.0360  178.2930  143.8820 C   0  0  0  0  0  2  0  0  0  0  0  0
  187.1790  177.2240  143.5930 N   0  0  0  0  0  0  0  0  0  0  0  0
  186.3410  177.7960  144.3940 C   0  0  0  0  0  3  0  0  0  0  0  0
  188.4010  176.7960  144.0590 O   0  0  0  0  0  0  0  0  0  0  0  0
  189.4590  177.7190  144.2740 C   0  0  0  0  0  2  0  0  0  0  0  0
  189.9890  177.5950  145.6950 C   0  0  2  0  0  3  0  0  0  0  0  0
  191.2870  176.8510  145.6890 C   0  0  0  0  0  0  0  0  0  0  0  0
  192.0440  176.7520  146.8530 O   0  0  0  0  0  1  0  0  0  0  0  0
  191.6750  176.2740  144.6360 O   0  0  0  0  0  0  0  0  0  0  0  0
  189.0540  176.9360  146.4960 O   0  0  0  0  0  0  0  0  0  0  0  0
  189.1840  178.2520  148.4690 C   0  0  0  0  0  2  0  0  0  0  0  0
  188.4070  177.9490  147.2050 C   0  0  0  0  0  3  0  0  0  0  0  0
  187.9350  177.4060  148.5380 C   0  0  0  0  0  2  0  0  0  0  0  0
  1 37  1  0  0  0  0
  2  1  2  0  0  0  0
  3  1  1  0  0  0  0
  5  4  2  0  0  0  0
  5  3  1  0  0  0  0
  6  5  1  0  0  0  0
  7  6  1  0  0  0  0
  8 10  1  0  0  0  0
  8  9  1  0  0  0  0
  8  7  1  1  0  0  0
 10 12  1  6  0  0  0
 10  9  1  0  0  0  0
 10 17  1  0  0  0  0
 11 12  2  0  0  0  0
 12  8  1  0  0  0  0
 13 16  1  0  0  0  0
 14 13  1  0  0  0  0
 15 16  1  0  0  0  0
 16 18  1  6  0  0  0
 17 14  1  6  0  0  0
 17 15  1  0  0  0  0
 18 19  3  0  0  0  0
 20  2  1  0  0  0  0
 21 20  1  0  0  0  0
 22 21  1  0  0  0  0
 23 28  1  1  0  0  0
 23 24  1  0  0  0  0
 24 22  1  1  0  0  0
 25 24  1  0  0  0  0
 26 27  1  0  0  0  0
 26 25  1  0  0  0  0
 27 23  1  0  0  0  0
 29 35  1  0  0  0  0
 29 36  1  1  0  0  0
 31 33  1  0  0  0  0
 31 34  1  0  0  0  0
 32 28  1  1  0  0  0
 32 35  1  0  0  0  0
 33 32  1  0  0  0  0
 34 30  1  6  0  0  0
 34 29  1  0  0  0  0
 37 38  1  0  0  0  0
 38 40  1  0  0  0  0
 39 41  1  0  0  0  0
 39 40  2  0  0  0  0
 41 42  1  0  0  0  0
 43 42  1  6  0  0  0
 43 47  1  0  0  0  0
 44 43  1  0  0  0  0
 44 45  1  0  0  0  0
 46 44  2  0  0  0  0
 47 49  1  0  0  0  0
 48 50  1  0  0  0  0
 49 48  1  0  0  0  0
 49 50  1  0  0  0  0
M  END
>  <MODEL>
6

>  <REMARK>
 VINA RESULT:      -6.8      3.548      6.072
  Name = 
  20 active torsions:
  status: ('A' for Active; 'I' for Inactive)
    1  A    between atoms: N_1  and  O_28
    2  A    between atoms: C_2  and  O_25
    3  A    between atoms: C_6  and  N_48
    4  A    between atoms: C_7  and  C_10
    5  A    between atoms: C_7  and  O_44
    6  A    between atoms: C_8  and  C_41
    7  A    between atoms: N_11  and  C_40
    8  A    between atoms: C_13  and  C_39
    9  A    between atoms: C_14  and  N_45
   10  A    between atoms: C_19  and  C_23
   11  A    between atoms: C_23  and  C_26
   12  A    between atoms: C_23  and  O_27
   13  A    between atoms: C_24  and  O_27
   14  A    between atoms: O_25  and  N_49
   15  A    between atoms: C_26  and  O_28
   16  A    between atoms: N_30  and  C_39
   17  A    between atoms: N_30  and  C_40
   18  A    between atoms: C_31  and  N_48
   19  A    between atoms: C_32  and  C_43
   20  A    between atoms: C_32  and  O_44
                            x       y       z     vdW  Elec       q    Type
                         _______ _______ _______ _____ _____    ______ ____

>  <TORSDO>
F 20

$$$$
=
 OpenBabel10222419073D

 50 55  0  0  1  0  0  0  0  0999 V2000
  190.2870  177.2570  141.0230 C   0  0  0  0  0  0  0  0  0  0  0  0
  189.1330  177.9240  140.9790 C   0  0  0  0  0  3  0  0  0  0  0  0
  190.5970  176.3110  139.9900 N   0  0  0  0  0  2  0  0  0  0  0  0
  192.6390  177.2220  139.2860 O   0  0  0  0  0  0  0  0  0  0  0  0
  191.7240  176.3750  139.1080 C   0  0  0  0  0  0  0  0  0  0  0  0
  191.8120  175.4700  138.0060 N   0  0  0  0  0  2  0  0  0  0  0  0
  190.8610  174.5270  137.7860 O   0  0  0  0  0  0  0  0  0  0  0  0
  190.9330  174.2380  136.4140 C   0  0  1  0  0  0  0  0  0  0  0  0
  190.7550  172.8140  136.1430 N   0  0  0  0  0  2  0  0  0  0  0  0
  189.6660  173.7660  135.9040 C   0  0  2  0  0  0  0  0  0  0  0  0
  189.9190  176.2800  135.0410 O   0  0  0  0  0  0  0  0  0  0  0  0
  190.1110  175.1900  135.5560 C   0  0  0  0  0  0  0  0  0  0  0  0
  186.2690  174.1090  137.1320 C   0  0  0  0  0  2  0  0  0  0  0  0
  187.5860  174.6860  136.6610 C   0  0  0  0  0  2  0  0  0  0  0  0
  187.9590  172.4140  136.8800 C   0  0  0  0  0  2  0  0  0  0  0  0
  186.5010  172.6220  137.2350 C   0  0  2  0  0  3  0  0  0  0  0  0
  188.6320  173.7090  136.9580 N   0  0  1  0  0  0  0  0  0  0  0  0
  185.6530  171.9160  136.2690 C   0  0  0  0  0  0  0  0  0  0  0  0
  184.9810  171.3570  135.5090 N   0  0  0  0  0  0  0  0  0  0  0  0
  188.1240  177.6870  139.9060 C   0  0  0  0  0  2  0  0  0  0  0  0
  188.3510  178.5610  138.8440 O   0  0  0  0  0  0  0  0  0  0  0  0
  187.9530  177.8510  137.7100 C   0  0  0  0  0  2  0  0  0  0  0  0
  185.6150  178.1280  136.7940 C   0  0  1  0  0  3  0  0  0  0  0  0
  187.0200  178.7030  136.8550 C   0  0  2  0  0  3  0  0  0  0  0  0
  187.4460  178.6040  135.4200 C   0  0  0  0  0  2  0  0  0  0  0  0
  186.4840  177.6040  134.8020 C   0  0  0  0  0  2  0  0  0  0  0  0
  185.5870  177.1540  135.7860 O   0  0  0  0  0  0  0  0  0  0  0  0
  185.1820  177.5560  138.0660 N   0  0  0  0  0  2  0  0  0  0  0  0
  181.7210  177.5330  139.6030 C   0  0  1  0  0  3  0  0  0  0  0  0
  180.6090  179.4970  140.6760 C   0  0  0  0  0  1  0  0  0  0  0  0
  182.5320  179.7830  139.2960 O   0  0  0  0  0  0  0  0  0  0  0  0
  183.8190  178.0120  138.3120 C   0  0  2  0  0  3  0  0  0  0  0  0
  183.8480  179.3290  139.0870 C   0  0  0  0  0  2  0  0  0  0  0  0
  181.9390  178.9140  140.2320 C   0  0  2  0  0  3  0  0  0  0  0  0
  183.0640  176.9700  139.1370 C   0  0  0  0  0  2  0  0  0  0  0  0
  181.1620  176.6690  140.5260 F   0  0  0  0  0  0  0  0  0  0  0  0
  191.2330  177.5230  142.0630 N   0  0  0  0  0  2  0  0  0  0  0  0
  191.5180  176.6090  143.1600 C   0  0  0  0  0  2  0  0  0  0  0  0
  190.0390  177.9940  144.4690 N   0  0  0  0  0  0  0  0  0  0  0  0
  190.5260  176.8180  144.2490 C   0  0  0  0  0  3  0  0  0  0  0  0
  189.0960  178.1810  145.4540 O   0  0  0  0  0  0  0  0  0  0  0  0
  187.9050  177.4070  145.4720 C   0  0  0  0  0  2  0  0  0  0  0  0
  186.6840  178.3120  145.4020 C   0  0  2  0  0  3  0  0  0  0  0  0
  186.1220  178.5130  146.7730 C   0  0  0  0  0  0  0  0  0  0  0  0
  186.8920  178.2230  147.8960 O   0  0  0  0  0  1  0  0  0  0  0  0
  184.9610  178.9890  146.9140 O   0  0  0  0  0  0  0  0  0  0  0  0
  185.7220  177.7490  144.5610 O   0  0  0  0  0  0  0  0  0  0  0  0
  185.0870  179.3020  142.8800 C   0  0  0  0  0  2  0  0  0  0  0  0
  186.0480  178.2050  143.2820 C   0  0  0  0  0  3  0  0  0  0  0  0
  184.9040  177.9050  142.3350 C   0  0  0  0  0  2  0  0  0  0  0  0
  1 37  1  0  0  0  0
  2  1  2  0  0  0  0
  3  1  1  0  0  0  0
  5  4  2  0  0  0  0
  5  3  1  0  0  0  0
  6  5  1  0  0  0  0
  7  6  1  0  0  0  0
  8  7  1  1  0  0  0
  9  8  1  0  0  0  0
 10 12  1  6  0  0  0
 10  9  1  0  0  0  0
 10  8  1  0  0  0  0
 10 17  1  0  0  0  0
 11 12  2  0  0  0  0
 12  8  1  0  0  0  0
 13 16  1  0  0  0  0
 14 13  1  0  0  0  0
 15 17  1  0  0  0  0
 15 16  1  0  0  0  0
 16 18  1  6  0  0  0
 17 14  1  6  0  0  0
 19 18  3  0  0  0  0
 20  2  1  0  0  0  0
 21 20  1  0  0  0  0
 22 21  1  0  0  0  0
 23 24  1  0  0  0  0
 23 28  1  1  0  0  0
 24 22  1  1  0  0  0
 25 24  1  0  0  0  0
 26 25  1  0  0  0  0
 26 27  1  0  0  0  0
 27 23  1  0  0  0  0
 29 34  1  0  0  0  0
 29 36  1  1  0  0  0
 31 34  1  0  0  0  0
 32 28  1  1  0  0  0
 32 33  1  0  0  0  0
 32 35  1  0  0  0  0
 33 31  1  0  0  0  0
 34 30  1  6  0  0  0
 35 29  1  0  0  0  0
 37 38  1  0  0  0  0
 38 40  1  0  0  0  0
 39 41  1  0  0  0  0
 40 39  2  0  0  0  0
 41 42  1  0  0  0  0
 43 42  1  1  0  0  0
 43 44  1  0  0  0  0
 44 46  2  0  0  0  0
 44 45  1  0  0  0  0
 47 43  1  0  0  0  0
 48 49  1  0  0  0  0
 49 47  1  0  0  0  0
 50 48  1  0  0  0  0
 50 49  1  0  0  0  0
M  END
>  <MODEL>
7

>  <REMARK>
 VINA RESULT:      -6.8      3.166      5.620
  Name = 
  20 active torsions:
  status: ('A' for Active; 'I' for Inactive)
    1  A    between atoms: N_1  and  O_28
    2  A    between atoms: C_2  and  O_25
    3  A    between atoms: C_6  and  N_48
    4  A    between atoms: C_7  and  C_10
    5  A    between atoms: C_7  and  O_44
    6  A    between atoms: C_8  and  C_41
    7  A    between atoms: N_11  and  C_40
    8  A    between atoms: C_13  and  C_39
    9  A    between atoms: C_14  and  N_45
   10  A    between atoms: C_19  and  C_23
   11  A    between atoms: C_23  and  C_26
   12  A    between atoms: C_23  and  O_27
   13  A    between atoms: C_24  and  O_27
   14  A    between atoms: O_25  and  N_49
   15  A    between atoms: C_26  and  O_28
   16  A    between atoms: N_30  and  C_39
   17  A    between atoms: N_30  and  C_40
   18  A    between atoms: C_31  and  N_48
   19  A    between atoms: C_32  and  C_43
   20  A    between atoms: C_32  and  O_44
                            x       y       z     vdW  Elec       q    Type
                         _______ _______ _______ _____ _____    ______ ____

>  <TORSDO>
F 20

$$$$
=
 OpenBabel10222419073D

 50 55  0  0  1  0  0  0  0  0999 V2000
  186.4510  177.8930  143.1070 C   0  0  0  0  0  0  0  0  0  0  0  0
  187.5270  178.1610  142.3680 C   0  0  0  0  0  3  0  0  0  0  0  0
  185.1450  178.0100  142.5240 N   0  0  0  0  0  2  0  0  0  0  0  0
  184.3520  179.8050  143.8070 O   0  0  0  0  0  0  0  0  0  0  0  0
  184.1160  178.9110  142.9510 C   0  0  0  0  0  0  0  0  0  0  0  0
  182.8020  178.7940  142.4050 N   0  0  0  0  0  2  0  0  0  0  0  0
  182.5060  177.8610  141.4650 O   0  0  0  0  0  0  0  0  0  0  0  0
  181.6820  178.5170  140.5350 C   0  0  1  0  0  0  0  0  0  0  0  0
  182.4490  179.3590  139.6220 N   0  0  0  0  0  2  0  0  0  0  0  0
  181.9320  178.0570  139.1880 C   0  0  2  0  0  0  0  0  0  0  0  0
  179.6250  176.9410  139.9330 O   0  0  0  0  0  0  0  0  0  0  0  0
  180.6520  177.5980  139.8930 C   0  0  0  0  0  0  0  0  0  0  0  0
  183.6700  175.2660  137.6530 C   0  0  0  0  0  2  0  0  0  0  0  0
  182.4970  175.8650  138.3970 C   0  0  0  0  0  2  0  0  0  0  0  0
  184.1020  177.5310  138.3450 C   0  0  0  0  0  2  0  0  0  0  0  0
  184.7000  176.3660  137.5830 C   0  0  2  0  0  3  0  0  0  0  0  0
  182.9870  177.0240  139.1430 N   0  0  1  0  0  0  0  0  0  0  0  0
  184.9240  176.7520  136.1860 C   0  0  0  0  0  0  0  0  0  0  0  0
  185.0990  177.0610  135.0830 N   0  0  0  0  0  0  0  0  0  0  0  0
  187.4200  178.6260  140.9550 C   0  0  0  0  0  2  0  0  0  0  0  0
  188.6840  178.6390  140.3650 O   0  0  0  0  0  0  0  0  0  0  0  0
  188.9490  177.3000  140.0680 C   0  0  0  0  0  2  0  0  0  0  0  0
  189.5810  176.5580  137.7380 C   0  0  1  0  0  3  0  0  0  0  0  0
  188.4490  176.9620  138.6670 C   0  0  2  0  0  3  0  0  0  0  0  0
  187.9560  178.2160  138.0080 C   0  0  0  0  0  2  0  0  0  0  0  0
  189.0900  178.6410  137.0910 C   0  0  0  0  0  2  0  0  0  0  0  0
  190.1500  177.7250  137.2120 O   0  0  0  0  0  0  0  0  0  0  0  0
  190.6000  175.7510  138.4050 N   0  0  0  0  0  2  0  0  0  0  0  0
  193.6400  174.0230  136.9510 C   0  0  1  0  0  3  0  0  0  0  0  0
  193.5800  172.0380  135.4350 C   0  0  0  0  0  1  0  0  0  0  0  0
  191.6170  173.3310  135.8360 O   0  0  0  0  0  0  0  0  0  0  0  0
  191.4460  175.1680  137.3720 C   0  0  2  0  0  3  0  0  0  0  0  0
  190.8150  173.8750  136.8550 C   0  0  0  0  0  2  0  0  0  0  0  0
  192.7920  172.8500  136.4460 C   0  0  2  0  0  3  0  0  0  0  0  0
  192.8240  174.8470  137.9490 C   0  0  0  0  0  2  0  0  0  0  0  0
  194.7820  173.5550  137.5740 F   0  0  0  0  0  0  0  0  0  0  0  0
  186.5980  177.4380  144.4560 N   0  0  0  0  0  2  0  0  0  0  0  0
  186.2290  178.2210  145.6260 C   0  0  0  0  0  2  0  0  0  0  0  0
  188.0790  177.0140  146.5950 N   0  0  0  0  0  0  0  0  0  0  0  0
  187.1610  177.9110  146.7440 C   0  0  0  0  0  3  0  0  0  0  0  0
  188.9630  176.7510  147.6170 O   0  0  0  0  0  0  0  0  0  0  0  0
  190.2820  177.2770  147.5870 C   0  0  0  0  0  2  0  0  0  0  0  0
  191.0480  176.7180  146.3960 C   0  0  2  0  0  3  0  0  0  0  0  0
  192.0890  175.7540  146.8700 C   0  0  0  0  0  0  0  0  0  0  0  0
  192.4820  174.6920  146.0620 O   0  0  0  0  0  0  0  0  0  0  0  0
  192.6450  175.9310  147.9900 O   0  0  0  0  0  1  0  0  0  0  0  0
  191.6400  177.7590  145.6790 O   0  0  0  0  0  0  0  0  0  0  0  0
  191.2950  177.6110  143.3340 C   0  0  0  0  0  2  0  0  0  0  0  0
  190.7300  178.0620  144.6640 C   0  0  0  0  0  3  0  0  0  0  0  0
  191.3510  179.0710  143.7190 C   0  0  0  0  0  2  0  0  0  0  0  0
  1 37  1  0  0  0  0
  2  1  2  0  0  0  0
  3  5  1  0  0  0  0
  3  1  1  0  0  0  0
  5  4  2  0  0  0  0
  6  5  1  0  0  0  0
  7  6  1  0  0  0  0
  8  7  1  1  0  0  0
  9  8  1  0  0  0  0
 10  9  1  6  0  0  0
 10 12  1  0  0  0  0
 10  8  1  0  0  0  0
 12 11  2  0  0  0  0
 12  8  1  0  0  0  0
 13 14  1  0  0  0  0
 14 17  1  0  0  0  0
 16 18  1  6  0  0  0
 16 13  1  0  0  0  0
 16 15  1  0  0  0  0
 17 15  1  6  0  0  0
 17 10  1  0  0  0  0
 19 18  3  0  0  0  0
 20  2  1  0  0  0  0
 21 20  1  0  0  0  0
 22 21  1  0  0  0  0
 23 28  1  1  0  0  0
 23 24  1  0  0  0  0
 24 22  1  1  0  0  0
 25 24  1  0  0  0  0
 26 27  1  0  0  0  0
 26 25  1  0  0  0  0
 27 23  1  0  0  0  0
 29 36  1  1  0  0  0
 29 35  1  0  0  0  0
 31 34  1  0  0  0  0
 31 33  1  0  0  0  0
 32 35  1  0  0  0  0
 32 28  1  1  0  0  0
 33 32  1  0  0  0  0
 34 30  1  6  0  0  0
 34 29  1  0  0  0  0
 37 38  1  0  0  0  0
 38 40  1  0  0  0  0
 39 40  2  0  0  0  0
 39 41  1  0  0  0  0
 42 41  1  0  0  0  0
 43 44  1  0  0  0  0
 43 42  1  1  0  0  0
 44 46  1  0  0  0  0
 45 44  2  0  0  0  0
 47 43  1  0  0  0  0
 48 50  1  0  0  0  0
 48 49  1  0  0  0  0
 49 47  1  0  0  0  0
 50 49  1  0  0  0  0
M  END
>  <MODEL>
8

>  <REMARK>
 VINA RESULT:      -6.8      2.852      8.982
  Name = 
  20 active torsions:
  status: ('A' for Active; 'I' for Inactive)
    1  A    between atoms: N_1  and  O_28
    2  A    between atoms: C_2  and  O_25
    3  A    between atoms: C_6  and  N_48
    4  A    between atoms: C_7  and  C_10
    5  A    between atoms: C_7  and  O_44
    6  A    between atoms: C_8  and  C_41
    7  A    between atoms: N_11  and  C_40
    8  A    between atoms: C_13  and  C_39
    9  A    between atoms: C_14  and  N_45
   10  A    between atoms: C_19  and  C_23
   11  A    between atoms: C_23  and  C_26
   12  A    between atoms: C_23  and  O_27
   13  A    between atoms: C_24  and  O_27
   14  A    between atoms: O_25  and  N_49
   15  A    between atoms: C_26  and  O_28
   16  A    between atoms: N_30  and  C_39
   17  A    between atoms: N_30  and  C_40
   18  A    between atoms: C_31  and  N_48
   19  A    between atoms: C_32  and  C_43
   20  A    between atoms: C_32  and  O_44
                            x       y       z     vdW  Elec       q    Type
                         _______ _______ _______ _____ _____    ______ ____

>  <TORSDO>
F 20

$$$$
=
 OpenBabel10222419073D

 50 55  0  0  1  0  0  0  0  0999 V2000
  184.3090  178.4660  141.5340 C   0  0  0  0  0  0  0  0  0  0  0  0
  183.1170  177.8960  141.3540 C   0  0  0  0  0  3  0  0  0  0  0  0
  185.3240  178.3150  140.5320 N   0  0  0  0  0  2  0  0  0  0  0  0
  184.5760  179.9510  139.0280 O   0  0  0  0  0  0  0  0  0  0  0  0
  185.3740  179.0090  139.2800 C   0  0  0  0  0  0  0  0  0  0  0  0
  186.3380  178.6280  138.2970 N   0  0  0  0  0  2  0  0  0  0  0  0
  187.2320  177.6340  138.5310 O   0  0  0  0  0  0  0  0  0  0  0  0
  188.4460  178.0910  137.9900 C   0  0  1  0  0  0  0  0  0  0  0  0
  188.9880  179.2220  138.7370 N   0  0  0  0  0  2  0  0  0  0  0  0
  189.5470  177.8760  138.9010 C   0  0  2  0  0  0  0  0  0  0  0  0
  189.7900  176.0180  137.0000 O   0  0  0  0  0  0  0  0  0  0  0  0
  189.4230  176.9660  137.6750 C   0  0  0  0  0  0  0  0  0  0  0  0
  190.1320  176.4300  142.1780 C   0  0  0  0  0  2  0  0  0  0  0  0
  190.1780  176.3810  140.6660 C   0  0  0  0  0  2  0  0  0  0  0  0
  188.9540  178.2760  141.1780 C   0  0  0  0  0  2  0  0  0  0  0  0
  189.3690  177.6880  142.5110 C   0  0  2  0  0  3  0  0  0  0  0  0
  189.1070  177.2390  140.1590 N   0  0  1  0  0  0  0  0  0  0  0  0
  190.2440  178.6310  143.2150 C   0  0  0  0  0  0  0  0  0  0  0  0
  190.9330  179.3750  143.7740 N   0  0  0  0  0  0  0  0  0  0  0  0
  182.8120  177.0630  140.1540 C   0  0  0  0  0  2  0  0  0  0  0  0
  181.6330  177.5090  139.5580 O   0  0  0  0  0  0  0  0  0  0  0  0
  181.0530  176.3590  139.0180 C   0  0  0  0  0  2  0  0  0  0  0  0
  181.0220  175.8340  136.5480 C   0  0  1  0  0  3  0  0  0  0  0  0
  180.4230  176.6720  137.6640 C   0  0  2  0  0  3  0  0  0  0  0  0
  180.8230  178.0560  137.2480 C   0  0  0  0  0  2  0  0  0  0  0  0
  181.9490  177.8460  136.2500 C   0  0  0  0  0  2  0  0  0  0  0  0
  182.1910  176.4690  136.1070 O   0  0  0  0  0  0  0  0  0  0  0  0
  181.3110  174.4640  136.9610 N   0  0  0  0  0  2  0  0  0  0  0  0
  184.9030  173.2720  137.0900 C   0  0  1  0  0  3  0  0  0  0  0  0
  185.8910  171.5160  135.6130 C   0  0  0  0  0  1  0  0  0  0  0  0
  183.8030  172.5320  135.0760 O   0  0  0  0  0  0  0  0  0  0  0  0
  182.6290  174.1160  136.4460 C   0  0  2  0  0  3  0  0  0  0  0  0
  182.5350  172.8480  135.5990 C   0  0  0  0  0  2  0  0  0  0  0  0
  184.5980  172.0970  136.1540 C   0  0  2  0  0  3  0  0  0  0  0  0
  183.5910  173.8650  137.6060 C   0  0  0  0  0  2  0  0  0  0  0  0
  185.6620  172.8450  138.1630 F   0  0  0  0  0  0  0  0  0  0  0  0
  184.5560  179.2670  142.6930 N   0  0  0  0  0  2  0  0  0  0  0  0
  184.0680  178.9470  144.0270 C   0  0  0  0  0  2  0  0  0  0  0  0
  186.3020  178.1390  144.4450 N   0  0  0  0  0  0  0  0  0  0  0  0
  185.2210  178.6630  144.9220 C   0  0  0  0  0  3  0  0  0  0  0  0
  187.3820  177.9090  145.2670 O   0  0  0  0  0  0  0  0  0  0  0  0
  187.1970  177.4210  146.5880 C   0  0  0  0  0  2  0  0  0  0  0  0
  188.5370  177.2950  147.2980 C   0  0  2  0  0  3  0  0  0  0  0  0
  188.5840  178.2320  148.4630 C   0  0  0  0  0  0  0  0  0  0  0  0
  189.7930  178.5010  149.0980 O   0  0  0  0  0  1  0  0  0  0  0  0
  187.5310  178.8130  148.8440 O   0  0  0  0  0  0  0  0  0  0  0  0
  189.5760  177.5750  146.4080 O   0  0  0  0  0  0  0  0  0  0  0  0
  191.4330  176.3570  147.2510 C   0  0  0  0  0  2  0  0  0  0  0  0
  190.2740  176.3720  146.2770 C   0  0  0  0  0  3  0  0  0  0  0  0
  191.6800  176.6590  145.7910 C   0  0  0  0  0  2  0  0  0  0  0  0
  1 37  1  0  0  0  0
  2  1  2  0  0  0  0
  3  1  1  0  0  0  0
  4  5  2  0  0  0  0
  5  3  1  0  0  0  0
  6  7  1  0  0  0  0
  6  5  1  0  0  0  0
  8  7  1  1  0  0  0
  8  9  1  0  0  0  0
  8 10  1  0  0  0  0
  9 10  1  0  0  0  0
 10 12  1  6  0  0  0
 10 17  1  0  0  0  0
 11 12  2  0  0  0  0
 12  8  1  0  0  0  0
 13 16  1  0  0  0  0
 14 13  1  0  0  0  0
 15 16  1  0  0  0  0
 16 18  1  6  0  0  0
 17 14  1  1  0  0  0
 17 15  1  0  0  0  0
 18 19  3  0  0  0  0
 20  2  1  0  0  0  0
 21 20  1  0  0  0  0
 22 21  1  0  0  0  0
 23 28  1  1  0  0  0
 23 24  1  0  0  0  0
 24 22  1  1  0  0  0
 25 24  1  0  0  0  0
 26 25  1  0  0  0  0
 27 26  1  0  0  0  0
 27 23  1  0  0  0  0
 29 35  1  0  0  0  0
 29 36  1  1  0  0  0
 31 33  1  0  0  0  0
 31 34  1  0  0  0  0
 32 28  1  1  0  0  0
 32 35  1  0  0  0  0
 33 32  1  0  0  0  0
 34 30  1  6  0  0  0
 34 29  1  0  0  0  0
 37 38  1  0  0  0  0
 38 40  1  0  0  0  0
 39 40  2  0  0  0  0
 39 41  1  0  0  0  0
 41 42  1  0  0  0  0
 43 42  1  6  0  0  0
 43 44  1  0  0  0  0
 44 46  2  0  0  0  0
 44 45  1  0  0  0  0
 47 43  1  0  0  0  0
 49 47  1  0  0  0  0
 49 48  1  0  0  0  0
 50 49  1  0  0  0  0
 50 48  1  0  0  0  0
M  END
>  <MODEL>
9

>  <REMARK>
 VINA RESULT:      -6.8      3.974      6.946
  Name = 
  20 active torsions:
  status: ('A' for Active; 'I' for Inactive)
    1  A    between atoms: N_1  and  O_28
    2  A    between atoms: C_2  and  O_25
    3  A    between atoms: C_6  and  N_48
    4  A    between atoms: C_7  and  C_10
    5  A    between atoms: C_7  and  O_44
    6  A    between atoms: C_8  and  C_41
    7  A    between atoms: N_11  and  C_40
    8  A    between atoms: C_13  and  C_39
    9  A    between atoms: C_14  and  N_45
   10  A    between atoms: C_19  and  C_23
   11  A    between atoms: C_23  and  C_26
   12  A    between atoms: C_23  and  O_27
   13  A    between atoms: C_24  and  O_27
   14  A    between atoms: O_25  and  N_49
   15  A    between atoms: C_26  and  O_28
   16  A    between atoms: N_30  and  C_39
   17  A    between atoms: N_30  and  C_40
   18  A    between atoms: C_31  and  N_48
   19  A    between atoms: C_32  and  C_43
   20  A    between atoms: C_32  and  O_44
                            x       y       z     vdW  Elec       q    Type
                         _______ _______ _______ _____ _____    ______ ____

>  <TORSDO>
F 20

$$$$
