=
 OpenBabel10222417193D

 46 48  0  0  1  0  0  0  0  0999 V2000
  189.2550  177.1370  139.5780 N   0  0  0  0  0  2  0  0  0  0  0  0
  189.3240  177.9390  138.3630 C   0  0  2  0  0  3  0  0  0  0  0  0
  187.2140  178.3350  140.1790 C   0  0  0  0  0  3  0  0  0  0  0  0
  188.6110  177.9570  140.6010 C   0  0  1  0  0  3  0  0  0  0  0  0
  187.9110  178.1530  137.8050 C   0  0  0  0  0  2  0  0  0  0  0  0
  186.9050  178.4920  138.8880 C   0  0  0  0  0  0  0  0  0  0  0  0
  187.6130  177.3060  142.6880 N   0  0  0  0  0  0  0  0  0  0  0  0
  189.0590  177.3080  145.6940 N   0  0  0  0  0  0  0  0  0  0  0  0
  186.9160  177.5690  145.0230 C   0  0  0  0  0  0  0  0  0  0  0  0
  188.6680  177.2570  141.9230 C   0  0  0  0  0  0  0  0  0  0  0  0
  187.5710  176.6890  144.0150 C   0  0  2  0  0  3  0  0  0  0  0  0
  187.7850  177.8680  145.9840 C   0  0  0  0  0  3  0  0  0  0  0  0
  188.9460  176.6540  144.5870 C   0  0  0  0  0  0  0  0  0  0  0  0
  190.0670  176.4350  143.7310 N   0  0  0  0  0  0  0  0  0  0  0  0
  189.9460  176.7060  142.4620 C   0  0  0  0  0  3  0  0  0  0  0  0
  185.5240  178.1180  144.9030 C   0  0  1  0  0  3  0  0  0  0  0  0
  185.4480  179.5710  145.3390 C   0  0  0  0  0  1  0  0  0  0  0  0
  185.0620  177.9850  143.5440 N   0  0  0  0  0  0  0  0  0  0  0  0
  184.0620  178.6770  143.1350 C   0  0  0  0  0  3  0  0  0  0  0  0
  183.5270  178.5020  141.7510 C   0  0  0  0  0  2  0  0  0  0  0  0
  182.2080  178.9540  141.6750 O   0  0  0  0  0  0  0  0  0  0  0  0
  181.7540  178.9210  142.9970 C   0  0  0  0  0  2  0  0  0  0  0  0
  180.3200  179.3180  143.0500 C   0  0  0  0  0  0  0  0  0  0  0  0
  179.9570  180.6450  142.8540 O   0  0  0  0  0  0  0  0  0  0  0  0
  179.4370  178.4540  143.2950 O   0  0  0  0  0  1  0  0  0  0  0  0
  185.5560  178.8440  138.5570 N   0  0  0  0  0  2  0  0  0  0  0  0
  184.5050  177.9380  138.1960 C   0  0  0  0  0  0  0  0  0  0  0  0
  184.7550  176.7240  137.9720 O   0  0  0  0  0  0  0  0  0  0  0  0
  183.4550  180.5470  138.9520 O   0  0  0  0  0  0  0  0  0  0  0  0
  182.6890  179.7150  138.3920 C   0  0  0  0  0  0  0  0  0  0  0  0
  183.1590  178.4030  138.0490 N   0  0  0  0  0  2  0  0  0  0  0  0
  181.2960  180.0900  138.0940 C   0  0  0  0  0  0  0  0  0  0  0  0
  180.4560  179.1910  137.6960 N   0  0  0  0  0  2  0  0  0  0  0  0
  180.8550  181.5190  138.1640 C   0  0  0  0  0  2  0  0  0  0  0  0
  180.7920  182.1660  136.7760 C   0  0  0  0  0  2  0  0  0  0  0  0
  180.8800  184.2750  135.3830 C   0  0  0  0  0  1  0  0  0  0  0  0
  180.8740  183.6970  136.7910 C   0  0  1  0  0  3  0  0  0  0  0  0
  179.8290  185.5970  137.9600 C   0  0  0  0  0  2  0  0  0  0  0  0
  179.7960  184.3080  137.6340 C   0  0  0  0  0  3  0  0  0  0  0  0
  190.1910  177.2490  137.3690 C   0  0  0  0  0  3  0  0  0  0  0  0
  191.1470  176.4150  137.7550 C   0  0  0  0  0  3  0  0  0  0  0  0
  194.0880  174.9030  135.9150 N   0  0  0  0  0  2  0  0  0  0  0  0
  193.9630  176.1740  137.8690 O   0  0  0  0  0  0  0  0  0  0  0  0
  195.5330  174.7510  135.9770 C   0  0  0  0  0  1  0  0  0  0  0  0
  191.9430  175.7520  136.7770 N   0  0  0  0  0  2  0  0  0  0  0  0
  193.3610  175.6350  136.9000 C   0  0  0  0  0  0  0  0  0  0  0  0
  1  4  1  0  0  0  0
  2 40  1  6  0  0  0
  2  1  1  0  0  0  0
  3  4  1  0  0  0  0
  4 10  1  1  0  0  0
  5  2  1  0  0  0  0
  5  6  1  0  0  0  0
  6  3  2  0  0  0  0
  8 12  1  0  0  0  0
  9 12  2  0  0  0  0
 10 15  1  0  0  0  0
 10  7  2  0  0  0  0
 11  7  1  6  0  0  0
 11 13  1  0  0  0  0
 11  9  1  0  0  0  0
 13  8  2  0  0  0  0
 14 13  1  0  0  0  0
 15 14  2  0  0  0  0
 16  9  1  0  0  0  0
 16 17  1  6  0  0  0
 18 16  1  0  0  0  0
 19 18  2  0  0  0  0
 20 19  1  0  0  0  0
 21 20  1  0  0  0  0
 21 22  1  0  0  0  0
 22 23  1  0  0  0  0
 23 25  1  0  0  0  0
 24 23  2  0  0  0  0
 26  6  1  0  0  0  0
 27 26  1  0  0  0  0
 28 27  2  0  0  0  0
 30 29  2  0  0  0  0
 31 27  1  0  0  0  0
 31 30  1  0  0  0  0
 32 34  1  0  0  0  0
 32 30  1  0  0  0  0
 33 32  2  0  0  0  0
 35 37  1  0  0  0  0
 35 34  1  0  0  0  0
 37 36  1  6  0  0  0
 37 39  1  0  0  0  0
 39 38  2  0  0  0  0
 40 41  2  0  0  0  0
 42 44  1  0  0  0  0
 42 46  1  0  0  0  0
 45 46  1  0  0  0  0
 45 41  1  0  0  0  0
 46 43  2  0  0  0  0
M  END
>  <MODEL>
1

>  <REMARK>
 VINA RESULT:      -7.9      0.000      0.000
  Name = 
  15 active torsions:
  status: ('A' for Active; 'I' for Inactive)
    1  A    between atoms: N_1  and  C_15
    2  A    between atoms: C_2  and  C_17
    3  A    between atoms: C_3  and  C_36
    4  A    between atoms: C_3  and  C_42
    5  A    between atoms: C_7  and  C_20
    6  A    between atoms: N_8  and  C_30
    7  A    between atoms: C_9  and  C_41
    8  A    between atoms: O_13  and  C_17
    9  A    between atoms: O_13  and  C_41
   10  A    between atoms: C_15  and  C_16
   11  A    between atoms: C_18  and  C_19
   12  A    between atoms: C_24  and  C_28
   13  A    between atoms: C_28  and  C_39
   14  A    between atoms: N_34  and  C_38
   15  A    between atoms: C_36  and  C_39
                            x       y       z     vdW  Elec       q    Type
                         _______ _______ _______ _____ _____    ______ ____

>  <TORSDO>
F 15

$$$$
=
 OpenBabel10222417193D

 46 48  0  0  1  0  0  0  0  0999 V2000
  191.2380  176.4910  139.4800 N   0  0  0  0  0  2  0  0  0  0  0  0
  191.1910  176.9940  138.1130 C   0  0  2  0  0  3  0  0  0  0  0  0
  188.9300  177.2330  139.7680 C   0  0  0  0  0  3  0  0  0  0  0  0
  190.3440  177.3260  140.2790 C   0  0  1  0  0  3  0  0  0  0  0  0
  189.8100  176.7130  137.5070 C   0  0  0  0  0  2  0  0  0  0  0  0
  188.6790  177.0160  138.4720 C   0  0  0  0  0  0  0  0  0  0  0  0
  189.3920  176.7610  142.4110 N   0  0  0  0  0  0  0  0  0  0  0  0
  190.3330  177.9080  145.4000 N   0  0  0  0  0  0  0  0  0  0  0  0
  188.3500  177.1860  144.5890 C   0  0  0  0  0  0  0  0  0  0  0  0
  190.4810  176.9740  141.7270 C   0  0  0  0  0  0  0  0  0  0  0  0
  189.4060  176.4480  143.8420 C   0  0  2  0  0  3  0  0  0  0  0  0
  188.9160  177.9780  145.4950 C   0  0  0  0  0  3  0  0  0  0  0  0
  190.6120  177.0580  144.4690 C   0  0  0  0  0  0  0  0  0  0  0  0
  191.8360  177.1260  143.7380 N   0  0  0  0  0  0  0  0  0  0  0  0
  191.7900  177.0750  142.4370 C   0  0  0  0  0  3  0  0  0  0  0  0
  186.8820  177.1200  144.2830 C   0  0  1  0  0  3  0  0  0  0  0  0
  186.0330  177.4310  145.5040 C   0  0  0  0  0  1  0  0  0  0  0  0
  186.5640  178.0360  143.2150 N   0  0  0  0  0  0  0  0  0  0  0  0
  185.3430  178.3620  142.9900 C   0  0  0  0  0  3  0  0  0  0  0  0
  184.9900  179.2540  141.8460 C   0  0  0  0  0  2  0  0  0  0  0  0
  185.3180  178.6470  140.6310 O   0  0  0  0  0  0  0  0  0  0  0  0
  184.0830  178.3100  140.0690 C   0  0  0  0  0  2  0  0  0  0  0  0
  183.4750  179.5090  139.4280 C   0  0  0  0  0  0  0  0  0  0  0  0
  184.2890  180.4850  138.8670 O   0  0  0  0  0  0  0  0  0  0  0  0
  182.2240  179.6490  139.4150 O   0  0  0  0  0  1  0  0  0  0  0  0
  187.3110  176.9310  138.0550 N   0  0  0  0  0  2  0  0  0  0  0  0
  186.5810  177.9250  137.3250 C   0  0  0  0  0  0  0  0  0  0  0  0
  187.0720  179.0710  137.1390 O   0  0  0  0  0  0  0  0  0  0  0  0
  185.2480  175.3380  137.2310 O   0  0  0  0  0  0  0  0  0  0  0  0
  184.6270  176.3640  136.8390 C   0  0  0  0  0  0  0  0  0  0  0  0
  185.2690  177.6470  136.8250 N   0  0  0  0  0  2  0  0  0  0  0  0
  183.2320  176.2430  136.3810 C   0  0  0  0  0  0  0  0  0  0  0  0
  182.9700  175.6530  135.2600 N   0  0  0  0  0  2  0  0  0  0  0  0
  182.1140  176.8690  137.1540 C   0  0  0  0  0  2  0  0  0  0  0  0
  181.5070  175.8950  138.1710 C   0  0  0  0  0  2  0  0  0  0  0  0
  179.8740  174.5340  136.8010 C   0  0  0  0  0  1  0  0  0  0  0  0
  180.0340  175.5560  137.9170 C   0  0  1  0  0  3  0  0  0  0  0  0
  180.0250  174.7740  140.2530 C   0  0  0  0  0  2  0  0  0  0  0  0
  179.3360  175.1190  139.1690 C   0  0  0  0  0  3  0  0  0  0  0  0
  192.2660  176.3450  137.3140 C   0  0  0  0  0  2  0  0  0  0  0  0
  193.4220  176.0060  137.8690 C   0  0  0  0  0  3  0  0  0  0  0  0
  196.4590  174.0060  136.8190 N   0  0  0  0  0  2  0  0  0  0  0  0
  195.6860  174.6750  138.9180 O   0  0  0  0  0  0  0  0  0  0  0  0
  197.6120  173.2970  137.3490 C   0  0  0  0  0  1  0  0  0  0  0  0
  194.4210  175.3640  137.0810 N   0  0  0  0  0  0  0  0  0  0  0  0
  195.5300  174.6810  137.6660 C   0  0  0  0  0  0  0  0  0  0  0  0
  1  4  1  0  0  0  0
  2 40  1  6  0  0  0
  2  1  1  0  0  0  0
  3  4  1  0  0  0  0
  4 10  1  1  0  0  0
  5  2  1  0  0  0  0
  5  6  1  0  0  0  0
  6  3  2  0  0  0  0
  8 12  1  0  0  0  0
  9 12  2  0  0  0  0
 10  7  2  0  0  0  0
 10 15  1  0  0  0  0
 11  7  1  6  0  0  0
 11 13  1  0  0  0  0
 11  9  1  0  0  0  0
 13  8  2  0  0  0  0
 14 13  1  0  0  0  0
 15 14  2  0  0  0  0
 16  9  1  0  0  0  0
 16 17  1  1  0  0  0
 18 16  1  0  0  0  0
 19 18  2  0  0  0  0
 20 19  1  0  0  0  0
 21 20  1  0  0  0  0
 22 21  1  0  0  0  0
 23 22  1  0  0  0  0
 24 23  2  0  0  0  0
 25 23  1  0  0  0  0
 26  6  1  0  0  0  0
 27 26  1  0  0  0  0
 28 27  2  0  0  0  0
 30 29  2  0  0  0  0
 31 30  1  0  0  0  0
 31 27  1  0  0  0  0
 32 30  1  0  0  0  0
 32 34  1  0  0  0  0
 33 32  2  0  0  0  0
 34 35  1  0  0  0  0
 37 36  1  6  0  0  0
 37 35  1  0  0  0  0
 37 39  1  0  0  0  0
 39 38  2  0  0  0  0
 40 41  1  0  0  0  0
 42 44  1  0  0  0  0
 42 46  1  0  0  0  0
 45 46  1  0  0  0  0
 45 41  2  0  0  0  0
 46 43  2  0  0  0  0
M  END
>  <MODEL>
2

>  <REMARK>
 VINA RESULT:      -7.5      2.950      4.145
  Name = 
  15 active torsions:
  status: ('A' for Active; 'I' for Inactive)
    1  A    between atoms: N_1  and  C_15
    2  A    between atoms: C_2  and  C_17
    3  A    between atoms: C_3  and  C_36
    4  A    between atoms: C_3  and  C_42
    5  A    between atoms: C_7  and  C_20
    6  A    between atoms: N_8  and  C_30
    7  A    between atoms: C_9  and  C_41
    8  A    between atoms: O_13  and  C_17
    9  A    between atoms: O_13  and  C_41
   10  A    between atoms: C_15  and  C_16
   11  A    between atoms: C_18  and  C_19
   12  A    between atoms: C_24  and  C_28
   13  A    between atoms: C_28  and  C_39
   14  A    between atoms: N_34  and  C_38
   15  A    between atoms: C_36  and  C_39
                            x       y       z     vdW  Elec       q    Type
                         _______ _______ _______ _____ _____    ______ ____

>  <TORSDO>
F 15

$$$$
=
 OpenBabel10222417193D

 46 48  0  0  1  0  0  0  0  0999 V2000
  181.7420  178.0230  138.4920 N   0  0  0  0  0  2  0  0  0  0  0  0
  182.1340  179.3870  138.8270 C   0  0  2  0  0  3  0  0  0  0  0  0
  183.6050  177.2200  139.8520 C   0  0  0  0  0  3  0  0  0  0  0  0
  182.9580  177.2130  138.4910 C   0  0  1  0  0  3  0  0  0  0  0  0
  182.5990  179.4460  140.2880 C   0  0  0  0  0  2  0  0  0  0  0  0
  183.4960  178.2810  140.6590 C   0  0  0  0  0  0  0  0  0  0  0  0
  183.6340  174.9880  137.8860 N   0  0  0  0  0  0  0  0  0  0  0  0
  182.6520  173.2450  135.2150 N   0  0  0  0  0  0  0  0  0  0  0  0
  184.5520  173.2350  136.4390 C   0  0  0  0  0  0  0  0  0  0  0  0
  182.6510  175.8390  137.9820 C   0  0  0  0  0  0  0  0  0  0  0  0
  183.4550  173.6310  137.3660 C   0  0  2  0  0  3  0  0  0  0  0  0
  184.0500  172.9850  135.2340 C   0  0  0  0  0  3  0  0  0  0  0  0
  182.3160  173.6160  136.4060 C   0  0  0  0  0  0  0  0  0  0  0  0
  181.1810  174.4500  136.6360 N   0  0  0  0  0  0  0  0  0  0  0  0
  181.3220  175.5020  137.3920 C   0  0  0  0  0  3  0  0  0  0  0  0
  186.0110  173.2300  136.7950 C   0  0  1  0  0  3  0  0  0  0  0  0
  186.7300  172.0210  136.2210 C   0  0  0  0  0  1  0  0  0  0  0  0
  186.6330  174.4430  136.3250 N   0  0  0  0  0  0  0  0  0  0  0  0
  187.7120  174.8660  136.8750 C   0  0  0  0  0  3  0  0  0  0  0  0
  188.3310  176.1570  136.4470 C   0  0  0  0  0  2  0  0  0  0  0  0
  187.4830  177.2280  136.7380 O   0  0  0  0  0  0  0  0  0  0  0  0
  187.6020  177.3960  138.1210 C   0  0  0  0  0  2  0  0  0  0  0  0
  188.6740  178.3850  138.4200 C   0  0  0  0  0  0  0  0  0  0  0  0
  188.8330  179.5040  137.6120 O   0  0  0  0  0  0  0  0  0  0  0  0
  189.4520  178.1960  139.3910 O   0  0  0  0  0  1  0  0  0  0  0  0
  184.1290  178.2180  141.9440 N   0  0  0  0  0  2  0  0  0  0  0  0
  185.4870  178.5690  142.2400 C   0  0  0  0  0  0  0  0  0  0  0  0
  186.3040  178.8070  141.3110 O   0  0  0  0  0  0  0  0  0  0  0  0
  183.8660  178.4350  144.6550 O   0  0  0  0  0  0  0  0  0  0  0  0
  185.1220  178.5030  144.7610 C   0  0  0  0  0  0  0  0  0  0  0  0
  185.9490  178.6190  143.5940 N   0  0  0  0  0  2  0  0  0  0  0  0
  185.7450  178.4730  146.0950 C   0  0  0  0  0  0  0  0  0  0  0  0
  185.5390  179.4430  146.9260 N   0  0  0  0  0  2  0  0  0  0  0  0
  186.6860  177.3740  146.4770 C   0  0  0  0  0  2  0  0  0  0  0  0
  188.0620  177.9150  146.8830 C   0  0  0  0  0  2  0  0  0  0  0  0
  189.6830  177.9710  144.9440 C   0  0  0  0  0  1  0  0  0  0  0  0
  189.2410  177.2220  146.1920 C   0  0  1  0  0  3  0  0  0  0  0  0
  191.5310  176.4710  146.7010 C   0  0  0  0  0  2  0  0  0  0  0  0
  190.3850  176.9910  147.1320 C   0  0  0  0  0  3  0  0  0  0  0  0
  180.9790  180.2990  138.5970 C   0  0  0  0  0  3  0  0  0  0  0  0
  181.1110  181.4000  137.8710 C   0  0  0  0  0  3  0  0  0  0  0  0
  178.9360  184.4180  137.1730 N   0  0  0  0  0  2  0  0  0  0  0  0
  181.2340  184.2040  137.5210 O   0  0  0  0  0  0  0  0  0  0  0  0
  178.9910  185.8560  136.9660 C   0  0  0  0  0  1  0  0  0  0  0  0
  179.9810  182.2400  137.6510 N   0  0  0  0  0  2  0  0  0  0  0  0
  180.1040  183.6480  137.4510 C   0  0  0  0  0  0  0  0  0  0  0  0
  1  2  1  0  0  0  0
  2 40  1  1  0  0  0
  2  5  1  0  0  0  0
  3  6  2  0  0  0  0
  4 10  1  1  0  0  0
  4  1  1  0  0  0  0
  4  3  1  0  0  0  0
  5  6  1  0  0  0  0
  6 26  1  0  0  0  0
  7 10  2  0  0  0  0
  8 12  1  0  0  0  0
  8 13  2  0  0  0  0
  9 16  1  0  0  0  0
  9 11  1  0  0  0  0
 11 13  1  6  0  0  0
 11  7  1  0  0  0  0
 12  9  2  0  0  0  0
 13 14  1  0  0  0  0
 14 15  2  0  0  0  0
 15 10  1  0  0  0  0
 16 17  1  6  0  0  0
 18 16  1  0  0  0  0
 18 19  2  0  0  0  0
 20 21  1  0  0  0  0
 20 19  1  0  0  0  0
 21 22  1  0  0  0  0
 22 23  1  0  0  0  0
 23 25  1  0  0  0  0
 24 23  2  0  0  0  0
 26 27  1  0  0  0  0
 27 31  1  0  0  0  0
 28 27  2  0  0  0  0
 29 30  2  0  0  0  0
 30 32  1  0  0  0  0
 31 30  1  0  0  0  0
 32 34  1  0  0  0  0
 32 33  2  0  0  0  0
 34 35  1  0  0  0  0
 37 36  1  6  0  0  0
 37 35  1  0  0  0  0
 37 39  1  0  0  0  0
 38 39  2  0  0  0  0
 41 40  2  0  0  0  0
 42 46  1  0  0  0  0
 44 42  1  0  0  0  0
 45 41  1  0  0  0  0
 46 43  2  0  0  0  0
 46 45  1  0  0  0  0
M  END
>  <MODEL>
3

>  <REMARK>
 VINA RESULT:      -7.3      3.381     10.662
  Name = 
  15 active torsions:
  status: ('A' for Active; 'I' for Inactive)
    1  A    between atoms: N_1  and  C_15
    2  A    between atoms: C_2  and  C_17
    3  A    between atoms: C_3  and  C_36
    4  A    between atoms: C_3  and  C_42
    5  A    between atoms: C_7  and  C_20
    6  A    between atoms: N_8  and  C_30
    7  A    between atoms: C_9  and  C_41
    8  A    between atoms: O_13  and  C_17
    9  A    between atoms: O_13  and  C_41
   10  A    between atoms: C_15  and  C_16
   11  A    between atoms: C_18  and  C_19
   12  A    between atoms: C_24  and  C_28
   13  A    between atoms: C_28  and  C_39
   14  A    between atoms: N_34  and  C_38
   15  A    between atoms: C_36  and  C_39
                            x       y       z     vdW  Elec       q    Type
                         _______ _______ _______ _____ _____    ______ ____

>  <TORSDO>
F 15

$$$$
=
 OpenBabel10222417193D

 46 48  0  0  1  0  0  0  0  0999 V2000
  189.0260  177.6090  139.9070 N   0  0  0  0  0  2  0  0  0  0  0  0
  188.5680  178.4130  138.7810 C   0  0  2  0  0  3  0  0  0  0  0  0
  187.0140  178.2760  141.1210 C   0  0  0  0  0  3  0  0  0  0  0  0
  188.5210  178.2430  141.1230 C   0  0  1  0  0  3  0  0  0  0  0  0
  187.0450  178.2840  138.6400 C   0  0  0  0  0  2  0  0  0  0  0  0
  186.3300  178.3630  139.9760 C   0  0  0  0  0  0  0  0  0  0  0  0
  188.3180  177.3510  143.3450 N   0  0  0  0  0  0  0  0  0  0  0  0
  190.4970  177.6840  145.8510 N   0  0  0  0  0  0  0  0  0  0  0  0
  188.2530  177.4170  145.7950 C   0  0  0  0  0  0  0  0  0  0  0  0
  189.1020  177.5670  142.3260 C   0  0  0  0  0  0  0  0  0  0  0  0
  188.7900  176.7320  144.5860 C   0  0  2  0  0  3  0  0  0  0  0  0
  189.2580  177.9120  146.5100 C   0  0  0  0  0  3  0  0  0  0  0  0
  190.2390  177.0300  144.7670 C   0  0  0  0  0  0  0  0  0  0  0  0
  191.0980  177.1000  143.6300 N   0  0  0  0  0  0  0  0  0  0  0  0
  190.5710  177.3420  142.4630 C   0  0  0  0  0  3  0  0  0  0  0  0
  186.7940  177.6090  146.0910 C   0  0  1  0  0  3  0  0  0  0  0  0
  186.5640  178.1100  147.5070 C   0  0  0  0  0  1  0  0  0  0  0  0
  186.2190  178.5300  145.1420 N   0  0  0  0  0  0  0  0  0  0  0  0
  185.0960  178.2590  144.5830 C   0  0  0  0  0  3  0  0  0  0  0  0
  184.5210  179.1680  143.5470 C   0  0  0  0  0  2  0  0  0  0  0  0
  183.3420  179.7570  144.0110 O   0  0  0  0  0  0  0  0  0  0  0  0
  182.4630  178.6830  144.1810 C   0  0  0  0  0  2  0  0  0  0  0  0
  181.1040  179.0600  143.7030 C   0  0  0  0  0  0  0  0  0  0  0  0
  179.9860  178.3980  144.1940 O   0  0  0  0  0  1  0  0  0  0  0  0
  180.9700  179.9640  142.8370 O   0  0  0  0  0  0  0  0  0  0  0  0
  184.8980  178.3810  140.0450 N   0  0  0  0  0  2  0  0  0  0  0  0
  184.0330  179.3770  139.4830 C   0  0  0  0  0  0  0  0  0  0  0  0
  184.5070  180.4460  139.0140 O   0  0  0  0  0  0  0  0  0  0  0  0
  182.5770  176.9420  140.1380 O   0  0  0  0  0  0  0  0  0  0  0  0
  181.9300  177.9870  139.8540 C   0  0  0  0  0  0  0  0  0  0  0  0
  182.6140  179.1920  139.4800 N   0  0  0  0  0  2  0  0  0  0  0  0
  180.4580  177.9690  139.8980 C   0  0  0  0  0  0  0  0  0  0  0  0
  179.8330  176.8650  140.1490 N   0  0  0  0  0  2  0  0  0  0  0  0
  179.6660  179.1960  139.5700 C   0  0  0  0  0  2  0  0  0  0  0  0
  179.2720  179.2440  138.0890 C   0  0  0  0  0  2  0  0  0  0  0  0
  180.2250  179.5230  135.7640 C   0  0  0  0  0  1  0  0  0  0  0  0
  180.2510  180.0200  137.2020 C   0  0  1  0  0  3  0  0  0  0  0  0
  180.9990  182.3240  137.6520 C   0  0  0  0  0  2  0  0  0  0  0  0
  180.0240  181.5000  137.2780 C   0  0  0  0  0  3  0  0  0  0  0  0
  189.2580  177.9600  137.5420 C   0  0  0  0  0  2  0  0  0  0  0  0
  190.1320  176.9620  137.5710 C   0  0  0  0  0  3  0  0  0  0  0  0
  192.1490  174.9850  135.0520 N   0  0  0  0  0  2  0  0  0  0  0  0
  191.8750  174.7450  137.3580 O   0  0  0  0  0  0  0  0  0  0  0  0
  193.0260  173.8320  134.9270 C   0  0  0  0  0  1  0  0  0  0  0  0
  190.7570  176.5370  136.3640 N   0  0  0  0  0  0  0  0  0  0  0  0
  191.6070  175.3910  136.3080 C   0  0  0  0  0  0  0  0  0  0  0  0
  1  4  1  0  0  0  0
  2 40  1  6  0  0  0
  2  1  1  0  0  0  0
  3  4  1  0  0  0  0
  4 10  1  1  0  0  0
  5  2  1  0  0  0  0
  5  6  1  0  0  0  0
  6 26  1  0  0  0  0
  6  3  2  0  0  0  0
  8 12  1  0  0  0  0
  9 16  1  0  0  0  0
  9 12  2  0  0  0  0
 10 15  1  0  0  0  0
 10  7  2  0  0  0  0
 11  7  1  6  0  0  0
 11 13  1  0  0  0  0
 11  9  1  0  0  0  0
 13  8  2  0  0  0  0
 14 13  1  0  0  0  0
 15 14  2  0  0  0  0
 16 17  1  1  0  0  0
 18 16  1  0  0  0  0
 19 18  2  0  0  0  0
 20 21  1  0  0  0  0
 20 19  1  0  0  0  0
 21 22  1  0  0  0  0
 23 22  1  0  0  0  0
 23 24  1  0  0  0  0
 25 23  2  0  0  0  0
 27 26  1  0  0  0  0
 28 27  2  0  0  0  0
 30 32  1  0  0  0  0
 30 29  2  0  0  0  0
 31 27  1  0  0  0  0
 31 30  1  0  0  0  0
 32 33  2  0  0  0  0
 34 32  1  0  0  0  0
 35 34  1  0  0  0  0
 37 36  1  6  0  0  0
 37 39  1  0  0  0  0
 37 35  1  0  0  0  0
 39 38  2  0  0  0  0
 40 41  1  0  0  0  0
 42 46  1  0  0  0  0
 44 42  1  0  0  0  0
 45 41  2  0  0  0  0
 46 45  1  0  0  0  0
 46 43  2  0  0  0  0
M  END
>  <MODEL>
4

>  <REMARK>
 VINA RESULT:      -7.2      1.649      2.276
  Name = 
  15 active torsions:
  status: ('A' for Active; 'I' for Inactive)
    1  A    between atoms: N_1  and  C_15
    2  A    between atoms: C_2  and  C_17
    3  A    between atoms: C_3  and  C_36
    4  A    between atoms: C_3  and  C_42
    5  A    between atoms: C_7  and  C_20
    6  A    between atoms: N_8  and  C_30
    7  A    between atoms: C_9  and  C_41
    8  A    between atoms: O_13  and  C_17
    9  A    between atoms: O_13  and  C_41
   10  A    between atoms: C_15  and  C_16
   11  A    between atoms: C_18  and  C_19
   12  A    between atoms: C_24  and  C_28
   13  A    between atoms: C_28  and  C_39
   14  A    between atoms: N_34  and  C_38
   15  A    between atoms: C_36  and  C_39
                            x       y       z     vdW  Elec       q    Type
                         _______ _______ _______ _____ _____    ______ ____

>  <TORSDO>
F 15

$$$$
=
 OpenBabel10222417193D

 46 48  0  0  1  0  0  0  0  0999 V2000
  189.0650  177.6280  140.1620 N   0  0  0  0  0  2  0  0  0  0  0  0
  188.7280  178.3920  138.9680 C   0  0  2  0  0  3  0  0  0  0  0  0
  186.9310  178.3180  141.1300 C   0  0  0  0  0  3  0  0  0  0  0  0
  188.4290  178.2960  141.2960 C   0  0  1  0  0  3  0  0  0  0  0  0
  187.2310  178.2480  138.6680 C   0  0  0  0  0  2  0  0  0  0  0  0
  186.3750  178.3640  139.9150 C   0  0  0  0  0  0  0  0  0  0  0  0
  187.9940  177.4890  143.5170 N   0  0  0  0  0  0  0  0  0  0  0  0
  189.9110  177.9050  146.2170 N   0  0  0  0  0  0  0  0  0  0  0  0
  187.6810  177.6480  145.9430 C   0  0  0  0  0  0  0  0  0  0  0  0
  188.8790  177.6630  142.5750 C   0  0  0  0  0  0  0  0  0  0  0  0
  188.3320  176.9160  144.8210 C   0  0  2  0  0  3  0  0  0  0  0  0
  188.6140  178.1650  146.7380 C   0  0  0  0  0  3  0  0  0  0  0  0
  189.7580  177.2130  145.1380 C   0  0  0  0  0  0  0  0  0  0  0  0
  190.7280  177.2340  144.0920 N   0  0  0  0  0  0  0  0  0  0  0  0
  190.3250  177.4360  142.8690 C   0  0  0  0  0  3  0  0  0  0  0  0
  186.2020  177.8590  146.0820 C   0  0  1  0  0  3  0  0  0  0  0  0
  185.8580  178.6660  147.3220 C   0  0  0  0  0  1  0  0  0  0  0  0
  185.6890  178.5180  144.9070 N   0  0  0  0  0  0  0  0  0  0  0  0
  184.4350  178.4700  144.6380 C   0  0  0  0  0  3  0  0  0  0  0  0
  183.8970  179.0880  143.3890 C   0  0  0  0  0  2  0  0  0  0  0  0
  182.6880  179.7380  143.6460 O   0  0  0  0  0  0  0  0  0  0  0  0
  181.7930  178.7020  143.9300 C   0  0  0  0  0  2  0  0  0  0  0  0
  180.3980  179.1500  143.6600 C   0  0  0  0  0  0  0  0  0  0  0  0
  179.3250  178.3600  144.0560 O   0  0  0  0  0  1  0  0  0  0  0  0
  180.1910  180.2330  143.0540 O   0  0  0  0  0  0  0  0  0  0  0  0
  184.9440  178.3750  139.8280 N   0  0  0  0  0  2  0  0  0  0  0  0
  184.1370  179.3870  139.2130 C   0  0  0  0  0  0  0  0  0  0  0  0
  184.6510  180.4740  138.8360 O   0  0  0  0  0  0  0  0  0  0  0  0
  182.6380  176.9240  139.6170 O   0  0  0  0  0  0  0  0  0  0  0  0
  182.0170  177.9770  139.3020 C   0  0  0  0  0  0  0  0  0  0  0  0
  182.7280  179.1970  139.0480 N   0  0  0  0  0  2  0  0  0  0  0  0
  180.5490  177.9520  139.1850 C   0  0  0  0  0  0  0  0  0  0  0  0
  179.8170  178.4380  140.1330 N   0  0  0  0  0  2  0  0  0  0  0  0
  179.8840  177.2920  138.0170 C   0  0  0  0  0  2  0  0  0  0  0  0
  178.9350  176.1720  138.4580 C   0  0  0  0  0  2  0  0  0  0  0  0
  180.8070  174.5760  137.8740 C   0  0  0  0  0  1  0  0  0  0  0  0
  179.6350  174.8520  138.8030 C   0  0  1  0  0  3  0  0  0  0  0  0
  179.5530  173.8680  141.0600 C   0  0  0  0  0  2  0  0  0  0  0  0
  180.0450  174.7950  140.2420 C   0  0  0  0  0  3  0  0  0  0  0  0
  189.5500  177.9050  137.8260 C   0  0  0  0  0  3  0  0  0  0  0  0
  190.4480  176.9420  137.9910 C   0  0  0  0  0  3  0  0  0  0  0  0
  192.5250  174.7810  135.6790 N   0  0  0  0  0  2  0  0  0  0  0  0
  191.7980  174.4590  137.8740 O   0  0  0  0  0  0  0  0  0  0  0  0
  193.2000  173.4960  135.5990 C   0  0  0  0  0  1  0  0  0  0  0  0
  191.2010  176.4810  136.8720 N   0  0  0  0  0  2  0  0  0  0  0  0
  191.8390  175.2050  136.8570 C   0  0  0  0  0  0  0  0  0  0  0  0
  1  4  1  0  0  0  0
  2 40  1  6  0  0  0
  2  1  1  0  0  0  0
  3  4  1  0  0  0  0
  4 10  1  1  0  0  0
  5  2  1  0  0  0  0
  5  6  1  0  0  0  0
  6  3  2  0  0  0  0
  8 12  1  0  0  0  0
  9 16  1  0  0  0  0
  9 12  2  0  0  0  0
 10 15  1  0  0  0  0
 10  7  2  0  0  0  0
 11  7  1  6  0  0  0
 11 13  1  0  0  0  0
 11  9  1  0  0  0  0
 13  8  2  0  0  0  0
 14 13  1  0  0  0  0
 15 14  2  0  0  0  0
 16 17  1  1  0  0  0
 18 16  1  0  0  0  0
 19 18  2  0  0  0  0
 20 21  1  0  0  0  0
 20 19  1  0  0  0  0
 21 22  1  0  0  0  0
 23 22  1  0  0  0  0
 23 24  1  0  0  0  0
 25 23  2  0  0  0  0
 26  6  1  0  0  0  0
 27 26  1  0  0  0  0
 28 27  2  0  0  0  0
 30 29  2  0  0  0  0
 31 27  1  0  0  0  0
 31 30  1  0  0  0  0
 32 30  1  0  0  0  0
 32 33  2  0  0  0  0
 34 35  1  0  0  0  0
 34 32  1  0  0  0  0
 35 37  1  0  0  0  0
 37 36  1  6  0  0  0
 37 39  1  0  0  0  0
 39 38  2  0  0  0  0
 40 41  2  0  0  0  0
 42 46  1  0  0  0  0
 44 42  1  0  0  0  0
 45 41  1  0  0  0  0
 46 45  1  0  0  0  0
 46 43  2  0  0  0  0
M  END
>  <MODEL>
5

>  <REMARK>
 VINA RESULT:      -7.2      2.584      3.654
  Name = 
  15 active torsions:
  status: ('A' for Active; 'I' for Inactive)
    1  A    between atoms: N_1  and  C_15
    2  A    between atoms: C_2  and  C_17
    3  A    between atoms: C_3  and  C_36
    4  A    between atoms: C_3  and  C_42
    5  A    between atoms: C_7  and  C_20
    6  A    between atoms: N_8  and  C_30
    7  A    between atoms: C_9  and  C_41
    8  A    between atoms: O_13  and  C_17
    9  A    between atoms: O_13  and  C_41
   10  A    between atoms: C_15  and  C_16
   11  A    between atoms: C_18  and  C_19
   12  A    between atoms: C_24  and  C_28
   13  A    between atoms: C_28  and  C_39
   14  A    between atoms: N_34  and  C_38
   15  A    between atoms: C_36  and  C_39
                            x       y       z     vdW  Elec       q    Type
                         _______ _______ _______ _____ _____    ______ ____

>  <TORSDO>
F 15

$$$$
=
 OpenBabel10222417193D

 46 48  0  0  1  0  0  0  0  0999 V2000
  189.0500  177.7860  144.0430 N   0  0  0  0  0  2  0  0  0  0  0  0
  188.3170  177.2470  145.1820 C   0  0  2  0  0  3  0  0  0  0  0  0
  187.0300  177.5190  142.6960 C   0  0  0  0  0  3  0  0  0  0  0  0
  188.4890  177.1720  142.8400 C   0  0  1  0  0  3  0  0  0  0  0  0
  186.8740  177.7680  145.1600 C   0  0  0  0  0  2  0  0  0  0  0  0
  186.2630  177.7290  143.7720 C   0  0  0  0  0  0  0  0  0  0  0  0
  188.6950  177.7770  140.5240 N   0  0  0  0  0  0  0  0  0  0  0  0
  190.9780  176.6770  138.3540 N   0  0  0  0  0  0  0  0  0  0  0  0
  188.8490  177.3940  138.1080 C   0  0  0  0  0  0  0  0  0  0  0  0
  189.3140  177.5480  141.6480 C   0  0  0  0  0  0  0  0  0  0  0  0
  189.4040  178.1140  139.2880 C   0  0  2  0  0  3  0  0  0  0  0  0
  189.7870  176.6150  137.5800 C   0  0  0  0  0  3  0  0  0  0  0  0
  190.7650  177.5090  139.3180 C   0  0  0  0  0  0  0  0  0  0  0  0
  191.4770  177.4230  140.5510 N   0  0  0  0  0  0  0  0  0  0  0  0
  190.8030  177.4520  141.6650 C   0  0  0  0  0  3  0  0  0  0  0  0
  187.4170  177.4620  137.6610 C   0  0  1  0  0  3  0  0  0  0  0  0
  187.1760  178.6170  136.7040 C   0  0  0  0  0  1  0  0  0  0  0  0
  187.0400  176.2180  137.0370 N   0  0  0  0  0  0  0  0  0  0  0  0
  185.8260  175.8080  137.1020 C   0  0  0  0  0  3  0  0  0  0  0  0
  185.4330  174.4890  136.5220 C   0  0  0  0  0  2  0  0  0  0  0  0
  184.9720  173.6310  137.5230 O   0  0  0  0  0  0  0  0  0  0  0  0
  184.9020  172.3810  136.9010 C   0  0  0  0  0  2  0  0  0  0  0  0
  183.4880  171.9180  136.8530 C   0  0  0  0  0  0  0  0  0  0  0  0
  182.4520  172.8440  136.8640 O   0  0  0  0  0  1  0  0  0  0  0  0
  183.2290  170.6860  136.8260 O   0  0  0  0  0  0  0  0  0  0  0  0
  184.8850  178.0620  143.5630 N   0  0  0  0  0  2  0  0  0  0  0  0
  184.0960  178.9540  144.3610 C   0  0  0  0  0  0  0  0  0  0  0  0
  184.5390  179.3960  145.4540 O   0  0  0  0  0  0  0  0  0  0  0  0
  182.8530  178.4480  141.7770 O   0  0  0  0  0  0  0  0  0  0  0  0
  182.1830  179.0210  142.6790 C   0  0  0  0  0  0  0  0  0  0  0  0
  182.7780  179.3300  143.9480 N   0  0  0  0  0  2  0  0  0  0  0  0
  180.7780  179.3860  142.4260 C   0  0  0  0  0  0  0  0  0  0  0  0
  180.2810  180.4510  142.9640 N   0  0  0  0  0  2  0  0  0  0  0  0
  179.8880  178.4930  141.6190 C   0  0  0  0  0  2  0  0  0  0  0  0
  179.5650  179.0970  140.2470 C   0  0  0  0  0  2  0  0  0  0  0  0
  180.0480  178.2620  137.9100 C   0  0  0  0  0  1  0  0  0  0  0  0
  180.6390  178.8510  139.1820 C   0  0  1  0  0  3  0  0  0  0  0  0
  182.7580  180.0210  138.7230 C   0  0  0  0  0  2  0  0  0  0  0  0
  181.4410  180.0850  138.8990 C   0  0  0  0  0  3  0  0  0  0  0  0
  189.0080  177.6430  146.4400 C   0  0  0  0  0  3  0  0  0  0  0  0
  190.1560  177.0840  146.7960 C   0  0  0  0  0  3  0  0  0  0  0  0
  192.6790  177.4730  149.5900 N   0  0  0  0  0  2  0  0  0  0  0  0
  192.6090  176.0440  147.7460 O   0  0  0  0  0  0  0  0  0  0  0  0
  193.9520  176.9640  150.0740 C   0  0  0  0  0  1  0  0  0  0  0  0
  190.8030  177.5020  147.9940 N   0  0  0  0  0  2  0  0  0  0  0  0
  192.0570  176.9630  148.4120 C   0  0  0  0  0  0  0  0  0  0  0  0
  1  2  1  0  0  0  0
  2 40  1  1  0  0  0
  3  4  1  0  0  0  0
  3  6  2  0  0  0  0
  4 10  1  6  0  0  0
  4  1  1  0  0  0  0
  5  2  1  0  0  0  0
  6  5  1  0  0  0  0
  7 10  2  0  0  0  0
  8 13  2  0  0  0  0
 10 15  1  0  0  0  0
 11  9  1  6  0  0  0
 11 13  1  0  0  0  0
 11  7  1  0  0  0  0
 12  9  2  0  0  0  0
 12  8  1  0  0  0  0
 13 14  1  0  0  0  0
 14 15  2  0  0  0  0
 16 17  1  6  0  0  0
 16  9  1  0  0  0  0
 18 19  2  0  0  0  0
 18 16  1  0  0  0  0
 20 19  1  0  0  0  0
 20 21  1  0  0  0  0
 22 21  1  0  0  0  0
 23 24  1  0  0  0  0
 23 22  1  0  0  0  0
 25 23  2  0  0  0  0
 26  6  1  0  0  0  0
 26 27  1  0  0  0  0
 27 28  2  0  0  0  0
 29 30  2  0  0  0  0
 30 31  1  0  0  0  0
 31 27  1  0  0  0  0
 32 30  1  0  0  0  0
 32 33  2  0  0  0  0
 34 32  1  0  0  0  0
 35 34  1  0  0  0  0
 37 36  1  6  0  0  0
 37 35  1  0  0  0  0
 38 39  2  0  0  0  0
 39 37  1  0  0  0  0
 40 41  2  0  0  0  0
 41 45  1  0  0  0  0
 42 44  1  0  0  0  0
 43 46  2  0  0  0  0
 45 46  1  0  0  0  0
 46 42  1  0  0  0  0
M  END
>  <MODEL>
6

>  <REMARK>
 VINA RESULT:      -7.2      3.342      7.420
  Name = 
  15 active torsions:
  status: ('A' for Active; 'I' for Inactive)
    1  A    between atoms: N_1  and  C_15
    2  A    between atoms: C_2  and  C_17
    3  A    between atoms: C_3  and  C_36
    4  A    between atoms: C_3  and  C_42
    5  A    between atoms: C_7  and  C_20
    6  A    between atoms: N_8  and  C_30
    7  A    between atoms: C_9  and  C_41
    8  A    between atoms: O_13  and  C_17
    9  A    between atoms: O_13  and  C_41
   10  A    between atoms: C_15  and  C_16
   11  A    between atoms: C_18  and  C_19
   12  A    between atoms: C_24  and  C_28
   13  A    between atoms: C_28  and  C_39
   14  A    between atoms: N_34  and  C_38
   15  A    between atoms: C_36  and  C_39
                            x       y       z     vdW  Elec       q    Type
                         _______ _______ _______ _____ _____    ______ ____

>  <TORSDO>
F 15

$$$$
=
 OpenBabel10222417193D

 46 48  0  0  1  0  0  0  0  0999 V2000
  188.3180  177.5380  140.1220 N   0  0  0  0  0  2  0  0  0  0  0  0
  189.5410  178.0120  140.7570 C   0  0  2  0  0  3  0  0  0  0  0  0
  189.6060  177.1260  138.0890 C   0  0  0  0  0  3  0  0  0  0  0  0
  188.4270  177.8410  138.6970 C   0  0  1  0  0  3  0  0  0  0  0  0
  190.7260  177.1490  140.3020 C   0  0  0  0  0  2  0  0  0  0  0  0
  190.6990  176.8650  138.8130 C   0  0  0  0  0  0  0  0  0  0  0  0
  186.0800  178.2330  138.3600 N   0  0  0  0  0  0  0  0  0  0  0  0
  183.6930  175.9340  137.9720 N   0  0  0  0  0  0  0  0  0  0  0  0
  183.6800  178.0300  138.8180 C   0  0  0  0  0  0  0  0  0  0  0  0
  187.1290  177.5400  138.0140 C   0  0  0  0  0  0  0  0  0  0  0  0
  184.7540  177.9980  137.7860 C   0  0  2  0  0  3  0  0  0  0  0  0
  183.0730  176.8490  138.8670 C   0  0  0  0  0  3  0  0  0  0  0  0
  184.6410  176.5710  137.3700 C   0  0  0  0  0  0  0  0  0  0  0  0
  185.7810  175.8930  136.8430 N   0  0  0  0  0  0  0  0  0  0  0  0
  186.9670  176.3480  137.1310 C   0  0  0  0  0  3  0  0  0  0  0  0
  183.4100  179.1890  139.7330 C   0  0  1  0  0  3  0  0  0  0  0  0
  182.0500  179.8130  139.4700 C   0  0  0  0  0  1  0  0  0  0  0  0
  183.4970  178.7590  141.1070 N   0  0  0  0  0  0  0  0  0  0  0  0
  182.5360  179.0040  141.9200 C   0  0  0  0  0  3  0  0  0  0  0  0
  182.6400  178.6270  143.3610 C   0  0  0  0  0  2  0  0  0  0  0  0
  183.9740  178.6340  143.7750 O   0  0  0  0  0  0  0  0  0  0  0  0
  183.9160  179.0060  145.1210 C   0  0  0  0  0  2  0  0  0  0  0  0
  185.2270  178.7400  145.7770 C   0  0  0  0  0  0  0  0  0  0  0  0
  186.1340  177.8660  145.1890 O   0  0  0  0  0  0  0  0  0  0  0  0
  185.5040  179.2870  146.8760 O   0  0  0  0  0  1  0  0  0  0  0  0
  191.7810  176.1750  138.1750 N   0  0  0  0  0  2  0  0  0  0  0  0
  193.1800  176.4270  138.3650 C   0  0  0  0  0  0  0  0  0  0  0  0
  193.5660  177.4360  139.0120 O   0  0  0  0  0  0  0  0  0  0  0  0
  192.7200  173.8350  137.1200 O   0  0  0  0  0  0  0  0  0  0  0  0
  193.8910  174.3050  137.1460 C   0  0  0  0  0  0  0  0  0  0  0  0
  194.1620  175.5560  137.7940 N   0  0  0  0  0  2  0  0  0  0  0  0
  194.9920  173.5580  136.5140 C   0  0  0  0  0  0  0  0  0  0  0  0
  195.0230  173.4190  135.2290 N   0  0  0  0  0  2  0  0  0  0  0  0
  196.0350  172.8800  137.3460 C   0  0  0  0  0  2  0  0  0  0  0  0
  195.4350  171.7820  138.2320 C   0  0  0  0  0  2  0  0  0  0  0  0
  194.4180  169.9340  136.8380 C   0  0  0  0  0  1  0  0  0  0  0  0
  195.6100  170.3620  137.6810 C   0  0  1  0  0  3  0  0  0  0  0  0
  197.9910  169.7480  137.5410 C   0  0  0  0  0  2  0  0  0  0  0  0
  196.8990  170.2050  136.9350 C   0  0  0  0  0  3  0  0  0  0  0  0
  189.3790  177.9580  142.2360 C   0  0  0  0  0  3  0  0  0  0  0  0
  189.3250  176.7990  142.8770 C   0  0  0  0  0  3  0  0  0  0  0  0
  190.1210  176.7910  146.5770 N   0  0  0  0  0  2  0  0  0  0  0  0
  191.4910  176.6620  144.6920 O   0  0  0  0  0  0  0  0  0  0  0  0
  191.2280  176.7480  147.5180 C   0  0  0  0  0  1  0  0  0  0  0  0
  189.1940  176.7820  144.2960 N   0  0  0  0  0  2  0  0  0  0  0  0
  190.3240  176.7420  145.1660 C   0  0  0  0  0  0  0  0  0  0  0  0
  1  2  1  0  0  0  0
  2 40  1  1  0  0  0
  3  4  1  0  0  0  0
  3  6  2  0  0  0  0
  4 10  1  6  0  0  0
  4  1  1  0  0  0  0
  5  2  1  0  0  0  0
  6  5  1  0  0  0  0
  8 12  1  0  0  0  0
  9 12  2  0  0  0  0
  9 16  1  0  0  0  0
 10  7  2  0  0  0  0
 11 13  1  1  0  0  0
 11  7  1  0  0  0  0
 11  9  1  0  0  0  0
 13  8  2  0  0  0  0
 14 15  2  0  0  0  0
 14 13  1  0  0  0  0
 15 10  1  0  0  0  0
 16 17  1  6  0  0  0
 16 18  1  0  0  0  0
 18 19  2  0  0  0  0
 19 20  1  0  0  0  0
 20 21  1  0  0  0  0
 21 22  1  0  0  0  0
 22 23  1  0  0  0  0
 23 25  1  0  0  0  0
 24 23  2  0  0  0  0
 26 27  1  0  0  0  0
 26  6  1  0  0  0  0
 27 28  2  0  0  0  0
 29 30  2  0  0  0  0
 30 31  1  0  0  0  0
 31 27  1  0  0  0  0
 32 30  1  0  0  0  0
 32 34  1  0  0  0  0
 33 32  2  0  0  0  0
 34 35  1  0  0  0  0
 37 36  1  6  0  0  0
 37 35  1  0  0  0  0
 39 38  2  0  0  0  0
 39 37  1  0  0  0  0
 40 41  2  0  0  0  0
 41 45  1  0  0  0  0
 42 44  1  0  0  0  0
 43 46  2  0  0  0  0
 45 46  1  0  0  0  0
 46 42  1  0  0  0  0
M  END
>  <MODEL>
7

>  <REMARK>
 VINA RESULT:      -7.1      2.852     10.334
  Name = 
  15 active torsions:
  status: ('A' for Active; 'I' for Inactive)
    1  A    between atoms: N_1  and  C_15
    2  A    between atoms: C_2  and  C_17
    3  A    between atoms: C_3  and  C_36
    4  A    between atoms: C_3  and  C_42
    5  A    between atoms: C_7  and  C_20
    6  A    between atoms: N_8  and  C_30
    7  A    between atoms: C_9  and  C_41
    8  A    between atoms: O_13  and  C_17
    9  A    between atoms: O_13  and  C_41
   10  A    between atoms: C_15  and  C_16
   11  A    between atoms: C_18  and  C_19
   12  A    between atoms: C_24  and  C_28
   13  A    between atoms: C_28  and  C_39
   14  A    between atoms: N_34  and  C_38
   15  A    between atoms: C_36  and  C_39
                            x       y       z     vdW  Elec       q    Type
                         _______ _______ _______ _____ _____    ______ ____

>  <TORSDO>
F 15

$$$$
=
 OpenBabel10222417193D

 46 48  0  0  1  0  0  0  0  0999 V2000
  190.9510  176.9080  137.1720 N   0  0  0  0  0  2  0  0  0  0  0  0
  191.9490  176.1530  137.9200 C   0  0  2  0  0  3  0  0  0  0  0  0
  189.4810  176.7710  139.1180 C   0  0  0  0  0  3  0  0  0  0  0  0
  189.6390  176.4760  137.6480 C   0  0  1  0  0  3  0  0  0  0  0  0
  191.9410  176.6010  139.3880 C   0  0  0  0  0  2  0  0  0  0  0  0
  190.5370  176.7630  139.9380 C   0  0  0  0  0  0  0  0  0  0  0  0
  187.4770  177.4930  137.3860 N   0  0  0  0  0  0  0  0  0  0  0  0
  185.2380  176.8650  134.9940 N   0  0  0  0  0  0  0  0  0  0  0  0
  185.0400  177.5550  137.1370 C   0  0  0  0  0  0  0  0  0  0  0  0
  188.5660  177.0820  136.7980 C   0  0  0  0  0  0  0  0  0  0  0  0
  186.3500  178.0660  136.6480 C   0  0  2  0  0  3  0  0  0  0  0  0
  184.4180  176.9100  136.1550 C   0  0  0  0  0  3  0  0  0  0  0  0
  186.3250  177.5040  135.2680 C   0  0  0  0  0  0  0  0  0  0  0  0
  187.5510  177.2180  134.5950 N   0  0  0  0  0  0  0  0  0  0  0  0
  188.6250  177.0270  135.3070 C   0  0  0  0  0  3  0  0  0  0  0  0
  184.5560  177.6610  138.5540 C   0  0  1  0  0  3  0  0  0  0  0  0
  184.7230  179.0670  139.1060 C   0  0  0  0  0  1  0  0  0  0  0  0
  183.1720  177.2620  138.6300 N   0  0  0  0  0  0  0  0  0  0  0  0
  182.6360  177.0160  139.7690 C   0  0  0  0  0  3  0  0  0  0  0  0
  181.2250  176.5350  139.8610 C   0  0  0  0  0  2  0  0  0  0  0  0
  180.3590  177.6020  140.1160 O   0  0  0  0  0  0  0  0  0  0  0  0
  180.8280  178.1470  141.3150 C   0  0  0  0  0  2  0  0  0  0  0  0
  180.1710  179.4600  141.5650 C   0  0  0  0  0  0  0  0  0  0  0  0
  179.2370  179.9530  140.6620 O   0  0  0  0  0  0  0  0  0  0  0  0
  180.4790  180.1350  142.5820 O   0  0  0  0  0  1  0  0  0  0  0  0
  190.3170  177.0610  141.3220 N   0  0  0  0  0  2  0  0  0  0  0  0
  189.2500  177.8500  141.8630 C   0  0  0  0  0  0  0  0  0  0  0  0
  188.4920  178.5090  141.1030 O   0  0  0  0  0  0  0  0  0  0  0  0
  190.5330  176.2350  143.9180 O   0  0  0  0  0  0  0  0  0  0  0  0
  189.7360  177.1500  144.2650 C   0  0  0  0  0  0  0  0  0  0  0  0
  189.0490  177.9340  143.2780 N   0  0  0  0  0  2  0  0  0  0  0  0
  189.5000  177.4110  145.6950 C   0  0  0  0  0  0  0  0  0  0  0  0
  190.4260  177.1510  146.5600 N   0  0  0  0  0  2  0  0  0  0  0  0
  188.1690  177.8960  146.1770 C   0  0  0  0  0  2  0  0  0  0  0  0
  187.0190  177.3550  145.3190 C   0  0  0  0  0  2  0  0  0  0  0  0
  185.6270  178.2540  143.4100 C   0  0  0  0  0  1  0  0  0  0  0  0
  186.0120  178.4200  144.8720 C   0  0  1  0  0  3  0  0  0  0  0  0
  183.6560  178.9760  145.3330 C   0  0  0  0  0  2  0  0  0  0  0  0
  184.8050  178.4580  145.7600 C   0  0  0  0  0  3  0  0  0  0  0  0
  193.2880  176.3680  137.3050 C   0  0  0  0  0  2  0  0  0  0  0  0
  194.2300  175.4360  137.3720 C   0  0  0  0  0  3  0  0  0  0  0  0
  197.7080  174.9250  135.9700 N   0  0  0  0  0  2  0  0  0  0  0  0
  196.2980  173.5160  137.1860 O   0  0  0  0  0  0  0  0  0  0  0  0
  198.7670  173.9370  135.8460 C   0  0  0  0  0  1  0  0  0  0  0  0
  195.4920  175.6630  136.7520 N   0  0  0  0  0  0  0  0  0  0  0  0
  196.4900  174.6470  136.6600 C   0  0  0  0  0  0  0  0  0  0  0  0
  1  4  1  0  0  0  0
  1  2  1  0  0  0  0
  2 40  1  6  0  0  0
  2  5  1  0  0  0  0
  3  6  2  0  0  0  0
  4 10  1  6  0  0  0
  4  3  1  0  0  0  0
  5  6  1  0  0  0  0
  6 26  1  0  0  0  0
  8 13  2  0  0  0  0
  8 12  1  0  0  0  0
  9 16  1  0  0  0  0
 10  7  2  0  0  0  0
 11 13  1  6  0  0  0
 11  9  1  0  0  0  0
 11  7  1  0  0  0  0
 12  9  2  0  0  0  0
 14 13  1  0  0  0  0
 14 15  2  0  0  0  0
 15 10  1  0  0  0  0
 16 18  1  0  0  0  0
 16 17  1  6  0  0  0
 18 19  2  0  0  0  0
 19 20  1  0  0  0  0
 20 21  1  0  0  0  0
 21 22  1  0  0  0  0
 22 23  1  0  0  0  0
 23 25  1  0  0  0  0
 24 23  2  0  0  0  0
 26 27  1  0  0  0  0
 27 31  1  0  0  0  0
 28 27  2  0  0  0  0
 29 30  2  0  0  0  0
 30 32  1  0  0  0  0
 31 30  1  0  0  0  0
 32 34  1  0  0  0  0
 32 33  2  0  0  0  0
 35 34  1  0  0  0  0
 37 36  1  6  0  0  0
 37 35  1  0  0  0  0
 37 39  1  0  0  0  0
 38 39  2  0  0  0  0
 40 41  1  0  0  0  0
 42 46  1  0  0  0  0
 44 42  1  0  0  0  0
 45 41  2  0  0  0  0
 46 45  1  0  0  0  0
 46 43  2  0  0  0  0
M  END
>  <MODEL>
8

>  <REMARK>
 VINA RESULT:      -7.0      3.033      7.193
  Name = 
  15 active torsions:
  status: ('A' for Active; 'I' for Inactive)
    1  A    between atoms: N_1  and  C_15
    2  A    between atoms: C_2  and  C_17
    3  A    between atoms: C_3  and  C_36
    4  A    between atoms: C_3  and  C_42
    5  A    between atoms: C_7  and  C_20
    6  A    between atoms: N_8  and  C_30
    7  A    between atoms: C_9  and  C_41
    8  A    between atoms: O_13  and  C_17
    9  A    between atoms: O_13  and  C_41
   10  A    between atoms: C_15  and  C_16
   11  A    between atoms: C_18  and  C_19
   12  A    between atoms: C_24  and  C_28
   13  A    between atoms: C_28  and  C_39
   14  A    between atoms: N_34  and  C_38
   15  A    between atoms: C_36  and  C_39
                            x       y       z     vdW  Elec       q    Type
                         _______ _______ _______ _____ _____    ______ ____

>  <TORSDO>
F 15

$$$$
=
 OpenBabel10222417193D

 46 48  0  0  1  0  0  0  0  0999 V2000
  185.8470  177.9180  143.6620 N   0  0  0  0  0  2  0  0  0  0  0  0
  187.2670  178.2390  143.7310 C   0  0  2  0  0  3  0  0  0  0  0  0
  185.8640  178.6270  141.3250 C   0  0  0  0  0  2  0  0  0  0  0  0
  185.2470  178.8250  142.6860 C   0  0  1  0  0  3  0  0  0  0  0  0
  187.9500  177.8430  142.4150 C   0  0  0  0  0  2  0  0  0  0  0  0
  187.1360  178.2370  141.1970 C   0  0  0  0  0  0  0  0  0  0  0  0
  183.1390  178.6280  141.5490 N   0  0  0  0  0  0  0  0  0  0  0  0
  180.2640  180.1080  142.3760 N   0  0  0  0  0  0  0  0  0  0  0  0
  181.1240  179.4220  140.4010 C   0  0  0  0  0  0  0  0  0  0  0  0
  183.7580  178.6680  142.6960 C   0  0  0  0  0  0  0  0  0  0  0  0
  181.6830  178.5160  141.4420 C   0  0  2  0  0  3  0  0  0  0  0  0
  180.2900  180.2900  140.9660 C   0  0  0  0  0  3  0  0  0  0  0  0
  181.0500  179.1200  142.6480 C   0  0  0  0  0  0  0  0  0  0  0  0
  181.6860  179.0000  143.9200 N   0  0  0  0  0  0  0  0  0  0  0  0
  182.9690  178.7740  143.9580 C   0  0  0  0  0  3  0  0  0  0  0  0
  181.5320  179.4180  138.9560 C   0  0  1  0  0  3  0  0  0  0  0  0
  182.7910  180.2340  138.7210 C   0  0  0  0  0  1  0  0  0  0  0  0
  181.7320  178.0620  138.5080 N   0  0  0  0  0  0  0  0  0  0  0  0
  182.7370  177.7720  137.7660 C   0  0  0  0  0  3  0  0  0  0  0  0
  182.9210  176.3880  137.2370 C   0  0  0  0  0  2  0  0  0  0  0  0
  184.1170  175.8380  137.7060 O   0  0  0  0  0  0  0  0  0  0  0  0
  183.8030  174.5020  137.9700 C   0  0  0  0  0  2  0  0  0  0  0  0
  184.7490  173.6080  137.2470 C   0  0  0  0  0  0  0  0  0  0  0  0
  185.8970  174.1330  136.6670 O   0  0  0  0  0  0  0  0  0  0  0  0
  184.4970  172.3790  137.1400 O   0  0  0  0  0  1  0  0  0  0  0  0
  187.6570  178.0590  139.8740 N   0  0  0  0  0  0  0  0  0  0  0  0
  189.0240  177.8010  139.5260 C   0  0  0  0  0  0  0  0  0  0  0  0
  189.9320  177.8860  140.3950 O   0  0  0  0  0  0  0  0  0  0  0  0
  187.2230  177.1700  137.3260 O   0  0  0  0  0  0  0  0  0  0  0  0
  188.4650  177.2190  137.1090 C   0  0  0  0  0  0  0  0  0  0  0  0
  189.3850  177.4800  138.1790 N   0  0  0  0  0  2  0  0  0  0  0  0
  188.9780  176.9970  135.7460 C   0  0  0  0  0  0  0  0  0  0  0  0
  188.7750  177.8850  134.8280 N   0  0  0  0  0  2  0  0  0  0  0  0
  189.6600  175.7160  135.3820 C   0  0  0  0  0  2  0  0  0  0  0  0
  191.1580  175.7550  135.7020 C   0  0  0  0  0  2  0  0  0  0  0  0
  191.7380  173.3800  136.3470 C   0  0  0  0  0  1  0  0  0  0  0  0
  191.5860  174.8130  136.8330 C   0  0  1  0  0  3  0  0  0  0  0  0
  192.8010  176.3830  138.2930 C   0  0  0  0  0  2  0  0  0  0  0  0
  192.8240  175.2950  137.5270 C   0  0  0  0  0  3  0  0  0  0  0  0
  187.8760  177.5220  144.8850 C   0  0  0  0  0  3  0  0  0  0  0  0
  189.0430  177.9010  145.3880 C   0  0  0  0  0  3  0  0  0  0  0  0
  191.4360  176.1210  147.7180 N   0  0  0  0  0  2  0  0  0  0  0  0
  191.6860  176.9050  145.5330 O   0  0  0  0  0  0  0  0  0  0  0  0
  192.8010  175.6280  147.8120 C   0  0  0  0  0  1  0  0  0  0  0  0
  189.5870  177.2080  146.5080 N   0  0  0  0  0  2  0  0  0  0  0  0
  190.9390  176.7520  146.5390 C   0  0  0  0  0  0  0  0  0  0  0  0
  1  2  1  0  0  0  0
  2 40  1  1  0  0  0
  3  4  1  0  0  0  0
  4 10  1  6  0  0  0
  4  1  1  0  0  0  0
  5  2  1  0  0  0  0
  6  3  1  0  0  0  0
  6  5  1  0  0  0  0
  7 10  2  0  0  0  0
  8 13  2  0  0  0  0
  9 12  2  0  0  0  0
 10 15  1  0  0  0  0
 11  9  1  6  0  0  0
 11  7  1  0  0  0  0
 11 13  1  0  0  0  0
 12  8  1  0  0  0  0
 13 14  1  0  0  0  0
 14 15  2  0  0  0  0
 16 17  1  1  0  0  0
 16  9  1  0  0  0  0
 18 16  1  0  0  0  0
 19 18  2  0  0  0  0
 20 21  1  0  0  0  0
 20 19  1  0  0  0  0
 21 22  1  0  0  0  0
 23 22  1  0  0  0  0
 24 23  2  0  0  0  0
 25 23  1  0  0  0  0
 26  6  2  0  0  0  0
 27 26  1  0  0  0  0
 27 28  2  0  0  0  0
 30 29  2  0  0  0  0
 30 31  1  0  0  0  0
 31 27  1  0  0  0  0
 32 30  1  0  0  0  0
 33 32  2  0  0  0  0
 34 35  1  0  0  0  0
 34 32  1  0  0  0  0
 35 37  1  0  0  0  0
 37 36  1  6  0  0  0
 37 39  1  0  0  0  0
 39 38  2  0  0  0  0
 40 41  2  0  0  0  0
 41 45  1  0  0  0  0
 42 44  1  0  0  0  0
 43 46  2  0  0  0  0
 45 46  1  0  0  0  0
 46 42  1  0  0  0  0
M  END
>  <MODEL>
9

>  <REMARK>
 VINA RESULT:      -6.9      3.207      8.655
  Name = 
  15 active torsions:
  status: ('A' for Active; 'I' for Inactive)
    1  A    between atoms: N_1  and  C_15
    2  A    between atoms: C_2  and  C_17
    3  A    between atoms: C_3  and  C_36
    4  A    between atoms: C_3  and  C_42
    5  A    between atoms: C_7  and  C_20
    6  A    between atoms: N_8  and  C_30
    7  A    between atoms: C_9  and  C_41
    8  A    between atoms: O_13  and  C_17
    9  A    between atoms: O_13  and  C_41
   10  A    between atoms: C_15  and  C_16
   11  A    between atoms: C_18  and  C_19
   12  A    between atoms: C_24  and  C_28
   13  A    between atoms: C_28  and  C_39
   14  A    between atoms: N_34  and  C_38
   15  A    between atoms: C_36  and  C_39
                            x       y       z     vdW  Elec       q    Type
                         _______ _______ _______ _____ _____    ______ ____

>  <TORSDO>
F 15

$$$$
