=
 OpenBabel10222419493D

 50 55  0  0  1  0  0  0  0  0999 V2000
  188.6720  176.8740  142.0630 C   0  0  1  0  0  3  0  0  0  0  0  0
  188.4670  176.2010  143.4240 C   0  0  0  0  0  2  0  0  0  0  0  0
  185.6590  177.9940  141.5090 C   0  0  0  0  0  3  0  0  0  0  0  0
  187.5290  176.9970  145.3180 C   0  0  0  0  0  2  0  0  0  0  0  0
  188.6290  177.1380  144.4540 O   0  0  0  0  0  0  0  0  0  0  0  0
  186.6020  178.3080  142.4100 C   0  0  0  0  0  0  0  0  0  0  0  0
  183.8880  178.9930  143.0160 C   0  0  0  0  0  0  0  0  0  0  0  0
  188.0630  178.2880  142.0290 C   0  0  2  0  0  3  0  0  0  0  0  0
  183.3300  177.8150  140.9720 C   0  0  0  0  0  0  0  0  0  0  0  0
  186.2190  178.6480  143.8410 C   0  0  1  0  0  3  0  0  0  0  0  0
  184.2380  178.1670  141.8410 C   0  0  0  0  0  0  0  0  0  0  0  0
  184.8440  179.2670  143.9180 C   0  0  0  0  0  3  0  0  0  0  0  0
  182.4220  177.4700  140.1020 C   0  0  0  0  0  3  0  0  0  0  0  0
  186.1840  177.3660  144.6720 C   0  0  0  0  0  2  0  0  0  0  0  0
  182.3490  178.1700  138.7900 C   0  0  1  0  0  3  0  0  0  0  0  0
  181.4030  177.4530  137.8740 C   0  0  0  0  0  2  0  0  0  0  0  0
  180.6260  179.7140  138.0420 N   0  0  2  0  0  0  0  0  0  0  0  0
  181.7590  179.5570  138.9660 C   0  0  0  0  0  2  0  0  0  0  0  0
  180.7220  178.5700  137.1310 C   0  0  0  0  0  2  0  0  0  0  0  0
  179.7030  181.0160  136.3230 C   0  0  0  0  0  2  0  0  0  0  0  0
  179.8470  182.2630  135.4330 C   0  0  0  0  0  2  0  0  0  0  0  0
  180.8600  184.4360  135.2760 O   0  0  0  0  0  1  0  0  0  0  0  0
  179.8830  184.2910  137.8190 O   0  0  0  0  0  1  0  0  0  0  0  0
  180.6460  182.0580  138.1940 C   0  0  0  0  0  2  0  0  0  0  0  0
  180.9430  183.2080  135.9390 C   0  0  1  0  0  3  0  0  0  0  0  0
  182.2340  183.9490  137.9440 C   0  0  0  0  0  1  0  0  0  0  0  0
  180.9000  183.3930  137.4710 C   0  0  1  0  0  0  0  0  0  0  0  0
  180.8060  180.9050  137.2930 N   0  0  1  0  0  0  0  0  0  0  0  0
  187.6400  178.2440  139.5600 C   0  0  0  0  0  1  0  0  0  0  0  0
  188.3180  178.9920  140.6940 C   0  0  0  0  0  2  0  0  0  0  0  0
  190.1660  176.9360  141.7680 C   0  0  0  0  0  2  0  0  0  0  0  0
  190.4480  176.2990  140.5550 O   0  0  0  0  0  0  0  0  0  0  0  0
  192.4920  177.5010  140.4480 C   0  0  0  0  0  1  0  0  0  0  0  0
  191.1370  177.2520  139.8030 C   0  0  1  0  0  3  0  0  0  0  0  0
  192.2810  174.4970  137.6260 C   0  0  2  0  0  3  0  0  0  0  0  0
  190.3140  175.6590  138.0360 C   0  0  2  0  0  3  0  0  0  0  0  0
  192.9790  176.1050  138.0830 S   0  0  0  0  0  0  0  0  0  0  0  0
  193.1300  173.8580  136.5470 C   0  0  0  0  0  1  0  0  0  0  0  0
  191.3070  176.7730  138.3560 C   0  0  2  0  0  3  0  0  0  0  0  0
  190.9320  174.6990  137.1320 N   0  0  0  0  0  2  0  0  0  0  0  0
  188.0590  175.0890  137.1610 C   0  0  0  0  0  3  0  0  0  0  0  0
  189.0050  176.2060  137.4660 C   0  0  2  0  0  3  0  0  0  0  0  0
  186.8070  177.6850  136.0410 C   0  0  0  0  0  3  0  0  0  0  0  0
  189.2240  177.1090  136.2880 C   0  0  0  0  0  3  0  0  0  0  0  0
  188.2400  177.7890  135.6980 C   0  0  0  0  0  3  0  0  0  0  0  0
  186.7960  175.2840  136.7810 C   0  0  0  0  0  3  0  0  0  0  0  0
  186.1790  176.5990  136.5100 C   0  0  0  0  0  3  0  0  0  0  0  0
  182.5850  179.4920  143.1530 O   0  0  0  0  0  0  0  0  0  0  0  0
  181.5930  178.8840  143.9760 C   0  0  0  0  0  2  0  0  0  0  0  0
  180.3720  178.5280  143.1470 C   0  0  0  0  0  1  0  0  0  0  0  0
  1 31  1  1  0  0  0
  1  2  1  0  0  0  0
  2  5  1  0  0  0  0
  3 11  1  0  0  0  0
  3  6  2  0  0  0  0
  5  4  1  0  0  0  0
  6 10  1  0  0  0  0
  7 48  1  0  0  0  0
  7 12  2  0  0  0  0
  8 30  1  6  0  0  0
  8  1  1  0  0  0  0
  8  6  1  0  0  0  0
  9 11  2  0  0  0  0
 10 12  1  6  0  0  0
 10 14  1  0  0  0  0
 11  7  1  0  0  0  0
 13  9  2  0  0  0  0
 14  4  1  0  0  0  0
 15 18  1  0  0  0  0
 15 13  1  1  0  0  0
 16 15  1  0  0  0  0
 17 19  1  6  0  0  0
 17 18  1  0  0  0  0
 19 16  1  0  0  0  0
 21 25  1  0  0  0  0
 21 20  1  0  0  0  0
 25 22  1  6  0  0  0
 25 27  1  0  0  0  0
 27 23  1  0  0  0  0
 27 26  1  1  0  0  0
 27 24  1  0  0  0  0
 28 20  1  6  0  0  0
 28 17  1  0  0  0  0
 28 24  1  0  0  0  0
 29 30  1  0  0  0  0
 32 31  1  0  0  0  0
 34 33  1  1  0  0  0
 34 32  1  0  0  0  0
 35 38  1  6  0  0  0
 35 37  1  0  0  0  0
 36 40  1  6  0  0  0
 36 39  1  0  0  0  0
 37 39  1  0  0  0  0
 39 34  1  1  0  0  0
 40 35  1  0  0  0  0
 41 42  1  0  0  0  0
 42 44  1  6  0  0  0
 42 36  1  0  0  0  0
 43 47  2  0  0  0  0
 45 43  1  0  0  0  0
 45 44  2  0  0  0  0
 46 41  2  0  0  0  0
 47 46  1  0  0  0  0
 48 49  1  0  0  0  0
 50 49  1  0  0  0  0
M  END
>  <MODEL>
1

>  <REMARK>
 VINA RESULT:      -8.4      0.000      0.000
  Name = 
  10 active torsions:
  status: ('A' for Active; 'I' for Inactive)
    1  A    between atoms: C_1  and  C_39
    2  A    between atoms: C_6  and  C_34
    3  A    between atoms: C_12  and  O_42
    4  A    between atoms: C_14  and  O_42
    5  A    between atoms: C_15  and  C_37
    6  A    between atoms: C_17  and  C_22
    7  A    between atoms: N_18  and  N_50
    8  A    between atoms: C_35  and  C_41
    9  A    between atoms: C_35  and  O_47
   10  A    between atoms: C_39  and  O_47
                            x       y       z     vdW  Elec       q    Type
                         _______ _______ _______ _____ _____    ______ ____

>  <TORSDO>
F 10

$$$$
=
 OpenBabel10222419493D

 50 55  0  0  1  0  0  0  0  0999 V2000
  183.3490  178.4660  142.6730 C   0  0  1  0  0  3  0  0  0  0  0  0
  182.1060  178.6130  143.5570 C   0  0  0  0  0  2  0  0  0  0  0  0
  182.0040  177.1940  139.9860 C   0  0  0  0  0  3  0  0  0  0  0  0
  180.1060  179.5620  143.1160 C   0  0  0  0  0  2  0  0  0  0  0  0
  181.4720  179.8360  143.2990 O   0  0  0  0  0  0  0  0  0  0  0  0
  181.9060  178.3940  140.5810 C   0  0  0  0  0  0  0  0  0  0  0  0
  179.8070  177.6040  138.8010 C   0  0  0  0  0  0  0  0  0  0  0  0
  183.1070  179.0160  141.2550 C   0  0  2  0  0  3  0  0  0  0  0  0
  180.9700  175.4820  138.6670 C   0  0  0  0  0  0  0  0  0  0  0  0
  180.5760  179.1270  140.6230 C   0  0  1  0  0  3  0  0  0  0  0  0
  180.8790  176.6690  139.2010 C   0  0  0  0  0  0  0  0  0  0  0  0
  179.7130  178.7860  139.4320 C   0  0  0  0  0  3  0  0  0  0  0  0
  181.0630  174.2990  138.1260 C   0  0  0  0  0  3  0  0  0  0  0  0
  179.8070  178.7060  141.8740 C   0  0  0  0  0  2  0  0  0  0  0  0
  182.0970  174.0380  137.0870 C   0  0  1  0  0  3  0  0  0  0  0  0
  181.5600  174.3780  135.7290 C   0  0  0  0  0  2  0  0  0  0  0  0
  183.5600  175.6650  136.0270 N   0  0  2  0  0  0  0  0  0  0  0  0
  183.2880  174.9560  137.2860 C   0  0  0  0  0  2  0  0  0  0  0  0
  182.7480  174.9730  135.0230 C   0  0  0  0  0  2  0  0  0  0  0  0
  185.4540  176.7960  135.2290 C   0  0  0  0  0  2  0  0  0  0  0  0
  186.9280  176.6950  134.8010 C   0  0  0  0  0  2  0  0  0  0  0  0
  188.9420  175.4090  135.0440 O   0  0  0  0  0  1  0  0  0  0  0  0
  187.9380  175.6400  137.5710 O   0  0  0  0  0  1  0  0  0  0  0  0
  185.6810  175.1990  136.9240 C   0  0  0  0  0  2  0  0  0  0  0  0
  187.5540  175.3560  135.2040 C   0  0  1  0  0  3  0  0  0  0  0  0
  187.4320  173.4450  136.8060 C   0  0  0  0  0  1  0  0  0  0  0  0
  187.1690  174.9330  136.6370 C   0  0  1  0  0  0  0  0  0  0  0  0
  184.9290  175.5010  135.6950 N   0  0  1  0  0  0  0  0  0  0  0  0
  184.1600  179.6910  139.0840 C   0  0  0  0  0  1  0  0  0  0  0  0
  184.3610  178.9310  140.3820 C   0  0  0  0  0  2  0  0  0  0  0  0
  184.5090  179.2030  143.3320 C   0  0  0  0  0  2  0  0  0  0  0  0
  184.8190  178.6180  144.5630 O   0  0  0  0  0  0  0  0  0  0  0  0
  186.3750  178.0450  142.8650 C   0  0  0  0  0  1  0  0  0  0  0  0
  185.9820  177.8830  144.3250 C   0  0  1  0  0  3  0  0  0  0  0  0
  187.6300  177.4300  147.5990 C   0  0  2  0  0  3  0  0  0  0  0  0
  188.2020  177.2920  145.3540 C   0  0  2  0  0  3  0  0  0  0  0  0
  186.4960  178.6730  146.9300 S   0  0  0  0  0  0  0  0  0  0  0  0
  188.1150  177.8630  148.9670 C   0  0  0  0  0  1  0  0  0  0  0  0
  187.1140  178.3570  145.2460 C   0  0  2  0  0  3  0  0  0  0  0  0
  188.7610  177.2990  146.6980 N   0  0  0  0  0  2  0  0  0  0  0  0
  189.4450  176.2300  143.4820 C   0  0  0  0  0  3  0  0  0  0  0  0
  189.2880  177.4760  144.2920 C   0  0  2  0  0  3  0  0  0  0  0  0
  191.7240  178.1500  142.6610 C   0  0  0  0  0  3  0  0  0  0  0  0
  190.5880  177.9470  144.8760 C   0  0  0  0  0  3  0  0  0  0  0  0
  191.6420  178.2820  144.1300 C   0  0  0  0  0  3  0  0  0  0  0  0
  190.2240  176.1520  142.4030 C   0  0  0  0  0  3  0  0  0  0  0  0
  191.1100  177.2270  141.9100 C   0  0  0  0  0  3  0  0  0  0  0  0
  178.9310  177.2560  137.7620 O   0  0  0  0  0  0  0  0  0  0  0  0
  178.9310  177.8930  136.4880 C   0  0  0  0  0  2  0  0  0  0  0  0
  180.3500  178.0090  135.9610 C   0  0  0  0  0  1  0  0  0  0  0  0
  1 31  1  1  0  0  0
  1  2  1  0  0  0  0
  3  6  2  0  0  0  0
  4  5  1  0  0  0  0
  5  2  1  0  0  0  0
  6 10  1  0  0  0  0
  6  8  1  0  0  0  0
  7 11  1  0  0  0  0
  7 12  2  0  0  0  0
  8 30  1  6  0  0  0
  8  1  1  0  0  0  0
  9 11  2  0  0  0  0
 10 12  1  6  0  0  0
 10 14  1  0  0  0  0
 11  3  1  0  0  0  0
 13  9  2  0  0  0  0
 14  4  1  0  0  0  0
 15 18  1  0  0  0  0
 15 13  1  1  0  0  0
 16 15  1  0  0  0  0
 17 19  1  6  0  0  0
 17 18  1  0  0  0  0
 19 16  1  0  0  0  0
 21 25  1  0  0  0  0
 21 20  1  0  0  0  0
 25 22  1  1  0  0  0
 25 27  1  0  0  0  0
 27 26  1  1  0  0  0
 27 24  1  0  0  0  0
 27 23  1  0  0  0  0
 28 20  1  1  0  0  0
 28 17  1  0  0  0  0
 28 24  1  0  0  0  0
 29 30  1  0  0  0  0
 31 32  1  0  0  0  0
 34 33  1  6  0  0  0
 34 32  1  0  0  0  0
 35 38  1  1  0  0  0
 36 40  1  1  0  0  0
 37 35  1  0  0  0  0
 39 34  1  6  0  0  0
 39 36  1  0  0  0  0
 39 37  1  0  0  0  0
 40 35  1  0  0  0  0
 42 41  1  1  0  0  0
 42 44  1  0  0  0  0
 42 36  1  0  0  0  0
 43 45  1  0  0  0  0
 45 44  2  0  0  0  0
 46 41  2  0  0  0  0
 47 46  1  0  0  0  0
 47 43  2  0  0  0  0
 48  7  1  0  0  0  0
 49 48  1  0  0  0  0
 50 49  1  0  0  0  0
M  END
>  <MODEL>
2

>  <REMARK>
 VINA RESULT:      -8.4      3.636      7.730
  Name = 
  10 active torsions:
  status: ('A' for Active; 'I' for Inactive)
    1  A    between atoms: C_1  and  C_39
    2  A    between atoms: C_6  and  C_34
    3  A    between atoms: C_12  and  O_42
    4  A    between atoms: C_14  and  O_42
    5  A    between atoms: C_15  and  C_37
    6  A    between atoms: C_17  and  C_22
    7  A    between atoms: N_18  and  N_50
    8  A    between atoms: C_35  and  C_41
    9  A    between atoms: C_35  and  O_47
   10  A    between atoms: C_39  and  O_47
                            x       y       z     vdW  Elec       q    Type
                         _______ _______ _______ _____ _____    ______ ____

>  <TORSDO>
F 10

$$$$
=
 OpenBabel10222419493D

 50 55  0  0  1  0  0  0  0  0999 V2000
  191.7540  177.4990  140.1430 C   0  0  1  0  0  3  0  0  0  0  0  0
  193.0850  177.3620  139.3970 C   0  0  0  0  0  2  0  0  0  0  0  0
  189.6630  176.8370  137.7280 C   0  0  0  0  0  3  0  0  0  0  0  0
  193.8550  175.6970  138.0810 C   0  0  0  0  0  2  0  0  0  0  0  0
  193.5060  176.0250  139.4020 O   0  0  0  0  0  0  0  0  0  0  0  0
  190.5720  176.0970  138.3820 C   0  0  0  0  0  0  0  0  0  0  0  0
  189.7220  175.2020  135.7980 C   0  0  0  0  0  0  0  0  0  0  0  0
  190.8160  176.3110  139.8570 C   0  0  2  0  0  3  0  0  0  0  0  0
  188.4690  177.2740  135.6970 C   0  0  0  0  0  0  0  0  0  0  0  0
  191.4000  175.0610  137.6410 C   0  0  1  0  0  3  0  0  0  0  0  0
  189.3200  176.5190  136.3350 C   0  0  0  0  0  0  0  0  0  0  0  0
  190.6550  174.4950  136.4560 C   0  0  0  0  0  3  0  0  0  0  0  0
  187.6130  178.0240  135.0600 C   0  0  0  0  0  3  0  0  0  0  0  0
  192.6690  175.7210  137.1030 C   0  0  0  0  0  2  0  0  0  0  0  0
  186.2060  178.1110  135.5370 C   0  0  1  0  0  3  0  0  0  0  0  0
  185.3980  176.9830  134.9710 C   0  0  0  0  0  2  0  0  0  0  0  0
  185.1890  176.8580  137.3550 N   0  0  2  0  0  0  0  0  0  0  0  0
  186.1470  177.9290  137.0410 C   0  0  0  0  0  2  0  0  0  0  0  0
  184.4740  176.6130  136.0990 C   0  0  0  0  0  2  0  0  0  0  0  0
  184.8660  178.4890  139.0100 C   0  0  0  0  0  2  0  0  0  0  0  0
  183.9420  179.0430  140.1080 C   0  0  0  0  0  2  0  0  0  0  0  0
  181.6640  179.1540  140.8620 O   0  0  0  0  0  1  0  0  0  0  0  0
  181.5440  179.6140  138.1760 O   0  0  0  0  0  1  0  0  0  0  0  0
  183.0900  177.8800  137.6130 C   0  0  0  0  0  2  0  0  0  0  0  0
  182.5360  178.4380  140.0370 C   0  0  1  0  0  3  0  0  0  0  0  0
  180.8450  177.3690  138.5410 C   0  0  0  0  0  1  0  0  0  0  0  0
  182.0010  178.3560  138.5910 C   0  0  1  0  0  0  0  0  0  0  0  0
  184.2630  177.3370  138.3170 N   0  0  1  0  0  0  0  0  0  0  0  0
  188.7170  177.6300  140.2200 C   0  0  0  0  0  1  0  0  0  0  0  0
  189.5090  176.4070  140.6470 C   0  0  0  0  0  2  0  0  0  0  0  0
  192.0380  177.5970  141.6370 C   0  0  0  0  0  2  0  0  0  0  0  0
  190.9900  178.2560  142.2880 O   0  0  0  0  0  0  0  0  0  0  0  0
  190.9940  179.6910  144.1780 C   0  0  0  0  0  1  0  0  0  0  0  0
  191.3910  178.3320  143.6230 C   0  0  1  0  0  3  0  0  0  0  0  0
  191.3880  176.5390  146.8520 C   0  0  2  0  0  3  0  0  0  0  0  0
  189.8990  177.7780  145.5730 C   0  0  2  0  0  3  0  0  0  0  0  0
  192.0190  176.1430  145.2000 S   0  0  0  0  0  0  0  0  0  0  0  0
  191.5250  175.3310  147.7550 C   0  0  0  0  0  1  0  0  0  0  0  0
  190.7480  177.2050  144.4420 C   0  0  2  0  0  3  0  0  0  0  0  0
  189.9900  176.9110  146.7390 N   0  0  0  0  0  2  0  0  0  0  0  0
  187.5290  177.8550  146.3170 C   0  0  0  0  0  3  0  0  0  0  0  0
  188.4470  177.9940  145.1450 C   0  0  2  0  0  3  0  0  0  0  0  0
  185.7630  178.0960  143.7910 C   0  0  0  0  0  3  0  0  0  0  0  0
  188.0490  177.1120  143.9980 C   0  0  0  0  0  3  0  0  0  0  0  0
  186.8680  177.2040  143.3840 C   0  0  0  0  0  3  0  0  0  0  0  0
  186.2240  178.1250  146.2590 C   0  0  0  0  0  3  0  0  0  0  0  0
  185.4820  178.4960  145.0370 C   0  0  0  0  0  3  0  0  0  0  0  0
  189.1090  174.7060  134.6380 O   0  0  0  0  0  0  0  0  0  0  0  0
  188.1960  173.6130  134.6370 C   0  0  0  0  0  2  0  0  0  0  0  0
  187.1680  173.7890  135.7400 C   0  0  0  0  0  1  0  0  0  0  0  0
  1 31  1  1  0  0  0
  2  5  1  0  0  0  0
  2  1  1  0  0  0  0
  3  6  2  0  0  0  0
  4  5  1  0  0  0  0
  6  8  1  0  0  0  0
  7 11  1  0  0  0  0
  7 12  2  0  0  0  0
  8  1  1  0  0  0  0
  8 30  1  1  0  0  0
  9 11  2  0  0  0  0
 10 12  1  6  0  0  0
 10  6  1  0  0  0  0
 11  3  1  0  0  0  0
 13  9  2  0  0  0  0
 14 10  1  0  0  0  0
 14  4  1  0  0  0  0
 15 13  1  6  0  0  0
 15 18  1  0  0  0  0
 16 15  1  0  0  0  0
 16 19  1  0  0  0  0
 17 19  1  6  0  0  0
 17 28  1  0  0  0  0
 18 17  1  0  0  0  0
 20 21  1  0  0  0  0
 23 27  1  0  0  0  0
 24 27  1  0  0  0  0
 25 21  1  0  0  0  0
 25 22  1  1  0  0  0
 27 26  1  6  0  0  0
 27 25  1  0  0  0  0
 28 24  1  6  0  0  0
 28 20  1  0  0  0  0
 29 30  1  0  0  0  0
 31 32  1  0  0  0  0
 32 34  1  0  0  0  0
 34 33  1  1  0  0  0
 35 38  1  1  0  0  0
 36 40  1  1  0  0  0
 37 35  1  0  0  0  0
 39 34  1  1  0  0  0
 39 37  1  0  0  0  0
 39 36  1  0  0  0  0
 40 35  1  0  0  0  0
 42 44  1  6  0  0  0
 42 36  1  0  0  0  0
 42 41  1  0  0  0  0
 43 47  2  0  0  0  0
 45 43  1  0  0  0  0
 45 44  2  0  0  0  0
 46 41  2  0  0  0  0
 47 46  1  0  0  0  0
 48  7  1  0  0  0  0
 49 48  1  0  0  0  0
 49 50  1  0  0  0  0
M  END
>  <MODEL>
3

>  <REMARK>
 VINA RESULT:      -8.0      3.054      7.434
  Name = 
  10 active torsions:
  status: ('A' for Active; 'I' for Inactive)
    1  A    between atoms: C_1  and  C_39
    2  A    between atoms: C_6  and  C_34
    3  A    between atoms: C_12  and  O_42
    4  A    between atoms: C_14  and  O_42
    5  A    between atoms: C_15  and  C_37
    6  A    between atoms: C_17  and  C_22
    7  A    between atoms: N_18  and  N_50
    8  A    between atoms: C_35  and  C_41
    9  A    between atoms: C_35  and  O_47
   10  A    between atoms: C_39  and  O_47
                            x       y       z     vdW  Elec       q    Type
                         _______ _______ _______ _____ _____    ______ ____

>  <TORSDO>
F 10

$$$$
=
 OpenBabel10222419493D

 50 55  0  0  1  0  0  0  0  0999 V2000
  186.2040  177.7440  137.5400 C   0  0  1  0  0  3  0  0  0  0  0  0
  186.8130  176.5790  136.7520 C   0  0  0  0  0  2  0  0  0  0  0  0
  183.0550  177.3840  136.7660 C   0  0  0  0  0  3  0  0  0  0  0  0
  186.2310  174.3990  136.6880 C   0  0  0  0  0  2  0  0  0  0  0  0
  186.7640  175.4030  137.5130 O   0  0  0  0  0  0  0  0  0  0  0  0
  183.9140  176.6420  137.4830 C   0  0  0  0  0  0  0  0  0  0  0  0
  181.5880  175.3520  136.4220 C   0  0  0  0  0  0  0  0  0  0  0  0
  184.9660  177.3020  138.3420 C   0  0  2  0  0  3  0  0  0  0  0  0
  181.1400  177.4680  135.3290 C   0  0  0  0  0  0  0  0  0  0  0  0
  183.8690  175.1250  137.4090 C   0  0  1  0  0  3  0  0  0  0  0  0
  181.9400  176.7410  136.0590 C   0  0  0  0  0  0  0  0  0  0  0  0
  182.4760  174.6210  137.1140 C   0  0  0  0  0  3  0  0  0  0  0  0
  180.3360  178.1960  134.6040 C   0  0  0  0  0  3  0  0  0  0  0  0
  184.7720  174.6490  136.2720 C   0  0  0  0  0  2  0  0  0  0  0  0
  179.5060  179.2500  135.2500 C   0  0  1  0  0  3  0  0  0  0  0  0
  178.9660  178.7530  136.5570 C   0  0  0  0  0  2  0  0  0  0  0  0
  180.1780  180.7670  137.0270 N   0  0  2  0  0  0  0  0  0  0  0  0
  180.3620  180.4520  135.6020 C   0  0  0  0  0  2  0  0  0  0  0  0
  179.0220  179.9680  137.4430 C   0  0  0  0  0  2  0  0  0  0  0  0
  179.5410  182.4170  138.5680 C   0  0  0  0  0  2  0  0  0  0  0  0
  179.1260  183.8820  138.7880 C   0  0  0  0  0  2  0  0  0  0  0  0
  179.2510  186.0990  137.8710 O   0  0  0  0  0  1  0  0  0  0  0  0
  181.7720  185.0860  137.6240 O   0  0  0  0  0  1  0  0  0  0  0  0
  181.0470  182.9430  136.8560 C   0  0  0  0  0  2  0  0  0  0  0  0
  179.3830  184.7450  137.5480 C   0  0  1  0  0  3  0  0  0  0  0  0
  180.7560  184.9850  135.4760 C   0  0  0  0  0  1  0  0  0  0  0  0
  180.7530  184.4530  136.9000 C   0  0  1  0  0  0  0  0  0  0  0  0
  179.8490  182.1410  137.1550 N   0  0  1  0  0  0  0  0  0  0  0  0
  183.2930  177.9290  140.1000 C   0  0  0  0  0  1  0  0  0  0  0  0
  184.3870  178.4440  139.1810 C   0  0  0  0  0  2  0  0  0  0  0  0
  187.2640  178.3080  138.4780 C   0  0  0  0  0  2  0  0  0  0  0  0
  186.7010  178.6090  139.7220 O   0  0  0  0  0  0  0  0  0  0  0  0
  188.9890  178.2040  140.2080 C   0  0  0  0  0  1  0  0  0  0  0  0
  187.5480  178.0030  140.6520 C   0  0  1  0  0  3  0  0  0  0  0  0
  185.2340  178.2440  143.5210 C   0  0  2  0  0  3  0  0  0  0  0  0
  187.3980  177.5100  143.1160 C   0  0  2  0  0  3  0  0  0  0  0  0
  185.6790  179.3690  142.1730 S   0  0  0  0  0  0  0  0  0  0  0  0
  184.3450  178.9620  144.5140 C   0  0  0  0  0  1  0  0  0  0  0  0
  187.3250  178.5980  142.0480 C   0  0  2  0  0  3  0  0  0  0  0  0
  186.4500  177.8050  144.1800 N   0  0  0  0  0  2  0  0  0  0  0  0
  188.7920  177.1480  145.1420 C   0  0  0  0  0  3  0  0  0  0  0  0
  188.8180  177.3380  143.6590 C   0  0  2  0  0  3  0  0  0  0  0  0
  191.7530  177.4460  144.3070 C   0  0  0  0  0  3  0  0  0  0  0  0
  189.7310  178.4530  143.2420 C   0  0  0  0  0  3  0  0  0  0  0  0
  191.0400  178.4590  143.5030 C   0  0  0  0  0  3  0  0  0  0  0  0
  189.8730  176.8410  145.8590 C   0  0  0  0  0  3  0  0  0  0  0  0
  191.2490  176.7440  145.3290 C   0  0  0  0  0  3  0  0  0  0  0  0
  180.3330  174.8360  136.0650 O   0  0  0  0  0  0  0  0  0  0  0  0
  180.1620  173.6460  135.3000 C   0  0  0  0  0  2  0  0  0  0  0  0
  179.8340  172.4790  136.2140 C   0  0  0  0  0  1  0  0  0  0  0  0
  1  8  1  0  0  0  0
  1 31  1  1  0  0  0
  2  5  1  0  0  0  0
  2  1  1  0  0  0  0
  3  6  2  0  0  0  0
  4  5  1  0  0  0  0
  6  8  1  0  0  0  0
  7 12  2  0  0  0  0
  8 30  1  6  0  0  0
  9 11  2  0  0  0  0
 10 14  1  6  0  0  0
 10  6  1  0  0  0  0
 11  7  1  0  0  0  0
 11  3  1  0  0  0  0
 12 10  1  0  0  0  0
 13  9  2  0  0  0  0
 14  4  1  0  0  0  0
 15 13  1  1  0  0  0
 15 18  1  0  0  0  0
 15 16  1  0  0  0  0
 16 19  1  0  0  0  0
 17 18  1  6  0  0  0
 17 28  1  0  0  0  0
 17 19  1  0  0  0  0
 20 21  1  0  0  0  0
 24 27  1  0  0  0  0
 25 22  1  1  0  0  0
 25 21  1  0  0  0  0
 27 26  1  6  0  0  0
 27 25  1  0  0  0  0
 27 23  1  0  0  0  0
 28 24  1  1  0  0  0
 28 20  1  0  0  0  0
 30 29  1  0  0  0  0
 31 32  1  0  0  0  0
 32 34  1  0  0  0  0
 34 33  1  6  0  0  0
 35 40  1  0  0  0  0
 35 38  1  1  0  0  0
 36 42  1  0  0  0  0
 36 40  1  1  0  0  0
 37 35  1  0  0  0  0
 39 34  1  6  0  0  0
 39 37  1  0  0  0  0
 39 36  1  0  0  0  0
 41 46  2  0  0  0  0
 42 44  1  1  0  0  0
 42 41  1  0  0  0  0
 43 47  2  0  0  0  0
 44 45  2  0  0  0  0
 45 43  1  0  0  0  0
 47 46  1  0  0  0  0
 48  7  1  0  0  0  0
 49 48  1  0  0  0  0
 49 50  1  0  0  0  0
M  END
>  <MODEL>
4

>  <REMARK>
 VINA RESULT:      -7.0      3.117      6.615
  Name = 
  10 active torsions:
  status: ('A' for Active; 'I' for Inactive)
    1  A    between atoms: C_1  and  C_39
    2  A    between atoms: C_6  and  C_34
    3  A    between atoms: C_12  and  O_42
    4  A    between atoms: C_14  and  O_42
    5  A    between atoms: C_15  and  C_37
    6  A    between atoms: C_17  and  C_22
    7  A    between atoms: N_18  and  N_50
    8  A    between atoms: C_35  and  C_41
    9  A    between atoms: C_35  and  O_47
   10  A    between atoms: C_39  and  O_47
                            x       y       z     vdW  Elec       q    Type
                         _______ _______ _______ _____ _____    ______ ____

>  <TORSDO>
F 10

$$$$
=
 OpenBabel10222419493D

 50 55  0  0  1  0  0  0  0  0999 V2000
  185.9010  176.7850  135.8100 C   0  0  1  0  0  3  0  0  0  0  0  0
  186.0770  175.5400  134.9340 C   0  0  0  0  0  2  0  0  0  0  0  0
  182.6810  176.6770  136.3280 C   0  0  0  0  0  3  0  0  0  0  0  0
  185.3710  173.4190  135.2520 C   0  0  0  0  0  2  0  0  0  0  0  0
  186.2480  174.4050  135.7370 O   0  0  0  0  0  0  0  0  0  0  0  0
  183.6990  175.8900  136.7130 C   0  0  0  0  0  0  0  0  0  0  0  0
  181.0630  174.7720  136.7180 C   0  0  0  0  0  0  0  0  0  0  0  0
  185.0430  176.4880  137.0540 C   0  0  2  0  0  3  0  0  0  0  0  0
  180.3690  176.8740  135.7320 C   0  0  0  0  0  0  0  0  0  0  0  0
  183.5280  174.3810  136.7690 C   0  0  1  0  0  3  0  0  0  0  0  0
  181.3380  176.1080  136.1500 C   0  0  0  0  0  0  0  0  0  0  0  0
  182.0990  173.9930  137.0670 C   0  0  0  0  0  3  0  0  0  0  0  0
  179.3970  177.6410  135.3210 C   0  0  0  0  0  3  0  0  0  0  0  0
  183.8850  173.7820  135.4100 C   0  0  0  0  0  2  0  0  0  0  0  0
  178.9550  178.7900  136.1580 C   0  0  1  0  0  3  0  0  0  0  0  0
  179.2660  178.5260  137.6010 C   0  0  0  0  0  2  0  0  0  0  0  0
  180.3350  180.5940  137.0270 N   0  0  2  0  0  0  0  0  0  0  0  0
  179.7430  180.0360  135.8020 C   0  0  0  0  0  2  0  0  0  0  0  0
  179.6770  179.8770  138.1220 C   0  0  0  0  0  2  0  0  0  0  0  0
  179.7110  182.2870  138.5260 C   0  0  0  0  0  2  0  0  0  0  0  0
  179.2870  183.7550  138.7060 C   0  0  0  0  0  2  0  0  0  0  0  0
  179.3760  185.9420  137.7170 O   0  0  0  0  0  1  0  0  0  0  0  0
  181.9020  184.9420  137.4570 O   0  0  0  0  0  1  0  0  0  0  0  0
  181.1810  182.7700  136.7700 C   0  0  0  0  0  2  0  0  0  0  0  0
  179.5140  184.5800  137.4350 C   0  0  1  0  0  3  0  0  0  0  0  0
  180.8480  184.7640  135.3310 C   0  0  0  0  0  1  0  0  0  0  0  0
  180.8760  184.2780  136.7720 C   0  0  1  0  0  0  0  0  0  0  0  0
  179.9960  181.9680  137.1160 N   0  0  1  0  0  0  0  0  0  0  0  0
  183.9300  177.4310  139.0910 C   0  0  0  0  0  1  0  0  0  0  0  0
  184.9120  177.7090  137.9670 C   0  0  0  0  0  2  0  0  0  0  0  0
  187.2760  177.2900  136.2270 C   0  0  0  0  0  2  0  0  0  0  0  0
  187.9140  176.3460  137.0380 O   0  0  0  0  0  0  0  0  0  0  0  0
  189.6700  177.6080  136.0580 C   0  0  0  0  0  1  0  0  0  0  0  0
  189.2010  176.2320  136.5080 C   0  0  1  0  0  3  0  0  0  0  0  0
  192.7180  176.0000  137.6100 C   0  0  2  0  0  3  0  0  0  0  0  0
  190.6940  176.7440  138.4690 C   0  0  2  0  0  3  0  0  0  0  0  0
  191.5990  174.8670  136.7480 S   0  0  0  0  0  0  0  0  0  0  0  0
  194.0090  175.2860  137.9500 C   0  0  0  0  0  1  0  0  0  0  0  0
  190.1610  175.6470  137.5510 C   0  0  2  0  0  3  0  0  0  0  0  0
  192.0740  176.4530  138.8290 N   0  0  0  0  0  2  0  0  0  0  0  0
  189.1220  178.2530  139.6630 C   0  0  0  0  0  3  0  0  0  0  0  0
  189.8150  176.9290  139.7070 C   0  0  2  0  0  3  0  0  0  0  0  0
  188.5660  177.0160  142.4420 C   0  0  0  0  0  3  0  0  0  0  0  0
  190.5730  176.7220  140.9850 C   0  0  0  0  0  3  0  0  0  0  0  0
  189.9910  176.7220  142.1850 C   0  0  0  0  0  3  0  0  0  0  0  0
  188.1920  178.6200  140.5450 C   0  0  0  0  0  3  0  0  0  0  0  0
  187.7840  177.8390  141.7320 C   0  0  0  0  0  3  0  0  0  0  0  0
  179.7360  174.3550  136.9060 O   0  0  0  0  0  0  0  0  0  0  0  0
  179.1690  174.0920  138.1870 C   0  0  0  0  0  2  0  0  0  0  0  0
  179.7540  175.0360  139.2210 C   0  0  0  0  0  1  0  0  0  0  0  0
  1 31  1  1  0  0  0
  1  8  1  0  0  0  0
  2  5  1  0  0  0  0
  2  1  1  0  0  0  0
  3  6  2  0  0  0  0
  4 14  1  0  0  0  0
  4  5  1  0  0  0  0
  6 10  1  0  0  0  0
  6  8  1  0  0  0  0
  7 48  1  0  0  0  0
  7 12  2  0  0  0  0
  8 30  1  6  0  0  0
  9 11  2  0  0  0  0
 10 14  1  6  0  0  0
 10 12  1  0  0  0  0
 11  3  1  0  0  0  0
 11  7  1  0  0  0  0
 13  9  2  0  0  0  0
 15 13  1  6  0  0  0
 15 16  1  0  0  0  0
 16 19  1  0  0  0  0
 17 18  1  6  0  0  0
 17 28  1  0  0  0  0
 17 19  1  0  0  0  0
 18 15  1  0  0  0  0
 20 21  1  0  0  0  0
 24 27  1  0  0  0  0
 25 22  1  1  0  0  0
 25 21  1  0  0  0  0
 27 26  1  6  0  0  0
 27 25  1  0  0  0  0
 27 23  1  0  0  0  0
 28 24  1  1  0  0  0
 28 20  1  0  0  0  0
 30 29  1  0  0  0  0
 31 32  1  0  0  0  0
 34 33  1  1  0  0  0
 34 32  1  0  0  0  0
 35 38  1  1  0  0  0
 35 40  1  0  0  0  0
 36 40  1  1  0  0  0
 36 42  1  0  0  0  0
 37 39  1  0  0  0  0
 37 35  1  0  0  0  0
 39 34  1  6  0  0  0
 39 36  1  0  0  0  0
 41 46  2  0  0  0  0
 42 41  1  1  0  0  0
 42 44  1  0  0  0  0
 44 45  2  0  0  0  0
 45 43  1  0  0  0  0
 46 47  1  0  0  0  0
 47 43  2  0  0  0  0
 48 49  1  0  0  0  0
 49 50  1  0  0  0  0
M  END
>  <MODEL>
5

>  <REMARK>
 VINA RESULT:      -6.7      2.681      5.510
  Name = 
  10 active torsions:
  status: ('A' for Active; 'I' for Inactive)
    1  A    between atoms: C_1  and  C_39
    2  A    between atoms: C_6  and  C_34
    3  A    between atoms: C_12  and  O_42
    4  A    between atoms: C_14  and  O_42
    5  A    between atoms: C_15  and  C_37
    6  A    between atoms: C_17  and  C_22
    7  A    between atoms: N_18  and  N_50
    8  A    between atoms: C_35  and  C_41
    9  A    between atoms: C_35  and  O_47
   10  A    between atoms: C_39  and  O_47
                            x       y       z     vdW  Elec       q    Type
                         _______ _______ _______ _____ _____    ______ ____

>  <TORSDO>
F 10

$$$$
=
 OpenBabel10222419493D

 50 55  0  0  1  0  0  0  0  0999 V2000
  189.6660  177.0250  138.5080 C   0  0  1  0  0  3  0  0  0  0  0  0
  190.0190  176.3080  139.8140 C   0  0  0  0  0  2  0  0  0  0  0  0
  186.6670  178.0920  139.2240 C   0  0  0  0  0  3  0  0  0  0  0  0
  189.8950  177.0240  141.9520 C   0  0  0  0  0  2  0  0  0  0  0  0
  190.5650  177.2160  140.7320 O   0  0  0  0  0  0  0  0  0  0  0  0
  187.8860  178.4010  139.6930 C   0  0  0  0  0  0  0  0  0  0  0  0
  185.6240  179.0050  141.3400 C   0  0  0  0  0  0  0  0  0  0  0  0
  189.0800  178.4250  138.7680 C   0  0  2  0  0  3  0  0  0  0  0  0
  184.3170  177.8760  139.6390 C   0  0  0  0  0  0  0  0  0  0  0  0
  188.0940  178.6880  141.1700 C   0  0  1  0  0  3  0  0  0  0  0  0
  185.4900  178.2230  140.0930 C   0  0  0  0  0  0  0  0  0  0  0  0
  186.8550  179.2740  141.8040 C   0  0  0  0  0  3  0  0  0  0  0  0
  183.1430  177.5370  139.1840 C   0  0  0  0  0  3  0  0  0  0  0  0
  188.4000  177.3820  141.9000 C   0  0  0  0  0  2  0  0  0  0  0  0
  182.5530  178.2740  138.0330 C   0  0  1  0  0  3  0  0  0  0  0  0
  181.1230  177.8680  137.8380 C   0  0  0  0  0  2  0  0  0  0  0  0
  181.1350  180.2480  138.1230 N   0  0  2  0  0  0  0  0  0  0  0  0
  182.5080  179.7610  138.3280 C   0  0  0  0  0  2  0  0  0  0  0  0
  180.4460  179.1500  137.4370 C   0  0  0  0  0  2  0  0  0  0  0  0
  180.1720  181.1700  136.1930 C   0  0  0  0  0  2  0  0  0  0  0  0
  180.1770  182.3270  135.1790 C   0  0  0  0  0  2  0  0  0  0  0  0
  180.7850  184.6280  134.8540 O   0  0  0  0  0  1  0  0  0  0  0  0
  179.5920  184.5490  137.3060 O   0  0  0  0  0  1  0  0  0  0  0  0
  180.7090  182.5550  138.0020 C   0  0  0  0  0  2  0  0  0  0  0  0
  181.0220  183.5110  135.6600 C   0  0  1  0  0  3  0  0  0  0  0  0
  181.9400  184.6830  137.6650 C   0  0  0  0  0  1  0  0  0  0  0  0
  180.7880  183.8350  137.1510 C   0  0  1  0  0  0  0  0  0  0  0  0
  181.1700  181.3710  137.2570 N   0  0  1  0  0  0  0  0  0  0  0  0
  187.9350  178.3190  136.5410 C   0  0  0  0  0  1  0  0  0  0  0  0
  188.7810  179.1750  137.4670 C   0  0  0  0  0  2  0  0  0  0  0  0
  190.9220  177.1300  137.6520 C   0  0  0  0  0  2  0  0  0  0  0  0
  190.8000  176.3310  136.5110 O   0  0  0  0  0  0  0  0  0  0  0  0
  192.8940  176.0450  137.5920 C   0  0  0  0  0  1  0  0  0  0  0  0
  191.9630  175.5590  136.4900 C   0  0  1  0  0  3  0  0  0  0  0  0
  190.3230  172.5970  135.0150 C   0  0  2  0  0  3  0  0  0  0  0  0
  192.4450  173.2080  135.7310 C   0  0  2  0  0  3  0  0  0  0  0  0
  189.8680  173.7550  136.3310 S   0  0  0  0  0  0  0  0  0  0  0  0
  189.3230  171.4610  134.9630 C   0  0  0  0  0  1  0  0  0  0  0  0
  191.6260  174.0750  136.6830 C   0  0  2  0  0  3  0  0  0  0  0  0
  191.6470  172.0710  135.2960 N   0  0  0  0  0  2  0  0  0  0  0  0
  194.9150  173.4820  135.7300 C   0  0  0  0  0  3  0  0  0  0  0  0
  193.7660  172.7610  136.3590 C   0  0  2  0  0  3  0  0  0  0  0  0
  196.0980  171.3120  137.5870 C   0  0  0  0  0  3  0  0  0  0  0  0
  193.9400  171.2710  136.3310 C   0  0  0  0  0  3  0  0  0  0  0  0
  194.9610  170.6460  136.9200 C   0  0  0  0  0  3  0  0  0  0  0  0
  196.1690  173.3870  136.1740 C   0  0  0  0  0  3  0  0  0  0  0  0
  196.6230  172.5000  137.2650 C   0  0  0  0  0  3  0  0  0  0  0  0
  184.4750  179.4700  141.9970 O   0  0  0  0  0  0  0  0  0  0  0  0
  184.3760  179.5960  143.4130 C   0  0  0  0  0  2  0  0  0  0  0  0
  183.0800  178.9770  143.9040 C   0  0  0  0  0  1  0  0  0  0  0  0
  1 31  1  6  0  0  0
  1  8  1  0  0  0  0
  1  2  1  0  0  0  0
  2  5  1  0  0  0  0
  3  6  2  0  0  0  0
  3 11  1  0  0  0  0
  5  4  1  0  0  0  0
  6 10  1  0  0  0  0
  7 12  2  0  0  0  0
  7 48  1  0  0  0  0
  8 30  1  6  0  0  0
  8  6  1  0  0  0  0
  9 11  2  0  0  0  0
 10 12  1  1  0  0  0
 10 14  1  0  0  0  0
 11  7  1  0  0  0  0
 13  9  2  0  0  0  0
 14  4  1  0  0  0  0
 15 18  1  0  0  0  0
 15 13  1  1  0  0  0
 16 15  1  0  0  0  0
 17 19  1  6  0  0  0
 17 18  1  0  0  0  0
 19 16  1  0  0  0  0
 21 25  1  0  0  0  0
 21 20  1  0  0  0  0
 25 22  1  6  0  0  0
 25 27  1  0  0  0  0
 27 23  1  0  0  0  0
 27 26  1  1  0  0  0
 27 24  1  0  0  0  0
 28 20  1  6  0  0  0
 28 24  1  0  0  0  0
 28 17  1  0  0  0  0
 29 30  1  0  0  0  0
 32 31  1  0  0  0  0
 34 32  1  0  0  0  0
 34 33  1  1  0  0  0
 35 38  1  1  0  0  0
 35 40  1  0  0  0  0
 35 37  1  0  0  0  0
 36 40  1  1  0  0  0
 36 42  1  0  0  0  0
 36 39  1  0  0  0  0
 37 39  1  0  0  0  0
 39 34  1  6  0  0  0
 41 46  2  0  0  0  0
 42 41  1  6  0  0  0
 44 42  1  0  0  0  0
 44 45  2  0  0  0  0
 45 43  1  0  0  0  0
 46 47  1  0  0  0  0
 47 43  2  0  0  0  0
 48 49  1  0  0  0  0
 49 50  1  0  0  0  0
M  END
>  <MODEL>
6

>  <REMARK>
 VINA RESULT:      -6.7      1.955      4.300
  Name = 
  10 active torsions:
  status: ('A' for Active; 'I' for Inactive)
    1  A    between atoms: C_1  and  C_39
    2  A    between atoms: C_6  and  C_34
    3  A    between atoms: C_12  and  O_42
    4  A    between atoms: C_14  and  O_42
    5  A    between atoms: C_15  and  C_37
    6  A    between atoms: C_17  and  C_22
    7  A    between atoms: N_18  and  N_50
    8  A    between atoms: C_35  and  C_41
    9  A    between atoms: C_35  and  O_47
   10  A    between atoms: C_39  and  O_47
                            x       y       z     vdW  Elec       q    Type
                         _______ _______ _______ _____ _____    ______ ____

>  <TORSDO>
F 10

$$$$
=
 OpenBabel10222419493D

 50 55  0  0  1  0  0  0  0  0999 V2000
  185.6190  178.8770  144.9380 C   0  0  1  0  0  3  0  0  0  0  0  0
  185.7780  179.8180  146.1370 C   0  0  0  0  0  2  0  0  0  0  0  0
  188.6720  177.7600  144.6680 C   0  0  0  0  0  3  0  0  0  0  0  0
  186.6990  179.4540  148.1660 C   0  0  0  0  0  2  0  0  0  0  0  0
  185.6210  179.1070  147.3340 O   0  0  0  0  0  0  0  0  0  0  0  0
  187.7190  177.6070  145.6010 C   0  0  0  0  0  0  0  0  0  0  0  0
  190.4380  177.1440  146.3720 C   0  0  0  0  0  0  0  0  0  0  0  0
  186.2660  177.5050  145.2030 C   0  0  2  0  0  3  0  0  0  0  0  0
  191.0050  177.8970  144.1390 C   0  0  0  0  0  0  0  0  0  0  0  0
  188.0830  177.5780  147.0760 C   0  0  1  0  0  3  0  0  0  0  0  0
  190.0900  177.7020  145.0480 C   0  0  0  0  0  0  0  0  0  0  0  0
  189.4720  177.0290  147.2980 C   0  0  0  0  0  3  0  0  0  0  0  0
  191.9210  178.0860  143.2300 C   0  0  0  0  0  3  0  0  0  0  0  0
  188.0660  179.0020  147.6280 C   0  0  0  0  0  2  0  0  0  0  0  0
  192.0400  177.1360  142.0900 C   0  0  1  0  0  3  0  0  0  0  0  0
  190.7590  176.3780  141.9140 C   0  0  0  0  0  2  0  0  0  0  0  0
  191.2230  177.4500  139.8210 N   0  0  2  0  0  0  0  0  0  0  0  0
  192.2370  177.8930  140.7910 C   0  0  0  0  0  2  0  0  0  0  0  0
  190.6290  176.2520  140.4210 C   0  0  0  0  0  2  0  0  0  0  0  0
  193.1240  176.3830  138.9560 C   0  0  0  0  0  2  0  0  0  0  0  0
  193.9170  175.9850  137.6990 C   0  0  0  0  0  2  0  0  0  0  0  0
  193.7420  175.5580  135.3410 O   0  0  0  0  0  1  0  0  0  0  0  0
  191.6060  174.2770  136.4550 O   0  0  0  0  0  1  0  0  0  0  0  0
  191.0460  176.0750  137.9250 C   0  0  0  0  0  2  0  0  0  0  0  0
  193.0980  176.1750  136.4170 C   0  0  1  0  0  3  0  0  0  0  0  0
  190.7920  176.2810  135.4650 C   0  0  0  0  0  1  0  0  0  0  0  0
  191.6460  175.6730  136.5660 C   0  0  1  0  0  0  0  0  0  0  0  0
  191.8720  177.0790  138.6160 N   0  0  1  0  0  0  0  0  0  0  0  0
  187.3910  176.0000  143.5440 C   0  0  0  0  0  1  0  0  0  0  0  0
  186.0580  176.5360  144.0360 C   0  0  0  0  0  2  0  0  0  0  0  0
  184.1340  178.7100  144.6410 C   0  0  0  0  0  2  0  0  0  0  0  0
  183.8700  179.0150  143.3020 O   0  0  0  0  0  0  0  0  0  0  0  0
  181.5080  178.9940  143.5440 C   0  0  0  0  0  1  0  0  0  0  0  0
  182.7280  178.2760  142.9860 C   0  0  1  0  0  3  0  0  0  0  0  0
  181.3670  179.7020  139.8630 C   0  0  2  0  0  3  0  0  0  0  0  0
  183.4440  179.1450  140.7340 C   0  0  2  0  0  3  0  0  0  0  0  0
  180.8790  178.3180  140.9250 S   0  0  0  0  0  0  0  0  0  0  0  0
  180.5210  179.7060  138.6060 C   0  0  0  0  0  1  0  0  0  0  0  0
  182.6050  178.1020  141.4670 C   0  0  2  0  0  3  0  0  0  0  0  0
  182.7660  179.5470  139.5110 N   0  0  0  0  0  2  0  0  0  0  0  0
  185.8490  179.3400  141.3330 C   0  0  0  0  0  3  0  0  0  0  0  0
  184.8610  178.6420  140.4530 C   0  0  2  0  0  3  0  0  0  0  0  0
  187.4590  177.6570  139.3000 C   0  0  0  0  0  3  0  0  0  0  0  0
  185.2250  178.7330  139.0000 C   0  0  0  0  0  3  0  0  0  0  0  0
  186.3650  178.2500  138.5040 C   0  0  0  0  0  3  0  0  0  0  0  0
  187.1370  179.0030  141.3960 C   0  0  0  0  0  3  0  0  0  0  0  0
  187.7950  177.9820  140.5540 C   0  0  0  0  0  3  0  0  0  0  0  0
  191.7520  176.7230  146.6270 O   0  0  0  0  0  0  0  0  0  0  0  0
  192.0720  175.5870  147.4250 C   0  0  0  0  0  2  0  0  0  0  0  0
  192.9490  176.0000  148.5930 C   0  0  0  0  0  1  0  0  0  0  0  0
  1 31  1  1  0  0  0
  1  8  1  0  0  0  0
  1  2  1  0  0  0  0
  2  5  1  0  0  0  0
  3 11  1  0  0  0  0
  3  6  2  0  0  0  0
  5  4  1  0  0  0  0
  6 10  1  0  0  0  0
  7 48  1  0  0  0  0
  7 12  2  0  0  0  0
  8 30  1  6  0  0  0
  8  6  1  0  0  0  0
  9 11  2  0  0  0  0
 10 12  1  6  0  0  0
 10 14  1  0  0  0  0
 11  7  1  0  0  0  0
 13  9  2  0  0  0  0
 14  4  1  0  0  0  0
 15 13  1  1  0  0  0
 16 15  1  0  0  0  0
 17 19  1  1  0  0  0
 17 18  1  0  0  0  0
 18 15  1  0  0  0  0
 19 16  1  0  0  0  0
 21 20  1  0  0  0  0
 23 27  1  0  0  0  0
 25 22  1  6  0  0  0
 25 27  1  0  0  0  0
 25 21  1  0  0  0  0
 27 26  1  6  0  0  0
 27 24  1  0  0  0  0
 28 24  1  1  0  0  0
 28 20  1  0  0  0  0
 28 17  1  0  0  0  0
 29 30  1  0  0  0  0
 32 31  1  0  0  0  0
 34 32  1  0  0  0  0
 34 33  1  6  0  0  0
 35 38  1  6  0  0  0
 35 37  1  0  0  0  0
 36 40  1  6  0  0  0
 36 39  1  0  0  0  0
 37 39  1  0  0  0  0
 39 34  1  1  0  0  0
 40 35  1  0  0  0  0
 41 46  2  0  0  0  0
 42 44  1  6  0  0  0
 42 36  1  0  0  0  0
 42 41  1  0  0  0  0
 43 47  2  0  0  0  0
 45 44  2  0  0  0  0
 45 43  1  0  0  0  0
 47 46  1  0  0  0  0
 48 49  1  0  0  0  0
 49 50  1  0  0  0  0
M  END
>  <MODEL>
7

>  <REMARK>
 VINA RESULT:      -6.4      3.446      9.477
  Name = 
  10 active torsions:
  status: ('A' for Active; 'I' for Inactive)
    1  A    between atoms: C_1  and  C_39
    2  A    between atoms: C_6  and  C_34
    3  A    between atoms: C_12  and  O_42
    4  A    between atoms: C_14  and  O_42
    5  A    between atoms: C_15  and  C_37
    6  A    between atoms: C_17  and  C_22
    7  A    between atoms: N_18  and  N_50
    8  A    between atoms: C_35  and  C_41
    9  A    between atoms: C_35  and  O_47
   10  A    between atoms: C_39  and  O_47
                            x       y       z     vdW  Elec       q    Type
                         _______ _______ _______ _____ _____    ______ ____

>  <TORSDO>
F 10

$$$$
=
 OpenBabel10222419493D

 50 55  0  0  1  0  0  0  0  0999 V2000
  189.2500  175.3690  137.0720 C   0  0  1  0  0  3  0  0  0  0  0  0
  190.6540  174.8100  136.8200 C   0  0  0  0  0  2  0  0  0  0  0  0
  189.5880  176.4250  140.1400 C   0  0  0  0  0  3  0  0  0  0  0  0
  192.6800  175.7530  137.1420 C   0  0  0  0  0  2  0  0  0  0  0  0
  191.5060  175.8280  136.3720 O   0  0  0  0  0  0  0  0  0  0  0  0
  190.1200  176.8160  138.9720 C   0  0  0  0  0  0  0  0  0  0  0  0
  191.4940  177.5340  141.3800 C   0  0  0  0  0  0  0  0  0  0  0  0
  189.3020  176.7720  137.7030 C   0  0  2  0  0  3  0  0  0  0  0  0
  189.8260  176.1900  142.5130 C   0  0  0  0  0  0  0  0  0  0  0  0
  191.5690  177.2700  138.8990 C   0  0  1  0  0  3  0  0  0  0  0  0
  190.3350  176.6170  141.3900 C   0  0  0  0  0  0  0  0  0  0  0  0
  192.0260  177.8870  140.1990 C   0  0  0  0  0  3  0  0  0  0  0  0
  189.3140  175.7700  143.6370 C   0  0  0  0  0  3  0  0  0  0  0  0
  192.4630  176.0610  138.6320 C   0  0  0  0  0  2  0  0  0  0  0  0
  188.0430  176.3600  144.1380 C   0  0  1  0  0  3  0  0  0  0  0  0
  188.3180  177.6520  144.8470 C   0  0  0  0  0  2  0  0  0  0  0  0
  186.7390  178.1360  143.1100 N   0  0  2  0  0  0  0  0  0  0  0  0
  187.1380  176.7260  142.9780 C   0  0  0  0  0  2  0  0  0  0  0  0
  187.1470  178.5160  144.4650 C   0  0  0  0  0  2  0  0  0  0  0  0
  184.8840  179.4020  143.7850 C   0  0  0  0  0  2  0  0  0  0  0  0
  183.3520  179.5450  143.7800 C   0  0  0  0  0  2  0  0  0  0  0  0
  181.3440  178.9370  142.6100 O   0  0  0  0  0  1  0  0  0  0  0  0
  183.1060  179.6710  140.6610 O   0  0  0  0  0  1  0  0  0  0  0  0
  184.9580  178.5070  141.6240 C   0  0  0  0  0  2  0  0  0  0  0  0
  182.6880  178.5920  142.7810 C   0  0  1  0  0  3  0  0  0  0  0  0
  183.0130  177.2930  140.6730 C   0  0  0  0  0  1  0  0  0  0  0  0
  183.4310  178.5450  141.4290 C   0  0  1  0  0  0  0  0  0  0  0  0
  185.3260  178.2230  143.0210 N   0  0  1  0  0  0  0  0  0  0  0  0
  187.8130  178.7380  137.2600 C   0  0  0  0  0  1  0  0  0  0  0  0
  187.9050  177.3660  137.9020 C   0  0  0  0  0  2  0  0  0  0  0  0
  188.4960  175.4150  135.7480 C   0  0  0  0  0  2  0  0  0  0  0  0
  187.4030  174.5430  135.7820 O   0  0  0  0  0  0  0  0  0  0  0  0
  186.4560  176.3690  134.5970 C   0  0  0  0  0  1  0  0  0  0  0  0
  186.2830  175.3750  135.7360 C   0  0  1  0  0  3  0  0  0  0  0  0
  184.4510  172.3290  136.7390 C   0  0  2  0  0  3  0  0  0  0  0  0
  184.1160  174.6250  136.7760 C   0  0  2  0  0  3  0  0  0  0  0  0
  185.4060  172.7890  135.2710 S   0  0  0  0  0  0  0  0  0  0  0  0
  183.7760  170.9920  136.5130 C   0  0  0  0  0  1  0  0  0  0  0  0
  185.0070  174.5460  135.5390 C   0  0  2  0  0  3  0  0  0  0  0  0
  183.4460  173.3490  136.9790 N   0  0  0  0  0  2  0  0  0  0  0  0
  182.5690  175.8890  135.2980 C   0  0  0  0  0  3  0  0  0  0  0  0
  183.1150  175.7780  136.6850 C   0  0  2  0  0  3  0  0  0  0  0  0
  181.5540  178.3420  136.8830 C   0  0  0  0  0  3  0  0  0  0  0  0
  183.6850  177.0740  137.1820 C   0  0  0  0  0  3  0  0  0  0  0  0
  182.9620  178.1890  137.3020 C   0  0  0  0  0  3  0  0  0  0  0  0
  181.5790  176.7190  134.9660 C   0  0  0  0  0  3  0  0  0  0  0  0
  180.9530  177.7050  135.8710 C   0  0  0  0  0  3  0  0  0  0  0  0
  191.9960  178.0360  142.5900 O   0  0  0  0  0  0  0  0  0  0  0  0
  191.3110  179.0000  143.3850 C   0  0  0  0  0  2  0  0  0  0  0  0
  191.5740  178.7450  144.8580 C   0  0  0  0  0  1  0  0  0  0  0  0
  1 31  1  6  0  0  0
  1  8  1  0  0  0  0
  2  1  1  0  0  0  0
  3 11  1  0  0  0  0
  4 14  1  0  0  0  0
  5  2  1  0  0  0  0
  5  4  1  0  0  0  0
  6  3  2  0  0  0  0
  7 11  1  0  0  0  0
  7 48  1  0  0  0  0
  8 30  1  1  0  0  0
  8  6  1  0  0  0  0
  9 13  2  0  0  0  0
 10 14  1  1  0  0  0
 10  6  1  0  0  0  0
 10 12  1  0  0  0  0
 11  9  2  0  0  0  0
 12  7  2  0  0  0  0
 15 13  1  6  0  0  0
 15 16  1  0  0  0  0
 17 18  1  1  0  0  0
 17 19  1  0  0  0  0
 18 15  1  0  0  0  0
 19 16  1  0  0  0  0
 21 20  1  0  0  0  0
 23 27  1  0  0  0  0
 25 22  1  6  0  0  0
 25 21  1  0  0  0  0
 27 26  1  6  0  0  0
 27 24  1  0  0  0  0
 27 25  1  0  0  0  0
 28 24  1  6  0  0  0
 28 17  1  0  0  0  0
 28 20  1  0  0  0  0
 29 30  1  0  0  0  0
 31 32  1  0  0  0  0
 34 33  1  6  0  0  0
 34 32  1  0  0  0  0
 35 38  1  6  0  0  0
 35 40  1  0  0  0  0
 36 40  1  6  0  0  0
 37 39  1  0  0  0  0
 37 35  1  0  0  0  0
 39 34  1  1  0  0  0
 39 36  1  0  0  0  0
 42 41  1  6  0  0  0
 42 36  1  0  0  0  0
 42 44  1  0  0  0  0
 43 45  1  0  0  0  0
 44 45  2  0  0  0  0
 46 41  2  0  0  0  0
 46 47  1  0  0  0  0
 47 43  2  0  0  0  0
 48 49  1  0  0  0  0
 49 50  1  0  0  0  0
M  END
>  <MODEL>
8

>  <REMARK>
 VINA RESULT:      -6.4      3.391      7.496
  Name = 
  10 active torsions:
  status: ('A' for Active; 'I' for Inactive)
    1  A    between atoms: C_1  and  C_39
    2  A    between atoms: C_6  and  C_34
    3  A    between atoms: C_12  and  O_42
    4  A    between atoms: C_14  and  O_42
    5  A    between atoms: C_15  and  C_37
    6  A    between atoms: C_17  and  C_22
    7  A    between atoms: N_18  and  N_50
    8  A    between atoms: C_35  and  C_41
    9  A    between atoms: C_35  and  O_47
   10  A    between atoms: C_39  and  O_47
                            x       y       z     vdW  Elec       q    Type
                         _______ _______ _______ _____ _____    ______ ____

>  <TORSDO>
F 10

$$$$
=
 OpenBabel10222419493D

 50 55  0  0  1  0  0  0  0  0999 V2000
  186.3810  175.2740  136.4930 C   0  0  1  0  0  3  0  0  0  0  0  0
  187.1230  174.1750  135.7250 C   0  0  0  0  0  2  0  0  0  0  0  0
  188.7980  176.3980  138.3750 C   0  0  0  0  0  3  0  0  0  0  0  0
  189.0750  174.2480  134.5940 C   0  0  0  0  0  2  0  0  0  0  0  0
  187.7490  174.7140  134.5940 O   0  0  0  0  0  0  0  0  0  0  0  0
  188.5780  176.4260  137.0510 C   0  0  0  0  0  0  0  0  0  0  0  0
  191.2690  176.7590  137.9720 C   0  0  0  0  0  0  0  0  0  0  0  0
  187.1780  176.5920  136.5100 C   0  0  2  0  0  3  0  0  0  0  0  0
  190.3720  176.3190  140.1800 C   0  0  0  0  0  0  0  0  0  0  0  0
  189.7290  176.2470  136.0750 C   0  0  1  0  0  3  0  0  0  0  0  0
  190.1730  176.3930  138.8930 C   0  0  0  0  0  0  0  0  0  0  0  0
  191.0320  176.7510  136.6510 C   0  0  0  0  0  3  0  0  0  0  0  0
  190.5720  176.2530  141.4680 C   0  0  0  0  0  3  0  0  0  0  0  0
  189.9120  174.7600  135.7770 C   0  0  0  0  0  2  0  0  0  0  0  0
  190.0910  177.3510  142.3500 C   0  0  1  0  0  3  0  0  0  0  0  0
  189.0460  178.1610  141.6430 C   0  0  0  0  0  2  0  0  0  0  0  0
  188.0580  177.3830  143.6830 N   0  0  2  0  0  0  0  0  0  0  0  0
  189.3950  176.7800  143.5700 C   0  0  0  0  0  2  0  0  0  0  0  0
  188.0690  178.5010  142.7350 C   0  0  0  0  0  2  0  0  0  0  0  0
  186.4610  177.9270  145.3130 C   0  0  0  0  0  2  0  0  0  0  0  0
  186.1940  178.5240  146.7050 C   0  0  0  0  0  2  0  0  0  0  0  0
  187.1800  178.9860  148.8460 O   0  0  0  0  0  1  0  0  0  0  0  0
  187.9780  176.4510  148.2300 O   0  0  0  0  0  1  0  0  0  0  0  0
  188.4920  176.9570  145.9520 C   0  0  0  0  0  2  0  0  0  0  0  0
  187.4850  178.7030  147.5120 C   0  0  1  0  0  3  0  0  0  0  0  0
  189.8260  177.8930  147.8240 C   0  0  0  0  0  1  0  0  0  0  0  0
  188.4250  177.4840  147.3970 C   0  0  1  0  0  0  0  0  0  0  0  0
  187.8980  177.9030  144.9930 N   0  0  1  0  0  0  0  0  0  0  0  0
  186.9660  179.0710  136.8130 C   0  0  0  0  0  1  0  0  0  0  0  0
  186.4180  177.7150  137.2210 C   0  0  0  0  0  2  0  0  0  0  0  0
  185.0200  175.4910  135.8450 C   0  0  0  0  0  2  0  0  0  0  0  0
  184.0060  175.4070  136.8050 O   0  0  0  0  0  0  0  0  0  0  0  0
  183.2760  176.9870  135.1910 C   0  0  0  0  0  1  0  0  0  0  0  0
  183.2780  176.5890  136.6590 C   0  0  1  0  0  3  0  0  0  0  0  0
  180.5880  174.1530  137.3470 C   0  0  2  0  0  3  0  0  0  0  0  0
  181.8410  175.7080  138.5300 C   0  0  2  0  0  3  0  0  0  0  0  0
  180.8760  175.3620  136.0290 S   0  0  0  0  0  0  0  0  0  0  0  0
  179.2090  173.5460  137.1930 C   0  0  0  0  0  1  0  0  0  0  0  0
  181.8440  176.4020  137.1700 C   0  0  2  0  0  3  0  0  0  0  0  0
  180.6850  174.8290  138.6280 N   0  0  0  0  0  2  0  0  0  0  0  0
  180.8340  177.7620  139.5020 C   0  0  0  0  0  3  0  0  0  0  0  0
  181.8840  176.7130  139.6830 C   0  0  2  0  0  3  0  0  0  0  0  0
  182.5910  178.6230  141.8950 C   0  0  0  0  0  3  0  0  0  0  0  0
  183.2500  177.2980  139.8840 C   0  0  0  0  0  3  0  0  0  0  0  0
  183.5530  178.1100  140.8980 C   0  0  0  0  0  3  0  0  0  0  0  0
  180.5570  178.6850  140.4240 C   0  0  0  0  0  3  0  0  0  0  0  0
  181.2920  178.8730  141.6910 C   0  0  0  0  0  3  0  0  0  0  0  0
  192.5180  177.1320  138.4900 O   0  0  0  0  0  0  0  0  0  0  0  0
  193.7340  176.4610  138.1690 C   0  0  0  0  0  2  0  0  0  0  0  0
  193.5190  174.9590  138.1710 C   0  0  0  0  0  1  0  0  0  0  0  0
  1 31  1  6  0  0  0
  1  8  1  0  0  0  0
  2  1  1  0  0  0  0
  3 11  1  0  0  0  0
  4  5  1  0  0  0  0
  4 14  1  0  0  0  0
  5  2  1  0  0  0  0
  6  3  2  0  0  0  0
  7 48  1  0  0  0  0
  7 11  1  0  0  0  0
  8  6  1  0  0  0  0
  8 30  1  1  0  0  0
  9 13  2  0  0  0  0
 10 14  1  1  0  0  0
 10 12  1  0  0  0  0
 10  6  1  0  0  0  0
 11  9  2  0  0  0  0
 12  7  2  0  0  0  0
 15 13  1  6  0  0  0
 15 18  1  0  0  0  0
 16 15  1  0  0  0  0
 16 19  1  0  0  0  0
 17 19  1  6  0  0  0
 17 28  1  0  0  0  0
 18 17  1  0  0  0  0
 20 21  1  0  0  0  0
 21 25  1  0  0  0  0
 24 27  1  0  0  0  0
 25 22  1  1  0  0  0
 27 25  1  0  0  0  0
 27 26  1  1  0  0  0
 27 23  1  0  0  0  0
 28 20  1  1  0  0  0
 28 24  1  0  0  0  0
 29 30  1  0  0  0  0
 31 32  1  0  0  0  0
 34 33  1  6  0  0  0
 34 32  1  0  0  0  0
 35 38  1  6  0  0  0
 35 40  1  0  0  0  0
 36 40  1  1  0  0  0
 36 42  1  0  0  0  0
 37 39  1  0  0  0  0
 37 35  1  0  0  0  0
 39 34  1  6  0  0  0
 39 36  1  0  0  0  0
 41 46  2  0  0  0  0
 42 41  1  6  0  0  0
 42 44  1  0  0  0  0
 44 45  2  0  0  0  0
 45 43  1  0  0  0  0
 46 47  1  0  0  0  0
 47 43  2  0  0  0  0
 49 50  1  0  0  0  0
 49 48  1  0  0  0  0
M  END
>  <MODEL>
9

>  <REMARK>
 VINA RESULT:      -6.3      4.025     10.017
  Name = 
  10 active torsions:
  status: ('A' for Active; 'I' for Inactive)
    1  A    between atoms: C_1  and  C_39
    2  A    between atoms: C_6  and  C_34
    3  A    between atoms: C_12  and  O_42
    4  A    between atoms: C_14  and  O_42
    5  A    between atoms: C_15  and  C_37
    6  A    between atoms: C_17  and  C_22
    7  A    between atoms: N_18  and  N_50
    8  A    between atoms: C_35  and  C_41
    9  A    between atoms: C_35  and  O_47
   10  A    between atoms: C_39  and  O_47
                            x       y       z     vdW  Elec       q    Type
                         _______ _______ _______ _____ _____    ______ ____

>  <TORSDO>
F 10

$$$$
