=
 OpenBabel10222417013D

 30 35  0  0  1  0  0  0  0  0999 V2000
  182.3900  178.9170  143.0450 C   0  0  0  0  0  2  0  0  0  0  0  0
  183.6230  178.4000  140.8190 C   0  0  0  0  0  3  0  0  0  0  0  0
  186.1440  178.2700  144.9370 C   0  0  0  0  0  0  0  0  0  0  0  0
  185.4450  178.5950  147.0280 C   0  0  0  0  0  3  0  0  0  0  0  0
  181.3010  178.7930  140.9290 O   0  0  0  0  0  0  0  0  0  0  0  0
  185.0520  178.5700  145.6920 C   0  0  0  0  0  0  0  0  0  0  0  0
  183.7250  178.6700  143.6930 C   0  0  0  0  0  0  0  0  0  0  0  0
  183.8110  178.7810  145.0980 C   0  0  0  0  0  3  0  0  0  0  0  0
  187.4150  177.8190  142.8220 C   0  0  1  0  0  3  0  0  0  0  0  0
  182.3870  178.6970  141.5590 C   0  0  0  0  0  0  0  0  0  0  0  0
  187.8790  176.4020  143.1710 C   0  0  0  0  0  2  0  0  0  0  0  0
  186.1280  178.1440  143.5610 C   0  0  0  0  0  0  0  0  0  0  0  0
  184.8870  178.3550  142.9160 C   0  0  0  0  0  0  0  0  0  0  0  0
  186.8130  178.2830  146.9740 C   0  0  0  0  0  0  0  0  0  0  0  0
  188.6340  177.5820  143.7410 C   0  0  2  0  0  0  0  0  0  0  0  0
  188.4650  177.7420  145.1920 N   0  0  0  0  0  2  0  0  0  0  0  0
  187.2070  178.0910  145.7000 N   0  0  0  0  0  0  0  0  0  0  0  0
  184.7850  178.2460  141.4490 C   0  0  0  0  0  3  0  0  0  0  0  0
  188.4080  178.0770  149.0720 C   0  0  0  0  0  3  0  0  0  0  0  0
  187.6820  178.1740  148.1150 C   0  0  0  0  0  0  0  0  0  0  0  0
  190.0250  177.7590  143.1650 C   0  0  0  0  0  2  0  0  0  0  0  0
  190.3570  176.6040  142.2400 C   0  0  0  0  0  2  0  0  0  0  0  0
  191.8670  177.4350  140.5990 O   0  0  0  0  0  0  0  0  0  0  0  0
  189.6300  177.2670  139.9190 N   0  0  0  0  0  2  0  0  0  0  0  0
  190.6800  177.1170  140.8820 C   0  0  0  0  0  0  0  0  0  0  0  0
  188.6890  179.0020  136.9600 C   0  0  0  0  0  2  0  0  0  0  0  0
  189.8170  177.7860  138.5680 C   0  0  1  0  0  3  0  0  0  0  0  0
  189.3840  176.7710  137.5290 C   0  0  0  0  0  2  0  0  0  0  0  0
  188.6000  177.5600  136.5080 C   0  0  0  0  0  2  0  0  0  0  0  0
  189.0400  179.0020  138.3720 N   0  0  0  0  0  2  0  0  0  0  0  0
  1  7  1  0  0  0  0
  2 18  2  0  0  0  0
  2 10  1  0  0  0  0
  3  6  1  0  0  0  0
  3 17  1  0  0  0  0
  5 10  2  0  0  0  0
  6  4  1  0  0  0  0
  7  8  1  0  0  0  0
  8  6  2  0  0  0  0
  9 11  1  1  0  0  0
  9 12  1  0  0  0  0
  9 15  1  0  0  0  0
 10  1  1  0  0  0  0
 11 15  1  0  0  0  0
 12  3  2  0  0  0  0
 13 12  1  0  0  0  0
 13  7  2  0  0  0  0
 14  4  2  0  0  0  0
 14 20  1  0  0  0  0
 15 21  1  6  0  0  0
 15 16  1  0  0  0  0
 16 17  1  0  0  0  0
 17 14  1  0  0  0  0
 18 13  1  0  0  0  0
 20 19  3  0  0  0  0
 22 21  1  0  0  0  0
 23 25  2  0  0  0  0
 24 25  1  0  0  0  0
 25 22  1  0  0  0  0
 26 30  1  0  0  0  0
 27 24  1  1  0  0  0
 28 27  1  0  0  0  0
 29 26  1  0  0  0  0
 29 28  1  0  0  0  0
 30 27  1  0  0  0  0
M  END
>  <MODEL>
1

>  <REMARK>
 VINA RESULT:     -10.6      0.000      0.000
  Name = 
  5 active torsions:
  status: ('A' for Active; 'I' for Inactive)
    1  A    between atoms: C_7  and  C_13
    2  A    between atoms: C_7  and  C_24
    3  A    between atoms: C_13  and  C_17
    4  A    between atoms: C_15  and  N_16
    5  A    between atoms: C_23  and  C_29
                            x       y       z     vdW  Elec       q    Type
                         _______ _______ _______ _____ _____    ______ ____

>  <TORSDO>
F 5

$$$$
=
 OpenBabel10222417013D

 30 35  0  0  1  0  0  0  0  0999 V2000
  183.9620  178.6020  145.6520 C   0  0  0  0  0  2  0  0  0  0  0  0
  183.9790  178.7850  143.0620 C   0  0  0  0  0  3  0  0  0  0  0  0
  188.0840  177.6070  145.3190 C   0  0  0  0  0  0  0  0  0  0  0  0
  188.4580  177.3000  147.4950 C   0  0  0  0  0  3  0  0  0  0  0  0
  182.0170  179.0320  144.3450 O   0  0  0  0  0  0  0  0  0  0  0  0
  187.4950  177.6360  146.5460 C   0  0  0  0  0  0  0  0  0  0  0  0
  185.4150  178.2390  145.5080 C   0  0  0  0  0  0  0  0  0  0  0  0
  186.1470  177.9530  146.6810 C   0  0  0  0  0  3  0  0  0  0  0  0
  188.1920  177.8250  142.8230 C   0  0  1  0  0  3  0  0  0  0  0  0
  183.2550  178.8090  144.3430 C   0  0  0  0  0  0  0  0  0  0  0  0
  188.6270  176.3880  142.5200 C   0  0  0  0  0  2  0  0  0  0  0  0
  187.4260  177.8730  144.1330 C   0  0  0  0  0  0  0  0  0  0  0  0
  186.0540  178.2050  144.2260 C   0  0  0  0  0  0  0  0  0  0  0  0
  189.6120  177.0750  146.7260 C   0  0  0  0  0  0  0  0  0  0  0  0
  189.6680  177.3900  142.9640 C   0  0  2  0  0  0  0  0  0  0  0  0
  190.2000  177.1280  144.3080 N   0  0  0  0  0  2  0  0  0  0  0  0
  189.3560  177.2660  145.4170 N   0  0  0  0  0  0  0  0  0  0  0  0
  185.2790  178.5090  143.0090 C   0  0  0  0  0  3  0  0  0  0  0  0
  191.9640  176.3540  147.6930 C   0  0  0  0  0  3  0  0  0  0  0  0
  190.8930  176.6860  147.2520 C   0  0  0  0  0  0  0  0  0  0  0  0
  190.6480  177.7810  141.8760 C   0  0  0  0  0  2  0  0  0  0  0  0
  191.1100  176.5480  141.1230 C   0  0  0  0  0  2  0  0  0  0  0  0
  190.8290  175.6160  138.9510 O   0  0  0  0  0  0  0  0  0  0  0  0
  189.7810  177.6830  139.3070 N   0  0  0  0  0  2  0  0  0  0  0  0
  190.5710  176.5670  139.7370 C   0  0  0  0  0  0  0  0  0  0  0  0
  187.7500  179.1690  136.7930 C   0  0  0  0  0  2  0  0  0  0  0  0
  189.2220  177.8290  137.9670 C   0  0  1  0  0  3  0  0  0  0  0  0
  187.9650  176.9980  137.8060 C   0  0  0  0  0  2  0  0  0  0  0  0
  186.9860  177.8950  137.0870 C   0  0  0  0  0  2  0  0  0  0  0  0
  188.8870  179.2210  137.6980 N   0  0  0  0  0  2  0  0  0  0  0  0
  2 10  1  0  0  0  0
  3 17  1  0  0  0  0
  3  6  1  0  0  0  0
  6  8  2  0  0  0  0
  6  4  1  0  0  0  0
  7  1  1  0  0  0  0
  7  8  1  0  0  0  0
  9 11  1  6  0  0  0
  9 15  1  0  0  0  0
  9 12  1  0  0  0  0
 10  5  2  0  0  0  0
 10  1  1  0  0  0  0
 11 15  1  0  0  0  0
 12 13  1  0  0  0  0
 12  3  2  0  0  0  0
 13  7  2  0  0  0  0
 14 20  1  0  0  0  0
 14  4  2  0  0  0  0
 15 21  1  6  0  0  0
 15 16  1  0  0  0  0
 16 17  1  0  0  0  0
 17 14  1  0  0  0  0
 18  2  2  0  0  0  0
 18 13  1  0  0  0  0
 20 19  3  0  0  0  0
 22 21  1  0  0  0  0
 23 25  2  0  0  0  0
 24 25  1  0  0  0  0
 25 22  1  0  0  0  0
 26 29  1  0  0  0  0
 26 30  1  0  0  0  0
 27 24  1  1  0  0  0
 28 27  1  0  0  0  0
 29 28  1  0  0  0  0
 30 27  1  0  0  0  0
M  END
>  <MODEL>
2

>  <REMARK>
 VINA RESULT:     -10.4      1.675      2.271
  Name = 
  5 active torsions:
  status: ('A' for Active; 'I' for Inactive)
    1  A    between atoms: C_7  and  C_13
    2  A    between atoms: C_7  and  C_24
    3  A    between atoms: C_13  and  C_17
    4  A    between atoms: C_15  and  N_16
    5  A    between atoms: C_23  and  C_29
                            x       y       z     vdW  Elec       q    Type
                         _______ _______ _______ _____ _____    ______ ____

>  <TORSDO>
F 5

$$$$
=
 OpenBabel10222417013D

 30 35  0  0  1  0  0  0  0  0999 V2000
  184.5270  178.6250  145.9040 C   0  0  0  0  0  2  0  0  0  0  0  0
  184.5220  178.7660  143.3120 C   0  0  0  0  0  3  0  0  0  0  0  0
  188.5870  177.4120  145.5410 C   0  0  0  0  0  0  0  0  0  0  0  0
  188.9720  177.1200  147.7170 C   0  0  0  0  0  3  0  0  0  0  0  0
  182.5910  179.1350  144.6130 O   0  0  0  0  0  0  0  0  0  0  0  0
  188.0150  177.4910  146.7740 C   0  0  0  0  0  0  0  0  0  0  0  0
  185.9570  178.1850  145.7500 C   0  0  0  0  0  0  0  0  0  0  0  0
  186.6870  177.8800  146.9190 C   0  0  0  0  0  3  0  0  0  0  0  0
  188.6760  177.5840  143.0400 C   0  0  1  0  0  3  0  0  0  0  0  0
  183.8160  178.8480  144.6000 C   0  0  0  0  0  0  0  0  0  0  0  0
  189.0320  176.1210  142.7560 C   0  0  0  0  0  2  0  0  0  0  0  0
  187.9290  177.6930  144.3590 C   0  0  0  0  0  0  0  0  0  0  0  0
  186.5770  178.0970  144.4610 C   0  0  0  0  0  0  0  0  0  0  0  0
  190.1030  176.8230  146.9390 C   0  0  0  0  0  0  0  0  0  0  0  0
  190.1280  177.0750  143.1720 C   0  0  2  0  0  0  0  0  0  0  0  0
  190.6630  176.8070  144.5140 N   0  0  0  0  0  2  0  0  0  0  0  0
  189.8410  177.0060  145.6300 N   0  0  0  0  0  0  0  0  0  0  0  0
  185.8050  178.4210  143.2480 C   0  0  0  0  0  3  0  0  0  0  0  0
  192.4300  176.0040  147.8870 C   0  0  0  0  0  3  0  0  0  0  0  0
  191.3680  176.3760  147.4570 C   0  0  0  0  0  0  0  0  0  0  0  0
  191.1150  177.3970  142.0670 C   0  0  0  0  0  2  0  0  0  0  0  0
  190.5990  176.8750  140.7390 C   0  0  0  0  0  2  0  0  0  0  0  0
  192.7660  177.5030  139.9810 O   0  0  0  0  0  0  0  0  0  0  0  0
  191.4830  176.2650  138.4580 N   0  0  0  0  0  2  0  0  0  0  0  0
  191.6870  176.9030  139.7250 C   0  0  0  0  0  0  0  0  0  0  0  0
  192.7990  175.2930  135.3000 C   0  0  0  0  0  2  0  0  0  0  0  0
  192.4610  176.2490  137.3760 C   0  0  1  0  0  3  0  0  0  0  0  0
  193.5020  175.1700  137.5970 C   0  0  0  0  0  2  0  0  0  0  0  0
  193.6800  174.5100  136.2500 C   0  0  0  0  0  2  0  0  0  0  0  0
  191.8100  176.0020  136.0970 N   0  0  0  0  0  2  0  0  0  0  0  0
  2 10  1  0  0  0  0
  3 17  1  0  0  0  0
  3  6  1  0  0  0  0
  6  8  2  0  0  0  0
  6  4  1  0  0  0  0
  7  1  1  0  0  0  0
  7  8  1  0  0  0  0
  9 11  1  6  0  0  0
  9 15  1  0  0  0  0
  9 12  1  0  0  0  0
 10  5  2  0  0  0  0
 10  1  1  0  0  0  0
 11 15  1  0  0  0  0
 12 13  1  0  0  0  0
 12  3  2  0  0  0  0
 13  7  2  0  0  0  0
 14 20  1  0  0  0  0
 14  4  2  0  0  0  0
 15 21  1  6  0  0  0
 15 16  1  0  0  0  0
 16 17  1  0  0  0  0
 17 14  1  0  0  0  0
 18  2  2  0  0  0  0
 18 13  1  0  0  0  0
 20 19  3  0  0  0  0
 22 21  1  0  0  0  0
 24 25  1  0  0  0  0
 25 23  2  0  0  0  0
 25 22  1  0  0  0  0
 26 30  1  0  0  0  0
 26 29  1  0  0  0  0
 27 28  1  0  0  0  0
 27 24  1  1  0  0  0
 29 28  1  0  0  0  0
 30 27  1  0  0  0  0
M  END
>  <MODEL>
3

>  <REMARK>
 VINA RESULT:     -10.0      2.513      3.285
  Name = 
  5 active torsions:
  status: ('A' for Active; 'I' for Inactive)
    1  A    between atoms: C_7  and  C_13
    2  A    between atoms: C_7  and  C_24
    3  A    between atoms: C_13  and  C_17
    4  A    between atoms: C_15  and  N_16
    5  A    between atoms: C_23  and  C_29
                            x       y       z     vdW  Elec       q    Type
                         _______ _______ _______ _____ _____    ______ ____

>  <TORSDO>
F 5

$$$$
=
 OpenBabel10222417013D

 30 35  0  0  1  0  0  0  0  0999 V2000
  189.8500  176.9540  147.5670 C   0  0  0  0  0  2  0  0  0  0  0  0
  191.7410  176.6940  145.8070 C   0  0  0  0  0  3  0  0  0  0  0  0
  187.2970  177.8020  144.2720 C   0  0  0  0  0  0  0  0  0  0  0  0
  185.4450  178.1600  145.4580 C   0  0  0  0  0  3  0  0  0  0  0  0
  192.1300  176.5500  148.1270 O   0  0  0  0  0  0  0  0  0  0  0  0
  186.7960  177.8280  145.5370 C   0  0  0  0  0  0  0  0  0  0  0  0
  188.9700  177.2640  146.3870 C   0  0  0  0  0  0  0  0  0  0  0  0
  187.6110  177.5600  146.6320 C   0  0  0  0  0  3  0  0  0  0  0  0
  189.0580  177.5080  142.5100 C   0  0  1  0  0  3  0  0  0  0  0  0
  191.2910  176.7320  147.2070 C   0  0  0  0  0  0  0  0  0  0  0  0
  188.9850  178.9210  141.9220 C   0  0  0  0  0  2  0  0  0  0  0  0
  188.6150  177.5230  143.9630 C   0  0  0  0  0  0  0  0  0  0  0  0
  189.4780  177.2400  145.0480 C   0  0  0  0  0  0  0  0  0  0  0  0
  185.2260  178.3250  144.0810 C   0  0  0  0  0  0  0  0  0  0  0  0
  187.9530  177.8980  141.5040 C   0  0  2  0  0  0  0  0  0  0  0  0
  186.6040  178.1820  142.0120 N   0  0  0  0  0  2  0  0  0  0  0  0
  186.3620  178.1040  143.3890 N   0  0  0  0  0  0  0  0  0  0  0  0
  190.8980  176.9260  144.8040 C   0  0  0  0  0  3  0  0  0  0  0  0
  182.9170  178.9850  142.9770 C   0  0  0  0  0  3  0  0  0  0  0  0
  183.9710  178.6870  143.4800 C   0  0  0  0  0  0  0  0  0  0  0  0
  188.0870  177.4440  140.0640 C   0  0  0  0  0  2  0  0  0  0  0  0
  188.7810  178.5130  139.2420 C   0  0  0  0  0  2  0  0  0  0  0  0
  189.5190  178.2410  136.9960 O   0  0  0  0  0  0  0  0  0  0  0  0
  190.5520  176.8480  138.5730 N   0  0  0  0  0  2  0  0  0  0  0  0
  189.6310  177.8800  138.1990 C   0  0  0  0  0  0  0  0  0  0  0  0
  192.6260  174.1730  137.4830 C   0  0  0  0  0  2  0  0  0  0  0  0
  191.4160  176.1350  137.6390 C   0  0  1  0  0  3  0  0  0  0  0  0
  192.8640  176.5430  137.8140 C   0  0  0  0  0  2  0  0  0  0  0  0
  193.6480  175.2520  137.7670 C   0  0  0  0  0  2  0  0  0  0  0  0
  191.3170  174.6960  137.8440 N   0  0  0  0  0  2  0  0  0  0  0  0
  2 10  1  0  0  0  0
  3  6  1  0  0  0  0
  4  6  1  0  0  0  0
  6  8  2  0  0  0  0
  7  8  1  0  0  0  0
  7  1  1  0  0  0  0
  9 11  1  1  0  0  0
  9 12  1  0  0  0  0
 10  1  1  0  0  0  0
 10  5  2  0  0  0  0
 12  3  2  0  0  0  0
 12 13  1  0  0  0  0
 13  7  2  0  0  0  0
 14  4  2  0  0  0  0
 15 21  1  6  0  0  0
 15 11  1  0  0  0  0
 15 16  1  0  0  0  0
 15  9  1  0  0  0  0
 16 17  1  0  0  0  0
 17 14  1  0  0  0  0
 17  3  1  0  0  0  0
 18 13  1  0  0  0  0
 18  2  2  0  0  0  0
 19 20  3  0  0  0  0
 20 14  1  0  0  0  0
 22 21  1  0  0  0  0
 23 25  2  0  0  0  0
 25 24  1  0  0  0  0
 25 22  1  0  0  0  0
 26 29  1  0  0  0  0
 26 30  1  0  0  0  0
 27 28  1  0  0  0  0
 27 30  1  0  0  0  0
 27 24  1  1  0  0  0
 29 28  1  0  0  0  0
M  END
>  <MODEL>
4

>  <REMARK>
 VINA RESULT:      -9.9      2.772      5.584
  Name = 
  5 active torsions:
  status: ('A' for Active; 'I' for Inactive)
    1  A    between atoms: C_7  and  C_13
    2  A    between atoms: C_7  and  C_24
    3  A    between atoms: C_13  and  C_17
    4  A    between atoms: C_15  and  N_16
    5  A    between atoms: C_23  and  C_29
                            x       y       z     vdW  Elec       q    Type
                         _______ _______ _______ _____ _____    ______ ____

>  <TORSDO>
F 5

$$$$
=
 OpenBabel10222417013D

 30 35  0  0  1  0  0  0  0  0999 V2000
  190.1780  176.8240  147.7200 C   0  0  0  0  0  2  0  0  0  0  0  0
  192.0550  176.4020  145.9770 C   0  0  0  0  0  3  0  0  0  0  0  0
  187.6710  177.6600  144.3880 C   0  0  0  0  0  0  0  0  0  0  0  0
  185.8370  178.1550  145.5540 C   0  0  0  0  0  3  0  0  0  0  0  0
  192.4350  176.3330  148.3030 O   0  0  0  0  0  0  0  0  0  0  0  0
  187.1710  177.7620  145.6500 C   0  0  0  0  0  0  0  0  0  0  0  0
  189.3150  177.1280  146.5270 C   0  0  0  0  0  0  0  0  0  0  0  0
  187.9720  177.4990  146.7570 C   0  0  0  0  0  3  0  0  0  0  0  0
  189.4160  177.2100  142.6440 C   0  0  1  0  0  3  0  0  0  0  0  0
  191.6070  176.5180  147.3740 C   0  0  0  0  0  0  0  0  0  0  0  0
  189.4120  178.6000  141.9990 C   0  0  0  0  0  2  0  0  0  0  0  0
  188.9740  177.3060  144.0940 C   0  0  0  0  0  0  0  0  0  0  0  0
  189.8220  177.0250  145.1910 C   0  0  0  0  0  0  0  0  0  0  0  0
  185.6280  178.2740  144.1710 C   0  0  0  0  0  0  0  0  0  0  0  0
  188.3320  177.6110  141.6200 C   0  0  2  0  0  0  0  0  0  0  0  0
  186.9980  177.9810  142.1130 N   0  0  0  0  0  2  0  0  0  0  0  0
  186.7520  177.9710  143.4920 N   0  0  0  0  0  0  0  0  0  0  0  0
  191.2250  176.6340  144.9640 C   0  0  0  0  0  3  0  0  0  0  0  0
  183.3530  179.0000  143.0380 C   0  0  0  0  0  3  0  0  0  0  0  0
  184.3910  178.6720  143.5530 C   0  0  0  0  0  0  0  0  0  0  0  0
  188.4440  177.0930  140.2000 C   0  0  0  0  0  2  0  0  0  0  0  0
  188.3960  178.2480  139.2180 C   0  0  0  0  0  2  0  0  0  0  0  0
  186.9720  177.9190  137.3390 O   0  0  0  0  0  0  0  0  0  0  0  0
  185.9280  178.7610  139.2620 N   0  0  0  0  0  2  0  0  0  0  0  0
  187.0720  178.2850  138.5420 C   0  0  0  0  0  0  0  0  0  0  0  0
  182.5410  179.8420  139.1610 C   0  0  0  0  0  2  0  0  0  0  0  0
  184.5860  178.8710  138.7010 C   0  0  1  0  0  3  0  0  0  0  0  0
  183.7020  177.7350  139.1740 C   0  0  0  0  0  2  0  0  0  0  0  0
  182.3830  178.3810  139.5270 C   0  0  0  0  0  2  0  0  0  0  0  0
  183.9650  180.1290  139.0920 N   0  0  0  0  0  2  0  0  0  0  0  0
  2 10  1  0  0  0  0
  3  6  1  0  0  0  0
  4  6  1  0  0  0  0
  6  8  2  0  0  0  0
  7  8  1  0  0  0  0
  7  1  1  0  0  0  0
  9 11  1  1  0  0  0
  9 12  1  0  0  0  0
 10  1  1  0  0  0  0
 10  5  2  0  0  0  0
 12  3  2  0  0  0  0
 12 13  1  0  0  0  0
 13  7  2  0  0  0  0
 14  4  2  0  0  0  0
 15 21  1  6  0  0  0
 15 11  1  0  0  0  0
 15 16  1  0  0  0  0
 15  9  1  0  0  0  0
 16 17  1  0  0  0  0
 17 14  1  0  0  0  0
 17  3  1  0  0  0  0
 18 13  1  0  0  0  0
 18  2  2  0  0  0  0
 19 20  3  0  0  0  0
 20 14  1  0  0  0  0
 22 21  1  0  0  0  0
 23 25  2  0  0  0  0
 25 22  1  0  0  0  0
 25 24  1  0  0  0  0
 26 29  1  0  0  0  0
 27 30  1  0  0  0  0
 27 28  1  0  0  0  0
 27 24  1  1  0  0  0
 28 29  1  0  0  0  0
 30 26  1  0  0  0  0
M  END
>  <MODEL>
5

>  <REMARK>
 VINA RESULT:      -9.8      2.871      6.022
  Name = 
  5 active torsions:
  status: ('A' for Active; 'I' for Inactive)
    1  A    between atoms: C_7  and  C_13
    2  A    between atoms: C_7  and  C_24
    3  A    between atoms: C_13  and  C_17
    4  A    between atoms: C_15  and  N_16
    5  A    between atoms: C_23  and  C_29
                            x       y       z     vdW  Elec       q    Type
                         _______ _______ _______ _____ _____    ______ ____

>  <TORSDO>
F 5

$$$$
=
 OpenBabel10222417013D

 30 35  0  0  1  0  0  0  0  0999 V2000
  189.8100  176.8830  147.3940 C   0  0  0  0  0  2  0  0  0  0  0  0
  191.8010  176.5610  145.7580 C   0  0  0  0  0  3  0  0  0  0  0  0
  187.4780  177.7100  143.9350 C   0  0  0  0  0  0  0  0  0  0  0  0
  185.5630  178.1190  144.9990 C   0  0  0  0  0  3  0  0  0  0  0  0
  192.0450  176.4530  148.1000 O   0  0  0  0  0  0  0  0  0  0  0  0
  186.9010  177.7670  145.1660 C   0  0  0  0  0  0  0  0  0  0  0  0
  189.0090  177.1850  146.1570 C   0  0  0  0  0  0  0  0  0  0  0  0
  187.6430  177.5060  146.3140 C   0  0  0  0  0  3  0  0  0  0  0  0
  189.3380  177.3560  142.2890 C   0  0  1  0  0  3  0  0  0  0  0  0
  191.2670  176.6310  147.1270 C   0  0  0  0  0  0  0  0  0  0  0  0
  189.3240  178.7590  141.6740 C   0  0  0  0  0  2  0  0  0  0  0  0
  188.8080  177.4050  143.7120 C   0  0  0  0  0  0  0  0  0  0  0  0
  189.5980  177.1280  144.8520 C   0  0  0  0  0  0  0  0  0  0  0  0
  185.4320  178.2610  143.6080 C   0  0  0  0  0  0  0  0  0  0  0  0
  188.3030  177.7450  141.2110 C   0  0  2  0  0  0  0  0  0  0  0  0
  186.9300  178.0590  141.6310 N   0  0  0  0  0  2  0  0  0  0  0  0
  186.6040  178.0100  142.9910 N   0  0  0  0  0  0  0  0  0  0  0  0
  191.0250  176.7880  144.7020 C   0  0  0  0  0  3  0  0  0  0  0  0
  183.2100  178.9470  142.3510 C   0  0  0  0  0  3  0  0  0  0  0  0
  184.2210  178.6320  142.9250 C   0  0  0  0  0  0  0  0  0  0  0  0
  188.5170  177.2620  139.7900 C   0  0  0  0  0  2  0  0  0  0  0  0
  188.7960  178.4400  138.8750 C   0  0  0  0  0  2  0  0  0  0  0  0
  187.8540  179.3710  136.8980 O   0  0  0  0  0  0  0  0  0  0  0  0
  187.0170  177.2730  137.5240 N   0  0  0  0  0  2  0  0  0  0  0  0
  187.8790  178.4030  137.7050 C   0  0  0  0  0  0  0  0  0  0  0  0
  184.0220  176.1390  135.9750 C   0  0  0  0  0  2  0  0  0  0  0  0
  186.0560  177.1340  136.4350 C   0  0  1  0  0  3  0  0  0  0  0  0
  186.3840  175.9360  135.5670 C   0  0  0  0  0  2  0  0  0  0  0  0
  185.0590  175.2560  135.3140 C   0  0  0  0  0  2  0  0  0  0  0  0
  184.7070  176.9670  136.9560 N   0  0  0  0  0  2  0  0  0  0  0  0
  2 10  1  0  0  0  0
  3  6  1  0  0  0  0
  4  6  1  0  0  0  0
  6  8  2  0  0  0  0
  7  8  1  0  0  0  0
  7  1  1  0  0  0  0
  9 11  1  1  0  0  0
  9 12  1  0  0  0  0
 10  1  1  0  0  0  0
 10  5  2  0  0  0  0
 12  3  2  0  0  0  0
 12 13  1  0  0  0  0
 13  7  2  0  0  0  0
 14  4  2  0  0  0  0
 15 21  1  6  0  0  0
 15 16  1  0  0  0  0
 15 11  1  0  0  0  0
 15  9  1  0  0  0  0
 16 17  1  0  0  0  0
 17 14  1  0  0  0  0
 17  3  1  0  0  0  0
 18 13  1  0  0  0  0
 18  2  2  0  0  0  0
 19 20  3  0  0  0  0
 20 14  1  0  0  0  0
 22 21  1  0  0  0  0
 23 25  2  0  0  0  0
 24 25  1  0  0  0  0
 25 22  1  0  0  0  0
 26 30  1  0  0  0  0
 27 30  1  0  0  0  0
 27 24  1  1  0  0  0
 28 27  1  0  0  0  0
 29 28  1  0  0  0  0
 29 26  1  0  0  0  0
M  END
>  <MODEL>
6

>  <REMARK>
 VINA RESULT:      -9.2      2.976      5.731
  Name = 
  5 active torsions:
  status: ('A' for Active; 'I' for Inactive)
    1  A    between atoms: C_7  and  C_13
    2  A    between atoms: C_7  and  C_24
    3  A    between atoms: C_13  and  C_17
    4  A    between atoms: C_15  and  N_16
    5  A    between atoms: C_23  and  C_29
                            x       y       z     vdW  Elec       q    Type
                         _______ _______ _______ _____ _____    ______ ____

>  <TORSDO>
F 5

$$$$
=
 OpenBabel10222417013D

 30 35  0  0  1  0  0  0  0  0999 V2000
  192.0420  176.3350  145.7840 C   0  0  0  0  0  2  0  0  0  0  0  0
  190.3850  176.8360  147.7190 C   0  0  0  0  0  3  0  0  0  0  0  0
  188.9090  177.5440  143.1740 C   0  0  0  0  0  0  0  0  0  0  0  0
  190.0010  177.1820  141.2650 C   0  0  0  0  0  3  0  0  0  0  0  0
  192.5270  175.9200  148.0790 O   0  0  0  0  0  0  0  0  0  0  0  0
  190.0940  177.1210  142.6540 C   0  0  0  0  0  0  0  0  0  0  0  0
  190.9140  176.7540  144.8810 C   0  0  0  0  0  0  0  0  0  0  0  0
  191.1330  176.7150  143.4860 C   0  0  0  0  0  3  0  0  0  0  0  0
  187.2740  178.1060  144.9910 C   0  0  1  0  0  3  0  0  0  0  0  0
  191.6840  176.3360  147.2430 C   0  0  0  0  0  0  0  0  0  0  0  0
  186.1770  177.1200  144.5790 C   0  0  0  0  0  2  0  0  0  0  0  0
  188.6300  177.6030  144.5270 C   0  0  0  0  0  0  0  0  0  0  0  0
  189.6610  177.2030  145.4090 C   0  0  0  0  0  0  0  0  0  0  0  0
  188.6970  177.6530  141.0430 C   0  0  0  0  0  0  0  0  0  0  0  0
  186.2920  178.4380  143.8470 C   0  0  2  0  0  0  0  0  0  0  0  0
  186.7540  178.3000  142.4580 N   0  0  0  0  0  2  0  0  0  0  0  0
  188.0610  177.8610  142.2130 N   0  0  0  0  0  0  0  0  0  0  0  0
  189.4470  177.2420  146.8670 C   0  0  0  0  0  3  0  0  0  0  0  0
  187.6160  178.0720  138.6670 C   0  0  0  0  0  3  0  0  0  0  0  0
  188.1080  177.8780  139.7500 C   0  0  0  0  0  0  0  0  0  0  0  0
  185.1500  179.3960  144.1220 C   0  0  0  0  0  2  0  0  0  0  0  0
  183.8520  178.6280  144.2860 C   0  0  0  0  0  2  0  0  0  0  0  0
  181.7840  179.2700  143.2980 O   0  0  0  0  0  0  0  0  0  0  0  0
  183.4640  178.6270  141.7950 N   0  0  0  0  0  2  0  0  0  0  0  0
  182.9670  178.8720  143.1160 C   0  0  0  0  0  0  0  0  0  0  0  0
  181.9570  177.5940  138.7430 C   0  0  0  0  0  2  0  0  0  0  0  0
  182.6840  178.8010  140.5740 C   0  0  1  0  0  3  0  0  0  0  0  0
  183.5630  179.2500  139.4240 C   0  0  0  0  0  2  0  0  0  0  0  0
  183.1230  178.4190  138.2420 C   0  0  0  0  0  2  0  0  0  0  0  0
  182.0360  177.5520  140.1950 N   0  0  0  0  0  2  0  0  0  0  0  0
  1 10  1  0  0  0  0
  3 12  1  0  0  0  0
  4  6  1  0  0  0  0
  6  3  2  0  0  0  0
  6  8  1  0  0  0  0
  7 13  1  0  0  0  0
  7  1  1  0  0  0  0
  8  7  2  0  0  0  0
  9 11  1  1  0  0  0
 10  2  1  0  0  0  0
 10  5  2  0  0  0  0
 12  9  1  0  0  0  0
 12 13  2  0  0  0  0
 13 18  1  0  0  0  0
 14  4  2  0  0  0  0
 14 17  1  0  0  0  0
 15 21  1  1  0  0  0
 15 11  1  0  0  0  0
 15  9  1  0  0  0  0
 16 15  1  0  0  0  0
 17 16  1  0  0  0  0
 17  3  1  0  0  0  0
 18  2  2  0  0  0  0
 19 20  3  0  0  0  0
 20 14  1  0  0  0  0
 21 22  1  0  0  0  0
 24 25  1  0  0  0  0
 25 23  2  0  0  0  0
 25 22  1  0  0  0  0
 26 30  1  0  0  0  0
 27 24  1  1  0  0  0
 28 27  1  0  0  0  0
 29 26  1  0  0  0  0
 29 28  1  0  0  0  0
 30 27  1  0  0  0  0
M  END
>  <MODEL>
7

>  <REMARK>
 VINA RESULT:      -9.1      2.953      7.352
  Name = 
  5 active torsions:
  status: ('A' for Active; 'I' for Inactive)
    1  A    between atoms: C_7  and  C_13
    2  A    between atoms: C_7  and  C_24
    3  A    between atoms: C_13  and  C_17
    4  A    between atoms: C_15  and  N_16
    5  A    between atoms: C_23  and  C_29
                            x       y       z     vdW  Elec       q    Type
                         _______ _______ _______ _____ _____    ______ ____

>  <TORSDO>
F 5

$$$$
=
 OpenBabel10222417013D

 30 35  0  0  1  0  0  0  0  0999 V2000
  186.6690  178.2430  147.4880 C   0  0  0  0  0  2  0  0  0  0  0  0
  189.0740  177.2670  147.4110 C   0  0  0  0  0  3  0  0  0  0  0  0
  186.8120  178.1630  143.2380 C   0  0  0  0  0  0  0  0  0  0  0  0
  184.7930  179.0400  142.8880 C   0  0  0  0  0  3  0  0  0  0  0  0
  188.0030  177.8630  149.4240 O   0  0  0  0  0  0  0  0  0  0  0  0
  185.7050  178.6440  143.8650 C   0  0  0  0  0  0  0  0  0  0  0  0
  186.7490  178.2170  145.9860 C   0  0  0  0  0  0  0  0  0  0  0  0
  185.6350  178.6860  145.2550 C   0  0  0  0  0  3  0  0  0  0  0  0
  189.1080  177.1650  143.0840 C   0  0  1  0  0  3  0  0  0  0  0  0
  187.9320  177.7990  148.1700 C   0  0  0  0  0  0  0  0  0  0  0  0
  189.7660  178.3070  142.3030 C   0  0  0  0  0  2  0  0  0  0  0  0
  187.9350  177.6930  143.8920 C   0  0  0  0  0  0  0  0  0  0  0  0
  187.9040  177.7130  145.3060 C   0  0  0  0  0  0  0  0  0  0  0  0
  185.4590  178.7590  141.6840 C   0  0  0  0  0  0  0  0  0  0  0  0
  188.9350  177.2890  141.5550 C   0  0  2  0  0  0  0  0  0  0  0  0
  187.6750  177.8330  141.0290 N   0  0  0  0  0  2  0  0  0  0  0  0
  186.6760  178.2320  141.9260 N   0  0  0  0  0  0  0  0  0  0  0  0
  189.0590  177.2230  146.0810 C   0  0  0  0  0  3  0  0  0  0  0  0
  184.4830  179.2140  139.2700 C   0  0  0  0  0  3  0  0  0  0  0  0
  184.9290  179.0040  140.3700 C   0  0  0  0  0  0  0  0  0  0  0  0
  189.7440  176.3780  140.6540 C   0  0  0  0  0  2  0  0  0  0  0  0
  190.7070  177.1950  139.8130 C   0  0  0  0  0  2  0  0  0  0  0  0
  190.7020  175.2770  138.4050 O   0  0  0  0  0  0  0  0  0  0  0  0
  192.4850  176.7630  138.0790 N   0  0  0  0  0  2  0  0  0  0  0  0
  191.2750  176.3520  138.7280 C   0  0  0  0  0  0  0  0  0  0  0  0
  194.4200  176.3530  135.1240 C   0  0  0  0  0  2  0  0  0  0  0  0
  193.1530  176.0080  137.0250 C   0  0  1  0  0  3  0  0  0  0  0  0
  192.2150  175.7430  135.8650 C   0  0  0  0  0  2  0  0  0  0  0  0
  193.0300  176.0230  134.6240 C   0  0  0  0  0  2  0  0  0  0  0  0
  194.3080  176.7390  136.5210 N   0  0  0  0  0  2  0  0  0  0  0  0
  1 10  1  0  0  0  0
  2 10  1  0  0  0  0
  3  6  2  0  0  0  0
  3 12  1  0  0  0  0
  4  6  1  0  0  0  0
  6  8  1  0  0  0  0
  7  1  1  0  0  0  0
  8  7  2  0  0  0  0
  9 11  1  1  0  0  0
  9 12  1  0  0  0  0
 10  5  2  0  0  0  0
 12 13  2  0  0  0  0
 13  7  1  0  0  0  0
 13 18  1  0  0  0  0
 14 17  1  0  0  0  0
 14  4  2  0  0  0  0
 15 21  1  6  0  0  0
 15 11  1  0  0  0  0
 15  9  1  0  0  0  0
 16 15  1  0  0  0  0
 16 17  1  0  0  0  0
 17  3  1  0  0  0  0
 18  2  2  0  0  0  0
 19 20  3  0  0  0  0
 20 14  1  0  0  0  0
 22 21  1  0  0  0  0
 23 25  2  0  0  0  0
 24 25  1  0  0  0  0
 25 22  1  0  0  0  0
 26 30  1  0  0  0  0
 27 24  1  1  0  0  0
 28 27  1  0  0  0  0
 29 26  1  0  0  0  0
 29 28  1  0  0  0  0
 30 27  1  0  0  0  0
M  END
>  <MODEL>
8

>  <REMARK>
 VINA RESULT:      -8.8      3.072      5.307
  Name = 
  5 active torsions:
  status: ('A' for Active; 'I' for Inactive)
    1  A    between atoms: C_7  and  C_13
    2  A    between atoms: C_7  and  C_24
    3  A    between atoms: C_13  and  C_17
    4  A    between atoms: C_15  and  N_16
    5  A    between atoms: C_23  and  C_29
                            x       y       z     vdW  Elec       q    Type
                         _______ _______ _______ _____ _____    ______ ____

>  <TORSDO>
F 5

$$$$
=
 OpenBabel10222417013D

 30 35  0  0  1  0  0  0  0  0999 V2000
  191.8460  176.5610  145.7160 C   0  0  0  0  0  2  0  0  0  0  0  0
  189.7290  177.1370  147.1060 C   0  0  0  0  0  3  0  0  0  0  0  0
  189.5240  177.5730  142.2990 C   0  0  0  0  0  0  0  0  0  0  0  0
  191.0870  177.1270  140.7750 C   0  0  0  0  0  3  0  0  0  0  0  0
  191.6980  176.2790  148.0770 O   0  0  0  0  0  0  0  0  0  0  0  0
  190.8050  177.1430  142.1400 C   0  0  0  0  0  0  0  0  0  0  0  0
  191.0000  176.9110  144.5220 C   0  0  0  0  0  0  0  0  0  0  0  0
  191.5840  176.8010  143.2410 C   0  0  0  0  0  3  0  0  0  0  0  0
  187.4600  178.2040  143.5790 C   0  0  1  0  0  3  0  0  0  0  0  0
  191.1100  176.6340  147.0240 C   0  0  0  0  0  0  0  0  0  0  0  0
  186.5150  177.1790  142.9450 C   0  0  0  0  0  2  0  0  0  0  0  0
  188.8920  177.7000  143.5230 C   0  0  0  0  0  0  0  0  0  0  0  0
  189.6500  177.3670  144.6690 C   0  0  0  0  0  0  0  0  0  0  0  0
  189.8890  177.5630  140.1870 C   0  0  0  0  0  0  0  0  0  0  0  0
  186.8200  178.4570  142.1960 C   0  0  2  0  0  0  0  0  0  0  0  0
  187.6370  178.2520  140.9920 N   0  0  0  0  0  2  0  0  0  0  0  0
  188.9630  177.8230  141.1300 N   0  0  0  0  0  0  0  0  0  0  0  0
  189.0530  177.4800  146.0130 C   0  0  0  0  0  3  0  0  0  0  0  0
  189.4870  177.8330  137.5880 C   0  0  0  0  0  3  0  0  0  0  0  0
  189.6680  177.7080  138.7730 C   0  0  0  0  0  0  0  0  0  0  0  0
  185.6440  179.4090  142.1020 C   0  0  0  0  0  2  0  0  0  0  0  0
  184.4630  178.7150  141.4490 C   0  0  0  0  0  2  0  0  0  0  0  0
  184.5560  180.0690  139.4930 O   0  0  0  0  0  0  0  0  0  0  0  0
  184.4960  177.7560  139.1180 N   0  0  0  0  0  2  0  0  0  0  0  0
  184.5150  178.9040  139.9740 C   0  0  0  0  0  0  0  0  0  0  0  0
  184.5500  176.4070  135.8270 C   0  0  0  0  0  2  0  0  0  0  0  0
  184.5140  177.8130  137.6600 C   0  0  1  0  0  3  0  0  0  0  0  0
  185.9330  177.8780  137.1340 C   0  0  0  0  0  2  0  0  0  0  0  0
  185.9690  176.9170  135.9700 C   0  0  0  0  0  2  0  0  0  0  0  0
  183.8680  176.6380  137.0900 N   0  0  0  0  0  2  0  0  0  0  0  0
  1 10  1  0  0  0  0
  3 12  1  0  0  0  0
  4  6  1  0  0  0  0
  6  3  2  0  0  0  0
  6  8  1  0  0  0  0
  7 13  1  0  0  0  0
  7  1  1  0  0  0  0
  8  7  2  0  0  0  0
  9 11  1  6  0  0  0
 10  2  1  0  0  0  0
 10  5  2  0  0  0  0
 12  9  1  0  0  0  0
 12 13  2  0  0  0  0
 13 18  1  0  0  0  0
 14  4  2  0  0  0  0
 14 17  1  0  0  0  0
 15 21  1  6  0  0  0
 15 11  1  0  0  0  0
 15  9  1  0  0  0  0
 16 17  1  0  0  0  0
 16 15  1  0  0  0  0
 17  3  1  0  0  0  0
 18  2  2  0  0  0  0
 19 20  3  0  0  0  0
 20 14  1  0  0  0  0
 22 21  1  0  0  0  0
 23 25  2  0  0  0  0
 24 25  1  0  0  0  0
 25 22  1  0  0  0  0
 26 29  1  0  0  0  0
 26 30  1  0  0  0  0
 27 24  1  1  0  0  0
 28 27  1  0  0  0  0
 29 28  1  0  0  0  0
 30 27  1  0  0  0  0
M  END
>  <MODEL>
9

>  <REMARK>
 VINA RESULT:      -8.8      2.813      6.905
  Name = 
  5 active torsions:
  status: ('A' for Active; 'I' for Inactive)
    1  A    between atoms: C_7  and  C_13
    2  A    between atoms: C_7  and  C_24
    3  A    between atoms: C_13  and  C_17
    4  A    between atoms: C_15  and  N_16
    5  A    between atoms: C_23  and  C_29
                            x       y       z     vdW  Elec       q    Type
                         _______ _______ _______ _____ _____    ______ ____

>  <TORSDO>
F 5

$$$$
