=
 OpenBabel10222420253D

 47 52  0  0  1  0  0  0  0  0999 V2000
  189.6420  176.3900  142.7000 C   0  0  0  0  0  2  0  0  0  0  0  0
  190.1250  177.7780  143.1380 C   0  0  1  0  0  3  0  0  0  0  0  0
  186.6950  174.7110  136.1180 S   0  0  0  0  0  0  0  0  0  0  0  0
  187.4300  173.5950  135.0290 N   0  0  0  0  0  0  0  0  0  0  0  0
  192.1270  175.2140  136.2920 N   0  0  0  0  0  0  0  0  0  0  0  0
  187.7400  177.2400  136.5060 C   0  0  0  0  0  2  0  0  0  0  0  0
  188.6470  173.6510  134.5990 C   0  0  0  0  0  3  0  0  0  0  0  0
  189.8180  174.8050  136.3480 O   0  0  0  0  0  0  0  0  0  0  0  0
  193.4060  175.5950  136.9120 C   0  0  1  0  0  3  0  0  0  0  0  0
  189.4240  176.4750  140.2090 C   0  0  2  0  0  3  0  0  0  0  0  0
  190.9240  175.8960  138.2660 C   0  0  0  0  0  0  0  0  0  0  0  0
  187.2960  174.5400  137.4860 O   0  0  0  0  0  0  0  0  0  0  0  0
  186.8840  176.4050  135.5370 C   0  0  2  0  0  3  0  0  0  0  0  0
  184.8800  177.6080  136.3440 C   0  0  0  0  0  3  0  0  0  0  0  0
  189.6370  174.7220  134.9440 C   0  0  0  0  0  2  0  0  0  0  0  0
  185.4510  177.5620  137.7350 C   0  0  0  0  0  2  0  0  0  0  0  0
  186.9440  177.7480  137.6990 C   0  0  0  0  0  0  0  0  0  0  0  0
  189.5620  178.0020  140.0580 C   0  0  2  0  0  3  0  0  0  0  0  0
  190.2490  175.9410  141.3760 C   0  0  0  0  0  2  0  0  0  0  0  0
  189.0140  178.6600  141.1660 O   0  0  0  0  0  0  0  0  0  0  0  0
  193.1870  176.7930  137.8540 C   0  0  0  0  0  2  0  0  0  0  0  0
  190.0950  178.8470  142.0360 C   0  0  0  0  0  2  0  0  0  0  0  0
  191.9830  176.5730  138.7280 C   0  0  0  0  0  3  0  0  0  0  0  0
  189.7350  175.7740  139.0020 O   0  0  0  0  0  0  0  0  0  0  0  0
  190.9890  175.2900  136.9250 C   0  0  0  0  0  0  0  0  0  0  0  0
  187.5250  178.2920  138.7140 N   0  0  0  0  0  0  0  0  0  0  0  0
  185.5460  177.0640  135.3150 C   0  0  0  0  0  3  0  0  0  0  0  0
  185.2330  174.3730  136.2040 O   0  0  0  0  0  0  0  0  0  0  0  0
  188.9490  178.5290  138.7610 C   0  0  0  0  0  2  0  0  0  0  0  0
  196.0500  173.6340  138.7350 C   0  0  0  0  0  2  0  0  0  0  0  0
  195.3000  174.8490  138.1620 C   0  0  0  0  0  2  0  0  0  0  0  0
  193.9820  174.4560  137.6410 N   0  0  0  0  0  0  0  0  0  0  0  0
  194.1780  173.3400  136.7040 C   0  0  0  0  0  2  0  0  0  0  0  0
  194.9590  172.1950  137.3700 C   0  0  0  0  0  2  0  0  0  0  0  0
  195.2320  172.4860  138.7210 O   0  0  0  0  0  0  0  0  0  0  0  0
  189.8340  179.1150  145.1070 O   0  0  0  0  0  0  0  0  0  0  0  0
  186.8540  177.5140  145.4400 C   0  0  2  0  0  0  0  0  0  0  0  0
  189.3700  178.2200  144.3480 C   0  0  0  0  0  0  0  0  0  0  0  0
  188.0910  177.6590  144.6220 N   0  0  0  0  0  0  0  0  0  0  0  0
  186.9460  176.7540  144.2910 C   0  0  0  0  0  2  0  0  0  0  0  0
  186.0130  178.7590  145.3960 C   0  0  0  0  0  0  0  0  0  0  0  0
  185.3040  179.1420  144.1380 C   0  0  0  0  0  1  0  0  0  0  0  0
  185.9330  179.4810  146.3770 O   0  0  0  0  0  0  0  0  0  0  0  0
  187.1480  176.8330  146.7780 C   0  0  0  0  0  2  0  0  0  0  0  0
  187.8740  177.7660  148.8820 O   0  0  0  0  0  1  0  0  0  0  0  0
  189.5360  176.6360  147.5850 C   0  0  0  0  0  1  0  0  0  0  0  0
  188.2790  177.4870  147.5760 C   0  0  1  0  0  3  0  0  0  0  0  0
  1  2  1  0  0  0  0
  2 38  1  1  0  0  0
  3 28  2  0  0  0  0
  3 12  2  0  0  0  0
  4  3  1  0  0  0  0
  5  9  1  0  0  0  0
  5 25  2  0  0  0  0
  6 17  1  0  0  0  0
  7 15  1  0  0  0  0
  7  4  2  0  0  0  0
  8 25  1  0  0  0  0
  9 32  1  1  0  0  0
  9 21  1  0  0  0  0
 10 19  1  1  0  0  0
 11 23  2  0  0  0  0
 11 24  1  0  0  0  0
 13 27  1  1  0  0  0
 13  3  1  0  0  0  0
 13  6  1  0  0  0  0
 14 16  1  0  0  0  0
 15  8  1  0  0  0  0
 17 16  1  0  0  0  0
 17 26  2  0  0  0  0
 18 29  1  6  0  0  0
 18 10  1  0  0  0  0
 18 20  1  0  0  0  0
 19  1  1  0  0  0  0
 20 22  1  0  0  0  0
 21 23  1  0  0  0  0
 22  2  1  0  0  0  0
 24 10  1  0  0  0  0
 25 11  1  0  0  0  0
 26 29  1  0  0  0  0
 27 14  2  0  0  0  0
 31 30  1  0  0  0  0
 32 31  1  0  0  0  0
 33 34  1  0  0  0  0
 33 32  1  0  0  0  0
 34 35  1  0  0  0  0
 35 30  1  0  0  0  0
 37 44  1  1  0  0  0
 38 39  1  0  0  0  0
 38 36  2  0  0  0  0
 39 37  1  0  0  0  0
 40 39  1  0  0  0  0
 40 37  1  0  0  0  0
 41 37  1  0  0  0  0
 41 43  2  0  0  0  0
 42 41  1  0  0  0  0
 44 47  1  0  0  0  0
 47 46  1  1  0  0  0
 47 45  1  0  0  0  0
M  END
>  <MODEL>
1

>  <REMARK>
 VINA RESULT:      -7.3      0.000      0.000
  Name = 
  5 active torsions:
  status: ('A' for Active; 'I' for Inactive)
    1  A    between atoms: C_4  and  C_18
    2  A    between atoms: C_5  and  C_11
    3  A    between atoms: C_11  and  C_36
    4  A    between atoms: C_16  and  N_29
    5  A    between atoms: C_36  and  C_47
                            x       y       z     vdW  Elec       q    Type
                         _______ _______ _______ _____ _____    ______ ____

>  <TORSDO>
F 5

$$$$
=
 OpenBabel10222420253D

 47 52  0  0  1  0  0  0  0  0999 V2000
  189.3240  176.5500  142.1310 C   0  0  0  0  0  2  0  0  0  0  0  0
  189.8530  177.9560  142.4350 C   0  0  1  0  0  3  0  0  0  0  0  0
  184.6960  174.7700  136.6310 S   0  0  0  0  0  0  0  0  0  0  0  0
  185.1360  173.6910  135.3600 N   0  0  0  0  0  0  0  0  0  0  0  0
  189.9260  175.5110  135.2610 N   0  0  0  0  0  0  0  0  0  0  0  0
  185.7030  177.3410  136.7480 C   0  0  0  0  0  2  0  0  0  0  0  0
  186.1760  173.8030  134.6030 C   0  0  0  0  0  3  0  0  0  0  0  0
  187.7480  175.0000  135.9650 O   0  0  0  0  0  0  0  0  0  0  0  0
  191.3120  175.9450  135.4980 C   0  0  1  0  0  3  0  0  0  0  0  0
  188.4020  176.6360  139.8050 C   0  0  2  0  0  3  0  0  0  0  0  0
  189.3090  176.1310  137.5070 C   0  0  0  0  0  0  0  0  0  0  0  0
  185.6680  174.6200  137.7690 O   0  0  0  0  0  0  0  0  0  0  0  0
  184.6410  176.4730  136.0480 C   0  0  2  0  0  3  0  0  0  0  0  0
  182.9020  177.5830  137.4110 C   0  0  0  0  0  3  0  0  0  0  0  0
  187.1780  174.9150  134.6690 C   0  0  0  0  0  2  0  0  0  0  0  0
  183.8480  177.5560  138.5810 C   0  0  0  0  0  2  0  0  0  0  0  0
  185.2600  177.8080  138.1260 C   0  0  0  0  0  0  0  0  0  0  0  0
  188.4280  178.1680  139.6470 C   0  0  2  0  0  3  0  0  0  0  0  0
  189.5470  176.1340  140.6810 C   0  0  0  0  0  2  0  0  0  0  0  0
  188.1920  178.7960  140.8750 O   0  0  0  0  0  0  0  0  0  0  0  0
  191.3220  177.1290  136.4840 C   0  0  0  0  0  2  0  0  0  0  0  0
  189.4680  179.0270  141.4050 C   0  0  0  0  0  2  0  0  0  0  0  0
  190.4270  176.8520  137.6600 C   0  0  0  0  0  3  0  0  0  0  0  0
  188.3850  175.9540  138.5480 O   0  0  0  0  0  0  0  0  0  0  0  0
  189.0140  175.5340  136.1930 C   0  0  0  0  0  0  0  0  0  0  0  0
  186.0820  178.3730  138.9420 N   0  0  0  0  0  0  0  0  0  0  0  0
  183.2700  177.0730  136.2270 C   0  0  0  0  0  3  0  0  0  0  0  0
  183.3340  174.3670  137.1240 O   0  0  0  0  0  0  0  0  0  0  0  0
  187.4500  178.6720  138.5870 C   0  0  0  0  0  2  0  0  0  0  0  0
  194.4310  173.9460  136.1610 C   0  0  0  0  0  2  0  0  0  0  0  0
  193.5420  175.1640  135.8520 C   0  0  0  0  0  2  0  0  0  0  0  0
  192.1190  174.8300  136.0150 N   0  0  0  0  0  0  0  0  0  0  0  0
  191.8390  173.6290  135.2140 C   0  0  0  0  0  2  0  0  0  0  0  0
  192.8000  172.4860  135.5840 C   0  0  0  0  0  2  0  0  0  0  0  0
  193.6580  172.8670  136.6350 O   0  0  0  0  0  0  0  0  0  0  0  0
  190.0560  179.2980  144.4120 O   0  0  0  0  0  0  0  0  0  0  0  0
  187.4340  177.4870  145.5970 C   0  0  2  0  0  0  0  0  0  0  0  0
  189.4580  178.3600  143.8180 C   0  0  0  0  0  0  0  0  0  0  0  0
  188.3620  177.7100  144.4510 N   0  0  0  0  0  0  0  0  0  0  0  0
  187.2410  176.7180  144.4660 C   0  0  0  0  0  2  0  0  0  0  0  0
  186.5270  178.6650  145.8110 C   0  0  0  0  0  0  0  0  0  0  0  0
  186.0340  178.9950  147.1810 C   0  0  0  0  0  1  0  0  0  0  0  0
  186.1590  179.3380  144.8590 O   0  0  0  0  0  0  0  0  0  0  0  0
  188.1590  176.8500  146.7830 C   0  0  0  0  0  2  0  0  0  0  0  0
  189.0820  178.1860  148.5700 O   0  0  0  0  0  1  0  0  0  0  0  0
  190.6300  176.8550  147.3220 C   0  0  0  0  0  1  0  0  0  0  0  0
  189.3460  177.6660  147.3010 C   0  0  1  0  0  3  0  0  0  0  0  0
  1  2  1  0  0  0  0
  2 38  1  1  0  0  0
  3 28  2  0  0  0  0
  3 12  2  0  0  0  0
  4  3  1  0  0  0  0
  5  9  1  0  0  0  0
  5 25  2  0  0  0  0
  6 17  1  0  0  0  0
  7 15  1  0  0  0  0
  7  4  2  0  0  0  0
  8 25  1  0  0  0  0
  9 32  1  1  0  0  0
  9 21  1  0  0  0  0
 10 19  1  6  0  0  0
 11 23  2  0  0  0  0
 11 24  1  0  0  0  0
 13 27  1  1  0  0  0
 13  3  1  0  0  0  0
 13  6  1  0  0  0  0
 14 16  1  0  0  0  0
 15  8  1  0  0  0  0
 17 16  1  0  0  0  0
 17 26  2  0  0  0  0
 18 29  1  6  0  0  0
 18 10  1  0  0  0  0
 18 20  1  0  0  0  0
 19  1  1  0  0  0  0
 20 22  1  0  0  0  0
 21 23  1  0  0  0  0
 22  2  1  0  0  0  0
 24 10  1  0  0  0  0
 25 11  1  0  0  0  0
 27 14  2  0  0  0  0
 29 26  1  0  0  0  0
 30 35  1  0  0  0  0
 31 32  1  0  0  0  0
 31 30  1  0  0  0  0
 33 34  1  0  0  0  0
 33 32  1  0  0  0  0
 34 35  1  0  0  0  0
 37 41  1  0  0  0  0
 37 44  1  1  0  0  0
 38 36  2  0  0  0  0
 38 39  1  0  0  0  0
 39 40  1  0  0  0  0
 39 37  1  0  0  0  0
 40 37  1  0  0  0  0
 41 42  1  0  0  0  0
 43 41  2  0  0  0  0
 44 47  1  0  0  0  0
 47 46  1  1  0  0  0
 47 45  1  0  0  0  0
M  END
>  <MODEL>
2

>  <REMARK>
 VINA RESULT:      -4.9      1.537      1.896
  Name = 
  5 active torsions:
  status: ('A' for Active; 'I' for Inactive)
    1  A    between atoms: C_4  and  C_18
    2  A    between atoms: C_5  and  C_11
    3  A    between atoms: C_11  and  C_36
    4  A    between atoms: C_16  and  N_29
    5  A    between atoms: C_36  and  C_47
                            x       y       z     vdW  Elec       q    Type
                         _______ _______ _______ _____ _____    ______ ____

>  <TORSDO>
F 5

$$$$
