=
 OpenBabel10222419493D

 50 54  0  0  1  0  0  0  0  0999 V2000
  190.0490  177.7350  144.3110 C   0  0  0  0  0  0  0  0  0  0  0  0
  188.8080  177.0770  146.0110 N   0  0  0  0  0  0  0  0  0  0  0  0
  190.0750  177.1860  145.5740 C   0  0  0  0  0  0  0  0  0  0  0  0
  188.0520  177.5570  145.0340 N   0  0  0  0  0  0  0  0  0  0  0  0
  188.7630  177.9520  143.9830 N   0  0  0  0  0  0  0  0  0  0  0  0
  192.1670  176.4530  146.9240 N   0  0  0  0  0  0  0  0  0  0  0  0
  191.2330  176.7780  146.3220 C   0  0  0  0  0  0  0  0  0  0  0  0
  186.5920  177.5450  145.0860 C   0  0  1  0  0  3  0  0  0  0  0  0
  185.7130  179.0500  146.8800 C   0  0  0  0  0  1  0  0  0  0  0  0
  186.0620  177.6200  146.5140 C   0  0  0  0  0  2  0  0  0  0  0  0
  186.0050  178.6230  144.1760 C   0  0  0  0  0  2  0  0  0  0  0  0
  185.7580  178.1310  142.7590 C   0  0  0  0  0  2  0  0  0  0  0  0
  182.9290  178.7620  140.1640 N   0  0  0  0  0  0  0  0  0  0  0  0
  183.8690  178.5140  141.1500 C   0  0  0  0  0  0  0  0  0  0  0  0
  183.2280  177.4820  140.5740 N   0  0  0  0  0  0  0  0  0  0  0  0
  184.8000  179.0090  142.1070 N   0  0  0  0  0  2  0  0  0  0  0  0
  182.2190  179.6510  139.3480 N   0  0  0  0  0  2  0  0  0  0  0  0
  181.1230  178.9080  138.7420 C   0  0  0  0  0  2  0  0  0  0  0  0
  179.2080  177.9670  142.8190 N   0  0  0  0  0  2  0  0  0  0  0  0
  180.0290  180.3330  140.4740 C   0  0  0  0  0  2  0  0  0  0  0  0
  179.3930  179.8160  141.6580 N   0  0  2  0  0  0  0  0  0  0  0  0
  179.7280  180.2910  142.9710 C   0  0  0  0  0  2  0  0  0  0  0  0
  179.8240  179.1690  139.4920 C   0  0  2  0  0  3  0  0  0  0  0  0
  179.4790  177.9910  140.4190 C   0  0  0  0  0  2  0  0  0  0  0  0
  179.8590  178.5140  141.7100 N   0  0  2  0  0  0  0  0  0  0  0  0
  179.3520  179.0550  143.7990 C   0  0  0  0  0  2  0  0  0  0  0  0
  191.2040  178.0140  143.4150 C   0  0  0  0  0  2  0  0  0  0  0  0
  191.5870  176.8050  142.7080 N   0  0  0  0  0  2  0  0  0  0  0  0
  190.4660  176.4580  141.8460 C   0  0  0  0  0  2  0  0  0  0  0  0
  190.4030  177.3710  140.6230 C   0  0  1  0  0  3  0  0  0  0  0  0
  190.7800  176.6450  139.3410 C   0  0  1  0  0  3  0  0  0  0  0  0
  189.9170  177.2610  138.2670 C   0  0  0  0  0  2  0  0  0  0  0  0
  188.6400  177.6690  138.9680 C   0  0  0  0  0  2  0  0  0  0  0  0
  189.0090  177.9450  140.4150 C   0  0  0  0  0  2  0  0  0  0  0  0
  192.2500  176.8390  139.0080 C   0  0  0  0  0  2  0  0  0  0  0  0
  192.6910  175.7810  138.1160 N   0  0  0  0  0  2  0  0  0  0  0  0
  193.5050  176.4000  137.0800 C   0  0  0  0  0  2  0  0  0  0  0  0
  194.4010  175.3620  136.3990 C   0  0  1  0  0  3  0  0  0  0  0  0
  195.7240  175.8070  136.4070 O   0  0  0  0  0  0  0  0  0  0  0  0
  196.0330  176.0270  135.0640 C   0  0  0  0  0  1  0  0  0  0  0  0
  194.3150  173.9560  137.0240 C   0  0  2  0  0  3  0  0  0  0  0  0
  195.6300  173.5470  137.6710 C   0  0  0  0  0  2  0  0  0  0  0  0
  195.7070  174.0730  139.0900 C   0  0  0  0  0  1  0  0  0  0  0  0
  193.8730  172.8880  136.0310 C   0  0  0  0  0  2  0  0  0  0  0  0
  192.7700  173.3820  135.2230 N   0  0  0  0  0  2  0  0  0  0  0  0
  190.8780  171.9980  134.5940 C   0  0  0  0  0  1  0  0  0  0  0  0
  191.5550  172.7540  135.7190 C   0  0  2  0  0  3  0  0  0  0  0  0
  189.8970  173.5100  137.4260 O   0  0  0  0  0  1  0  0  0  0  0  0
  190.6260  173.7860  136.2740 C   0  0  0  0  0  0  0  0  0  0  0  0
  190.4690  174.8880  135.6850 O   0  0  0  0  0  0  0  0  0  0  0  0
  1  3  1  0  0  0  0
  3  2  2  0  0  0  0
  3  7  1  0  0  0  0
  4  8  1  0  0  0  0
  4  2  1  0  0  0  0
  5  1  2  0  0  0  0
  5  4  1  0  0  0  0
  7  6  3  0  0  0  0
  8 11  1  6  0  0  0
  8 10  1  0  0  0  0
 10  9  1  0  0  0  0
 12 11  1  0  0  0  0
 13 15  1  0  0  0  0
 13 14  1  0  0  0  0
 14 16  1  0  0  0  0
 15 14  2  0  0  0  0
 16 12  1  0  0  0  0
 17 13  1  0  0  0  0
 18 17  1  0  0  0  0
 19 26  1  0  0  0  0
 21 20  1  6  0  0  0
 21 25  1  0  0  0  0
 21 22  1  0  0  0  0
 22 26  1  0  0  0  0
 23 18  1  1  0  0  0
 23 24  1  0  0  0  0
 23 20  1  0  0  0  0
 25 24  1  6  0  0  0
 25 19  1  0  0  0  0
 27  1  1  0  0  0  0
 28 27  1  0  0  0  0
 29 28  1  0  0  0  0
 30 29  1  1  0  0  0
 31 35  1  6  0  0  0
 31 30  1  0  0  0  0
 32 33  1  0  0  0  0
 32 31  1  0  0  0  0
 33 34  1  0  0  0  0
 34 30  1  0  0  0  0
 36 35  1  0  0  0  0
 37 36  1  0  0  0  0
 38 39  1  0  0  0  0
 38 41  1  0  0  0  0
 38 37  1  1  0  0  0
 40 39  1  0  0  0  0
 41 44  1  6  0  0  0
 41 42  1  0  0  0  0
 42 43  1  0  0  0  0
 45 47  1  0  0  0  0
 45 44  1  0  0  0  0
 47 46  1  6  0  0  0
 47 49  1  0  0  0  0
 49 48  1  0  0  0  0
 50 49  2  0  0  0  0
M  END
>  <MODEL>
1

>  <REMARK>
 VINA RESULT:      -6.5      0.000      0.000
  Name = 
  24 active torsions:
  status: ('A' for Active; 'I' for Inactive)
    1  A    between atoms: O_2  and  C_16
    2  A    between atoms: N_5  and  CA_17
    3  A    between atoms: N_5  and  C_46
    4  A    between atoms: N_6  and  C_23
    5  A    between atoms: N_6  and  C_31
    6  A    between atoms: N_7  and  N_45
    7  A    between atoms: C_9  and  C_49
    8  A    between atoms: C_14  and  CA_17
    9  A    between atoms: C_16  and  C_23
   10  A    between atoms: C_16  and  C_47
   11  A    between atoms: C_19  and  C_22
   12  A    between atoms: N_20  and  C_22
   13  A    between atoms: N_20  and  C_49
   14  A    between atoms: C_24  and  C_47
   15  A    between atoms: C_25  and  C_34
   16  A    between atoms: C_25  and  N_41
   17  A    between atoms: C_28  and  C_32
   18  A    between atoms: C_29  and  C_38
   19  A    between atoms: C_30  and  C_31
   20  A    between atoms: C_32  and  N_45
   21  A    between atoms: C_33  and  C_35
   22  A    between atoms: C_34  and  C_35
   23  A    between atoms: C_35  and  N_48
   24  A    between atoms: C_46  and  C_47
                            x       y       z     vdW  Elec       q    Type
                         _______ _______ _______ _____ _____    ______ ____

>  <TORSDO>
F 24

$$$$
=
 OpenBabel10222419493D

 50 54  0  0  1  0  0  0  0  0999 V2000
  189.3220  176.7030  142.1810 C   0  0  0  0  0  0  0  0  0  0  0  0
  191.2190  177.3930  141.2920 N   0  0  0  0  0  0  0  0  0  0  0  0
  190.6310  177.0440  142.4490 C   0  0  0  0  0  0  0  0  0  0  0  0
  190.2850  177.2550  140.3610 N   0  0  0  0  0  0  0  0  0  0  0  0
  189.1200  176.8540  140.8610 N   0  0  0  0  0  0  0  0  0  0  0  0
  191.8080  177.0510  144.7610 N   0  0  0  0  0  0  0  0  0  0  0  0
  191.2850  177.0470  143.7290 C   0  0  0  0  0  0  0  0  0  0  0  0
  190.5030  177.6140  138.9620 C   0  0  1  0  0  3  0  0  0  0  0  0
  192.5400  176.4710  138.0640 C   0  0  0  0  0  1  0  0  0  0  0  0
  191.0250  176.4410  138.1380 C   0  0  0  0  0  2  0  0  0  0  0  0
  189.2520  178.2520  138.3610 C   0  0  0  0  0  2  0  0  0  0  0  0
  189.2830  178.2940  136.8410 C   0  0  0  0  0  2  0  0  0  0  0  0
  186.7240  175.3890  136.4670 N   0  0  0  0  0  0  0  0  0  0  0  0
  187.5880  176.4490  136.6780 C   0  0  0  0  0  0  0  0  0  0  0  0
  187.6540  175.3740  137.4820 N   0  0  0  0  0  0  0  0  0  0  0  0
  188.0380  177.7520  136.3210 N   0  0  0  0  0  2  0  0  0  0  0  0
  185.6890  174.7800  135.7470 N   0  0  0  0  0  2  0  0  0  0  0  0
  185.8460  173.3390  135.8880 C   0  0  0  0  0  2  0  0  0  0  0  0
  181.4200  173.4200  137.1400 N   0  0  0  0  0  2  0  0  0  0  0  0
  184.2280  171.5490  136.5210 C   0  0  0  0  0  2  0  0  0  0  0  0
  182.8880  171.8020  136.9860 N   0  0  2  0  0  0  0  0  0  0  0  0
  181.7430  171.1810  136.3820 C   0  0  0  0  0  2  0  0  0  0  0  0
  184.9560  172.8130  137.0040 C   0  0  2  0  0  3  0  0  0  0  0  0
  183.8020  173.7880  137.2920 C   0  0  0  0  0  2  0  0  0  0  0  0
  182.6930  173.1290  136.6440 N   0  0  2  0  0  0  0  0  0  0  0  0
  180.6710  172.2240  136.7230 C   0  0  0  0  0  2  0  0  0  0  0  0
  188.2740  176.2830  143.1510 C   0  0  0  0  0  2  0  0  0  0  0  0
  187.6650  177.4520  143.7590 N   0  0  0  0  0  2  0  0  0  0  0  0
  186.4160  177.6850  143.0480 C   0  0  0  0  0  2  0  0  0  0  0  0
  185.5490  178.7140  143.7710 C   0  0  1  0  0  3  0  0  0  0  0  0
  184.0640  178.4300  143.6160 C   0  0  1  0  0  3  0  0  0  0  0  0
  183.4380  178.8620  144.9200 C   0  0  0  0  0  2  0  0  0  0  0  0
  184.5010  178.6250  145.9690 C   0  0  0  0  0  2  0  0  0  0  0  0
  185.8410  178.7510  145.2650 C   0  0  0  0  0  2  0  0  0  0  0  0
  183.4690  179.2190  142.4610 C   0  0  0  0  0  2  0  0  0  0  0  0
  182.7370  178.3210  141.5850 N   0  0  0  0  0  2  0  0  0  0  0  0
  183.4420  178.2900  140.3110 C   0  0  0  0  0  2  0  0  0  0  0  0
  183.3400  179.6420  139.5990 C   0  0  1  0  0  3  0  0  0  0  0  0
  184.5020  179.8730  138.8620 O   0  0  0  0  0  0  0  0  0  0  0  0
  185.1120  178.6220  138.7560 C   0  0  0  0  0  1  0  0  0  0  0  0
  182.1030  179.7780  138.6900 C   0  0  2  0  0  3  0  0  0  0  0  0
  181.2300  180.9520  139.1030 C   0  0  0  0  0  2  0  0  0  0  0  0
  180.2040  180.5140  140.1290 C   0  0  0  0  0  1  0  0  0  0  0  0
  181.2660  178.5060  138.6290 C   0  0  0  0  0  2  0  0  0  0  0  0
  180.6370  178.3820  137.3240 N   0  0  0  0  0  2  0  0  0  0  0  0
  181.0300  179.3400  135.1300 C   0  0  0  0  0  1  0  0  0  0  0  0
  181.6590  178.6530  136.3250 C   0  0  2  0  0  3  0  0  0  0  0  0
  183.6840  177.3600  135.6490 O   0  0  0  0  0  0  0  0  0  0  0  0
  182.3160  177.3800  135.8950 C   0  0  0  0  0  0  0  0  0  0  0  0
  181.6340  176.3360  135.7180 O   0  0  0  0  0  1  0  0  0  0  0  0
  1  3  1  0  0  0  0
  1 27  1  0  0  0  0
  2  3  2  0  0  0  0
  3  7  1  0  0  0  0
  4  5  1  0  0  0  0
  4  2  1  0  0  0  0
  5  1  2  0  0  0  0
  7  6  3  0  0  0  0
  8 10  1  6  0  0  0
  8  4  1  0  0  0  0
  9 10  1  0  0  0  0
 11  8  1  0  0  0  0
 12 11  1  0  0  0  0
 13 14  1  0  0  0  0
 13 15  1  0  0  0  0
 14 15  2  0  0  0  0
 16 14  1  0  0  0  0
 16 12  1  0  0  0  0
 17 18  1  0  0  0  0
 17 13  1  0  0  0  0
 20 21  1  0  0  0  0
 20 23  1  0  0  0  0
 21 22  1  6  0  0  0
 22 26  1  0  0  0  0
 23 18  1  6  0  0  0
 23 24  1  0  0  0  0
 25 21  1  0  0  0  0
 25 19  1  0  0  0  0
 25 24  1  1  0  0  0
 26 19  1  0  0  0  0
 27 28  1  0  0  0  0
 29 28  1  0  0  0  0
 30 29  1  6  0  0  0
 30 34  1  0  0  0  0
 31 35  1  6  0  0  0
 31 30  1  0  0  0  0
 31 32  1  0  0  0  0
 32 33  1  0  0  0  0
 34 33  1  0  0  0  0
 36 35  1  0  0  0  0
 37 36  1  0  0  0  0
 38 37  1  6  0  0  0
 39 38  1  0  0  0  0
 40 39  1  0  0  0  0
 41 44  1  1  0  0  0
 41 42  1  0  0  0  0
 41 38  1  0  0  0  0
 42 43  1  0  0  0  0
 45 44  1  0  0  0  0
 47 46  1  6  0  0  0
 47 45  1  0  0  0  0
 48 49  2  0  0  0  0
 49 47  1  0  0  0  0
 50 49  1  0  0  0  0
M  END
>  <MODEL>
2

>  <REMARK>
 VINA RESULT:      -6.3      4.048      9.085
  Name = 
  24 active torsions:
  status: ('A' for Active; 'I' for Inactive)
    1  A    between atoms: O_2  and  C_16
    2  A    between atoms: N_5  and  CA_17
    3  A    between atoms: N_5  and  C_46
    4  A    between atoms: N_6  and  C_23
    5  A    between atoms: N_6  and  C_31
    6  A    between atoms: N_7  and  N_45
    7  A    between atoms: C_9  and  C_49
    8  A    between atoms: C_14  and  CA_17
    9  A    between atoms: C_16  and  C_23
   10  A    between atoms: C_16  and  C_47
   11  A    between atoms: C_19  and  C_22
   12  A    between atoms: N_20  and  C_22
   13  A    between atoms: N_20  and  C_49
   14  A    between atoms: C_24  and  C_47
   15  A    between atoms: C_25  and  C_34
   16  A    between atoms: C_25  and  N_41
   17  A    between atoms: C_28  and  C_32
   18  A    between atoms: C_29  and  C_38
   19  A    between atoms: C_30  and  C_31
   20  A    between atoms: C_32  and  N_45
   21  A    between atoms: C_33  and  C_35
   22  A    between atoms: C_34  and  C_35
   23  A    between atoms: C_35  and  N_48
   24  A    between atoms: C_46  and  C_47
                            x       y       z     vdW  Elec       q    Type
                         _______ _______ _______ _____ _____    ______ ____

>  <TORSDO>
F 24

$$$$
=
 OpenBabel10222419493D

 50 54  0  0  1  0  0  0  0  0999 V2000
  183.6990  178.2730  138.8100 C   0  0  0  0  0  0  0  0  0  0  0  0
  181.6640  177.4780  138.5070 N   0  0  0  0  0  0  0  0  0  0  0  0
  182.8200  177.7590  137.8810 C   0  0  0  0  0  0  0  0  0  0  0  0
  181.8560  177.8100  139.7750 N   0  0  0  0  0  0  0  0  0  0  0  0
  183.0690  178.3080  139.9970 N   0  0  0  0  0  0  0  0  0  0  0  0
  183.2470  177.3910  135.3480 N   0  0  0  0  0  0  0  0  0  0  0  0
  183.0580  177.5540  136.4780 C   0  0  0  0  0  0  0  0  0  0  0  0
  180.8010  177.7290  140.7820 C   0  0  1  0  0  3  0  0  0  0  0  0
  180.4470  178.7600  143.0340 C   0  0  0  0  0  1  0  0  0  0  0  0
  180.6360  179.0340  141.5550 C   0  0  0  0  0  2  0  0  0  0  0  0
  179.4940  177.2350  140.1650 C   0  0  0  0  0  2  0  0  0  0  0  0
  178.9550  175.9840  140.8430 C   0  0  0  0  0  2  0  0  0  0  0  0
  180.2490  173.5240  138.1220 N   0  0  0  0  0  0  0  0  0  0  0  0
  179.8620  174.4550  139.0700 C   0  0  0  0  0  0  0  0  0  0  0  0
  179.7130  174.7410  137.7650 N   0  0  0  0  0  0  0  0  0  0  0  0
  179.7520  174.8380  140.4380 N   0  0  0  0  0  2  0  0  0  0  0  0
  180.7760  172.2720  137.7820 N   0  0  0  0  0  2  0  0  0  0  0  0
  180.7920  172.1840  136.3290 C   0  0  0  0  0  2  0  0  0  0  0  0
  184.7800  174.4590  136.0250 N   0  0  0  0  0  2  0  0  0  0  0  0
  183.1250  171.6200  137.0120 C   0  0  0  0  0  2  0  0  0  0  0  0
  184.2690  172.4490  136.7300 N   0  0  2  0  0  0  0  0  0  0  0  0
  185.1760  172.8700  137.7600 C   0  0  0  0  0  2  0  0  0  0  0  0
  182.2100  171.9590  135.8250 C   0  0  2  0  0  3  0  0  0  0  0  0
  182.8140  173.2670  135.2840 C   0  0  0  0  0  2  0  0  0  0  0  0
  183.6910  173.6520  136.3650 N   0  0  2  0  0  0  0  0  0  0  0  0
  185.7100  174.1610  137.1260 C   0  0  0  0  0  2  0  0  0  0  0  0
  185.0880  178.7570  138.5800 C   0  0  0  0  0  2  0  0  0  0  0  0
  185.9330  177.6550  138.1570 N   0  0  0  0  0  2  0  0  0  0  0  0
  186.7660  178.1640  137.0770 C   0  0  0  0  0  2  0  0  0  0  0  0
  188.2300  177.7740  137.2750 C   0  0  1  0  0  3  0  0  0  0  0  0
  188.5100  177.2820  138.6860 C   0  0  1  0  0  3  0  0  0  0  0  0
  189.5660  176.2130  138.5320 C   0  0  0  0  0  2  0  0  0  0  0  0
  189.3060  175.5900  137.1790 C   0  0  0  0  0  2  0  0  0  0  0  0
  188.6550  176.6630  136.3240 C   0  0  0  0  0  2  0  0  0  0  0  0
  189.0260  178.4050  139.5700 C   0  0  0  0  0  2  0  0  0  0  0  0
  188.6030  178.1780  140.9410 N   0  0  0  0  0  2  0  0  0  0  0  0
  189.8060  178.0950  141.7570 C   0  0  0  0  0  2  0  0  0  0  0  0
  189.5730  177.2050  142.9800 C   0  0  1  0  0  3  0  0  0  0  0  0
  190.7960  176.7320  143.4570 O   0  0  0  0  0  0  0  0  0  0  0  0
  191.7390  177.1920  142.5370 C   0  0  0  0  0  1  0  0  0  0  0  0
  188.7960  177.8970  144.1180 C   0  0  2  0  0  3  0  0  0  0  0  0
  189.6370  178.0160  145.3800 C   0  0  0  0  0  2  0  0  0  0  0  0
  189.2890  176.9080  146.3540 C   0  0  0  0  0  1  0  0  0  0  0  0
  187.4730  177.2110  144.4400 C   0  0  0  0  0  2  0  0  0  0  0  0
  186.3680  177.9620  143.8670 N   0  0  0  0  0  2  0  0  0  0  0  0
  185.8310  177.8010  146.2280 C   0  0  0  0  0  1  0  0  0  0  0  0
  185.6800  178.6240  144.9640 C   0  0  2  0  0  3  0  0  0  0  0  0
  183.7750  178.5180  143.3550 O   0  0  0  0  0  0  0  0  0  0  0  0
  184.2320  178.7990  144.6380 C   0  0  0  0  0  0  0  0  0  0  0  0
  183.4280  179.2350  145.5050 O   0  0  0  0  0  1  0  0  0  0  0  0
  1  5  2  0  0  0  0
  2  4  1  0  0  0  0
  3  2  2  0  0  0  0
  3  1  1  0  0  0  0
  4  5  1  0  0  0  0
  4  8  1  0  0  0  0
  6  7  3  0  0  0  0
  7  3  1  0  0  0  0
  8 11  1  6  0  0  0
  8 10  1  0  0  0  0
 10  9  1  0  0  0  0
 11 12  1  0  0  0  0
 13 14  1  0  0  0  0
 14 16  1  0  0  0  0
 15 13  1  0  0  0  0
 15 14  2  0  0  0  0
 16 12  1  0  0  0  0
 17 13  1  0  0  0  0
 18 17  1  0  0  0  0
 19 25  1  0  0  0  0
 19 26  1  0  0  0  0
 21 20  1  1  0  0  0
 21 22  1  0  0  0  0
 23 18  1  1  0  0  0
 23 20  1  0  0  0  0
 24 23  1  0  0  0  0
 25 24  1  6  0  0  0
 25 21  1  0  0  0  0
 26 22  1  0  0  0  0
 27  1  1  0  0  0  0
 28 27  1  0  0  0  0
 29 28  1  0  0  0  0
 30 29  1  1  0  0  0
 30 31  1  0  0  0  0
 31 35  1  1  0  0  0
 32 31  1  0  0  0  0
 33 32  1  0  0  0  0
 34 33  1  0  0  0  0
 34 30  1  0  0  0  0
 35 36  1  0  0  0  0
 36 37  1  0  0  0  0
 38 37  1  6  0  0  0
 38 39  1  0  0  0  0
 38 41  1  0  0  0  0
 40 39  1  0  0  0  0
 41 44  1  1  0  0  0
 41 42  1  0  0  0  0
 42 43  1  0  0  0  0
 45 44  1  0  0  0  0
 45 47  1  0  0  0  0
 47 46  1  1  0  0  0
 48 49  2  0  0  0  0
 49 47  1  0  0  0  0
 49 50  1  0  0  0  0
M  END
>  <MODEL>
3

>  <REMARK>
 VINA RESULT:      -6.2      4.314      8.777
  Name = 
  24 active torsions:
  status: ('A' for Active; 'I' for Inactive)
    1  A    between atoms: O_2  and  C_16
    2  A    between atoms: N_5  and  CA_17
    3  A    between atoms: N_5  and  C_46
    4  A    between atoms: N_6  and  C_23
    5  A    between atoms: N_6  and  C_31
    6  A    between atoms: N_7  and  N_45
    7  A    between atoms: C_9  and  C_49
    8  A    between atoms: C_14  and  CA_17
    9  A    between atoms: C_16  and  C_23
   10  A    between atoms: C_16  and  C_47
   11  A    between atoms: C_19  and  C_22
   12  A    between atoms: N_20  and  C_22
   13  A    between atoms: N_20  and  C_49
   14  A    between atoms: C_24  and  C_47
   15  A    between atoms: C_25  and  C_34
   16  A    between atoms: C_25  and  N_41
   17  A    between atoms: C_28  and  C_32
   18  A    between atoms: C_29  and  C_38
   19  A    between atoms: C_30  and  C_31
   20  A    between atoms: C_32  and  N_45
   21  A    between atoms: C_33  and  C_35
   22  A    between atoms: C_34  and  C_35
   23  A    between atoms: C_35  and  N_48
   24  A    between atoms: C_46  and  C_47
                            x       y       z     vdW  Elec       q    Type
                         _______ _______ _______ _____ _____    ______ ____

>  <TORSDO>
F 24

$$$$
=
 OpenBabel10222419493D

 50 54  0  0  1  0  0  0  0  0999 V2000
  185.9690  177.9780  144.3420 C   0  0  0  0  0  0  0  0  0  0  0  0
  184.0680  179.0560  144.6370 N   0  0  0  0  0  0  0  0  0  0  0  0
  185.2480  178.7670  145.2120 C   0  0  0  0  0  0  0  0  0  0  0  0
  184.0920  178.4610  143.4540 N   0  0  0  0  0  0  0  0  0  0  0  0
  185.2190  177.7870  143.2430 N   0  0  0  0  0  0  0  0  0  0  0  0
  185.9750  179.5700  147.5700 N   0  0  0  0  0  0  0  0  0  0  0  0
  185.6500  179.2140  146.5180 C   0  0  0  0  0  0  0  0  0  0  0  0
  182.9520  178.4680  142.5410 C   0  0  1  0  0  3  0  0  0  0  0  0
  180.7070  179.4430  142.0200 C   0  0  0  0  0  1  0  0  0  0  0  0
  181.7880  179.2990  143.0740 C   0  0  0  0  0  2  0  0  0  0  0  0
  183.3810  178.8820  141.1340 C   0  0  0  0  0  2  0  0  0  0  0  0
  183.6080  177.6940  140.2120 C   0  0  0  0  0  2  0  0  0  0  0  0
  181.1450  179.7040  137.9710 N   0  0  0  0  0  0  0  0  0  0  0  0
  182.0910  179.0170  138.7120 C   0  0  0  0  0  0  0  0  0  0  0  0
  182.0430  180.3580  138.7830 N   0  0  0  0  0  0  0  0  0  0  0  0
  182.6970  177.7830  139.0830 N   0  0  0  0  0  2  0  0  0  0  0  0
  180.0680  179.7180  137.0760 N   0  0  0  0  0  2  0  0  0  0  0  0
  180.5830  180.1300  135.7780 C   0  0  0  0  0  2  0  0  0  0  0  0
  179.1050  184.2500  137.1950 N   0  0  0  0  0  2  0  0  0  0  0  0
  180.7660  182.4240  134.8130 C   0  0  0  0  0  2  0  0  0  0  0  0
  180.1340  183.5880  135.3780 N   0  0  2  0  0  0  0  0  0  0  0  0
  180.8700  184.7830  135.6810 C   0  0  0  0  0  2  0  0  0  0  0  0
  179.7930  181.3160  135.2440 C   0  0  2  0  0  3  0  0  0  0  0  0
  178.9810  181.9850  136.3660 C   0  0  0  0  0  2  0  0  0  0  0  0
  179.7780  183.1570  136.6440 N   0  0  2  0  0  0  0  0  0  0  0  0
  179.9870  185.3590  136.7950 C   0  0  0  0  0  2  0  0  0  0  0  0
  187.3170  177.3860  144.5540 C   0  0  0  0  0  2  0  0  0  0  0  0
  188.3430  178.3650  144.2450 N   0  0  0  0  0  2  0  0  0  0  0  0
  189.2520  178.3860  145.3830 C   0  0  0  0  0  2  0  0  0  0  0  0
  189.8310  176.9990  145.6560 C   0  0  1  0  0  3  0  0  0  0  0  0
  191.1720  176.7880  144.9720 C   0  0  1  0  0  3  0  0  0  0  0  0
  191.9640  175.9120  145.9110 C   0  0  0  0  0  2  0  0  0  0  0  0
  191.4790  176.2750  147.2970 C   0  0  0  0  0  2  0  0  0  0  0  0
  190.0480  176.7590  147.1430 C   0  0  0  0  0  2  0  0  0  0  0  0
  191.0030  176.0980  143.6280 C   0  0  0  0  0  2  0  0  0  0  0  0
  192.0730  176.5060  142.7340 N   0  0  0  0  0  2  0  0  0  0  0  0
  191.5400  177.5470  141.8680 C   0  0  0  0  0  2  0  0  0  0  0  0
  190.4670  176.9810  140.9340 C   0  0  1  0  0  3  0  0  0  0  0  0
  189.5530  177.9840  140.6060 O   0  0  0  0  0  0  0  0  0  0  0  0
  188.3040  177.4410  140.9110 C   0  0  0  0  0  1  0  0  0  0  0  0
  191.0300  176.3420  139.6490 C   0  0  2  0  0  3  0  0  0  0  0  0
  192.2740  177.0680  139.1600 C   0  0  0  0  0  2  0  0  0  0  0  0
  193.2180  176.0980  138.4790 C   0  0  0  0  0  1  0  0  0  0  0  0
  190.0030  176.2590  138.5260 C   0  0  0  0  0  2  0  0  0  0  0  0
  190.1990  177.3500  137.5860 N   0  0  0  0  0  2  0  0  0  0  0  0
  189.3120  177.4010  135.3290 C   0  0  0  0  0  1  0  0  0  0  0  0
  188.9780  177.4720  136.8050 C   0  0  2  0  0  3  0  0  0  0  0  0
  186.9030  178.8190  137.1370 O   0  0  0  0  0  0  0  0  0  0  0  0
  188.2920  178.7650  137.1120 C   0  0  0  0  0  0  0  0  0  0  0  0
  188.9610  179.8140  137.3100 O   0  0  0  0  0  1  0  0  0  0  0  0
  1 27  1  0  0  0  0
  1  3  1  0  0  0  0
  2  3  2  0  0  0  0
  3  7  1  0  0  0  0
  4  2  1  0  0  0  0
  5  4  1  0  0  0  0
  5  1  2  0  0  0  0
  7  6  3  0  0  0  0
  8 11  1  6  0  0  0
  8 10  1  0  0  0  0
  8  4  1  0  0  0  0
  9 10  1  0  0  0  0
 12 11  1  0  0  0  0
 13 14  1  0  0  0  0
 13 15  1  0  0  0  0
 14 15  2  0  0  0  0
 14 16  1  0  0  0  0
 16 12  1  0  0  0  0
 17 13  1  0  0  0  0
 18 17  1  0  0  0  0
 20 23  1  0  0  0  0
 21 20  1  1  0  0  0
 21 22  1  0  0  0  0
 21 25  1  0  0  0  0
 22 26  1  0  0  0  0
 23 18  1  1  0  0  0
 23 24  1  0  0  0  0
 25 24  1  6  0  0  0
 25 19  1  0  0  0  0
 26 19  1  0  0  0  0
 28 27  1  0  0  0  0
 28 29  1  0  0  0  0
 30 29  1  1  0  0  0
 30 34  1  0  0  0  0
 31 35  1  6  0  0  0
 31 30  1  0  0  0  0
 31 32  1  0  0  0  0
 32 33  1  0  0  0  0
 34 33  1  0  0  0  0
 36 35  1  0  0  0  0
 37 36  1  0  0  0  0
 38 37  1  6  0  0  0
 39 40  1  0  0  0  0
 39 38  1  0  0  0  0
 41 44  1  6  0  0  0
 41 38  1  0  0  0  0
 42 41  1  0  0  0  0
 43 42  1  0  0  0  0
 45 44  1  0  0  0  0
 47 46  1  6  0  0  0
 47 49  1  0  0  0  0
 47 45  1  0  0  0  0
 49 48  2  0  0  0  0
 49 50  1  0  0  0  0
M  END
>  <MODEL>
4

>  <REMARK>
 VINA RESULT:      -6.2      3.003      5.765
  Name = 
  24 active torsions:
  status: ('A' for Active; 'I' for Inactive)
    1  A    between atoms: O_2  and  C_16
    2  A    between atoms: N_5  and  CA_17
    3  A    between atoms: N_5  and  C_46
    4  A    between atoms: N_6  and  C_23
    5  A    between atoms: N_6  and  C_31
    6  A    between atoms: N_7  and  N_45
    7  A    between atoms: C_9  and  C_49
    8  A    between atoms: C_14  and  CA_17
    9  A    between atoms: C_16  and  C_23
   10  A    between atoms: C_16  and  C_47
   11  A    between atoms: C_19  and  C_22
   12  A    between atoms: N_20  and  C_22
   13  A    between atoms: N_20  and  C_49
   14  A    between atoms: C_24  and  C_47
   15  A    between atoms: C_25  and  C_34
   16  A    between atoms: C_25  and  N_41
   17  A    between atoms: C_28  and  C_32
   18  A    between atoms: C_29  and  C_38
   19  A    between atoms: C_30  and  C_31
   20  A    between atoms: C_32  and  N_45
   21  A    between atoms: C_33  and  C_35
   22  A    between atoms: C_34  and  C_35
   23  A    between atoms: C_35  and  N_48
   24  A    between atoms: C_46  and  C_47
                            x       y       z     vdW  Elec       q    Type
                         _______ _______ _______ _____ _____    ______ ____

>  <TORSDO>
F 24

$$$$
=
 OpenBabel10222419493D

 50 54  0  0  1  0  0  0  0  0999 V2000
  188.9070  177.7530  140.8650 C   0  0  0  0  0  0  0  0  0  0  0  0
  190.3090  176.4060  139.8250 N   0  0  0  0  0  0  0  0  0  0  0  0
  189.9510  176.8700  141.0350 C   0  0  0  0  0  0  0  0  0  0  0  0
  189.4930  176.9930  138.9620 N   0  0  0  0  0  0  0  0  0  0  0  0
  188.6390  177.8260  139.5500 N   0  0  0  0  0  0  0  0  0  0  0  0
  191.0900  176.1900  143.2660 N   0  0  0  0  0  0  0  0  0  0  0  0
  190.5800  176.4930  142.2720 C   0  0  0  0  0  0  0  0  0  0  0  0
  189.6070  176.8130  137.5170 C   0  0  1  0  0  3  0  0  0  0  0  0
  187.9280  177.5990  135.8380 C   0  0  0  0  0  1  0  0  0  0  0  0
  189.0750  178.0120  136.7390 C   0  0  0  0  0  2  0  0  0  0  0  0
  191.0350  176.4370  137.1250 C   0  0  0  0  0  2  0  0  0  0  0  0
  191.1460  175.9560  135.6860 C   0  0  0  0  0  2  0  0  0  0  0  0
  195.0060  175.5670  135.9600 N   0  0  0  0  0  0  0  0  0  0  0  0
  193.6270  175.6750  135.9520 C   0  0  0  0  0  0  0  0  0  0  0  0
  194.3540  176.5620  136.6520 N   0  0  0  0  0  0  0  0  0  0  0  0
  192.3610  175.1730  135.5360 N   0  0  0  0  0  2  0  0  0  0  0  0
  196.1850  174.9290  135.5540 N   0  0  0  0  0  2  0  0  0  0  0  0
  196.0170  173.5030  135.7950 C   0  0  0  0  0  2  0  0  0  0  0  0
  198.2970  175.4570  139.2820 N   0  0  0  0  0  2  0  0  0  0  0  0
  195.7410  173.4020  138.2730 C   0  0  0  0  0  2  0  0  0  0  0  0
  196.6420  174.0230  139.2090 N   0  0  2  0  0  0  0  0  0  0  0  0
  196.1790  174.9120  140.2370 C   0  0  0  0  0  2  0  0  0  0  0  0
  196.6880  173.1010  137.1010 C   0  0  2  0  0  3  0  0  0  0  0  0
  197.9000  174.0020  137.3950 C   0  0  0  0  0  2  0  0  0  0  0  0
  197.3690  174.8850  138.4080 N   0  0  2  0  0  0  0  0  0  0  0  0
  197.4460  175.7520  140.4460 C   0  0  0  0  0  2  0  0  0  0  0  0
  188.2000  178.5400  141.9130 C   0  0  0  0  0  2  0  0  0  0  0  0
  186.7670  178.3370  141.8030 N   0  0  0  0  0  2  0  0  0  0  0  0
  186.3390  177.7250  143.0530 C   0  0  0  0  0  2  0  0  0  0  0  0
  185.5740  178.7190  143.9240 C   0  0  1  0  0  3  0  0  0  0  0  0
  184.0730  178.4780  143.8940 C   0  0  1  0  0  3  0  0  0  0  0  0
  183.5860  178.8320  145.2780 C   0  0  0  0  0  2  0  0  0  0  0  0
  184.7360  178.5000  146.2020 C   0  0  0  0  0  2  0  0  0  0  0  0
  186.0070  178.6450  145.3820 C   0  0  0  0  0  2  0  0  0  0  0  0
  183.3940  179.3590  142.8580 C   0  0  0  0  0  2  0  0  0  0  0  0
  182.7790  178.5250  141.8390 N   0  0  0  0  0  2  0  0  0  0  0  0
  181.4220  179.0130  141.6410 C   0  0  0  0  0  2  0  0  0  0  0  0
  180.4600  177.8520  141.3770 C   0  0  1  0  0  3  0  0  0  0  0  0
  179.4730  177.8260  142.3630 O   0  0  0  0  0  0  0  0  0  0  0  0
  178.9650  179.1250  142.3940 C   0  0  0  0  0  1  0  0  0  0  0  0
  179.8080  177.8860  139.9810 C   0  0  2  0  0  3  0  0  0  0  0  0
  179.8890  176.5330  139.2900 C   0  0  0  0  0  2  0  0  0  0  0  0
  179.4370  176.6480  137.8480 C   0  0  0  0  0  1  0  0  0  0  0  0
  180.3920  178.9650  139.0760 C   0  0  0  0  0  2  0  0  0  0  0  0
  179.3950  179.9890  138.8100 N   0  0  0  0  0  2  0  0  0  0  0  0
  181.0390  180.0520  137.0270 C   0  0  0  0  0  1  0  0  0  0  0  0
  179.8590  180.7560  137.6650 C   0  0  2  0  0  3  0  0  0  0  0  0
  179.2720  183.0760  138.3760 O   0  0  0  0  0  1  0  0  0  0  0  0
  180.2540  182.1340  138.0900 C   0  0  0  0  0  0  0  0  0  0  0  0
  181.4690  182.4610  138.1540 O   0  0  0  0  0  0  0  0  0  0  0  0
  1  3  1  0  0  0  0
  1 27  1  0  0  0  0
  2  3  2  0  0  0  0
  3  7  1  0  0  0  0
  4  5  1  0  0  0  0
  4  2  1  0  0  0  0
  5  1  2  0  0  0  0
  7  6  3  0  0  0  0
  8 10  1  6  0  0  0
  8  4  1  0  0  0  0
  9 10  1  0  0  0  0
 11  8  1  0  0  0  0
 12 11  1  0  0  0  0
 13 15  1  0  0  0  0
 14 13  1  0  0  0  0
 14 15  2  0  0  0  0
 16 12  1  0  0  0  0
 16 14  1  0  0  0  0
 17 18  1  0  0  0  0
 17 13  1  0  0  0  0
 19 26  1  0  0  0  0
 21 20  1  6  0  0  0
 21 22  1  0  0  0  0
 22 26  1  0  0  0  0
 23 18  1  6  0  0  0
 23 24  1  0  0  0  0
 23 20  1  0  0  0  0
 25 24  1  6  0  0  0
 25 21  1  0  0  0  0
 25 19  1  0  0  0  0
 28 27  1  0  0  0  0
 28 29  1  0  0  0  0
 30 29  1  6  0  0  0
 30 34  1  0  0  0  0
 31 35  1  6  0  0  0
 31 30  1  0  0  0  0
 31 32  1  0  0  0  0
 32 33  1  0  0  0  0
 34 33  1  0  0  0  0
 36 35  1  0  0  0  0
 37 36  1  0  0  0  0
 38 37  1  1  0  0  0
 38 39  1  0  0  0  0
 39 40  1  0  0  0  0
 41 44  1  6  0  0  0
 41 38  1  0  0  0  0
 42 41  1  0  0  0  0
 43 42  1  0  0  0  0
 45 44  1  0  0  0  0
 47 46  1  1  0  0  0
 47 49  1  0  0  0  0
 47 45  1  0  0  0  0
 49 50  2  0  0  0  0
 49 48  1  0  0  0  0
M  END
>  <MODEL>
5

>  <REMARK>
 VINA RESULT:      -5.9      3.952     12.764
  Name = 
  24 active torsions:
  status: ('A' for Active; 'I' for Inactive)
    1  A    between atoms: O_2  and  C_16
    2  A    between atoms: N_5  and  CA_17
    3  A    between atoms: N_5  and  C_46
    4  A    between atoms: N_6  and  C_23
    5  A    between atoms: N_6  and  C_31
    6  A    between atoms: N_7  and  N_45
    7  A    between atoms: C_9  and  C_49
    8  A    between atoms: C_14  and  CA_17
    9  A    between atoms: C_16  and  C_23
   10  A    between atoms: C_16  and  C_47
   11  A    between atoms: C_19  and  C_22
   12  A    between atoms: N_20  and  C_22
   13  A    between atoms: N_20  and  C_49
   14  A    between atoms: C_24  and  C_47
   15  A    between atoms: C_25  and  C_34
   16  A    between atoms: C_25  and  N_41
   17  A    between atoms: C_28  and  C_32
   18  A    between atoms: C_29  and  C_38
   19  A    between atoms: C_30  and  C_31
   20  A    between atoms: C_32  and  N_45
   21  A    between atoms: C_33  and  C_35
   22  A    between atoms: C_34  and  C_35
   23  A    between atoms: C_35  and  N_48
   24  A    between atoms: C_46  and  C_47
                            x       y       z     vdW  Elec       q    Type
                         _______ _______ _______ _____ _____    ______ ____

>  <TORSDO>
F 24

$$$$
=
 OpenBabel10222419493D

 50 54  0  0  1  0  0  0  0  0999 V2000
  185.1420  178.2450  143.5280 C   0  0  0  0  0  0  0  0  0  0  0  0
  183.2330  179.0060  144.3260 N   0  0  0  0  0  0  0  0  0  0  0  0
  184.5170  178.7650  144.6410 C   0  0  0  0  0  0  0  0  0  0  0  0
  183.1020  178.6450  143.0580 N   0  0  0  0  0  0  0  0  0  0  0  0
  184.2310  178.1660  142.5430 N   0  0  0  0  0  0  0  0  0  0  0  0
  185.5740  179.2100  146.9690 N   0  0  0  0  0  0  0  0  0  0  0  0
  185.1010  179.0120  145.9310 C   0  0  0  0  0  0  0  0  0  0  0  0
  181.8220  178.6780  142.3540 C   0  0  1  0  0  3  0  0  0  0  0  0
  179.7430  178.7520  143.7440 C   0  0  0  0  0  1  0  0  0  0  0  0
  180.8040  179.5800  143.0440 C   0  0  0  0  0  2  0  0  0  0  0  0
  182.0190  179.0240  140.8800 C   0  0  0  0  0  2  0  0  0  0  0  0
  180.7120  179.0670  140.1030 C   0  0  0  0  0  2  0  0  0  0  0  0
  180.1120  176.1210  137.6350 N   0  0  0  0  0  0  0  0  0  0  0  0
  180.4130  177.1370  138.5260 C   0  0  0  0  0  0  0  0  0  0  0  0
  180.9560  177.1550  137.2960 N   0  0  0  0  0  0  0  0  0  0  0  0
  180.2760  177.7090  139.8230 N   0  0  0  0  0  2  0  0  0  0  0  0
  179.4390  174.9360  137.3140 N   0  0  0  0  0  2  0  0  0  0  0  0
  180.3160  174.1530  136.4560 C   0  0  0  0  0  2  0  0  0  0  0  0
  183.1080  170.5040  136.1980 N   0  0  0  0  0  2  0  0  0  0  0  0
  182.7790  173.8750  136.7470 C   0  0  0  0  0  2  0  0  0  0  0  0
  183.4540  172.6030  136.7220 N   0  0  2  0  0  0  0  0  0  0  0  0
  184.5760  172.3530  135.8620 C   0  0  0  0  0  2  0  0  0  0  0  0
  181.3970  173.4690  137.2820 C   0  0  2  0  0  3  0  0  0  0  0  0
  181.3740  171.9470  137.0630 C   0  0  0  0  0  2  0  0  0  0  0  0
  182.5000  171.7620  136.1770 N   0  0  2  0  0  0  0  0  0  0  0  0
  184.4570  170.8320  135.7110 C   0  0  0  0  0  2  0  0  0  0  0  0
  186.5560  177.7950  143.4040 C   0  0  0  0  0  2  0  0  0  0  0  0
  187.0740  178.1470  142.0950 N   0  0  0  0  0  2  0  0  0  0  0  0
  188.3760  178.7610  142.3170 C   0  0  0  0  0  2  0  0  0  0  0  0
  189.4060  177.7290  142.7720 C   0  0  1  0  0  3  0  0  0  0  0  0
  190.6090  177.6660  141.8450 C   0  0  1  0  0  3  0  0  0  0  0  0
  191.7860  177.3650  142.7400 C   0  0  0  0  0  2  0  0  0  0  0  0
  191.4510  178.0080  144.0670 C   0  0  0  0  0  2  0  0  0  0  0  0
  189.9350  178.0330  144.1660 C   0  0  0  0  0  2  0  0  0  0  0  0
  190.4470  176.5690  140.8050 C   0  0  0  0  0  2  0  0  0  0  0  0
  190.5940  177.1340  139.4750 N   0  0  0  0  0  2  0  0  0  0  0  0
  191.3610  176.1840  138.6830 C   0  0  0  0  0  2  0  0  0  0  0  0
  191.2480  176.5030  137.1900 C   0  0  1  0  0  3  0  0  0  0  0  0
  192.3560  175.9890  136.5140 O   0  0  0  0  0  0  0  0  0  0  0  0
  193.3270  175.8180  137.5010 C   0  0  0  0  0  1  0  0  0  0  0  0
  189.9490  175.9920  136.5370 C   0  0  2  0  0  3  0  0  0  0  0  0
  190.1110  174.5810  135.9940 C   0  0  0  0  0  2  0  0  0  0  0  0
  188.7800  174.0460  135.5060 C   0  0  0  0  0  1  0  0  0  0  0  0
  189.4300  176.9130  135.4400 C   0  0  0  0  0  2  0  0  0  0  0  0
  188.6290  177.9790  136.0170 N   0  0  0  0  0  2  0  0  0  0  0  0
  186.4080  177.0180  135.8440 C   0  0  0  0  0  1  0  0  0  0  0  0
  187.5570  177.3530  136.7740 C   0  0  2  0  0  3  0  0  0  0  0  0
  187.9940  178.7540  138.7930 O   0  0  0  0  0  1  0  0  0  0  0  0
  187.0850  178.2670  137.8600 C   0  0  0  0  0  0  0  0  0  0  0  0
  185.8660  178.5680  137.9590 O   0  0  0  0  0  0  0  0  0  0  0  0
  1  3  1  0  0  0  0
  2  3  2  0  0  0  0
  3  7  1  0  0  0  0
  4  2  1  0  0  0  0
  5  4  1  0  0  0  0
  5  1  2  0  0  0  0
  7  6  3  0  0  0  0
  8 11  1  6  0  0  0
  8 10  1  0  0  0  0
  8  4  1  0  0  0  0
 10  9  1  0  0  0  0
 12 11  1  0  0  0  0
 13 14  1  0  0  0  0
 14 16  1  0  0  0  0
 15 13  1  0  0  0  0
 15 14  2  0  0  0  0
 16 12  1  0  0  0  0
 17 13  1  0  0  0  0
 18 17  1  0  0  0  0
 20 23  1  0  0  0  0
 21 22  1  6  0  0  0
 21 20  1  0  0  0  0
 23 18  1  6  0  0  0
 24 23  1  0  0  0  0
 25 19  1  0  0  0  0
 25 21  1  0  0  0  0
 25 24  1  1  0  0  0
 26 22  1  0  0  0  0
 26 19  1  0  0  0  0
 27  1  1  0  0  0  0
 28 29  1  0  0  0  0
 28 27  1  0  0  0  0
 30 29  1  6  0  0  0
 30 34  1  0  0  0  0
 31 35  1  6  0  0  0
 31 32  1  0  0  0  0
 31 30  1  0  0  0  0
 32 33  1  0  0  0  0
 33 34  1  0  0  0  0
 36 35  1  0  0  0  0
 37 36  1  0  0  0  0
 38 37  1  1  0  0  0
 39 38  1  0  0  0  0
 39 40  1  0  0  0  0
 41 44  1  6  0  0  0
 41 38  1  0  0  0  0
 42 41  1  0  0  0  0
 43 42  1  0  0  0  0
 44 45  1  0  0  0  0
 45 47  1  0  0  0  0
 47 46  1  6  0  0  0
 47 49  1  0  0  0  0
 49 50  2  0  0  0  0
 49 48  1  0  0  0  0
M  END
>  <MODEL>
6

>  <REMARK>
 VINA RESULT:      -5.8      3.677      6.161
  Name = 
  24 active torsions:
  status: ('A' for Active; 'I' for Inactive)
    1  A    between atoms: O_2  and  C_16
    2  A    between atoms: N_5  and  CA_17
    3  A    between atoms: N_5  and  C_46
    4  A    between atoms: N_6  and  C_23
    5  A    between atoms: N_6  and  C_31
    6  A    between atoms: N_7  and  N_45
    7  A    between atoms: C_9  and  C_49
    8  A    between atoms: C_14  and  CA_17
    9  A    between atoms: C_16  and  C_23
   10  A    between atoms: C_16  and  C_47
   11  A    between atoms: C_19  and  C_22
   12  A    between atoms: N_20  and  C_22
   13  A    between atoms: N_20  and  C_49
   14  A    between atoms: C_24  and  C_47
   15  A    between atoms: C_25  and  C_34
   16  A    between atoms: C_25  and  N_41
   17  A    between atoms: C_28  and  C_32
   18  A    between atoms: C_29  and  C_38
   19  A    between atoms: C_30  and  C_31
   20  A    between atoms: C_32  and  N_45
   21  A    between atoms: C_33  and  C_35
   22  A    between atoms: C_34  and  C_35
   23  A    between atoms: C_35  and  N_48
   24  A    between atoms: C_46  and  C_47
                            x       y       z     vdW  Elec       q    Type
                         _______ _______ _______ _____ _____    ______ ____

>  <TORSDO>
F 24

$$$$
=
 OpenBabel10222419493D

 50 54  0  0  1  0  0  0  0  0999 V2000
  186.6350  177.8380  143.9670 C   0  0  0  0  0  0  0  0  0  0  0  0
  188.1010  178.0140  145.6050 N   0  0  0  0  0  0  0  0  0  0  0  0
  186.7900  178.0810  145.3150 C   0  0  0  0  0  0  0  0  0  0  0  0
  188.7060  177.7310  144.4600 N   0  0  0  0  0  0  0  0  0  0  0  0
  187.8550  177.6310  143.4430 N   0  0  0  0  0  0  0  0  0  0  0  0
  184.9230  178.6020  147.0400 N   0  0  0  0  0  0  0  0  0  0  0  0
  185.7570  178.3690  146.2720 C   0  0  0  0  0  0  0  0  0  0  0  0
  190.1580  177.6490  144.3320 C   0  0  1  0  0  3  0  0  0  0  0  0
  191.3630  176.7510  146.3320 C   0  0  0  0  0  1  0  0  0  0  0  0
  190.7300  176.4020  144.9990 C   0  0  0  0  0  2  0  0  0  0  0  0
  190.5870  177.7910  142.8720 C   0  0  0  0  0  2  0  0  0  0  0  0
  192.0030  177.2960  142.6210 C   0  0  0  0  0  2  0  0  0  0  0  0
  191.4200  176.7500  138.8140 N   0  0  0  0  0  0  0  0  0  0  0  0
  191.5680  177.0170  140.1640 C   0  0  0  0  0  0  0  0  0  0  0  0
  190.4210  176.4740  139.7200 N   0  0  0  0  0  0  0  0  0  0  0  0
  192.3550  177.5360  141.2310 N   0  0  0  0  0  2  0  0  0  0  0  0
  191.9210  176.7470  137.5060 N   0  0  0  0  0  2  0  0  0  0  0  0
  191.4920  175.5070  136.8760 C   0  0  0  0  0  2  0  0  0  0  0  0
  196.0600  175.2570  137.3570 N   0  0  0  0  0  2  0  0  0  0  0  0
  193.0710  173.5910  137.1250 C   0  0  0  0  0  2  0  0  0  0  0  0
  194.5040  173.7290  137.1620 N   0  0  2  0  0  0  0  0  0  0  0  0
  195.2950  173.1700  138.2230 C   0  0  0  0  0  2  0  0  0  0  0  0
  192.6780  174.7900  136.2480 C   0  0  2  0  0  3  0  0  0  0  0  0
  193.9360  175.6740  136.2860 C   0  0  0  0  0  2  0  0  0  0  0  0
  194.6740  175.0850  137.3780 N   0  0  2  0  0  0  0  0  0  0  0  0
  196.5020  174.1150  138.1730 C   0  0  0  0  0  2  0  0  0  0  0  0
  185.3710  177.8390  143.1820 C   0  0  0  0  0  2  0  0  0  0  0  0
  184.9950  179.2010  142.8480 N   0  0  0  0  0  2  0  0  0  0  0  0
  185.7450  179.5560  141.6510 C   0  0  0  0  0  2  0  0  0  0  0  0
  185.6520  178.4570  140.5930 C   0  0  1  0  0  3  0  0  0  0  0  0
  184.5950  178.7550  139.5420 C   0  0  1  0  0  3  0  0  0  0  0  0
  185.1450  178.1920  138.2540 C   0  0  0  0  0  2  0  0  0  0  0  0
  186.6470  178.3200  138.3730 C   0  0  0  0  0  2  0  0  0  0  0  0
  186.9710  178.2680  139.8560 C   0  0  0  0  0  2  0  0  0  0  0  0
  183.2730  178.0890  139.8850 C   0  0  0  0  0  2  0  0  0  0  0  0
  182.3240  179.0930  140.3320 N   0  0  0  0  0  2  0  0  0  0  0  0
  180.9890  178.5540  140.1130 C   0  0  0  0  0  2  0  0  0  0  0  0
  180.9470  177.7000  138.8430 C   0  0  1  0  0  3  0  0  0  0  0  0
  180.0950  176.6120  139.0360 O   0  0  0  0  0  0  0  0  0  0  0  0
  180.8470  175.6970  139.7740 C   0  0  0  0  0  1  0  0  0  0  0  0
  180.5300  178.4790  137.5800 C   0  0  2  0  0  3  0  0  0  0  0  0
  181.6980  178.6650  136.6230 C   0  0  0  0  0  2  0  0  0  0  0  0
  182.2200  177.3200  136.1590 C   0  0  0  0  0  1  0  0  0  0  0  0
  179.8970  179.8300  137.8940 C   0  0  0  0  0  2  0  0  0  0  0  0
  180.4380  180.8520  137.0140 N   0  0  0  0  0  2  0  0  0  0  0  0
  179.7430  182.0890  138.9830 C   0  0  0  0  0  1  0  0  0  0  0  0
  180.7280  182.0180  137.8330 C   0  0  2  0  0  3  0  0  0  0  0  0
  180.3890  184.4840  137.6310 O   0  0  0  0  0  1  0  0  0  0  0  0
  180.6430  183.2640  137.0110 C   0  0  0  0  0  0  0  0  0  0  0  0
  180.7630  183.2150  135.7580 O   0  0  0  0  0  0  0  0  0  0  0  0
  1  3  1  0  0  0  0
  3  2  2  0  0  0  0
  3  7  1  0  0  0  0
  4  2  1  0  0  0  0
  5  1  2  0  0  0  0
  5  4  1  0  0  0  0
  7  6  3  0  0  0  0
  8 11  1  6  0  0  0
  8  4  1  0  0  0  0
  8 10  1  0  0  0  0
 10  9  1  0  0  0  0
 12 11  1  0  0  0  0
 13 15  1  0  0  0  0
 13 14  1  0  0  0  0
 14 16  1  0  0  0  0
 15 14  2  0  0  0  0
 16 12  1  0  0  0  0
 17 13  1  0  0  0  0
 18 17  1  0  0  0  0
 19 25  1  0  0  0  0
 19 26  1  0  0  0  0
 21 20  1  1  0  0  0
 21 25  1  0  0  0  0
 21 22  1  0  0  0  0
 23 24  1  0  0  0  0
 23 18  1  1  0  0  0
 23 20  1  0  0  0  0
 25 24  1  6  0  0  0
 26 22  1  0  0  0  0
 27  1  1  0  0  0  0
 28 27  1  0  0  0  0
 29 28  1  0  0  0  0
 30 29  1  1  0  0  0
 31 35  1  1  0  0  0
 31 30  1  0  0  0  0
 32 33  1  0  0  0  0
 32 31  1  0  0  0  0
 33 34  1  0  0  0  0
 34 30  1  0  0  0  0
 35 36  1  0  0  0  0
 37 36  1  0  0  0  0
 38 39  1  0  0  0  0
 38 37  1  1  0  0  0
 39 40  1  0  0  0  0
 41 42  1  6  0  0  0
 41 44  1  0  0  0  0
 41 38  1  0  0  0  0
 43 42  1  0  0  0  0
 45 47  1  0  0  0  0
 45 44  1  0  0  0  0
 47 46  1  1  0  0  0
 49 48  1  0  0  0  0
 49 47  1  0  0  0  0
 50 49  2  0  0  0  0
M  END
>  <MODEL>
7

>  <REMARK>
 VINA RESULT:      -5.8      3.647     11.235
  Name = 
  24 active torsions:
  status: ('A' for Active; 'I' for Inactive)
    1  A    between atoms: O_2  and  C_16
    2  A    between atoms: N_5  and  CA_17
    3  A    between atoms: N_5  and  C_46
    4  A    between atoms: N_6  and  C_23
    5  A    between atoms: N_6  and  C_31
    6  A    between atoms: N_7  and  N_45
    7  A    between atoms: C_9  and  C_49
    8  A    between atoms: C_14  and  CA_17
    9  A    between atoms: C_16  and  C_23
   10  A    between atoms: C_16  and  C_47
   11  A    between atoms: C_19  and  C_22
   12  A    between atoms: N_20  and  C_22
   13  A    between atoms: N_20  and  C_49
   14  A    between atoms: C_24  and  C_47
   15  A    between atoms: C_25  and  C_34
   16  A    between atoms: C_25  and  N_41
   17  A    between atoms: C_28  and  C_32
   18  A    between atoms: C_29  and  C_38
   19  A    between atoms: C_30  and  C_31
   20  A    between atoms: C_32  and  N_45
   21  A    between atoms: C_33  and  C_35
   22  A    between atoms: C_34  and  C_35
   23  A    between atoms: C_35  and  N_48
   24  A    between atoms: C_46  and  C_47
                            x       y       z     vdW  Elec       q    Type
                         _______ _______ _______ _____ _____    ______ ____

>  <TORSDO>
F 24

$$$$
=
 OpenBabel10222419493D

 50 54  0  0  1  0  0  0  0  0999 V2000
  189.2780  177.6770  143.9160 C   0  0  0  0  0  0  0  0  0  0  0  0
  188.4620  177.4260  145.9500 N   0  0  0  0  0  0  0  0  0  0  0  0
  189.5940  177.3880  145.2260 C   0  0  0  0  0  0  0  0  0  0  0  0
  187.5010  177.7390  145.0920 N   0  0  0  0  0  0  0  0  0  0  0  0
  187.9520  177.8840  143.8490 N   0  0  0  0  0  0  0  0  0  0  0  0
  191.9380  176.8360  146.1940 N   0  0  0  0  0  0  0  0  0  0  0  0
  190.8940  177.0820  145.7610 C   0  0  0  0  0  0  0  0  0  0  0  0
  186.0930  177.8040  145.4720 C   0  0  1  0  0  3  0  0  0  0  0  0
  185.8800  179.5160  147.2850 C   0  0  0  0  0  1  0  0  0  0  0  0
  185.9060  178.0330  146.9690 C   0  0  0  0  0  2  0  0  0  0  0  0
  185.3440  178.8260  144.6190 C   0  0  0  0  0  2  0  0  0  0  0  0
  184.1080  178.2440  143.9480 C   0  0  0  0  0  2  0  0  0  0  0  0
  183.4590  178.8840  140.1670 N   0  0  0  0  0  0  0  0  0  0  0  0
  183.6010  178.6270  141.5190 C   0  0  0  0  0  0  0  0  0  0  0  0
  183.5250  177.5990  140.6570 N   0  0  0  0  0  0  0  0  0  0  0  0
  183.7030  179.1120  142.8550 N   0  0  0  0  0  2  0  0  0  0  0  0
  183.3490  179.7820  139.0980 N   0  0  0  0  0  2  0  0  0  0  0  0
  182.3760  179.2330  138.1650 C   0  0  0  0  0  2  0  0  0  0  0  0
  181.1940  183.6290  137.4930 N   0  0  0  0  0  2  0  0  0  0  0  0
  180.7040  180.3330  136.6740 C   0  0  0  0  0  2  0  0  0  0  0  0
  180.4170  181.7450  136.6900 N   0  0  2  0  0  0  0  0  0  0  0  0
  180.4600  182.5440  135.4990 C   0  0  0  0  0  2  0  0  0  0  0  0
  181.1230  180.0970  138.1330 C   0  0  2  0  0  3  0  0  0  0  0  0
  181.4220  181.5170  138.6420 C   0  0  0  0  0  2  0  0  0  0  0  0
  181.4800  182.2640  137.4080 N   0  0  2  0  0  0  0  0  0  0  0  0
  180.7630  183.9160  136.1150 C   0  0  0  0  0  2  0  0  0  0  0  0
  190.1960  177.7200  142.7460 C   0  0  0  0  0  2  0  0  0  0  0  0
  189.6410  176.9430  141.6520 N   0  0  0  0  0  2  0  0  0  0  0  0
  189.4090  177.8750  140.5580 C   0  0  0  0  0  2  0  0  0  0  0  0
  189.2520  177.1410  139.2270 C   0  0  1  0  0  3  0  0  0  0  0  0
  189.3740  178.0760  138.0350 C   0  0  1  0  0  3  0  0  0  0  0  0
  190.0420  177.2590  136.9560 C   0  0  0  0  0  2  0  0  0  0  0  0
  190.9390  176.2880  137.6900 C   0  0  0  0  0  2  0  0  0  0  0  0
  190.3060  176.0570  139.0510 C   0  0  0  0  0  2  0  0  0  0  0  0
  188.0080  178.5500  137.5640 C   0  0  0  0  0  2  0  0  0  0  0  0
  187.0880  177.4280  137.5340 N   0  0  0  0  0  2  0  0  0  0  0  0
  185.8630  177.8890  136.8950 C   0  0  0  0  0  2  0  0  0  0  0  0
  185.0710  176.7110  136.3220 C   0  0  1  0  0  3  0  0  0  0  0  0
  185.2720  176.6360  134.9430 O   0  0  0  0  0  0  0  0  0  0  0  0
  186.1380  177.6900  134.6510 C   0  0  0  0  0  1  0  0  0  0  0  0
  185.4040  175.3560  136.9770 C   0  0  2  0  0  3  0  0  0  0  0  0
  185.8480  174.3290  135.9470 C   0  0  0  0  0  2  0  0  0  0  0  0
  185.7010  172.9260  136.5020 C   0  0  0  0  0  1  0  0  0  0  0  0
  184.2530  174.7950  137.8050 C   0  0  0  0  0  2  0  0  0  0  0  0
  183.0250  175.5140  137.5070 N   0  0  0  0  0  2  0  0  0  0  0  0
  181.3130  174.4890  136.1280 C   0  0  0  0  0  1  0  0  0  0  0  0
  181.9450  174.5410  137.5040 C   0  0  2  0  0  3  0  0  0  0  0  0
  180.6970  176.2430  138.8380 O   0  0  0  0  0  0  0  0  0  0  0  0
  180.9150  174.9050  138.5250 C   0  0  0  0  0  0  0  0  0  0  0  0
  180.2710  174.0090  139.1330 O   0  0  0  0  0  1  0  0  0  0  0  0
  1  3  1  0  0  0  0
  3  7  1  0  0  0  0
  3  2  2  0  0  0  0
  4  8  1  0  0  0  0
  4  2  1  0  0  0  0
  5  1  2  0  0  0  0
  5  4  1  0  0  0  0
  7  6  3  0  0  0  0
  8 11  1  6  0  0  0
  8 10  1  0  0  0  0
 10  9  1  0  0  0  0
 12 11  1  0  0  0  0
 13 15  1  0  0  0  0
 13 14  1  0  0  0  0
 14 16  1  0  0  0  0
 15 14  2  0  0  0  0
 16 12  1  0  0  0  0
 17 13  1  0  0  0  0
 18 17  1  0  0  0  0
 20 21  1  0  0  0  0
 20 23  1  0  0  0  0
 21 22  1  6  0  0  0
 21 25  1  0  0  0  0
 22 26  1  0  0  0  0
 23 18  1  6  0  0  0
 23 24  1  0  0  0  0
 25 19  1  0  0  0  0
 25 24  1  1  0  0  0
 26 19  1  0  0  0  0
 27  1  1  0  0  0  0
 28 27  1  0  0  0  0
 29 28  1  0  0  0  0
 30 29  1  1  0  0  0
 31 35  1  6  0  0  0
 31 30  1  0  0  0  0
 32 33  1  0  0  0  0
 32 31  1  0  0  0  0
 33 34  1  0  0  0  0
 34 30  1  0  0  0  0
 36 35  1  0  0  0  0
 37 36  1  0  0  0  0
 38 37  1  1  0  0  0
 38 41  1  0  0  0  0
 39 38  1  0  0  0  0
 40 39  1  0  0  0  0
 41 42  1  6  0  0  0
 41 44  1  0  0  0  0
 42 43  1  0  0  0  0
 45 44  1  0  0  0  0
 47 46  1  6  0  0  0
 47 45  1  0  0  0  0
 47 49  1  0  0  0  0
 49 48  2  0  0  0  0
 49 50  1  0  0  0  0
M  END
>  <MODEL>
8

>  <REMARK>
 VINA RESULT:      -5.8      3.523      5.984
  Name = 
  24 active torsions:
  status: ('A' for Active; 'I' for Inactive)
    1  A    between atoms: O_2  and  C_16
    2  A    between atoms: N_5  and  CA_17
    3  A    between atoms: N_5  and  C_46
    4  A    between atoms: N_6  and  C_23
    5  A    between atoms: N_6  and  C_31
    6  A    between atoms: N_7  and  N_45
    7  A    between atoms: C_9  and  C_49
    8  A    between atoms: C_14  and  CA_17
    9  A    between atoms: C_16  and  C_23
   10  A    between atoms: C_16  and  C_47
   11  A    between atoms: C_19  and  C_22
   12  A    between atoms: N_20  and  C_22
   13  A    between atoms: N_20  and  C_49
   14  A    between atoms: C_24  and  C_47
   15  A    between atoms: C_25  and  C_34
   16  A    between atoms: C_25  and  N_41
   17  A    between atoms: C_28  and  C_32
   18  A    between atoms: C_29  and  C_38
   19  A    between atoms: C_30  and  C_31
   20  A    between atoms: C_32  and  N_45
   21  A    between atoms: C_33  and  C_35
   22  A    between atoms: C_34  and  C_35
   23  A    between atoms: C_35  and  N_48
   24  A    between atoms: C_46  and  C_47
                            x       y       z     vdW  Elec       q    Type
                         _______ _______ _______ _____ _____    ______ ____

>  <TORSDO>
F 24

$$$$
=
 OpenBabel10222419493D

 50 54  0  0  1  0  0  0  0  0999 V2000
  189.9390  177.7030  144.8290 C   0  0  0  0  0  0  0  0  0  0  0  0
  188.6860  177.0510  146.5220 N   0  0  0  0  0  0  0  0  0  0  0  0
  189.9560  177.1660  146.0980 C   0  0  0  0  0  0  0  0  0  0  0  0
  187.9360  177.5150  145.5330 N   0  0  0  0  0  0  0  0  0  0  0  0
  188.6560  177.9070  144.4850 N   0  0  0  0  0  0  0  0  0  0  0  0
  192.0400  176.4590  147.4740 N   0  0  0  0  0  0  0  0  0  0  0  0
  191.1100  176.7750  146.8620 C   0  0  0  0  0  0  0  0  0  0  0  0
  186.4760  177.4910  145.5690 C   0  0  1  0  0  3  0  0  0  0  0  0
  184.5610  178.3150  146.9510 C   0  0  0  0  0  1  0  0  0  0  0  0
  185.9280  177.6600  146.9830 C   0  0  0  0  0  2  0  0  0  0  0  0
  185.8890  178.4970  144.5810 C   0  0  0  0  0  2  0  0  0  0  0  0
  185.9580  178.0190  143.1380 C   0  0  0  0  0  2  0  0  0  0  0  0
  182.1880  178.9720  143.0600 N   0  0  0  0  0  0  0  0  0  0  0  0
  183.5440  178.6980  143.0210 C   0  0  0  0  0  0  0  0  0  0  0  0
  183.1190  179.8460  143.5760 N   0  0  0  0  0  0  0  0  0  0  0  0
  184.6090  177.8370  142.6290 N   0  0  0  0  0  2  0  0  0  0  0  0
  180.8610  178.6170  142.7900 N   0  0  0  0  0  2  0  0  0  0  0  0
  180.1980  179.7890  142.2340 C   0  0  0  0  0  2  0  0  0  0  0  0
  182.3020  179.2640  138.1770 N   0  0  0  0  0  2  0  0  0  0  0  0
  180.0170  178.0670  140.4380 C   0  0  0  0  0  2  0  0  0  0  0  0
  180.7070  178.1440  139.1770 N   0  0  2  0  0  0  0  0  0  0  0  0
  181.5230  177.0680  138.6880 C   0  0  0  0  0  2  0  0  0  0  0  0
  179.8400  179.5550  140.7740 C   0  0  2  0  0  3  0  0  0  0  0  0
  180.8550  180.2430  139.8440 C   0  0  0  0  0  2  0  0  0  0  0  0
  181.6560  179.1240  139.4070 N   0  0  2  0  0  0  0  0  0  0  0  0
  182.4830  177.8560  137.7880 C   0  0  0  0  0  2  0  0  0  0  0  0
  191.1020  177.9840  143.9430 C   0  0  0  0  0  2  0  0  0  0  0  0
  191.5360  176.7610  143.2930 N   0  0  0  0  0  2  0  0  0  0  0  0
  190.4880  176.4000  142.3470 C   0  0  0  0  0  2  0  0  0  0  0  0
  190.4230  177.3920  141.1870 C   0  0  1  0  0  3  0  0  0  0  0  0
  190.6700  176.7260  139.8430 C   0  0  1  0  0  3  0  0  0  0  0  0
  189.7940  177.4690  138.8640 C   0  0  0  0  0  2  0  0  0  0  0  0
  188.5940  177.9200  139.6670 C   0  0  0  0  0  2  0  0  0  0  0  0
  189.0650  178.0760  141.1020 C   0  0  0  0  0  2  0  0  0  0  0  0
  192.1290  176.8370  139.4320 C   0  0  0  0  0  2  0  0  0  0  0  0
  192.4460  175.7890  138.4770 N   0  0  0  0  0  2  0  0  0  0  0  0
  193.1480  176.4150  137.3660 C   0  0  0  0  0  2  0  0  0  0  0  0
  193.8030  175.3580  136.4720 C   0  0  1  0  0  3  0  0  0  0  0  0
  195.1750  175.5980  136.3890 O   0  0  0  0  0  0  0  0  0  0  0  0
  195.4060  175.8830  135.0430 C   0  0  0  0  0  1  0  0  0  0  0  0
  193.5470  173.9080  136.9280 C   0  0  2  0  0  3  0  0  0  0  0  0
  194.8460  173.1830  137.2460 C   0  0  0  0  0  2  0  0  0  0  0  0
  195.0180  171.9830  136.3370 C   0  0  0  0  0  1  0  0  0  0  0  0
  192.7370  173.1010  135.9210 C   0  0  0  0  0  2  0  0  0  0  0  0
  191.7670  173.9560  135.2570 N   0  0  0  0  0  2  0  0  0  0  0  0
  189.7330  172.6370  135.3590 C   0  0  0  0  0  1  0  0  0  0  0  0
  190.5010  173.7980  135.9560 C   0  0  2  0  0  3  0  0  0  0  0  0
  190.0980  176.0660  134.9940 O   0  0  0  0  0  0  0  0  0  0  0  0
  189.6930  175.0520  135.8550 C   0  0  0  0  0  0  0  0  0  0  0  0
  188.6690  175.2130  136.5710 O   0  0  0  0  0  1  0  0  0  0  0  0
  1  3  1  0  0  0  0
  3  2  2  0  0  0  0
  3  7  1  0  0  0  0
  4  8  1  0  0  0  0
  4  2  1  0  0  0  0
  5  1  2  0  0  0  0
  5  4  1  0  0  0  0
  7  6  3  0  0  0  0
  8 11  1  6  0  0  0
  8 10  1  0  0  0  0
  9 10  1  0  0  0  0
 12 11  1  0  0  0  0
 13 15  1  0  0  0  0
 14 13  1  0  0  0  0
 14 15  2  0  0  0  0
 16 14  1  0  0  0  0
 16 12  1  0  0  0  0
 17 13  1  0  0  0  0
 18 17  1  0  0  0  0
 19 25  1  0  0  0  0
 20 23  1  0  0  0  0
 21 22  1  1  0  0  0
 21 25  1  0  0  0  0
 21 20  1  0  0  0  0
 23 18  1  1  0  0  0
 24 23  1  0  0  0  0
 25 24  1  6  0  0  0
 26 19  1  0  0  0  0
 26 22  1  0  0  0  0
 27  1  1  0  0  0  0
 28 27  1  0  0  0  0
 29 28  1  0  0  0  0
 30 29  1  1  0  0  0
 31 35  1  6  0  0  0
 31 30  1  0  0  0  0
 32 33  1  0  0  0  0
 32 31  1  0  0  0  0
 33 34  1  0  0  0  0
 34 30  1  0  0  0  0
 36 35  1  0  0  0  0
 37 36  1  0  0  0  0
 38 41  1  0  0  0  0
 38 37  1  1  0  0  0
 39 38  1  0  0  0  0
 40 39  1  0  0  0  0
 41 44  1  6  0  0  0
 41 42  1  0  0  0  0
 43 42  1  0  0  0  0
 45 44  1  0  0  0  0
 45 47  1  0  0  0  0
 47 46  1  6  0  0  0
 48 49  2  0  0  0  0
 49 47  1  0  0  0  0
 49 50  1  0  0  0  0
M  END
>  <MODEL>
9

>  <REMARK>
 VINA RESULT:      -5.7      1.140      2.251
  Name = 
  24 active torsions:
  status: ('A' for Active; 'I' for Inactive)
    1  A    between atoms: O_2  and  C_16
    2  A    between atoms: N_5  and  CA_17
    3  A    between atoms: N_5  and  C_46
    4  A    between atoms: N_6  and  C_23
    5  A    between atoms: N_6  and  C_31
    6  A    between atoms: N_7  and  N_45
    7  A    between atoms: C_9  and  C_49
    8  A    between atoms: C_14  and  CA_17
    9  A    between atoms: C_16  and  C_23
   10  A    between atoms: C_16  and  C_47
   11  A    between atoms: C_19  and  C_22
   12  A    between atoms: N_20  and  C_22
   13  A    between atoms: N_20  and  C_49
   14  A    between atoms: C_24  and  C_47
   15  A    between atoms: C_25  and  C_34
   16  A    between atoms: C_25  and  N_41
   17  A    between atoms: C_28  and  C_32
   18  A    between atoms: C_29  and  C_38
   19  A    between atoms: C_30  and  C_31
   20  A    between atoms: C_32  and  N_45
   21  A    between atoms: C_33  and  C_35
   22  A    between atoms: C_34  and  C_35
   23  A    between atoms: C_35  and  N_48
   24  A    between atoms: C_46  and  C_47
                            x       y       z     vdW  Elec       q    Type
                         _______ _______ _______ _____ _____    ______ ____

>  <TORSDO>
F 24

$$$$
