=
 OpenBabel10222418243D

 26 29  0  0  1  0  0  0  0  0999 V2000
  188.9890  177.5670  147.9910 C   0  0  0  0  0  1  0  0  0  0  0  0
  188.8210  177.3470  145.5320 C   0  0  0  0  0  0  0  0  0  0  0  0
  191.7730  176.1140  147.6140 C   0  0  0  0  0  1  0  0  0  0  0  0
  190.8800  177.0880  144.2140 C   0  0  0  0  0  0  0  0  0  0  0  0
  189.4800  177.4230  144.3320 C   0  0  0  0  0  0  0  0  0  0  0  0
  188.6890  177.6350  143.2180 C   0  0  0  0  0  0  0  0  0  0  0  0
  191.0450  177.0310  146.6490 C   0  0  1  0  0  3  0  0  0  0  0  0
  191.5750  176.8330  145.2840 N   0  0  0  0  0  0  0  0  0  0  0  0
  189.5090  176.8380  146.7640 C   0  0  1  0  0  3  0  0  0  0  0  0
  187.3430  177.7620  143.5450 C   0  0  0  0  0  0  0  0  0  0  0  0
  187.1720  177.5270  145.2210 S   0  0  0  0  0  0  0  0  0  0  0  0
  190.7350  177.1750  141.8200 C   0  0  0  0  0  3  0  0  0  0  0  0
  191.4350  176.9410  142.9010 N   0  0  0  0  0  0  0  0  0  0  0  0
  189.2850  177.6440  141.8370 C   0  0  0  0  0  2  0  0  0  0  0  0
  186.2920  177.9180  142.5820 N   0  0  0  0  0  2  0  0  0  0  0  0
  182.6880  178.6200  141.9520 C   0  0  0  0  0  3  0  0  0  0  0  0
  182.2390  179.0060  143.2190 C   0  0  0  0  0  0  0  0  0  0  0  0
  184.0240  178.2590  141.7590 C   0  0  0  0  0  3  0  0  0  0  0  0
  184.9260  178.2780  142.8280 C   0  0  0  0  0  0  0  0  0  0  0  0
  183.1420  179.0400  144.2910 C   0  0  0  0  0  3  0  0  0  0  0  0
  184.4780  178.6790  144.0950 C   0  0  0  0  0  3  0  0  0  0  0  0
  180.8090  179.4030  143.4000 C   0  0  1  0  0  3  0  0  0  0  0  0
  180.4260  180.3270  142.4250 O   0  0  0  0  0  1  0  0  0  0  0  0
  179.9070  178.2130  143.3700 C   0  0  0  0  0  0  0  0  0  0  0  0
  179.7430  177.5280  144.4120 O   0  0  0  0  0  1  0  0  0  0  0  0
  179.2730  177.8390  142.1910 O   0  0  0  0  0  0  0  0  0  0  0  0
  2  9  1  0  0  0  0
  4  5  1  0  0  0  0
  4  8  2  0  0  0  0
  5  2  2  0  0  0  0
  6 10  2  0  0  0  0
  6  5  1  0  0  0  0
  7  9  1  0  0  0  0
  7  3  1  1  0  0  0
  8  7  1  0  0  0  0
  9  1  1  1  0  0  0
 10 11  1  0  0  0  0
 11  2  1  0  0  0  0
 12 14  1  0  0  0  0
 12 13  2  0  0  0  0
 13  4  1  0  0  0  0
 14  6  1  0  0  0  0
 15 19  1  0  0  0  0
 15 10  1  0  0  0  0
 16 17  1  0  0  0  0
 17 22  1  0  0  0  0
 17 20  2  0  0  0  0
 18 16  2  0  0  0  0
 18 19  1  0  0  0  0
 19 21  2  0  0  0  0
 21 20  1  0  0  0  0
 22 23  1  6  0  0  0
 24 22  1  0  0  0  0
 24 25  1  0  0  0  0
 26 24  2  0  0  0  0
M  END
>  <MODEL>
1

>  <REMARK>
 VINA RESULT:      -9.8      0.000      0.000
  Name = 
  4 active torsions:
  status: ('A' for Active; 'I' for Inactive)
    1  A    between atoms: N_4  and  C_16
    2  A    between atoms: N_4  and  C_19
    3  A    between atoms: C_10  and  C_11
    4  A    between atoms: C_11  and  C_14
                            x       y       z     vdW  Elec       q    Type
                         _______ _______ _______ _____ _____    ______ ____

>  <TORSDO>
F 4

$$$$
=
 OpenBabel10222418243D

 26 29  0  0  1  0  0  0  0  0999 V2000
  190.2050  176.7950  146.6940 C   0  0  0  0  0  1  0  0  0  0  0  0
  188.5880  177.6340  145.0180 C   0  0  0  0  0  0  0  0  0  0  0  0
  188.2190  178.0870  148.7890 C   0  0  0  0  0  1  0  0  0  0  0  0
  186.2680  178.0610  145.7080 C   0  0  0  0  0  0  0  0  0  0  0  0
  187.2680  177.8120  144.6960 C   0  0  0  0  0  0  0  0  0  0  0  0
  186.9840  177.9430  143.3490 C   0  0  0  0  0  0  0  0  0  0  0  0
  187.9060  177.4960  147.4280 C   0  0  1  0  0  3  0  0  0  0  0  0
  186.5910  177.9890  146.9660 N   0  0  0  0  0  0  0  0  0  0  0  0
  189.0670  177.7670  146.4330 C   0  0  1  0  0  3  0  0  0  0  0  0
  188.1240  177.8380  142.5590 C   0  0  0  0  0  0  0  0  0  0  0  0
  189.4730  177.6590  143.5800 S   0  0  0  0  0  0  0  0  0  0  0  0
  184.6420  178.5860  144.0220 C   0  0  0  0  0  3  0  0  0  0  0  0
  184.9680  178.4900  145.2870 N   0  0  0  0  0  0  0  0  0  0  0  0
  185.5860  178.2360  142.8780 C   0  0  0  0  0  2  0  0  0  0  0  0
  188.1350  178.0060  141.1350 N   0  0  0  0  0  2  0  0  0  0  0  0
  191.4040  176.8000  139.8170 C   0  0  0  0  0  3  0  0  0  0  0  0
  191.1450  176.6900  138.4480 C   0  0  0  0  0  0  0  0  0  0  0  0
  190.4020  177.2300  140.6910 C   0  0  0  0  0  3  0  0  0  0  0  0
  189.1290  177.5530  140.2070 C   0  0  0  0  0  0  0  0  0  0  0  0
  189.8760  177.0260  137.9550 C   0  0  0  0  0  3  0  0  0  0  0  0
  188.8750  177.4550  138.8310 C   0  0  0  0  0  3  0  0  0  0  0  0
  192.2370  176.2440  137.5290 C   0  0  1  0  0  3  0  0  0  0  0  0
  193.4380  176.8870  137.8390 O   0  0  0  0  0  1  0  0  0  0  0  0
  192.4150  174.7620  137.5770 C   0  0  0  0  0  0  0  0  0  0  0  0
  191.4040  174.0130  137.6050 O   0  0  0  0  0  0  0  0  0  0  0  0
  193.6870  174.2060  137.6250 O   0  0  0  0  0  1  0  0  0  0  0  0
  2  9  1  0  0  0  0
  4  8  2  0  0  0  0
  5  2  2  0  0  0  0
  5  4  1  0  0  0  0
  6  5  1  0  0  0  0
  7  3  1  1  0  0  0
  8  7  1  0  0  0  0
  9  1  1  1  0  0  0
  9  7  1  0  0  0  0
 10  6  2  0  0  0  0
 10 11  1  0  0  0  0
 11  2  1  0  0  0  0
 12 13  2  0  0  0  0
 13  4  1  0  0  0  0
 14  6  1  0  0  0  0
 14 12  1  0  0  0  0
 15 10  1  0  0  0  0
 16 18  1  0  0  0  0
 17 16  2  0  0  0  0
 19 18  2  0  0  0  0
 19 15  1  0  0  0  0
 20 17  1  0  0  0  0
 20 21  2  0  0  0  0
 21 19  1  0  0  0  0
 22 24  1  0  0  0  0
 22 23  1  1  0  0  0
 22 17  1  0  0  0  0
 24 25  2  0  0  0  0
 24 26  1  0  0  0  0
M  END
>  <MODEL>
2

>  <REMARK>
 VINA RESULT:      -9.0      5.445      7.924
  Name = 
  4 active torsions:
  status: ('A' for Active; 'I' for Inactive)
    1  A    between atoms: N_4  and  C_16
    2  A    between atoms: N_4  and  C_19
    3  A    between atoms: C_10  and  C_11
    4  A    between atoms: C_11  and  C_14
                            x       y       z     vdW  Elec       q    Type
                         _______ _______ _______ _____ _____    ______ ____

>  <TORSDO>
F 4

$$$$
=
 OpenBabel10222418243D

 26 29  0  0  1  0  0  0  0  0999 V2000
  190.4890  176.8840  146.5380 C   0  0  0  0  0  1  0  0  0  0  0  0
  188.8820  177.6950  144.8390 C   0  0  0  0  0  0  0  0  0  0  0  0
  188.3160  177.8790  148.6090 C   0  0  0  0  0  1  0  0  0  0  0  0
  186.5070  177.8930  145.4410 C   0  0  0  0  0  0  0  0  0  0  0  0
  187.5670  177.7880  144.4660 C   0  0  0  0  0  0  0  0  0  0  0  0
  187.3310  177.9810  143.1170 C   0  0  0  0  0  0  0  0  0  0  0  0
  188.1110  177.3530  147.2020 C   0  0  1  0  0  3  0  0  0  0  0  0
  186.7810  177.7670  146.7070 N   0  0  0  0  0  0  0  0  0  0  0  0
  189.2870  177.7770  146.2810 C   0  0  1  0  0  3  0  0  0  0  0  0
  188.5090  178.0170  142.3770 C   0  0  0  0  0  0  0  0  0  0  0  0
  189.8230  177.8820  143.4500 S   0  0  0  0  0  0  0  0  0  0  0  0
  184.9180  178.3910  143.7140 C   0  0  0  0  0  3  0  0  0  0  0  0
  185.1950  178.2430  144.9850 N   0  0  0  0  0  0  0  0  0  0  0  0
  185.9350  178.1900  142.5970 C   0  0  0  0  0  2  0  0  0  0  0  0
  188.5670  178.2740  140.9680 N   0  0  0  0  0  2  0  0  0  0  0  0
  188.9610  176.2320  137.8760 C   0  0  0  0  0  3  0  0  0  0  0  0
  190.3040  175.8520  137.9470 C   0  0  0  0  0  0  0  0  0  0  0  0
  188.4030  177.0350  138.8760 C   0  0  0  0  0  3  0  0  0  0  0  0
  189.1820  177.4670  139.9550 C   0  0  0  0  0  0  0  0  0  0  0  0
  191.0860  176.2700  139.0330 C   0  0  0  0  0  3  0  0  0  0  0  0
  190.5260  177.0730  140.0310 C   0  0  0  0  0  3  0  0  0  0  0  0
  190.8750  174.9790  136.8740 C   0  0  1  0  0  3  0  0  0  0  0  0
  190.6500  173.6310  137.1620 O   0  0  0  0  0  1  0  0  0  0  0  0
  190.3110  175.3260  135.5360 C   0  0  0  0  0  0  0  0  0  0  0  0
  189.5570  174.5090  134.9460 O   0  0  0  0  0  1  0  0  0  0  0  0
  190.6380  176.5290  134.9230 O   0  0  0  0  0  0  0  0  0  0  0  0
  2  9  1  0  0  0  0
  4  8  2  0  0  0  0
  5  2  2  0  0  0  0
  5  4  1  0  0  0  0
  6  5  1  0  0  0  0
  7  3  1  1  0  0  0
  8  7  1  0  0  0  0
  9  1  1  6  0  0  0
  9  7  1  0  0  0  0
 10  6  2  0  0  0  0
 10 11  1  0  0  0  0
 11  2  1  0  0  0  0
 12 13  2  0  0  0  0
 13  4  1  0  0  0  0
 14  6  1  0  0  0  0
 14 12  1  0  0  0  0
 15 10  1  0  0  0  0
 16 17  2  0  0  0  0
 16 18  1  0  0  0  0
 17 20  1  0  0  0  0
 18 19  2  0  0  0  0
 19 21  1  0  0  0  0
 19 15  1  0  0  0  0
 20 21  2  0  0  0  0
 22 23  1  1  0  0  0
 22 17  1  0  0  0  0
 24 22  1  0  0  0  0
 25 24  1  0  0  0  0
 26 24  2  0  0  0  0
M  END
>  <MODEL>
3

>  <REMARK>
 VINA RESULT:      -8.5      5.204      7.528
  Name = 
  4 active torsions:
  status: ('A' for Active; 'I' for Inactive)
    1  A    between atoms: N_4  and  C_16
    2  A    between atoms: N_4  and  C_19
    3  A    between atoms: C_10  and  C_11
    4  A    between atoms: C_11  and  C_14
                            x       y       z     vdW  Elec       q    Type
                         _______ _______ _______ _____ _____    ______ ____

>  <TORSDO>
F 4

$$$$
=
 OpenBabel10222418243D

 26 29  0  0  1  0  0  0  0  0999 V2000
  189.6430  176.7110  142.7480 C   0  0  0  0  0  1  0  0  0  0  0  0
  187.4790  177.7940  143.2680 C   0  0  0  0  0  0  0  0  0  0  0  0
  190.3010  177.2870  145.7880 C   0  0  0  0  0  1  0  0  0  0  0  0
  186.7020  177.8490  145.6000 C   0  0  0  0  0  0  0  0  0  0  0  0
  186.4640  177.9360  144.1780 C   0  0  0  0  0  0  0  0  0  0  0  0
  185.2510  178.3660  143.6720 C   0  0  0  0  0  0  0  0  0  0  0  0
  188.9530  177.0210  145.1450 C   0  0  1  0  0  3  0  0  0  0  0  0
  187.8770  177.5000  146.0380 N   0  0  0  0  0  0  0  0  0  0  0  0
  188.9010  177.6190  143.7130 C   0  0  1  0  0  3  0  0  0  0  0  0
  185.2930  178.5500  142.2930 C   0  0  0  0  0  0  0  0  0  0  0  0
  186.8770  178.2400  141.7560 S   0  0  0  0  0  0  0  0  0  0  0  0
  184.4790  178.6300  146.0560 C   0  0  0  0  0  3  0  0  0  0  0  0
  185.6570  178.2580  146.4900 N   0  0  0  0  0  0  0  0  0  0  0  0
  184.0880  178.6470  144.5830 C   0  0  0  0  0  2  0  0  0  0  0  0
  184.2000  179.0580  141.5160 N   0  0  0  0  0  2  0  0  0  0  0  0
  181.9630  176.6040  139.8270 C   0  0  0  0  0  3  0  0  0  0  0  0
  180.7030  176.9850  140.2970 C   0  0  0  0  0  0  0  0  0  0  0  0
  183.1060  177.2920  140.2410 C   0  0  0  0  0  3  0  0  0  0  0  0
  183.0050  178.3680  141.1300 C   0  0  0  0  0  0  0  0  0  0  0  0
  180.5930  178.0710  141.1770 C   0  0  0  0  0  3  0  0  0  0  0  0
  181.7380  178.7580  141.5900 C   0  0  0  0  0  3  0  0  0  0  0  0
  179.4910  176.2440  139.8280 C   0  0  1  0  0  3  0  0  0  0  0  0
  179.5230  176.0720  138.4420 O   0  0  0  0  0  1  0  0  0  0  0  0
  179.3650  174.9230  140.5120 C   0  0  0  0  0  0  0  0  0  0  0  0
  179.0210  174.8770  141.7220 O   0  0  0  0  0  1  0  0  0  0  0  0
  179.6540  173.7470  139.8320 O   0  0  0  0  0  0  0  0  0  0  0  0
  2  9  1  0  0  0  0
  2  5  2  0  0  0  0
  4  8  2  0  0  0  0
  4 13  1  0  0  0  0
  5  4  1  0  0  0  0
  6  5  1  0  0  0  0
  6 14  1  0  0  0  0
  7  3  1  1  0  0  0
  7  8  1  0  0  0  0
  9  1  1  6  0  0  0
  9  7  1  0  0  0  0
 10  6  2  0  0  0  0
 11 10  1  0  0  0  0
 11  2  1  0  0  0  0
 12 13  2  0  0  0  0
 14 12  1  0  0  0  0
 15 10  1  0  0  0  0
 16 18  2  0  0  0  0
 16 17  1  0  0  0  0
 17 20  2  0  0  0  0
 18 19  1  0  0  0  0
 19 15  1  0  0  0  0
 19 21  2  0  0  0  0
 20 21  1  0  0  0  0
 22 23  1  6  0  0  0
 22 17  1  0  0  0  0
 22 24  1  0  0  0  0
 24 25  1  0  0  0  0
 26 24  2  0  0  0  0
M  END
>  <MODEL>
4

>  <REMARK>
 VINA RESULT:      -8.3      2.627      4.234
  Name = 
  4 active torsions:
  status: ('A' for Active; 'I' for Inactive)
    1  A    between atoms: N_4  and  C_16
    2  A    between atoms: N_4  and  C_19
    3  A    between atoms: C_10  and  C_11
    4  A    between atoms: C_11  and  C_14
                            x       y       z     vdW  Elec       q    Type
                         _______ _______ _______ _____ _____    ______ ____

>  <TORSDO>
F 4

$$$$
=
 OpenBabel10222418243D

 26 29  0  0  1  0  0  0  0  0999 V2000
  189.7180  176.7000  144.1610 C   0  0  0  0  0  1  0  0  0  0  0  0
  187.5670  177.8870  143.8580 C   0  0  0  0  0  0  0  0  0  0  0  0
  189.3060  177.3920  147.2200 C   0  0  0  0  0  1  0  0  0  0  0  0
  186.0310  178.0790  145.7680 C   0  0  0  0  0  0  0  0  0  0  0  0
  186.3070  178.1090  144.3510 C   0  0  0  0  0  0  0  0  0  0  0  0
  185.3700  178.5600  143.4400 C   0  0  0  0  0  0  0  0  0  0  0  0
  188.2540  177.1470  146.1550 C   0  0  1  0  0  3  0  0  0  0  0  0
  186.9610  177.7070  146.5990 N   0  0  0  0  0  0  0  0  0  0  0  0
  188.7340  177.6790  144.7780 C   0  0  1  0  0  3  0  0  0  0  0  0
  185.8980  178.6780  142.1580 C   0  0  0  0  0  0  0  0  0  0  0  0
  187.5520  178.2850  142.2180 S   0  0  0  0  0  0  0  0  0  0  0  0
  183.8320  178.9640  145.3940 C   0  0  0  0  0  3  0  0  0  0  0  0
  184.7640  178.5680  146.2240 N   0  0  0  0  0  0  0  0  0  0  0  0
  183.9790  178.9270  143.8780 C   0  0  0  0  0  2  0  0  0  0  0  0
  185.1720  179.1910  141.0320 N   0  0  0  0  0  2  0  0  0  0  0  0
  182.6580  176.9250  139.4760 C   0  0  0  0  0  3  0  0  0  0  0  0
  183.0550  176.9240  138.1360 C   0  0  0  0  0  0  0  0  0  0  0  0
  183.3610  177.6800  140.4180 C   0  0  0  0  0  3  0  0  0  0  0  0
  184.4680  178.4450  140.0320 C   0  0  0  0  0  0  0  0  0  0  0  0
  184.1710  177.6770  137.7450 C   0  0  0  0  0  3  0  0  0  0  0  0
  184.8730  178.4320  138.6890 C   0  0  0  0  0  3  0  0  0  0  0  0
  182.2970  176.0960  137.1470 C   0  0  1  0  0  3  0  0  0  0  0  0
  182.7390  176.3520  135.8470 O   0  0  0  0  0  1  0  0  0  0  0  0
  182.4130  174.6400  137.4580 C   0  0  0  0  0  0  0  0  0  0  0  0
  181.3750  173.9650  137.6830 O   0  0  0  0  0  1  0  0  0  0  0  0
  183.6610  174.0320  137.5310 O   0  0  0  0  0  0  0  0  0  0  0  0
  2  5  2  0  0  0  0
  2  9  1  0  0  0  0
  4 13  1  0  0  0  0
  4  8  2  0  0  0  0
  5  4  1  0  0  0  0
  6 14  1  0  0  0  0
  6  5  1  0  0  0  0
  7  8  1  0  0  0  0
  7  3  1  1  0  0  0
  9  1  1  6  0  0  0
  9  7  1  0  0  0  0
 10 11  1  0  0  0  0
 10  6  2  0  0  0  0
 11  2  1  0  0  0  0
 12 13  2  0  0  0  0
 14 12  1  0  0  0  0
 15 10  1  0  0  0  0
 16 18  1  0  0  0  0
 17 16  2  0  0  0  0
 19 18  2  0  0  0  0
 19 15  1  0  0  0  0
 20 17  1  0  0  0  0
 20 21  2  0  0  0  0
 21 19  1  0  0  0  0
 22 23  1  6  0  0  0
 22 24  1  0  0  0  0
 22 17  1  0  0  0  0
 24 26  2  0  0  0  0
 24 25  1  0  0  0  0
M  END
>  <MODEL>
5

>  <REMARK>
 VINA RESULT:      -8.3      3.574      5.200
  Name = 
  4 active torsions:
  status: ('A' for Active; 'I' for Inactive)
    1  A    between atoms: N_4  and  C_16
    2  A    between atoms: N_4  and  C_19
    3  A    between atoms: C_10  and  C_11
    4  A    between atoms: C_11  and  C_14
                            x       y       z     vdW  Elec       q    Type
                         _______ _______ _______ _____ _____    ______ ____

>  <TORSDO>
F 4

$$$$
=
 OpenBabel10222418243D

 26 29  0  0  1  0  0  0  0  0999 V2000
  193.1770  176.1210  138.0570 C   0  0  0  0  0  1  0  0  0  0  0  0
  190.8250  176.6520  138.6170 C   0  0  0  0  0  0  0  0  0  0  0  0
  191.9080  174.5140  135.6460 C   0  0  0  0  0  1  0  0  0  0  0  0
  189.1230  176.5410  136.8470 C   0  0  0  0  0  0  0  0  0  0  0  0
  189.5880  176.9940  138.1370 C   0  0  0  0  0  0  0  0  0  0  0  0
  188.7410  177.6180  139.0340 C   0  0  0  0  0  0  0  0  0  0  0  0
  191.3780  175.7540  136.3400 C   0  0  1  0  0  3  0  0  0  0  0  0
  189.9350  175.9010  136.0560 N   0  0  0  0  0  0  0  0  0  0  0  0
  191.7250  175.7250  137.8530 C   0  0  1  0  0  3  0  0  0  0  0  0
  189.3370  177.8070  140.2760 C   0  0  0  0  0  0  0  0  0  0  0  0
  190.8910  177.1150  140.2390 S   0  0  0  0  0  0  0  0  0  0  0  0
  186.9110  177.3410  137.3220 C   0  0  0  0  0  3  0  0  0  0  0  0
  187.7390  176.7170  136.5220 N   0  0  0  0  0  0  0  0  0  0  0  0
  187.3250  177.9580  138.6530 C   0  0  0  0  0  2  0  0  0  0  0  0
  188.6660  178.3650  141.4150 N   0  0  0  0  0  2  0  0  0  0  0  0
  187.8850  176.8340  144.7200 C   0  0  0  0  0  3  0  0  0  0  0  0
  188.9890  177.2160  145.4870 C   0  0  0  0  0  0  0  0  0  0  0  0
  187.7950  177.2150  143.3790 C   0  0  0  0  0  3  0  0  0  0  0  0
  188.8060  177.9800  142.7880 C   0  0  0  0  0  0  0  0  0  0  0  0
  190.0000  177.9940  144.9050 C   0  0  0  0  0  3  0  0  0  0  0  0
  189.9070  178.3740  143.5630 C   0  0  0  0  0  3  0  0  0  0  0  0
  189.0580  176.8100  146.9250 C   0  0  1  0  0  3  0  0  0  0  0  0
  190.3700  176.4960  147.2880 O   0  0  0  0  0  1  0  0  0  0  0  0
  188.5150  177.8790  147.8160 C   0  0  0  0  0  0  0  0  0  0  0  0
  189.2670  178.4240  148.6660 O   0  0  0  0  0  1  0  0  0  0  0  0
  187.1790  178.2520  147.7360 O   0  0  0  0  0  0  0  0  0  0  0  0
  2 11  1  0  0  0  0
  4  5  1  0  0  0  0
  5  2  2  0  0  0  0
  5  6  1  0  0  0  0
  6 10  2  0  0  0  0
  7  3  1  1  0  0  0
  7  9  1  0  0  0  0
  8  7  1  0  0  0  0
  8  4  2  0  0  0  0
  9  1  1  6  0  0  0
  9  2  1  0  0  0  0
 10 15  1  0  0  0  0
 11 10  1  0  0  0  0
 12 14  1  0  0  0  0
 13  4  1  0  0  0  0
 13 12  2  0  0  0  0
 14  6  1  0  0  0  0
 15 19  1  0  0  0  0
 16 17  1  0  0  0  0
 17 22  1  0  0  0  0
 18 16  2  0  0  0  0
 19 18  1  0  0  0  0
 19 21  2  0  0  0  0
 20 17  2  0  0  0  0
 21 20  1  0  0  0  0
 22 23  1  1  0  0  0
 22 24  1  0  0  0  0
 24 25  1  0  0  0  0
 26 24  2  0  0  0  0
M  END
>  <MODEL>
6

>  <REMARK>
 VINA RESULT:      -8.2      5.045      7.847
  Name = 
  4 active torsions:
  status: ('A' for Active; 'I' for Inactive)
    1  A    between atoms: N_4  and  C_16
    2  A    between atoms: N_4  and  C_19
    3  A    between atoms: C_10  and  C_11
    4  A    between atoms: C_11  and  C_14
                            x       y       z     vdW  Elec       q    Type
                         _______ _______ _______ _____ _____    ______ ____

>  <TORSDO>
F 4

$$$$
=
 OpenBabel10222418243D

 26 29  0  0  1  0  0  0  0  0999 V2000
  184.8940  178.9590  138.9520 C   0  0  0  0  0  1  0  0  0  0  0  0
  183.9200  178.5560  141.1920 C   0  0  0  0  0  0  0  0  0  0  0  0
  182.0070  178.1980  137.9090 C   0  0  0  0  0  1  0  0  0  0  0  0
  181.4840  178.7210  141.4810 C   0  0  0  0  0  0  0  0  0  0  0  0
  182.8300  178.7150  142.0070 C   0  0  0  0  0  0  0  0  0  0  0  0
  183.0750  178.6630  143.3660 C   0  0  0  0  0  0  0  0  0  0  0  0
  182.3970  178.8520  139.2200 C   0  0  1  0  0  3  0  0  0  0  0  0
  181.2940  178.7060  140.1930 N   0  0  0  0  0  0  0  0  0  0  0  0
  183.7600  178.3030  139.7220 C   0  0  1  0  0  3  0  0  0  0  0  0
  184.4250  178.4820  143.6500 C   0  0  0  0  0  0  0  0  0  0  0  0
  185.2660  178.3150  142.1810 S   0  0  0  0  0  0  0  0  0  0  0  0
  180.5780  178.6250  143.7010 C   0  0  0  0  0  3  0  0  0  0  0  0
  180.3930  178.6320  142.4050 N   0  0  0  0  0  0  0  0  0  0  0  0
  181.9480  178.7310  144.3600 C   0  0  0  0  0  2  0  0  0  0  0  0
  184.9550  178.3220  144.9730 N   0  0  0  0  0  2  0  0  0  0  0  0
  188.0240  177.9770  147.0570 C   0  0  0  0  0  3  0  0  0  0  0  0
  188.9440  177.4640  146.1400 C   0  0  0  0  0  0  0  0  0  0  0  0
  186.7120  178.2500  146.6600 C   0  0  0  0  0  3  0  0  0  0  0  0
  186.3050  178.0120  145.3430 C   0  0  0  0  0  0  0  0  0  0  0  0
  188.5470  177.2350  144.8150 C   0  0  0  0  0  3  0  0  0  0  0  0
  187.2340  177.5090  144.4200 C   0  0  0  0  0  3  0  0  0  0  0  0
  190.3480  177.1940  146.5820 C   0  0  1  0  0  3  0  0  0  0  0  0
  190.4110  176.0180  147.3340 O   0  0  0  0  0  1  0  0  0  0  0  0
  191.2780  177.1160  145.4170 C   0  0  0  0  0  0  0  0  0  0  0  0
  191.7200  175.9980  145.0450 O   0  0  0  0  0  1  0  0  0  0  0  0
  191.6850  178.2720  144.7620 O   0  0  0  0  0  0  0  0  0  0  0  0
  2  5  2  0  0  0  0
  2 11  1  0  0  0  0
  4  5  1  0  0  0  0
  4 13  1  0  0  0  0
  5  6  1  0  0  0  0
  6 10  2  0  0  0  0
  6 14  1  0  0  0  0
  7  3  1  6  0  0  0
  7  9  1  0  0  0  0
  7  8  1  0  0  0  0
  8  4  2  0  0  0  0
  9  1  1  6  0  0  0
  9  2  1  0  0  0  0
 10 15  1  0  0  0  0
 11 10  1  0  0  0  0
 12 14  1  0  0  0  0
 13 12  2  0  0  0  0
 15 19  1  0  0  0  0
 17 22  1  0  0  0  0
 17 16  2  0  0  0  0
 18 16  1  0  0  0  0
 19 18  2  0  0  0  0
 20 17  1  0  0  0  0
 21 20  2  0  0  0  0
 21 19  1  0  0  0  0
 22 23  1  6  0  0  0
 24 22  1  0  0  0  0
 25 24  1  0  0  0  0
 26 24  2  0  0  0  0
M  END
>  <MODEL>
7

>  <REMARK>
 VINA RESULT:      -8.1      4.692      8.948
  Name = 
  4 active torsions:
  status: ('A' for Active; 'I' for Inactive)
    1  A    between atoms: N_4  and  C_16
    2  A    between atoms: N_4  and  C_19
    3  A    between atoms: C_10  and  C_11
    4  A    between atoms: C_11  and  C_14
                            x       y       z     vdW  Elec       q    Type
                         _______ _______ _______ _____ _____    ______ ____

>  <TORSDO>
F 4

$$$$
=
 OpenBabel10222418243D

 26 29  0  0  1  0  0  0  0  0999 V2000
  192.0140  174.9190  137.5990 C   0  0  0  0  0  1  0  0  0  0  0  0
  189.8520  176.0040  138.1210 C   0  0  0  0  0  0  0  0  0  0  0  0
  190.2770  173.1040  135.6780 C   0  0  0  0  0  1  0  0  0  0  0  0
  188.0120  175.8430  136.4990 C   0  0  0  0  0  0  0  0  0  0  0  0
  188.6590  176.4670  137.6290 C   0  0  0  0  0  0  0  0  0  0  0  0
  188.0170  177.4220  138.3950 C   0  0  0  0  0  0  0  0  0  0  0  0
  190.0390  174.5430  136.0900 C   0  0  1  0  0  3  0  0  0  0  0  0
  188.6260  174.9020  135.8420 N   0  0  0  0  0  0  0  0  0  0  0  0
  190.5020  174.7780  137.5540 C   0  0  1  0  0  3  0  0  0  0  0  0
  188.7410  177.7580  139.5340 C   0  0  0  0  0  0  0  0  0  0  0  0
  190.1370  176.7860  139.5900 S   0  0  0  0  0  0  0  0  0  0  0  0
  186.0280  177.1400  136.8720 C   0  0  0  0  0  3  0  0  0  0  0  0
  186.6590  176.2090  136.2020 N   0  0  0  0  0  0  0  0  0  0  0  0
  186.6580  177.9390  138.0070 C   0  0  0  0  0  2  0  0  0  0  0  0
  188.2810  178.6680  140.5420 N   0  0  0  0  0  2  0  0  0  0  0  0
  185.8430  178.2620  143.3300 C   0  0  0  0  0  3  0  0  0  0  0  0
  186.6550  177.7790  144.3600 C   0  0  0  0  0  0  0  0  0  0  0  0
  186.3910  178.5460  142.0760 C   0  0  0  0  0  3  0  0  0  0  0  0
  187.7560  178.3480  141.8360 C   0  0  0  0  0  0  0  0  0  0  0  0
  188.0260  177.5930  144.1310 C   0  0  0  0  0  3  0  0  0  0  0  0
  188.5710  177.8770  142.8760 C   0  0  0  0  0  3  0  0  0  0  0  0
  186.0510  177.4980  145.6990 C   0  0  1  0  0  3  0  0  0  0  0  0
  187.0410  177.1790  146.6310 O   0  0  0  0  0  1  0  0  0  0  0  0
  185.2380  178.6540  146.1810 C   0  0  0  0  0  0  0  0  0  0  0  0
  185.7550  179.5010  146.9550 O   0  0  0  0  0  1  0  0  0  0  0  0
  183.9060  178.7840  145.8060 O   0  0  0  0  0  0  0  0  0  0  0  0
  2 11  1  0  0  0  0
  4  5  1  0  0  0  0
  5  2  2  0  0  0  0
  5  6  1  0  0  0  0
  6 10  2  0  0  0  0
  7  3  1  1  0  0  0
  7  9  1  0  0  0  0
  8  7  1  0  0  0  0
  8  4  2  0  0  0  0
  9  1  1  6  0  0  0
  9  2  1  0  0  0  0
 10 11  1  0  0  0  0
 10 15  1  0  0  0  0
 12 14  1  0  0  0  0
 13  4  1  0  0  0  0
 13 12  2  0  0  0  0
 14  6  1  0  0  0  0
 15 19  1  0  0  0  0
 16 17  1  0  0  0  0
 17 22  1  0  0  0  0
 18 16  2  0  0  0  0
 19 18  1  0  0  0  0
 19 21  2  0  0  0  0
 20 17  2  0  0  0  0
 21 20  1  0  0  0  0
 22 24  1  0  0  0  0
 22 23  1  1  0  0  0
 24 25  1  0  0  0  0
 26 24  2  0  0  0  0
M  END
>  <MODEL>
8

>  <REMARK>
 VINA RESULT:      -7.9      4.726      7.098
  Name = 
  4 active torsions:
  status: ('A' for Active; 'I' for Inactive)
    1  A    between atoms: N_4  and  C_16
    2  A    between atoms: N_4  and  C_19
    3  A    between atoms: C_10  and  C_11
    4  A    between atoms: C_11  and  C_14
                            x       y       z     vdW  Elec       q    Type
                         _______ _______ _______ _____ _____    ______ ____

>  <TORSDO>
F 4

$$$$
=
 OpenBabel10222418243D

 26 29  0  0  1  0  0  0  0  0999 V2000
  185.3450  178.8560  138.7680 C   0  0  0  0  0  1  0  0  0  0  0  0
  184.4850  178.5280  141.0660 C   0  0  0  0  0  0  0  0  0  0  0  0
  182.3530  178.2970  137.9080 C   0  0  0  0  0  1  0  0  0  0  0  0
  182.0890  178.8640  141.5020 C   0  0  0  0  0  0  0  0  0  0  0  0
  183.4610  178.7650  141.9450 C   0  0  0  0  0  0  0  0  0  0  0  0
  183.7860  178.6990  143.2870 C   0  0  0  0  0  0  0  0  0  0  0  0
  182.8680  178.9260  139.1890 C   0  0  1  0  0  3  0  0  0  0  0  0
  181.8200  178.8590  140.2290 N   0  0  0  0  0  0  0  0  0  0  0  0
  184.2180  178.2840  139.6100 C   0  0  1  0  0  3  0  0  0  0  0  0
  185.1350  178.4250  143.4880 C   0  0  0  0  0  0  0  0  0  0  0  0
  185.8700  178.1960  141.9720 S   0  0  0  0  0  0  0  0  0  0  0  0
  181.3170  178.8370  143.7740 C   0  0  0  0  0  3  0  0  0  0  0  0
  181.0540  178.8540  142.4920 N   0  0  0  0  0  0  0  0  0  0  0  0
  182.7290  178.8490  144.3470 C   0  0  0  0  0  2  0  0  0  0  0  0
  185.7330  178.2310  144.7770 N   0  0  0  0  0  2  0  0  0  0  0  0
  189.2610  177.1580  144.2530 C   0  0  0  0  0  3  0  0  0  0  0  0
  189.7610  177.1490  145.5580 C   0  0  0  0  0  0  0  0  0  0  0  0
  187.9340  177.5220  144.0100 C   0  0  0  0  0  3  0  0  0  0  0  0
  187.0920  177.8820  145.0680 C   0  0  0  0  0  0  0  0  0  0  0  0
  188.9190  177.4950  146.6240 C   0  0  0  0  0  3  0  0  0  0  0  0
  187.5920  177.8580  146.3780 C   0  0  0  0  0  3  0  0  0  0  0  0
  191.1810  176.7410  145.7960 C   0  0  1  0  0  3  0  0  0  0  0  0
  192.0600  177.7370  145.3650 O   0  0  0  0  0  1  0  0  0  0  0  0
  191.4200  176.4250  147.2360 C   0  0  0  0  0  0  0  0  0  0  0  0
  191.3710  175.2310  147.6290 O   0  0  0  0  0  0  0  0  0  0  0  0
  191.6650  177.4430  148.1490 O   0  0  0  0  0  1  0  0  0  0  0  0
  2  5  2  0  0  0  0
  2 11  1  0  0  0  0
  4  5  1  0  0  0  0
  4 13  1  0  0  0  0
  5  6  1  0  0  0  0
  6 10  2  0  0  0  0
  6 14  1  0  0  0  0
  7  3  1  6  0  0  0
  7  9  1  0  0  0  0
  7  8  1  0  0  0  0
  8  4  2  0  0  0  0
  9  1  1  6  0  0  0
  9  2  1  0  0  0  0
 10 15  1  0  0  0  0
 11 10  1  0  0  0  0
 12 14  1  0  0  0  0
 13 12  2  0  0  0  0
 15 19  1  0  0  0  0
 16 17  1  0  0  0  0
 17 22  1  0  0  0  0
 17 20  2  0  0  0  0
 18 16  2  0  0  0  0
 18 19  1  0  0  0  0
 19 21  2  0  0  0  0
 21 20  1  0  0  0  0
 22 23  1  1  0  0  0
 22 24  1  0  0  0  0
 24 25  2  0  0  0  0
 24 26  1  0  0  0  0
M  END
>  <MODEL>
9

>  <REMARK>
 VINA RESULT:      -7.9      4.795      8.908
  Name = 
  4 active torsions:
  status: ('A' for Active; 'I' for Inactive)
    1  A    between atoms: N_4  and  C_16
    2  A    between atoms: N_4  and  C_19
    3  A    between atoms: C_10  and  C_11
    4  A    between atoms: C_11  and  C_14
                            x       y       z     vdW  Elec       q    Type
                         _______ _______ _______ _____ _____    ______ ____

>  <TORSDO>
F 4

$$$$
