=
 OpenBabel10222420313D

 37 42  0  0  1  0  0  0  0  0999 V2000
  191.7560  177.8640  140.8990 O   0  0  0  0  0  0  0  0  0  0  0  0
  190.1590  176.4580  141.8630 N   0  0  0  0  0  2  0  0  0  0  0  0
  191.0150  176.8510  140.7850 C   0  0  0  0  0  0  0  0  0  0  0  0
  188.2260  177.2050  145.0270 C   0  0  2  0  0  3  0  0  0  0  0  0
  186.9700  177.9940  145.4460 C   0  0  0  0  0  2  0  0  0  0  0  0
  190.9130  176.7250  144.1360 C   0  0  0  0  0  3  0  0  0  0  0  0
  189.9930  177.2590  143.0700 C   0  0  2  0  0  3  0  0  0  0  0  0
  190.6610  176.9180  145.4370 C   0  0  0  0  0  0  0  0  0  0  0  0
  187.5460  177.3770  142.6490 C   0  0  0  0  0  3  0  0  0  0  0  0
  189.4230  177.6490  145.8660 C   0  0  0  0  0  2  0  0  0  0  0  0
  188.5460  177.2540  143.5350 C   0  0  0  0  0  0  0  0  0  0  0  0
  186.1290  177.4430  143.1220 C   0  0  0  0  0  2  0  0  0  0  0  0
  191.7340  176.2360  146.6440 Cl  0  0  0  0  0  0  0  0  0  0  0  0
  186.0570  178.4250  144.2880 C   0  0  1  0  0  3  0  0  0  0  0  0
  183.7860  179.0250  142.6660 O   0  0  0  0  0  0  0  0  0  0  0  0
  183.5900  178.8320  143.8980 C   0  0  0  0  0  0  0  0  0  0  0  0
  184.6880  178.5450  144.7660 N   0  0  0  0  0  2  0  0  0  0  0  0
  182.3010  178.9080  144.4310 O   0  0  0  0  0  0  0  0  0  0  0  0
  181.1480  179.0840  143.6180 C   0  0  0  0  0  2  0  0  0  0  0  0
  180.0390  178.1570  144.0760 C   0  0  0  0  0  1  0  0  0  0  0  0
  191.0280  176.1240  139.5960 O   0  0  0  0  0  0  0  0  0  0  0  0
  190.9420  174.1990  137.6060 C   0  0  0  0  0  1  0  0  0  0  0  0
  191.3000  176.7860  137.2310 C   0  0  1  0  0  3  0  0  0  0  0  0
  191.9700  176.4060  138.5610 C   0  0  2  0  0  3  0  0  0  0  0  0
  191.8880  175.3870  137.4270 C   0  0  1  0  0  0  0  0  0  0  0  0
  187.7920  178.3010  137.1900 C   0  0  1  0  0  3  0  0  0  0  0  0
  187.7040  177.3120  136.0460 C   0  0  0  0  0  2  0  0  0  0  0  0
  189.3040  178.2550  137.1110 C   0  0  2  0  0  3  0  0  0  0  0  0
  187.3200  179.6020  136.7510 N   0  0  0  0  0  1  0  0  0  0  0  0
  189.2160  177.2620  135.9690 C   0  0  1  0  0  3  0  0  0  0  0  0
  189.7750  176.8300  137.3090 C   0  0  1  0  0  3  0  0  0  0  0  0
  193.8040  173.8730  136.8330 C   0  0  0  0  0  3  0  0  0  0  0  0
  195.6860  174.6850  135.5410 C   0  0  0  0  0  3  0  0  0  0  0  0
  193.8490  176.1730  136.0710 C   0  0  0  0  0  3  0  0  0  0  0  0
  193.1960  175.1330  136.7460 C   0  0  0  0  0  0  0  0  0  0  0  0
  195.0450  173.6490  136.2270 C   0  0  0  0  0  3  0  0  0  0  0  0
  195.0900  175.9480  135.4660 C   0  0  0  0  0  3  0  0  0  0  0  0
  3  1  2  0  0  0  0
  3  2  1  0  0  0  0
  4  5  1  6  0  0  0
  4 10  1  0  0  0  0
  6  8  2  0  0  0  0
  7  2  1  6  0  0  0
  7 11  1  0  0  0  0
  7  6  1  0  0  0  0
  8 10  1  0  0  0  0
  8 13  1  0  0  0  0
  9 12  1  0  0  0  0
  9 11  2  0  0  0  0
 11  4  1  0  0  0  0
 12 14  1  0  0  0  0
 14 17  1  1  0  0  0
 14  5  1  0  0  0  0
 15 16  2  0  0  0  0
 16 18  1  0  0  0  0
 16 17  1  0  0  0  0
 19 20  1  0  0  0  0
 19 18  1  0  0  0  0
 21  3  1  0  0  0  0
 23 31  1  1  0  0  0
 23 25  1  0  0  0  0
 23 24  1  0  0  0  0
 24 21  1  1  0  0  0
 25 22  1  1  0  0  0
 25 24  1  0  0  0  0
 26 29  1  6  0  0  0
 27 26  1  0  0  0  0
 28 26  1  0  0  0  0
 28 31  1  0  0  0  0
 30 27  1  0  0  0  0
 30 28  1  0  0  0  0
 30 31  1  0  0  0  0
 33 36  1  0  0  0  0
 34 35  2  0  0  0  0
 35 32  1  0  0  0  0
 35 25  1  0  0  0  0
 36 32  2  0  0  0  0
 37 33  2  0  0  0  0
 37 34  1  0  0  0  0
M  END
>  <MODEL>
1

>  <REMARK>
 VINA RESULT:      -8.6      0.000      0.000
  Name = 
  8 active torsions:
  status: ('A' for Active; 'I' for Inactive)
    1  A    between atoms: O_1  and  C_16
    2  A    between atoms: O_1  and  C_24
    3  A    between atoms: C_8  and  O_25
    4  A    between atoms: C_13  and  O_25
    5  A    between atoms: N_14  and  C_17
    6  A    between atoms: C_23  and  C_33
    7  A    between atoms: C_26  and  C_32
    8  A    between atoms: N_30  and  C_36
                            x       y       z     vdW  Elec       q    Type
                         _______ _______ _______ _____ _____    ______ ____

>  <TORSDO>
F 8

$$$$
=
 OpenBabel10222420313D

 37 42  0  0  1  0  0  0  0  0999 V2000
  191.2200  178.1860  142.2080 O   0  0  0  0  0  0  0  0  0  0  0  0
  189.1010  177.2110  142.3330 N   0  0  0  0  0  2  0  0  0  0  0  0
  190.3360  177.4760  141.6580 C   0  0  0  0  0  0  0  0  0  0  0  0
  186.7220  177.5020  145.2570 C   0  0  2  0  0  3  0  0  0  0  0  0
  185.3960  178.2140  145.5920 C   0  0  0  0  0  2  0  0  0  0  0  0
  189.5200  177.1770  144.7050 C   0  0  0  0  0  3  0  0  0  0  0  0
  188.7430  177.8400  143.5980 C   0  0  2  0  0  3  0  0  0  0  0  0
  189.0830  177.1910  145.9710 C   0  0  0  0  0  0  0  0  0  0  0  0
  186.3770  177.9860  142.8500 C   0  0  0  0  0  3  0  0  0  0  0  0
  187.7750  177.8440  146.3110 C   0  0  0  0  0  2  0  0  0  0  0  0
  187.2460  177.7560  143.8470 C   0  0  0  0  0  0  0  0  0  0  0  0
  184.9060  177.9720  143.1200 C   0  0  0  0  0  2  0  0  0  0  0  0
  189.9960  176.3650  147.2180 Cl  0  0  0  0  0  0  0  0  0  0  0  0
  184.6420  178.7870  144.3830 C   0  0  1  0  0  3  0  0  0  0  0  0
  182.5650  178.9850  142.4350 O   0  0  0  0  0  0  0  0  0  0  0  0
  182.2240  178.9100  143.6470 C   0  0  0  0  0  0  0  0  0  0  0  0
  183.2160  178.8250  144.6720 N   0  0  0  0  0  2  0  0  0  0  0  0
  180.8730  178.9190  144.0060 O   0  0  0  0  0  0  0  0  0  0  0  0
  179.8290  178.8020  143.0480 C   0  0  0  0  0  2  0  0  0  0  0  0
  179.1430  180.1400  142.8540 C   0  0  0  0  0  1  0  0  0  0  0  0
  190.5670  176.9610  140.3840 O   0  0  0  0  0  0  0  0  0  0  0  0
  189.8390  178.5140  138.2090 C   0  0  0  0  0  1  0  0  0  0  0  0
  189.9850  175.8790  138.2400 C   0  0  1  0  0  3  0  0  0  0  0  0
  189.5240  176.3420  139.6310 C   0  0  2  0  0  3  0  0  0  0  0  0
  189.1580  177.1570  138.3940 C   0  0  1  0  0  0  0  0  0  0  0  0
  193.6200  175.0730  137.3820 C   0  0  1  0  0  3  0  0  0  0  0  0
  193.2570  176.0360  136.2700 C   0  0  0  0  0  2  0  0  0  0  0  0
  192.1490  174.8230  137.6430 C   0  0  2  0  0  3  0  0  0  0  0  0
  194.2250  173.8790  136.8180 N   0  0  0  0  0  1  0  0  0  0  0  0
  191.7860  175.7910  136.5340 C   0  0  1  0  0  3  0  0  0  0  0  0
  191.4670  176.1340  137.9740 C   0  0  1  0  0  3  0  0  0  0  0  0
  187.2770  175.9660  137.2260 C   0  0  0  0  0  3  0  0  0  0  0  0
  185.0380  176.8910  137.1950 C   0  0  0  0  0  3  0  0  0  0  0  0
  186.8160  178.0610  138.3540 C   0  0  0  0  0  3  0  0  0  0  0  0
  187.7180  177.0480  138.0010 C   0  0  0  0  0  0  0  0  0  0  0  0
  185.9390  175.8850  136.8290 C   0  0  0  0  0  3  0  0  0  0  0  0
  185.4780  177.9790  137.9550 C   0  0  0  0  0  3  0  0  0  0  0  0
  3  1  2  0  0  0  0
  3  2  1  0  0  0  0
  4  5  1  1  0  0  0
  4 10  1  0  0  0  0
  6  8  2  0  0  0  0
  7  2  1  6  0  0  0
  7 11  1  0  0  0  0
  7  6  1  0  0  0  0
  8 10  1  0  0  0  0
  8 13  1  0  0  0  0
  9 12  1  0  0  0  0
  9 11  2  0  0  0  0
 11  4  1  0  0  0  0
 12 14  1  0  0  0  0
 14 17  1  1  0  0  0
 14  5  1  0  0  0  0
 15 16  2  0  0  0  0
 16 18  1  0  0  0  0
 16 17  1  0  0  0  0
 19 18  1  0  0  0  0
 20 19  1  0  0  0  0
 21  3  1  0  0  0  0
 23 31  1  1  0  0  0
 23 25  1  0  0  0  0
 23 24  1  0  0  0  0
 24 21  1  1  0  0  0
 25 22  1  6  0  0  0
 25 24  1  0  0  0  0
 26 29  1  6  0  0  0
 26 28  1  0  0  0  0
 27 30  1  0  0  0  0
 27 26  1  0  0  0  0
 28 31  1  0  0  0  0
 30 28  1  0  0  0  0
 30 31  1  0  0  0  0
 32 35  1  0  0  0  0
 33 37  2  0  0  0  0
 35 34  2  0  0  0  0
 35 25  1  0  0  0  0
 36 33  1  0  0  0  0
 36 32  2  0  0  0  0
 37 34  1  0  0  0  0
M  END
>  <MODEL>
2

>  <REMARK>
 VINA RESULT:      -8.4      1.841      4.458
  Name = 
  8 active torsions:
  status: ('A' for Active; 'I' for Inactive)
    1  A    between atoms: O_1  and  C_16
    2  A    between atoms: O_1  and  C_24
    3  A    between atoms: C_8  and  O_25
    4  A    between atoms: C_13  and  O_25
    5  A    between atoms: N_14  and  C_17
    6  A    between atoms: C_23  and  C_33
    7  A    between atoms: C_26  and  C_32
    8  A    between atoms: N_30  and  C_36
                            x       y       z     vdW  Elec       q    Type
                         _______ _______ _______ _____ _____    ______ ____

>  <TORSDO>
F 8

$$$$
=
 OpenBabel10222420313D

 37 42  0  0  1  0  0  0  0  0999 V2000
  187.7440  178.6090  139.9230 O   0  0  0  0  0  0  0  0  0  0  0  0
  189.4940  177.0630  139.9760 N   0  0  0  0  0  2  0  0  0  0  0  0
  188.5840  177.9680  140.6100 C   0  0  0  0  0  0  0  0  0  0  0  0
  191.0570  175.3900  136.9660 C   0  0  2  0  0  3  0  0  0  0  0  0
  192.3350  175.5200  136.1150 C   0  0  0  0  0  2  0  0  0  0  0  0
  188.4780  176.0510  138.0400 C   0  0  0  0  0  3  0  0  0  0  0  0
  189.5970  176.9330  138.5280 C   0  0  2  0  0  3  0  0  0  0  0  0
  188.5720  175.3760  136.8870 C   0  0  0  0  0  0  0  0  0  0  0  0
  192.0720  176.8200  138.7180 C   0  0  0  0  0  3  0  0  0  0  0  0
  189.8250  175.4580  136.0640 C   0  0  0  0  0  2  0  0  0  0  0  0
  190.9530  176.3810  138.1220 C   0  0  0  0  0  0  0  0  0  0  0  0
  193.4070  176.3250  138.2630 C   0  0  0  0  0  2  0  0  0  0  0  0
  187.2650  174.3230  136.3830 Cl  0  0  0  0  0  0  0  0  0  0  0  0
  193.4460  176.3780  136.7380 C   0  0  1  0  0  3  0  0  0  0  0  0
  195.3040  177.9760  135.2730 O   0  0  0  0  0  0  0  0  0  0  0  0
  195.6340  176.7850  135.5330 C   0  0  0  0  0  0  0  0  0  0  0  0
  194.7410  175.9300  136.2490 N   0  0  0  0  0  2  0  0  0  0  0  0
  196.8700  176.2850  135.1160 O   0  0  0  0  0  0  0  0  0  0  0  0
  197.5810  175.2960  135.8500 C   0  0  0  0  0  2  0  0  0  0  0  0
  198.8820  174.9570  135.1490 C   0  0  0  0  0  1  0  0  0  0  0  0
  188.6260  178.1570  141.9900 O   0  0  0  0  0  0  0  0  0  0  0  0
  190.0630  179.0940  144.1660 C   0  0  0  0  0  1  0  0  0  0  0  0
  188.2500  177.1780  144.2280 C   0  0  1  0  0  3  0  0  0  0  0  0
  188.9770  177.0950  142.8760 C   0  0  2  0  0  3  0  0  0  0  0  0
  189.7140  177.6060  144.1110 C   0  0  1  0  0  0  0  0  0  0  0  0
  184.8930  179.0040  144.1680 C   0  0  1  0  0  3  0  0  0  0  0  0
  185.3610  179.2840  145.5810 C   0  0  0  0  0  2  0  0  0  0  0  0
  185.8640  177.8450  144.0790 C   0  0  2  0  0  3  0  0  0  0  0  0
  183.5320  178.4980  144.1930 N   0  0  0  0  0  1  0  0  0  0  0  0
  186.3360  178.1280  145.4910 C   0  0  1  0  0  3  0  0  0  0  0  0
  187.2720  178.3480  144.3200 C   0  0  1  0  0  3  0  0  0  0  0  0
  191.2120  175.6030  143.8590 C   0  0  0  0  0  3  0  0  0  0  0  0
  192.5280  174.7830  145.7200 C   0  0  0  0  0  3  0  0  0  0  0  0
  191.1160  176.7320  146.0010 C   0  0  0  0  0  3  0  0  0  0  0  0
  190.7160  176.6400  144.6610 C   0  0  0  0  0  0  0  0  0  0  0  0
  192.1200  174.6790  144.3860 C   0  0  0  0  0  3  0  0  0  0  0  0
  192.0240  175.8070  146.5280 C   0  0  0  0  0  3  0  0  0  0  0  0
  1  3  2  0  0  0  0
  2  3  1  0  0  0  0
  3 21  1  0  0  0  0
  4 10  1  6  0  0  0
  4 11  1  0  0  0  0
  5 14  1  0  0  0  0
  5  4  1  0  0  0  0
  6  7  1  0  0  0  0
  7  2  1  1  0  0  0
  8  6  2  0  0  0  0
 10  8  1  0  0  0  0
 11  7  1  0  0  0  0
 11  9  2  0  0  0  0
 12  9  1  0  0  0  0
 13  8  1  0  0  0  0
 14 17  1  6  0  0  0
 14 12  1  0  0  0  0
 15 16  2  0  0  0  0
 16 17  1  0  0  0  0
 18 16  1  0  0  0  0
 18 19  1  0  0  0  0
 20 19  1  0  0  0  0
 23 31  1  6  0  0  0
 24 21  1  6  0  0  0
 24 25  1  0  0  0  0
 24 23  1  0  0  0  0
 25 22  1  1  0  0  0
 25 23  1  0  0  0  0
 25 35  1  0  0  0  0
 26 29  1  1  0  0  0
 26 27  1  0  0  0  0
 28 26  1  0  0  0  0
 28 31  1  0  0  0  0
 28 30  1  0  0  0  0
 30 27  1  0  0  0  0
 31 30  1  0  0  0  0
 32 36  2  0  0  0  0
 32 35  1  0  0  0  0
 33 37  2  0  0  0  0
 34 37  1  0  0  0  0
 35 34  2  0  0  0  0
 36 33  1  0  0  0  0
M  END
>  <MODEL>
3

>  <REMARK>
 VINA RESULT:      -8.4      3.221     10.108
  Name = 
  8 active torsions:
  status: ('A' for Active; 'I' for Inactive)
    1  A    between atoms: O_1  and  C_16
    2  A    between atoms: O_1  and  C_24
    3  A    between atoms: C_8  and  O_25
    4  A    between atoms: C_13  and  O_25
    5  A    between atoms: N_14  and  C_17
    6  A    between atoms: C_23  and  C_33
    7  A    between atoms: C_26  and  C_32
    8  A    between atoms: N_30  and  C_36
                            x       y       z     vdW  Elec       q    Type
                         _______ _______ _______ _____ _____    ______ ____

>  <TORSDO>
F 8

$$$$
=
 OpenBabel10222420313D

 37 42  0  0  1  0  0  0  0  0999 V2000
  184.6410  179.8100  139.2490 O   0  0  0  0  0  0  0  0  0  0  0  0
  186.3820  178.3880  139.8850 N   0  0  0  0  0  2  0  0  0  0  0  0
  185.2620  179.2300  140.1800 C   0  0  0  0  0  0  0  0  0  0  0  0
  188.4320  176.4180  137.3930 C   0  0  2  0  0  3  0  0  0  0  0  0
  189.9170  176.2190  137.0290 C   0  0  0  0  0  2  0  0  0  0  0  0
  185.8840  177.7190  137.6250 C   0  0  0  0  0  3  0  0  0  0  0  0
  186.9440  178.2640  138.5470 C   0  0  2  0  0  3  0  0  0  0  0  0
  186.2040  177.0660  136.5010 C   0  0  0  0  0  0  0  0  0  0  0  0
  189.0940  177.4930  139.5260 C   0  0  0  0  0  3  0  0  0  0  0  0
  187.6440  176.8270  136.1500 C   0  0  0  0  0  2  0  0  0  0  0  0
  188.1800  177.3790  138.5510 C   0  0  0  0  0  0  0  0  0  0  0  0
  190.3420  176.6690  139.4850 C   0  0  0  0  0  2  0  0  0  0  0  0
  184.9380  176.4080  135.4840 Cl  0  0  0  0  0  0  0  0  0  0  0  0
  190.9170  176.7390  138.0730 C   0  0  1  0  0  3  0  0  0  0  0  0
  193.4170  177.5000  139.2220 O   0  0  0  0  0  0  0  0  0  0  0  0
  193.3680  176.4010  138.6020 C   0  0  0  0  0  0  0  0  0  0  0  0
  192.1510  175.9720  137.9900 N   0  0  0  0  0  2  0  0  0  0  0  0
  194.5060  175.5960  138.4960 O   0  0  0  0  0  0  0  0  0  0  0  0
  194.4610  174.2790  137.9630 C   0  0  0  0  0  2  0  0  0  0  0  0
  195.4790  173.3970  138.6600 C   0  0  0  0  0  1  0  0  0  0  0  0
  184.8540  179.4240  141.4990 O   0  0  0  0  0  0  0  0  0  0  0  0
  184.9650  180.5980  144.0060 C   0  0  0  0  0  1  0  0  0  0  0  0
  183.9390  178.2290  143.4590 C   0  0  1  0  0  3  0  0  0  0  0  0
  185.1280  178.4570  142.5120 C   0  0  2  0  0  3  0  0  0  0  0  0
  185.1290  179.0810  143.9060 C   0  0  1  0  0  0  0  0  0  0  0  0
  180.4080  178.9270  142.1760 C   0  0  1  0  0  3  0  0  0  0  0  0
  180.3140  179.4340  143.6010 C   0  0  0  0  0  2  0  0  0  0  0  0
  181.6340  178.1190  142.5470 C   0  0  2  0  0  3  0  0  0  0  0  0
  179.2990  178.0310  141.9010 N   0  0  0  0  0  1  0  0  0  0  0  0
  181.5440  178.6300  143.9710 C   0  0  1  0  0  3  0  0  0  0  0  0
  182.7030  179.0460  143.0890 C   0  0  1  0  0  3  0  0  0  0  0  0
  185.8920  178.5690  146.2460 C   0  0  0  0  0  3  0  0  0  0  0  0
  187.8910  177.2630  146.6520 C   0  0  0  0  0  3  0  0  0  0  0  0
  187.1790  177.7110  144.3800 C   0  0  0  0  0  3  0  0  0  0  0  0
  186.0730  178.4230  144.8630 C   0  0  0  0  0  0  0  0  0  0  0  0
  186.7960  177.9850  147.1380 C   0  0  0  0  0  3  0  0  0  0  0  0
  188.0830  177.1280  145.2740 C   0  0  0  0  0  3  0  0  0  0  0  0
  1  3  2  0  0  0  0
  2  3  1  0  0  0  0
  3 21  1  0  0  0  0
  4 10  1  6  0  0  0
  4 11  1  0  0  0  0
  5  4  1  0  0  0  0
  5 14  1  0  0  0  0
  6  7  1  0  0  0  0
  7 11  1  0  0  0  0
  7  2  1  1  0  0  0
  8  6  2  0  0  0  0
 10  8  1  0  0  0  0
 11  9  2  0  0  0  0
 12  9  1  0  0  0  0
 13  8  1  0  0  0  0
 14 17  1  1  0  0  0
 14 12  1  0  0  0  0
 16 15  2  0  0  0  0
 17 16  1  0  0  0  0
 18 16  1  0  0  0  0
 19 18  1  0  0  0  0
 19 20  1  0  0  0  0
 23 31  1  6  0  0  0
 23 25  1  0  0  0  0
 24 21  1  6  0  0  0
 24 23  1  0  0  0  0
 24 25  1  0  0  0  0
 25 22  1  1  0  0  0
 25 35  1  0  0  0  0
 26 29  1  1  0  0  0
 26 28  1  0  0  0  0
 26 27  1  0  0  0  0
 27 30  1  0  0  0  0
 28 31  1  0  0  0  0
 28 30  1  0  0  0  0
 31 30  1  0  0  0  0
 32 36  1  0  0  0  0
 33 36  2  0  0  0  0
 34 35  1  0  0  0  0
 34 37  2  0  0  0  0
 35 32  2  0  0  0  0
 37 33  1  0  0  0  0
M  END
>  <MODEL>
4

>  <REMARK>
 VINA RESULT:      -8.3      3.106     10.278
  Name = 
  8 active torsions:
  status: ('A' for Active; 'I' for Inactive)
    1  A    between atoms: O_1  and  C_16
    2  A    between atoms: O_1  and  C_24
    3  A    between atoms: C_8  and  O_25
    4  A    between atoms: C_13  and  O_25
    5  A    between atoms: N_14  and  C_17
    6  A    between atoms: C_23  and  C_33
    7  A    between atoms: C_26  and  C_32
    8  A    between atoms: N_30  and  C_36
                            x       y       z     vdW  Elec       q    Type
                         _______ _______ _______ _____ _____    ______ ____

>  <TORSDO>
F 8

$$$$
=
 OpenBabel10222420313D

 37 42  0  0  1  0  0  0  0  0999 V2000
  187.0500  179.0260  137.1840 O   0  0  0  0  0  0  0  0  0  0  0  0
  187.4340  177.4470  138.8610 N   0  0  0  0  0  2  0  0  0  0  0  0
  186.5750  178.1590  137.9640 C   0  0  0  0  0  0  0  0  0  0  0  0
  190.6670  177.0130  140.7740 C   0  0  2  0  0  3  0  0  0  0  0  0
  191.3440  177.5950  142.0310 C   0  0  0  0  0  2  0  0  0  0  0  0
  189.6500  176.8980  138.0920 C   0  0  0  0  0  3  0  0  0  0  0  0
  188.8460  177.7680  139.0230 C   0  0  2  0  0  3  0  0  0  0  0  0
  190.9370  176.6180  138.3350 C   0  0  0  0  0  0  0  0  0  0  0  0
  188.5060  178.0090  141.4730 C   0  0  0  0  0  3  0  0  0  0  0  0
  191.6030  177.1420  139.5740 C   0  0  0  0  0  2  0  0  0  0  0  0
  189.2870  177.5890  140.4660 C   0  0  0  0  0  0  0  0  0  0  0  0
  188.9800  177.8940  142.8870 C   0  0  0  0  0  2  0  0  0  0  0  0
  191.8190  175.5620  137.2500 Cl  0  0  0  0  0  0  0  0  0  0  0  0
  190.4180  178.4000  142.9540 C   0  0  1  0  0  3  0  0  0  0  0  0
  191.3370  176.0370  144.2660 O   0  0  0  0  0  0  0  0  0  0  0  0
  191.3760  177.1190  144.9150 C   0  0  0  0  0  0  0  0  0  0  0  0
  190.9150  178.3340  144.3210 N   0  0  0  0  0  2  0  0  0  0  0  0
  191.8590  177.1430  146.2270 O   0  0  0  0  0  0  0  0  0  0  0  0
  191.2150  176.4530  147.2900 C   0  0  0  0  0  2  0  0  0  0  0  0
  189.7410  176.8040  147.3250 C   0  0  0  0  0  1  0  0  0  0  0  0
  185.2040  177.9060  137.9530 O   0  0  0  0  0  0  0  0  0  0  0  0
  183.9420  180.1150  139.0500 C   0  0  0  0  0  1  0  0  0  0  0  0
  182.9750  177.6610  138.9900 C   0  0  1  0  0  3  0  0  0  0  0  0
  184.5010  177.5620  139.1460 C   0  0  2  0  0  3  0  0  0  0  0  0
  183.7490  178.7570  139.7260 C   0  0  1  0  0  0  0  0  0  0  0  0
  180.9910  177.5170  135.7270 C   0  0  1  0  0  3  0  0  0  0  0  0
  180.6450  178.9050  136.2270 C   0  0  0  0  0  2  0  0  0  0  0  0
  181.4300  177.1270  137.1230 C   0  0  2  0  0  3  0  0  0  0  0  0
  179.7750  176.8030  135.3810 N   0  0  0  0  0  1  0  0  0  0  0  0
  181.0890  178.5160  137.6220 C   0  0  1  0  0  3  0  0  0  0  0  0
  182.5320  178.0580  137.5840 C   0  0  1  0  0  3  0  0  0  0  0  0
  182.3820  178.8190  141.8350 C   0  0  0  0  0  3  0  0  0  0  0  0
  183.4420  178.7870  144.0130 C   0  0  0  0  0  3  0  0  0  0  0  0
  184.7960  178.7010  142.0060 C   0  0  0  0  0  3  0  0  0  0  0  0
  183.6390  178.7370  141.2180 C   0  0  0  0  0  0  0  0  0  0  0  0
  182.2840  178.8380  143.2300 C   0  0  0  0  0  3  0  0  0  0  0  0
  184.6970  178.7220  143.4010 C   0  0  0  0  0  3  0  0  0  0  0  0
  1  3  2  0  0  0  0
  3  2  1  0  0  0  0
  4 10  1  6  0  0  0
  4  5  1  0  0  0  0
  5 14  1  0  0  0  0
  6  8  2  0  0  0  0
  6  7  1  0  0  0  0
  7  2  1  1  0  0  0
  7 11  1  0  0  0  0
  8 10  1  0  0  0  0
  9 12  1  0  0  0  0
 11  4  1  0  0  0  0
 11  9  2  0  0  0  0
 12 14  1  0  0  0  0
 13  8  1  0  0  0  0
 14 17  1  1  0  0  0
 15 16  2  0  0  0  0
 16 18  1  0  0  0  0
 17 16  1  0  0  0  0
 18 19  1  0  0  0  0
 19 20  1  0  0  0  0
 21  3  1  0  0  0  0
 23 31  1  6  0  0  0
 23 24  1  0  0  0  0
 23 25  1  0  0  0  0
 24 21  1  6  0  0  0
 24 25  1  0  0  0  0
 25 22  1  6  0  0  0
 25 35  1  0  0  0  0
 26 29  1  1  0  0  0
 26 27  1  0  0  0  0
 26 28  1  0  0  0  0
 27 30  1  0  0  0  0
 28 31  1  0  0  0  0
 28 30  1  0  0  0  0
 31 30  1  0  0  0  0
 32 36  1  0  0  0  0
 34 37  2  0  0  0  0
 35 32  2  0  0  0  0
 35 34  1  0  0  0  0
 36 33  2  0  0  0  0
 37 33  1  0  0  0  0
M  END
>  <MODEL>
5

>  <REMARK>
 VINA RESULT:      -8.2      4.042      8.540
  Name = 
  8 active torsions:
  status: ('A' for Active; 'I' for Inactive)
    1  A    between atoms: O_1  and  C_16
    2  A    between atoms: O_1  and  C_24
    3  A    between atoms: C_8  and  O_25
    4  A    between atoms: C_13  and  O_25
    5  A    between atoms: N_14  and  C_17
    6  A    between atoms: C_23  and  C_33
    7  A    between atoms: C_26  and  C_32
    8  A    between atoms: N_30  and  C_36
                            x       y       z     vdW  Elec       q    Type
                         _______ _______ _______ _____ _____    ______ ____

>  <TORSDO>
F 8

$$$$
=
 OpenBabel10222420313D

 37 42  0  0  1  0  0  0  0  0999 V2000
  185.3120  179.3310  144.0300 O   0  0  0  0  0  0  0  0  0  0  0  0
  184.2500  178.2870  142.2300 N   0  0  0  0  0  2  0  0  0  0  0  0
  185.3660  178.4750  143.1070 C   0  0  0  0  0  0  0  0  0  0  0  0
  180.9230  179.2860  140.7380 C   0  0  2  0  0  3  0  0  0  0  0  0
  180.3980  180.1760  139.5940 C   0  0  0  0  0  2  0  0  0  0  0  0
  182.0950  178.5880  143.2640 C   0  0  0  0  0  3  0  0  0  0  0  0
  183.0710  179.1420  142.2590 C   0  0  2  0  0  3  0  0  0  0  0  0
  180.7840  178.8490  143.1810 C   0  0  0  0  0  0  0  0  0  0  0  0
  183.2110  179.4130  139.7930 C   0  0  0  0  0  3  0  0  0  0  0  0
  180.2490  179.6800  142.0510 C   0  0  0  0  0  2  0  0  0  0  0  0
  182.4420  179.2560  140.8810 C   0  0  0  0  0  0  0  0  0  0  0  0
  182.5810  179.5950  138.4490 C   0  0  0  0  0  2  0  0  0  0  0  0
  179.6800  178.1420  144.3430 Cl  0  0  0  0  0  0  0  0  0  0  0  0
  181.4610  180.6240  138.5790 C   0  0  1  0  0  3  0  0  0  0  0  0
  180.1670  183.0390  137.7790 O   0  0  0  0  0  0  0  0  0  0  0  0
  180.2150  182.0960  136.9410 C   0  0  0  0  0  0  0  0  0  0  0  0
  180.8340  180.8560  137.2870 N   0  0  0  0  0  2  0  0  0  0  0  0
  179.6540  182.2480  135.6700 O   0  0  0  0  0  0  0  0  0  0  0  0
  179.3370  183.5210  135.1230 C   0  0  0  0  0  2  0  0  0  0  0  0
  180.5950  184.3530  134.9690 C   0  0  0  0  0  1  0  0  0  0  0  0
  186.5260  177.7200  142.9420 O   0  0  0  0  0  0  0  0  0  0  0  0
  188.1500  175.5040  143.3010 C   0  0  0  0  0  1  0  0  0  0  0  0
  188.9750  177.9350  142.6920 C   0  0  1  0  0  3  0  0  0  0  0  0
  187.7430  178.0700  143.6000 C   0  0  2  0  0  3  0  0  0  0  0  0
  188.6740  176.8700  143.7480 C   0  0  1  0  0  0  0  0  0  0  0  0
  188.5650  178.2260  138.9040 C   0  0  1  0  0  3  0  0  0  0  0  0
  189.5600  177.0890  139.0110 C   0  0  0  0  0  2  0  0  0  0  0  0
  188.9040  178.6520  140.3180 C   0  0  2  0  0  3  0  0  0  0  0  0
  189.0550  179.2200  137.9650 N   0  0  0  0  0  1  0  0  0  0  0  0
  189.8960  177.5110  140.4260 C   0  0  1  0  0  3  0  0  0  0  0  0
  188.6360  177.5030  141.2670 C   0  0  1  0  0  3  0  0  0  0  0  0
  190.9090  176.6790  144.8830 C   0  0  0  0  0  3  0  0  0  0  0  0
  191.1150  176.9130  147.2860 C   0  0  0  0  0  3  0  0  0  0  0  0
  188.9450  177.1280  146.2310 C   0  0  0  0  0  3  0  0  0  0  0  0
  189.5300  176.9140  144.9750 C   0  0  0  0  0  0  0  0  0  0  0  0
  191.7010  176.6840  146.0360 C   0  0  0  0  0  3  0  0  0  0  0  0
  189.7380  177.1320  147.3830 C   0  0  0  0  0  3  0  0  0  0  0  0
  2  3  1  0  0  0  0
  3  1  2  0  0  0  0
  4  5  1  6  0  0  0
  4 11  1  0  0  0  0
  4 10  1  0  0  0  0
  7  2  1  6  0  0  0
  7  6  1  0  0  0  0
  8  6  2  0  0  0  0
  8 13  1  0  0  0  0
  9 11  2  0  0  0  0
 10  8  1  0  0  0  0
 11  7  1  0  0  0  0
 12 14  1  0  0  0  0
 12  9  1  0  0  0  0
 14 17  1  6  0  0  0
 14  5  1  0  0  0  0
 16 17  1  0  0  0  0
 16 15  2  0  0  0  0
 18 16  1  0  0  0  0
 19 18  1  0  0  0  0
 20 19  1  0  0  0  0
 21  3  1  0  0  0  0
 23 31  1  6  0  0  0
 23 24  1  0  0  0  0
 23 25  1  0  0  0  0
 24 21  1  6  0  0  0
 24 25  1  0  0  0  0
 25 22  1  6  0  0  0
 25 35  1  0  0  0  0
 26 29  1  6  0  0  0
 26 27  1  0  0  0  0
 26 28  1  0  0  0  0
 27 30  1  0  0  0  0
 28 30  1  0  0  0  0
 28 31  1  0  0  0  0
 30 31  1  0  0  0  0
 32 35  2  0  0  0  0
 32 36  1  0  0  0  0
 33 37  1  0  0  0  0
 34 37  2  0  0  0  0
 35 34  1  0  0  0  0
 36 33  2  0  0  0  0
M  END
>  <MODEL>
6

>  <REMARK>
 VINA RESULT:      -8.2      4.505      8.223
  Name = 
  8 active torsions:
  status: ('A' for Active; 'I' for Inactive)
    1  A    between atoms: O_1  and  C_16
    2  A    between atoms: O_1  and  C_24
    3  A    between atoms: C_8  and  O_25
    4  A    between atoms: C_13  and  O_25
    5  A    between atoms: N_14  and  C_17
    6  A    between atoms: C_23  and  C_33
    7  A    between atoms: C_26  and  C_32
    8  A    between atoms: N_30  and  C_36
                            x       y       z     vdW  Elec       q    Type
                         _______ _______ _______ _____ _____    ______ ____

>  <TORSDO>
F 8

$$$$
=
 OpenBabel10222420313D

 37 42  0  0  1  0  0  0  0  0999 V2000
  184.6330  180.0760  139.4430 O   0  0  0  0  0  0  0  0  0  0  0  0
  185.3160  178.3240  140.8300 N   0  0  0  0  0  2  0  0  0  0  0  0
  184.3080  179.1290  140.2090 C   0  0  0  0  0  0  0  0  0  0  0  0
  188.9040  177.3080  141.4550 C   0  0  2  0  0  3  0  0  0  0  0  0
  189.9240  177.3470  142.6110 C   0  0  0  0  0  2  0  0  0  0  0  0
  187.2120  178.2720  139.3450 C   0  0  0  0  0  3  0  0  0  0  0  0
  186.7380  178.6260  140.7300 C   0  0  2  0  0  3  0  0  0  0  0  0
  188.4970  177.9870  139.0980 C   0  0  0  0  0  0  0  0  0  0  0  0
  187.0710  177.8000  143.0500 C   0  0  0  0  0  3  0  0  0  0  0  0
  189.4980  177.9790  140.2170 C   0  0  0  0  0  2  0  0  0  0  0  0
  187.5310  177.8830  141.7930 C   0  0  0  0  0  0  0  0  0  0  0  0
  187.8920  177.1290  144.1060 C   0  0  0  0  0  2  0  0  0  0  0  0
  188.9950  177.5330  137.4810 Cl  0  0  0  0  0  0  0  0  0  0  0  0
  189.3260  177.6380  143.9950 C   0  0  1  0  0  3  0  0  0  0  0  0
  188.9780  177.9640  146.8100 O   0  0  0  0  0  0  0  0  0  0  0  0
  189.9220  177.2230  146.4190 C   0  0  0  0  0  0  0  0  0  0  0  0
  190.1590  177.0330  145.0230 N   0  0  0  0  0  2  0  0  0  0  0  0
  190.7550  176.5880  147.3450 O   0  0  0  0  0  0  0  0  0  0  0  0
  191.9330  175.8920  146.9600 C   0  0  0  0  0  2  0  0  0  0  0  0
  192.8050  175.6290  148.1720 C   0  0  0  0  0  1  0  0  0  0  0  0
  182.9580  178.8800  140.4530 O   0  0  0  0  0  0  0  0  0  0  0  0
  180.3830  178.5600  141.4220 C   0  0  0  0  0  1  0  0  0  0  0  0
  181.0710  178.6480  138.8760 C   0  0  1  0  0  3  0  0  0  0  0  0
  182.2120  177.9680  139.6480 C   0  0  2  0  0  3  0  0  0  0  0  0
  180.7710  177.8310  140.1340 C   0  0  1  0  0  0  0  0  0  0  0  0
  181.0330  182.3600  137.9670 C   0  0  1  0  0  3  0  0  0  0  0  0
  179.6890  182.2050  138.6490 C   0  0  0  0  0  2  0  0  0  0  0  0
  181.0940  180.8620  137.7540 C   0  0  2  0  0  3  0  0  0  0  0  0
  180.8600  183.0270  136.6890 N   0  0  0  0  0  1  0  0  0  0  0  0
  179.7520  180.7060  138.4410 C   0  0  1  0  0  3  0  0  0  0  0  0
  181.0050  180.1590  139.0930 C   0  0  1  0  0  3  0  0  0  0  0  0
  179.6150  175.7600  140.9660 C   0  0  0  0  0  3  0  0  0  0  0  0
  179.1510  173.9040  139.4790 C   0  0  0  0  0  3  0  0  0  0  0  0
  180.2450  175.8920  138.6300 C   0  0  0  0  0  3  0  0  0  0  0  0
  180.1800  176.4760  139.9010 C   0  0  0  0  0  0  0  0  0  0  0  0
  179.0970  174.4780  140.7540 C   0  0  0  0  0  3  0  0  0  0  0  0
  179.7270  174.6100  138.4190 C   0  0  0  0  0  3  0  0  0  0  0  0
  1  3  2  0  0  0  0
  3 21  1  0  0  0  0
  3  2  1  0  0  0  0
  4 10  1  6  0  0  0
  4 11  1  0  0  0  0
  4  5  1  0  0  0  0
  5 14  1  0  0  0  0
  6  7  1  0  0  0  0
  7  2  1  6  0  0  0
  7 11  1  0  0  0  0
  8  6  2  0  0  0  0
  8 10  1  0  0  0  0
  9 12  1  0  0  0  0
 11  9  2  0  0  0  0
 13  8  1  0  0  0  0
 14 12  1  0  0  0  0
 14 17  1  1  0  0  0
 16 15  2  0  0  0  0
 16 18  1  0  0  0  0
 17 16  1  0  0  0  0
 19 18  1  0  0  0  0
 19 20  1  0  0  0  0
 23 31  1  1  0  0  0
 23 24  1  0  0  0  0
 23 25  1  0  0  0  0
 24 25  1  0  0  0  0
 24 21  1  1  0  0  0
 25 22  1  1  0  0  0
 26 29  1  6  0  0  0
 26 27  1  0  0  0  0
 28 26  1  0  0  0  0
 28 30  1  0  0  0  0
 28 31  1  0  0  0  0
 30 27  1  0  0  0  0
 30 31  1  0  0  0  0
 33 36  2  0  0  0  0
 34 35  1  0  0  0  0
 35 25  1  0  0  0  0
 35 32  2  0  0  0  0
 36 32  1  0  0  0  0
 37 34  2  0  0  0  0
 37 33  1  0  0  0  0
M  END
>  <MODEL>
7

>  <REMARK>
 VINA RESULT:      -7.8      4.496      9.596
  Name = 
  8 active torsions:
  status: ('A' for Active; 'I' for Inactive)
    1  A    between atoms: O_1  and  C_16
    2  A    between atoms: O_1  and  C_24
    3  A    between atoms: C_8  and  O_25
    4  A    between atoms: C_13  and  O_25
    5  A    between atoms: N_14  and  C_17
    6  A    between atoms: C_23  and  C_33
    7  A    between atoms: C_26  and  C_32
    8  A    between atoms: N_30  and  C_36
                            x       y       z     vdW  Elec       q    Type
                         _______ _______ _______ _____ _____    ______ ____

>  <TORSDO>
F 8

$$$$
=
 OpenBabel10222420313D

 37 42  0  0  1  0  0  0  0  0999 V2000
  185.2790  179.5600  141.4010 O   0  0  0  0  0  0  0  0  0  0  0  0
  183.7630  178.2380  142.5890 N   0  0  0  0  0  2  0  0  0  0  0  0
  185.0860  178.5670  142.1520 C   0  0  0  0  0  0  0  0  0  0  0  0
  180.4400  178.0960  140.7890 C   0  0  2  0  0  3  0  0  0  0  0  0
  179.9180  178.1110  139.3390 C   0  0  0  0  0  2  0  0  0  0  0  0
  181.5960  179.0740  143.2280 C   0  0  0  0  0  3  0  0  0  0  0  0
  182.5760  178.9240  142.0940 C   0  0  2  0  0  3  0  0  0  0  0  0
  180.2830  179.2150  143.0030 C   0  0  0  0  0  0  0  0  0  0  0  0
  182.7360  177.6570  139.9630 C   0  0  0  0  0  3  0  0  0  0  0  0
  179.7510  179.1920  141.6000 C   0  0  0  0  0  2  0  0  0  0  0  0
  181.9580  178.1770  140.9240 C   0  0  0  0  0  0  0  0  0  0  0  0
  182.1160  176.9850  138.7790 C   0  0  0  0  0  2  0  0  0  0  0  0
  179.1750  179.3370  144.3540 Cl  0  0  0  0  0  0  0  0  0  0  0  0
  180.9860  177.8710  138.2610 C   0  0  1  0  0  3  0  0  0  0  0  0
  181.8370  178.2570  135.5640 O   0  0  0  0  0  0  0  0  0  0  0  0
  180.8540  177.4910  135.7630 C   0  0  0  0  0  0  0  0  0  0  0  0
  180.3690  177.2700  137.0880 N   0  0  0  0  0  2  0  0  0  0  0  0
  180.2190  176.8590  134.6900 O   0  0  0  0  0  0  0  0  0  0  0  0
  179.2010  175.8830  134.8730 C   0  0  0  0  0  2  0  0  0  0  0  0
  179.8120  174.4980  134.9540 C   0  0  0  0  0  1  0  0  0  0  0  0
  186.1720  177.7870  142.5470 O   0  0  0  0  0  0  0  0  0  0  0  0
  187.7100  175.7340  143.5920 C   0  0  0  0  0  1  0  0  0  0  0  0
  188.5920  178.1270  142.9150 C   0  0  1  0  0  3  0  0  0  0  0  0
  187.1590  178.2860  143.4490 C   0  0  2  0  0  3  0  0  0  0  0  0
  188.0550  177.1720  143.9830 C   0  0  1  0  0  0  0  0  0  0  0  0
  188.7590  178.0180  139.0990 C   0  0  1  0  0  3  0  0  0  0  0  0
  190.0320  177.2880  139.4750 C   0  0  0  0  0  2  0  0  0  0  0  0
  188.6980  178.6230  140.4860 C   0  0  2  0  0  3  0  0  0  0  0  0
  189.0570  179.0550  138.1280 N   0  0  0  0  0  1  0  0  0  0  0  0
  189.9690  177.8890  140.8650 C   0  0  1  0  0  3  0  0  0  0  0  0
  188.6550  177.5150  141.5180 C   0  0  1  0  0  3  0  0  0  0  0  0
  189.8850  177.1230  145.7060 C   0  0  0  0  0  3  0  0  0  0  0  0
  189.4590  177.7740  148.0000 C   0  0  0  0  0  3  0  0  0  0  0  0
  187.6720  177.8600  146.3670 C   0  0  0  0  0  3  0  0  0  0  0  0
  188.5530  177.4100  145.3740 C   0  0  0  0  0  0  0  0  0  0  0  0
  190.3380  177.3110  147.0160 C   0  0  0  0  0  3  0  0  0  0  0  0
  188.1270  178.0460  147.6760 C   0  0  0  0  0  3  0  0  0  0  0  0
  1  3  2  0  0  0  0
  3 21  1  0  0  0  0
  3  2  1  0  0  0  0
  4  5  1  6  0  0  0
  4 11  1  0  0  0  0
  4 10  1  0  0  0  0
  7  2  1  1  0  0  0
  7  6  1  0  0  0  0
  8  6  2  0  0  0  0
  8 13  1  0  0  0  0
  9 11  2  0  0  0  0
 10  8  1  0  0  0  0
 11  7  1  0  0  0  0
 12  9  1  0  0  0  0
 14 17  1  6  0  0  0
 14 12  1  0  0  0  0
 14  5  1  0  0  0  0
 15 16  2  0  0  0  0
 16 17  1  0  0  0  0
 18 19  1  0  0  0  0
 18 16  1  0  0  0  0
 19 20  1  0  0  0  0
 23 31  1  6  0  0  0
 23 24  1  0  0  0  0
 23 25  1  0  0  0  0
 24 21  1  6  0  0  0
 24 25  1  0  0  0  0
 25 22  1  6  0  0  0
 25 35  1  0  0  0  0
 26 29  1  6  0  0  0
 26 27  1  0  0  0  0
 26 28  1  0  0  0  0
 27 30  1  0  0  0  0
 28 30  1  0  0  0  0
 28 31  1  0  0  0  0
 30 31  1  0  0  0  0
 32 36  1  0  0  0  0
 34 37  2  0  0  0  0
 35 32  2  0  0  0  0
 35 34  1  0  0  0  0
 36 33  2  0  0  0  0
 37 33  1  0  0  0  0
M  END
>  <MODEL>
8

>  <REMARK>
 VINA RESULT:      -7.7      4.500      8.641
  Name = 
  8 active torsions:
  status: ('A' for Active; 'I' for Inactive)
    1  A    between atoms: O_1  and  C_16
    2  A    between atoms: O_1  and  C_24
    3  A    between atoms: C_8  and  O_25
    4  A    between atoms: C_13  and  O_25
    5  A    between atoms: N_14  and  C_17
    6  A    between atoms: C_23  and  C_33
    7  A    between atoms: C_26  and  C_32
    8  A    between atoms: N_30  and  C_36
                            x       y       z     vdW  Elec       q    Type
                         _______ _______ _______ _____ _____    ______ ____

>  <TORSDO>
F 8

$$$$
=
 OpenBabel10222420313D

 37 42  0  0  1  0  0  0  0  0999 V2000
  188.6620  179.0000  140.1650 O   0  0  0  0  0  0  0  0  0  0  0  0
  189.4790  176.8460  139.7810 N   0  0  0  0  0  2  0  0  0  0  0  0
  189.0950  177.9200  140.6460 C   0  0  0  0  0  0  0  0  0  0  0  0
  190.6220  175.5200  136.4290 C   0  0  2  0  0  3  0  0  0  0  0  0
  191.8830  175.5700  135.5440 C   0  0  0  0  0  2  0  0  0  0  0  0
  188.2440  176.4320  137.7540 C   0  0  0  0  0  3  0  0  0  0  0  0
  189.5240  176.9800  138.3300 C   0  0  2  0  0  3  0  0  0  0  0  0
  188.1810  175.9860  136.4930 C   0  0  0  0  0  0  0  0  0  0  0  0
  191.9330  176.3720  138.3520 C   0  0  0  0  0  3  0  0  0  0  0  0
  189.4070  175.9880  135.6280 C   0  0  0  0  0  2  0  0  0  0  0  0
  190.7380  176.2720  137.7510 C   0  0  0  0  0  0  0  0  0  0  0  0
  193.1370  175.7320  137.7370 C   0  0  0  0  0  2  0  0  0  0  0  0
  186.6830  175.3120  135.8810 Cl  0  0  0  0  0  0  0  0  0  0  0  0
  193.1520  176.0690  136.2490 C   0  0  1  0  0  3  0  0  0  0  0  0
  195.5240  177.4920  135.5410 O   0  0  0  0  0  0  0  0  0  0  0  0
  195.4890  176.2540  135.2960 C   0  0  0  0  0  0  0  0  0  0  0  0
  194.3250  175.4890  135.6110 N   0  0  0  0  0  2  0  0  0  0  0  0
  196.5840  175.6180  134.7030 O   0  0  0  0  0  0  0  0  0  0  0  0
  197.8800  175.6280  135.2870 C   0  0  0  0  0  2  0  0  0  0  0  0
  197.9170  174.7130  136.4960 C   0  0  0  0  0  1  0  0  0  0  0  0
  189.2070  177.7840  142.0290 O   0  0  0  0  0  0  0  0  0  0  0  0
  187.7350  176.0300  143.5890 C   0  0  0  0  0  1  0  0  0  0  0  0
  188.7440  178.3310  144.3940 C   0  0  1  0  0  3  0  0  0  0  0  0
  188.3390  178.4850  142.9190 C   0  0  2  0  0  3  0  0  0  0  0  0
  187.5690  177.5320  143.8290 C   0  0  1  0  0  0  0  0  0  0  0  0
  191.7430  176.8290  146.2240 C   0  0  1  0  0  3  0  0  0  0  0  0
  190.9980  175.5820  145.7970 C   0  0  0  0  0  2  0  0  0  0  0  0
  190.4840  177.6470  146.0250 C   0  0  2  0  0  3  0  0  0  0  0  0
  192.0560  176.7530  147.6410 N   0  0  0  0  0  1  0  0  0  0  0  0
  189.7390  176.3990  145.5930 C   0  0  1  0  0  3  0  0  0  0  0  0
  190.0120  177.5040  144.5930 C   0  0  1  0  0  3  0  0  0  0  0  0
  185.8730  178.2030  145.5580 C   0  0  0  0  0  3  0  0  0  0  0  0
  183.6310  178.8650  144.9210 C   0  0  0  0  0  3  0  0  0  0  0  0
  185.2410  178.2490  143.2190 C   0  0  0  0  0  3  0  0  0  0  0  0
  186.2080  178.0240  144.2080 C   0  0  0  0  0  0  0  0  0  0  0  0
  184.5880  178.6280  145.9130 C   0  0  0  0  0  3  0  0  0  0  0  0
  183.9570  178.6720  143.5750 C   0  0  0  0  0  3  0  0  0  0  0  0
  1  3  2  0  0  0  0
  2  3  1  0  0  0  0
  3 21  1  0  0  0  0
  4  5  1  6  0  0  0
  4 11  1  0  0  0  0
  5 14  1  0  0  0  0
  6  7  1  0  0  0  0
  7  2  1  1  0  0  0
  8  6  2  0  0  0  0
 10  4  1  0  0  0  0
 10  8  1  0  0  0  0
 11  7  1  0  0  0  0
 11  9  2  0  0  0  0
 12  9  1  0  0  0  0
 13  8  1  0  0  0  0
 14 17  1  6  0  0  0
 14 12  1  0  0  0  0
 16 15  2  0  0  0  0
 16 17  1  0  0  0  0
 18 19  1  0  0  0  0
 18 16  1  0  0  0  0
 19 20  1  0  0  0  0
 23 31  1  6  0  0  0
 24 21  1  6  0  0  0
 24 25  1  0  0  0  0
 24 23  1  0  0  0  0
 25 22  1  6  0  0  0
 25 35  1  0  0  0  0
 25 23  1  0  0  0  0
 26 29  1  1  0  0  0
 27 26  1  0  0  0  0
 28 26  1  0  0  0  0
 30 27  1  0  0  0  0
 30 28  1  0  0  0  0
 31 30  1  0  0  0  0
 31 28  1  0  0  0  0
 32 36  1  0  0  0  0
 33 36  2  0  0  0  0
 34 37  2  0  0  0  0
 34 35  1  0  0  0  0
 35 32  2  0  0  0  0
 37 33  1  0  0  0  0
M  END
>  <MODEL>
9

>  <REMARK>
 VINA RESULT:      -7.7      3.334     10.981
  Name = 
  8 active torsions:
  status: ('A' for Active; 'I' for Inactive)
    1  A    between atoms: O_1  and  C_16
    2  A    between atoms: O_1  and  C_24
    3  A    between atoms: C_8  and  O_25
    4  A    between atoms: C_13  and  O_25
    5  A    between atoms: N_14  and  C_17
    6  A    between atoms: C_23  and  C_33
    7  A    between atoms: C_26  and  C_32
    8  A    between atoms: N_30  and  C_36
                            x       y       z     vdW  Elec       q    Type
                         _______ _______ _______ _____ _____    ______ ____

>  <TORSDO>
F 8

$$$$
