=
 OpenBabel10222420453D

 39 40  0  0  1  0  0  0  0  0999 V2000
  188.5750  178.1240  140.8890 C   0  0  2  0  0  3  0  0  0  0  0  0
  191.0750  176.8220  144.1550 C   0  0  0  0  0  0  0  0  0  0  0  0
  190.8920  178.1930  143.9200 C   0  0  0  0  0  3  0  0  0  0  0  0
  189.4480  177.6920  142.0340 C   0  0  0  0  0  0  0  0  0  0  0  0
  190.0840  178.6260  142.8660 C   0  0  0  0  0  3  0  0  0  0  0  0
  189.6280  176.3260  142.2690 C   0  0  0  0  0  3  0  0  0  0  0  0
  190.4380  175.8930  143.3230 C   0  0  0  0  0  3  0  0  0  0  0  0
  192.5930  175.9740  147.5270 O   0  0  0  0  0  1  0  0  0  0  0  0
  191.6460  176.4410  146.6250 C   0  0  0  0  0  0  0  0  0  0  0  0
  191.9080  176.3390  145.2180 N   0  0  0  0  0  2  0  0  0  0  0  0
  190.5670  176.9280  147.0570 O   0  0  0  0  0  0  0  0  0  0  0  0
  187.1630  178.4740  141.2670 C   0  0  0  0  0  0  0  0  0  0  0  0
  186.3570  178.8250  140.3600 O   0  0  0  0  0  0  0  0  0  0  0  0
  186.7310  178.4010  142.6310 N   0  0  0  0  0  0  0  0  0  0  0  0
  185.4970  178.5910  142.9770 C   0  0  0  0  0  3  0  0  0  0  0  0
  185.0990  178.5330  144.4130 C   0  0  0  0  0  2  0  0  0  0  0  0
  186.0420  177.6480  145.2190 C   0  0  0  0  0  2  0  0  0  0  0  0
  187.4330  177.7510  147.3270 N   0  0  0  0  0  2  0  0  0  0  0  0
  186.3510  178.2630  146.5460 C   0  0  0  0  0  0  0  0  0  0  0  0
  185.6710  179.2440  146.9570 O   0  0  0  0  0  0  0  0  0  0  0  0
  187.7940  178.3300  148.6140 C   0  0  0  0  0  1  0  0  0  0  0  0
  188.6830  177.2210  139.6550 C   0  0  0  0  0  2  0  0  0  0  0  0
  189.3310  177.9040  138.4530 C   0  0  1  0  0  3  0  0  0  0  0  0
  191.0800  176.1820  138.7290 C   0  0  0  0  0  2  0  0  0  0  0  0
  190.7090  177.3510  138.2130 C   0  0  0  0  0  3  0  0  0  0  0  0
  189.2100  177.3580  136.0190 C   0  0  0  0  0  1  0  0  0  0  0  0
  188.4090  177.8250  137.2240 C   0  0  1  0  0  3  0  0  0  0  0  0
  187.0020  175.9590  136.3100 C   0  0  0  0  0  3  0  0  0  0  0  0
  185.9430  177.7460  137.3150 N   0  0  0  0  0  0  0  0  0  0  0  0
  187.1600  176.9490  137.4280 C   0  0  2  0  0  3  0  0  0  0  0  0
  185.8520  176.2430  135.7280 C   0  0  0  0  0  0  0  0  0  0  0  0
  185.2170  177.3430  136.3570 N   0  0  0  0  0  0  0  0  0  0  0  0
  184.5090  174.4230  134.7110 C   0  0  0  0  0  3  0  0  0  0  0  0
  185.3020  175.4860  134.5940 C   0  0  0  0  0  3  0  0  0  0  0  0
  184.1120  173.9300  135.9500 O   0  0  0  0  0  0  0  0  0  0  0  0
  184.9050  172.5770  136.6390 P   0  0  0  0  0  0  0  0  0  0  0  0
  186.0870  172.1930  135.7770 O   0  0  0  0  0  0  0  0  0  0  0  0
  183.8310  171.2740  136.7380 O   0  0  0  0  0  1  0  0  0  0  0  0
  185.4470  172.9770  138.1890 O   0  0  0  0  0  1  0  0  0  0  0  0
  1 22  1  6  0  0  0
  1 12  1  0  0  0  0
  1  4  1  0  0  0  0
  2 10  1  0  0  0  0
  3  2  1  0  0  0  0
  4  6  2  0  0  0  0
  4  5  1  0  0  0  0
  5  3  2  0  0  0  0
  6  7  1  0  0  0  0
  7  2  2  0  0  0  0
  9 11  2  0  0  0  0
  9  8  1  0  0  0  0
 10  9  1  0  0  0  0
 12 14  1  0  0  0  0
 13 12  2  0  0  0  0
 14 15  2  0  0  0  0
 15 16  1  0  0  0  0
 16 17  1  0  0  0  0
 17 19  1  0  0  0  0
 18 21  1  0  0  0  0
 19 20  2  0  0  0  0
 19 18  1  0  0  0  0
 23 25  1  6  0  0  0
 23 22  1  0  0  0  0
 25 24  2  0  0  0  0
 27 26  1  6  0  0  0
 27 23  1  0  0  0  0
 28 30  1  0  0  0  0
 29 30  1  0  0  0  0
 30 27  1  6  0  0  0
 31 28  2  0  0  0  0
 31 32  1  0  0  0  0
 32 29  2  0  0  0  0
 33 35  1  0  0  0  0
 34 33  2  0  0  0  0
 34 31  1  0  0  0  0
 35 36  1  0  0  0  0
 36 38  1  0  0  0  0
 36 39  1  0  0  0  0
 37 36  2  0  0  0  0
M  END
>  <MODEL>
1

>  <REMARK>
 VINA RESULT:      -7.3      0.000      0.000
  Name = 
  15 active torsions:
  status: ('A' for Active; 'I' for Inactive)
    1  A    between atoms: C_1  and  O_5
    2  A    between atoms: C_2  and  N_21
    3  A    between atoms: O_5  and  P_7
    4  A    between atoms: C_12  and  C_35
    5  A    between atoms: C_13  and  C_15
    6  A    between atoms: C_15  and  C_35
    7  A    between atoms: C_16  and  C_25
    8  A    between atoms: C_16  and  C_37
    9  A    between atoms: C_17  and  C_19
   10  A    between atoms: C_18  and  C_31
   11  A    between atoms: C_18  and  C_35
   12  A    between atoms: C_22  and  C_25
   13  A    between atoms: C_23  and  C_31
   14  A    between atoms: N_28  and  C_32
   15  A    between atoms: C_31  and  C_32
                            x       y       z     vdW  Elec       q    Type
                         _______ _______ _______ _____ _____    ______ ____

>  <TORSDO>
F 15

$$$$
=
 OpenBabel10222420453D

 39 40  0  0  1  0  0  0  0  0999 V2000
  188.7470  178.0160  140.9870 C   0  0  2  0  0  3  0  0  0  0  0  0
  191.1990  176.7210  144.2920 C   0  0  0  0  0  0  0  0  0  0  0  0
  190.9700  178.0900  144.0880 C   0  0  0  0  0  3  0  0  0  0  0  0
  189.6020  177.5870  142.1460 C   0  0  0  0  0  0  0  0  0  0  0  0
  190.1770  178.5210  143.0210 C   0  0  0  0  0  3  0  0  0  0  0  0
  189.8270  176.2220  142.3510 C   0  0  0  0  0  3  0  0  0  0  0  0
  190.6230  175.7920  143.4180 C   0  0  0  0  0  3  0  0  0  0  0  0
  192.6060  175.7550  147.6810 O   0  0  0  0  0  1  0  0  0  0  0  0
  191.6660  176.1940  146.7570 C   0  0  0  0  0  0  0  0  0  0  0  0
  192.0190  176.2410  145.3670 N   0  0  0  0  0  2  0  0  0  0  0  0
  190.5160  176.5230  147.1530 O   0  0  0  0  0  0  0  0  0  0  0  0
  187.3560  178.4550  141.3550 C   0  0  0  0  0  0  0  0  0  0  0  0
  186.5990  178.9030  140.4490 O   0  0  0  0  0  0  0  0  0  0  0  0
  186.8910  178.3560  142.7060 N   0  0  0  0  0  0  0  0  0  0  0  0
  185.6440  178.5060  143.0200 C   0  0  0  0  0  3  0  0  0  0  0  0
  185.2100  178.4230  144.4450 C   0  0  0  0  0  2  0  0  0  0  0  0
  186.1560  177.5560  145.2670 C   0  0  0  0  0  2  0  0  0  0  0  0
  187.5190  177.6940  147.3920 N   0  0  0  0  0  2  0  0  0  0  0  0
  186.4340  178.1780  146.5980 C   0  0  0  0  0  0  0  0  0  0  0  0
  185.7250  179.1430  146.9990 O   0  0  0  0  0  0  0  0  0  0  0  0
  187.8500  178.2820  148.6820 C   0  0  0  0  0  1  0  0  0  0  0  0
  188.8020  177.0600  139.7910 C   0  0  0  0  0  2  0  0  0  0  0  0
  189.3140  177.7120  138.5100 C   0  0  1  0  0  3  0  0  0  0  0  0
  191.3950  176.4500  138.9280 C   0  0  0  0  0  2  0  0  0  0  0  0
  190.7960  177.4950  138.3630 C   0  0  0  0  0  3  0  0  0  0  0  0
  188.1540  175.7640  137.4610 C   0  0  0  0  0  1  0  0  0  0  0  0
  188.4960  177.2370  137.2960 C   0  0  1  0  0  3  0  0  0  0  0  0
  186.0160  177.4240  137.6350 C   0  0  0  0  0  2  0  0  0  0  0  0
  186.9020  178.0690  135.6040 N   0  0  0  0  0  2  0  0  0  0  0  0
  187.2280  178.0680  137.0270 C   0  0  2  0  0  3  0  0  0  0  0  0
  185.2040  177.1470  136.6320 C   0  0  0  0  0  0  0  0  0  0  0  0
  185.7650  177.5480  135.3930 N   0  0  0  0  0  0  0  0  0  0  0  0
  182.7800  177.1900  137.1520 C   0  0  0  0  0  3  0  0  0  0  0  0
  183.8810  176.5290  136.7990 C   0  0  0  0  0  3  0  0  0  0  0  0
  182.7850  178.5600  137.3880 O   0  0  0  0  0  0  0  0  0  0  0  0
  182.9080  179.1640  138.9870 P   0  0  0  0  0  0  0  0  0  0  0  0
  183.2880  178.0390  139.9230 O   0  0  0  0  0  1  0  0  0  0  0  0
  181.4240  179.8200  139.4660 O   0  0  0  0  0  1  0  0  0  0  0  0
  184.0970  180.3640  139.0400 O   0  0  0  0  0  0  0  0  0  0  0  0
  1 22  1  6  0  0  0
  1 12  1  0  0  0  0
  1  4  1  0  0  0  0
  2 10  1  0  0  0  0
  3  2  1  0  0  0  0
  4  6  2  0  0  0  0
  4  5  1  0  0  0  0
  5  3  2  0  0  0  0
  6  7  1  0  0  0  0
  7  2  2  0  0  0  0
  9 11  2  0  0  0  0
  9  8  1  0  0  0  0
 10  9  1  0  0  0  0
 12 14  1  0  0  0  0
 13 12  2  0  0  0  0
 14 15  2  0  0  0  0
 15 16  1  0  0  0  0
 16 17  1  0  0  0  0
 17 19  1  0  0  0  0
 18 21  1  0  0  0  0
 19 20  2  0  0  0  0
 19 18  1  0  0  0  0
 23 25  1  6  0  0  0
 23 22  1  0  0  0  0
 25 24  2  0  0  0  0
 27 26  1  1  0  0  0
 27 23  1  0  0  0  0
 29 30  1  0  0  0  0
 30 27  1  6  0  0  0
 30 28  1  0  0  0  0
 31 34  1  0  0  0  0
 31 28  1  0  0  0  0
 32 29  1  0  0  0  0
 32 31  2  0  0  0  0
 33 35  1  0  0  0  0
 34 33  2  0  0  0  0
 35 36  1  0  0  0  0
 36 39  2  0  0  0  0
 36 38  1  0  0  0  0
 36 37  1  0  0  0  0
M  END
>  <MODEL>
2

>  <REMARK>
 VINA RESULT:      -7.3      2.538      2.893
  Name = 
  15 active torsions:
  status: ('A' for Active; 'I' for Inactive)
    1  A    between atoms: C_1  and  O_5
    2  A    between atoms: C_2  and  N_21
    3  A    between atoms: O_5  and  P_7
    4  A    between atoms: C_12  and  C_35
    5  A    between atoms: C_13  and  C_15
    6  A    between atoms: C_15  and  C_35
    7  A    between atoms: C_16  and  C_25
    8  A    between atoms: C_16  and  C_37
    9  A    between atoms: C_17  and  C_19
   10  A    between atoms: C_18  and  C_31
   11  A    between atoms: C_18  and  C_35
   12  A    between atoms: C_22  and  C_25
   13  A    between atoms: C_23  and  C_31
   14  A    between atoms: N_28  and  C_32
   15  A    between atoms: C_31  and  C_32
                            x       y       z     vdW  Elec       q    Type
                         _______ _______ _______ _____ _____    ______ ____

>  <TORSDO>
F 15

$$$$
=
 OpenBabel10222420453D

 39 40  0  0  1  0  0  0  0  0999 V2000
  188.9230  177.8310  140.9540 C   0  0  2  0  0  3  0  0  0  0  0  0
  191.2150  177.2350  144.5620 C   0  0  0  0  0  0  0  0  0  0  0  0
  190.8850  176.1350  143.7550 C   0  0  0  0  0  3  0  0  0  0  0  0
  189.7250  177.6010  142.2060 C   0  0  0  0  0  0  0  0  0  0  0  0
  190.1440  176.3160  142.5840 C   0  0  0  0  0  3  0  0  0  0  0  0
  190.0550  178.6970  143.0080 C   0  0  0  0  0  3  0  0  0  0  0  0
  190.7950  178.5150  144.1800 C   0  0  0  0  0  3  0  0  0  0  0  0
  192.3040  176.6290  148.1450 O   0  0  0  0  0  1  0  0  0  0  0  0
  191.4520  176.6570  147.0480 C   0  0  0  0  0  0  0  0  0  0  0  0
  191.9620  177.0880  145.7770 N   0  0  0  0  0  2  0  0  0  0  0  0
  190.2560  176.2850  147.1830 O   0  0  0  0  0  0  0  0  0  0  0  0
  187.4860  178.2050  141.1850 C   0  0  0  0  0  0  0  0  0  0  0  0
  186.8220  178.6960  140.2280 O   0  0  0  0  0  0  0  0  0  0  0  0
  186.8710  178.0000  142.4630 N   0  0  0  0  0  0  0  0  0  0  0  0
  185.8040  178.6360  142.8270 C   0  0  0  0  0  3  0  0  0  0  0  0
  185.2160  178.4110  144.1790 C   0  0  0  0  0  2  0  0  0  0  0  0
  186.1280  177.5550  145.0490 C   0  0  0  0  0  2  0  0  0  0  0  0
  187.5000  177.8320  147.1540 N   0  0  0  0  0  2  0  0  0  0  0  0
  186.3530  178.1940  146.3810 C   0  0  0  0  0  0  0  0  0  0  0  0
  185.5440  179.0660  146.8030 O   0  0  0  0  0  0  0  0  0  0  0  0
  187.7820  178.4440  148.4440 C   0  0  0  0  0  1  0  0  0  0  0  0
  189.1220  176.7500  139.8860 C   0  0  0  0  0  2  0  0  0  0  0  0
  189.4820  177.3070  138.5120 C   0  0  1  0  0  3  0  0  0  0  0  0
  189.0200  179.3880  137.2650 C   0  0  0  0  0  2  0  0  0  0  0  0
  189.1590  178.7750  138.4370 C   0  0  0  0  0  3  0  0  0  0  0  0
  191.7230  176.7080  139.4370 C   0  0  0  0  0  1  0  0  0  0  0  0
  190.9430  176.9750  138.1600 C   0  0  1  0  0  3  0  0  0  0  0  0
  189.9160  175.7120  136.2500 C   0  0  0  0  0  3  0  0  0  0  0  0
  191.0710  174.5280  137.8600 N   0  0  0  0  0  0  0  0  0  0  0  0
  191.1020  175.8110  137.1650 C   0  0  2  0  0  3  0  0  0  0  0  0
  189.3770  174.5280  136.4740 C   0  0  0  0  0  0  0  0  0  0  0  0
  190.0980  173.8170  137.4660 N   0  0  0  0  0  0  0  0  0  0  0  0
  186.9630  174.4910  135.9060 C   0  0  0  0  0  3  0  0  0  0  0  0
  188.1990  174.0180  135.7580 C   0  0  0  0  0  3  0  0  0  0  0  0
  186.6740  175.5450  136.7670 O   0  0  0  0  0  0  0  0  0  0  0  0
  185.8890  176.9520  136.1830 P   0  0  0  0  0  0  0  0  0  0  0  0
  184.5640  176.5680  135.5630 O   0  0  0  0  0  1  0  0  0  0  0  0
  186.8590  177.7060  135.0200 O   0  0  0  0  0  0  0  0  0  0  0  0
  185.6210  178.0160  137.4680 O   0  0  0  0  0  1  0  0  0  0  0  0
  1 22  1  6  0  0  0
  1 12  1  0  0  0  0
  1  4  1  0  0  0  0
  2 10  1  0  0  0  0
  3  2  2  0  0  0  0
  4  5  2  0  0  0  0
  4  6  1  0  0  0  0
  5  3  1  0  0  0  0
  6  7  2  0  0  0  0
  7  2  1  0  0  0  0
  9 11  2  0  0  0  0
  9  8  1  0  0  0  0
 10  9  1  0  0  0  0
 12 14  1  0  0  0  0
 13 12  2  0  0  0  0
 14 15  2  0  0  0  0
 15 16  1  0  0  0  0
 16 17  1  0  0  0  0
 17 19  1  0  0  0  0
 18 21  1  0  0  0  0
 19 20  2  0  0  0  0
 19 18  1  0  0  0  0
 23 25  1  1  0  0  0
 23 22  1  0  0  0  0
 24 25  2  0  0  0  0
 27 23  1  0  0  0  0
 27 26  1  1  0  0  0
 28 31  2  0  0  0  0
 28 30  1  0  0  0  0
 30 29  1  0  0  0  0
 30 27  1  1  0  0  0
 31 32  1  0  0  0  0
 32 29  2  0  0  0  0
 33 35  1  0  0  0  0
 34 33  2  0  0  0  0
 34 31  1  0  0  0  0
 36 35  1  0  0  0  0
 36 39  1  0  0  0  0
 37 36  1  0  0  0  0
 38 36  2  0  0  0  0
M  END
>  <MODEL>
3

>  <REMARK>
 VINA RESULT:      -7.3      2.156      2.965
  Name = 
  15 active torsions:
  status: ('A' for Active; 'I' for Inactive)
    1  A    between atoms: C_1  and  O_5
    2  A    between atoms: C_2  and  N_21
    3  A    between atoms: O_5  and  P_7
    4  A    between atoms: C_12  and  C_35
    5  A    between atoms: C_13  and  C_15
    6  A    between atoms: C_15  and  C_35
    7  A    between atoms: C_16  and  C_25
    8  A    between atoms: C_16  and  C_37
    9  A    between atoms: C_17  and  C_19
   10  A    between atoms: C_18  and  C_31
   11  A    between atoms: C_18  and  C_35
   12  A    between atoms: C_22  and  C_25
   13  A    between atoms: C_23  and  C_31
   14  A    between atoms: N_28  and  C_32
   15  A    between atoms: C_31  and  C_32
                            x       y       z     vdW  Elec       q    Type
                         _______ _______ _______ _____ _____    ______ ____

>  <TORSDO>
F 15

$$$$
=
 OpenBabel10222420453D

 39 40  0  0  1  0  0  0  0  0999 V2000
  185.6920  178.7570  141.7490 C   0  0  2  0  0  3  0  0  0  0  0  0
  182.5770  178.5150  138.7730 C   0  0  0  0  0  0  0  0  0  0  0  0
  182.6280  177.5680  139.8080 C   0  0  0  0  0  3  0  0  0  0  0  0
  184.5960  178.6550  140.7240 C   0  0  0  0  0  0  0  0  0  0  0  0
  183.6320  177.6370  140.7770 C   0  0  0  0  0  3  0  0  0  0  0  0
  184.5440  179.6000  139.6950 C   0  0  0  0  0  3  0  0  0  0  0  0
  183.5400  179.5290  138.7240 C   0  0  0  0  0  3  0  0  0  0  0  0
  180.5780  177.8210  135.6230 O   0  0  0  0  0  0  0  0  0  0  0  0
  181.6150  177.7010  136.5400 C   0  0  0  0  0  0  0  0  0  0  0  0
  181.5700  178.4690  137.7520 N   0  0  0  0  0  2  0  0  0  0  0  0
  182.5650  176.9090  136.3000 O   0  0  0  0  0  1  0  0  0  0  0  0
  187.0860  178.6310  141.1990 C   0  0  0  0  0  0  0  0  0  0  0  0
  188.0600  178.6240  142.0020 O   0  0  0  0  0  0  0  0  0  0  0  0
  187.3080  178.5080  139.7880 N   0  0  0  0  0  0  0  0  0  0  0  0
  188.1270  177.6370  139.2910 C   0  0  0  0  0  3  0  0  0  0  0  0
  188.3480  177.5660  137.8180 C   0  0  0  0  0  2  0  0  0  0  0  0
  188.9740  176.2380  137.4100 C   0  0  0  0  0  2  0  0  0  0  0  0
  191.4680  176.5170  137.1020 N   0  0  0  0  0  2  0  0  0  0  0  0
  190.3710  176.1230  137.9300 C   0  0  0  0  0  0  0  0  0  0  0  0
  190.5720  175.7030  139.1040 O   0  0  0  0  0  0  0  0  0  0  0  0
  192.8450  176.4510  137.5680 C   0  0  0  0  0  1  0  0  0  0  0  0
  185.4410  177.9180  143.0060 C   0  0  0  0  0  2  0  0  0  0  0  0
  185.6380  178.6930  144.3070 C   0  0  1  0  0  3  0  0  0  0  0  0
  183.1830  178.7480  144.5670 C   0  0  0  0  0  2  0  0  0  0  0  0
  184.3540  179.3580  144.7230 C   0  0  0  0  0  3  0  0  0  0  0  0
  186.8370  176.5450  144.7390 C   0  0  0  0  0  1  0  0  0  0  0  0
  186.2450  177.7840  145.3910 C   0  0  1  0  0  3  0  0  0  0  0  0
  188.6710  177.9860  146.0020 C   0  0  0  0  0  3  0  0  0  0  0  0
  187.0970  178.1030  147.6860 N   0  0  0  0  0  0  0  0  0  0  0  0
  187.2830  178.4820  146.2890 C   0  0  2  0  0  3  0  0  0  0  0  0
  189.1030  177.4350  147.1210 C   0  0  0  0  0  0  0  0  0  0  0  0
  188.1230  177.5150  148.1420 N   0  0  0  0  0  0  0  0  0  0  0  0
  191.3610  176.8000  146.3170 C   0  0  0  0  0  3  0  0  0  0  0  0
  190.4400  176.8470  147.2780 C   0  0  0  0  0  3  0  0  0  0  0  0
  191.1340  177.3300  145.0510 O   0  0  0  0  0  0  0  0  0  0  0  0
  191.2820  176.3410  143.6590 P   0  0  0  0  0  0  0  0  0  0  0  0
  192.0810  175.1040  144.0010 O   0  0  0  0  0  1  0  0  0  0  0  0
  192.0670  177.1980  142.4300 O   0  0  0  0  0  0  0  0  0  0  0  0
  189.7410  175.8870  143.1310 O   0  0  0  0  0  1  0  0  0  0  0  0
  1 22  1  1  0  0  0
  2  3  1  0  0  0  0
  3  5  2  0  0  0  0
  4  5  1  0  0  0  0
  4  1  1  0  0  0  0
  6  4  2  0  0  0  0
  7  2  2  0  0  0  0
  7  6  1  0  0  0  0
  8  9  2  0  0  0  0
  9 10  1  0  0  0  0
 10  2  1  0  0  0  0
 11  9  1  0  0  0  0
 12  1  1  0  0  0  0
 12 13  2  0  0  0  0
 14 12  1  0  0  0  0
 15 14  2  0  0  0  0
 16 15  1  0  0  0  0
 17 16  1  0  0  0  0
 17 19  1  0  0  0  0
 18 21  1  0  0  0  0
 18 19  1  0  0  0  0
 19 20  2  0  0  0  0
 23 22  1  6  0  0  0
 23 25  1  0  0  0  0
 23 27  1  0  0  0  0
 24 25  2  0  0  0  0
 27 26  1  6  0  0  0
 28 30  1  0  0  0  0
 28 31  2  0  0  0  0
 29 32  2  0  0  0  0
 30 27  1  6  0  0  0
 30 29  1  0  0  0  0
 31 34  1  0  0  0  0
 31 32  1  0  0  0  0
 33 34  2  0  0  0  0
 35 33  1  0  0  0  0
 36 37  1  0  0  0  0
 36 35  1  0  0  0  0
 38 36  2  0  0  0  0
 39 36  1  0  0  0  0
M  END
>  <MODEL>
4

>  <REMARK>
 VINA RESULT:      -6.7      3.425      9.849
  Name = 
  15 active torsions:
  status: ('A' for Active; 'I' for Inactive)
    1  A    between atoms: C_1  and  O_5
    2  A    between atoms: C_2  and  N_21
    3  A    between atoms: O_5  and  P_7
    4  A    between atoms: C_12  and  C_35
    5  A    between atoms: C_13  and  C_15
    6  A    between atoms: C_15  and  C_35
    7  A    between atoms: C_16  and  C_25
    8  A    between atoms: C_16  and  C_37
    9  A    between atoms: C_17  and  C_19
   10  A    between atoms: C_18  and  C_31
   11  A    between atoms: C_18  and  C_35
   12  A    between atoms: C_22  and  C_25
   13  A    between atoms: C_23  and  C_31
   14  A    between atoms: N_28  and  C_32
   15  A    between atoms: C_31  and  C_32
                            x       y       z     vdW  Elec       q    Type
                         _______ _______ _______ _____ _____    ______ ____

>  <TORSDO>
F 15

$$$$
=
 OpenBabel10222420453D

 39 40  0  0  1  0  0  0  0  0999 V2000
  183.3320  178.4120  140.0320 C   0  0  2  0  0  3  0  0  0  0  0  0
  180.5520  175.6620  138.2080 C   0  0  0  0  0  0  0  0  0  0  0  0
  180.5290  177.0190  137.8490 C   0  0  0  0  0  3  0  0  0  0  0  0
  182.3570  177.4710  139.3820 C   0  0  0  0  0  0  0  0  0  0  0  0
  181.4250  177.9180  138.4320 C   0  0  0  0  0  3  0  0  0  0  0  0
  182.3820  176.1190  139.7380 C   0  0  0  0  0  3  0  0  0  0  0  0
  181.4840  175.2200  139.1550 C   0  0  0  0  0  3  0  0  0  0  0  0
  178.9310  172.8910  136.1860 O   0  0  0  0  0  0  0  0  0  0  0  0
  179.9520  173.6920  136.6810 C   0  0  0  0  0  0  0  0  0  0  0  0
  179.6400  174.7120  137.6410 N   0  0  0  0  0  2  0  0  0  0  0  0
  181.1350  173.4970  136.2930 O   0  0  0  0  0  1  0  0  0  0  0  0
  184.3560  179.0030  139.1020 C   0  0  0  0  0  0  0  0  0  0  0  0
  184.5470  180.2510  139.1190 O   0  0  0  0  0  0  0  0  0  0  0  0
  185.1130  178.1650  138.2190 N   0  0  0  0  0  0  0  0  0  0  0  0
  186.3890  178.3080  138.0570 C   0  0  0  0  0  3  0  0  0  0  0  0
  187.1310  177.4320  137.1040 C   0  0  0  0  0  2  0  0  0  0  0  0
  187.9590  176.3840  137.8380 C   0  0  0  0  0  2  0  0  0  0  0  0
  189.8890  176.7320  139.4320 N   0  0  0  0  0  2  0  0  0  0  0  0
  189.3340  176.8930  138.1250 C   0  0  0  0  0  0  0  0  0  0  0  0
  190.0060  177.4390  137.2060 O   0  0  0  0  0  0  0  0  0  0  0  0
  191.2340  177.1840  139.7580 C   0  0  0  0  0  1  0  0  0  0  0  0
  183.9160  177.8860  141.3470 C   0  0  0  0  0  2  0  0  0  0  0  0
  184.0590  178.9580  142.4250 C   0  0  1  0  0  3  0  0  0  0  0  0
  181.6490  178.9410  142.9660 C   0  0  0  0  0  2  0  0  0  0  0  0
  182.9090  178.8900  143.3920 C   0  0  0  0  0  3  0  0  0  0  0  0
  185.2650  178.5550  144.5740 C   0  0  0  0  0  1  0  0  0  0  0  0
  185.4410  178.8680  143.0970 C   0  0  1  0  0  3  0  0  0  0  0  0
  187.1540  177.0710  143.4600 C   0  0  0  0  0  2  0  0  0  0  0  0
  187.4720  178.5630  141.7280 N   0  0  0  0  0  2  0  0  0  0  0  0
  186.4010  177.8650  142.4320 C   0  0  2  0  0  3  0  0  0  0  0  0
  188.4310  177.3500  143.2760 C   0  0  0  0  0  0  0  0  0  0  0  0
  188.6070  178.2680  142.2110 N   0  0  0  0  0  0  0  0  0  0  0  0
  189.8240  177.1020  145.3140 C   0  0  0  0  0  3  0  0  0  0  0  0
  189.5180  176.7530  144.0650 C   0  0  0  0  0  3  0  0  0  0  0  0
  189.1130  178.0800  146.0010 O   0  0  0  0  0  0  0  0  0  0  0  0
  188.4460  177.7430  147.5430 P   0  0  0  0  0  0  0  0  0  0  0  0
  188.3820  176.2470  147.7490 O   0  0  0  0  0  1  0  0  0  0  0  0
  186.8880  178.3940  147.6460 O   0  0  0  0  0  0  0  0  0  0  0  0
  189.4230  178.4330  148.7370 O   0  0  0  0  0  1  0  0  0  0  0  0
  1 22  1  1  0  0  0
  2  7  1  0  0  0  0
  3  2  2  0  0  0  0
  3  5  1  0  0  0  0
  4  6  1  0  0  0  0
  4  1  1  0  0  0  0
  5  4  2  0  0  0  0
  7  6  2  0  0  0  0
  8  9  2  0  0  0  0
  9 10  1  0  0  0  0
 10  2  1  0  0  0  0
 11  9  1  0  0  0  0
 12 13  2  0  0  0  0
 12  1  1  0  0  0  0
 14 12  1  0  0  0  0
 15 14  2  0  0  0  0
 16 17  1  0  0  0  0
 16 15  1  0  0  0  0
 17 19  1  0  0  0  0
 18 21  1  0  0  0  0
 19 18  1  0  0  0  0
 20 19  2  0  0  0  0
 23 22  1  6  0  0  0
 23 27  1  0  0  0  0
 23 25  1  0  0  0  0
 24 25  2  0  0  0  0
 27 26  1  1  0  0  0
 29 32  1  0  0  0  0
 29 30  1  0  0  0  0
 30 27  1  1  0  0  0
 30 28  1  0  0  0  0
 31 28  1  0  0  0  0
 31 34  1  0  0  0  0
 32 31  2  0  0  0  0
 33 35  1  0  0  0  0
 34 33  2  0  0  0  0
 35 36  1  0  0  0  0
 36 38  2  0  0  0  0
 36 37  1  0  0  0  0
 36 39  1  0  0  0  0
M  END
>  <MODEL>
5

>  <REMARK>
 VINA RESULT:      -6.7      3.877      9.940
  Name = 
  15 active torsions:
  status: ('A' for Active; 'I' for Inactive)
    1  A    between atoms: C_1  and  O_5
    2  A    between atoms: C_2  and  N_21
    3  A    between atoms: O_5  and  P_7
    4  A    between atoms: C_12  and  C_35
    5  A    between atoms: C_13  and  C_15
    6  A    between atoms: C_15  and  C_35
    7  A    between atoms: C_16  and  C_25
    8  A    between atoms: C_16  and  C_37
    9  A    between atoms: C_17  and  C_19
   10  A    between atoms: C_18  and  C_31
   11  A    between atoms: C_18  and  C_35
   12  A    between atoms: C_22  and  C_25
   13  A    between atoms: C_23  and  C_31
   14  A    between atoms: N_28  and  C_32
   15  A    between atoms: C_31  and  C_32
                            x       y       z     vdW  Elec       q    Type
                         _______ _______ _______ _____ _____    ______ ____

>  <TORSDO>
F 15

$$$$
=
 OpenBabel10222420453D

 39 40  0  0  1  0  0  0  0  0999 V2000
  186.0440  178.7620  141.7270 C   0  0  2  0  0  3  0  0  0  0  0  0
  182.7730  178.5750  138.9190 C   0  0  0  0  0  0  0  0  0  0  0  0
  183.8670  179.4160  138.6610 C   0  0  0  0  0  3  0  0  0  0  0  0
  184.9170  178.7100  140.7340 C   0  0  0  0  0  0  0  0  0  0  0  0
  184.9320  179.4840  139.5630 C   0  0  0  0  0  3  0  0  0  0  0  0
  183.8290  177.8700  140.9900 C   0  0  0  0  0  3  0  0  0  0  0  0
  182.7630  177.8040  140.0880 C   0  0  0  0  0  3  0  0  0  0  0  0
  179.4330  179.0060  137.1730 O   0  0  0  0  0  0  0  0  0  0  0  0
  180.4490  179.2620  138.0850 C   0  0  0  0  0  0  0  0  0  0  0  0
  181.6560  178.4880  138.0240 N   0  0  0  0  0  2  0  0  0  0  0  0
  180.3010  180.1800  138.9360 O   0  0  0  0  0  1  0  0  0  0  0  0
  187.4170  178.6030  141.1350 C   0  0  0  0  0  0  0  0  0  0  0  0
  188.4240  178.7320  141.8860 O   0  0  0  0  0  0  0  0  0  0  0  0
  187.5830  178.2980  139.7440 N   0  0  0  0  0  0  0  0  0  0  0  0
  188.7000  178.5010  139.1220 C   0  0  0  0  0  3  0  0  0  0  0  0
  188.8180  178.1960  137.6660 C   0  0  0  0  0  2  0  0  0  0  0  0
  187.5650  178.6120  136.9060 C   0  0  0  0  0  2  0  0  0  0  0  0
  185.8290  176.7990  137.2080 N   0  0  0  0  0  2  0  0  0  0  0  0
  186.8280  177.4170  136.3930 C   0  0  0  0  0  0  0  0  0  0  0  0
  187.0740  176.9760  135.2360 O   0  0  0  0  0  0  0  0  0  0  0  0
  185.0620  175.6510  136.7470 C   0  0  0  0  0  1  0  0  0  0  0  0
  185.8040  177.9120  142.9790 C   0  0  0  0  0  2  0  0  0  0  0  0
  185.8690  178.7080  144.2800 C   0  0  1  0  0  3  0  0  0  0  0  0
  183.4320  178.6900  144.6770 C   0  0  0  0  0  2  0  0  0  0  0  0
  184.5560  179.3910  144.5470 C   0  0  0  0  0  3  0  0  0  0  0  0
  186.8860  176.5060  144.8780 C   0  0  0  0  0  1  0  0  0  0  0  0
  186.3490  177.8150  145.4380 C   0  0  1  0  0  3  0  0  0  0  0  0
  188.7770  178.0290  146.0350 C   0  0  0  0  0  3  0  0  0  0  0  0
  187.2190  178.0250  147.7390 N   0  0  0  0  0  0  0  0  0  0  0  0
  187.3840  178.4820  146.3620 C   0  0  2  0  0  3  0  0  0  0  0  0
  189.2310  177.4260  147.1190 C   0  0  0  0  0  0  0  0  0  0  0  0
  188.2610  177.4320  148.1520 N   0  0  0  0  0  0  0  0  0  0  0  0
  191.4710  176.8240  146.2400 C   0  0  0  0  0  3  0  0  0  0  0  0
  190.5810  176.8560  147.2310 C   0  0  0  0  0  3  0  0  0  0  0  0
  191.1960  177.3550  144.9840 O   0  0  0  0  0  0  0  0  0  0  0  0
  191.2280  176.3520  143.5940 P   0  0  0  0  0  0  0  0  0  0  0  0
  189.8120  176.0650  143.1490 O   0  0  0  0  0  1  0  0  0  0  0  0
  192.0120  174.8980  143.9560 O   0  0  0  0  0  1  0  0  0  0  0  0
  192.0570  177.1460  142.3540 O   0  0  0  0  0  0  0  0  0  0  0  0
  1 22  1  1  0  0  0
  2  7  1  0  0  0  0
  3  2  2  0  0  0  0
  3  5  1  0  0  0  0
  4  6  1  0  0  0  0
  4  1  1  0  0  0  0
  5  4  2  0  0  0  0
  7  6  2  0  0  0  0
  8  9  2  0  0  0  0
  9 11  1  0  0  0  0
 10  9  1  0  0  0  0
 10  2  1  0  0  0  0
 12  1  1  0  0  0  0
 12 13  2  0  0  0  0
 14 12  1  0  0  0  0
 15 14  2  0  0  0  0
 16 15  1  0  0  0  0
 17 16  1  0  0  0  0
 19 17  1  0  0  0  0
 19 18  1  0  0  0  0
 20 19  2  0  0  0  0
 21 18  1  0  0  0  0
 23 22  1  6  0  0  0
 23 25  1  0  0  0  0
 23 27  1  0  0  0  0
 25 24  2  0  0  0  0
 27 26  1  6  0  0  0
 28 30  1  0  0  0  0
 28 31  2  0  0  0  0
 29 32  2  0  0  0  0
 30 27  1  6  0  0  0
 30 29  1  0  0  0  0
 31 34  1  0  0  0  0
 31 32  1  0  0  0  0
 33 34  2  0  0  0  0
 35 33  1  0  0  0  0
 36 38  1  0  0  0  0
 36 35  1  0  0  0  0
 37 36  1  0  0  0  0
 39 36  2  0  0  0  0
M  END
>  <MODEL>
6

>  <REMARK>
 VINA RESULT:      -6.7      3.435      9.853
  Name = 
  15 active torsions:
  status: ('A' for Active; 'I' for Inactive)
    1  A    between atoms: C_1  and  O_5
    2  A    between atoms: C_2  and  N_21
    3  A    between atoms: O_5  and  P_7
    4  A    between atoms: C_12  and  C_35
    5  A    between atoms: C_13  and  C_15
    6  A    between atoms: C_15  and  C_35
    7  A    between atoms: C_16  and  C_25
    8  A    between atoms: C_16  and  C_37
    9  A    between atoms: C_17  and  C_19
   10  A    between atoms: C_18  and  C_31
   11  A    between atoms: C_18  and  C_35
   12  A    between atoms: C_22  and  C_25
   13  A    between atoms: C_23  and  C_31
   14  A    between atoms: N_28  and  C_32
   15  A    between atoms: C_31  and  C_32
                            x       y       z     vdW  Elec       q    Type
                         _______ _______ _______ _____ _____    ______ ____

>  <TORSDO>
F 15

$$$$
=
 OpenBabel10222420453D

 39 40  0  0  1  0  0  0  0  0999 V2000
  191.1940  175.5000  138.1410 C   0  0  2  0  0  3  0  0  0  0  0  0
  194.9850  175.1790  136.1050 C   0  0  0  0  0  0  0  0  0  0  0  0
  194.1520  176.2820  135.8610 C   0  0  0  0  0  3  0  0  0  0  0  0
  192.5120  175.4090  137.4230 C   0  0  0  0  0  0  0  0  0  0  0  0
  192.9230  176.3960  136.5150 C   0  0  0  0  0  3  0  0  0  0  0  0
  193.3420  174.3110  137.6690 C   0  0  0  0  0  3  0  0  0  0  0  0
  194.5700  174.1960  137.0130 C   0  0  0  0  0  3  0  0  0  0  0  0
  198.6670  175.1340  135.1940 O   0  0  0  0  0  0  0  0  0  0  0  0
  197.5440  175.2820  135.9970 C   0  0  0  0  0  0  0  0  0  0  0  0
  196.2470  175.0190  135.4430 N   0  0  0  0  0  2  0  0  0  0  0  0
  197.6850  175.6250  137.2020 O   0  0  0  0  0  1  0  0  0  0  0  0
  190.0260  174.9150  137.3950 C   0  0  0  0  0  0  0  0  0  0  0  0
  189.9770  173.6650  137.2220 O   0  0  0  0  0  0  0  0  0  0  0  0
  188.9790  175.7580  136.8980 N   0  0  0  0  0  0  0  0  0  0  0  0
  189.1680  176.5950  135.9290 C   0  0  0  0  0  3  0  0  0  0  0  0
  188.0550  177.4730  135.4640 C   0  0  0  0  0  2  0  0  0  0  0  0
  187.6240  178.4510  136.5500 C   0  0  0  0  0  2  0  0  0  0  0  0
  185.8200  178.6860  138.3050 N   0  0  0  0  0  2  0  0  0  0  0  0
  186.2730  178.0980  137.0830 C   0  0  0  0  0  0  0  0  0  0  0  0
  185.5320  177.3050  136.4390 O   0  0  0  0  0  0  0  0  0  0  0  0
  184.5020  178.3990  138.8540 C   0  0  0  0  0  1  0  0  0  0  0  0
  190.9160  176.8780  138.7510 C   0  0  0  0  0  2  0  0  0  0  0  0
  191.1170  176.9280  140.2630 C   0  0  1  0  0  3  0  0  0  0  0  0
  193.5770  177.1370  140.2170 C   0  0  0  0  0  2  0  0  0  0  0  0
  192.4030  177.6310  140.6010 C   0  0  0  0  0  3  0  0  0  0  0  0
  188.7070  177.5250  139.9860 C   0  0  0  0  0  1  0  0  0  0  0  0
  189.8810  177.5320  140.9530 C   0  0  1  0  0  3  0  0  0  0  0  0
  190.0090  177.6310  143.4570 C   0  0  0  0  0  2  0  0  0  0  0  0
  190.2030  175.5760  142.4250 N   0  0  0  0  0  2  0  0  0  0  0  0
  189.5030  176.8490  142.2800 C   0  0  2  0  0  3  0  0  0  0  0  0
  190.8500  176.8370  144.0930 C   0  0  0  0  0  0  0  0  0  0  0  0
  190.9570  175.5810  143.4440 N   0  0  0  0  0  0  0  0  0  0  0  0
  191.0550  177.0580  146.5550 C   0  0  0  0  0  3  0  0  0  0  0  0
  191.5520  177.2120  145.3290 C   0  0  0  0  0  3  0  0  0  0  0  0
  189.7990  176.5040  146.7780 O   0  0  0  0  0  0  0  0  0  0  0  0
  188.5840  177.4050  147.5830 P   0  0  0  0  0  0  0  0  0  0  0  0
  187.9200  176.5360  148.6270 O   0  0  0  0  0  1  0  0  0  0  0  0
  187.4270  177.9290  146.4660 O   0  0  0  0  0  0  0  0  0  0  0  0
  189.2890  178.7460  148.3330 O   0  0  0  0  0  1  0  0  0  0  0  0
  1 22  1  6  0  0  0
  2  7  1  0  0  0  0
  3  2  2  0  0  0  0
  3  5  1  0  0  0  0
  4  6  1  0  0  0  0
  4  1  1  0  0  0  0
  5  4  2  0  0  0  0
  7  6  2  0  0  0  0
  8  9  2  0  0  0  0
  9 11  1  0  0  0  0
 10  9  1  0  0  0  0
 10  2  1  0  0  0  0
 12  1  1  0  0  0  0
 13 12  2  0  0  0  0
 14 12  1  0  0  0  0
 15 14  2  0  0  0  0
 16 15  1  0  0  0  0
 16 17  1  0  0  0  0
 17 19  1  0  0  0  0
 18 21  1  0  0  0  0
 19 18  1  0  0  0  0
 20 19  2  0  0  0  0
 23 22  1  6  0  0  0
 23 25  1  0  0  0  0
 23 27  1  0  0  0  0
 24 25  2  0  0  0  0
 27 26  1  6  0  0  0
 28 31  1  0  0  0  0
 29 32  1  0  0  0  0
 30 27  1  6  0  0  0
 30 29  1  0  0  0  0
 30 28  1  0  0  0  0
 31 34  1  0  0  0  0
 32 31  2  0  0  0  0
 33 35  1  0  0  0  0
 34 33  2  0  0  0  0
 35 36  1  0  0  0  0
 36 39  1  0  0  0  0
 36 37  1  0  0  0  0
 38 36  2  0  0  0  0
M  END
>  <MODEL>
7

>  <REMARK>
 VINA RESULT:      -6.6      4.640      9.161
  Name = 
  15 active torsions:
  status: ('A' for Active; 'I' for Inactive)
    1  A    between atoms: C_1  and  O_5
    2  A    between atoms: C_2  and  N_21
    3  A    between atoms: O_5  and  P_7
    4  A    between atoms: C_12  and  C_35
    5  A    between atoms: C_13  and  C_15
    6  A    between atoms: C_15  and  C_35
    7  A    between atoms: C_16  and  C_25
    8  A    between atoms: C_16  and  C_37
    9  A    between atoms: C_17  and  C_19
   10  A    between atoms: C_18  and  C_31
   11  A    between atoms: C_18  and  C_35
   12  A    between atoms: C_22  and  C_25
   13  A    between atoms: C_23  and  C_31
   14  A    between atoms: N_28  and  C_32
   15  A    between atoms: C_31  and  C_32
                            x       y       z     vdW  Elec       q    Type
                         _______ _______ _______ _____ _____    ______ ____

>  <TORSDO>
F 15

$$$$
=
 OpenBabel10222420453D

 39 40  0  0  1  0  0  0  0  0999 V2000
  187.1400  177.9320  141.5000 C   0  0  2  0  0  3  0  0  0  0  0  0
  189.5360  177.6760  145.0790 C   0  0  0  0  0  0  0  0  0  0  0  0
  189.9980  178.4190  143.9820 C   0  0  0  0  0  3  0  0  0  0  0  0
  187.9900  177.8580  142.7380 C   0  0  0  0  0  0  0  0  0  0  0  0
  189.2300  178.5090  142.8180 C   0  0  0  0  0  3  0  0  0  0  0  0
  187.5280  177.1200  143.8330 C   0  0  0  0  0  3  0  0  0  0  0  0
  188.2980  177.0290  144.9960 C   0  0  0  0  0  3  0  0  0  0  0  0
  192.0270  176.6450  147.7490 O   0  0  0  0  0  1  0  0  0  0  0  0
  191.4370  176.6940  146.4930 C   0  0  0  0  0  0  0  0  0  0  0  0
  190.3020  177.5480  146.2850 N   0  0  0  0  0  2  0  0  0  0  0  0
  191.9180  176.0040  145.5540 O   0  0  0  0  0  0  0  0  0  0  0  0
  187.9080  177.9970  140.2090 C   0  0  0  0  0  0  0  0  0  0  0  0
  187.5480  178.8250  139.3260 O   0  0  0  0  0  0  0  0  0  0  0  0
  189.0370  177.1440  139.9850 N   0  0  0  0  0  0  0  0  0  0  0  0
  190.0790  177.5360  139.3240 C   0  0  0  0  0  3  0  0  0  0  0  0
  191.2190  176.6020  139.0900 C   0  0  0  0  0  2  0  0  0  0  0  0
  191.2780  176.1460  137.6380 C   0  0  0  0  0  2  0  0  0  0  0  0
  193.5010  174.9550  137.8200 N   0  0  0  0  0  2  0  0  0  0  0  0
  192.1090  174.9110  137.4980 C   0  0  0  0  0  0  0  0  0  0  0  0
  191.5720  173.8320  137.1210 O   0  0  0  0  0  0  0  0  0  0  0  0
  194.3500  173.7760  137.7290 C   0  0  0  0  0  1  0  0  0  0  0  0
  185.9950  178.9460  141.5960 C   0  0  0  0  0  2  0  0  0  0  0  0
  184.6490  178.3180  141.9440 C   0  0  1  0  0  3  0  0  0  0  0  0
  184.9040  179.6120  144.0310 C   0  0  0  0  0  2  0  0  0  0  0  0
  184.1310  178.8660  143.2450 C   0  0  0  0  0  3  0  0  0  0  0  0
  184.3450  179.2030  139.6280 C   0  0  0  0  0  1  0  0  0  0  0  0
  183.6630  178.4690  140.7720 C   0  0  1  0  0  3  0  0  0  0  0  0
  183.5220  176.8020  138.9010 C   0  0  0  0  0  2  0  0  0  0  0  0
  181.6090  177.2700  140.1060 N   0  0  0  0  0  2  0  0  0  0  0  0
  183.0520  177.1410  140.2860 C   0  0  2  0  0  3  0  0  0  0  0  0
  182.4410  176.7700  138.1440 C   0  0  0  0  0  0  0  0  0  0  0  0
  181.2780  177.0610  138.9000 N   0  0  0  0  0  0  0  0  0  0  0  0
  182.5300  175.2090  136.2190 C   0  0  0  0  0  3  0  0  0  0  0  0
  182.4560  176.4440  136.7110 C   0  0  0  0  0  3  0  0  0  0  0  0
  182.5880  174.0890  137.0430 O   0  0  0  0  0  0  0  0  0  0  0  0
  183.8120  172.9100  136.8180 P   0  0  0  0  0  0  0  0  0  0  0  0
  184.4500  173.1000  135.4610 O   0  0  0  0  0  0  0  0  0  0  0  0
  183.1380  171.3620  136.9140 O   0  0  0  0  0  1  0  0  0  0  0  0
  184.9850  173.0880  138.0210 O   0  0  0  0  0  1  0  0  0  0  0  0
  1 22  1  1  0  0  0
  1  4  1  0  0  0  0
  2 10  1  0  0  0  0
  3  2  2  0  0  0  0
  4  5  2  0  0  0  0
  4  6  1  0  0  0  0
  5  3  1  0  0  0  0
  6  7  2  0  0  0  0
  7  2  1  0  0  0  0
  9  8  1  0  0  0  0
 10  9  1  0  0  0  0
 11  9  2  0  0  0  0
 12  1  1  0  0  0  0
 13 12  2  0  0  0  0
 14 12  1  0  0  0  0
 15 14  2  0  0  0  0
 16 15  1  0  0  0  0
 17 16  1  0  0  0  0
 19 17  1  0  0  0  0
 19 18  1  0  0  0  0
 20 19  2  0  0  0  0
 21 18  1  0  0  0  0
 23 22  1  6  0  0  0
 23 25  1  0  0  0  0
 25 24  2  0  0  0  0
 27 26  1  6  0  0  0
 27 23  1  0  0  0  0
 28 30  1  0  0  0  0
 29 30  1  0  0  0  0
 30 27  1  6  0  0  0
 31 32  2  0  0  0  0
 31 28  1  0  0  0  0
 32 29  1  0  0  0  0
 33 34  2  0  0  0  0
 33 35  1  0  0  0  0
 34 31  1  0  0  0  0
 36 38  1  0  0  0  0
 36 35  1  0  0  0  0
 36 39  1  0  0  0  0
 37 36  2  0  0  0  0
M  END
>  <MODEL>
8

>  <REMARK>
 VINA RESULT:      -6.5      2.836      5.698
  Name = 
  15 active torsions:
  status: ('A' for Active; 'I' for Inactive)
    1  A    between atoms: C_1  and  O_5
    2  A    between atoms: C_2  and  N_21
    3  A    between atoms: O_5  and  P_7
    4  A    between atoms: C_12  and  C_35
    5  A    between atoms: C_13  and  C_15
    6  A    between atoms: C_15  and  C_35
    7  A    between atoms: C_16  and  C_25
    8  A    between atoms: C_16  and  C_37
    9  A    between atoms: C_17  and  C_19
   10  A    between atoms: C_18  and  C_31
   11  A    between atoms: C_18  and  C_35
   12  A    between atoms: C_22  and  C_25
   13  A    between atoms: C_23  and  C_31
   14  A    between atoms: N_28  and  C_32
   15  A    between atoms: C_31  and  C_32
                            x       y       z     vdW  Elec       q    Type
                         _______ _______ _______ _____ _____    ______ ____

>  <TORSDO>
F 15

$$$$
=
 OpenBabel10222420453D

 39 40  0  0  1  0  0  0  0  0999 V2000
  185.8010  178.4080  142.3090 C   0  0  2  0  0  3  0  0  0  0  0  0
  182.6690  178.5820  139.3450 C   0  0  0  0  0  0  0  0  0  0  0  0
  183.9440  179.0880  139.0450 C   0  0  0  0  0  3  0  0  0  0  0  0
  184.7250  178.4760  141.2610 C   0  0  0  0  0  0  0  0  0  0  0  0
  184.9650  179.0360  139.9970 C   0  0  0  0  0  3  0  0  0  0  0  0
  183.4570  177.9690  141.5600 C   0  0  0  0  0  3  0  0  0  0  0  0
  182.4350  178.0230  140.6080 C   0  0  0  0  0  3  0  0  0  0  0  0
  179.7180  179.6210  137.1990 O   0  0  0  0  0  0  0  0  0  0  0  0
  180.7650  179.7640  138.1010 C   0  0  0  0  0  0  0  0  0  0  0  0
  181.5920  178.6300  138.4000 N   0  0  0  0  0  2  0  0  0  0  0  0
  180.9820  180.8890  138.6250 O   0  0  0  0  0  1  0  0  0  0  0  0
  185.3550  178.7760  143.6970 C   0  0  0  0  0  0  0  0  0  0  0  0
  184.6240  179.7940  143.8530 O   0  0  0  0  0  0  0  0  0  0  0  0
  185.7410  177.9810  144.8250 N   0  0  0  0  0  0  0  0  0  0  0  0
  186.6250  178.3800  145.6820 C   0  0  0  0  0  3  0  0  0  0  0  0
  187.0170  177.5050  146.8250 C   0  0  0  0  0  2  0  0  0  0  0  0
  188.2680  178.0240  147.5230 C   0  0  0  0  0  2  0  0  0  0  0  0
  190.1130  178.0000  145.7950 N   0  0  0  0  0  2  0  0  0  0  0  0
  189.5000  177.4080  146.9420 C   0  0  0  0  0  0  0  0  0  0  0  0
  190.0050  176.3850  147.4830 O   0  0  0  0  0  0  0  0  0  0  0  0
  191.3290  177.4570  145.2060 C   0  0  0  0  0  1  0  0  0  0  0  0
  187.1190  179.0630  141.8850 C   0  0  0  0  0  2  0  0  0  0  0  0
  188.3350  178.1560  142.0540 C   0  0  1  0  0  3  0  0  0  0  0  0
  188.5050  176.1130  143.4320 C   0  0  0  0  0  2  0  0  0  0  0  0
  187.9060  176.7660  142.4390 C   0  0  0  0  0  3  0  0  0  0  0  0
  190.2890  177.1220  140.8920 C   0  0  0  0  0  1  0  0  0  0  0  0
  189.2250  178.2050  140.8000 C   0  0  1  0  0  3  0  0  0  0  0  0
  188.6440  176.7590  138.8330 C   0  0  0  0  0  2  0  0  0  0  0  0
  189.0120  179.0090  138.4750 N   0  0  0  0  0  2  0  0  0  0  0  0
  188.4510  178.1030  139.4730 C   0  0  2  0  0  3  0  0  0  0  0  0
  189.2260  176.9850  137.6700 C   0  0  0  0  0  0  0  0  0  0  0  0
  189.4460  178.3710  137.4690 N   0  0  0  0  0  0  0  0  0  0  0  0
  190.6020  175.0970  136.8370 C   0  0  0  0  0  3  0  0  0  0  0  0
  189.5690  175.9270  136.7090 C   0  0  0  0  0  3  0  0  0  0  0  0
  191.4630  175.1540  137.9280 O   0  0  0  0  0  0  0  0  0  0  0  0
  193.0770  175.6940  137.7310 P   0  0  0  0  0  0  0  0  0  0  0  0
  193.3670  176.7910  138.7320 O   0  0  0  0  0  1  0  0  0  0  0  0
  193.2940  176.2890  136.1630 O   0  0  0  0  0  0  0  0  0  0  0  0
  194.1340  174.4020  137.9930 O   0  0  0  0  0  1  0  0  0  0  0  0
  1 22  1  6  0  0  0
  1 12  1  0  0  0  0
  2  7  1  0  0  0  0
  3  2  2  0  0  0  0
  3  5  1  0  0  0  0
  4  6  1  0  0  0  0
  4  1  1  0  0  0  0
  5  4  2  0  0  0  0
  7  6  2  0  0  0  0
  8  9  2  0  0  0  0
  9 10  1  0  0  0  0
  9 11  1  0  0  0  0
 10  2  1  0  0  0  0
 12 13  2  0  0  0  0
 12 14  1  0  0  0  0
 14 15  2  0  0  0  0
 15 16  1  0  0  0  0
 16 17  1  0  0  0  0
 18 19  1  0  0  0  0
 19 20  2  0  0  0  0
 19 17  1  0  0  0  0
 21 18  1  0  0  0  0
 23 22  1  6  0  0  0
 23 25  1  0  0  0  0
 25 24  2  0  0  0  0
 27 26  1  1  0  0  0
 27 23  1  0  0  0  0
 28 30  1  0  0  0  0
 29 30  1  0  0  0  0
 30 27  1  1  0  0  0
 31 28  1  0  0  0  0
 32 31  2  0  0  0  0
 32 29  1  0  0  0  0
 33 35  1  0  0  0  0
 34 33  2  0  0  0  0
 34 31  1  0  0  0  0
 36 35  1  0  0  0  0
 36 39  1  0  0  0  0
 36 37  1  0  0  0  0
 38 36  2  0  0  0  0
M  END
>  <MODEL>
9

>  <REMARK>
 VINA RESULT:      -6.5      3.993      7.114
  Name = 
  15 active torsions:
  status: ('A' for Active; 'I' for Inactive)
    1  A    between atoms: C_1  and  O_5
    2  A    between atoms: C_2  and  N_21
    3  A    between atoms: O_5  and  P_7
    4  A    between atoms: C_12  and  C_35
    5  A    between atoms: C_13  and  C_15
    6  A    between atoms: C_15  and  C_35
    7  A    between atoms: C_16  and  C_25
    8  A    between atoms: C_16  and  C_37
    9  A    between atoms: C_17  and  C_19
   10  A    between atoms: C_18  and  C_31
   11  A    between atoms: C_18  and  C_35
   12  A    between atoms: C_22  and  C_25
   13  A    between atoms: C_23  and  C_31
   14  A    between atoms: N_28  and  C_32
   15  A    between atoms: C_31  and  C_32
                            x       y       z     vdW  Elec       q    Type
                         _______ _______ _______ _____ _____    ______ ____

>  <TORSDO>
F 15

$$$$
