=
 OpenBabel10222419413D

 36 40  0  0  1  0  0  0  0  0999 V2000
  187.8030  178.0810  138.0630 C   0  0  0  0  0  1  0  0  0  0  0  0
  188.8350  177.1620  140.0540 C   0  0  2  0  0  3  0  0  0  0  0  0
  189.7240  176.8340  138.8960 N   0  0  1  0  0  0  0  0  0  0  0  0
  189.1330  177.6140  142.5140 C   0  0  0  0  0  3  0  0  0  0  0  0
  189.0120  178.1240  138.9760 C   0  0  1  0  0  3  0  0  0  0  0  0
  190.3340  177.5400  143.4140 C   0  0  2  0  0  0  0  0  0  0  0  0
  189.6180  177.4740  141.2860 C   0  0  0  0  0  0  0  0  0  0  0  0
  191.5750  176.6990  145.5130 C   0  0  0  0  0  1  0  0  0  0  0  0
  191.1550  177.2150  138.9650 C   0  0  1  0  0  3  0  0  0  0  0  0
  191.0340  177.2510  141.3460 C   0  0  0  0  0  0  0  0  0  0  0  0
  190.3100  177.2880  144.9070 C   0  0  1  0  0  0  0  0  0  0  0  0
  190.4930  178.7060  144.3720 C   0  0  0  0  0  2  0  0  0  0  0  0
  191.7490  177.0430  140.2960 N   0  0  0  0  0  0  0  0  0  0  0  0
  191.4970  177.2700  142.6460 O   0  0  0  0  0  0  0  0  0  0  0  0
  191.9400  176.4180  137.9390 C   0  0  0  0  0  2  0  0  0  0  0  0
  193.4210  176.7200  138.0570 C   0  0  0  0  0  2  0  0  0  0  0  0
  194.1300  175.9180  137.1630 O   0  0  0  0  0  0  0  0  0  0  0  0
  195.1280  174.2210  138.5020 C   0  0  0  0  0  2  0  0  0  0  0  0
  195.3220  172.7430  138.2530 C   0  0  0  0  0  2  0  0  0  0  0  0
  193.9360  173.6390  136.4690 C   0  0  0  0  0  2  0  0  0  0  0  0
  194.9050  172.5210  136.8150 C   0  0  0  0  0  2  0  0  0  0  0  0
  193.9540  174.6150  137.6320 C   0  0  0  0  0  3  0  0  0  0  0  0
  188.9390  177.0340  145.5430 C   0  0  2  0  0  3  0  0  0  0  0  0
  187.9230  178.1240  145.2080 C   0  0  0  0  0  2  0  0  0  0  0  0
  186.5190  177.6390  145.5110 C   0  0  0  0  0  2  0  0  0  0  0  0
  185.6530  178.8180  145.9000 C   0  0  0  0  0  2  0  0  0  0  0  0
  184.3330  178.7400  145.1610 C   0  0  0  0  0  2  0  0  0  0  0  0
  183.1870  180.1750  143.8550 O   0  0  0  0  0  1  0  0  0  0  0  0
  184.3930  179.5700  143.9700 N   0  0  0  0  0  0  0  0  0  0  0  0
  184.5230  178.6640  142.8380 C   0  0  0  0  0  2  0  0  0  0  0  0
  185.6460  179.1240  141.9180 C   0  0  0  0  0  2  0  0  0  0  0  0
  184.6020  179.7800  139.8120 N   0  0  0  0  0  1  0  0  0  0  0  0
  185.3680  178.7350  140.4740 C   0  0  0  0  0  2  0  0  0  0  0  0
  189.0280  176.7620  146.9820 N   0  0  0  0  0  2  0  0  0  0  0  0
  189.1460  178.0020  147.7440 C   0  0  0  0  0  2  0  0  0  0  0  0
  188.1500  177.9880  148.8850 C   0  0  0  0  0  1  0  0  0  0  0  0
  1  5  1  0  0  0  0
  2  7  1  1  0  0  0
  3  9  1  0  0  0  0
  3  5  1  0  0  0  0
  3  2  1  0  0  0  0
  4  6  1  0  0  0  0
  5  2  1  0  0  0  0
  6 12  1  0  0  0  0
  6 11  1  0  0  0  0
  7 10  1  0  0  0  0
  7  4  2  0  0  0  0
  9 13  1  0  0  0  0
 10 14  1  0  0  0  0
 11  8  1  0  0  0  0
 11 23  1  0  0  0  0
 12 11  1  0  0  0  0
 13 10  2  0  0  0  0
 14  6  1  0  0  0  0
 15 16  1  0  0  0  0
 15  9  1  0  0  0  0
 17 22  1  0  0  0  0
 17 16  1  0  0  0  0
 19 18  1  0  0  0  0
 20 21  1  0  0  0  0
 20 22  1  0  0  0  0
 21 19  1  0  0  0  0
 22 18  1  0  0  0  0
 23 34  1  0  0  0  0
 24 25  1  0  0  0  0
 24 23  1  0  0  0  0
 25 26  1  0  0  0  0
 27 26  1  0  0  0  0
 28 29  1  0  0  0  0
 29 27  1  0  0  0  0
 30 29  1  0  0  0  0
 31 30  1  0  0  0  0
 32 33  1  0  0  0  0
 33 31  1  0  0  0  0
 34 35  1  0  0  0  0
 35 36  1  0  0  0  0
M  END
>  <MODEL>
1

>  <REMARK>
 VINA RESULT:      -7.7      0.000      0.000
  Name = 
  15 active torsions:
  status: ('A' for Active; 'I' for Inactive)
    1  A    between atoms: C_1  and  C_16
    2  A    between atoms: C_1  and  C_29
    3  A    between atoms: C_2  and  C_12
    4  A    between atoms: C_2  and  N_17
    5  A    between atoms: C_4  and  C_24
    6  A    between atoms: C_4  and  C_28
    7  A    between atoms: C_8  and  C_14
    8  A    between atoms: C_8  and  N_17
    9  A    between atoms: C_10  and  N_33
   10  A    between atoms: C_12  and  C_29
   11  A    between atoms: C_14  and  C_35
   12  A    between atoms: C_16  and  C_27
   13  A    between atoms: C_16  and  N_33
   14  A    between atoms: O_26  and  C_28
   15  A    between atoms: O_26  and  C_31
                            x       y       z     vdW  Elec       q    Type
                         _______ _______ _______ _____ _____    ______ ____

>  <TORSDO>
F 15

$$$$
=
 OpenBabel10222419413D

 36 40  0  0  1  0  0  0  0  0999 V2000
  187.7570  178.1870  138.2540 C   0  0  0  0  0  1  0  0  0  0  0  0
  188.8180  177.2410  140.2160 C   0  0  2  0  0  3  0  0  0  0  0  0
  189.6840  176.9180  139.0390 N   0  0  1  0  0  0  0  0  0  0  0  0
  189.1640  177.6640  142.6750 C   0  0  0  0  0  3  0  0  0  0  0  0
  188.9830  178.2120  139.1450 C   0  0  1  0  0  3  0  0  0  0  0  0
  190.3800  177.5720  143.5520 C   0  0  2  0  0  0  0  0  0  0  0  0
  189.6250  177.5340  141.4360 C   0  0  0  0  0  0  0  0  0  0  0  0
  191.6530  176.7010  145.6190 C   0  0  0  0  0  1  0  0  0  0  0  0
  191.1180  177.2890  139.0860 C   0  0  1  0  0  3  0  0  0  0  0  0
  191.0410  177.3010  141.4690 C   0  0  0  0  0  0  0  0  0  0  0  0
  190.3820  177.3050  145.0420 C   0  0  1  0  0  0  0  0  0  0  0  0
  190.5650  178.7270  144.5190 C   0  0  0  0  0  2  0  0  0  0  0  0
  191.7360  177.0990  140.4040 N   0  0  0  0  0  0  0  0  0  0  0  0
  191.5270  177.3030  142.7600 O   0  0  0  0  0  0  0  0  0  0  0  0
  191.8800  176.4980  138.0370 C   0  0  0  0  0  2  0  0  0  0  0  0
  190.9850  175.4430  137.4180 C   0  0  0  0  0  2  0  0  0  0  0  0
  190.9190  175.6420  136.0390 O   0  0  0  0  0  0  0  0  0  0  0  0
  188.7140  176.1050  135.2690 C   0  0  0  0  0  2  0  0  0  0  0  0
  187.3760  175.5420  135.6890 C   0  0  0  0  0  2  0  0  0  0  0  0
  189.1190  174.2690  136.8070 C   0  0  0  0  0  2  0  0  0  0  0  0
  187.6630  174.6920  136.9080 C   0  0  0  0  0  2  0  0  0  0  0  0
  189.7220  175.0400  135.6450 C   0  0  0  0  0  3  0  0  0  0  0  0
  189.0200  177.0540  145.7000 C   0  0  2  0  0  3  0  0  0  0  0  0
  188.0170  178.1730  145.4270 C   0  0  0  0  0  2  0  0  0  0  0  0
  186.6020  177.6380  145.5130 C   0  0  0  0  0  2  0  0  0  0  0  0
  185.6390  178.7910  145.6990 C   0  0  0  0  0  2  0  0  0  0  0  0
  184.3220  178.4610  145.0280 C   0  0  0  0  0  2  0  0  0  0  0  0
  182.8950  179.5060  143.6310 O   0  0  0  0  0  1  0  0  0  0  0  0
  184.2080  179.2100  143.7880 N   0  0  0  0  0  0  0  0  0  0  0  0
  184.5670  178.2950  142.7140 C   0  0  0  0  0  2  0  0  0  0  0  0
  185.1720  179.0610  141.5460 C   0  0  0  0  0  2  0  0  0  0  0  0
  184.5540  179.9400  139.3550 N   0  0  0  0  0  1  0  0  0  0  0  0
  184.3900  178.8170  140.2640 C   0  0  0  0  0  2  0  0  0  0  0  0
  189.1360  176.7300  147.1270 N   0  0  0  0  0  2  0  0  0  0  0  0
  189.2570  177.9420  147.9320 C   0  0  0  0  0  2  0  0  0  0  0  0
  188.1240  177.9950  148.9350 C   0  0  0  0  0  1  0  0  0  0  0  0
  1  5  1  0  0  0  0
  2  7  1  1  0  0  0
  3  9  1  0  0  0  0
  3  5  1  0  0  0  0
  3  2  1  0  0  0  0
  4  6  1  0  0  0  0
  5  2  1  0  0  0  0
  6 12  1  0  0  0  0
  6 11  1  0  0  0  0
  7 10  1  0  0  0  0
  7  4  2  0  0  0  0
  9 13  1  0  0  0  0
 10 14  1  0  0  0  0
 11  8  1  0  0  0  0
 11 23  1  0  0  0  0
 12 11  1  0  0  0  0
 13 10  2  0  0  0  0
 14  6  1  0  0  0  0
 15  9  1  0  0  0  0
 16 15  1  0  0  0  0
 17 16  1  0  0  0  0
 18 22  1  0  0  0  0
 18 19  1  0  0  0  0
 19 21  1  0  0  0  0
 20 21  1  0  0  0  0
 22 17  1  0  0  0  0
 22 20  1  0  0  0  0
 23 34  1  0  0  0  0
 24 25  1  0  0  0  0
 24 23  1  0  0  0  0
 25 26  1  0  0  0  0
 27 26  1  0  0  0  0
 28 29  1  0  0  0  0
 29 27  1  0  0  0  0
 30 29  1  0  0  0  0
 31 30  1  0  0  0  0
 32 33  1  0  0  0  0
 33 31  1  0  0  0  0
 34 35  1  0  0  0  0
 35 36  1  0  0  0  0
M  END
>  <MODEL>
2

>  <REMARK>
 VINA RESULT:      -7.6      1.703      2.680
  Name = 
  15 active torsions:
  status: ('A' for Active; 'I' for Inactive)
    1  A    between atoms: C_1  and  C_16
    2  A    between atoms: C_1  and  C_29
    3  A    between atoms: C_2  and  C_12
    4  A    between atoms: C_2  and  N_17
    5  A    between atoms: C_4  and  C_24
    6  A    between atoms: C_4  and  C_28
    7  A    between atoms: C_8  and  C_14
    8  A    between atoms: C_8  and  N_17
    9  A    between atoms: C_10  and  N_33
   10  A    between atoms: C_12  and  C_29
   11  A    between atoms: C_14  and  C_35
   12  A    between atoms: C_16  and  C_27
   13  A    between atoms: C_16  and  N_33
   14  A    between atoms: O_26  and  C_28
   15  A    between atoms: O_26  and  C_31
                            x       y       z     vdW  Elec       q    Type
                         _______ _______ _______ _____ _____    ______ ____

>  <TORSDO>
F 15

$$$$
=
 OpenBabel10222419413D

 36 40  0  0  1  0  0  0  0  0999 V2000
  191.6540  176.9030  145.1370 C   0  0  0  0  0  1  0  0  0  0  0  0
  190.5010  176.3310  143.0840 C   0  0  2  0  0  3  0  0  0  0  0  0
  189.4590  176.6740  144.1010 N   0  0  1  0  0  0  0  0  0  0  0  0
  190.7280  176.4860  140.5800 C   0  0  0  0  0  3  0  0  0  0  0  0
  190.7400  177.4050  144.0370 C   0  0  1  0  0  3  0  0  0  0  0  0
  189.7600  176.8860  139.5030 C   0  0  2  0  0  0  0  0  0  0  0  0
  190.1210  176.7990  141.7190 C   0  0  0  0  0  0  0  0  0  0  0  0
  188.4810  176.4690  137.3030 C   0  0  0  0  0  1  0  0  0  0  0  0
  188.4480  177.7040  143.7670 C   0  0  1  0  0  3  0  0  0  0  0  0
  188.8080  177.3090  141.4430 C   0  0  0  0  0  0  0  0  0  0  0  0
  189.8000  176.4310  138.0600 C   0  0  1  0  0  0  0  0  0  0  0  0
  190.3250  177.8120  138.4410 C   0  0  0  0  0  2  0  0  0  0  0  0
  187.9870  177.6520  142.3740 N   0  0  0  0  0  0  0  0  0  0  0  0
  188.5550  177.3570  140.0870 O   0  0  0  0  0  0  0  0  0  0  0  0
  187.2650  177.5770  144.7100 C   0  0  0  0  0  2  0  0  0  0  0  0
  185.9680  177.8380  143.9690 C   0  0  0  0  0  2  0  0  0  0  0  0
  185.0430  178.4110  144.8420 O   0  0  0  0  0  0  0  0  0  0  0  0
  182.7640  178.9400  144.4010 C   0  0  0  0  0  2  0  0  0  0  0  0
  182.0010  179.0470  143.1010 C   0  0  0  0  0  2  0  0  0  0  0  0
  184.3570  178.7540  142.5780 C   0  0  0  0  0  2  0  0  0  0  0  0
  182.9530  178.5450  142.0360 C   0  0  0  0  0  2  0  0  0  0  0  0
  184.2110  179.1820  144.0280 C   0  0  0  0  0  3  0  0  0  0  0  0
  190.8980  175.4300  137.6820 C   0  0  2  0  0  3  0  0  0  0  0  0
  191.6730  175.8480  136.4340 C   0  0  0  0  0  2  0  0  0  0  0  0
  193.1220  176.1190  136.7870 C   0  0  0  0  0  2  0  0  0  0  0  0
  193.4900  175.3440  138.0330 C   0  0  0  0  0  2  0  0  0  0  0  0
  194.3270  174.1400  137.6500 C   0  0  0  0  0  2  0  0  0  0  0  0
  195.5550  174.9990  139.3320 O   0  0  0  0  0  1  0  0  0  0  0  0
  195.2490  173.8260  138.7270 N   0  0  0  0  0  0  0  0  0  0  0  0
  196.4700  173.3410  138.1030 C   0  0  0  0  0  2  0  0  0  0  0  0
  197.4270  174.4950  137.8400 C   0  0  0  0  0  2  0  0  0  0  0  0
  197.4710  176.1570  136.0530 N   0  0  0  0  0  1  0  0  0  0  0  0
  197.5990  174.7390  136.3480 C   0  0  0  0  0  2  0  0  0  0  0  0
  190.4000  174.0510  137.6060 N   0  0  0  0  0  2  0  0  0  0  0  0
  190.6020  173.4920  136.2730 C   0  0  0  0  0  2  0  0  0  0  0  0
  189.2930  172.9330  135.7570 C   0  0  0  0  0  1  0  0  0  0  0  0
  2  7  1  6  0  0  0
  2  5  1  0  0  0  0
  2  3  1  0  0  0  0
  4  7  2  0  0  0  0
  5  3  1  0  0  0  0
  5  1  1  0  0  0  0
  6 14  1  0  0  0  0
  6  4  1  0  0  0  0
  8 11  1  0  0  0  0
  9  3  1  0  0  0  0
  9 15  1  0  0  0  0
 10  7  1  0  0  0  0
 10 13  2  0  0  0  0
 11 12  1  0  0  0  0
 11  6  1  0  0  0  0
 12  6  1  0  0  0  0
 13  9  1  0  0  0  0
 14 10  1  0  0  0  0
 16 15  1  0  0  0  0
 16 17  1  0  0  0  0
 19 18  1  0  0  0  0
 20 22  1  0  0  0  0
 21 20  1  0  0  0  0
 21 19  1  0  0  0  0
 22 18  1  0  0  0  0
 22 17  1  0  0  0  0
 23 11  1  0  0  0  0
 24 25  1  0  0  0  0
 24 23  1  0  0  0  0
 25 26  1  0  0  0  0
 27 26  1  0  0  0  0
 27 29  1  0  0  0  0
 29 28  1  0  0  0  0
 30 29  1  0  0  0  0
 31 30  1  0  0  0  0
 32 33  1  0  0  0  0
 33 31  1  0  0  0  0
 34 23  1  0  0  0  0
 35 34  1  0  0  0  0
 36 35  1  0  0  0  0
M  END
>  <MODEL>
3

>  <REMARK>
 VINA RESULT:      -7.4      2.562     10.330
  Name = 
  15 active torsions:
  status: ('A' for Active; 'I' for Inactive)
    1  A    between atoms: C_1  and  C_16
    2  A    between atoms: C_1  and  C_29
    3  A    between atoms: C_2  and  C_12
    4  A    between atoms: C_2  and  N_17
    5  A    between atoms: C_4  and  C_24
    6  A    between atoms: C_4  and  C_28
    7  A    between atoms: C_8  and  C_14
    8  A    between atoms: C_8  and  N_17
    9  A    between atoms: C_10  and  N_33
   10  A    between atoms: C_12  and  C_29
   11  A    between atoms: C_14  and  C_35
   12  A    between atoms: C_16  and  C_27
   13  A    between atoms: C_16  and  N_33
   14  A    between atoms: O_26  and  C_28
   15  A    between atoms: O_26  and  C_31
                            x       y       z     vdW  Elec       q    Type
                         _______ _______ _______ _____ _____    ______ ____

>  <TORSDO>
F 15

$$$$
=
 OpenBabel10222419413D

 36 40  0  0  1  0  0  0  0  0999 V2000
  191.7490  175.8430  143.9120 C   0  0  0  0  0  1  0  0  0  0  0  0
  190.0460  176.0840  142.2040 C   0  0  2  0  0  3  0  0  0  0  0  0
  189.4090  176.4010  143.5210 N   0  0  1  0  0  0  0  0  0  0  0  0
  189.7360  176.7950  139.8080 C   0  0  0  0  0  3  0  0  0  0  0  0
  190.7970  176.8020  143.2240 C   0  0  1  0  0  3  0  0  0  0  0  0
  188.7100  177.6660  139.1390 C   0  0  2  0  0  0  0  0  0  0  0  0
  189.5210  176.9510  141.1090 C   0  0  0  0  0  0  0  0  0  0  0  0
  186.9020  178.1190  137.3570 C   0  0  0  0  0  1  0  0  0  0  0  0
  188.6950  177.6910  143.6750 C   0  0  1  0  0  3  0  0  0  0  0  0
  188.3890  177.8080  141.3130 C   0  0  0  0  0  0  0  0  0  0  0  0
  188.2870  177.5840  137.6880 C   0  0  1  0  0  0  0  0  0  0  0  0
  189.2660  178.6650  138.1410 C   0  0  0  0  0  2  0  0  0  0  0  0
  187.9370  178.0940  142.4850 N   0  0  0  0  0  0  0  0  0  0  0  0
  187.8610  178.2480  140.1160 O   0  0  0  0  0  0  0  0  0  0  0  0
  187.7720  177.6180  144.8780 C   0  0  0  0  0  2  0  0  0  0  0  0
  186.3260  177.7590  144.4440 C   0  0  0  0  0  2  0  0  0  0  0  0
  185.6350  178.5310  145.3780 O   0  0  0  0  0  0  0  0  0  0  0  0
  183.3190  178.9380  145.0080 C   0  0  0  0  0  2  0  0  0  0  0  0
  182.5230  179.0670  143.7300 C   0  0  0  0  0  2  0  0  0  0  0  0
  184.8810  178.9530  143.1500 C   0  0  0  0  0  2  0  0  0  0  0  0
  183.4820  178.6860  142.6220 C   0  0  0  0  0  2  0  0  0  0  0  0
  184.7400  179.2910  144.6240 C   0  0  0  0  0  3  0  0  0  0  0  0
  188.9290  176.4780  136.8430 C   0  0  2  0  0  3  0  0  0  0  0  0
  189.5940  177.0140  135.5770 C   0  0  0  0  0  2  0  0  0  0  0  0
  190.9200  176.3160  135.3490 C   0  0  0  0  0  2  0  0  0  0  0  0
  191.6080  176.0970  136.6800 C   0  0  0  0  0  2  0  0  0  0  0  0
  192.8180  175.2080  136.4820 C   0  0  0  0  0  2  0  0  0  0  0  0
  194.2810  176.8760  136.8720 O   0  0  0  0  0  1  0  0  0  0  0  0
  193.9000  175.6630  137.3380 N   0  0  0  0  0  0  0  0  0  0  0  0
  195.0160  174.7550  137.1170 C   0  0  0  0  0  2  0  0  0  0  0  0
  195.2130  173.8530  138.3270 C   0  0  0  0  0  2  0  0  0  0  0  0
  196.1460  175.3300  140.0310 N   0  0  0  0  0  1  0  0  0  0  0  0
  196.4560  174.2460  139.1120 C   0  0  0  0  0  2  0  0  0  0  0  0
  188.0050  175.3690  136.5740 N   0  0  0  0  0  2  0  0  0  0  0  0
  188.6010  174.0890  136.9420 C   0  0  0  0  0  2  0  0  0  0  0  0
  188.7560  173.2310  135.7040 C   0  0  0  0  0  1  0  0  0  0  0  0
  2  7  1  6  0  0  0
  2  5  1  0  0  0  0
  2  3  1  0  0  0  0
  3  9  1  0  0  0  0
  4  7  2  0  0  0  0
  5  3  1  0  0  0  0
  5  1  1  0  0  0  0
  6  4  1  0  0  0  0
  6 14  1  0  0  0  0
  7 10  1  0  0  0  0
  8 11  1  0  0  0  0
  9 15  1  0  0  0  0
 10 13  2  0  0  0  0
 11 12  1  0  0  0  0
 11  6  1  0  0  0  0
 12  6  1  0  0  0  0
 13  9  1  0  0  0  0
 14 10  1  0  0  0  0
 16 15  1  0  0  0  0
 16 17  1  0  0  0  0
 19 18  1  0  0  0  0
 20 22  1  0  0  0  0
 21 20  1  0  0  0  0
 21 19  1  0  0  0  0
 22 18  1  0  0  0  0
 22 17  1  0  0  0  0
 23 11  1  0  0  0  0
 24 23  1  0  0  0  0
 25 24  1  0  0  0  0
 25 26  1  0  0  0  0
 27 26  1  0  0  0  0
 27 29  1  0  0  0  0
 28 29  1  0  0  0  0
 30 29  1  0  0  0  0
 30 31  1  0  0  0  0
 31 33  1  0  0  0  0
 33 32  1  0  0  0  0
 34 23  1  0  0  0  0
 34 35  1  0  0  0  0
 36 35  1  0  0  0  0
M  END
>  <MODEL>
4

>  <REMARK>
 VINA RESULT:      -7.4      2.413     10.003
  Name = 
  15 active torsions:
  status: ('A' for Active; 'I' for Inactive)
    1  A    between atoms: C_1  and  C_16
    2  A    between atoms: C_1  and  C_29
    3  A    between atoms: C_2  and  C_12
    4  A    between atoms: C_2  and  N_17
    5  A    between atoms: C_4  and  C_24
    6  A    between atoms: C_4  and  C_28
    7  A    between atoms: C_8  and  C_14
    8  A    between atoms: C_8  and  N_17
    9  A    between atoms: C_10  and  N_33
   10  A    between atoms: C_12  and  C_29
   11  A    between atoms: C_14  and  C_35
   12  A    between atoms: C_16  and  C_27
   13  A    between atoms: C_16  and  N_33
   14  A    between atoms: O_26  and  C_28
   15  A    between atoms: O_26  and  C_31
                            x       y       z     vdW  Elec       q    Type
                         _______ _______ _______ _____ _____    ______ ____

>  <TORSDO>
F 15

$$$$
=
 OpenBabel10222419413D

 36 40  0  0  1  0  0  0  0  0999 V2000
  190.4510  176.8370  143.3910 C   0  0  0  0  0  1  0  0  0  0  0  0
  189.1500  176.7330  141.3500 C   0  0  2  0  0  3  0  0  0  0  0  0
  188.2190  177.1230  142.4550 N   0  0  1  0  0  0  0  0  0  0  0  0
  189.3200  177.1550  138.8730 C   0  0  0  0  0  3  0  0  0  0  0  0
  189.6070  177.6220  142.4070 C   0  0  1  0  0  3  0  0  0  0  0  0
  188.4050  177.8480  137.9030 C   0  0  2  0  0  0  0  0  0  0  0  0
  188.8160  177.4250  140.0710 C   0  0  0  0  0  0  0  0  0  0  0  0
  187.0020  177.9350  135.7410 C   0  0  0  0  0  1  0  0  0  0  0  0
  187.3980  178.3470  142.2970 C   0  0  1  0  0  3  0  0  0  0  0  0
  187.6070  178.1860  139.9280 C   0  0  0  0  0  0  0  0  0  0  0  0
  188.3160  177.5740  136.4170 C   0  0  1  0  0  0  0  0  0  0  0  0
  189.0920  178.7860  136.9270 C   0  0  0  0  0  2  0  0  0  0  0  0
  186.8910  178.5480  140.9350 N   0  0  0  0  0  0  0  0  0  0  0  0
  187.3230  178.4440  138.6020 O   0  0  0  0  0  0  0  0  0  0  0  0
  186.2420  178.3110  143.2810 C   0  0  0  0  0  2  0  0  0  0  0  0
  186.6320  177.5390  144.5260 C   0  0  0  0  0  2  0  0  0  0  0  0
  186.8230  178.4290  145.5830 O   0  0  0  0  0  0  0  0  0  0  0  0
  187.2510  178.4390  147.9250 C   0  0  0  0  0  2  0  0  0  0  0  0
  188.4350  177.9440  148.7220 C   0  0  0  0  0  2  0  0  0  0  0  0
  188.7300  177.2500  146.4110 C   0  0  0  0  0  2  0  0  0  0  0  0
  189.4800  177.5670  147.6930 C   0  0  0  0  0  2  0  0  0  0  0  0
  187.2800  177.6400  146.6400 C   0  0  0  0  0  3  0  0  0  0  0  0
  189.2050  176.4530  135.8670 C   0  0  2  0  0  3  0  0  0  0  0  0
  190.0890  176.9140  134.7110 C   0  0  0  0  0  2  0  0  0  0  0  0
  191.3940  176.1430  134.7120 C   0  0  0  0  0  2  0  0  0  0  0  0
  191.8670  175.9570  136.1380 C   0  0  0  0  0  2  0  0  0  0  0  0
  193.2250  175.2860  136.1360 C   0  0  0  0  0  2  0  0  0  0  0  0
  195.1800  176.3900  136.3280 O   0  0  0  0  0  1  0  0  0  0  0  0
  194.1120  175.9790  137.0530 N   0  0  0  0  0  0  0  0  0  0  0  0
  194.5980  174.9830  137.9970 C   0  0  0  0  0  2  0  0  0  0  0  0
  194.3130  173.5800  137.4800 C   0  0  0  0  0  2  0  0  0  0  0  0
  196.5820  172.7400  137.7970 N   0  0  0  0  0  1  0  0  0  0  0  0
  195.1900  172.5490  138.1740 C   0  0  0  0  0  2  0  0  0  0  0  0
  188.4450  175.2380  135.5500 N   0  0  0  0  0  2  0  0  0  0  0  0
  188.2490  174.4160  136.7410 C   0  0  0  0  0  2  0  0  0  0  0  0
  189.3850  173.4220  136.8590 C   0  0  0  0  0  1  0  0  0  0  0  0
  2  7  1  6  0  0  0
  2  5  1  0  0  0  0
  2  3  1  0  0  0  0
  4  7  2  0  0  0  0
  5  3  1  0  0  0  0
  5  1  1  0  0  0  0
  6 14  1  0  0  0  0
  6  4  1  0  0  0  0
  8 11  1  0  0  0  0
  9  3  1  0  0  0  0
  9 15  1  0  0  0  0
 10  7  1  0  0  0  0
 10 13  2  0  0  0  0
 11 12  1  0  0  0  0
 11  6  1  0  0  0  0
 12  6  1  0  0  0  0
 13  9  1  0  0  0  0
 14 10  1  0  0  0  0
 15 16  1  0  0  0  0
 16 17  1  0  0  0  0
 17 22  1  0  0  0  0
 18 19  1  0  0  0  0
 20 22  1  0  0  0  0
 20 21  1  0  0  0  0
 21 19  1  0  0  0  0
 22 18  1  0  0  0  0
 23 11  1  0  0  0  0
 24 25  1  0  0  0  0
 24 23  1  0  0  0  0
 25 26  1  0  0  0  0
 27 26  1  0  0  0  0
 27 29  1  0  0  0  0
 28 29  1  0  0  0  0
 29 30  1  0  0  0  0
 31 30  1  0  0  0  0
 31 33  1  0  0  0  0
 32 33  1  0  0  0  0
 34 23  1  0  0  0  0
 34 35  1  0  0  0  0
 35 36  1  0  0  0  0
M  END
>  <MODEL>
5

>  <REMARK>
 VINA RESULT:      -7.1      2.718     10.038
  Name = 
  15 active torsions:
  status: ('A' for Active; 'I' for Inactive)
    1  A    between atoms: C_1  and  C_16
    2  A    between atoms: C_1  and  C_29
    3  A    between atoms: C_2  and  C_12
    4  A    between atoms: C_2  and  N_17
    5  A    between atoms: C_4  and  C_24
    6  A    between atoms: C_4  and  C_28
    7  A    between atoms: C_8  and  C_14
    8  A    between atoms: C_8  and  N_17
    9  A    between atoms: C_10  and  N_33
   10  A    between atoms: C_12  and  C_29
   11  A    between atoms: C_14  and  C_35
   12  A    between atoms: C_16  and  C_27
   13  A    between atoms: C_16  and  N_33
   14  A    between atoms: O_26  and  C_28
   15  A    between atoms: O_26  and  C_31
                            x       y       z     vdW  Elec       q    Type
                         _______ _______ _______ _____ _____    ______ ____

>  <TORSDO>
F 15

$$$$
=
 OpenBabel10222419413D

 36 40  0  0  1  0  0  0  0  0999 V2000
  184.4190  178.0460  140.8200 C   0  0  0  0  0  1  0  0  0  0  0  0
  185.4790  178.6440  142.9160 C   0  0  2  0  0  3  0  0  0  0  0  0
  184.0820  179.1800  142.9510 N   0  0  1  0  0  0  0  0  0  0  0  0
  187.1520  177.7960  144.5970 C   0  0  0  0  0  3  0  0  0  0  0  0
  184.3900  177.8790  142.3260 C   0  0  1  0  0  3  0  0  0  0  0  0
  187.1350  177.7460  146.0990 C   0  0  2  0  0  0  0  0  0  0  0  0
  185.9190  178.1480  144.2530 C   0  0  0  0  0  0  0  0  0  0  0  0
  188.1400  178.2530  148.4190 C   0  0  0  0  0  1  0  0  0  0  0  0
  183.2100  178.8230  144.0960 C   0  0  1  0  0  3  0  0  0  0  0  0
  185.1370  178.3890  145.4320 C   0  0  0  0  0  0  0  0  0  0  0  0
  188.3510  177.7450  147.0010 C   0  0  1  0  0  0  0  0  0  0  0  0
  187.6170  176.4400  146.7040 C   0  0  0  0  0  2  0  0  0  0  0  0
  183.9120  178.7840  145.3850 N   0  0  0  0  0  0  0  0  0  0  0  0
  185.8680  178.1650  146.5810 O   0  0  0  0  0  0  0  0  0  0  0  0
  182.0470  179.7960  144.1680 C   0  0  0  0  0  2  0  0  0  0  0  0
  180.8920  179.3020  143.3200 C   0  0  0  0  0  2  0  0  0  0  0  0
  180.4040  180.3540  142.5440 O   0  0  0  0  0  0  0  0  0  0  0  0
  180.6570  178.4180  141.1820 C   0  0  0  0  0  2  0  0  0  0  0  0
  180.8470  178.2690  139.6910 C   0  0  0  0  0  2  0  0  0  0  0  0
  180.3780  180.6050  140.1670 C   0  0  0  0  0  2  0  0  0  0  0  0
  181.0480  179.6760  139.1700 C   0  0  0  0  0  2  0  0  0  0  0  0
  179.9720  179.7560  141.3590 C   0  0  0  0  0  3  0  0  0  0  0  0
  189.7180  177.8600  146.3170 C   0  0  2  0  0  3  0  0  0  0  0  0
  189.6130  178.3050  144.8590 C   0  0  0  0  0  2  0  0  0  0  0  0
  190.9930  178.5940  144.3010 C   0  0  0  0  0  2  0  0  0  0  0  0
  191.1090  177.9980  142.9150 C   0  0  0  0  0  2  0  0  0  0  0  0
  190.1720  176.8130  142.7950 C   0  0  0  0  0  2  0  0  0  0  0  0
  190.5570  176.3690  140.6200 O   0  0  0  0  0  1  0  0  0  0  0  0
  189.5870  176.7890  141.4660 N   0  0  0  0  0  0  0  0  0  0  0  0
  189.2890  178.1700  141.1170 C   0  0  0  0  0  2  0  0  0  0  0  0
  187.9800  178.2520  140.3440 C   0  0  0  0  0  2  0  0  0  0  0  0
  187.0320  178.6280  138.1270 N   0  0  0  0  0  1  0  0  0  0  0  0
  188.2230  178.1990  138.8420 C   0  0  0  0  0  2  0  0  0  0  0  0
  190.5340  176.6520  146.4850 N   0  0  0  0  0  2  0  0  0  0  0  0
  191.4930  176.8140  147.5740 C   0  0  0  0  0  2  0  0  0  0  0  0
  192.4290  175.6240  147.6010 C   0  0  0  0  0  1  0  0  0  0  0  0
  1  5  1  0  0  0  0
  2  3  1  0  0  0  0
  2  7  1  1  0  0  0
  3  9  1  0  0  0  0
  4  6  1  0  0  0  0
  5  2  1  0  0  0  0
  5  3  1  0  0  0  0
  6 14  1  0  0  0  0
  6 12  1  0  0  0  0
  6 11  1  0  0  0  0
  7  4  2  0  0  0  0
  7 10  1  0  0  0  0
  9 15  1  0  0  0  0
  9 13  1  0  0  0  0
 10 14  1  0  0  0  0
 11  8  1  0  0  0  0
 12 11  1  0  0  0  0
 13 10  2  0  0  0  0
 16 15  1  0  0  0  0
 17 16  1  0  0  0  0
 18 22  1  0  0  0  0
 19 18  1  0  0  0  0
 20 22  1  0  0  0  0
 21 19  1  0  0  0  0
 21 20  1  0  0  0  0
 22 17  1  0  0  0  0
 23 34  1  0  0  0  0
 23 11  1  0  0  0  0
 24 23  1  0  0  0  0
 25 24  1  0  0  0  0
 26 25  1  0  0  0  0
 27 26  1  0  0  0  0
 28 29  1  0  0  0  0
 29 27  1  0  0  0  0
 30 29  1  0  0  0  0
 31 30  1  0  0  0  0
 32 33  1  0  0  0  0
 33 31  1  0  0  0  0
 34 35  1  0  0  0  0
 35 36  1  0  0  0  0
M  END
>  <MODEL>
6

>  <REMARK>
 VINA RESULT:      -6.8      3.509      8.520
  Name = 
  15 active torsions:
  status: ('A' for Active; 'I' for Inactive)
    1  A    between atoms: C_1  and  C_16
    2  A    between atoms: C_1  and  C_29
    3  A    between atoms: C_2  and  C_12
    4  A    between atoms: C_2  and  N_17
    5  A    between atoms: C_4  and  C_24
    6  A    between atoms: C_4  and  C_28
    7  A    between atoms: C_8  and  C_14
    8  A    between atoms: C_8  and  N_17
    9  A    between atoms: C_10  and  N_33
   10  A    between atoms: C_12  and  C_29
   11  A    between atoms: C_14  and  C_35
   12  A    between atoms: C_16  and  C_27
   13  A    between atoms: C_16  and  N_33
   14  A    between atoms: O_26  and  C_28
   15  A    between atoms: O_26  and  C_31
                            x       y       z     vdW  Elec       q    Type
                         _______ _______ _______ _____ _____    ______ ____

>  <TORSDO>
F 15

$$$$
=
 OpenBabel10222419413D

 36 40  0  0  1  0  0  0  0  0999 V2000
  187.3870  178.6370  141.5110 C   0  0  0  0  0  1  0  0  0  0  0  0
  185.0510  178.0780  141.8350 C   0  0  2  0  0  3  0  0  0  0  0  0
  185.6540  178.2840  143.1890 N   0  0  1  0  0  0  0  0  0  0  0  0
  182.7830  178.3770  140.7830 C   0  0  0  0  0  3  0  0  0  0  0  0
  186.0490  179.1180  142.0380 C   0  0  1  0  0  3  0  0  0  0  0  0
  181.4460  178.7520  141.3580 C   0  0  2  0  0  0  0  0  0  0  0  0
  183.6480  178.5820  141.7680 C   0  0  0  0  0  0  0  0  0  0  0  0
  178.9320  178.3440  141.7650 C   0  0  0  0  0  1  0  0  0  0  0  0
  185.0120  179.2450  144.1170 C   0  0  1  0  0  3  0  0  0  0  0  0
  182.9480  178.9980  142.9500 C   0  0  0  0  0  0  0  0  0  0  0  0
  180.0960  178.3740  140.7860 C   0  0  1  0  0  0  0  0  0  0  0  0
  180.6620  179.7730  140.5540 C   0  0  0  0  0  2  0  0  0  0  0  0
  183.5450  179.2260  144.0670 N   0  0  0  0  0  0  0  0  0  0  0  0
  181.5890  179.0930  142.7280 O   0  0  0  0  0  0  0  0  0  0  0  0
  185.4870  178.9760  145.5340 C   0  0  0  0  0  2  0  0  0  0  0  0
  186.4360  177.7940  145.5560 C   0  0  0  0  0  2  0  0  0  0  0  0
  187.0870  177.7460  146.7890 O   0  0  0  0  0  0  0  0  0  0  0  0
  189.3490  177.4620  147.4770 C   0  0  0  0  0  2  0  0  0  0  0  0
  190.6190  177.2980  146.6760 C   0  0  0  0  0  2  0  0  0  0  0  0
  188.7370  177.2230  145.1400 C   0  0  0  0  0  2  0  0  0  0  0  0
  190.2190  177.5420  145.2360 C   0  0  0  0  0  2  0  0  0  0  0  0
  188.2410  176.9950  146.5570 C   0  0  0  0  0  3  0  0  0  0  0  0
  180.1000  177.4850  139.5370 C   0  0  2  0  0  3  0  0  0  0  0  0
  179.6850  178.2390  138.2750 C   0  0  0  0  0  2  0  0  0  0  0  0
  180.3840  177.6550  137.0640 C   0  0  0  0  0  2  0  0  0  0  0  0
  181.8530  178.0170  137.1090 C   0  0  0  0  0  2  0  0  0  0  0  0
  182.6860  176.7540  137.0290 C   0  0  0  0  0  2  0  0  0  0  0  0
  184.5070  176.0980  135.8750 O   0  0  0  0  0  1  0  0  0  0  0  0
  184.0520  177.0950  136.6720 N   0  0  0  0  0  0  0  0  0  0  0  0
  184.8300  177.0420  137.9010 C   0  0  0  0  0  2  0  0  0  0  0  0
  185.7650  178.2400  137.9880 C   0  0  0  0  0  2  0  0  0  0  0  0
  187.9690  179.0130  137.2810 N   0  0  0  0  0  1  0  0  0  0  0  0
  187.2000  177.8430  137.6740 C   0  0  0  0  0  2  0  0  0  0  0  0
  179.3460  176.2410  139.7300 N   0  0  0  0  0  2  0  0  0  0  0  0
  180.2430  175.0970  139.8560 C   0  0  0  0  0  2  0  0  0  0  0  0
  179.7760  173.9870  138.9380 C   0  0  0  0  0  1  0  0  0  0  0  0
  1  5  1  0  0  0  0
  2  7  1  1  0  0  0
  2  5  1  0  0  0  0
  2  3  1  0  0  0  0
  3  9  1  0  0  0  0
  4  6  1  0  0  0  0
  4  7  2  0  0  0  0
  5  3  1  0  0  0  0
  6 14  1  0  0  0  0
  7 10  1  0  0  0  0
  9 15  1  0  0  0  0
 10 13  2  0  0  0  0
 11  6  1  0  0  0  0
 11  8  1  0  0  0  0
 12 11  1  0  0  0  0
 12  6  1  0  0  0  0
 13  9  1  0  0  0  0
 14 10  1  0  0  0  0
 15 16  1  0  0  0  0
 16 17  1  0  0  0  0
 19 18  1  0  0  0  0
 20 21  1  0  0  0  0
 20 22  1  0  0  0  0
 21 19  1  0  0  0  0
 22 17  1  0  0  0  0
 22 18  1  0  0  0  0
 23 34  1  0  0  0  0
 23 11  1  0  0  0  0
 24 23  1  0  0  0  0
 25 26  1  0  0  0  0
 25 24  1  0  0  0  0
 27 26  1  0  0  0  0
 28 29  1  0  0  0  0
 29 27  1  0  0  0  0
 29 30  1  0  0  0  0
 30 31  1  0  0  0  0
 32 33  1  0  0  0  0
 33 31  1  0  0  0  0
 34 35  1  0  0  0  0
 36 35  1  0  0  0  0
M  END
>  <MODEL>
7

>  <REMARK>
 VINA RESULT:      -6.7      4.524      9.339
  Name = 
  15 active torsions:
  status: ('A' for Active; 'I' for Inactive)
    1  A    between atoms: C_1  and  C_16
    2  A    between atoms: C_1  and  C_29
    3  A    between atoms: C_2  and  C_12
    4  A    between atoms: C_2  and  N_17
    5  A    between atoms: C_4  and  C_24
    6  A    between atoms: C_4  and  C_28
    7  A    between atoms: C_8  and  C_14
    8  A    between atoms: C_8  and  N_17
    9  A    between atoms: C_10  and  N_33
   10  A    between atoms: C_12  and  C_29
   11  A    between atoms: C_14  and  C_35
   12  A    between atoms: C_16  and  C_27
   13  A    between atoms: C_16  and  N_33
   14  A    between atoms: O_26  and  C_28
   15  A    between atoms: O_26  and  C_31
                            x       y       z     vdW  Elec       q    Type
                         _______ _______ _______ _____ _____    ______ ____

>  <TORSDO>
F 15

$$$$
=
 OpenBabel10222419413D

 36 40  0  0  1  0  0  0  0  0999 V2000
  186.9990  178.6240  141.2670 C   0  0  0  0  0  1  0  0  0  0  0  0
  184.8270  178.0950  142.2040 C   0  0  2  0  0  3  0  0  0  0  0  0
  185.8390  177.9230  143.2930 N   0  0  1  0  0  0  0  0  0  0  0  0
  182.3980  178.7440  142.0540 C   0  0  0  0  0  3  0  0  0  0  0  0
  185.9570  179.0080  142.2990 C   0  0  1  0  0  3  0  0  0  0  0  0
  181.3600  179.0120  143.1070 C   0  0  2  0  0  0  0  0  0  0  0  0
  183.5440  178.6550  142.7200 C   0  0  0  0  0  0  0  0  0  0  0  0
  179.0640  178.6150  144.2130 C   0  0  0  0  0  1  0  0  0  0  0  0
  185.6350  178.6400  144.5740 C   0  0  1  0  0  3  0  0  0  0  0  0
  183.2980  178.7820  144.1280 C   0  0  0  0  0  0  0  0  0  0  0  0
  179.8640  178.8470  142.9400 C   0  0  1  0  0  0  0  0  0  0  0  0
  180.4950  180.2350  142.8620 C   0  0  0  0  0  2  0  0  0  0  0  0
  184.2340  178.6930  145.0070 N   0  0  0  0  0  0  0  0  0  0  0  0
  181.9590  178.9860  144.3930 O   0  0  0  0  0  0  0  0  0  0  0  0
  186.4880  177.9980  145.6540 C   0  0  0  0  0  2  0  0  0  0  0  0
  187.7830  177.4750  145.0630 C   0  0  0  0  0  2  0  0  0  0  0  0
  188.7850  177.5180  146.0330 O   0  0  0  0  0  0  0  0  0  0  0  0
  189.6780  177.8650  143.8530 C   0  0  0  0  0  2  0  0  0  0  0  0
  190.9960  177.4530  143.2410 C   0  0  0  0  0  2  0  0  0  0  0  0
  191.0650  176.9330  145.6140 C   0  0  0  0  0  2  0  0  0  0  0  0
  191.6480  176.5480  144.2660 C   0  0  0  0  0  2  0  0  0  0  0  0
  189.9340  177.9110  145.3440 C   0  0  0  0  0  3  0  0  0  0  0  0
  179.3750  178.3090  141.5910 C   0  0  2  0  0  3  0  0  0  0  0  0
  180.3520  177.3180  140.9620 C   0  0  0  0  0  2  0  0  0  0  0  0
  179.6510  176.0060  140.6730 C   0  0  0  0  0  2  0  0  0  0  0  0
  180.2980  175.3440  139.4740 C   0  0  0  0  0  2  0  0  0  0  0  0
  181.6930  175.9030  139.2810 C   0  0  0  0  0  2  0  0  0  0  0  0
  182.8350  175.2220  137.4630 O   0  0  0  0  0  1  0  0  0  0  0  0
  181.9280  176.1430  137.8680 N   0  0  0  0  0  0  0  0  0  0  0  0
  182.5720  177.4450  137.7680 C   0  0  0  0  0  2  0  0  0  0  0  0
  183.6730  177.5730  138.8120 C   0  0  0  0  0  2  0  0  0  0  0  0
  184.3060  179.9140  139.0850 N   0  0  0  0  0  1  0  0  0  0  0  0
  184.6650  178.6630  138.4340 C   0  0  0  0  0  2  0  0  0  0  0  0
  178.9770  179.3790  140.6690 N   0  0  0  0  0  2  0  0  0  0  0  0
  179.7590  179.3280  139.4370 C   0  0  0  0  0  2  0  0  0  0  0  0
  180.2410  180.7200  139.0890 C   0  0  0  0  0  1  0  0  0  0  0  0
  1  5  1  0  0  0  0
  2  5  1  0  0  0  0
  2  7  1  1  0  0  0
  2  3  1  0  0  0  0
  3  9  1  0  0  0  0
  4  7  2  0  0  0  0
  4  6  1  0  0  0  0
  5  3  1  0  0  0  0
  6 14  1  0  0  0  0
  7 10  1  0  0  0  0
  9 13  1  0  0  0  0
  9 15  1  0  0  0  0
 10 14  1  0  0  0  0
 10 13  2  0  0  0  0
 11  6  1  0  0  0  0
 11  8  1  0  0  0  0
 12 11  1  0  0  0  0
 12  6  1  0  0  0  0
 16 15  1  0  0  0  0
 16 17  1  0  0  0  0
 18 22  1  0  0  0  0
 19 18  1  0  0  0  0
 19 21  1  0  0  0  0
 21 20  1  0  0  0  0
 22 20  1  0  0  0  0
 22 17  1  0  0  0  0
 23 11  1  0  0  0  0
 24 23  1  0  0  0  0
 25 24  1  0  0  0  0
 26 25  1  0  0  0  0
 27 26  1  0  0  0  0
 28 29  1  0  0  0  0
 29 27  1  0  0  0  0
 30 29  1  0  0  0  0
 30 31  1  0  0  0  0
 33 31  1  0  0  0  0
 33 32  1  0  0  0  0
 34 23  1  0  0  0  0
 35 34  1  0  0  0  0
 36 35  1  0  0  0  0
M  END
>  <MODEL>
8

>  <REMARK>
 VINA RESULT:      -6.6      4.426      8.629
  Name = 
  15 active torsions:
  status: ('A' for Active; 'I' for Inactive)
    1  A    between atoms: C_1  and  C_16
    2  A    between atoms: C_1  and  C_29
    3  A    between atoms: C_2  and  C_12
    4  A    between atoms: C_2  and  N_17
    5  A    between atoms: C_4  and  C_24
    6  A    between atoms: C_4  and  C_28
    7  A    between atoms: C_8  and  C_14
    8  A    between atoms: C_8  and  N_17
    9  A    between atoms: C_10  and  N_33
   10  A    between atoms: C_12  and  C_29
   11  A    between atoms: C_14  and  C_35
   12  A    between atoms: C_16  and  C_27
   13  A    between atoms: C_16  and  N_33
   14  A    between atoms: O_26  and  C_28
   15  A    between atoms: O_26  and  C_31
                            x       y       z     vdW  Elec       q    Type
                         _______ _______ _______ _____ _____    ______ ____

>  <TORSDO>
F 15

$$$$
=
 OpenBabel10222419413D

 36 40  0  0  1  0  0  0  0  0999 V2000
  183.6780  178.7130  138.9480 C   0  0  0  0  0  1  0  0  0  0  0  0
  184.8990  179.0030  141.0210 C   0  0  2  0  0  3  0  0  0  0  0  0
  183.4640  179.3290  141.2960 N   0  0  1  0  0  0  0  0  0  0  0  0
  186.8380  178.0590  142.3220 C   0  0  0  0  0  3  0  0  0  0  0  0
  183.8410  178.2370  140.3780 C   0  0  1  0  0  3  0  0  0  0  0  0
  186.9990  177.6990  143.7720 C   0  0  2  0  0  0  0  0  0  0  0  0
  185.5420  178.3070  142.1740 C   0  0  0  0  0  0  0  0  0  0  0  0
  188.2020  177.8480  146.0490 C   0  0  0  0  0  1  0  0  0  0  0  0
  182.7750  178.6320  142.4080 C   0  0  1  0  0  3  0  0  0  0  0  0
  184.8790  178.1930  143.4410 C   0  0  0  0  0  0  0  0  0  0  0  0
  188.3030  177.6760  144.5410 C   0  0  1  0  0  0  0  0  0  0  0  0
  187.6900  176.3730  144.0330 C   0  0  0  0  0  2  0  0  0  0  0  0
  183.6210  178.4230  143.5900 N   0  0  0  0  0  0  0  0  0  0  0  0
  185.7570  177.8370  144.4450 O   0  0  0  0  0  0  0  0  0  0  0  0
  181.5270  179.4050  142.7940 C   0  0  0  0  0  2  0  0  0  0  0  0
  180.4650  179.2630  141.7210 C   0  0  0  0  0  2  0  0  0  0  0  0
  179.6720  178.1500  141.9990 O   0  0  0  0  0  0  0  0  0  0  0  0
  180.4020  176.7410  140.2240 C   0  0  0  0  0  2  0  0  0  0  0  0
  180.3930  176.9410  138.7270 C   0  0  0  0  0  2  0  0  0  0  0  0
  179.1760  178.7810  139.7470 C   0  0  0  0  0  2  0  0  0  0  0  0
  179.9740  178.3810  138.5180 C   0  0  0  0  0  2  0  0  0  0  0  0
  179.3080  177.6470  140.7480 C   0  0  0  0  0  3  0  0  0  0  0  0
  189.5610  178.1100  143.7800 C   0  0  2  0  0  3  0  0  0  0  0  0
  189.9910  177.0960  142.7230 C   0  0  0  0  0  2  0  0  0  0  0  0
  190.4780  177.8130  141.4790 C   0  0  0  0  0  2  0  0  0  0  0  0
  189.8320  177.1950  140.2570 C   0  0  0  0  0  2  0  0  0  0  0  0
  189.0390  178.2530  139.5170 C   0  0  0  0  0  2  0  0  0  0  0  0
  189.0550  179.4290  137.5960 O   0  0  0  0  0  1  0  0  0  0  0  0
  189.3820  178.2180  138.1060 N   0  0  0  0  0  0  0  0  0  0  0  0
  188.4960  177.2440  137.4860 C   0  0  0  0  0  2  0  0  0  0  0  0
  187.0410  177.6280  137.7170 C   0  0  0  0  0  2  0  0  0  0  0  0
  186.8730  177.9210  135.3000 N   0  0  0  0  0  1  0  0  0  0  0  0
  186.2020  177.3810  136.4720 C   0  0  0  0  0  2  0  0  0  0  0  0
  190.6570  178.4940  144.6780 N   0  0  0  0  0  2  0  0  0  0  0  0
  191.6810  177.4540  144.7320 C   0  0  0  0  0  2  0  0  0  0  0  0
  191.6170  176.7530  146.0720 C   0  0  0  0  0  1  0  0  0  0  0  0
  1  5  1  0  0  0  0
  2  3  1  0  0  0  0
  2  7  1  1  0  0  0
  3  9  1  0  0  0  0
  4  6  1  0  0  0  0
  5  2  1  0  0  0  0
  5  3  1  0  0  0  0
  6 12  1  0  0  0  0
  6 14  1  0  0  0  0
  6 11  1  0  0  0  0
  7  4  2  0  0  0  0
  7 10  1  0  0  0  0
  9 15  1  0  0  0  0
  9 13  1  0  0  0  0
 10 13  2  0  0  0  0
 10 14  1  0  0  0  0
 11  8  1  0  0  0  0
 12 11  1  0  0  0  0
 16 17  1  0  0  0  0
 16 15  1  0  0  0  0
 18 22  1  0  0  0  0
 19 18  1  0  0  0  0
 20 22  1  0  0  0  0
 21 19  1  0  0  0  0
 21 20  1  0  0  0  0
 22 17  1  0  0  0  0
 23 11  1  0  0  0  0
 23 34  1  0  0  0  0
 24 23  1  0  0  0  0
 25 24  1  0  0  0  0
 26 25  1  0  0  0  0
 27 26  1  0  0  0  0
 28 29  1  0  0  0  0
 29 27  1  0  0  0  0
 30 31  1  0  0  0  0
 30 29  1  0  0  0  0
 32 33  1  0  0  0  0
 33 31  1  0  0  0  0
 34 35  1  0  0  0  0
 35 36  1  0  0  0  0
M  END
>  <MODEL>
9

>  <REMARK>
 VINA RESULT:      -6.6      3.402      8.598
  Name = 
  15 active torsions:
  status: ('A' for Active; 'I' for Inactive)
    1  A    between atoms: C_1  and  C_16
    2  A    between atoms: C_1  and  C_29
    3  A    between atoms: C_2  and  C_12
    4  A    between atoms: C_2  and  N_17
    5  A    between atoms: C_4  and  C_24
    6  A    between atoms: C_4  and  C_28
    7  A    between atoms: C_8  and  C_14
    8  A    between atoms: C_8  and  N_17
    9  A    between atoms: C_10  and  N_33
   10  A    between atoms: C_12  and  C_29
   11  A    between atoms: C_14  and  C_35
   12  A    between atoms: C_16  and  C_27
   13  A    between atoms: C_16  and  N_33
   14  A    between atoms: O_26  and  C_28
   15  A    between atoms: O_26  and  C_31
                            x       y       z     vdW  Elec       q    Type
                         _______ _______ _______ _____ _____    ______ ____

>  <TORSDO>
F 15

$$$$
