=
 OpenBabel10222419303D

 42 49  0  0  1  0  0  0  0  0999 V2000
  192.3510  175.4320  137.1510 O   0  0  0  0  0  1  0  0  0  0  0  0
  188.5040  178.2260  142.5780 C   0  0  2  0  0  3  0  0  0  0  0  0
  190.2500  177.9580  140.6050 C   0  0  2  0  0  3  0  0  0  0  0  0
  189.9960  176.0200  142.3580 C   0  0  0  0  0  2  0  0  0  0  0  0
  190.4970  176.2380  135.7330 C   0  0  0  0  0  0  0  0  0  0  0  0
  189.4760  177.3280  141.7700 C   0  0  1  0  0  0  0  0  0  0  0  0
  189.8150  177.8750  137.7770 C   0  0  0  0  0  0  0  0  0  0  0  0
  190.1620  178.1350  144.5080 C   0  0  0  0  0  2  0  0  0  0  0  0
  188.9720  177.1780  140.3550 C   0  0  1  0  0  3  0  0  0  0  0  0
  189.3130  177.0230  135.4770 C   0  0  0  0  0  3  0  0  0  0  0  0
  187.9670  178.2480  139.9350 C   0  0  2  0  0  3  0  0  0  0  0  0
  191.5890  177.0100  139.7780 S   0  0  0  0  0  0  0  0  0  0  0  0
  189.0330  177.8050  136.5560 C   0  0  0  0  0  0  0  0  0  0  0  0
  186.3730  179.6890  141.0150 O   0  0  0  0  0  1  0  0  0  0  0  0
  190.6120  176.7510  144.6240 N   0  0  0  0  0  0  0  0  0  0  0  0
  186.8230  178.3700  140.9530 C   0  0  2  0  0  3  0  0  0  0  0  0
  188.6940  178.1530  144.0950 C   0  0  0  0  0  2  0  0  0  0  0  0
  188.6470  178.6570  137.6270 C   0  0  1  0  0  3  0  0  0  0  0  0
  187.5480  178.1570  138.5170 N   0  0  0  0  0  0  0  0  0  0  0  0
  191.2640  176.2870  136.9940 C   0  0  0  0  0  0  0  0  0  0  0  0
  187.1580  177.9040  142.2570 O   0  0  0  0  0  0  0  0  0  0  0  0
  190.9370  177.1730  138.0840 C   0  0  0  0  0  0  0  0  0  0  0  0
  191.1310  176.3170  143.3310 C   0  0  0  0  0  2  0  0  0  0  0  0
  190.9360  175.3040  134.6590 C   0  0  0  0  0  1  0  0  0  0  0  0
  191.7430  176.7380  145.5400 C   0  0  0  0  0  2  0  0  0  0  0  0
  191.3090  176.3220  146.9090 C   0  0  0  0  0  0  0  0  0  0  0  0
  192.1510  175.6820  147.7170 C   0  0  0  0  0  2  0  0  0  0  0  0
  189.9720  176.7400  147.4170 C   0  0  0  0  0  1  0  0  0  0  0  0
  187.0440  176.8020  138.2120 C   0  0  0  0  0  2  0  0  0  0  0  0
  182.5720  177.4780  138.1720 C   0  0  0  0  0  0  0  0  0  0  0  0
  180.3480  176.6540  138.0880 N   0  0  0  0  0  2  0  0  0  0  0  0
  182.3460  177.0520  136.8270 N   0  0  0  0  0  0  0  0  0  0  0  0
  185.6090  176.4900  136.1590 C   0  0  0  0  0  2  0  0  0  0  0  0
  184.9590  178.1730  137.9070 C   0  0  0  0  0  2  0  0  0  0  0  0
  183.2340  177.1210  135.6730 C   0  0  0  0  0  2  0  0  0  0  0  0
  183.6990  177.9790  138.6850 C   0  0  0  0  0  3  0  0  0  0  0  0
  181.0050  176.5640  136.8220 C   0  0  0  0  0  0  0  0  0  0  0  0
  184.2420  175.9840  135.7180 C   0  0  0  0  0  2  0  0  0  0  0  0
  181.1770  177.4820  140.1440 O   0  0  0  0  0  0  0  0  0  0  0  0
  181.3470  177.2360  138.9190 C   0  0  0  0  0  0  0  0  0  0  0  0
  185.6270  176.8310  137.6450 C   0  0  2  0  0  3  0  0  0  0  0  0
  180.4460  176.0940  135.7960 O   0  0  0  0  0  0  0  0  0  0  0  0
  2 17  1  1  0  0  0
  3 12  1  6  0  0  0
  3  6  1  0  0  0  0
  4 23  1  0  0  0  0
  5 20  1  0  0  0  0
  6  4  1  1  0  0  0
  6  2  1  0  0  0  0
  7 22  1  0  0  0  0
  8 15  1  0  0  0  0
  9  3  1  0  0  0  0
  9  6  1  0  0  0  0
 10  5  2  0  0  0  0
 10 13  1  0  0  0  0
 11  9  1  0  0  0  0
 11 16  1  0  0  0  0
 13 18  1  0  0  0  0
 13  7  2  0  0  0  0
 15 25  1  0  0  0  0
 16 14  1  0  0  0  0
 16 21  1  0  0  0  0
 17  8  1  0  0  0  0
 18  7  1  0  0  0  0
 18 19  1  0  0  0  0
 19 11  1  0  0  0  0
 20  1  1  0  0  0  0
 20 22  2  0  0  0  0
 21  2  1  0  0  0  0
 22 12  1  0  0  0  0
 23 15  1  0  0  0  0
 24  5  1  0  0  0  0
 25 26  1  0  0  0  0
 26 28  1  0  0  0  0
 26 27  2  0  0  0  0
 29 19  1  0  0  0  0
 30 36  2  0  0  0  0
 30 40  1  0  0  0  0
 31 40  1  0  0  0  0
 32 30  1  0  0  0  0
 33 41  1  0  0  0  0
 34 36  1  0  0  0  0
 35 38  1  0  0  0  0
 35 32  1  0  0  0  0
 37 32  1  0  0  0  0
 37 31  1  0  0  0  0
 38 33  1  0  0  0  0
 40 39  2  0  0  0  0
 41 34  1  0  0  0  0
 41 29  1  0  0  0  0
 42 37  2  0  0  0  0
M  END
>  <MODEL>
1

>  <REMARK>
 VINA RESULT:      -8.7      0.000      0.000
  Name = 
  4 active torsions:
  status: ('A' for Active; 'I' for Inactive)
    1  A    between atoms: C_18  and  C_22
    2  A    between atoms: N_21  and  C_22
    3  A    between atoms: C_29  and  N_34
    4  A    between atoms: C_29  and  C_39
                            x       y       z     vdW  Elec       q    Type
                         _______ _______ _______ _____ _____    ______ ____

>  <TORSDO>
F 4

$$$$
=
 OpenBabel10222419303D

 42 49  0  0  1  0  0  0  0  0999 V2000
  186.0260  176.1970  135.9580 O   0  0  0  0  0  1  0  0  0  0  0  0
  192.8650  176.1970  138.2570 C   0  0  2  0  0  3  0  0  0  0  0  0
  190.6250  176.8720  137.0160 C   0  0  2  0  0  3  0  0  0  0  0  0
  191.3550  174.3500  137.0540 C   0  0  0  0  0  2  0  0  0  0  0  0
  185.5870  177.5190  137.9970 C   0  0  0  0  0  0  0  0  0  0  0  0
  191.5410  175.7740  137.5700 C   0  0  1  0  0  0  0  0  0  0  0  0
  188.2380  178.0560  138.0660 C   0  0  0  0  0  0  0  0  0  0  0  0
  194.1070  175.2830  136.2320 C   0  0  0  0  0  2  0  0  0  0  0  0
  190.3660  176.2630  138.3830 C   0  0  1  0  0  3  0  0  0  0  0  0
  185.9890  178.3140  139.1320 C   0  0  0  0  0  3  0  0  0  0  0  0
  190.7100  177.3900  139.3540 C   0  0  2  0  0  3  0  0  0  0  0  0
  189.1760  176.4190  135.9810 S   0  0  0  0  0  0  0  0  0  0  0  0
  187.3330  178.5250  139.0990 C   0  0  0  0  0  0  0  0  0  0  0  0
  192.6540  178.1660  140.5380 O   0  0  0  0  0  1  0  0  0  0  0  0
  193.4950  174.0010  135.8930 N   0  0  0  0  0  0  0  0  0  0  0  0
  191.9160  177.0220  140.2320 C   0  0  2  0  0  3  0  0  0  0  0  0
  194.1030  175.4570  137.7470 C   0  0  0  0  0  2  0  0  0  0  0  0
  188.7270  178.8010  139.1620 C   0  0  1  0  0  3  0  0  0  0  0  0
  189.5390  177.9350  140.0800 N   0  0  0  0  0  0  0  0  0  0  0  0
  186.5210  177.0120  136.9710 C   0  0  0  0  0  0  0  0  0  0  0  0
  192.7630  176.0280  139.6640 O   0  0  0  0  0  0  0  0  0  0  0  0
  187.9320  177.3100  136.9710 C   0  0  0  0  0  0  0  0  0  0  0  0
  192.0610  174.2010  135.7110 C   0  0  0  0  0  2  0  0  0  0  0  0
  184.1430  177.1720  137.8890 C   0  0  0  0  0  1  0  0  0  0  0  0
  194.0160  173.6010  134.5950 C   0  0  0  0  0  2  0  0  0  0  0  0
  194.7560  172.3050  134.7000 C   0  0  0  0  0  0  0  0  0  0  0  0
  196.0870  172.2850  134.6660 C   0  0  0  0  0  2  0  0  0  0  0  0
  194.0050  171.0480  134.9730 C   0  0  0  0  0  1  0  0  0  0  0  0
  188.7980  176.8520  140.7590 C   0  0  0  0  0  2  0  0  0  0  0  0
  190.1090  177.4200  145.0500 C   0  0  0  0  0  0  0  0  0  0  0  0
  190.2110  176.6870  147.3050 N   0  0  0  0  0  2  0  0  0  0  0  0
  188.8070  177.6210  145.6020 N   0  0  0  0  0  0  0  0  0  0  0  0
  187.2130  177.4490  142.6290 C   0  0  0  0  0  2  0  0  0  0  0  0
  189.6100  178.1920  142.7240 C   0  0  0  0  0  2  0  0  0  0  0  0
  187.6190  178.1980  144.9850 C   0  0  0  0  0  2  0  0  0  0  0  0
  190.5040  177.6620  143.7970 C   0  0  0  0  0  3  0  0  0  0  0  0
  188.9110  177.1680  146.9520 C   0  0  0  0  0  0  0  0  0  0  0  0
  186.9350  177.1690  144.1000 C   0  0  0  0  0  2  0  0  0  0  0  0
  192.1620  176.5460  145.9740 O   0  0  0  0  0  0  0  0  0  0  0  0
  190.9480  176.8610  146.0990 C   0  0  0  0  0  0  0  0  0  0  0  0
  188.6510  177.1070  142.2570 C   0  0  2  0  0  3  0  0  0  0  0  0
  187.9470  177.1850  147.7610 O   0  0  0  0  0  0  0  0  0  0  0  0
  1 20  1  0  0  0  0
  2 17  1  6  0  0  0
  2 21  1  0  0  0  0
  3 12  1  6  0  0  0
  3  6  1  0  0  0  0
  3  9  1  0  0  0  0
  5 10  1  0  0  0  0
  6  4  1  6  0  0  0
  6  2  1  0  0  0  0
  6  9  1  0  0  0  0
  7 13  1  0  0  0  0
  7 18  1  0  0  0  0
  8 17  1  0  0  0  0
  9 11  1  0  0  0  0
 11 19  1  0  0  0  0
 11 16  1  0  0  0  0
 12 22  1  0  0  0  0
 13 10  2  0  0  0  0
 13 18  1  0  0  0  0
 15  8  1  0  0  0  0
 16 14  1  0  0  0  0
 18 19  1  0  0  0  0
 19 29  1  0  0  0  0
 20  5  2  0  0  0  0
 21 16  1  0  0  0  0
 22 20  1  0  0  0  0
 22  7  2  0  0  0  0
 23 15  1  0  0  0  0
 23  4  1  0  0  0  0
 24  5  1  0  0  0  0
 25 26  1  0  0  0  0
 25 15  1  0  0  0  0
 26 28  1  0  0  0  0
 27 26  2  0  0  0  0
 29 41  1  0  0  0  0
 30 32  1  0  0  0  0
 30 40  1  0  0  0  0
 32 37  1  0  0  0  0
 33 38  1  0  0  0  0
 34 36  1  0  0  0  0
 35 32  1  0  0  0  0
 36 30  2  0  0  0  0
 37 31  1  0  0  0  0
 37 42  2  0  0  0  0
 38 35  1  0  0  0  0
 39 40  2  0  0  0  0
 40 31  1  0  0  0  0
 41 33  1  0  0  0  0
 41 34  1  0  0  0  0
M  END
>  <MODEL>
2

>  <REMARK>
 VINA RESULT:      -7.8      3.160      8.411
  Name = 
  4 active torsions:
  status: ('A' for Active; 'I' for Inactive)
    1  A    between atoms: C_18  and  C_22
    2  A    between atoms: N_21  and  C_22
    3  A    between atoms: C_29  and  N_34
    4  A    between atoms: C_29  and  C_39
                            x       y       z     vdW  Elec       q    Type
                         _______ _______ _______ _____ _____    ______ ____

>  <TORSDO>
F 4

$$$$
=
 OpenBabel10222419303D

 42 49  0  0  1  0  0  0  0  0999 V2000
  192.5800  175.6540  138.4100 O   0  0  0  0  0  1  0  0  0  0  0  0
  187.4170  178.2390  142.7370 C   0  0  2  0  0  3  0  0  0  0  0  0
  189.5960  178.0630  141.2410 C   0  0  2  0  0  3  0  0  0  0  0  0
  189.0220  176.1090  142.8980 C   0  0  0  0  0  2  0  0  0  0  0  0
  191.0830  176.3750  136.5830 C   0  0  0  0  0  0  0  0  0  0  0  0
  188.5960  177.3920  142.1920 C   0  0  1  0  0  0  0  0  0  0  0  0
  189.8550  177.9690  138.3920 C   0  0  0  0  0  0  0  0  0  0  0  0
  188.5680  178.2210  145.0080 C   0  0  0  0  0  2  0  0  0  0  0  0
  188.4540  177.2230  140.6990 C   0  0  1  0  0  3  0  0  0  0  0  0
  189.9590  177.1030  136.0460 C   0  0  0  0  0  3  0  0  0  0  0  0
  187.5290  178.2450  140.0430 C   0  0  2  0  0  3  0  0  0  0  0  0
  191.1380  177.1840  140.7660 S   0  0  0  0  0  0  0  0  0  0  0  0
  189.3920  177.8660  137.0200 C   0  0  0  0  0  0  0  0  0  0  0  0
  185.6550  179.6040  140.6980 O   0  0  0  0  0  1  0  0  0  0  0  0
  189.0420  176.8600  145.2400 N   0  0  0  0  0  0  0  0  0  0  0  0
  186.1700  178.3080  140.7570 C   0  0  2  0  0  3  0  0  0  0  0  0
  187.2420  178.1700  144.2560 C   0  0  0  0  0  2  0  0  0  0  0  0
  188.7210  178.6950  137.9610 C   0  0  1  0  0  3  0  0  0  0  0  0
  187.4660  178.1390  138.5660 N   0  0  0  0  0  0  0  0  0  0  0  0
  191.5230  176.4560  137.9920 C   0  0  0  0  0  0  0  0  0  0  0  0
  186.2040  177.8540  142.1060 O   0  0  0  0  0  0  0  0  0  0  0  0
  190.9030  177.3210  138.9640 C   0  0  0  0  0  0  0  0  0  0  0  0
  189.8760  176.4560  144.1120 C   0  0  0  0  0  2  0  0  0  0  0  0
  191.8110  175.4680  135.6540 C   0  0  0  0  0  1  0  0  0  0  0  0
  189.9210  176.8980  146.4000 C   0  0  0  0  0  2  0  0  0  0  0  0
  189.1640  177.3110  147.6220 C   0  0  0  0  0  0  0  0  0  0  0  0
  188.0950  176.6240  148.0160 C   0  0  0  0  0  2  0  0  0  0  0  0
  189.6860  178.4180  148.4720 C   0  0  0  0  0  1  0  0  0  0  0  0
  187.1150  176.7630  138.1600 C   0  0  0  0  0  2  0  0  0  0  0  0
  182.7440  177.4150  137.1940 C   0  0  0  0  0  0  0  0  0  0  0  0
  180.5600  176.5810  136.7930 N   0  0  0  0  0  2  0  0  0  0  0  0
  182.7660  176.8260  135.8930 N   0  0  0  0  0  0  0  0  0  0  0  0
  186.0850  176.1960  135.9270 C   0  0  0  0  0  2  0  0  0  0  0  0
  185.1530  178.0800  137.3020 C   0  0  0  0  0  2  0  0  0  0  0  0
  183.8570  176.7550  134.9280 C   0  0  0  0  0  2  0  0  0  0  0  0
  183.7650  177.9790  137.8460 C   0  0  0  0  0  3  0  0  0  0  0  0
  181.4400  176.3370  135.6940 C   0  0  0  0  0  0  0  0  0  0  0  0
  184.8150  175.6360  135.3000 C   0  0  0  0  0  2  0  0  0  0  0  0
  181.0050  177.6580  138.8520 O   0  0  0  0  0  0  0  0  0  0  0  0
  181.3960  177.2630  137.7210 C   0  0  0  0  0  0  0  0  0  0  0  0
  185.8300  176.7170  137.3370 C   0  0  2  0  0  3  0  0  0  0  0  0
  181.0750  175.7420  134.6460 O   0  0  0  0  0  0  0  0  0  0  0  0
  2 17  1  1  0  0  0
  3 12  1  1  0  0  0
  3  6  1  0  0  0  0
  4 23  1  0  0  0  0
  5 20  1  0  0  0  0
  6  2  1  0  0  0  0
  6  4  1  1  0  0  0
  7 22  1  0  0  0  0
  8 15  1  0  0  0  0
  9  3  1  0  0  0  0
  9  6  1  0  0  0  0
 10  5  2  0  0  0  0
 10 13  1  0  0  0  0
 11  9  1  0  0  0  0
 11 16  1  0  0  0  0
 13 18  1  0  0  0  0
 13  7  2  0  0  0  0
 14 16  1  0  0  0  0
 15 25  1  0  0  0  0
 16 21  1  0  0  0  0
 17  8  1  0  0  0  0
 18  7  1  0  0  0  0
 18 19  1  0  0  0  0
 19 11  1  0  0  0  0
 20  1  1  0  0  0  0
 20 22  2  0  0  0  0
 21  2  1  0  0  0  0
 22 12  1  0  0  0  0
 23 15  1  0  0  0  0
 24  5  1  0  0  0  0
 25 26  1  0  0  0  0
 26 27  2  0  0  0  0
 26 28  1  0  0  0  0
 29 19  1  0  0  0  0
 30 40  1  0  0  0  0
 30 36  2  0  0  0  0
 31 40  1  0  0  0  0
 32 30  1  0  0  0  0
 33 41  1  0  0  0  0
 34 41  1  0  0  0  0
 34 36  1  0  0  0  0
 35 38  1  0  0  0  0
 35 32  1  0  0  0  0
 37 32  1  0  0  0  0
 37 31  1  0  0  0  0
 38 33  1  0  0  0  0
 40 39  2  0  0  0  0
 41 29  1  0  0  0  0
 42 37  2  0  0  0  0
M  END
>  <MODEL>
3

>  <REMARK>
 VINA RESULT:      -7.7      1.123      1.304
  Name = 
  4 active torsions:
  status: ('A' for Active; 'I' for Inactive)
    1  A    between atoms: C_18  and  C_22
    2  A    between atoms: N_21  and  C_22
    3  A    between atoms: C_29  and  N_34
    4  A    between atoms: C_29  and  C_39
                            x       y       z     vdW  Elec       q    Type
                         _______ _______ _______ _____ _____    ______ ____

>  <TORSDO>
F 4

$$$$
=
 OpenBabel10222419303D

 42 49  0  0  1  0  0  0  0  0999 V2000
  187.1270  177.5980  142.8250 O   0  0  0  0  0  1  0  0  0  0  0  0
  185.4050  177.3510  135.8220 C   0  0  2  0  0  3  0  0  0  0  0  0
  186.0030  178.2550  138.2390 C   0  0  2  0  0  3  0  0  0  0  0  0
  184.3030  176.2680  138.0010 C   0  0  0  0  0  2  0  0  0  0  0  0
  189.4580  177.5020  142.0140 C   0  0  0  0  0  0  0  0  0  0  0  0
  185.3420  177.1830  137.3620 C   0  0  1  0  0  0  0  0  0  0  0  0
  188.5180  178.2990  139.6050 C   0  0  0  0  0  0  0  0  0  0  0  0
  182.9190  177.8940  135.8660 C   0  0  0  0  0  2  0  0  0  0  0  0
  186.7330  176.9660  137.9080 C   0  0  1  0  0  3  0  0  0  0  0  0
  190.4760  177.5930  140.9950 C   0  0  0  0  0  3  0  0  0  0  0  0
  187.8480  177.4110  136.9640 C   0  0  2  0  0  3  0  0  0  0  0  0
  185.7440  178.2350  140.0580 S   0  0  0  0  0  0  0  0  0  0  0  0
  189.9190  177.9840  139.8160 C   0  0  0  0  0  0  0  0  0  0  0  0
  188.1450  177.6890  134.5940 O   0  0  0  0  0  1  0  0  0  0  0  0
  182.2840  176.9340  136.7650 N   0  0  0  0  0  0  0  0  0  0  0  0
  187.6680  176.8060  135.5640 C   0  0  2  0  0  3  0  0  0  0  0  0
  184.0550  177.2060  135.1170 C   0  0  0  0  0  2  0  0  0  0  0  0
  189.4410  178.3830  138.5380 C   0  0  1  0  0  3  0  0  0  0  0  0
  189.2070  177.2880  137.5400 N   0  0  0  0  0  0  0  0  0  0  0  0
  188.0270  177.7860  141.7800 C   0  0  0  0  0  0  0  0  0  0  0  0
  186.3280  176.4250  135.2650 O   0  0  0  0  0  0  0  0  0  0  0  0
  187.5090  178.2410  140.5140 C   0  0  0  0  0  0  0  0  0  0  0  0
  182.9600  176.9860  138.0570 C   0  0  0  0  0  2  0  0  0  0  0  0
  189.8920  177.0620  143.3690 C   0  0  0  0  0  1  0  0  0  0  0  0
  180.9240  177.3950  137.0000 C   0  0  0  0  0  2  0  0  0  0  0  0
  180.0500  176.2610  137.4330 C   0  0  0  0  0  0  0  0  0  0  0  0
  180.0550  175.1120  136.7620 C   0  0  0  0  0  2  0  0  0  0  0  0
  179.2680  176.3740  138.6960 C   0  0  0  0  0  1  0  0  0  0  0  0
  189.4400  175.9140  138.0310 C   0  0  0  0  0  2  0  0  0  0  0  0
  193.7240  175.7870  136.5840 C   0  0  0  0  0  0  0  0  0  0  0  0
  195.3210  175.5660  134.8440 N   0  0  0  0  0  2  0  0  0  0  0  0
  193.7420  174.4060  136.2220 N   0  0  0  0  0  0  0  0  0  0  0  0
  190.5910  173.7980  137.2780 C   0  0  0  0  0  2  0  0  0  0  0  0
  191.9240  175.6560  138.3160 C   0  0  0  0  0  2  0  0  0  0  0  0
  192.9950  173.2900  136.7910 C   0  0  0  0  0  2  0  0  0  0  0  0
  192.9480  176.3750  137.4990 C   0  0  0  0  0  3  0  0  0  0  0  0
  194.7090  174.3170  135.1760 C   0  0  0  0  0  0  0  0  0  0  0  0
  191.5770  173.2730  136.2430 C   0  0  0  0  0  2  0  0  0  0  0  0
  194.9460  177.7080  135.7760 O   0  0  0  0  0  0  0  0  0  0  0  0
  194.6930  176.4730  135.7430 C   0  0  0  0  0  0  0  0  0  0  0  0
  190.7180  175.3070  137.4570 C   0  0  2  0  0  3  0  0  0  0  0  0
  194.9990  173.2390  134.5940 O   0  0  0  0  0  0  0  0  0  0  0  0
  2 17  1  6  0  0  0
  2  6  1  0  0  0  0
  3 12  1  1  0  0  0
  4 23  1  0  0  0  0
  5 24  1  0  0  0  0
  6  9  1  0  0  0  0
  6  4  1  1  0  0  0
  6  3  1  0  0  0  0
  7 13  2  0  0  0  0
  7 22  1  0  0  0  0
  8 15  1  0  0  0  0
  9  3  1  0  0  0  0
 10  5  2  0  0  0  0
 11 19  1  0  0  0  0
 11  9  1  0  0  0  0
 12 22  1  0  0  0  0
 13 10  1  0  0  0  0
 14 16  1  0  0  0  0
 15 25  1  0  0  0  0
 15 23  1  0  0  0  0
 16 11  1  0  0  0  0
 17  8  1  0  0  0  0
 18  7  1  0  0  0  0
 18 13  1  0  0  0  0
 19 29  1  0  0  0  0
 19 18  1  0  0  0  0
 20  5  1  0  0  0  0
 20  1  1  0  0  0  0
 21 16  1  0  0  0  0
 21  2  1  0  0  0  0
 22 20  2  0  0  0  0
 25 26  1  0  0  0  0
 26 28  1  0  0  0  0
 27 26  2  0  0  0  0
 30 36  2  0  0  0  0
 31 37  1  0  0  0  0
 31 40  1  0  0  0  0
 32 30  1  0  0  0  0
 32 35  1  0  0  0  0
 33 41  1  0  0  0  0
 36 34  1  0  0  0  0
 37 32  1  0  0  0  0
 38 35  1  0  0  0  0
 38 33  1  0  0  0  0
 40 39  2  0  0  0  0
 40 30  1  0  0  0  0
 41 29  1  0  0  0  0
 41 34  1  0  0  0  0
 42 37  2  0  0  0  0
M  END
>  <MODEL>
4

>  <REMARK>
 VINA RESULT:      -6.6      2.990      9.355
  Name = 
  4 active torsions:
  status: ('A' for Active; 'I' for Inactive)
    1  A    between atoms: C_18  and  C_22
    2  A    between atoms: N_21  and  C_22
    3  A    between atoms: C_29  and  N_34
    4  A    between atoms: C_29  and  C_39
                            x       y       z     vdW  Elec       q    Type
                         _______ _______ _______ _____ _____    ______ ____

>  <TORSDO>
F 4

$$$$
=
 OpenBabel10222419303D

 42 49  0  0  1  0  0  0  0  0999 V2000
  187.8390  177.6430  142.6690 O   0  0  0  0  0  1  0  0  0  0  0  0
  183.8560  177.9590  136.6610 C   0  0  2  0  0  3  0  0  0  0  0  0
  185.2870  178.6660  138.7740 C   0  0  2  0  0  3  0  0  0  0  0  0
  183.4790  176.7780  139.0280 C   0  0  0  0  0  2  0  0  0  0  0  0
  189.7510  177.4980  141.1120 C   0  0  0  0  0  0  0  0  0  0  0  0
  184.3020  177.6880  138.1210 C   0  0  1  0  0  0  0  0  0  0  0  0
  188.1120  178.5020  139.2080 C   0  0  0  0  0  0  0  0  0  0  0  0
  181.5690  178.6090  137.5720 C   0  0  0  0  0  2  0  0  0  0  0  0
  185.7780  177.3710  138.1520 C   0  0  1  0  0  3  0  0  0  0  0  0
  190.3720  177.6140  139.8150 C   0  0  0  0  0  3  0  0  0  0  0  0
  186.5380  177.8290  136.9090 C   0  0  2  0  0  3  0  0  0  0  0  0
  185.6540  178.5320  140.5700 S   0  0  0  0  0  0  0  0  0  0  0  0
  189.4790  178.1100  138.9150 C   0  0  0  0  0  0  0  0  0  0  0  0
  186.0400  178.2570  134.5950 O   0  0  0  0  0  1  0  0  0  0  0  0
  181.2110  177.6190  138.5840 N   0  0  0  0  0  0  0  0  0  0  0  0
  185.8590  177.3320  135.6240 C   0  0  2  0  0  3  0  0  0  0  0  0
  182.3410  177.9240  136.4490 C   0  0  0  0  0  2  0  0  0  0  0  0
  188.6270  178.6180  137.8970 C   0  0  1  0  0  3  0  0  0  0  0  0
  188.0010  177.6060  136.9830 N   0  0  0  0  0  0  0  0  0  0  0  0
  188.3470  177.8620  141.3920 C   0  0  0  0  0  0  0  0  0  0  0  0
  184.4750  177.0330  135.7790 O   0  0  0  0  0  0  0  0  0  0  0  0
  187.4650  178.4260  140.4000 C   0  0  0  0  0  0  0  0  0  0  0  0
  182.2830  177.5500  139.5720 C   0  0  0  0  0  2  0  0  0  0  0  0
  190.5840  176.9470  142.2160 C   0  0  0  0  0  1  0  0  0  0  0  0
  180.0420  178.1230  139.2890 C   0  0  0  0  0  2  0  0  0  0  0  0
  179.6680  177.2090  140.4120 C   0  0  0  0  0  0  0  0  0  0  0  0
  179.6440  177.6560  141.6650 C   0  0  0  0  0  2  0  0  0  0  0  0
  179.1980  175.8270  140.1120 C   0  0  0  0  0  1  0  0  0  0  0  0
  188.2940  176.1920  137.2970 C   0  0  0  0  0  2  0  0  0  0  0  0
  192.6790  175.0890  137.4150 C   0  0  0  0  0  0  0  0  0  0  0  0
  194.9470  175.5360  136.8800 N   0  0  0  0  0  2  0  0  0  0  0  0
  192.8270  174.8260  136.0190 N   0  0  0  0  0  0  0  0  0  0  0  0
  189.5760  175.3730  135.2840 C   0  0  0  0  0  2  0  0  0  0  0  0
  190.2290  174.6150  137.5870 C   0  0  0  0  0  2  0  0  0  0  0  0
  191.8450  174.3350  135.0600 C   0  0  0  0  0  2  0  0  0  0  0  0
  191.5610  175.0040  138.1410 C   0  0  0  0  0  3  0  0  0  0  0  0
  194.1980  175.1080  135.7400 C   0  0  0  0  0  0  0  0  0  0  0  0
  190.9380  175.4690  134.6100 C   0  0  0  0  0  2  0  0  0  0  0  0
  194.2250  175.8340  139.1140 O   0  0  0  0  0  0  0  0  0  0  0  0
  193.9760  175.5110  137.9210 C   0  0  0  0  0  0  0  0  0  0  0  0
  189.6530  175.7530  136.7580 C   0  0  2  0  0  3  0  0  0  0  0  0
  194.7070  174.9940  134.5940 O   0  0  0  0  0  0  0  0  0  0  0  0
  2 17  1  1  0  0  0
  2  6  1  0  0  0  0
  3 12  1  1  0  0  0
  4 23  1  0  0  0  0
  5 20  1  0  0  0  0
  5 24  1  0  0  0  0
  6  9  1  0  0  0  0
  6  3  1  0  0  0  0
  6  4  1  1  0  0  0
  7 22  1  0  0  0  0
  8 15  1  0  0  0  0
  9  3  1  0  0  0  0
 10  5  2  0  0  0  0
 11 19  1  0  0  0  0
 11  9  1  0  0  0  0
 13  7  2  0  0  0  0
 13 10  1  0  0  0  0
 14 16  1  0  0  0  0
 15 25  1  0  0  0  0
 15 23  1  0  0  0  0
 16 21  1  0  0  0  0
 16 11  1  0  0  0  0
 17  8  1  0  0  0  0
 18 13  1  0  0  0  0
 18  7  1  0  0  0  0
 19 29  1  0  0  0  0
 19 18  1  0  0  0  0
 20  1  1  0  0  0  0
 21  2  1  0  0  0  0
 22 12  1  0  0  0  0
 22 20  2  0  0  0  0
 25 26  1  0  0  0  0
 26 27  2  0  0  0  0
 28 26  1  0  0  0  0
 30 40  1  0  0  0  0
 30 36  2  0  0  0  0
 31 40  1  0  0  0  0
 32 30  1  0  0  0  0
 33 41  1  0  0  0  0
 34 36  1  0  0  0  0
 35 32  1  0  0  0  0
 37 32  1  0  0  0  0
 37 31  1  0  0  0  0
 38 35  1  0  0  0  0
 38 33  1  0  0  0  0
 40 39  2  0  0  0  0
 41 29  1  0  0  0  0
 41 34  1  0  0  0  0
 42 37  2  0  0  0  0
M  END
>  <MODEL>
5

>  <REMARK>
 VINA RESULT:      -6.5      2.812      8.731
  Name = 
  4 active torsions:
  status: ('A' for Active; 'I' for Inactive)
    1  A    between atoms: C_18  and  C_22
    2  A    between atoms: N_21  and  C_22
    3  A    between atoms: C_29  and  N_34
    4  A    between atoms: C_29  and  C_39
                            x       y       z     vdW  Elec       q    Type
                         _______ _______ _______ _____ _____    ______ ____

>  <TORSDO>
F 4

$$$$
=
 OpenBabel10222419303D

 42 49  0  0  1  0  0  0  0  0999 V2000
  182.0750  175.4490  135.6270 O   0  0  0  0  0  1  0  0  0  0  0  0
  188.8610  176.8220  137.6570 C   0  0  2  0  0  3  0  0  0  0  0  0
  186.5470  176.9220  136.3720 C   0  0  2  0  0  3  0  0  0  0  0  0
  187.6060  174.5820  136.9200 C   0  0  0  0  0  2  0  0  0  0  0  0
  181.4710  177.1090  137.3520 C   0  0  0  0  0  0  0  0  0  0  0  0
  187.6030  176.0950  137.1170 C   0  0  1  0  0  0  0  0  0  0  0  0
  184.0280  177.9850  137.2220 C   0  0  0  0  0  0  0  0  0  0  0  0
  190.2070  175.6630  135.8330 C   0  0  0  0  0  2  0  0  0  0  0  0
  186.3770  176.5920  137.8440 C   0  0  1  0  0  3  0  0  0  0  0  0
  181.7690  178.1740  138.2800 C   0  0  0  0  0  3  0  0  0  0  0  0
  186.5700  177.9350  138.5440 C   0  0  2  0  0  3  0  0  0  0  0  0
  185.1680  176.0750  135.5030 S   0  0  0  0  0  0  0  0  0  0  0  0
  183.0730  178.5440  138.1600 C   0  0  0  0  0  0  0  0  0  0  0  0
  188.3990  179.1910  139.4740 O   0  0  0  0  0  1  0  0  0  0  0  0
  189.7690  174.2710  135.7930 N   0  0  0  0  0  0  0  0  0  0  0  0
  187.8170  177.9220  139.4410 C   0  0  2  0  0  3  0  0  0  0  0  0
  190.1850  176.1560  137.2760 C   0  0  0  0  0  2  0  0  0  0  0  0
  184.4170  179.0040  138.1200 C   0  0  1  0  0  3  0  0  0  0  0  0
  185.3400  178.4670  139.1740 N   0  0  0  0  0  0  0  0  0  0  0  0
  182.4610  176.5190  136.4280 C   0  0  0  0  0  0  0  0  0  0  0  0
  188.7870  176.9470  139.0700 O   0  0  0  0  0  0  0  0  0  0  0  0
  183.8200  176.9900  136.3210 C   0  0  0  0  0  0  0  0  0  0  0  0
  188.3210  174.2410  135.6180 C   0  0  0  0  0  2  0  0  0  0  0  0
  180.0860  176.5640  137.3660 C   0  0  0  0  0  1  0  0  0  0  0  0
  190.3350  173.6720  134.5940 C   0  0  0  0  0  2  0  0  0  0  0  0
  191.0910  172.4270  134.9310 C   0  0  0  0  0  0  0  0  0  0  0  0
  192.2220  172.4930  135.6290 C   0  0  0  0  0  2  0  0  0  0  0  0
  190.5070  171.0980  134.5950 C   0  0  0  0  0  1  0  0  0  0  0  0
  184.7520  177.4680  140.0900 C   0  0  0  0  0  2  0  0  0  0  0  0
  186.5660  178.1500  144.1770 C   0  0  0  0  0  0  0  0  0  0  0  0
  186.6960  177.6700  146.4970 N   0  0  0  0  0  2  0  0  0  0  0  0
  185.4130  178.7400  144.7800 N   0  0  0  0  0  0  0  0  0  0  0  0
  183.5500  178.6580  141.9630 C   0  0  0  0  0  2  0  0  0  0  0  0
  186.0550  178.7620  141.8070 C   0  0  0  0  0  2  0  0  0  0  0  0
  184.3530  179.5330  144.1690 C   0  0  0  0  0  2  0  0  0  0  0  0
  186.8870  178.1410  142.8800 C   0  0  0  0  0  3  0  0  0  0  0  0
  185.5300  178.4270  146.1680 C   0  0  0  0  0  0  0  0  0  0  0  0
  183.3530  178.6240  143.4730 C   0  0  0  0  0  2  0  0  0  0  0  0
  188.4160  176.8830  145.0750 O   0  0  0  0  0  0  0  0  0  0  0  0
  187.3350  177.5120  145.2350 C   0  0  0  0  0  0  0  0  0  0  0  0
  184.8160  177.9170  141.5480 C   0  0  2  0  0  3  0  0  0  0  0  0
  184.6820  178.7820  147.0280 O   0  0  0  0  0  0  0  0  0  0  0  0
  1 20  1  0  0  0  0
  2 17  1  1  0  0  0
  2 21  1  0  0  0  0
  3 12  1  6  0  0  0
  3  6  1  0  0  0  0
  3  9  1  0  0  0  0
  5 24  1  0  0  0  0
  5 10  1  0  0  0  0
  6  4  1  6  0  0  0
  6  2  1  0  0  0  0
  6  9  1  0  0  0  0
  7 18  1  0  0  0  0
  7 13  1  0  0  0  0
  8 17  1  0  0  0  0
  9 11  1  0  0  0  0
 11 19  1  0  0  0  0
 11 16  1  0  0  0  0
 12 22  1  0  0  0  0
 13 10  2  0  0  0  0
 15  8  1  0  0  0  0
 16 14  1  0  0  0  0
 18 13  1  0  0  0  0
 18 19  1  0  0  0  0
 19 29  1  0  0  0  0
 20  5  2  0  0  0  0
 21 16  1  0  0  0  0
 22 20  1  0  0  0  0
 22  7  2  0  0  0  0
 23 15  1  0  0  0  0
 23  4  1  0  0  0  0
 25 26  1  0  0  0  0
 25 15  1  0  0  0  0
 26 27  2  0  0  0  0
 28 26  1  0  0  0  0
 29 41  1  0  0  0  0
 30 32  1  0  0  0  0
 30 40  1  0  0  0  0
 32 37  1  0  0  0  0
 33 38  1  0  0  0  0
 34 36  1  0  0  0  0
 35 32  1  0  0  0  0
 36 30  2  0  0  0  0
 37 31  1  0  0  0  0
 37 42  2  0  0  0  0
 38 35  1  0  0  0  0
 39 40  2  0  0  0  0
 40 31  1  0  0  0  0
 41 34  1  0  0  0  0
 41 33  1  0  0  0  0
M  END
>  <MODEL>
6

>  <REMARK>
 VINA RESULT:      -6.4      2.996      7.999
  Name = 
  4 active torsions:
  status: ('A' for Active; 'I' for Inactive)
    1  A    between atoms: C_18  and  C_22
    2  A    between atoms: N_21  and  C_22
    3  A    between atoms: C_29  and  N_34
    4  A    between atoms: C_29  and  C_39
                            x       y       z     vdW  Elec       q    Type
                         _______ _______ _______ _____ _____    ______ ____

>  <TORSDO>
F 4

$$$$
=
 OpenBabel10222419303D

 42 49  0  0  1  0  0  0  0  0999 V2000
  178.9310  177.0840  142.0270 O   0  0  0  0  0  1  0  0  0  0  0  0
  184.1190  176.5750  137.0390 C   0  0  2  0  0  3  0  0  0  0  0  0
  181.9890  177.3930  138.3830 C   0  0  2  0  0  3  0  0  0  0  0  0
  182.3480  174.8200  138.0010 C   0  0  0  0  0  2  0  0  0  0  0  0
  180.5450  178.5220  143.2200 C   0  0  0  0  0  0  0  0  0  0  0  0
  182.8980  176.2420  137.9340 C   0  0  1  0  0  0  0  0  0  0  0  0
  181.8270  178.8250  140.8570 C   0  0  0  0  0  0  0  0  0  0  0  0
  182.8880  175.4710  135.1020 C   0  0  0  0  0  2  0  0  0  0  0  0
  183.0810  176.8670  139.2970 C   0  0  1  0  0  3  0  0  0  0  0  0
  181.7410  179.3250  143.3080 C   0  0  0  0  0  3  0  0  0  0  0  0
  184.1060  177.9980  139.3290 C   0  0  2  0  0  3  0  0  0  0  0  0
  180.4010  177.0280  139.2330 S   0  0  0  0  0  0  0  0  0  0  0  0
  182.3300  179.4150  142.0840 C   0  0  0  0  0  0  0  0  0  0  0  0
  186.0550  178.6480  138.0780 O   0  0  0  0  0  1  0  0  0  0  0  0
  182.3010  174.2360  135.6130 N   0  0  0  0  0  0  0  0  0  0  0  0
  185.4390  177.5620  138.7020 C   0  0  2  0  0  3  0  0  0  0  0  0
  184.2330  175.7080  135.7830 C   0  0  0  0  0  2  0  0  0  0  0  0
  183.0290  179.5690  140.8560 C   0  0  1  0  0  3  0  0  0  0  0  0
  184.2140  178.6740  140.6430 N   0  0  0  0  0  0  0  0  0  0  0  0
  180.0610  177.8930  141.9740 C   0  0  0  0  0  0  0  0  0  0  0  0
  185.3200  176.4740  137.7900 O   0  0  0  0  0  0  0  0  0  0  0  0
  180.7120  178.0650  140.6990 C   0  0  0  0  0  0  0  0  0  0  0  0
  181.4810  174.5540  136.7770 C   0  0  0  0  0  2  0  0  0  0  0  0
  179.7830  178.3010  144.4800 C   0  0  0  0  0  1  0  0  0  0  0  0
  181.3870  173.7370  134.5960 C   0  0  0  0  0  2  0  0  0  0  0  0
  181.2340  172.2540  134.7060 C   0  0  0  0  0  0  0  0  0  0  0  0
  182.2950  171.4570  134.6020 C   0  0  0  0  0  2  0  0  0  0  0  0
  179.9070  171.6750  135.0590 C   0  0  0  0  0  1  0  0  0  0  0  0
  184.4720  177.6890  141.7140 C   0  0  0  0  0  2  0  0  0  0  0  0
  188.9740  178.0850  141.5590 C   0  0  0  0  0  0  0  0  0  0  0  0
  191.1490  177.1810  141.8480 N   0  0  0  0  0  2  0  0  0  0  0  0
  189.2020  178.0140  142.9680 N   0  0  0  0  0  0  0  0  0  0  0  0
  185.9250  177.8410  143.7710 C   0  0  0  0  0  2  0  0  0  0  0  0
  186.6350  178.9660  141.6410 C   0  0  0  0  0  2  0  0  0  0  0  0
  188.3400  178.4350  144.0660 C   0  0  0  0  0  2  0  0  0  0  0  0
  187.8680  178.5000  140.9370 C   0  0  0  0  0  3  0  0  0  0  0  0
  190.5130  177.4650  143.0960 C   0  0  0  0  0  0  0  0  0  0  0  0
  187.2690  177.3880  144.3250 C   0  0  0  0  0  2  0  0  0  0  0  0
  190.3290  177.4900  139.6500 O   0  0  0  0  0  0  0  0  0  0  0  0
  190.1690  177.5830  140.8970 C   0  0  0  0  0  0  0  0  0  0  0  0
  185.8980  177.7810  142.2480 C   0  0  2  0  0  3  0  0  0  0  0  0
  191.0640  177.2470  144.2070 O   0  0  0  0  0  0  0  0  0  0  0  0
  2 17  1  6  0  0  0
  2 21  1  0  0  0  0
  2  6  1  0  0  0  0
  3 12  1  1  0  0  0
  3  9  1  0  0  0  0
  5 10  1  0  0  0  0
  5 24  1  0  0  0  0
  6  4  1  6  0  0  0
  6  3  1  0  0  0  0
  6  9  1  0  0  0  0
  7 13  1  0  0  0  0
  8 15  1  0  0  0  0
  8 17  1  0  0  0  0
  9 11  1  0  0  0  0
 11 19  1  0  0  0  0
 12 22  1  0  0  0  0
 13 10  2  0  0  0  0
 14 16  1  0  0  0  0
 15 23  1  0  0  0  0
 16 11  1  0  0  0  0
 18  7  1  0  0  0  0
 18 13  1  0  0  0  0
 19 18  1  0  0  0  0
 19 29  1  0  0  0  0
 20  1  1  0  0  0  0
 20  5  2  0  0  0  0
 21 16  1  0  0  0  0
 22  7  2  0  0  0  0
 22 20  1  0  0  0  0
 23  4  1  0  0  0  0
 25 26  1  0  0  0  0
 25 15  1  0  0  0  0
 26 28  1  0  0  0  0
 27 26  2  0  0  0  0
 29 41  1  0  0  0  0
 30 32  1  0  0  0  0
 31 37  1  0  0  0  0
 32 37  1  0  0  0  0
 32 35  1  0  0  0  0
 33 38  1  0  0  0  0
 34 41  1  0  0  0  0
 35 38  1  0  0  0  0
 36 30  2  0  0  0  0
 36 34  1  0  0  0  0
 37 42  2  0  0  0  0
 39 40  2  0  0  0  0
 40 30  1  0  0  0  0
 40 31  1  0  0  0  0
 41 33  1  0  0  0  0
M  END
>  <MODEL>
7

>  <REMARK>
 VINA RESULT:      -6.3      3.504     10.195
  Name = 
  4 active torsions:
  status: ('A' for Active; 'I' for Inactive)
    1  A    between atoms: C_18  and  C_22
    2  A    between atoms: N_21  and  C_22
    3  A    between atoms: C_29  and  N_34
    4  A    between atoms: C_29  and  C_39
                            x       y       z     vdW  Elec       q    Type
                         _______ _______ _______ _____ _____    ______ ____

>  <TORSDO>
F 4

$$$$
=
 OpenBabel10222419303D

 42 49  0  0  1  0  0  0  0  0999 V2000
  187.1050  177.6290  142.8350 O   0  0  0  0  0  1  0  0  0  0  0  0
  185.4580  177.3100  135.8180 C   0  0  2  0  0  3  0  0  0  0  0  0
  186.0120  178.2390  138.2350 C   0  0  2  0  0  3  0  0  0  0  0  0
  184.3570  176.2150  137.9920 C   0  0  0  0  0  2  0  0  0  0  0  0
  189.4450  177.5780  142.0480 C   0  0  0  0  0  0  0  0  0  0  0  0
  185.3830  177.1490  137.3580 C   0  0  1  0  0  0  0  0  0  0  0  0
  188.5130  178.3430  139.6250 C   0  0  0  0  0  0  0  0  0  0  0  0
  182.9600  177.8010  135.8340 C   0  0  0  0  0  2  0  0  0  0  0  0
  186.7730  176.9640  137.9180 C   0  0  1  0  0  3  0  0  0  0  0  0
  190.4710  177.6850  141.0380 C   0  0  0  0  0  3  0  0  0  0  0  0
  187.8870  177.4270  136.9830 C   0  0  2  0  0  3  0  0  0  0  0  0
  185.7370  178.2230  140.0520 S   0  0  0  0  0  0  0  0  0  0  0  0
  189.9180  178.0590  139.8520 C   0  0  0  0  0  0  0  0  0  0  0  0
  188.2010  177.6990  134.6140 O   0  0  0  0  0  1  0  0  0  0  0  0
  182.3370  176.8330  136.7330 N   0  0  0  0  0  0  0  0  0  0  0  0
  187.7340  176.8110  135.5840 C   0  0  2  0  0  3  0  0  0  0  0  0
  184.1180  177.1330  135.1000 C   0  0  0  0  0  2  0  0  0  0  0  0
  189.4440  178.4410  138.5670 C   0  0  1  0  0  3  0  0  0  0  0  0
  189.2430  177.3360  137.5720 N   0  0  0  0  0  0  0  0  0  0  0  0
  188.0110  177.8310  141.7990 C   0  0  0  0  0  0  0  0  0  0  0  0
  186.4050  176.4010  135.2750 O   0  0  0  0  0  0  0  0  0  0  0  0
  187.4960  178.2680  140.5240 C   0  0  0  0  0  0  0  0  0  0  0  0
  182.9990  176.9050  138.0310 C   0  0  0  0  0  2  0  0  0  0  0  0
  189.8750  177.1540  143.4090 C   0  0  0  0  0  1  0  0  0  0  0  0
  180.9650  177.2660  136.9520 C   0  0  0  0  0  2  0  0  0  0  0  0
  180.1030  176.1090  137.3470 C   0  0  0  0  0  0  0  0  0  0  0  0
  179.2270  176.2300  138.3410 C   0  0  0  0  0  2  0  0  0  0  0  0
  180.1370  174.8570  136.5410 C   0  0  0  0  0  1  0  0  0  0  0  0
  189.5000  175.9700  138.0730 C   0  0  0  0  0  2  0  0  0  0  0  0
  192.2250  173.2500  135.6990 C   0  0  0  0  0  0  0  0  0  0  0  0
  193.8470  171.5220  135.5850 N   0  0  0  0  0  2  0  0  0  0  0  0
  193.4590  173.8210  136.1340 N   0  0  0  0  0  0  0  0  0  0  0  0
  192.0090  176.2350  137.9990 C   0  0  0  0  0  2  0  0  0  0  0  0
  190.7860  175.2680  136.0300 C   0  0  0  0  0  2  0  0  0  0  0  0
  193.7540  175.1920  136.5370 C   0  0  0  0  0  2  0  0  0  0  0  0
  191.0330  173.8490  135.6330 C   0  0  0  0  0  3  0  0  0  0  0  0
  194.4020  172.7530  136.0520 C   0  0  0  0  0  0  0  0  0  0  0  0
  193.2990  175.4280  137.9680 C   0  0  0  0  0  2  0  0  0  0  0  0
  191.6210  171.0350  134.9480 O   0  0  0  0  0  0  0  0  0  0  0  0
  192.4810  171.8570  135.3630 C   0  0  0  0  0  0  0  0  0  0  0  0
  190.8150  175.4020  137.5460 C   0  0  2  0  0  3  0  0  0  0  0  0
  195.6150  172.8780  136.3650 O   0  0  0  0  0  0  0  0  0  0  0  0
  2 17  1  6  0  0  0
  2  6  1  0  0  0  0
  3 12  1  1  0  0  0
  4 23  1  0  0  0  0
  5 24  1  0  0  0  0
  6  9  1  0  0  0  0
  6  4  1  1  0  0  0
  6  3  1  0  0  0  0
  7 13  2  0  0  0  0
  7 22  1  0  0  0  0
  8 15  1  0  0  0  0
  9  3  1  0  0  0  0
 10  5  2  0  0  0  0
 11 19  1  0  0  0  0
 11  9  1  0  0  0  0
 12 22  1  0  0  0  0
 13 10  1  0  0  0  0
 14 16  1  0  0  0  0
 15 25  1  0  0  0  0
 15 23  1  0  0  0  0
 16 11  1  0  0  0  0
 17  8  1  0  0  0  0
 18  7  1  0  0  0  0
 18 13  1  0  0  0  0
 19 29  1  0  0  0  0
 19 18  1  0  0  0  0
 20  5  1  0  0  0  0
 20  1  1  0  0  0  0
 21 16  1  0  0  0  0
 21  2  1  0  0  0  0
 22 20  2  0  0  0  0
 25 26  1  0  0  0  0
 26 27  2  0  0  0  0
 28 26  1  0  0  0  0
 30 32  1  0  0  0  0
 31 37  1  0  0  0  0
 32 35  1  0  0  0  0
 34 41  1  0  0  0  0
 35 38  1  0  0  0  0
 36 30  2  0  0  0  0
 36 34  1  0  0  0  0
 37 32  1  0  0  0  0
 37 42  2  0  0  0  0
 38 33  1  0  0  0  0
 39 40  2  0  0  0  0
 40 31  1  0  0  0  0
 40 30  1  0  0  0  0
 41 33  1  0  0  0  0
 41 29  1  0  0  0  0
M  END
>  <MODEL>
8

>  <REMARK>
 VINA RESULT:      -5.8      3.064      9.315
  Name = 
  4 active torsions:
  status: ('A' for Active; 'I' for Inactive)
    1  A    between atoms: C_18  and  C_22
    2  A    between atoms: N_21  and  C_22
    3  A    between atoms: C_29  and  N_34
    4  A    between atoms: C_29  and  C_39
                            x       y       z     vdW  Elec       q    Type
                         _______ _______ _______ _____ _____    ______ ____

>  <TORSDO>
F 4

$$$$
=
 OpenBabel10222419303D

 42 49  0  0  1  0  0  0  0  0999 V2000
  187.4820  177.7790  143.0230 O   0  0  0  0  0  1  0  0  0  0  0  0
  184.0170  177.8520  136.6940 C   0  0  2  0  0  3  0  0  0  0  0  0
  185.3060  178.6400  138.8690 C   0  0  2  0  0  3  0  0  0  0  0  0
  183.3930  176.8560  139.0930 C   0  0  0  0  0  2  0  0  0  0  0  0
  189.5040  177.4430  141.6450 C   0  0  0  0  0  0  0  0  0  0  0  0
  184.3300  177.6640  138.2010 C   0  0  1  0  0  0  0  0  0  0  0  0
  188.0760  178.3830  139.5480 C   0  0  0  0  0  0  0  0  0  0  0  0
  181.6990  178.6640  137.3660 C   0  0  0  0  0  2  0  0  0  0  0  0
  185.7810  177.2860  138.3760 C   0  0  1  0  0  3  0  0  0  0  0  0
  190.2320  177.4410  140.3990 C   0  0  0  0  0  3  0  0  0  0  0  0
  186.6610  177.6230  137.1750 C   0  0  2  0  0  3  0  0  0  0  0  0
  185.5200  178.6150  140.6940 S   0  0  0  0  0  0  0  0  0  0  0  0
  189.4400  177.9130  139.3980 C   0  0  0  0  0  0  0  0  0  0  0  0
  186.3730  177.9110  134.8040 O   0  0  0  0  0  1  0  0  0  0  0  0
  181.2130  177.7630  138.4070 N   0  0  0  0  0  0  0  0  0  0  0  0
  186.0650  177.0670  135.8720 C   0  0  2  0  0  3  0  0  0  0  0  0
  182.5250  177.8690  136.3580 C   0  0  0  0  0  2  0  0  0  0  0  0
  188.7000  178.3850  138.2800 C   0  0  1  0  0  3  0  0  0  0  0  0
  188.1000  177.3410  137.3850 N   0  0  0  0  0  0  0  0  0  0  0  0
  188.1010  177.8860  141.7810 C   0  0  0  0  0  0  0  0  0  0  0  0
  184.6590  176.8420  135.9300 O   0  0  0  0  0  0  0  0  0  0  0  0
  187.3320  178.4190  140.6840 C   0  0  0  0  0  0  0  0  0  0  0  0
  182.1960  177.7160  139.4830 C   0  0  0  0  0  2  0  0  0  0  0  0
  190.2170  176.9330  142.8490 C   0  0  0  0  0  1  0  0  0  0  0  0
  180.0170  178.3650  138.9760 C   0  0  0  0  0  2  0  0  0  0  0  0
  179.5550  177.5930  140.1720 C   0  0  0  0  0  0  0  0  0  0  0  0
  179.5340  178.1630  141.3740 C   0  0  0  0  0  2  0  0  0  0  0  0
  178.9970  176.2230  139.9930 C   0  0  0  0  0  1  0  0  0  0  0  0
  188.2970  175.9410  137.8150 C   0  0  0  0  0  2  0  0  0  0  0  0
  189.9510  172.7890  135.0230 C   0  0  0  0  0  0  0  0  0  0  0  0
  191.3610  170.9300  134.5940 N   0  0  0  0  0  2  0  0  0  0  0  0
  191.2850  173.2960  134.9640 N   0  0  0  0  0  0  0  0  0  0  0  0
  190.6490  175.9900  136.9010 C   0  0  0  0  0  2  0  0  0  0  0  0
  188.7990  174.9420  135.5630 C   0  0  0  0  0  2  0  0  0  0  0  0
  191.7600  174.6690  135.0850 C   0  0  0  0  0  2  0  0  0  0  0  0
  188.8340  173.4770  135.2780 C   0  0  0  0  0  3  0  0  0  0  0  0
  192.0970  172.1500  134.7080 C   0  0  0  0  0  0  0  0  0  0  0  0
  191.8170  175.0780  136.5480 C   0  0  0  0  0  2  0  0  0  0  0  0
  189.0300  170.5710  134.7760 O   0  0  0  0  0  0  0  0  0  0  0  0
  190.0160  171.3550  134.7890 C   0  0  0  0  0  0  0  0  0  0  0  0
  189.3350  175.2180  136.9600 C   0  0  2  0  0  3  0  0  0  0  0  0
  193.3500  172.2040  134.5940 O   0  0  0  0  0  0  0  0  0  0  0  0
  2 17  1  1  0  0  0
  2  6  1  0  0  0  0
  3 12  1  1  0  0  0
  4 23  1  0  0  0  0
  5 20  1  0  0  0  0
  5 24  1  0  0  0  0
  6  9  1  0  0  0  0
  6  3  1  0  0  0  0
  6  4  1  1  0  0  0
  7 22  1  0  0  0  0
  8 15  1  0  0  0  0
  9  3  1  0  0  0  0
 10  5  2  0  0  0  0
 11 19  1  0  0  0  0
 11  9  1  0  0  0  0
 13  7  2  0  0  0  0
 13 10  1  0  0  0  0
 14 16  1  0  0  0  0
 15 25  1  0  0  0  0
 15 23  1  0  0  0  0
 16 21  1  0  0  0  0
 16 11  1  0  0  0  0
 17  8  1  0  0  0  0
 18 13  1  0  0  0  0
 18  7  1  0  0  0  0
 19 29  1  0  0  0  0
 19 18  1  0  0  0  0
 20  1  1  0  0  0  0
 21  2  1  0  0  0  0
 22 12  1  0  0  0  0
 22 20  2  0  0  0  0
 25 26  1  0  0  0  0
 26 27  2  0  0  0  0
 28 26  1  0  0  0  0
 30 36  2  0  0  0  0
 31 37  1  0  0  0  0
 31 40  1  0  0  0  0
 32 30  1  0  0  0  0
 32 35  1  0  0  0  0
 33 41  1  0  0  0  0
 34 41  1  0  0  0  0
 35 38  1  0  0  0  0
 36 34  1  0  0  0  0
 37 32  1  0  0  0  0
 38 33  1  0  0  0  0
 39 40  2  0  0  0  0
 40 30  1  0  0  0  0
 41 29  1  0  0  0  0
 42 37  2  0  0  0  0
M  END
>  <MODEL>
9

>  <REMARK>
 VINA RESULT:      -5.7      3.075      8.511
  Name = 
  4 active torsions:
  status: ('A' for Active; 'I' for Inactive)
    1  A    between atoms: C_18  and  C_22
    2  A    between atoms: N_21  and  C_22
    3  A    between atoms: C_29  and  N_34
    4  A    between atoms: C_29  and  C_39
                            x       y       z     vdW  Elec       q    Type
                         _______ _______ _______ _____ _____    ______ ____

>  <TORSDO>
F 4

$$$$
