=
 OpenBabel10222417173D

 56 61  0  0  1  0  0  0  0  0999 V2000
  187.5990  178.4730  145.3880 C   0  0  0  0  0  2  0  0  0  0  0  0
  186.6970  177.5690  146.2390 C   0  0  1  0  0  3  0  0  0  0  0  0
  189.1820  178.0970  142.6380 C   0  0  0  0  0  3  0  0  0  0  0  0
  191.3530  177.2930  141.8330 C   0  0  0  0  0  0  0  0  0  0  0  0
  189.7910  177.2670  146.0760 C   0  0  0  0  0  0  0  0  0  0  0  0
  188.4910  177.9960  148.0920 C   0  0  0  0  0  2  0  0  0  0  0  0
  191.7190  176.9280  143.1410 C   0  0  0  0  0  3  0  0  0  0  0  0
  190.0840  177.8750  141.5760 C   0  0  0  0  0  0  0  0  0  0  0  0
  189.5830  177.7410  143.9240 C   0  0  0  0  0  0  0  0  0  0  0  0
  190.9350  176.8660  145.4720 N   0  0  0  0  0  0  0  0  0  0  0  0
  189.4720  176.9840  147.5170 C   0  0  0  0  0  2  0  0  0  0  0  0
  187.0410  177.6400  147.7470 C   0  0  0  0  0  2  0  0  0  0  0  0
  188.9230  177.8220  145.1330 C   0  0  0  0  0  0  0  0  0  0  0  0
  190.8030  177.1640  144.1660 C   0  0  0  0  0  0  0  0  0  0  0  0
  192.2800  177.0710  140.7690 N   0  0  0  0  0  1  0  0  0  0  0  0
  185.2160  177.9310  146.0260 C   0  0  1  0  0  3  0  0  0  0  0  0
  184.6340  178.3400  147.2330 O   0  0  0  0  0  1  0  0  0  0  0  0
  182.5250  178.4730  141.0100 C   0  0  0  0  0  2  0  0  0  0  0  0
  185.3940  178.5680  143.5690 C   0  0  0  0  0  2  0  0  0  0  0  0
  183.6450  179.4380  144.9660 O   0  0  0  0  0  0  0  0  0  0  0  0
  181.8530  179.4710  143.2740 C   0  0  0  0  0  2  0  0  0  0  0  0
  184.1960  178.9430  142.7660 C   0  0  2  0  0  3  0  0  0  0  0  0
  185.0080  179.0380  144.9760 C   0  0  1  0  0  3  0  0  0  0  0  0
  183.1320  178.8500  143.8050 C   0  0  1  0  0  3  0  0  0  0  0  0
  183.8400  177.9890  141.6420 C   0  0  0  0  0  2  0  0  0  0  0  0
  181.3980  178.6270  142.0610 C   0  0  1  0  0  3  0  0  0  0  0  0
  179.4080  180.1220  142.3730 C   0  0  0  0  0  1  0  0  0  0  0  0
  180.0750  179.1210  141.4480 C   0  0  0  0  0  0  0  0  0  0  0  0
  180.3410  179.8240  140.1270 C   0  0  0  0  0  1  0  0  0  0  0  0
  179.1180  177.9670  141.2040 C   0  0  0  0  0  1  0  0  0  0  0  0
  192.0530  176.1660  146.0960 C   0  0  0  0  0  2  0  0  0  0  0  0
  192.8520  176.2440  148.3360 O   0  0  0  0  0  1  0  0  0  0  0  0
  191.7470  175.8960  147.5570 C   0  0  0  0  0  2  0  0  0  0  0  0
  189.6610  178.1380  140.1630 C   0  0  0  0  0  2  0  0  0  0  0  0
  188.1580  177.9820  139.9720 C   0  0  0  0  0  2  0  0  0  0  0  0
  187.8320  177.4470  138.5830 C   0  0  1  0  0  3  0  0  0  0  0  0
  186.5330  178.0200  138.0610 C   0  0  0  0  0  0  0  0  0  0  0  0
  185.9980  178.9310  138.6700 O   0  0  0  0  0  0  0  0  0  0  0  0
  185.8450  177.4480  136.8550 C   0  0  0  0  0  2  0  0  0  0  0  0
  184.5460  176.7530  137.2320 C   0  0  2  0  0  3  0  0  0  0  0  0
  183.0580  173.1510  136.8940 C   0  0  0  0  0  2  0  0  0  0  0  0
  184.6550  175.3590  136.8810 N   0  0  0  0  0  0  0  0  0  0  0  0
  183.6720  174.5450  137.0030 C   0  0  0  0  0  0  0  0  0  0  0  0
  182.2270  174.2080  137.3720 C   0  0  0  0  0  2  0  0  0  0  0  0
  183.4350  177.3630  136.5120 N   0  0  0  0  0  2  0  0  0  0  0  0
  182.6690  178.0620  137.4570 N   0  0  0  0  0  1  0  0  0  0  0  0
  189.0040  177.7570  137.6620 C   0  0  0  0  0  2  0  0  0  0  0  0
  189.5540  176.4840  137.0420 C   0  0  1  0  0  3  0  0  0  0  0  0
  188.9470  176.2160  135.6960 C   0  0  0  0  0  0  0  0  0  0  0  0
  188.7800  177.2370  134.7720 O   0  0  0  0  0  0  0  0  0  0  0  0
  188.5940  175.0490  135.3880 O   0  0  0  0  0  1  0  0  0  0  0  0
  191.0630  176.6200  136.9250 C   0  0  0  0  0  2  0  0  0  0  0  0
  191.7500  175.6480  137.8680 C   0  0  1  0  0  3  0  0  0  0  0  0
  191.0900  174.4190  137.8380 O   0  0  0  0  0  1  0  0  0  0  0  0
  194.0780  175.6470  138.2310 O   0  0  0  0  0  0  0  0  0  0  0  0
  193.1660  175.4520  137.4420 C   0  0  0  0  0  3  0  0  0  0  0  0
  1  2  1  0  0  0  0
  2 16  1  1  0  0  0
  2 12  1  0  0  0  0
  3  9  1  0  0  0  0
  4  7  2  0  0  0  0
  5 11  1  0  0  0  0
  7 14  1  0  0  0  0
  8  4  1  0  0  0  0
  8  3  2  0  0  0  0
  9 14  2  0  0  0  0
  9 13  1  0  0  0  0
 10  5  1  0  0  0  0
 10 31  1  0  0  0  0
 11  6  1  0  0  0  0
 12  6  1  0  0  0  0
 13  1  1  0  0  0  0
 13  5  2  0  0  0  0
 14 10  1  0  0  0  0
 15  4  1  0  0  0  0
 16 17  1  1  0  0  0
 18 25  1  0  0  0  0
 18 26  1  0  0  0  0
 19 23  1  0  0  0  0
 20 23  1  0  0  0  0
 22 25  1  6  0  0  0
 22 19  1  0  0  0  0
 22 24  1  0  0  0  0
 23 16  1  1  0  0  0
 24 21  1  6  0  0  0
 24 20  1  0  0  0  0
 26 28  1  6  0  0  0
 26 21  1  0  0  0  0
 28 27  1  0  0  0  0
 29 28  1  0  0  0  0
 30 28  1  0  0  0  0
 31 33  1  0  0  0  0
 33 32  1  0  0  0  0
 34  8  1  0  0  0  0
 35 34  1  0  0  0  0
 36 47  1  6  0  0  0
 36 35  1  0  0  0  0
 37 36  1  0  0  0  0
 37 38  2  0  0  0  0
 39 37  1  0  0  0  0
 40 39  1  6  0  0  0
 41 43  1  0  0  0  0
 41 44  1  0  0  0  0
 42 43  2  0  0  0  0
 42 40  1  0  0  0  0
 43 44  1  0  0  0  0
 45 40  1  0  0  0  0
 45 46  1  0  0  0  0
 48 52  1  6  0  0  0
 48 47  1  0  0  0  0
 49 48  1  0  0  0  0
 50 49  2  0  0  0  0
 51 49  1  0  0  0  0
 52 53  1  0  0  0  0
 53 54  1  6  0  0  0
 56 53  1  0  0  0  0
 56 55  2  0  0  0  0
M  END
>  <MODEL>
1

>  <REMARK>
 VINA RESULT:      -9.1      0.000      0.000
  Name = 
  19 active torsions:
  status: ('A' for Active; 'I' for Inactive)
    1  A    between atoms: C_4  and  C_28
    2  A    between atoms: C_4  and  C_46
    3  A    between atoms: C_6  and  C_15
    4  A    between atoms: C_6  and  C_39
    5  A    between atoms: C_10  and  C_23
    6  A    between atoms: C_10  and  C_28
    7  A    between atoms: C_11  and  C_50
    8  A    between atoms: N_13  and  C_40
    9  A    between atoms: C_14  and  C_36
   10  A    between atoms: C_14  and  C_46
   11  A    between atoms: C_16  and  C_36
   12  A    between atoms: C_17  and  C_53
   13  A    between atoms: C_19  and  C_30
   14  A    between atoms: C_19  and  C_56
   15  A    between atoms: C_23  and  C_40
   16  A    between atoms: N_24  and  C_40
   17  A    between atoms: C_28  and  C_56
   18  A    between atoms: N_32  and  C_50
   19  A    between atoms: C_37  and  C_46
                            x       y       z     vdW  Elec       q    Type
                         _______ _______ _______ _____ _____    ______ ____

>  <TORSDO>
F 19

$$$$
=
 OpenBabel10222417173D

 56 61  0  0  1  0  0  0  0  0999 V2000
  184.1770  178.2680  138.7300 C   0  0  0  0  0  2  0  0  0  0  0  0
  183.7780  177.1310  137.7800 C   0  0  1  0  0  3  0  0  0  0  0  0
  184.7690  178.4590  141.8640 C   0  0  0  0  0  3  0  0  0  0  0  0
  183.5640  178.8080  143.9700 C   0  0  0  0  0  0  0  0  0  0  0  0
  181.8260  178.4550  139.8110 C   0  0  0  0  0  0  0  0  0  0  0  0
  181.6870  178.6270  137.3130 C   0  0  0  0  0  2  0  0  0  0  0  0
  182.3380  178.8340  143.2810 C   0  0  0  0  0  3  0  0  0  0  0  0
  184.7820  178.6180  143.2660 C   0  0  0  0  0  0  0  0  0  0  0  0
  183.5400  178.5080  141.2110 C   0  0  0  0  0  0  0  0  0  0  0  0
  181.3140  178.6370  141.0530 N   0  0  0  0  0  0  0  0  0  0  0  0
  180.9770  178.2110  138.5940 C   0  0  0  0  0  2  0  0  0  0  0  0
  182.6400  177.5380  136.8130 C   0  0  0  0  0  2  0  0  0  0  0  0
  183.2180  178.3710  139.8760 C   0  0  0  0  0  0  0  0  0  0  0  0
  182.3640  178.6760  141.8950 C   0  0  0  0  0  0  0  0  0  0  0  0
  183.5620  178.9790  145.3880 N   0  0  0  0  0  1  0  0  0  0  0  0
  184.9990  176.6480  136.9750 C   0  0  1  0  0  3  0  0  0  0  0  0
  185.8880  177.7080  136.7540 O   0  0  0  0  0  1  0  0  0  0  0  0
  188.7310  172.6070  135.4170 C   0  0  0  0  0  2  0  0  0  0  0  0
  185.5570  174.1660  136.9280 C   0  0  0  0  0  2  0  0  0  0  0  0
  187.1490  175.7940  137.6900 O   0  0  0  0  0  0  0  0  0  0  0  0
  189.1800  174.7140  136.8060 C   0  0  0  0  0  2  0  0  0  0  0  0
  186.9550  173.6790  136.7550 C   0  0  2  0  0  3  0  0  0  0  0  0
  185.7600  175.4980  137.6590 C   0  0  1  0  0  3  0  0  0  0  0  0
  187.6890  174.9740  136.6940 C   0  0  1  0  0  3  0  0  0  0  0  0
  187.2280  172.9230  135.4700 C   0  0  0  0  0  2  0  0  0  0  0  0
  189.5980  173.8810  135.5730 C   0  0  1  0  0  3  0  0  0  0  0  0
  191.8110  174.5470  134.5980 C   0  0  0  0  0  1  0  0  0  0  0  0
  191.1080  173.5820  135.5340 C   0  0  0  0  0  0  0  0  0  0  0  0
  191.7130  173.7610  136.9160 C   0  0  0  0  0  1  0  0  0  0  0  0
  191.3750  172.1620  135.0630 C   0  0  0  0  0  1  0  0  0  0  0  0
  179.9030  178.6910  141.4170 C   0  0  0  0  0  2  0  0  0  0  0  0
  179.7160  181.0100  141.9140 O   0  0  0  0  0  1  0  0  0  0  0  0
  179.3120  180.0270  141.0080 C   0  0  0  0  0  2  0  0  0  0  0  0
  186.0630  178.4640  144.0270 C   0  0  0  0  0  2  0  0  0  0  0  0
  186.5460  177.0200  144.0600 C   0  0  0  0  0  2  0  0  0  0  0  0
  187.9970  176.9350  144.5180 C   0  0  1  0  0  3  0  0  0  0  0  0
  188.9270  176.6500  143.3590 C   0  0  0  0  0  0  0  0  0  0  0  0
  189.3850  175.5280  143.2270 O   0  0  0  0  0  0  0  0  0  0  0  0
  189.3590  177.7300  142.4100 C   0  0  0  0  0  2  0  0  0  0  0  0
  188.7650  177.5250  141.0250 C   0  0  2  0  0  3  0  0  0  0  0  0
  192.5680  177.3300  140.1300 C   0  0  0  0  0  2  0  0  0  0  0  0
  189.8430  177.2970  140.0950 N   0  0  0  0  0  0  0  0  0  0  0  0
  191.0740  177.3870  140.4430 C   0  0  0  0  0  0  0  0  0  0  0  0
  192.1800  177.6380  141.4670 C   0  0  0  0  0  2  0  0  0  0  0  0
  188.0100  178.7100  140.6340 N   0  0  0  0  0  2  0  0  0  0  0  0
  187.9010  178.6830  139.2360 N   0  0  0  0  0  1  0  0  0  0  0  0
  188.3530  178.2310  145.2310 C   0  0  0  0  0  2  0  0  0  0  0  0
  188.9070  177.9500  146.6170 C   0  0  1  0  0  3  0  0  0  0  0  0
  187.8380  178.0160  147.6660 C   0  0  0  0  0  0  0  0  0  0  0  0
  186.4960  178.0430  147.3180 O   0  0  0  0  0  0  0  0  0  0  0  0
  188.1540  178.0340  148.8840 O   0  0  0  0  0  1  0  0  0  0  0  0
  189.5530  176.5730  146.6040 C   0  0  0  0  0  2  0  0  0  0  0  0
  191.0460  176.6950  146.8530 C   0  0  1  0  0  3  0  0  0  0  0  0
  191.4860  175.6100  147.6130 O   0  0  0  0  0  1  0  0  0  0  0  0
  191.8830  177.7420  144.9160 O   0  0  0  0  0  0  0  0  0  0  0  0
  191.7720  176.7040  145.5500 C   0  0  0  0  0  3  0  0  0  0  0  0
  1 13  1  0  0  0  0
  2 16  1  6  0  0  0
  2  1  1  0  0  0  0
  3  8  1  0  0  0  0
  4 15  1  0  0  0  0
  5 13  2  0  0  0  0
  5 10  1  0  0  0  0
  6 11  1  0  0  0  0
  7  4  1  0  0  0  0
  8  4  2  0  0  0  0
  8 34  1  0  0  0  0
  9  3  2  0  0  0  0
  9 14  1  0  0  0  0
 10 31  1  0  0  0  0
 10 14  1  0  0  0  0
 11  5  1  0  0  0  0
 12  6  1  0  0  0  0
 12  2  1  0  0  0  0
 13  9  1  0  0  0  0
 14  7  2  0  0  0  0
 16 17  1  1  0  0  0
 18 25  1  0  0  0  0
 18 26  1  0  0  0  0
 19 23  1  0  0  0  0
 22 25  1  6  0  0  0
 22 19  1  0  0  0  0
 23 16  1  6  0  0  0
 23 20  1  0  0  0  0
 24 22  1  0  0  0  0
 24 21  1  1  0  0  0
 24 20  1  0  0  0  0
 26 28  1  1  0  0  0
 26 21  1  0  0  0  0
 27 28  1  0  0  0  0
 28 29  1  0  0  0  0
 30 28  1  0  0  0  0
 33 31  1  0  0  0  0
 33 32  1  0  0  0  0
 34 35  1  0  0  0  0
 36 35  1  6  0  0  0
 36 47  1  0  0  0  0
 37 36  1  0  0  0  0
 38 37  2  0  0  0  0
 39 37  1  0  0  0  0
 40 39  1  1  0  0  0
 41 43  1  0  0  0  0
 41 44  1  0  0  0  0
 42 43  2  0  0  0  0
 42 40  1  0  0  0  0
 43 44  1  0  0  0  0
 45 40  1  0  0  0  0
 46 45  1  0  0  0  0
 48 47  1  6  0  0  0
 48 49  1  0  0  0  0
 49 51  1  0  0  0  0
 50 49  2  0  0  0  0
 52 48  1  0  0  0  0
 52 53  1  0  0  0  0
 53 54  1  1  0  0  0
 55 56  2  0  0  0  0
 56 53  1  0  0  0  0
M  END
>  <MODEL>
2

>  <REMARK>
 VINA RESULT:      -8.9      2.668      9.892
  Name = 
  19 active torsions:
  status: ('A' for Active; 'I' for Inactive)
    1  A    between atoms: C_4  and  C_28
    2  A    between atoms: C_4  and  C_46
    3  A    between atoms: C_6  and  C_15
    4  A    between atoms: C_6  and  C_39
    5  A    between atoms: C_10  and  C_23
    6  A    between atoms: C_10  and  C_28
    7  A    between atoms: C_11  and  C_50
    8  A    between atoms: N_13  and  C_40
    9  A    between atoms: C_14  and  C_36
   10  A    between atoms: C_14  and  C_46
   11  A    between atoms: C_16  and  C_36
   12  A    between atoms: C_17  and  C_53
   13  A    between atoms: C_19  and  C_30
   14  A    between atoms: C_19  and  C_56
   15  A    between atoms: C_23  and  C_40
   16  A    between atoms: N_24  and  C_40
   17  A    between atoms: C_28  and  C_56
   18  A    between atoms: N_32  and  C_50
   19  A    between atoms: C_37  and  C_46
                            x       y       z     vdW  Elec       q    Type
                         _______ _______ _______ _____ _____    ______ ____

>  <TORSDO>
F 19

$$$$
=
 OpenBabel10222417173D

 56 61  0  0  1  0  0  0  0  0999 V2000
  184.1890  177.4330  137.4220 C   0  0  0  0  0  2  0  0  0  0  0  0
  184.2010  176.0850  136.6900 C   0  0  1  0  0  3  0  0  0  0  0  0
  184.2430  178.3090  140.4940 C   0  0  0  0  0  3  0  0  0  0  0  0
  182.6850  178.7130  142.3440 C   0  0  0  0  0  0  0  0  0  0  0  0
  181.7190  177.2190  138.1870 C   0  0  0  0  0  0  0  0  0  0  0  0
  181.9250  176.9130  135.7070 C   0  0  0  0  0  2  0  0  0  0  0  0
  181.6030  178.3140  141.5390 C   0  0  0  0  0  3  0  0  0  0  0  0
  184.0070  178.7090  141.8270 C   0  0  0  0  0  0  0  0  0  0  0  0
  183.1460  177.9390  139.7190 C   0  0  0  0  0  0  0  0  0  0  0  0
  180.9980  177.4840  139.3040 N   0  0  0  0  0  0  0  0  0  0  0  0
  181.1400  176.5640  136.9640 C   0  0  0  0  0  2  0  0  0  0  0  0
  183.1620  176.0220  135.5460 C   0  0  0  0  0  2  0  0  0  0  0  0
  183.0700  177.4950  138.4140 C   0  0  0  0  0  0  0  0  0  0  0  0
  181.8730  177.9270  140.2270 C   0  0  0  0  0  0  0  0  0  0  0  0
  182.4310  179.1230  143.6880 N   0  0  0  0  0  1  0  0  0  0  0  0
  185.6060  175.7860  136.1350 C   0  0  1  0  0  3  0  0  0  0  0  0
  186.2760  176.9790  135.8330 O   0  0  0  0  0  1  0  0  0  0  0  0
  190.8260  173.4540  136.0900 C   0  0  0  0  0  2  0  0  0  0  0  0
  187.0040  173.6810  136.4400 C   0  0  0  0  0  2  0  0  0  0  0  0
  187.5820  175.7400  137.5330 O   0  0  0  0  0  0  0  0  0  0  0  0
  190.0330  175.5130  137.3930 C   0  0  0  0  0  2  0  0  0  0  0  0
  188.4620  173.7440  136.7390 C   0  0  2  0  0  3  0  0  0  0  0  0
  186.4770  174.9610  137.1000 C   0  0  1  0  0  3  0  0  0  0  0  0
  188.6620  175.2180  136.8120 C   0  0  1  0  0  3  0  0  0  0  0  0
  189.3740  173.1990  135.6570 C   0  0  0  0  0  2  0  0  0  0  0  0
  191.0830  174.9470  136.4110 C   0  0  1  0  0  3  0  0  0  0  0  0
  193.1840  173.9370  137.3370 C   0  0  0  0  0  1  0  0  0  0  0  0
  192.5310  175.2200  136.8570 C   0  0  0  0  0  0  0  0  0  0  0  0
  193.3500  175.7410  135.6880 C   0  0  0  0  0  1  0  0  0  0  0  0
  192.5770  176.2420  137.9810 C   0  0  0  0  0  1  0  0  0  0  0  0
  179.5720  177.2500  139.4980 C   0  0  0  0  0  2  0  0  0  0  0  0
  179.9780  174.9370  139.8790 O   0  0  0  0  0  1  0  0  0  0  0  0
  179.3610  176.0650  140.4220 C   0  0  0  0  0  2  0  0  0  0  0  0
  185.1600  179.0130  142.7350 C   0  0  0  0  0  2  0  0  0  0  0  0
  185.8180  177.7500  143.2740 C   0  0  0  0  0  2  0  0  0  0  0  0
  187.0970  178.0770  144.0360 C   0  0  1  0  0  3  0  0  0  0  0  0
  186.9220  177.8730  145.5240 C   0  0  0  0  0  0  0  0  0  0  0  0
  186.0350  178.4740  146.1060 O   0  0  0  0  0  0  0  0  0  0  0  0
  187.8590  177.0100  146.3180 C   0  0  0  0  0  2  0  0  0  0  0  0
  188.9080  177.8420  147.0400 C   0  0  2  0  0  3  0  0  0  0  0  0
  192.1610  175.6720  147.1400 C   0  0  0  0  0  2  0  0  0  0  0  0
  189.8200  176.9470  147.7080 N   0  0  0  0  0  0  0  0  0  0  0  0
  190.8870  176.5140  147.1430 C   0  0  0  0  0  0  0  0  0  0  0  0
  191.8610  176.4280  145.9690 C   0  0  0  0  0  2  0  0  0  0  0  0
  188.2600  178.7130  148.0140 N   0  0  0  0  0  2  0  0  0  0  0  0
  188.0680  177.9540  149.1780 N   0  0  0  0  0  1  0  0  0  0  0  0
  188.2240  177.2230  143.4700 C   0  0  0  0  0  2  0  0  0  0  0  0
  189.1150  178.0440  142.5540 C   0  0  1  0  0  3  0  0  0  0  0  0
  190.4670  178.2770  143.1590 C   0  0  0  0  0  0  0  0  0  0  0  0
  191.5770  177.5680  142.7240 O   0  0  0  0  0  0  0  0  0  0  0  0
  190.6080  179.1360  144.0670 O   0  0  0  0  0  1  0  0  0  0  0  0
  189.2470  177.3100  141.2290 C   0  0  0  0  0  2  0  0  0  0  0  0
  188.4120  178.0000  140.1640 C   0  0  1  0  0  3  0  0  0  0  0  0
  187.7840  179.1190  140.7120 O   0  0  0  0  0  1  0  0  0  0  0  0
  188.8950  179.2600  138.2320 O   0  0  0  0  0  0  0  0  0  0  0  0
  189.2920  178.4350  139.0410 C   0  0  0  0  0  3  0  0  0  0  0  0
  1 13  1  0  0  0  0
  2 16  1  6  0  0  0
  2  1  1  0  0  0  0
  3  8  1  0  0  0  0
  4 15  1  0  0  0  0
  5 13  2  0  0  0  0
  5 10  1  0  0  0  0
  6 11  1  0  0  0  0
  7  4  1  0  0  0  0
  8  4  2  0  0  0  0
  8 34  1  0  0  0  0
  9 14  1  0  0  0  0
  9  3  2  0  0  0  0
 10 31  1  0  0  0  0
 10 14  1  0  0  0  0
 11  5  1  0  0  0  0
 12  6  1  0  0  0  0
 12  2  1  0  0  0  0
 13  9  1  0  0  0  0
 14  7  2  0  0  0  0
 16 17  1  1  0  0  0
 18 26  1  0  0  0  0
 19 22  1  0  0  0  0
 19 23  1  0  0  0  0
 22 25  1  6  0  0  0
 22 24  1  0  0  0  0
 23 16  1  6  0  0  0
 23 20  1  0  0  0  0
 24 21  1  1  0  0  0
 24 20  1  0  0  0  0
 25 18  1  0  0  0  0
 26 28  1  1  0  0  0
 26 21  1  0  0  0  0
 28 27  1  0  0  0  0
 28 30  1  0  0  0  0
 29 28  1  0  0  0  0
 31 33  1  0  0  0  0
 32 33  1  0  0  0  0
 34 35  1  0  0  0  0
 36 35  1  6  0  0  0
 36 37  1  0  0  0  0
 37 38  2  0  0  0  0
 37 39  1  0  0  0  0
 40 39  1  1  0  0  0
 40 42  1  0  0  0  0
 40 45  1  0  0  0  0
 41 43  1  0  0  0  0
 43 42  2  0  0  0  0
 44 41  1  0  0  0  0
 44 43  1  0  0  0  0
 45 46  1  0  0  0  0
 47 36  1  0  0  0  0
 48 52  1  6  0  0  0
 48 49  1  0  0  0  0
 48 47  1  0  0  0  0
 49 51  1  0  0  0  0
 50 49  2  0  0  0  0
 53 54  1  1  0  0  0
 53 52  1  0  0  0  0
 55 56  2  0  0  0  0
 56 53  1  0  0  0  0
M  END
>  <MODEL>
3

>  <REMARK>
 VINA RESULT:      -8.7      2.567     10.375
  Name = 
  19 active torsions:
  status: ('A' for Active; 'I' for Inactive)
    1  A    between atoms: C_4  and  C_28
    2  A    between atoms: C_4  and  C_46
    3  A    between atoms: C_6  and  C_15
    4  A    between atoms: C_6  and  C_39
    5  A    between atoms: C_10  and  C_23
    6  A    between atoms: C_10  and  C_28
    7  A    between atoms: C_11  and  C_50
    8  A    between atoms: N_13  and  C_40
    9  A    between atoms: C_14  and  C_36
   10  A    between atoms: C_14  and  C_46
   11  A    between atoms: C_16  and  C_36
   12  A    between atoms: C_17  and  C_53
   13  A    between atoms: C_19  and  C_30
   14  A    between atoms: C_19  and  C_56
   15  A    between atoms: C_23  and  C_40
   16  A    between atoms: N_24  and  C_40
   17  A    between atoms: C_28  and  C_56
   18  A    between atoms: N_32  and  C_50
   19  A    between atoms: C_37  and  C_46
                            x       y       z     vdW  Elec       q    Type
                         _______ _______ _______ _____ _____    ______ ____

>  <TORSDO>
F 19

$$$$
=
 OpenBabel10222417173D

 56 61  0  0  1  0  0  0  0  0999 V2000
  187.5150  178.4440  145.3290 C   0  0  0  0  0  2  0  0  0  0  0  0
  186.6150  177.5440  146.1850 C   0  0  1  0  0  3  0  0  0  0  0  0
  189.1450  178.0360  142.6110 C   0  0  0  0  0  3  0  0  0  0  0  0
  191.3410  177.2520  141.8550 C   0  0  0  0  0  0  0  0  0  0  0  0
  189.7150  177.2890  146.0740 C   0  0  0  0  0  0  0  0  0  0  0  0
  188.3730  178.0390  148.0550 C   0  0  0  0  0  2  0  0  0  0  0  0
  191.6930  176.9200  143.1760 C   0  0  0  0  0  3  0  0  0  0  0  0
  190.0670  177.8070  141.5670 C   0  0  0  0  0  0  0  0  0  0  0  0
  189.5330  177.7140  143.9100 C   0  0  0  0  0  0  0  0  0  0  0  0
  190.8750  176.8940  145.4960 N   0  0  0  0  0  0  0  0  0  0  0  0
  189.3790  177.0310  147.5170 C   0  0  0  0  0  2  0  0  0  0  0  0
  186.9350  177.6520  147.6960 C   0  0  0  0  0  2  0  0  0  0  0  0
  188.8520  177.8090  145.1070 C   0  0  0  0  0  0  0  0  0  0  0  0
  190.7570  177.1620  144.1820 C   0  0  0  0  0  0  0  0  0  0  0  0
  192.2870  177.0220  140.8110 N   0  0  0  0  0  1  0  0  0  0  0  0
  185.1310  177.8770  145.9420 C   0  0  1  0  0  3  0  0  0  0  0  0
  184.5220  178.2910  147.1340 O   0  0  0  0  0  1  0  0  0  0  0  0
  182.2480  178.4140  141.0350 C   0  0  0  0  0  2  0  0  0  0  0  0
  185.2280  178.4500  143.4650 C   0  0  0  0  0  2  0  0  0  0  0  0
  183.5780  179.4230  144.9130 O   0  0  0  0  0  0  0  0  0  0  0  0
  181.7160  179.4900  143.2990 C   0  0  0  0  0  2  0  0  0  0  0  0
  184.0110  178.8550  142.7050 C   0  0  2  0  0  3  0  0  0  0  0  0
  184.9220  178.9670  144.8750 C   0  0  1  0  0  3  0  0  0  0  0  0
  182.9910  178.8290  143.7900 C   0  0  1  0  0  3  0  0  0  0  0  0
  183.5680  177.8910  141.6210 C   0  0  0  0  0  2  0  0  0  0  0  0
  181.1750  178.6380  142.1290 C   0  0  1  0  0  3  0  0  0  0  0  0
  179.1230  178.0780  140.7990 C   0  0  0  0  0  1  0  0  0  0  0  0
  179.8470  179.1720  141.5610 C   0  0  0  0  0  0  0  0  0  0  0  0
  178.9380  179.6230  142.6910 C   0  0  0  0  0  1  0  0  0  0  0  0
  180.0830  180.3460  140.6240 C   0  0  0  0  0  1  0  0  0  0  0  0
  191.9940  176.2260  146.1510 C   0  0  0  0  0  2  0  0  0  0  0  0
  193.0310  176.0520  148.2860 O   0  0  0  0  0  1  0  0  0  0  0  0
  191.7990  176.2400  147.6560 C   0  0  0  0  0  2  0  0  0  0  0  0
  189.6610  178.0340  140.1430 C   0  0  0  0  0  2  0  0  0  0  0  0
  189.6360  176.7420  139.3370 C   0  0  0  0  0  2  0  0  0  0  0  0
  189.3560  177.0170  137.8650 C   0  0  1  0  0  3  0  0  0  0  0  0
  190.5450  176.6620  137.0000 C   0  0  0  0  0  0  0  0  0  0  0  0
  190.4020  176.5990  135.7900 O   0  0  0  0  0  0  0  0  0  0  0  0
  191.8780  176.3110  137.5940 C   0  0  0  0  0  2  0  0  0  0  0  0
  192.8850  175.9340  136.5190 C   0  0  2  0  0  3  0  0  0  0  0  0
  192.1630  172.2210  135.5200 C   0  0  0  0  0  2  0  0  0  0  0  0
  193.1430  174.5190  136.6120 N   0  0  0  0  0  0  0  0  0  0  0  0
  192.4810  173.6580  135.9280 C   0  0  0  0  0  0  0  0  0  0  0  0
  191.4090  173.2680  134.9120 C   0  0  0  0  0  2  0  0  0  0  0  0
  194.1210  176.6810  136.7190 N   0  0  0  0  0  2  0  0  0  0  0  0
  195.1780  175.8240  136.3770 N   0  0  0  0  0  1  0  0  0  0  0  0
  188.1060  176.2460  137.4620 C   0  0  0  0  0  2  0  0  0  0  0  0
  186.9090  177.1760  137.3600 C   0  0  1  0  0  3  0  0  0  0  0  0
  187.1720  178.3180  136.4240 C   0  0  0  0  0  0  0  0  0  0  0  0
  187.2630  178.1130  135.0560 O   0  0  0  0  0  0  0  0  0  0  0  0
  187.3010  179.4830  136.8780 O   0  0  0  0  0  1  0  0  0  0  0  0
  185.7130  176.3660  136.8850 C   0  0  0  0  0  2  0  0  0  0  0  0
  184.4290  177.1430  137.1210 C   0  0  1  0  0  3  0  0  0  0  0  0
  183.7220  177.2580  135.9240 O   0  0  0  0  0  1  0  0  0  0  0  0
  183.0980  175.3390  137.8460 O   0  0  0  0  0  0  0  0  0  0  0  0
  183.5850  176.4250  138.1200 C   0  0  0  0  0  3  0  0  0  0  0  0
  1  2  1  0  0  0  0
  2 16  1  1  0  0  0
  2 12  1  0  0  0  0
  3  9  1  0  0  0  0
  4  7  2  0  0  0  0
  5 11  1  0  0  0  0
  7 14  1  0  0  0  0
  8  4  1  0  0  0  0
  8  3  2  0  0  0  0
  9 14  2  0  0  0  0
  9 13  1  0  0  0  0
 10  5  1  0  0  0  0
 10 31  1  0  0  0  0
 11  6  1  0  0  0  0
 12  6  1  0  0  0  0
 13  1  1  0  0  0  0
 13  5  2  0  0  0  0
 14 10  1  0  0  0  0
 15  4  1  0  0  0  0
 16 17  1  1  0  0  0
 18 25  1  0  0  0  0
 18 26  1  0  0  0  0
 19 23  1  0  0  0  0
 22 25  1  6  0  0  0
 22 19  1  0  0  0  0
 22 24  1  0  0  0  0
 23 20  1  0  0  0  0
 23 16  1  1  0  0  0
 24 21  1  6  0  0  0
 24 20  1  0  0  0  0
 26 28  1  6  0  0  0
 26 21  1  0  0  0  0
 27 28  1  0  0  0  0
 28 29  1  0  0  0  0
 30 28  1  0  0  0  0
 31 33  1  0  0  0  0
 33 32  1  0  0  0  0
 34  8  1  0  0  0  0
 35 34  1  0  0  0  0
 36 47  1  6  0  0  0
 36 35  1  0  0  0  0
 37 39  1  0  0  0  0
 37 36  1  0  0  0  0
 38 37  2  0  0  0  0
 40 42  1  0  0  0  0
 40 45  1  0  0  0  0
 40 39  1  1  0  0  0
 41 43  1  0  0  0  0
 43 42  2  0  0  0  0
 44 41  1  0  0  0  0
 44 43  1  0  0  0  0
 46 45  1  0  0  0  0
 48 52  1  6  0  0  0
 48 47  1  0  0  0  0
 49 51  1  0  0  0  0
 49 48  1  0  0  0  0
 50 49  2  0  0  0  0
 52 53  1  0  0  0  0
 53 54  1  6  0  0  0
 53 56  1  0  0  0  0
 55 56  2  0  0  0  0
M  END
>  <MODEL>
4

>  <REMARK>
 VINA RESULT:      -8.6      2.537      4.646
  Name = 
  19 active torsions:
  status: ('A' for Active; 'I' for Inactive)
    1  A    between atoms: C_4  and  C_28
    2  A    between atoms: C_4  and  C_46
    3  A    between atoms: C_6  and  C_15
    4  A    between atoms: C_6  and  C_39
    5  A    between atoms: C_10  and  C_23
    6  A    between atoms: C_10  and  C_28
    7  A    between atoms: C_11  and  C_50
    8  A    between atoms: N_13  and  C_40
    9  A    between atoms: C_14  and  C_36
   10  A    between atoms: C_14  and  C_46
   11  A    between atoms: C_16  and  C_36
   12  A    between atoms: C_17  and  C_53
   13  A    between atoms: C_19  and  C_30
   14  A    between atoms: C_19  and  C_56
   15  A    between atoms: C_23  and  C_40
   16  A    between atoms: N_24  and  C_40
   17  A    between atoms: C_28  and  C_56
   18  A    between atoms: N_32  and  C_50
   19  A    between atoms: C_37  and  C_46
                            x       y       z     vdW  Elec       q    Type
                         _______ _______ _______ _____ _____    ______ ____

>  <TORSDO>
F 19

$$$$
=
 OpenBabel10222417173D

 56 61  0  0  1  0  0  0  0  0999 V2000
  185.4700  178.9000  141.7450 C   0  0  0  0  0  2  0  0  0  0  0  0
  184.0170  178.4110  141.6850 C   0  0  1  0  0  3  0  0  0  0  0  0
  188.3160  177.4460  141.8070 C   0  0  0  0  0  3  0  0  0  0  0  0
  189.8870  176.4960  143.4310 C   0  0  0  0  0  0  0  0  0  0  0  0
  185.7960  178.2450  144.2340 C   0  0  0  0  0  0  0  0  0  0  0  0
  183.7810  179.7090  143.9420 C   0  0  0  0  0  2  0  0  0  0  0  0
  188.9880  176.7630  144.4790 C   0  0  0  0  0  3  0  0  0  0  0  0
  189.5540  176.8330  142.0930 C   0  0  0  0  0  0  0  0  0  0  0  0
  187.4570  177.7140  142.8710 C   0  0  0  0  0  0  0  0  0  0  0  0
  186.7670  177.6850  144.9960 N   0  0  0  0  0  0  0  0  0  0  0  0
  184.4350  178.6050  144.7620 C   0  0  0  0  0  2  0  0  0  0  0  0
  183.1010  179.1550  142.6860 C   0  0  0  0  0  2  0  0  0  0  0  0
  186.1980  178.2790  142.8970 C   0  0  0  0  0  0  0  0  0  0  0  0
  187.7750  177.3720  144.1590 C   0  0  0  0  0  0  0  0  0  0  0  0
  191.1400  175.8830  143.7360 N   0  0  0  0  0  1  0  0  0  0  0  0
  183.4580  178.5570  140.2580 C   0  0  1  0  0  3  0  0  0  0  0  0
  184.4890  178.4520  139.3150 O   0  0  0  0  0  1  0  0  0  0  0  0
  181.9870  175.3700  135.7450 C   0  0  0  0  0  2  0  0  0  0  0  0
  181.6170  177.8750  138.6380 C   0  0  0  0  0  2  0  0  0  0  0  0
  182.9710  176.2380  139.7580 O   0  0  0  0  0  0  0  0  0  0  0  0
  183.0970  174.5990  137.9230 C   0  0  0  0  0  2  0  0  0  0  0  0
  181.6860  176.6060  137.8610 C   0  0  2  0  0  3  0  0  0  0  0  0
  182.3740  177.5160  139.9230 C   0  0  1  0  0  3  0  0  0  0  0  0
  182.9660  176.0420  138.3740 C   0  0  1  0  0  3  0  0  0  0  0  0
  181.8120  176.7680  136.3580 C   0  0  0  0  0  2  0  0  0  0  0  0
  183.1730  174.6010  136.3790 C   0  0  1  0  0  3  0  0  0  0  0  0
  184.2960  173.2430  134.5940 C   0  0  0  0  0  1  0  0  0  0  0  0
  183.3560  173.1930  135.7840 C   0  0  0  0  0  0  0  0  0  0  0  0
  183.9730  172.2650  136.8170 C   0  0  0  0  0  1  0  0  0  0  0  0
  182.0270  172.6100  135.3330 C   0  0  0  0  0  1  0  0  0  0  0  0
  186.6990  177.3960  146.4240 C   0  0  0  0  0  2  0  0  0  0  0  0
  186.0050  179.2830  147.6960 O   0  0  0  0  0  1  0  0  0  0  0  0
  187.1330  178.6110  147.2210 C   0  0  0  0  0  2  0  0  0  0  0  0
  190.4650  176.4250  140.9760 C   0  0  0  0  0  2  0  0  0  0  0  0
  190.8390  177.5970  140.0790 C   0  0  0  0  0  2  0  0  0  0  0  0
  191.2880  177.1180  138.7030 C   0  0  1  0  0  3  0  0  0  0  0  0
  192.7640  176.7890  138.6860 C   0  0  0  0  0  0  0  0  0  0  0  0
  193.4770  177.2100  139.5820 O   0  0  0  0  0  0  0  0  0  0  0  0
  193.3900  176.0230  137.5570 C   0  0  0  0  0  2  0  0  0  0  0  0
  194.0600  174.7500  138.0510 C   0  0  2  0  0  3  0  0  0  0  0  0
  197.4100  175.0290  136.0510 C   0  0  0  0  0  2  0  0  0  0  0  0
  195.4880  174.9300  137.9820 N   0  0  0  0  0  0  0  0  0  0  0  0
  196.1220  174.9350  136.8660 C   0  0  0  0  0  0  0  0  0  0  0  0
  196.1870  174.8440  135.3420 C   0  0  0  0  0  2  0  0  0  0  0  0
  193.6570  173.6260  137.2150 N   0  0  0  0  0  2  0  0  0  0  0  0
  192.6750  174.1020  136.3340 N   0  0  0  0  0  1  0  0  0  0  0  0
  190.4310  175.9230  138.3090 C   0  0  0  0  0  2  0  0  0  0  0  0
  189.3880  176.3230  137.2790 C   0  0  1  0  0  3  0  0  0  0  0  0
  189.2320  175.2780  136.2140 C   0  0  0  0  0  0  0  0  0  0  0  0
  188.8840  173.9750  136.5370 O   0  0  0  0  0  1  0  0  0  0  0  0
  189.4040  175.5840  135.0060 O   0  0  0  0  0  0  0  0  0  0  0  0
  188.0680  176.5500  137.9980 C   0  0  0  0  0  2  0  0  0  0  0  0
  187.6000  177.9800  137.7920 C   0  0  1  0  0  3  0  0  0  0  0  0
  187.5780  178.6480  139.0170 O   0  0  0  0  0  1  0  0  0  0  0  0
  189.1840  179.6420  137.2630 O   0  0  0  0  0  0  0  0  0  0  0  0
  188.5360  178.6850  136.8680 C   0  0  0  0  0  3  0  0  0  0  0  0
  1 13  1  0  0  0  0
  2 16  1  6  0  0  0
  2  1  1  0  0  0  0
  2 12  1  0  0  0  0
  3  8  2  0  0  0  0
  3  9  1  0  0  0  0
  4 15  1  0  0  0  0
  4  7  2  0  0  0  0
  5 11  1  0  0  0  0
  5 10  1  0  0  0  0
  6 11  1  0  0  0  0
  8  4  1  0  0  0  0
  9 13  1  0  0  0  0
  9 14  2  0  0  0  0
 10 31  1  0  0  0  0
 12  6  1  0  0  0  0
 13  5  2  0  0  0  0
 14  7  1  0  0  0  0
 14 10  1  0  0  0  0
 16 17  1  6  0  0  0
 18 25  1  0  0  0  0
 18 26  1  0  0  0  0
 19 23  1  0  0  0  0
 20 23  1  0  0  0  0
 22 25  1  6  0  0  0
 22 24  1  0  0  0  0
 22 19  1  0  0  0  0
 23 16  1  6  0  0  0
 24 21  1  1  0  0  0
 24 20  1  0  0  0  0
 26 28  1  6  0  0  0
 26 21  1  0  0  0  0
 27 28  1  0  0  0  0
 28 29  1  0  0  0  0
 30 28  1  0  0  0  0
 31 33  1  0  0  0  0
 33 32  1  0  0  0  0
 34  8  1  0  0  0  0
 35 34  1  0  0  0  0
 36 47  1  1  0  0  0
 36 35  1  0  0  0  0
 37 36  1  0  0  0  0
 37 38  2  0  0  0  0
 39 37  1  0  0  0  0
 40 39  1  6  0  0  0
 41 43  1  0  0  0  0
 42 40  1  0  0  0  0
 43 42  2  0  0  0  0
 44 41  1  0  0  0  0
 44 43  1  0  0  0  0
 45 40  1  0  0  0  0
 46 45  1  0  0  0  0
 48 52  1  1  0  0  0
 48 47  1  0  0  0  0
 49 50  1  0  0  0  0
 49 48  1  0  0  0  0
 51 49  2  0  0  0  0
 53 52  1  0  0  0  0
 53 54  1  1  0  0  0
 56 55  2  0  0  0  0
 56 53  1  0  0  0  0
M  END
>  <MODEL>
5

>  <REMARK>
 VINA RESULT:      -8.5      2.923      6.762
  Name = 
  19 active torsions:
  status: ('A' for Active; 'I' for Inactive)
    1  A    between atoms: C_4  and  C_28
    2  A    between atoms: C_4  and  C_46
    3  A    between atoms: C_6  and  C_15
    4  A    between atoms: C_6  and  C_39
    5  A    between atoms: C_10  and  C_23
    6  A    between atoms: C_10  and  C_28
    7  A    between atoms: C_11  and  C_50
    8  A    between atoms: N_13  and  C_40
    9  A    between atoms: C_14  and  C_36
   10  A    between atoms: C_14  and  C_46
   11  A    between atoms: C_16  and  C_36
   12  A    between atoms: C_17  and  C_53
   13  A    between atoms: C_19  and  C_30
   14  A    between atoms: C_19  and  C_56
   15  A    between atoms: C_23  and  C_40
   16  A    between atoms: N_24  and  C_40
   17  A    between atoms: C_28  and  C_56
   18  A    between atoms: N_32  and  C_50
   19  A    between atoms: C_37  and  C_46
                            x       y       z     vdW  Elec       q    Type
                         _______ _______ _______ _____ _____    ______ ____

>  <TORSDO>
F 19

$$$$
=
 OpenBabel10222417173D

 56 61  0  0  1  0  0  0  0  0999 V2000
  187.4970  178.5110  145.3000 C   0  0  0  0  0  2  0  0  0  0  0  0
  186.6590  177.6160  146.2220 C   0  0  1  0  0  3  0  0  0  0  0  0
  188.9870  178.0690  142.5070 C   0  0  0  0  0  3  0  0  0  0  0  0
  191.1510  177.3000  141.6520 C   0  0  0  0  0  0  0  0  0  0  0  0
  189.7520  177.4040  145.9500 C   0  0  0  0  0  0  0  0  0  0  0  0
  188.5060  178.1770  147.9840 C   0  0  0  0  0  2  0  0  0  0  0  0
  191.5780  177.0020  142.9580 C   0  0  0  0  0  3  0  0  0  0  0  0
  189.8550  177.8300  141.4210 C   0  0  0  0  0  0  0  0  0  0  0  0
  189.4480  177.7800  143.7900 C   0  0  0  0  0  0  0  0  0  0  0  0
  190.8860  177.0130  145.3190 N   0  0  0  0  0  0  0  0  0  0  0  0
  189.4980  177.1720  147.4130 C   0  0  0  0  0  2  0  0  0  0  0  0
  187.0570  177.7610  147.7100 C   0  0  0  0  0  2  0  0  0  0  0  0
  188.8310  177.8910  145.0190 C   0  0  0  0  0  0  0  0  0  0  0  0
  190.6940  177.2520  144.0070 C   0  0  0  0  0  0  0  0  0  0  0  0
  192.0440  177.0620  140.5630 N   0  0  0  0  0  1  0  0  0  0  0  0
  185.1590  177.9220  146.0510 C   0  0  1  0  0  3  0  0  0  0  0  0
  184.5840  178.2510  147.2860 O   0  0  0  0  0  1  0  0  0  0  0  0
  182.4550  178.5410  141.0520 C   0  0  0  0  0  2  0  0  0  0  0  0
  185.3040  178.6920  143.6300 C   0  0  0  0  0  2  0  0  0  0  0  0
  183.4970  179.3760  145.0580 O   0  0  0  0  0  0  0  0  0  0  0  0
  181.7130  179.3780  143.3580 C   0  0  0  0  0  2  0  0  0  0  0  0
  184.0860  179.0290  142.8400 C   0  0  2  0  0  3  0  0  0  0  0  0
  184.8830  179.0650  145.0570 C   0  0  1  0  0  3  0  0  0  0  0  0
  183.0280  178.8150  143.8660 C   0  0  1  0  0  3  0  0  0  0  0  0
  183.7960  178.1120  141.6670 C   0  0  0  0  0  2  0  0  0  0  0  0
  181.3170  178.5690  142.1020 C   0  0  1  0  0  3  0  0  0  0  0  0
  179.2320  177.8100  140.9330 C   0  0  0  0  0  1  0  0  0  0  0  0
  179.9660  179.0070  141.5060 C   0  0  0  0  0  0  0  0  0  0  0  0
  179.0870  179.6090  142.5880 C   0  0  0  0  0  1  0  0  0  0  0  0
  180.1610  180.0350  140.4040 C   0  0  0  0  0  1  0  0  0  0  0  0
  192.0490  176.3760  145.9270 C   0  0  0  0  0  2  0  0  0  0  0  0
  192.4440  174.3580  144.7300 O   0  0  0  0  0  1  0  0  0  0  0  0
  191.8860  174.8680  145.9040 C   0  0  0  0  0  2  0  0  0  0  0  0
  189.3700  178.0210  140.0160 C   0  0  0  0  0  2  0  0  0  0  0  0
  187.8570  177.8920  139.9050 C   0  0  0  0  0  2  0  0  0  0  0  0
  187.4550  177.2270  138.5940 C   0  0  1  0  0  3  0  0  0  0  0  0
  186.2250  177.8760  137.9990 C   0  0  0  0  0  0  0  0  0  0  0  0
  186.3060  179.0100  137.5590 O   0  0  0  0  0  0  0  0  0  0  0  0
  184.8900  177.1900  138.0030 C   0  0  0  0  0  2  0  0  0  0  0  0
  184.4970  176.7270  136.6080 C   0  0  2  0  0  3  0  0  0  0  0  0
  181.0140  178.5070  136.6820 C   0  0  0  0  0  2  0  0  0  0  0  0
  183.5310  177.6550  136.0750 N   0  0  0  0  0  0  0  0  0  0  0  0
  182.3870  177.8400  136.6250 C   0  0  0  0  0  0  0  0  0  0  0  0
  181.3410  177.5690  137.7060 C   0  0  0  0  0  2  0  0  0  0  0  0
  183.9200  175.3900  136.6780 N   0  0  0  0  0  2  0  0  0  0  0  0
  183.9660  174.9940  138.0230 N   0  0  0  0  0  1  0  0  0  0  0  0
  188.6440  177.2780  137.6460 C   0  0  0  0  0  2  0  0  0  0  0  0
  188.4070  176.3920  136.4340 C   0  0  1  0  0  3  0  0  0  0  0  0
  189.5410  176.4750  135.4570 C   0  0  0  0  0  0  0  0  0  0  0  0
  190.5690  175.5440  135.4730 O   0  0  0  0  0  1  0  0  0  0  0  0
  189.5620  177.3930  134.5970 O   0  0  0  0  0  0  0  0  0  0  0  0
  188.2260  174.9620  136.9160 C   0  0  0  0  0  2  0  0  0  0  0  0
  187.3250  174.1990  135.9590 C   0  0  1  0  0  3  0  0  0  0  0  0
  188.0890  173.6630  134.9220 O   0  0  0  0  0  1  0  0  0  0  0  0
  186.7450  172.9990  137.9020 O   0  0  0  0  0  0  0  0  0  0  0  0
  186.6440  173.0910  136.6890 C   0  0  0  0  0  3  0  0  0  0  0  0
  1  2  1  0  0  0  0
  2 16  1  1  0  0  0
  2 12  1  0  0  0  0
  3  9  1  0  0  0  0
  4  7  2  0  0  0  0
  5 11  1  0  0  0  0
  7 14  1  0  0  0  0
  8  4  1  0  0  0  0
  8  3  2  0  0  0  0
  9 14  2  0  0  0  0
  9 13  1  0  0  0  0
 10 31  1  0  0  0  0
 10  5  1  0  0  0  0
 11  6  1  0  0  0  0
 12  6  1  0  0  0  0
 13  1  1  0  0  0  0
 13  5  2  0  0  0  0
 14 10  1  0  0  0  0
 15  4  1  0  0  0  0
 16 17  1  1  0  0  0
 18 25  1  0  0  0  0
 18 26  1  0  0  0  0
 19 23  1  0  0  0  0
 22 25  1  6  0  0  0
 22 19  1  0  0  0  0
 22 24  1  0  0  0  0
 23 20  1  0  0  0  0
 23 16  1  1  0  0  0
 24 21  1  6  0  0  0
 24 20  1  0  0  0  0
 26 28  1  6  0  0  0
 26 21  1  0  0  0  0
 27 28  1  0  0  0  0
 28 29  1  0  0  0  0
 30 28  1  0  0  0  0
 32 33  1  0  0  0  0
 33 31  1  0  0  0  0
 34  8  1  0  0  0  0
 35 34  1  0  0  0  0
 36 47  1  6  0  0  0
 36 35  1  0  0  0  0
 37 39  1  0  0  0  0
 37 36  1  0  0  0  0
 38 37  2  0  0  0  0
 40 45  1  0  0  0  0
 40 39  1  1  0  0  0
 41 44  1  0  0  0  0
 42 40  1  0  0  0  0
 42 43  2  0  0  0  0
 43 41  1  0  0  0  0
 43 44  1  0  0  0  0
 45 46  1  0  0  0  0
 48 52  1  1  0  0  0
 48 47  1  0  0  0  0
 49 50  1  0  0  0  0
 49 48  1  0  0  0  0
 51 49  2  0  0  0  0
 53 54  1  6  0  0  0
 53 56  1  0  0  0  0
 53 52  1  0  0  0  0
 56 55  2  0  0  0  0
M  END
>  <MODEL>
6

>  <REMARK>
 VINA RESULT:      -8.4      1.501      2.344
  Name = 
  19 active torsions:
  status: ('A' for Active; 'I' for Inactive)
    1  A    between atoms: C_4  and  C_28
    2  A    between atoms: C_4  and  C_46
    3  A    between atoms: C_6  and  C_15
    4  A    between atoms: C_6  and  C_39
    5  A    between atoms: C_10  and  C_23
    6  A    between atoms: C_10  and  C_28
    7  A    between atoms: C_11  and  C_50
    8  A    between atoms: N_13  and  C_40
    9  A    between atoms: C_14  and  C_36
   10  A    between atoms: C_14  and  C_46
   11  A    between atoms: C_16  and  C_36
   12  A    between atoms: C_17  and  C_53
   13  A    between atoms: C_19  and  C_30
   14  A    between atoms: C_19  and  C_56
   15  A    between atoms: C_23  and  C_40
   16  A    between atoms: N_24  and  C_40
   17  A    between atoms: C_28  and  C_56
   18  A    between atoms: N_32  and  C_50
   19  A    between atoms: C_37  and  C_46
                            x       y       z     vdW  Elec       q    Type
                         _______ _______ _______ _____ _____    ______ ____

>  <TORSDO>
F 19

$$$$
=
 OpenBabel10222417173D

 56 61  0  0  1  0  0  0  0  0999 V2000
  182.3570  178.0660  139.2250 C   0  0  0  0  0  2  0  0  0  0  0  0
  181.2750  177.0980  138.7300 C   0  0  1  0  0  3  0  0  0  0  0  0
  184.3110  178.1310  141.7520 C   0  0  0  0  0  3  0  0  0  0  0  0
  184.3250  178.9070  144.0770 C   0  0  0  0  0  0  0  0  0  0  0  0
  180.8940  179.0360  141.1360 C   0  0  0  0  0  0  0  0  0  0  0  0
  179.7100  179.1820  138.9300 C   0  0  0  0  0  2  0  0  0  0  0  0
  182.9830  179.3130  143.9650 C   0  0  0  0  0  3  0  0  0  0  0  0
  184.9920  178.3120  142.9750 C   0  0  0  0  0  0  0  0  0  0  0  0
  182.9890  178.5630  141.6690 C   0  0  0  0  0  0  0  0  0  0  0  0
  181.0640  179.4060  142.4280 N   0  0  0  0  0  0  0  0  0  0  0  0
  179.5610  179.0520  140.4400 C   0  0  0  0  0  2  0  0  0  0  0  0
  179.9910  177.8290  138.2690 C   0  0  0  0  0  2  0  0  0  0  0  0
  182.0820  178.5040  140.6300 C   0  0  0  0  0  0  0  0  0  0  0  0
  182.3430  179.1210  142.7410 C   0  0  0  0  0  0  0  0  0  0  0  0
  185.0040  179.1040  145.3180 N   0  0  0  0  0  1  0  0  0  0  0  0
  181.8170  176.2240  137.5840 C   0  0  1  0  0  3  0  0  0  0  0  0
  182.8260  176.9020  136.8880 O   0  0  0  0  0  1  0  0  0  0  0  0
  184.9570  171.9840  135.3830 C   0  0  0  0  0  2  0  0  0  0  0  0
  181.9980  173.7300  137.1080 C   0  0  0  0  0  2  0  0  0  0  0  0
  183.7860  174.9400  138.1610 O   0  0  0  0  0  0  0  0  0  0  0  0
  185.6640  173.7270  137.1240 C   0  0  0  0  0  2  0  0  0  0  0  0
  183.3130  173.0710  136.8680 C   0  0  2  0  0  3  0  0  0  0  0  0
  182.3710  174.8700  138.0640 C   0  0  1  0  0  3  0  0  0  0  0  0
  184.2340  174.2290  137.0430 C   0  0  1  0  0  3  0  0  0  0  0  0
  183.5180  172.5140  135.4730 C   0  0  0  0  0  2  0  0  0  0  0  0
  185.9990  173.0630  135.7690 C   0  0  1  0  0  3  0  0  0  0  0  0
  187.4660  171.0910  135.2700 C   0  0  0  0  0  1  0  0  0  0  0  0
  187.4480  172.5470  135.6940 C   0  0  0  0  0  0  0  0  0  0  0  0
  188.2310  173.3350  134.6580 C   0  0  0  0  0  1  0  0  0  0  0  0
  188.1460  172.6750  137.0370 C   0  0  0  0  0  1  0  0  0  0  0  0
  180.0430  179.9260  143.3300 C   0  0  0  0  0  2  0  0  0  0  0  0
  179.8770  177.6100  143.8510 O   0  0  0  0  0  1  0  0  0  0  0  0
  179.1450  178.7980  143.8030 C   0  0  0  0  0  2  0  0  0  0  0  0
  186.3770  177.7680  143.1500 C   0  0  0  0  0  2  0  0  0  0  0  0
  187.4470  178.8230  142.9010 C   0  0  0  0  0  2  0  0  0  0  0  0
  188.7230  178.1950  142.3530 C   0  0  1  0  0  3  0  0  0  0  0  0
  189.4810  177.4520  143.4300 C   0  0  0  0  0  0  0  0  0  0  0  0
  189.5420  176.2350  143.3820 O   0  0  0  0  0  0  0  0  0  0  0  0
  190.0970  178.1650  144.5980 C   0  0  0  0  0  2  0  0  0  0  0  0
  190.3980  177.2070  145.7410 C   0  0  2  0  0  3  0  0  0  0  0  0
  187.3890  178.1600  148.0530 C   0  0  0  0  0  2  0  0  0  0  0  0
  189.8520  177.7610  146.9550 N   0  0  0  0  0  0  0  0  0  0  0  0
  188.5900  177.7950  147.1830 C   0  0  0  0  0  0  0  0  0  0  0  0
  187.1350  177.5180  146.8050 C   0  0  0  0  0  2  0  0  0  0  0  0
  191.8400  177.0370  145.8740 N   0  0  0  0  0  2  0  0  0  0  0  0
  192.0740  176.5140  147.1540 N   0  0  0  0  0  1  0  0  0  0  0  0
  188.3490  177.2890  141.1880 C   0  0  0  0  0  2  0  0  0  0  0  0
  189.1430  177.6540  139.9450 C   0  0  1  0  0  3  0  0  0  0  0  0
  190.4550  176.9300  139.8930 C   0  0  0  0  0  0  0  0  0  0  0  0
  190.5890  175.7420  139.1910 O   0  0  0  0  0  0  0  0  0  0  0  0
  191.4590  177.4090  140.4820 O   0  0  0  0  0  1  0  0  0  0  0  0
  188.3020  177.3160  138.7240 C   0  0  0  0  0  2  0  0  0  0  0  0
  188.1510  178.5410  137.8390 C   0  0  1  0  0  3  0  0  0  0  0  0
  189.3360  178.7620  137.1360 O   0  0  0  0  0  1  0  0  0  0  0  0
  186.0420  177.7070  137.2030 O   0  0  0  0  0  0  0  0  0  0  0  0
  187.0410  178.3230  136.8660 C   0  0  0  0  0  3  0  0  0  0  0  0
  1 13  1  0  0  0  0
  2 16  1  6  0  0  0
  2  1  1  0  0  0  0
  3  8  1  0  0  0  0
  4 15  1  0  0  0  0
  5 10  1  0  0  0  0
  6 11  1  0  0  0  0
  7  4  1  0  0  0  0
  8 34  1  0  0  0  0
  8  4  2  0  0  0  0
  9  3  2  0  0  0  0
  9 14  1  0  0  0  0
 10 14  1  0  0  0  0
 10 31  1  0  0  0  0
 11  5  1  0  0  0  0
 12  2  1  0  0  0  0
 12  6  1  0  0  0  0
 13  5  2  0  0  0  0
 13  9  1  0  0  0  0
 14  7  2  0  0  0  0
 16 17  1  1  0  0  0
 18 25  1  0  0  0  0
 18 26  1  0  0  0  0
 19 23  1  0  0  0  0
 22 25  1  6  0  0  0
 22 24  1  0  0  0  0
 22 19  1  0  0  0  0
 23 16  1  6  0  0  0
 23 20  1  0  0  0  0
 24 21  1  1  0  0  0
 24 20  1  0  0  0  0
 26 28  1  1  0  0  0
 26 21  1  0  0  0  0
 27 28  1  0  0  0  0
 28 30  1  0  0  0  0
 29 28  1  0  0  0  0
 31 33  1  0  0  0  0
 33 32  1  0  0  0  0
 35 34  1  0  0  0  0
 36 47  1  6  0  0  0
 36 35  1  0  0  0  0
 36 37  1  0  0  0  0
 37 39  1  0  0  0  0
 38 37  2  0  0  0  0
 40 39  1  6  0  0  0
 40 45  1  0  0  0  0
 40 42  1  0  0  0  0
 42 43  2  0  0  0  0
 43 41  1  0  0  0  0
 44 43  1  0  0  0  0
 44 41  1  0  0  0  0
 45 46  1  0  0  0  0
 48 52  1  6  0  0  0
 48 47  1  0  0  0  0
 49 48  1  0  0  0  0
 49 51  1  0  0  0  0
 50 49  2  0  0  0  0
 53 54  1  6  0  0  0
 53 52  1  0  0  0  0
 56 55  2  0  0  0  0
 56 53  1  0  0  0  0
M  END
>  <MODEL>
7

>  <REMARK>
 VINA RESULT:      -8.4      2.697      9.250
  Name = 
  19 active torsions:
  status: ('A' for Active; 'I' for Inactive)
    1  A    between atoms: C_4  and  C_28
    2  A    between atoms: C_4  and  C_46
    3  A    between atoms: C_6  and  C_15
    4  A    between atoms: C_6  and  C_39
    5  A    between atoms: C_10  and  C_23
    6  A    between atoms: C_10  and  C_28
    7  A    between atoms: C_11  and  C_50
    8  A    between atoms: N_13  and  C_40
    9  A    between atoms: C_14  and  C_36
   10  A    between atoms: C_14  and  C_46
   11  A    between atoms: C_16  and  C_36
   12  A    between atoms: C_17  and  C_53
   13  A    between atoms: C_19  and  C_30
   14  A    between atoms: C_19  and  C_56
   15  A    between atoms: C_23  and  C_40
   16  A    between atoms: N_24  and  C_40
   17  A    between atoms: C_28  and  C_56
   18  A    between atoms: N_32  and  C_50
   19  A    between atoms: C_37  and  C_46
                            x       y       z     vdW  Elec       q    Type
                         _______ _______ _______ _____ _____    ______ ____

>  <TORSDO>
F 19

$$$$
=
 OpenBabel10222417173D

 56 61  0  0  1  0  0  0  0  0999 V2000
  188.9800  176.5280  143.9860 C   0  0  0  0  0  2  0  0  0  0  0  0
  190.3940  177.1240  143.9740 C   0  0  1  0  0  3  0  0  0  0  0  0
  186.0760  177.6530  143.2710 C   0  0  0  0  0  3  0  0  0  0  0  0
  184.2250  178.8500  144.3450 C   0  0  0  0  0  0  0  0  0  0  0  0
  188.2480  177.8030  146.1240 C   0  0  0  0  0  0  0  0  0  0  0  0
  190.3680  176.5230  146.5180 C   0  0  0  0  0  2  0  0  0  0  0  0
  184.9720  178.9710  145.5300 C   0  0  0  0  0  3  0  0  0  0  0  0
  184.7740  178.1950  143.2110 C   0  0  0  0  0  0  0  0  0  0  0  0
  186.7800  177.7730  144.4670 C   0  0  0  0  0  0  0  0  0  0  0  0
  187.1420  178.4510  146.5650 N   0  0  0  0  0  0  0  0  0  0  0  0
  189.5340  177.7390  146.9000 C   0  0  0  0  0  2  0  0  0  0  0  0
  191.1940  176.7760  145.2530 C   0  0  0  0  0  2  0  0  0  0  0  0
  188.0530  177.3650  144.8120 C   0  0  0  0  0  0  0  0  0  0  0  0
  186.2540  178.4210  145.5540 C   0  0  0  0  0  0  0  0  0  0  0  0
  182.9060  179.3960  144.3010 N   0  0  0  0  0  1  0  0  0  0  0  0
  191.1680  176.6490  142.7310 C   0  0  1  0  0  3  0  0  0  0  0  0
  190.6850  175.4060  142.2990 O   0  0  0  0  0  1  0  0  0  0  0  0
  191.4180  176.3900  137.0250 C   0  0  0  0  0  2  0  0  0  0  0  0
  192.2900  177.4870  140.6060 C   0  0  0  0  0  2  0  0  0  0  0  0
  189.8980  177.4320  140.8240 O   0  0  0  0  0  0  0  0  0  0  0  0
  189.3650  176.8370  138.4930 C   0  0  0  0  0  2  0  0  0  0  0  0
  191.6260  177.3830  139.2750 C   0  0  2  0  0  3  0  0  0  0  0  0
  191.0970  177.6420  141.5570 C   0  0  1  0  0  3  0  0  0  0  0  0
  190.3250  176.7730  139.6660 C   0  0  1  0  0  3  0  0  0  0  0  0
  192.3000  176.4570  138.2810 C   0  0  0  0  0  2  0  0  0  0  0  0
  189.9630  175.9750  137.3580 C   0  0  1  0  0  3  0  0  0  0  0  0
  189.8810  176.1490  134.8570 C   0  0  0  0  0  1  0  0  0  0  0  0
  189.0610  175.9130  136.1110 C   0  0  0  0  0  0  0  0  0  0  0  0
  188.4270  174.5370  135.9930 C   0  0  0  0  0  1  0  0  0  0  0  0
  187.9590  176.9560  136.1790 C   0  0  0  0  0  1  0  0  0  0  0  0
  186.9790  179.1250  147.8480 C   0  0  0  0  0  2  0  0  0  0  0  0
  188.3350  178.2440  149.5930 O   0  0  0  0  0  1  0  0  0  0  0  0
  187.0860  178.1210  148.9800 C   0  0  0  0  0  2  0  0  0  0  0  0
  184.0170  178.1890  141.9180 C   0  0  0  0  0  2  0  0  0  0  0  0
  184.6820  179.0530  140.8560 C   0  0  0  0  0  2  0  0  0  0  0  0
  183.9580  178.9390  139.5200 C   0  0  1  0  0  3  0  0  0  0  0  0
  184.8200  178.2570  138.4800 C   0  0  0  0  0  0  0  0  0  0  0  0
  185.8440  178.8040  138.1060 O   0  0  0  0  0  0  0  0  0  0  0  0
  184.4120  176.9620  137.8410 C   0  0  0  0  0  2  0  0  0  0  0  0
  184.2140  177.1180  136.3410 C   0  0  2  0  0  3  0  0  0  0  0  0
  180.3750  176.4550  136.6890 C   0  0  0  0  0  2  0  0  0  0  0  0
  182.8360  177.4640  136.0960 N   0  0  0  0  0  0  0  0  0  0  0  0
  181.8650  176.7520  136.5390 C   0  0  0  0  0  0  0  0  0  0  0  0
  181.2970  175.5590  137.3060 C   0  0  0  0  0  2  0  0  0  0  0  0
  184.5420  175.8660  135.6690 N   0  0  0  0  0  2  0  0  0  0  0  0
  184.8660  174.9380  136.6690 N   0  0  0  0  0  1  0  0  0  0  0  0
  182.6460  178.2020  139.7470 C   0  0  0  0  0  2  0  0  0  0  0  0
  181.4610  179.0990  139.4300 C   0  0  1  0  0  3  0  0  0  0  0  0
  180.7310  179.5130  140.6730 C   0  0  0  0  0  0  0  0  0  0  0  0
  180.2360  180.8000  140.8160 O   0  0  0  0  0  0  0  0  0  0  0  0
  180.5510  178.6820  141.6000 O   0  0  0  0  0  1  0  0  0  0  0  0
  181.9720  180.3210  138.6840 C   0  0  0  0  0  2  0  0  0  0  0  0
  181.1810  180.5200  137.4030 C   0  0  1  0  0  3  0  0  0  0  0  0
  180.0190  179.7490  137.4450 O   0  0  0  0  0  1  0  0  0  0  0  0
  180.2930  182.5540  138.1950 O   0  0  0  0  0  0  0  0  0  0  0  0
  180.8090  181.9580  137.2620 C   0  0  0  0  0  3  0  0  0  0  0  0
  1 13  1  0  0  0  0
  2 16  1  6  0  0  0
  2  1  1  0  0  0  0
  2 12  1  0  0  0  0
  3  9  1  0  0  0  0
  4  7  2  0  0  0  0
  5 10  1  0  0  0  0
  5 11  1  0  0  0  0
  6 11  1  0  0  0  0
  7 14  1  0  0  0  0
  8  3  2  0  0  0  0
  8  4  1  0  0  0  0
  9 13  1  0  0  0  0
  9 14  2  0  0  0  0
 10 31  1  0  0  0  0
 12  6  1  0  0  0  0
 13  5  2  0  0  0  0
 14 10  1  0  0  0  0
 15  4  1  0  0  0  0
 16 17  1  6  0  0  0
 18 26  1  0  0  0  0
 18 25  1  0  0  0  0
 19 23  1  0  0  0  0
 20 23  1  0  0  0  0
 22 25  1  6  0  0  0
 22 24  1  0  0  0  0
 22 19  1  0  0  0  0
 23 16  1  1  0  0  0
 24 21  1  6  0  0  0
 24 20  1  0  0  0  0
 26 28  1  6  0  0  0
 26 21  1  0  0  0  0
 27 28  1  0  0  0  0
 28 30  1  0  0  0  0
 29 28  1  0  0  0  0
 31 33  1  0  0  0  0
 33 32  1  0  0  0  0
 34  8  1  0  0  0  0
 35 34  1  0  0  0  0
 36 47  1  1  0  0  0
 36 35  1  0  0  0  0
 37 36  1  0  0  0  0
 38 37  2  0  0  0  0
 39 37  1  0  0  0  0
 40 39  1  1  0  0  0
 41 44  1  0  0  0  0
 42 40  1  0  0  0  0
 42 43  2  0  0  0  0
 43 41  1  0  0  0  0
 43 44  1  0  0  0  0
 45 40  1  0  0  0  0
 45 46  1  0  0  0  0
 48 52  1  1  0  0  0
 48 47  1  0  0  0  0
 48 49  1  0  0  0  0
 49 50  2  0  0  0  0
 49 51  1  0  0  0  0
 53 54  1  1  0  0  0
 53 52  1  0  0  0  0
 56 53  1  0  0  0  0
 56 55  2  0  0  0  0
M  END
>  <MODEL>
8

>  <REMARK>
 VINA RESULT:      -8.2      2.560      7.562
  Name = 
  19 active torsions:
  status: ('A' for Active; 'I' for Inactive)
    1  A    between atoms: C_4  and  C_28
    2  A    between atoms: C_4  and  C_46
    3  A    between atoms: C_6  and  C_15
    4  A    between atoms: C_6  and  C_39
    5  A    between atoms: C_10  and  C_23
    6  A    between atoms: C_10  and  C_28
    7  A    between atoms: C_11  and  C_50
    8  A    between atoms: N_13  and  C_40
    9  A    between atoms: C_14  and  C_36
   10  A    between atoms: C_14  and  C_46
   11  A    between atoms: C_16  and  C_36
   12  A    between atoms: C_17  and  C_53
   13  A    between atoms: C_19  and  C_30
   14  A    between atoms: C_19  and  C_56
   15  A    between atoms: C_23  and  C_40
   16  A    between atoms: N_24  and  C_40
   17  A    between atoms: C_28  and  C_56
   18  A    between atoms: N_32  and  C_50
   19  A    between atoms: C_37  and  C_46
                            x       y       z     vdW  Elec       q    Type
                         _______ _______ _______ _____ _____    ______ ____

>  <TORSDO>
F 19

$$$$
=
 OpenBabel10222417173D

 56 61  0  0  1  0  0  0  0  0999 V2000
  185.3070  178.9820  141.8520 C   0  0  0  0  0  2  0  0  0  0  0  0
  183.8870  178.4100  141.7700 C   0  0  1  0  0  3  0  0  0  0  0  0
  188.2380  177.7130  141.7450 C   0  0  0  0  0  3  0  0  0  0  0  0
  189.8970  176.7260  143.2560 C   0  0  0  0  0  0  0  0  0  0  0  0
  185.7220  178.1340  144.2690 C   0  0  0  0  0  0  0  0  0  0  0  0
  183.6150  179.4860  144.1360 C   0  0  0  0  0  2  0  0  0  0  0  0
  189.0040  176.8420  144.3360 C   0  0  0  0  0  3  0  0  0  0  0  0
  189.5170  177.1570  141.9580 C   0  0  0  0  0  0  0  0  0  0  0  0
  187.3850  177.8310  142.8410 C   0  0  0  0  0  0  0  0  0  0  0  0
  186.7400  177.5720  144.9640 N   0  0  0  0  0  0  0  0  0  0  0  0
  184.3510  178.3580  144.8450 C   0  0  0  0  0  2  0  0  0  0  0  0
  182.9450  179.0030  142.8460 C   0  0  0  0  0  2  0  0  0  0  0  0
  186.0940  178.3100  142.9350 C   0  0  0  0  0  0  0  0  0  0  0  0
  187.7490  177.3980  144.0890 C   0  0  0  0  0  0  0  0  0  0  0  0
  191.1920  176.1690  143.4870 N   0  0  0  0  0  1  0  0  0  0  0  0
  183.2910  178.6450  140.3690 C   0  0  1  0  0  3  0  0  0  0  0  0
  184.0570  177.9890  139.3960 O   0  0  0  0  0  1  0  0  0  0  0  0
  180.0560  176.0560  136.4300 C   0  0  0  0  0  2  0  0  0  0  0  0
  181.1640  178.7170  138.9750 C   0  0  0  0  0  2  0  0  0  0  0  0
  181.7810  176.7580  140.2190 O   0  0  0  0  0  0  0  0  0  0  0  0
  180.9600  175.0740  138.6180 C   0  0  0  0  0  2  0  0  0  0  0  0
  180.5780  177.4860  138.3730 C   0  0  2  0  0  3  0  0  0  0  0  0
  181.8290  178.1770  140.2460 C   0  0  1  0  0  3  0  0  0  0  0  0
  181.5300  176.4570  138.8770 C   0  0  1  0  0  3  0  0  0  0  0  0
  180.5870  177.4330  136.8580 C   0  0  0  0  0  2  0  0  0  0  0  0
  180.8490  174.8990  137.0870 C   0  0  1  0  0  3  0  0  0  0  0  0
  179.0530  173.6470  135.8620 C   0  0  0  0  0  1  0  0  0  0  0  0
  180.3250  173.5100  136.6770 C   0  0  0  0  0  0  0  0  0  0  0  0
  181.3500  172.7980  135.8110 C   0  0  0  0  0  1  0  0  0  0  0  0
  180.0340  172.6510  137.8970 C   0  0  0  0  0  1  0  0  0  0  0  0
  186.7180  177.1540  146.3610 C   0  0  0  0  0  2  0  0  0  0  0  0
  186.3110  179.2060  147.4940 O   0  0  0  0  0  1  0  0  0  0  0  0
  187.2940  178.2480  147.2400 C   0  0  0  0  0  2  0  0  0  0  0  0
  190.4300  176.9080  140.7960 C   0  0  0  0  0  2  0  0  0  0  0  0
  189.9070  177.5280  139.5080 C   0  0  0  0  0  2  0  0  0  0  0  0
  190.2570  176.6670  138.3000 C   0  0  1  0  0  3  0  0  0  0  0  0
  189.4910  177.1010  137.0700 C   0  0  0  0  0  0  0  0  0  0  0  0
  189.5660  178.2620  136.7030 O   0  0  0  0  0  0  0  0  0  0  0  0
  188.5820  176.1620  136.3330 C   0  0  0  0  0  2  0  0  0  0  0  0
  187.2810  175.9370  137.0880 C   0  0  2  0  0  3  0  0  0  0  0  0
  184.9660  172.8760  136.3330 C   0  0  0  0  0  2  0  0  0  0  0  0
  186.3790  175.2050  136.2350 N   0  0  0  0  0  0  0  0  0  0  0  0
  185.8530  174.0910  136.5940 C   0  0  0  0  0  0  0  0  0  0  0  0
  185.6310  172.9540  137.5920 C   0  0  0  0  0  2  0  0  0  0  0  0
  186.6940  177.2220  137.4500 N   0  0  0  0  0  2  0  0  0  0  0  0
  186.0690  177.7240  136.2990 N   0  0  0  0  0  1  0  0  0  0  0  0
  191.7630  176.7290  138.0870 C   0  0  0  0  0  2  0  0  0  0  0  0
  192.3480  175.3320  137.9620 C   0  0  1  0  0  3  0  0  0  0  0  0
  191.9230  174.6650  136.6880 C   0  0  0  0  0  0  0  0  0  0  0  0
  192.0990  175.2880  135.4620 O   0  0  0  0  0  0  0  0  0  0  0  0
  191.4090  173.5170  136.7220 O   0  0  0  0  0  1  0  0  0  0  0  0
  193.8630  175.4400  138.0230 C   0  0  0  0  0  2  0  0  0  0  0  0
  194.4990  174.1710  137.4830 C   0  0  1  0  0  3  0  0  0  0  0  0
  195.4130  174.4940  136.4790 O   0  0  0  0  0  1  0  0  0  0  0  0
  195.7670  174.0950  139.4670 O   0  0  0  0  0  0  0  0  0  0  0  0
  195.2140  173.4600  138.5830 C   0  0  0  0  0  3  0  0  0  0  0  0
  1 13  1  0  0  0  0
  2 16  1  6  0  0  0
  2  1  1  0  0  0  0
  2 12  1  0  0  0  0
  3  8  2  0  0  0  0
  3  9  1  0  0  0  0
  4 15  1  0  0  0  0
  4  7  2  0  0  0  0
  5 11  1  0  0  0  0
  5 10  1  0  0  0  0
  6 11  1  0  0  0  0
  8  4  1  0  0  0  0
  9 13  1  0  0  0  0
  9 14  2  0  0  0  0
 10 31  1  0  0  0  0
 12  6  1  0  0  0  0
 13  5  2  0  0  0  0
 14  7  1  0  0  0  0
 14 10  1  0  0  0  0
 16 17  1  6  0  0  0
 18 25  1  0  0  0  0
 18 26  1  0  0  0  0
 19 23  1  0  0  0  0
 20 23  1  0  0  0  0
 22 25  1  6  0  0  0
 22 24  1  0  0  0  0
 22 19  1  0  0  0  0
 23 16  1  6  0  0  0
 24 21  1  1  0  0  0
 24 20  1  0  0  0  0
 26 28  1  1  0  0  0
 26 21  1  0  0  0  0
 27 28  1  0  0  0  0
 28 30  1  0  0  0  0
 29 28  1  0  0  0  0
 31 33  1  0  0  0  0
 33 32  1  0  0  0  0
 34  8  1  0  0  0  0
 35 34  1  0  0  0  0
 36 47  1  6  0  0  0
 36 35  1  0  0  0  0
 37 36  1  0  0  0  0
 38 37  2  0  0  0  0
 39 37  1  0  0  0  0
 40 39  1  6  0  0  0
 40 45  1  0  0  0  0
 41 43  1  0  0  0  0
 41 44  1  0  0  0  0
 42 43  2  0  0  0  0
 42 40  1  0  0  0  0
 43 44  1  0  0  0  0
 46 45  1  0  0  0  0
 48 52  1  6  0  0  0
 48 47  1  0  0  0  0
 49 51  1  0  0  0  0
 49 48  1  0  0  0  0
 50 49  2  0  0  0  0
 53 54  1  6  0  0  0
 53 52  1  0  0  0  0
 53 56  1  0  0  0  0
 56 55  2  0  0  0  0
M  END
>  <MODEL>
9

>  <REMARK>
 VINA RESULT:      -8.1      2.257      4.735
  Name = 
  19 active torsions:
  status: ('A' for Active; 'I' for Inactive)
    1  A    between atoms: C_4  and  C_28
    2  A    between atoms: C_4  and  C_46
    3  A    between atoms: C_6  and  C_15
    4  A    between atoms: C_6  and  C_39
    5  A    between atoms: C_10  and  C_23
    6  A    between atoms: C_10  and  C_28
    7  A    between atoms: C_11  and  C_50
    8  A    between atoms: N_13  and  C_40
    9  A    between atoms: C_14  and  C_36
   10  A    between atoms: C_14  and  C_46
   11  A    between atoms: C_16  and  C_36
   12  A    between atoms: C_17  and  C_53
   13  A    between atoms: C_19  and  C_30
   14  A    between atoms: C_19  and  C_56
   15  A    between atoms: C_23  and  C_40
   16  A    between atoms: N_24  and  C_40
   17  A    between atoms: C_28  and  C_56
   18  A    between atoms: N_32  and  C_50
   19  A    between atoms: C_37  and  C_46
                            x       y       z     vdW  Elec       q    Type
                         _______ _______ _______ _____ _____    ______ ____

>  <TORSDO>
F 19

$$$$
