=
 OpenBabel10222418573D

 43 48  0  0  1  0  0  0  0  0999 V2000
  187.4110  177.5660  144.4500 C   0  0  0  0  0  0  0  0  0  0  0  0
  183.4040  178.9140  143.8820 C   0  0  0  0  0  0  0  0  0  0  0  0
  187.9890  177.6440  145.7570 C   0  0  0  0  0  0  0  0  0  0  0  0
  184.0180  178.9670  145.1450 C   0  0  0  0  0  3  0  0  0  0  0  0
  185.9170  178.6430  146.5840 C   0  0  0  0  0  3  0  0  0  0  0  0
  191.0750  176.8820  147.7530 O   0  0  0  0  0  1  0  0  0  0  0  0
  186.0800  178.0330  144.2430 C   0  0  0  0  0  0  0  0  0  0  0  0
  189.7970  177.3100  147.3960 C   0  0  0  0  0  0  0  0  0  0  0  0
  184.1400  178.4450  142.7980 C   0  0  0  0  0  3  0  0  0  0  0  0
  189.3030  177.1640  146.0730 C   0  0  0  0  0  0  0  0  0  0  0  0
  187.2140  178.2070  146.8090 C   0  0  0  0  0  0  0  0  0  0  0  0
  185.3370  178.5490  145.3250 C   0  0  0  0  0  0  0  0  0  0  0  0
  187.7280  178.3310  148.0960 C   0  0  0  0  0  3  0  0  0  0  0  0
  185.4650  178.0130  142.9760 C   0  0  0  0  0  3  0  0  0  0  0  0
  189.0080  177.8890  148.3850 C   0  0  0  0  0  3  0  0  0  0  0  0
  182.0200  179.2180  143.6860 N   0  0  0  0  0  0  0  0  0  0  0  0
  181.3200  179.0220  142.6070 C   0  0  0  0  0  0  0  0  0  0  0  0
  179.9040  179.4600  142.6070 C   0  0  0  0  0  0  0  0  0  0  0  0
  178.9660  178.6450  142.7960 O   0  0  0  0  0  1  0  0  0  0  0  0
  179.6090  180.8020  142.4020 O   0  0  0  0  0  0  0  0  0  0  0  0
  181.8900  178.3570  141.5090 O   0  0  0  0  0  0  0  0  0  0  0  0
  182.8450  176.7230  139.4870 C   0  0  0  0  0  2  0  0  0  0  0  0
  182.5030  176.3300  137.1410 O   0  0  0  0  0  0  0  0  0  0  0  0
  182.0290  178.5800  137.8220 C   0  0  0  0  0  2  0  0  0  0  0  0
  181.7520  178.7950  140.2080 N   0  0  0  0  0  0  0  0  0  0  0  0
  182.2380  178.0890  139.2250 C   0  0  0  0  0  0  0  0  0  0  0  0
  182.7280  177.6850  136.8240 C   0  0  0  0  0  2  0  0  0  0  0  0
  183.3700  176.0690  138.2180 C   0  0  0  0  0  2  0  0  0  0  0  0
  191.3510  176.8900  144.6380 C   0  0  0  0  0  2  0  0  0  0  0  0
  190.1410  176.5070  145.0290 C   0  0  0  0  0  3  0  0  0  0  0  0
  188.1840  177.0490  143.3890 O   0  0  0  0  0  0  0  0  0  0  0  0
  189.2730  178.6980  142.0340 C   0  0  0  0  0  2  0  0  0  0  0  0
  188.2410  177.5880  142.0760 C   0  0  1  0  0  3  0  0  0  0  0  0
  189.6230  177.3170  141.4940 C   0  0  1  0  0  3  0  0  0  0  0  0
  189.5320  177.2660  139.9980 C   0  0  0  0  0  0  0  0  0  0  0  0
  189.4650  177.3120  137.1880 C   0  0  0  0  0  3  0  0  0  0  0  0
  188.3720  177.8050  137.9230 C   0  0  0  0  0  0  0  0  0  0  0  0
  190.5870  176.8050  137.8520 C   0  0  0  0  0  3  0  0  0  0  0  0
  190.6220  176.7860  139.2530 C   0  0  0  0  0  3  0  0  0  0  0  0
  188.4160  177.7860  139.3270 C   0  0  0  0  0  3  0  0  0  0  0  0
  186.0640  178.7240  137.9680 O   0  0  0  0  0  1  0  0  0  0  0  0
  187.2120  178.5440  135.9820 O   0  0  0  0  0  0  0  0  0  0  0  0
  187.1970  178.3630  137.2320 C   0  0  0  0  0  0  0  0  0  0  0  0
  1  3  1  0  0  0  0
  2  4  2  0  0  0  0
  3 10  2  0  0  0  0
  3 11  1  0  0  0  0
  4 12  1  0  0  0  0
  5 11  1  0  0  0  0
  7  1  2  0  0  0  0
  7 12  1  0  0  0  0
  8  6  1  0  0  0  0
  8 15  2  0  0  0  0
  9 14  2  0  0  0  0
  9  2  1  0  0  0  0
 10  8  1  0  0  0  0
 11 13  2  0  0  0  0
 12  5  2  0  0  0  0
 13 15  1  0  0  0  0
 14  7  1  0  0  0  0
 16  2  1  0  0  0  0
 17 18  1  0  0  0  0
 17 16  2  0  0  0  0
 18 19  1  0  0  0  0
 20 18  2  0  0  0  0
 21 17  1  0  0  0  0
 23 28  1  0  0  0  0
 24 26  1  0  0  0  0
 25 21  1  0  0  0  0
 26 22  1  0  0  0  0
 26 25  2  0  0  0  0
 27 23  1  0  0  0  0
 27 24  1  0  0  0  0
 28 22  1  0  0  0  0
 29 30  2  0  0  0  0
 30 10  1  0  0  0  0
 31  1  1  0  0  0  0
 32 33  1  0  0  0  0
 33 31  1  1  0  0  0
 34 35  1  6  0  0  0
 34 32  1  0  0  0  0
 34 33  1  0  0  0  0
 36 38  2  0  0  0  0
 36 37  1  0  0  0  0
 37 40  2  0  0  0  0
 38 39  1  0  0  0  0
 39 35  2  0  0  0  0
 40 35  1  0  0  0  0
 42 43  2  0  0  0  0
 43 37  1  0  0  0  0
 43 41  1  0  0  0  0
M  END
>  <MODEL>
1

>  <REMARK>
 VINA RESULT:     -11.3      0.000      0.000
  Name = 
  9 active torsions:
  status: ('A' for Active; 'I' for Inactive)
    1  A    between atoms: C_2  and  O_43
    2  A    between atoms: C_3  and  N_10
    3  A    between atoms: C_6  and  C_36
    4  A    between atoms: C_11  and  O_43
    5  A    between atoms: C_18  and  C_31
    6  A    between atoms: C_19  and  C_32
    7  A    between atoms: C_20  and  C_38
    8  A    between atoms: N_22  and  O_35
    9  A    between atoms: C_31  and  O_35
                            x       y       z     vdW  Elec       q    Type
                         _______ _______ _______ _____ _____    ______ ____

>  <TORSDO>
F 9

$$$$
=
 OpenBabel10222418573D

 43 48  0  0  1  0  0  0  0  0999 V2000
  187.4050  177.5540  144.3840 C   0  0  0  0  0  0  0  0  0  0  0  0
  183.4050  178.9190  143.8000 C   0  0  0  0  0  0  0  0  0  0  0  0
  187.9790  177.6330  145.6930 C   0  0  0  0  0  0  0  0  0  0  0  0
  184.0160  178.9730  145.0650 C   0  0  0  0  0  3  0  0  0  0  0  0
  185.9090  178.6430  146.5110 C   0  0  0  0  0  3  0  0  0  0  0  0
  191.0560  176.8610  147.7000 O   0  0  0  0  0  1  0  0  0  0  0  0
  186.0770  178.0270  144.1720 C   0  0  0  0  0  0  0  0  0  0  0  0
  189.7810  177.2940  147.3380 C   0  0  0  0  0  0  0  0  0  0  0  0
  184.1430  178.4450  142.7200 C   0  0  0  0  0  3  0  0  0  0  0  0
  189.2900  177.1470  146.0130 C   0  0  0  0  0  0  0  0  0  0  0  0
  187.2030  178.2020  146.7410 C   0  0  0  0  0  0  0  0  0  0  0  0
  185.3330  178.5490  145.2500 C   0  0  0  0  0  0  0  0  0  0  0  0
  187.7140  178.3260  148.0290 C   0  0  0  0  0  3  0  0  0  0  0  0
  185.4650  178.0070  142.9030 C   0  0  0  0  0  3  0  0  0  0  0  0
  188.9910  177.8800  148.3230 C   0  0  0  0  0  3  0  0  0  0  0  0
  182.0240  179.2300  143.6000 N   0  0  0  0  0  0  0  0  0  0  0  0
  181.3190  179.0090  142.5290 C   0  0  0  0  0  0  0  0  0  0  0  0
  179.9060  179.4590  142.5200 C   0  0  0  0  0  0  0  0  0  0  0  0
  178.9580  178.6430  142.6420 O   0  0  0  0  0  1  0  0  0  0  0  0
  179.6260  180.8120  142.3840 O   0  0  0  0  0  0  0  0  0  0  0  0
  181.8810  178.3080  141.4490 O   0  0  0  0  0  0  0  0  0  0  0  0
  182.7760  176.5860  139.4740 C   0  0  0  0  0  2  0  0  0  0  0  0
  182.3870  176.1100  137.1500 O   0  0  0  0  0  0  0  0  0  0  0  0
  181.9570  178.3910  137.7540 C   0  0  0  0  0  2  0  0  0  0  0  0
  181.7250  178.7000  140.1340 N   0  0  0  0  0  0  0  0  0  0  0  0
  182.1840  177.9500  139.1700 C   0  0  0  0  0  0  0  0  0  0  0  0
  182.6250  177.4490  136.7790 C   0  0  0  0  0  2  0  0  0  0  0  0
  183.2700  175.8770  138.2220 C   0  0  0  0  0  2  0  0  0  0  0  0
  191.3350  176.8700  144.5750 C   0  0  0  0  0  2  0  0  0  0  0  0
  190.1280  176.4840  144.9740 C   0  0  0  0  0  3  0  0  0  0  0  0
  188.1780  177.0310  143.3270 O   0  0  0  0  0  0  0  0  0  0  0  0
  188.9180  178.8960  142.0160 C   0  0  0  0  0  2  0  0  0  0  0  0
  188.2200  177.5510  142.0050 C   0  0  1  0  0  3  0  0  0  0  0  0
  189.6750  177.6540  141.5640 C   0  0  1  0  0  3  0  0  0  0  0  0
  189.7510  177.5630  140.0700 C   0  0  0  0  0  0  0  0  0  0  0  0
  189.7280  177.3300  137.2690 C   0  0  0  0  0  3  0  0  0  0  0  0
  190.3950  176.3660  138.0460 C   0  0  0  0  0  0  0  0  0  0  0  0
  189.0720  178.4000  137.8860 C   0  0  0  0  0  3  0  0  0  0  0  0
  189.0790  178.5130  139.2820 C   0  0  0  0  0  3  0  0  0  0  0  0
  190.3950  176.4860  139.4460 C   0  0  0  0  0  3  0  0  0  0  0  0
  190.5570  173.9330  137.5730 O   0  0  0  0  0  1  0  0  0  0  0  0
  192.0890  175.4020  136.6840 O   0  0  0  0  0  0  0  0  0  0  0  0
  191.0680  175.2240  137.4060 C   0  0  0  0  0  0  0  0  0  0  0  0
  1  3  1  0  0  0  0
  2  4  2  0  0  0  0
  3 10  2  0  0  0  0
  3 11  1  0  0  0  0
  4 12  1  0  0  0  0
  5 11  1  0  0  0  0
  7  1  2  0  0  0  0
  7 12  1  0  0  0  0
  8  6  1  0  0  0  0
  8 15  2  0  0  0  0
  9 14  2  0  0  0  0
  9  2  1  0  0  0  0
 10  8  1  0  0  0  0
 11 13  2  0  0  0  0
 12  5  2  0  0  0  0
 13 15  1  0  0  0  0
 14  7  1  0  0  0  0
 16  2  1  0  0  0  0
 17 16  2  0  0  0  0
 18 17  1  0  0  0  0
 18 19  1  0  0  0  0
 20 18  2  0  0  0  0
 21 17  1  0  0  0  0
 23 28  1  0  0  0  0
 24 26  1  0  0  0  0
 25 21  1  0  0  0  0
 26 22  1  0  0  0  0
 26 25  2  0  0  0  0
 27 23  1  0  0  0  0
 27 24  1  0  0  0  0
 28 22  1  0  0  0  0
 29 30  2  0  0  0  0
 30 10  1  0  0  0  0
 31  1  1  0  0  0  0
 33 32  1  0  0  0  0
 33 31  1  1  0  0  0
 34 35  1  6  0  0  0
 34 33  1  0  0  0  0
 34 32  1  0  0  0  0
 36 38  2  0  0  0  0
 36 37  1  0  0  0  0
 37 40  2  0  0  0  0
 38 39  1  0  0  0  0
 39 35  2  0  0  0  0
 40 35  1  0  0  0  0
 42 43  2  0  0  0  0
 43 41  1  0  0  0  0
 43 37  1  0  0  0  0
M  END
>  <MODEL>
2

>  <REMARK>
 VINA RESULT:     -11.2      1.323      1.707
  Name = 
  9 active torsions:
  status: ('A' for Active; 'I' for Inactive)
    1  A    between atoms: C_2  and  O_43
    2  A    between atoms: C_3  and  N_10
    3  A    between atoms: C_6  and  C_36
    4  A    between atoms: C_11  and  O_43
    5  A    between atoms: C_18  and  C_31
    6  A    between atoms: C_19  and  C_32
    7  A    between atoms: C_20  and  C_38
    8  A    between atoms: N_22  and  O_35
    9  A    between atoms: C_31  and  O_35
                            x       y       z     vdW  Elec       q    Type
                         _______ _______ _______ _____ _____    ______ ____

>  <TORSDO>
F 9

$$$$
=
 OpenBabel10222418573D

 43 48  0  0  1  0  0  0  0  0999 V2000
  188.1720  177.9010  143.8970 C   0  0  0  0  0  0  0  0  0  0  0  0
  190.6630  177.1970  140.5060 C   0  0  0  0  0  0  0  0  0  0  0  0
  188.6930  177.6380  145.2040 C   0  0  0  0  0  0  0  0  0  0  0  0
  191.1250  176.9570  141.8110 C   0  0  0  0  0  3  0  0  0  0  0  0
  190.7870  176.8900  144.1910 C   0  0  0  0  0  3  0  0  0  0  0  0
  187.8890  177.7870  148.8680 O   0  0  0  0  0  1  0  0  0  0  0  0
  188.9870  177.6500  142.7550 C   0  0  0  0  0  0  0  0  0  0  0  0
  188.5590  177.5780  147.6630 C   0  0  0  0  0  0  0  0  0  0  0  0
  189.3540  177.6370  140.3280 C   0  0  0  0  0  3  0  0  0  0  0  0
  187.9650  177.8970  146.4130 C   0  0  0  0  0  0  0  0  0  0  0  0
  190.0100  177.1140  145.3170 C   0  0  0  0  0  0  0  0  0  0  0  0
  190.3010  177.1640  142.9190 C   0  0  0  0  0  0  0  0  0  0  0  0
  190.5630  176.8170  146.5590 C   0  0  0  0  0  3  0  0  0  0  0  0
  188.5250  177.8560  141.4400 C   0  0  0  0  0  3  0  0  0  0  0  0
  189.8430  177.0450  147.7200 C   0  0  0  0  0  3  0  0  0  0  0  0
  191.5150  177.1130  139.3610 N   0  0  0  0  0  0  0  0  0  0  0  0
  191.5570  176.1530  138.4840 C   0  0  0  0  0  0  0  0  0  0  0  0
  192.5580  176.2460  137.3950 C   0  0  0  0  0  0  0  0  0  0  0  0
  192.2110  176.3150  136.1890 O   0  0  0  0  0  0  0  0  0  0  0  0
  193.9090  176.2680  137.7160 O   0  0  0  0  0  1  0  0  0  0  0  0
  190.6300  175.0990  138.5490 O   0  0  0  0  0  0  0  0  0  0  0  0
  188.4190  174.9790  136.8860 C   0  0  0  0  0  2  0  0  0  0  0  0
  187.7920  174.0940  134.7410 O   0  0  0  0  0  0  0  0  0  0  0  0
  189.5340  172.8530  135.8250 C   0  0  0  0  0  2  0  0  0  0  0  0
  190.5790  174.0810  137.6190 N   0  0  0  0  0  0  0  0  0  0  0  0
  189.5310  173.9470  136.8530 C   0  0  0  0  0  0  0  0  0  0  0  0
  188.2140  172.7960  135.0910 C   0  0  0  0  0  2  0  0  0  0  0  0
  187.2810  174.6340  135.9360 C   0  0  0  0  0  2  0  0  0  0  0  0
  185.4750  177.9320  146.7660 C   0  0  0  0  0  2  0  0  0  0  0  0
  186.6040  178.5040  146.3640 C   0  0  0  0  0  3  0  0  0  0  0  0
  186.8520  178.3810  143.7680 O   0  0  0  0  0  0  0  0  0  0  0  0
  184.5050  178.3500  143.2830 C   0  0  0  0  0  2  0  0  0  0  0  0
  185.8830  177.8860  142.8540 C   0  0  1  0  0  3  0  0  0  0  0  0
  185.2270  179.0660  142.1480 C   0  0  1  0  0  3  0  0  0  0  0  0
  184.7250  178.6250  140.8060 C   0  0  0  0  0  0  0  0  0  0  0  0
  183.8060  177.6340  138.3410 C   0  0  0  0  0  3  0  0  0  0  0  0
  185.1120  178.1460  138.4470 C   0  0  0  0  0  0  0  0  0  0  0  0
  182.9660  177.6120  139.4590 C   0  0  0  0  0  3  0  0  0  0  0  0
  183.4260  178.1020  140.6880 C   0  0  0  0  0  3  0  0  0  0  0  0
  185.5660  178.6320  139.6850 C   0  0  0  0  0  3  0  0  0  0  0  0
  187.2980  178.6860  137.3960 O   0  0  0  0  0  1  0  0  0  0  0  0
  185.6400  177.6500  136.1820 O   0  0  0  0  0  0  0  0  0  0  0  0
  186.0110  178.1510  137.2810 C   0  0  0  0  0  0  0  0  0  0  0  0
  1  3  1  0  0  0  0
  2  4  2  0  0  0  0
  3 11  2  0  0  0  0
  3 10  1  0  0  0  0
  4 12  1  0  0  0  0
  5 11  1  0  0  0  0
  7 12  1  0  0  0  0
  7  1  2  0  0  0  0
  8 15  1  0  0  0  0
  8  6  1  0  0  0  0
  9  2  1  0  0  0  0
  9 14  2  0  0  0  0
 10  8  2  0  0  0  0
 11 13  1  0  0  0  0
 12  5  2  0  0  0  0
 13 15  2  0  0  0  0
 14  7  1  0  0  0  0
 16  2  1  0  0  0  0
 17 21  1  0  0  0  0
 17 16  2  0  0  0  0
 18 20  1  0  0  0  0
 18 17  1  0  0  0  0
 19 18  2  0  0  0  0
 23 27  1  0  0  0  0
 23 28  1  0  0  0  0
 24 26  1  0  0  0  0
 25 21  1  0  0  0  0
 26 22  1  0  0  0  0
 26 25  2  0  0  0  0
 27 24  1  0  0  0  0
 28 22  1  0  0  0  0
 30 10  1  0  0  0  0
 30 29  2  0  0  0  0
 31  1  1  0  0  0  0
 33 32  1  0  0  0  0
 33 31  1  1  0  0  0
 34 35  1  6  0  0  0
 34 33  1  0  0  0  0
 34 32  1  0  0  0  0
 36 37  2  0  0  0  0
 36 38  1  0  0  0  0
 37 40  1  0  0  0  0
 38 39  2  0  0  0  0
 39 35  1  0  0  0  0
 40 35  2  0  0  0  0
 42 43  2  0  0  0  0
 43 41  1  0  0  0  0
 43 37  1  0  0  0  0
M  END
>  <MODEL>
3

>  <REMARK>
 VINA RESULT:     -10.9      3.378      6.921
  Name = 
  9 active torsions:
  status: ('A' for Active; 'I' for Inactive)
    1  A    between atoms: C_2  and  O_43
    2  A    between atoms: C_3  and  N_10
    3  A    between atoms: C_6  and  C_36
    4  A    between atoms: C_11  and  O_43
    5  A    between atoms: C_18  and  C_31
    6  A    between atoms: C_19  and  C_32
    7  A    between atoms: C_20  and  C_38
    8  A    between atoms: N_22  and  O_35
    9  A    between atoms: C_31  and  O_35
                            x       y       z     vdW  Elec       q    Type
                         _______ _______ _______ _____ _____    ______ ____

>  <TORSDO>
F 9

$$$$
=
 OpenBabel10222418573D

 43 48  0  0  1  0  0  0  0  0999 V2000
  188.3930  177.8520  143.7630 C   0  0  0  0  0  0  0  0  0  0  0  0
  188.4520  177.9050  139.4980 C   0  0  0  0  0  0  0  0  0  0  0  0
  189.5280  177.3340  144.4650 C   0  0  0  0  0  0  0  0  0  0  0  0
  189.5410  177.4090  140.2350 C   0  0  0  0  0  3  0  0  0  0  0  0
  190.5960  176.8470  142.3220 C   0  0  0  0  0  3  0  0  0  0  0  0
  190.9480  176.7110  147.8830 O   0  0  0  0  0  1  0  0  0  0  0  0
  188.3920  177.8550  142.3380 C   0  0  0  0  0  0  0  0  0  0  0  0
  190.7970  176.7660  146.4980 C   0  0  0  0  0  0  0  0  0  0  0  0
  187.3250  178.3500  140.1840 C   0  0  0  0  0  3  0  0  0  0  0  0
  189.6390  177.3250  145.8950 C   0  0  0  0  0  0  0  0  0  0  0  0
  190.6170  176.8200  143.7080 C   0  0  0  0  0  0  0  0  0  0  0  0
  189.5110  177.3690  141.6300 C   0  0  0  0  0  0  0  0  0  0  0  0
  191.7390  176.2830  144.3310 C   0  0  0  0  0  3  0  0  0  0  0  0
  187.2940  178.3210  141.5870 C   0  0  0  0  0  3  0  0  0  0  0  0
  191.8260  176.2540  145.7130 C   0  0  0  0  0  3  0  0  0  0  0  0
  188.4970  178.0740  138.0790 N   0  0  0  0  0  0  0  0  0  0  0  0
  188.0020  177.2760  137.1790 C   0  0  0  0  0  0  0  0  0  0  0  0
  188.2070  177.6210  135.7520 C   0  0  0  0  0  0  0  0  0  0  0  0
  189.2720  177.3260  135.1530 O   0  0  0  0  0  1  0  0  0  0  0  0
  187.1970  178.2760  135.0610 O   0  0  0  0  0  0  0  0  0  0  0  0
  187.2440  176.1590  137.5700 O   0  0  0  0  0  0  0  0  0  0  0  0
  184.7010  177.2450  137.7070 C   0  0  0  0  0  2  0  0  0  0  0  0
  182.7050  177.4000  136.3770 O   0  0  0  0  0  0  0  0  0  0  0  0
  184.0060  175.4330  135.9410 C   0  0  0  0  0  2  0  0  0  0  0  0
  186.2610  175.6000  136.7770 N   0  0  0  0  0  0  0  0  0  0  0  0
  185.0350  176.0380  136.8510 C   0  0  0  0  0  0  0  0  0  0  0  0
  182.6330  176.0010  136.2210 C   0  0  0  0  0  2  0  0  0  0  0  0
  183.2180  177.5860  137.6740 C   0  0  0  0  0  2  0  0  0  0  0  0
  187.9480  177.3030  147.7570 C   0  0  0  0  0  2  0  0  0  0  0  0
  188.5600  177.9060  146.7430 C   0  0  0  0  0  3  0  0  0  0  0  0
  187.2880  178.3250  144.5020 O   0  0  0  0  0  0  0  0  0  0  0  0
  185.1080  178.3480  145.4960 C   0  0  0  0  0  2  0  0  0  0  0  0
  185.9350  177.9450  144.2910 C   0  0  1  0  0  3  0  0  0  0  0  0
  185.0760  179.2020  144.2340 C   0  0  1  0  0  3  0  0  0  0  0  0
  183.8520  178.9310  143.4110 C   0  0  0  0  0  0  0  0  0  0  0  0
  181.5680  178.5880  141.8090 C   0  0  0  0  0  3  0  0  0  0  0  0
  181.4280  178.7990  143.1920 C   0  0  0  0  0  0  0  0  0  0  0  0
  182.8410  178.5540  141.2280 C   0  0  0  0  0  3  0  0  0  0  0  0
  183.9780  178.7290  142.0260 C   0  0  0  0  0  3  0  0  0  0  0  0
  182.5740  178.9770  143.9850 C   0  0  0  0  0  3  0  0  0  0  0  0
  179.3080  180.0080  143.6600 O   0  0  0  0  0  0  0  0  0  0  0  0
  179.6340  177.8710  144.4490 O   0  0  0  0  0  1  0  0  0  0  0  0
  180.0920  178.8590  143.8080 C   0  0  0  0  0  0  0  0  0  0  0  0
  1  3  1  0  0  0  0
  1 31  1  0  0  0  0
  2  9  1  0  0  0  0
  2  4  2  0  0  0  0
  3 10  1  0  0  0  0
  4 12  1  0  0  0  0
  5 11  1  0  0  0  0
  7  1  2  0  0  0  0
  8  6  1  0  0  0  0
  9 14  2  0  0  0  0
 10  8  2  0  0  0  0
 10 30  1  0  0  0  0
 11 13  1  0  0  0  0
 11  3  2  0  0  0  0
 12  5  2  0  0  0  0
 12  7  1  0  0  0  0
 13 15  2  0  0  0  0
 14  7  1  0  0  0  0
 15  8  1  0  0  0  0
 16  2  1  0  0  0  0
 17 21  1  0  0  0  0
 17 16  2  0  0  0  0
 18 17  1  0  0  0  0
 19 18  1  0  0  0  0
 20 18  2  0  0  0  0
 23 28  1  0  0  0  0
 24 27  1  0  0  0  0
 24 26  1  0  0  0  0
 25 26  2  0  0  0  0
 25 21  1  0  0  0  0
 26 22  1  0  0  0  0
 27 23  1  0  0  0  0
 28 22  1  0  0  0  0
 30 29  2  0  0  0  0
 33 31  1  1  0  0  0
 33 32  1  0  0  0  0
 34 35  1  6  0  0  0
 34 33  1  0  0  0  0
 34 32  1  0  0  0  0
 35 40  1  0  0  0  0
 36 37  1  0  0  0  0
 37 43  1  0  0  0  0
 37 40  2  0  0  0  0
 38 36  2  0  0  0  0
 38 39  1  0  0  0  0
 39 35  2  0  0  0  0
 41 43  2  0  0  0  0
 43 42  1  0  0  0  0
M  END
>  <MODEL>
4

>  <REMARK>
 VINA RESULT:     -10.9      2.168      6.457
  Name = 
  9 active torsions:
  status: ('A' for Active; 'I' for Inactive)
    1  A    between atoms: C_2  and  O_43
    2  A    between atoms: C_3  and  N_10
    3  A    between atoms: C_6  and  C_36
    4  A    between atoms: C_11  and  O_43
    5  A    between atoms: C_18  and  C_31
    6  A    between atoms: C_19  and  C_32
    7  A    between atoms: C_20  and  C_38
    8  A    between atoms: N_22  and  O_35
    9  A    between atoms: C_31  and  O_35
                            x       y       z     vdW  Elec       q    Type
                         _______ _______ _______ _____ _____    ______ ____

>  <TORSDO>
F 9

$$$$
=
 OpenBabel10222418573D

 43 48  0  0  1  0  0  0  0  0999 V2000
  188.2280  177.8690  143.9900 C   0  0  0  0  0  0  0  0  0  0  0  0
  188.0950  178.0020  139.7280 C   0  0  0  0  0  0  0  0  0  0  0  0
  189.4120  177.3800  144.6300 C   0  0  0  0  0  0  0  0  0  0  0  0
  189.2330  177.5320  140.4070 C   0  0  0  0  0  3  0  0  0  0  0  0
  190.4000  176.9710  142.4330 C   0  0  0  0  0  3  0  0  0  0  0  0
  191.0050  176.7470  147.9700 O   0  0  0  0  0  1  0  0  0  0  0  0
  188.1640  177.8980  142.5670 C   0  0  0  0  0  0  0  0  0  0  0  0
  190.7900  176.8220  146.5950 C   0  0  0  0  0  0  0  0  0  0  0  0
  186.9850  178.3920  140.4720 C   0  0  0  0  0  3  0  0  0  0  0  0
  189.5870  177.3500  146.0540 C   0  0  0  0  0  0  0  0  0  0  0  0
  190.4840  176.9200  143.8160 C   0  0  0  0  0  0  0  0  0  0  0  0
  189.2660  177.4660  141.8010 C   0  0  0  0  0  0  0  0  0  0  0  0
  191.6500  176.4130  144.3790 C   0  0  0  0  0  3  0  0  0  0  0  0
  187.0180  178.3370  141.8750 C   0  0  0  0  0  3  0  0  0  0  0  0
  191.8000  176.3620  145.7550 C   0  0  0  0  0  3  0  0  0  0  0  0
  188.0700  178.1970  138.3120 N   0  0  0  0  0  0  0  0  0  0  0  0
  188.2130  177.2880  137.3930 C   0  0  0  0  0  0  0  0  0  0  0  0
  188.2030  177.7220  135.9760 C   0  0  0  0  0  0  0  0  0  0  0  0
  189.2710  177.8860  135.3330 O   0  0  0  0  0  0  0  0  0  0  0  0
  186.9870  177.9420  135.3430 O   0  0  0  0  0  1  0  0  0  0  0  0
  188.3100  175.9330  137.7530 O   0  0  0  0  0  0  0  0  0  0  0  0
  191.0600  175.7060  137.9790 C   0  0  0  0  0  2  0  0  0  0  0  0
  192.7990  174.0910  137.5950 O   0  0  0  0  0  0  0  0  0  0  0  0
  190.8920  173.8160  136.1660 C   0  0  0  0  0  2  0  0  0  0  0  0
  188.9450  174.9890  136.9710 N   0  0  0  0  0  0  0  0  0  0  0  0
  190.2450  174.8840  136.9980 C   0  0  0  0  0  0  0  0  0  0  0  0
  192.3990  173.8970  136.2570 C   0  0  0  0  0  2  0  0  0  0  0  0
  192.5550  175.4550  137.8430 C   0  0  0  0  0  2  0  0  0  0  0  0
  187.9290  177.2070  147.9400 C   0  0  0  0  0  2  0  0  0  0  0  0
  188.5270  177.8750  146.9600 C   0  0  0  0  0  3  0  0  0  0  0  0
  187.1420  178.2890  144.7860 O   0  0  0  0  0  0  0  0  0  0  0  0
  184.9620  178.3580  145.7790 C   0  0  0  0  0  2  0  0  0  0  0  0
  185.7850  177.9190  144.5840 C   0  0  1  0  0  3  0  0  0  0  0  0
  184.9400  179.1840  144.4990 C   0  0  1  0  0  3  0  0  0  0  0  0
  183.7130  178.9080  143.6830 C   0  0  0  0  0  0  0  0  0  0  0  0
  181.4130  178.5610  142.1040 C   0  0  0  0  0  3  0  0  0  0  0  0
  181.2930  178.6710  143.5010 C   0  0  0  0  0  0  0  0  0  0  0  0
  182.6720  178.6290  141.4980 C   0  0  0  0  0  3  0  0  0  0  0  0
  183.8180  178.8070  142.2850 C   0  0  0  0  0  3  0  0  0  0  0  0
  182.4470  178.8530  144.2820 C   0  0  0  0  0  3  0  0  0  0  0  0
  179.1370  179.7470  144.1070 O   0  0  0  0  0  0  0  0  0  0  0  0
  179.5670  177.5670  144.7080 O   0  0  0  0  0  1  0  0  0  0  0  0
  179.9700  178.6240  144.1440 C   0  0  0  0  0  0  0  0  0  0  0  0
  1  3  1  0  0  0  0
  1 31  1  0  0  0  0
  2  4  2  0  0  0  0
  2  9  1  0  0  0  0
  3 10  1  0  0  0  0
  4 12  1  0  0  0  0
  5 11  1  0  0  0  0
  7  1  2  0  0  0  0
  8  6  1  0  0  0  0
  9 14  2  0  0  0  0
 10  8  2  0  0  0  0
 10 30  1  0  0  0  0
 11 13  1  0  0  0  0
 11  3  2  0  0  0  0
 12  5  2  0  0  0  0
 12  7  1  0  0  0  0
 13 15  2  0  0  0  0
 14  7  1  0  0  0  0
 15  8  1  0  0  0  0
 16  2  1  0  0  0  0
 17 21  1  0  0  0  0
 17 16  2  0  0  0  0
 18 17  1  0  0  0  0
 19 18  2  0  0  0  0
 20 18  1  0  0  0  0
 23 28  1  0  0  0  0
 24 27  1  0  0  0  0
 24 26  1  0  0  0  0
 25 26  2  0  0  0  0
 25 21  1  0  0  0  0
 26 22  1  0  0  0  0
 27 23  1  0  0  0  0
 28 22  1  0  0  0  0
 30 29  2  0  0  0  0
 33 31  1  1  0  0  0
 33 32  1  0  0  0  0
 34 35  1  6  0  0  0
 34 33  1  0  0  0  0
 34 32  1  0  0  0  0
 35 40  1  0  0  0  0
 36 37  1  0  0  0  0
 37 43  1  0  0  0  0
 37 40  2  0  0  0  0
 38 36  2  0  0  0  0
 38 39  1  0  0  0  0
 39 35  2  0  0  0  0
 41 43  2  0  0  0  0
 43 42  1  0  0  0  0
M  END
>  <MODEL>
5

>  <REMARK>
 VINA RESULT:     -10.8      2.535      7.400
  Name = 
  9 active torsions:
  status: ('A' for Active; 'I' for Inactive)
    1  A    between atoms: C_2  and  O_43
    2  A    between atoms: C_3  and  N_10
    3  A    between atoms: C_6  and  C_36
    4  A    between atoms: C_11  and  O_43
    5  A    between atoms: C_18  and  C_31
    6  A    between atoms: C_19  and  C_32
    7  A    between atoms: C_20  and  C_38
    8  A    between atoms: N_22  and  O_35
    9  A    between atoms: C_31  and  O_35
                            x       y       z     vdW  Elec       q    Type
                         _______ _______ _______ _____ _____    ______ ____

>  <TORSDO>
F 9

$$$$
=
 OpenBabel10222418573D

 43 48  0  0  1  0  0  0  0  0999 V2000
  188.3830  177.7860  143.5640 C   0  0  0  0  0  0  0  0  0  0  0  0
  188.4560  177.7800  139.2980 C   0  0  0  0  0  0  0  0  0  0  0  0
  189.5040  177.2530  144.2760 C   0  0  0  0  0  0  0  0  0  0  0  0
  189.5310  177.2700  140.0460 C   0  0  0  0  0  3  0  0  0  0  0  0
  190.5680  176.7130  142.1430 C   0  0  0  0  0  3  0  0  0  0  0  0
  190.9000  176.6450  147.7070 O   0  0  0  0  0  1  0  0  0  0  0  0
  188.3860  177.7700  142.1390 C   0  0  0  0  0  0  0  0  0  0  0  0
  190.7540  176.6840  146.3210 C   0  0  0  0  0  0  0  0  0  0  0  0
  187.3370  178.2580  139.9740 C   0  0  0  0  0  3  0  0  0  0  0  0
  189.6110  177.2610  145.7070 C   0  0  0  0  0  0  0  0  0  0  0  0
  190.5840  176.7050  143.5300 C   0  0  0  0  0  0  0  0  0  0  0  0
  189.4960  177.2490  141.4410 C   0  0  0  0  0  0  0  0  0  0  0  0
  191.6920  176.1520  144.1640 C   0  0  0  0  0  3  0  0  0  0  0  0
  187.3020  178.2500  141.3780 C   0  0  0  0  0  3  0  0  0  0  0  0
  191.7740  176.1390  145.5460 C   0  0  0  0  0  3  0  0  0  0  0  0
  188.5090  177.9270  137.8770 N   0  0  0  0  0  0  0  0  0  0  0  0
  188.0310  177.1090  136.9860 C   0  0  0  0  0  0  0  0  0  0  0  0
  188.2420  177.4360  135.5550 C   0  0  0  0  0  0  0  0  0  0  0  0
  189.3860  177.3960  135.0360 O   0  0  0  0  0  1  0  0  0  0  0  0
  187.1500  177.7840  134.7710 O   0  0  0  0  0  0  0  0  0  0  0  0
  187.2860  175.9880  137.3880 O   0  0  0  0  0  0  0  0  0  0  0  0
  186.1860  173.4770  136.9990 C   0  0  0  0  0  2  0  0  0  0  0  0
  184.0890  172.3360  137.2820 O   0  0  0  0  0  0  0  0  0  0  0  0
  183.8610  174.6890  136.8830 C   0  0  0  0  0  2  0  0  0  0  0  0
  185.9160  175.9010  137.2390 N   0  0  0  0  0  0  0  0  0  0  0  0
  185.3570  174.7480  136.9950 C   0  0  0  0  0  0  0  0  0  0  0  0
  183.3990  173.2970  136.5170 C   0  0  0  0  0  2  0  0  0  0  0  0
  185.3560  172.2430  136.6750 C   0  0  0  0  0  2  0  0  0  0  0  0
  187.9130  177.3020  147.5620 C   0  0  0  0  0  2  0  0  0  0  0  0
  188.5420  177.8770  146.5430 C   0  0  0  0  0  3  0  0  0  0  0  0
  187.2870  178.2940  144.2920 O   0  0  0  0  0  0  0  0  0  0  0  0
  185.1290  178.2930  145.3340 C   0  0  0  0  0  2  0  0  0  0  0  0
  185.9300  177.9200  144.1020 C   0  0  1  0  0  3  0  0  0  0  0  0
  185.0700  179.1770  144.0950 C   0  0  1  0  0  3  0  0  0  0  0  0
  183.8280  178.9270  143.2930 C   0  0  0  0  0  0  0  0  0  0  0  0
  181.5100  178.6250  141.7320 C   0  0  0  0  0  3  0  0  0  0  0  0
  181.3990  178.8130  143.1210 C   0  0  0  0  0  0  0  0  0  0  0  0
  182.7700  178.5930  141.1250 C   0  0  0  0  0  3  0  0  0  0  0  0
  183.9250  178.7490  141.9030 C   0  0  0  0  0  3  0  0  0  0  0  0
  182.5630  178.9710  143.8930 C   0  0  0  0  0  3  0  0  0  0  0  0
  179.3260  180.0490  143.7090 O   0  0  0  0  0  0  0  0  0  0  0  0
  179.6000  177.8550  144.3460 O   0  0  0  0  0  1  0  0  0  0  0  0
  180.0770  178.8700  143.7650 C   0  0  0  0  0  0  0  0  0  0  0  0
  1  3  1  0  0  0  0
  1 31  1  0  0  0  0
  2  9  1  0  0  0  0
  2  4  2  0  0  0  0
  3 10  1  0  0  0  0
  4 12  1  0  0  0  0
  5 11  1  0  0  0  0
  7  1  2  0  0  0  0
  8  6  1  0  0  0  0
  9 14  2  0  0  0  0
 10  8  2  0  0  0  0
 10 30  1  0  0  0  0
 11 13  1  0  0  0  0
 11  3  2  0  0  0  0
 12  7  1  0  0  0  0
 12  5  2  0  0  0  0
 13 15  2  0  0  0  0
 14  7  1  0  0  0  0
 15  8  1  0  0  0  0
 16  2  1  0  0  0  0
 17 21  1  0  0  0  0
 17 16  2  0  0  0  0
 18 17  1  0  0  0  0
 19 18  1  0  0  0  0
 20 18  2  0  0  0  0
 24 26  1  0  0  0  0
 25 21  1  0  0  0  0
 26 22  1  0  0  0  0
 26 25  2  0  0  0  0
 27 24  1  0  0  0  0
 27 23  1  0  0  0  0
 28 22  1  0  0  0  0
 28 23  1  0  0  0  0
 30 29  2  0  0  0  0
 33 31  1  1  0  0  0
 33 32  1  0  0  0  0
 34 35  1  6  0  0  0
 34 33  1  0  0  0  0
 34 32  1  0  0  0  0
 35 40  1  0  0  0  0
 36 37  1  0  0  0  0
 37 43  1  0  0  0  0
 37 40  2  0  0  0  0
 38 36  2  0  0  0  0
 38 39  1  0  0  0  0
 39 35  2  0  0  0  0
 41 43  2  0  0  0  0
 43 42  1  0  0  0  0
M  END
>  <MODEL>
6

>  <REMARK>
 VINA RESULT:     -10.8      2.303      6.647
  Name = 
  9 active torsions:
  status: ('A' for Active; 'I' for Inactive)
    1  A    between atoms: C_2  and  O_43
    2  A    between atoms: C_3  and  N_10
    3  A    between atoms: C_6  and  C_36
    4  A    between atoms: C_11  and  O_43
    5  A    between atoms: C_18  and  C_31
    6  A    between atoms: C_19  and  C_32
    7  A    between atoms: C_20  and  C_38
    8  A    between atoms: N_22  and  O_35
    9  A    between atoms: C_31  and  O_35
                            x       y       z     vdW  Elec       q    Type
                         _______ _______ _______ _____ _____    ______ ____

>  <TORSDO>
F 9

$$$$
=
 OpenBabel10222418573D

 43 48  0  0  1  0  0  0  0  0999 V2000
  185.8060  178.2350  142.2860 C   0  0  0  0  0  0  0  0  0  0  0  0
  189.7660  177.8120  140.7550 C   0  0  0  0  0  0  0  0  0  0  0  0
  184.7470  178.5680  141.3830 C   0  0  0  0  0  0  0  0  0  0  0  0
  188.6900  178.1360  139.9110 C   0  0  0  0  0  3  0  0  0  0  0  0
  186.3670  178.6460  139.5540 C   0  0  0  0  0  3  0  0  0  0  0  0
  181.0500  179.1750  141.1450 O   0  0  0  0  0  1  0  0  0  0  0  0
  187.1370  178.1120  141.7900 C   0  0  0  0  0  0  0  0  0  0  0  0
  182.3970  179.0350  140.8110 C   0  0  0  0  0  0  0  0  0  0  0  0
  189.5280  177.6650  142.1190 C   0  0  0  0  0  3  0  0  0  0  0  0
  183.3720  178.6740  141.7780 C   0  0  0  0  0  0  0  0  0  0  0  0
  185.0660  178.7840  140.0130 C   0  0  0  0  0  0  0  0  0  0  0  0
  187.3990  178.2990  140.4170 C   0  0  0  0  0  0  0  0  0  0  0  0
  184.0840  179.1320  139.0910 C   0  0  0  0  0  3  0  0  0  0  0  0
  188.2290  177.8180  142.6310 C   0  0  0  0  0  3  0  0  0  0  0  0
  182.7630  179.2590  139.4880 C   0  0  0  0  0  3  0  0  0  0  0  0
  191.0730  177.5190  140.2560 N   0  0  0  0  0  0  0  0  0  0  0  0
  191.3700  176.8330  139.1910 C   0  0  0  0  0  0  0  0  0  0  0  0
  192.8030  176.6090  138.8840 C   0  0  0  0  0  0  0  0  0  0  0  0
  193.7110  177.1930  139.5270 O   0  0  0  0  0  1  0  0  0  0  0  0
  193.1480  175.7270  137.8680 O   0  0  0  0  0  0  0  0  0  0  0  0
  190.3490  176.3820  138.3380 O   0  0  0  0  0  0  0  0  0  0  0  0
  187.8390  176.0020  137.2310 C   0  0  0  0  0  2  0  0  0  0  0  0
  186.3790  177.0240  135.6190 O   0  0  0  0  0  0  0  0  0  0  0  0
  188.7080  177.3950  135.1840 C   0  0  0  0  0  2  0  0  0  0  0  0
  190.1000  176.9380  137.1000 N   0  0  0  0  0  0  0  0  0  0  0  0
  188.9540  176.7370  136.5110 C   0  0  0  0  0  0  0  0  0  0  0  0
  187.3690  176.9860  134.6160 C   0  0  0  0  0  2  0  0  0  0  0  0
  186.5930  175.8540  136.3720 C   0  0  0  0  0  2  0  0  0  0  0  0
  182.4290  179.2700  144.0330 C   0  0  0  0  0  2  0  0  0  0  0  0
  182.9650  178.3990  143.1860 C   0  0  0  0  0  3  0  0  0  0  0  0
  185.5110  178.0600  143.6540 O   0  0  0  0  0  0  0  0  0  0  0  0
  185.4600  178.7210  145.9570 C   0  0  0  0  0  2  0  0  0  0  0  0
  186.3260  178.4960  144.7330 C   0  0  1  0  0  3  0  0  0  0  0  0
  186.2850  177.4460  145.8350 C   0  0  1  0  0  3  0  0  0  0  0  0
  187.5460  177.5210  146.6420 C   0  0  0  0  0  0  0  0  0  0  0  0
  189.9180  177.8340  148.1180 C   0  0  0  0  0  3  0  0  0  0  0  0
  189.9640  177.2730  146.8300 C   0  0  0  0  0  0  0  0  0  0  0  0
  188.6960  178.2420  148.6650 C   0  0  0  0  0  3  0  0  0  0  0  0
  187.5150  178.0900  147.9270 C   0  0  0  0  0  3  0  0  0  0  0  0
  188.7750  177.1270  146.0950 C   0  0  0  0  0  3  0  0  0  0  0  0
  192.2520  176.3310  147.0530 O   0  0  0  0  0  1  0  0  0  0  0  0
  191.4420  176.9610  144.9930 O   0  0  0  0  0  0  0  0  0  0  0  0
  191.2480  176.8620  146.2380 C   0  0  0  0  0  0  0  0  0  0  0  0
  1 31  1  0  0  0  0
  2  9  1  0  0  0  0
  3 10  1  0  0  0  0
  3  1  2  0  0  0  0
  4 12  1  0  0  0  0
  4  2  2  0  0  0  0
  5 11  2  0  0  0  0
  5 12  1  0  0  0  0
  7  1  1  0  0  0  0
  7 14  1  0  0  0  0
  8  6  1  0  0  0  0
  8 10  2  0  0  0  0
  9 14  2  0  0  0  0
 10 30  1  0  0  0  0
 11  3  1  0  0  0  0
 12  7  2  0  0  0  0
 13 15  2  0  0  0  0
 13 11  1  0  0  0  0
 15  8  1  0  0  0  0
 16  2  1  0  0  0  0
 17 16  2  0  0  0  0
 18 17  1  0  0  0  0
 18 19  1  0  0  0  0
 20 18  2  0  0  0  0
 21 17  1  0  0  0  0
 23 28  1  0  0  0  0
 24 26  1  0  0  0  0
 25 21  1  0  0  0  0
 26 25  2  0  0  0  0
 26 22  1  0  0  0  0
 27 24  1  0  0  0  0
 27 23  1  0  0  0  0
 28 22  1  0  0  0  0
 30 29  2  0  0  0  0
 33 31  1  6  0  0  0
 33 34  1  0  0  0  0
 33 32  1  0  0  0  0
 34 32  1  0  0  0  0
 34 35  1  1  0  0  0
 35 39  1  0  0  0  0
 36 38  1  0  0  0  0
 37 36  2  0  0  0  0
 39 38  2  0  0  0  0
 40 35  2  0  0  0  0
 40 37  1  0  0  0  0
 42 43  2  0  0  0  0
 43 37  1  0  0  0  0
 43 41  1  0  0  0  0
M  END
>  <MODEL>
7

>  <REMARK>
 VINA RESULT:     -10.8      2.982      8.518
  Name = 
  9 active torsions:
  status: ('A' for Active; 'I' for Inactive)
    1  A    between atoms: C_2  and  O_43
    2  A    between atoms: C_3  and  N_10
    3  A    between atoms: C_6  and  C_36
    4  A    between atoms: C_11  and  O_43
    5  A    between atoms: C_18  and  C_31
    6  A    between atoms: C_19  and  C_32
    7  A    between atoms: C_20  and  C_38
    8  A    between atoms: N_22  and  O_35
    9  A    between atoms: C_31  and  O_35
                            x       y       z     vdW  Elec       q    Type
                         _______ _______ _______ _____ _____    ______ ____

>  <TORSDO>
F 9

$$$$
=
 OpenBabel10222418573D

 43 48  0  0  1  0  0  0  0  0999 V2000
  188.3400  177.8200  143.8570 C   0  0  0  0  0  0  0  0  0  0  0  0
  188.0690  178.0210  139.6040 C   0  0  0  0  0  0  0  0  0  0  0  0
  189.5190  177.2640  144.4490 C   0  0  0  0  0  0  0  0  0  0  0  0
  189.2040  177.4860  140.2370 C   0  0  0  0  0  3  0  0  0  0  0  0
  190.4100  176.8380  142.2140 C   0  0  0  0  0  3  0  0  0  0  0  0
  191.1900  176.5040  147.7240 O   0  0  0  0  0  1  0  0  0  0  0  0
  188.2290  177.8730  142.4370 C   0  0  0  0  0  0  0  0  0  0  0  0
  190.9330  176.6090  146.3570 C   0  0  0  0  0  0  0  0  0  0  0  0
  187.0060  178.4560  140.3900 C   0  0  0  0  0  3  0  0  0  0  0  0
  189.7410  177.2040  145.8660 C   0  0  0  0  0  0  0  0  0  0  0  0
  190.5380  176.7630  143.5930 C   0  0  0  0  0  0  0  0  0  0  0  0
  189.2820  177.3980  141.6280 C   0  0  0  0  0  0  0  0  0  0  0  0
  191.6960  176.1910  144.1080 C   0  0  0  0  0  3  0  0  0  0  0  0
  187.0840  178.3790  141.7900 C   0  0  0  0  0  3  0  0  0  0  0  0
  191.8900  176.1120  145.4770 C   0  0  0  0  0  3  0  0  0  0  0  0
  188.0060  178.2380  138.1920 N   0  0  0  0  0  0  0  0  0  0  0  0
  187.8750  177.3350  137.2660 C   0  0  0  0  0  0  0  0  0  0  0  0
  187.8820  177.7800  135.8520 C   0  0  0  0  0  0  0  0  0  0  0  0
  186.8340  178.1820  135.2860 O   0  0  0  0  0  1  0  0  0  0  0  0
  189.0750  177.7610  135.1410 O   0  0  0  0  0  0  0  0  0  0  0  0
  187.6690  175.9900  137.6180 O   0  0  0  0  0  0  0  0  0  0  0  0
  185.8140  173.9730  137.2230 C   0  0  0  0  0  2  0  0  0  0  0  0
  185.2970  172.2520  135.6260 O   0  0  0  0  0  0  0  0  0  0  0  0
  187.6240  172.8250  135.7090 C   0  0  0  0  0  2  0  0  0  0  0  0
  188.0290  174.9340  136.8050 N   0  0  0  0  0  0  0  0  0  0  0  0
  187.2130  173.9320  136.6360 C   0  0  0  0  0  0  0  0  0  0  0  0
  186.5980  171.7150  135.7000 C   0  0  0  0  0  2  0  0  0  0  0  0
  185.0260  172.7050  136.9310 C   0  0  0  0  0  2  0  0  0  0  0  0
  188.1850  177.1330  147.8410 C   0  0  0  0  0  2  0  0  0  0  0  0
  188.7390  177.7680  146.8150 C   0  0  0  0  0  3  0  0  0  0  0  0
  187.3040  178.2820  144.6950 O   0  0  0  0  0  0  0  0  0  0  0  0
  185.2080  178.2570  145.8570 C   0  0  0  0  0  2  0  0  0  0  0  0
  185.9290  177.9520  144.5580 C   0  0  1  0  0  3  0  0  0  0  0  0
  185.1040  179.2260  144.6870 C   0  0  1  0  0  3  0  0  0  0  0  0
  183.8130  179.0600  143.9420 C   0  0  0  0  0  0  0  0  0  0  0  0
  181.3910  178.5820  142.5970 C   0  0  0  0  0  3  0  0  0  0  0  0
  182.5950  178.6420  141.8720 C   0  0  0  0  0  0  0  0  0  0  0  0
  181.3970  178.7540  143.9860 C   0  0  0  0  0  3  0  0  0  0  0  0
  182.6050  178.9880  144.6560 C   0  0  0  0  0  3  0  0  0  0  0  0
  183.8020  178.8740  142.5530 C   0  0  0  0  0  3  0  0  0  0  0  0
  183.3600  179.2830  139.5970 O   0  0  0  0  0  0  0  0  0  0  0  0
  181.9480  177.4900  139.8950 O   0  0  0  0  0  1  0  0  0  0  0  0
  182.6010  178.4390  140.4140 C   0  0  0  0  0  0  0  0  0  0  0  0
  1  3  1  0  0  0  0
  1 31  1  0  0  0  0
  2  4  2  0  0  0  0
  2  9  1  0  0  0  0
  3 10  1  0  0  0  0
  4 12  1  0  0  0  0
  5 11  1  0  0  0  0
  7  1  2  0  0  0  0
  8  6  1  0  0  0  0
  9 14  2  0  0  0  0
 10  8  2  0  0  0  0
 10 30  1  0  0  0  0
 11 13  1  0  0  0  0
 11  3  2  0  0  0  0
 12  5  2  0  0  0  0
 12  7  1  0  0  0  0
 13 15  2  0  0  0  0
 14  7  1  0  0  0  0
 15  8  1  0  0  0  0
 16  2  1  0  0  0  0
 17 21  1  0  0  0  0
 17 16  2  0  0  0  0
 18 17  1  0  0  0  0
 19 18  1  0  0  0  0
 20 18  2  0  0  0  0
 23 27  1  0  0  0  0
 23 28  1  0  0  0  0
 24 26  1  0  0  0  0
 25 21  1  0  0  0  0
 26 25  2  0  0  0  0
 26 22  1  0  0  0  0
 27 24  1  0  0  0  0
 28 22  1  0  0  0  0
 30 29  2  0  0  0  0
 33 34  1  0  0  0  0
 33 31  1  1  0  0  0
 33 32  1  0  0  0  0
 34 35  1  6  0  0  0
 34 32  1  0  0  0  0
 35 39  1  0  0  0  0
 36 38  1  0  0  0  0
 37 40  1  0  0  0  0
 37 36  2  0  0  0  0
 38 39  2  0  0  0  0
 40 35  2  0  0  0  0
 41 43  2  0  0  0  0
 42 43  1  0  0  0  0
 43 37  1  0  0  0  0
M  END
>  <MODEL>
8

>  <REMARK>
 VINA RESULT:     -10.6      2.657      6.482
  Name = 
  9 active torsions:
  status: ('A' for Active; 'I' for Inactive)
    1  A    between atoms: C_2  and  O_43
    2  A    between atoms: C_3  and  N_10
    3  A    between atoms: C_6  and  C_36
    4  A    between atoms: C_11  and  O_43
    5  A    between atoms: C_18  and  C_31
    6  A    between atoms: C_19  and  C_32
    7  A    between atoms: C_20  and  C_38
    8  A    between atoms: N_22  and  O_35
    9  A    between atoms: C_31  and  O_35
                            x       y       z     vdW  Elec       q    Type
                         _______ _______ _______ _____ _____    ______ ____

>  <TORSDO>
F 9

$$$$
=
 OpenBabel10222418573D

 43 48  0  0  1  0  0  0  0  0999 V2000
  186.6720  178.4490  142.4390 C   0  0  0  0  0  0  0  0  0  0  0  0
  190.1810  177.4750  140.2170 C   0  0  0  0  0  0  0  0  0  0  0  0
  186.6710  178.2440  143.8560 C   0  0  0  0  0  0  0  0  0  0  0  0
  190.1280  177.2950  141.6100 C   0  0  0  0  0  3  0  0  0  0  0  0
  188.9500  177.3750  143.7050 C   0  0  0  0  0  3  0  0  0  0  0  0
  184.6070  178.6280  146.9680 O   0  0  0  0  0  1  0  0  0  0  0  0
  187.8310  178.1070  141.6830 C   0  0  0  0  0  0  0  0  0  0  0  0
  185.6560  178.3290  146.0990 C   0  0  0  0  0  0  0  0  0  0  0  0
  189.0490  177.9440  139.5580 C   0  0  0  0  0  3  0  0  0  0  0  0
  185.5700  178.5950  144.7070 C   0  0  0  0  0  0  0  0  0  0  0  0
  187.8310  177.6870  144.4620 C   0  0  0  0  0  0  0  0  0  0  0  0
  188.9710  177.5910  142.3330 C   0  0  0  0  0  0  0  0  0  0  0  0
  187.8830  177.4440  145.8310 C   0  0  0  0  0  3  0  0  0  0  0  0
  187.8850  178.2530  140.2830 C   0  0  0  0  0  3  0  0  0  0  0  0
  186.8040  177.7600  146.6400 C   0  0  0  0  0  3  0  0  0  0  0  0
  191.3840  177.2980  139.4650 N   0  0  0  0  0  0  0  0  0  0  0  0
  191.7200  176.2610  138.7560 C   0  0  0  0  0  0  0  0  0  0  0  0
  193.0450  176.2700  138.0920 C   0  0  0  0  0  0  0  0  0  0  0  0
  194.1010  176.0390  138.7330 O   0  0  0  0  0  1  0  0  0  0  0  0
  193.1190  176.5290  136.7300 O   0  0  0  0  0  0  0  0  0  0  0  0
  190.8130  175.2010  138.5870 O   0  0  0  0  0  0  0  0  0  0  0  0
  188.6880  174.8600  136.8430 C   0  0  0  0  0  2  0  0  0  0  0  0
  188.2570  174.0370  134.6270 O   0  0  0  0  0  0  0  0  0  0  0  0
  190.1410  173.0030  135.6910 C   0  0  0  0  0  2  0  0  0  0  0  0
  190.9410  174.2510  137.5930 N   0  0  0  0  0  0  0  0  0  0  0  0
  189.9450  174.0120  136.7850 C   0  0  0  0  0  0  0  0  0  0  0  0
  188.8630  172.7970  134.9090 C   0  0  0  0  0  2  0  0  0  0  0  0
  187.6400  174.4130  135.8350 C   0  0  0  0  0  2  0  0  0  0  0  0
  183.0940  178.8660  144.3530 C   0  0  0  0  0  2  0  0  0  0  0  0
  184.3510  179.2400  144.1410 C   0  0  0  0  0  3  0  0  0  0  0  0
  185.5130  178.9620  141.8200 O   0  0  0  0  0  0  0  0  0  0  0  0
  183.4050  179.0030  140.6810 C   0  0  0  0  0  2  0  0  0  0  0  0
  184.7230  178.2750  140.8590 C   0  0  1  0  0  3  0  0  0  0  0  0
  184.5150  179.1840  139.6550 C   0  0  1  0  0  3  0  0  0  0  0  0
  184.2840  178.3470  138.4330 C   0  0  0  0  0  0  0  0  0  0  0  0
  183.8950  176.9160  136.0440 C   0  0  0  0  0  3  0  0  0  0  0  0
  182.7860  177.4110  136.7530 C   0  0  0  0  0  0  0  0  0  0  0  0
  185.1910  177.1390  136.5220 C   0  0  0  0  0  3  0  0  0  0  0  0
  185.3850  177.8560  137.7100 C   0  0  0  0  0  3  0  0  0  0  0  0
  182.9890  178.1320  137.9420 C   0  0  0  0  0  3  0  0  0  0  0  0
  180.6700  178.2920  135.7940 O   0  0  0  0  0  0  0  0  0  0  0  0
  180.9270  176.0400  136.1880 O   0  0  0  0  0  1  0  0  0  0  0  0
  181.4200  177.2020  136.2450 C   0  0  0  0  0  0  0  0  0  0  0  0
  1  3  1  0  0  0  0
  2  4  2  0  0  0  0
  3 11  2  0  0  0  0
  3 10  1  0  0  0  0
  4 12  1  0  0  0  0
  5 11  1  0  0  0  0
  7 12  1  0  0  0  0
  7  1  2  0  0  0  0
  8 15  1  0  0  0  0
  8  6  1  0  0  0  0
  9  2  1  0  0  0  0
  9 14  2  0  0  0  0
 10  8  2  0  0  0  0
 11 13  1  0  0  0  0
 12  5  2  0  0  0  0
 13 15  2  0  0  0  0
 14  7  1  0  0  0  0
 16  2  1  0  0  0  0
 17 16  2  0  0  0  0
 18 19  1  0  0  0  0
 18 17  1  0  0  0  0
 20 18  2  0  0  0  0
 21 17  1  0  0  0  0
 23 27  1  0  0  0  0
 23 28  1  0  0  0  0
 24 26  1  0  0  0  0
 25 21  1  0  0  0  0
 26 22  1  0  0  0  0
 26 25  2  0  0  0  0
 27 24  1  0  0  0  0
 28 22  1  0  0  0  0
 30 29  2  0  0  0  0
 30 10  1  0  0  0  0
 31  1  1  0  0  0  0
 32 33  1  0  0  0  0
 33 31  1  1  0  0  0
 34 35  1  6  0  0  0
 34 32  1  0  0  0  0
 34 33  1  0  0  0  0
 36 38  2  0  0  0  0
 36 37  1  0  0  0  0
 37 40  2  0  0  0  0
 38 39  1  0  0  0  0
 39 35  2  0  0  0  0
 40 35  1  0  0  0  0
 41 43  2  0  0  0  0
 42 43  1  0  0  0  0
 43 37  1  0  0  0  0
M  END
>  <MODEL>
9

>  <REMARK>
 VINA RESULT:     -10.3      3.556      7.389
  Name = 
  9 active torsions:
  status: ('A' for Active; 'I' for Inactive)
    1  A    between atoms: C_2  and  O_43
    2  A    between atoms: C_3  and  N_10
    3  A    between atoms: C_6  and  C_36
    4  A    between atoms: C_11  and  O_43
    5  A    between atoms: C_18  and  C_31
    6  A    between atoms: C_19  and  C_32
    7  A    between atoms: C_20  and  C_38
    8  A    between atoms: N_22  and  O_35
    9  A    between atoms: C_31  and  O_35
                            x       y       z     vdW  Elec       q    Type
                         _______ _______ _______ _____ _____    ______ ____

>  <TORSDO>
F 9

$$$$
