=
 OpenBabel10222420063D

 27 28  0  0  1  0  0  0  0  0999 V2000
  185.8980  179.5550  141.1000 O   0  0  0  0  0  0  0  0  0  0  0  0
  185.9180  178.7600  142.2200 N   0  0  0  0  0  2  0  0  0  0  0  0
  181.8000  178.7940  140.0500 N   0  0  0  0  0  1  0  0  0  0  0  0
  183.7780  178.7240  141.4140 C   0  0  0  0  0  0  0  0  0  0  0  0
  184.5470  178.4590  142.6170 C   0  0  2  0  0  3  0  0  0  0  0  0
  182.4750  178.4860  141.2670 C   0  0  0  0  0  3  0  0  0  0  0  0
  184.6870  179.3050  140.4210 C   0  0  2  0  0  3  0  0  0  0  0  0
  184.1150  179.3890  143.7430 C   0  0  0  0  0  2  0  0  0  0  0  0
  184.1430  178.6530  145.0710 C   0  0  0  0  0  2  0  0  0  0  0  0
  185.3940  179.0180  145.8480 C   0  0  0  0  0  2  0  0  0  0  0  0
  186.0830  177.8100  146.2790 N   0  0  0  0  0  2  0  0  0  0  0  0
  189.3790  177.0710  144.7410 C   0  0  0  0  0  3  0  0  0  0  0  0
  188.0130  177.3140  144.9010 C   0  0  0  0  0  3  0  0  0  0  0  0
  188.3730  177.5680  147.2810 C   0  0  0  0  0  0  0  0  0  0  0  0
  187.9190  177.8170  148.6080 N   0  0  0  0  0  1  0  0  0  0  0  0
  189.7310  177.3190  147.0720 C   0  0  0  0  0  3  0  0  0  0  0  0
  187.4930  177.5670  146.1740 C   0  0  0  0  0  0  0  0  0  0  0  0
  190.2030  177.0770  145.8210 N   0  0  0  0  0  0  0  0  0  0  0  0
  184.9270  178.3290  139.2750 C   0  0  0  0  0  2  0  0  0  0  0  0
  185.6030  178.9720  138.2360 O   0  0  0  0  0  0  0  0  0  0  0  0
  186.4120  177.9840  137.6680 C   0  0  1  0  0  3  0  0  0  0  0  0
  188.7580  178.4630  138.4860 C   0  0  0  0  0  0  0  0  0  0  0  0
  189.6910  178.1970  139.2860 O   0  0  0  0  0  0  0  0  0  0  0  0
  187.5430  177.7130  138.5440 N   0  0  0  0  0  2  0  0  0  0  0  0
  188.9250  179.5040  137.5280 N   0  0  0  0  0  1  0  0  0  0  0  0
  186.4680  175.9940  136.7040 C   0  0  0  0  0  1  0  0  0  0  0  0
  185.6670  176.8140  137.4990 O   0  0  0  0  0  0  0  0  0  0  0  0
  1  2  1  0  0  0  0
  2  5  1  0  0  0  0
  3  6  1  0  0  0  0
  4  5  1  0  0  0  0
  5  8  1  1  0  0  0
  6  4  2  0  0  0  0
  7 19  1  6  0  0  0
  7  1  1  0  0  0  0
  7  4  1  0  0  0  0
  8  9  1  0  0  0  0
  9 10  1  0  0  0  0
 10 11  1  0  0  0  0
 12 13  2  0  0  0  0
 12 18  1  0  0  0  0
 13 17  1  0  0  0  0
 14 15  1  0  0  0  0
 16 14  1  0  0  0  0
 17 11  1  0  0  0  0
 17 14  2  0  0  0  0
 18 16  2  0  0  0  0
 20 19  1  0  0  0  0
 21 27  1  1  0  0  0
 21 20  1  0  0  0  0
 21 24  1  0  0  0  0
 22 24  1  0  0  0  0
 22 23  2  0  0  0  0
 25 22  1  0  0  0  0
 26 27  1  0  0  0  0
M  END
>  <MODEL>
1

>  <REMARK>
 VINA RESULT:      -7.1      0.000      0.000
  Name = 
  10 active torsions:
  status: ('A' for Active; 'I' for Inactive)
    1  A    between atoms: O_2  and  C_5
    2  A    between atoms: O_2  and  C_27
    3  A    between atoms: C_5  and  O_11
    4  A    between atoms: C_5  and  N_14
    5  A    between atoms: C_9  and  N_13
    6  A    between atoms: C_9  and  C_25
    7  A    between atoms: N_13  and  C_23
    8  A    between atoms: C_17  and  C_18
    9  A    between atoms: C_18  and  C_25
   10  A    between atoms: C_22  and  C_27
                            x       y       z     vdW  Elec       q    Type
                         _______ _______ _______ _____ _____    ______ ____

>  <TORSDO>
F 10

$$$$
=
 OpenBabel10222420063D

 27 28  0  0  1  0  0  0  0  0999 V2000
  187.9330  176.1430  143.2740 O   0  0  0  0  0  0  0  0  0  0  0  0
  187.1910  177.2870  143.4420 N   0  0  0  0  0  2  0  0  0  0  0  0
  190.9530  177.1060  146.1760 N   0  0  0  0  0  1  0  0  0  0  0  0
  188.8890  177.3630  144.9710 C   0  0  0  0  0  0  0  0  0  0  0  0
  187.5840  177.9340  144.6890 C   0  0  2  0  0  3  0  0  0  0  0  0
  189.6920  177.7360  145.9680 C   0  0  0  0  0  3  0  0  0  0  0  0
  189.1420  176.3120  143.9810 C   0  0  2  0  0  3  0  0  0  0  0  0
  186.5960  177.5790  145.7920 C   0  0  0  0  0  2  0  0  0  0  0  0
  185.7540  178.7910  146.1510 C   0  0  0  0  0  2  0  0  0  0  0  0
  184.3460  178.6310  145.6080 C   0  0  0  0  0  2  0  0  0  0  0  0
  184.2540  179.2210  144.2800 N   0  0  0  0  0  2  0  0  0  0  0  0
  180.8430  178.7670  142.8920 C   0  0  0  0  0  3  0  0  0  0  0  0
  181.8930  179.0010  143.7800 C   0  0  0  0  0  3  0  0  0  0  0  0
  183.4560  178.7070  141.9560 C   0  0  0  0  0  0  0  0  0  0  0  0
  184.7730  178.6620  141.4140 N   0  0  0  0  0  1  0  0  0  0  0  0
  182.3720  178.4780  141.1040 C   0  0  0  0  0  3  0  0  0  0  0  0
  183.2140  178.9740  143.3230 C   0  0  0  0  0  0  0  0  0  0  0  0
  181.1010  178.5120  141.5830 N   0  0  0  0  0  0  0  0  0  0  0  0
  190.2490  176.7310  143.0220 C   0  0  0  0  0  2  0  0  0  0  0  0
  190.1870  175.9600  141.8580 O   0  0  0  0  0  0  0  0  0  0  0  0
  190.5300  176.8400  140.8270 C   0  0  1  0  0  3  0  0  0  0  0  0
  188.5700  177.7250  139.4940 C   0  0  0  0  0  0  0  0  0  0  0  0
  187.6410  178.5640  139.3810 O   0  0  0  0  0  0  0  0  0  0  0  0
  189.4500  177.7930  140.6170 N   0  0  0  0  0  2  0  0  0  0  0  0
  188.7390  176.7210  138.4970 N   0  0  0  0  0  1  0  0  0  0  0  0
  192.5100  177.4360  140.0410 C   0  0  0  0  0  1  0  0  0  0  0  0
  191.6950  177.5280  141.1700 O   0  0  0  0  0  0  0  0  0  0  0  0
  1  2  1  0  0  0  0
  1  7  1  0  0  0  0
  2  5  1  0  0  0  0
  4  6  2  0  0  0  0
  5  4  1  0  0  0  0
  5  8  1  1  0  0  0
  6  3  1  0  0  0  0
  7 19  1  6  0  0  0
  7  4  1  0  0  0  0
  8  9  1  0  0  0  0
 10  9  1  0  0  0  0
 11 10  1  0  0  0  0
 12 13  1  0  0  0  0
 14 17  1  0  0  0  0
 15 14  1  0  0  0  0
 16 18  1  0  0  0  0
 16 14  2  0  0  0  0
 17 13  2  0  0  0  0
 17 11  1  0  0  0  0
 18 12  2  0  0  0  0
 20 19  1  0  0  0  0
 21 24  1  1  0  0  0
 21 27  1  0  0  0  0
 21 20  1  0  0  0  0
 22 24  1  0  0  0  0
 23 22  2  0  0  0  0
 25 22  1  0  0  0  0
 26 27  1  0  0  0  0
M  END
>  <MODEL>
2

>  <REMARK>
 VINA RESULT:      -7.0      2.149      6.227
  Name = 
  10 active torsions:
  status: ('A' for Active; 'I' for Inactive)
    1  A    between atoms: O_2  and  C_5
    2  A    between atoms: O_2  and  C_27
    3  A    between atoms: C_5  and  O_11
    4  A    between atoms: C_5  and  N_14
    5  A    between atoms: C_9  and  N_13
    6  A    between atoms: C_9  and  C_25
    7  A    between atoms: N_13  and  C_23
    8  A    between atoms: C_17  and  C_18
    9  A    between atoms: C_18  and  C_25
   10  A    between atoms: C_22  and  C_27
                            x       y       z     vdW  Elec       q    Type
                         _______ _______ _______ _____ _____    ______ ____

>  <TORSDO>
F 10

$$$$
=
 OpenBabel10222420063D

 27 28  0  0  1  0  0  0  0  0999 V2000
  185.8450  178.8200  142.2330 O   0  0  0  0  0  0  0  0  0  0  0  0
  186.1730  178.0300  143.3080 N   0  0  0  0  0  2  0  0  0  0  0  0
  181.7110  179.3540  143.2800 N   0  0  0  0  0  1  0  0  0  0  0  0
  183.9920  178.6590  143.5830 C   0  0  0  0  0  0  0  0  0  0  0  0
  185.1320  178.1460  144.3230 C   0  0  2  0  0  3  0  0  0  0  0  0
  182.7660  178.8280  144.0800 C   0  0  0  0  0  3  0  0  0  0  0  0
  184.4410  178.9620  142.2210 C   0  0  2  0  0  3  0  0  0  0  0  0
  185.5610  179.1360  145.3960 C   0  0  0  0  0  2  0  0  0  0  0  0
  185.6180  178.4490  146.7490 C   0  0  0  0  0  2  0  0  0  0  0  0
  186.8270  177.5350  146.8240 C   0  0  0  0  0  2  0  0  0  0  0  0
  187.9820  178.1850  146.2220 N   0  0  0  0  0  2  0  0  0  0  0  0
  191.1410  176.6990  147.4800 C   0  0  0  0  0  3  0  0  0  0  0  0
  189.8400  177.2050  147.4270 C   0  0  0  0  0  3  0  0  0  0  0  0
  190.1390  177.6300  145.0630 C   0  0  0  0  0  0  0  0  0  0  0  0
  189.6840  178.0910  143.7950 N   0  0  0  0  0  1  0  0  0  0  0  0
  191.4340  177.1150  145.1650 C   0  0  0  0  0  3  0  0  0  0  0  0
  189.3230  177.6760  146.2170 C   0  0  0  0  0  0  0  0  0  0  0  0
  191.9040  176.6650  146.3570 N   0  0  0  0  0  0  0  0  0  0  0  0
  183.8300  177.9870  141.2230 C   0  0  0  0  0  2  0  0  0  0  0  0
  183.2910  178.6880  140.1410 O   0  0  0  0  0  0  0  0  0  0  0  0
  184.3990  179.1560  139.4290 C   0  0  1  0  0  3  0  0  0  0  0  0
  185.9830  177.9500  137.8660 C   0  0  0  0  0  0  0  0  0  0  0  0
  186.1450  177.1650  136.8980 O   0  0  0  0  0  0  0  0  0  0  0  0
  184.6610  178.2750  138.2990 N   0  0  0  0  0  2  0  0  0  0  0  0
  187.1200  178.5130  138.5150 N   0  0  0  0  0  1  0  0  0  0  0  0
  182.7580  180.4890  138.7810 C   0  0  0  0  0  1  0  0  0  0  0  0
  184.1410  180.4450  138.9600 O   0  0  0  0  0  0  0  0  0  0  0  0
  1  2  1  0  0  0  0
  2  5  1  0  0  0  0
  3  6  1  0  0  0  0
  4  6  2  0  0  0  0
  4  5  1  0  0  0  0
  5  8  1  1  0  0  0
  7 19  1  6  0  0  0
  7  1  1  0  0  0  0
  7  4  1  0  0  0  0
  8  9  1  0  0  0  0
  9 10  1  0  0  0  0
 11 10  1  0  0  0  0
 13 12  1  0  0  0  0
 14 16  2  0  0  0  0
 14 17  1  0  0  0  0
 15 14  1  0  0  0  0
 16 18  1  0  0  0  0
 17 11  1  0  0  0  0
 17 13  2  0  0  0  0
 18 12  2  0  0  0  0
 20 19  1  0  0  0  0
 21 24  1  6  0  0  0
 21 20  1  0  0  0  0
 22 24  1  0  0  0  0
 22 25  1  0  0  0  0
 23 22  2  0  0  0  0
 26 27  1  0  0  0  0
 27 21  1  0  0  0  0
M  END
>  <MODEL>
3

>  <REMARK>
 VINA RESULT:      -7.0      1.801      2.989
  Name = 
  10 active torsions:
  status: ('A' for Active; 'I' for Inactive)
    1  A    between atoms: O_2  and  C_5
    2  A    between atoms: O_2  and  C_27
    3  A    between atoms: C_5  and  O_11
    4  A    between atoms: C_5  and  N_14
    5  A    between atoms: C_9  and  N_13
    6  A    between atoms: C_9  and  C_25
    7  A    between atoms: N_13  and  C_23
    8  A    between atoms: C_17  and  C_18
    9  A    between atoms: C_18  and  C_25
   10  A    between atoms: C_22  and  C_27
                            x       y       z     vdW  Elec       q    Type
                         _______ _______ _______ _____ _____    ______ ____

>  <TORSDO>
F 10

$$$$
=
 OpenBabel10222420063D

 27 28  0  0  1  0  0  0  0  0999 V2000
  186.7590  177.1240  143.2470 O   0  0  0  0  0  0  0  0  0  0  0  0
  186.4160  178.2180  142.4900 N   0  0  0  0  0  2  0  0  0  0  0  0
  184.9270  178.4750  146.8920 N   0  0  0  0  0  1  0  0  0  0  0  0
  185.4680  178.5080  144.5510 C   0  0  0  0  0  0  0  0  0  0  0  0
  185.3660  178.9640  143.1750 C   0  0  2  0  0  3  0  0  0  0  0  0
  184.7700  178.9970  145.5760 C   0  0  0  0  0  3  0  0  0  0  0  0
  186.4520  177.4230  144.5910 C   0  0  2  0  0  3  0  0  0  0  0  0
  184.0070  178.6030  142.5920 C   0  0  0  0  0  2  0  0  0  0  0  0
  184.1720  178.0070  141.2060 C   0  0  0  0  0  2  0  0  0  0  0  0
  183.8710  179.0500  140.1460 C   0  0  0  0  0  2  0  0  0  0  0  0
  185.0350  179.2450  139.2930 N   0  0  0  0  0  2  0  0  0  0  0  0
  185.2210  176.6660  136.6320 C   0  0  0  0  0  3  0  0  0  0  0  0
  184.7280  177.6240  137.5190 C   0  0  0  0  0  3  0  0  0  0  0  0
  186.9690  177.9300  138.3810 C   0  0  0  0  0  0  0  0  0  0  0  0
  187.9160  178.5420  139.2510 N   0  0  0  0  0  1  0  0  0  0  0  0
  187.4160  176.9640  137.4760 C   0  0  0  0  0  3  0  0  0  0  0  0
  185.5970  178.2690  138.4050 C   0  0  0  0  0  0  0  0  0  0  0  0
  186.5440  176.3570  136.6290 N   0  0  0  0  0  0  0  0  0  0  0  0
  187.7120  177.8660  145.3240 C   0  0  0  0  0  2  0  0  0  0  0  0
  188.7850  177.0460  144.9650 O   0  0  0  0  0  0  0  0  0  0  0  0
  189.9060  177.8800  145.0160 C   0  0  1  0  0  3  0  0  0  0  0  0
  191.3920  176.7370  146.7160 C   0  0  0  0  0  0  0  0  0  0  0  0
  192.4100  176.0390  146.9540 O   0  0  0  0  0  0  0  0  0  0  0  0
  191.0820  177.0970  145.3690 N   0  0  0  0  0  2  0  0  0  0  0  0
  190.5630  177.1670  147.7930 N   0  0  0  0  0  1  0  0  0  0  0  0
  191.2730  179.2180  143.9070 C   0  0  0  0  0  1  0  0  0  0  0  0
  190.1020  178.4730  143.7670 O   0  0  0  0  0  0  0  0  0  0  0  0
  1  7  1  0  0  0  0
  2  5  1  0  0  0  0
  2  1  1  0  0  0  0
  4  7  1  0  0  0  0
  4  6  2  0  0  0  0
  5  8  1  6  0  0  0
  5  4  1  0  0  0  0
  6  3  1  0  0  0  0
  7 19  1  1  0  0  0
  9  8  1  0  0  0  0
 10  9  1  0  0  0  0
 11 10  1  0  0  0  0
 12 13  1  0  0  0  0
 13 17  2  0  0  0  0
 14 17  1  0  0  0  0
 14 15  1  0  0  0  0
 16 14  2  0  0  0  0
 17 11  1  0  0  0  0
 18 12  2  0  0  0  0
 18 16  1  0  0  0  0
 20 21  1  0  0  0  0
 20 19  1  0  0  0  0
 21 27  1  6  0  0  0
 21 24  1  0  0  0  0
 22 23  2  0  0  0  0
 22 25  1  0  0  0  0
 24 22  1  0  0  0  0
 27 26  1  0  0  0  0
M  END
>  <MODEL>
4

>  <REMARK>
 VINA RESULT:      -6.9      2.636      7.333
  Name = 
  10 active torsions:
  status: ('A' for Active; 'I' for Inactive)
    1  A    between atoms: O_2  and  C_5
    2  A    between atoms: O_2  and  C_27
    3  A    between atoms: C_5  and  O_11
    4  A    between atoms: C_5  and  N_14
    5  A    between atoms: C_9  and  N_13
    6  A    between atoms: C_9  and  C_25
    7  A    between atoms: N_13  and  C_23
    8  A    between atoms: C_17  and  C_18
    9  A    between atoms: C_18  and  C_25
   10  A    between atoms: C_22  and  C_27
                            x       y       z     vdW  Elec       q    Type
                         _______ _______ _______ _____ _____    ______ ____

>  <TORSDO>
F 10

$$$$
=
 OpenBabel10222420063D

 27 28  0  0  1  0  0  0  0  0999 V2000
  191.1880  177.1070  140.3720 O   0  0  0  0  0  0  0  0  0  0  0  0
  190.4980  176.5870  141.4410 N   0  0  0  0  0  2  0  0  0  0  0  0
  187.7490  178.5820  138.2580 N   0  0  0  0  0  1  0  0  0  0  0  0
  188.9650  177.6220  140.0960 C   0  0  0  0  0  0  0  0  0  0  0  0
  189.1480  177.1410  141.4540 C   0  0  2  0  0  3  0  0  0  0  0  0
  187.8300  178.1200  139.6040 C   0  0  0  0  0  3  0  0  0  0  0  0
  190.2420  177.4730  139.3910 C   0  0  2  0  0  3  0  0  0  0  0  0
  189.0700  178.2940  142.4440 C   0  0  0  0  0  2  0  0  0  0  0  0
  190.1190  178.1270  143.5290 C   0  0  0  0  0  2  0  0  0  0  0  0
  189.4620  178.0910  144.8960 C   0  0  0  0  0  2  0  0  0  0  0  0
  188.1920  177.3830  144.8200 N   0  0  0  0  0  2  0  0  0  0  0  0
  184.7110  178.6620  144.6920 C   0  0  0  0  0  3  0  0  0  0  0  0
  185.9610  178.1750  144.3050 C   0  0  0  0  0  3  0  0  0  0  0  0
  186.6080  178.0860  146.6360 C   0  0  0  0  0  0  0  0  0  0  0  0
  187.5360  177.8100  147.6810 N   0  0  0  0  0  1  0  0  0  0  0  0
  185.3430  178.5750  146.9740 C   0  0  0  0  0  3  0  0  0  0  0  0
  186.9250  177.8800  145.2740 C   0  0  0  0  0  0  0  0  0  0  0  0
  184.4300  178.8510  146.0070 N   0  0  0  0  0  0  0  0  0  0  0  0
  190.1470  176.3850  138.3300 C   0  0  0  0  0  2  0  0  0  0  0  0
  190.9050  175.2760  138.7170 O   0  0  0  0  0  0  0  0  0  0  0  0
  191.4240  174.7630  137.5240 C   0  0  1  0  0  3  0  0  0  0  0  0
  193.8730  175.3910  137.6220 C   0  0  0  0  0  0  0  0  0  0  0  0
  195.0650  175.0370  137.8150 O   0  0  0  0  0  0  0  0  0  0  0  0
  192.8270  174.4210  137.7090 N   0  0  0  0  0  2  0  0  0  0  0  0
  193.5810  176.7500  137.3140 N   0  0  0  0  0  1  0  0  0  0  0  0
  190.6510  173.6600  135.7690 C   0  0  0  0  0  1  0  0  0  0  0  0
  190.7120  173.6170  137.1630 O   0  0  0  0  0  0  0  0  0  0  0  0
  1  2  1  0  0  0  0
  2  5  1  0  0  0  0
  3  6  1  0  0  0  0
  4  5  1  0  0  0  0
  5  8  1  1  0  0  0
  6  4  2  0  0  0  0
  7 19  1  6  0  0  0
  7  4  1  0  0  0  0
  7  1  1  0  0  0  0
  8  9  1  0  0  0  0
  9 10  1  0  0  0  0
 11 10  1  0  0  0  0
 11 17  1  0  0  0  0
 12 18  1  0  0  0  0
 13 12  2  0  0  0  0
 13 17  1  0  0  0  0
 14 16  1  0  0  0  0
 14 15  1  0  0  0  0
 17 14  2  0  0  0  0
 18 16  2  0  0  0  0
 19 20  1  0  0  0  0
 21 27  1  1  0  0  0
 21 24  1  0  0  0  0
 21 20  1  0  0  0  0
 22 24  1  0  0  0  0
 22 23  2  0  0  0  0
 25 22  1  0  0  0  0
 26 27  1  0  0  0  0
M  END
>  <MODEL>
5

>  <REMARK>
 VINA RESULT:      -6.7      3.377      5.162
  Name = 
  10 active torsions:
  status: ('A' for Active; 'I' for Inactive)
    1  A    between atoms: O_2  and  C_5
    2  A    between atoms: O_2  and  C_27
    3  A    between atoms: C_5  and  O_11
    4  A    between atoms: C_5  and  N_14
    5  A    between atoms: C_9  and  N_13
    6  A    between atoms: C_9  and  C_25
    7  A    between atoms: N_13  and  C_23
    8  A    between atoms: C_17  and  C_18
    9  A    between atoms: C_18  and  C_25
   10  A    between atoms: C_22  and  C_27
                            x       y       z     vdW  Elec       q    Type
                         _______ _______ _______ _____ _____    ______ ____

>  <TORSDO>
F 10

$$$$
=
 OpenBabel10222420063D

 27 28  0  0  1  0  0  0  0  0999 V2000
  188.4120  176.1710  143.0800 O   0  0  0  0  0  0  0  0  0  0  0  0
  187.8390  177.3880  143.3630 N   0  0  0  0  0  2  0  0  0  0  0  0
  191.7690  176.5990  145.7290 N   0  0  0  0  0  1  0  0  0  0  0  0
  189.6590  177.1730  144.7300 C   0  0  0  0  0  0  0  0  0  0  0  0
  188.4180  177.9150  144.5940 C   0  0  2  0  0  3  0  0  0  0  0  0
  190.5850  177.3910  145.6640 C   0  0  0  0  0  3  0  0  0  0  0  0
  189.6890  176.1520  143.6780 C   0  0  2  0  0  3  0  0  0  0  0  0
  187.4920  177.6270  145.7670 C   0  0  0  0  0  2  0  0  0  0  0  0
  186.0560  177.5120  145.2870 C   0  0  0  0  0  2  0  0  0  0  0  0
  185.2770  178.7620  145.6530 C   0  0  0  0  0  2  0  0  0  0  0  0
  184.9740  179.5290  144.4530 N   0  0  0  0  0  2  0  0  0  0  0  0
  181.6280  178.8420  143.0030 C   0  0  0  0  0  3  0  0  0  0  0  0
  182.6430  179.1550  143.9090 C   0  0  0  0  0  3  0  0  0  0  0  0
  184.2600  178.9260  142.1230 C   0  0  0  0  0  0  0  0  0  0  0  0
  185.5880  178.9540  141.6090 N   0  0  0  0  0  1  0  0  0  0  0  0
  183.2110  178.6170  141.2530 C   0  0  0  0  0  3  0  0  0  0  0  0
  183.9730  179.2020  143.4790 C   0  0  0  0  0  0  0  0  0  0  0  0
  181.9300  178.5810  141.7050 N   0  0  0  0  0  0  0  0  0  0  0  0
  190.7540  176.4820  142.6390 C   0  0  0  0  0  2  0  0  0  0  0  0
  190.3950  175.9410  141.4030 O   0  0  0  0  0  0  0  0  0  0  0  0
  190.7540  176.9160  140.4670 C   0  0  1  0  0  3  0  0  0  0  0  0
  192.0840  176.2830  138.4100 C   0  0  0  0  0  0  0  0  0  0  0  0
  192.1170  175.7250  137.2830 O   0  0  0  0  0  0  0  0  0  0  0  0
  190.8600  176.3120  139.1460 N   0  0  0  0  0  2  0  0  0  0  0  0
  193.2630  176.8870  138.9340 N   0  0  0  0  0  1  0  0  0  0  0  0
  188.7730  177.4120  139.6170 C   0  0  0  0  0  1  0  0  0  0  0  0
  189.7800  177.9170  140.4410 O   0  0  0  0  0  0  0  0  0  0  0  0
  1  2  1  0  0  0  0
  1  7  1  0  0  0  0
  2  5  1  0  0  0  0
  4  6  2  0  0  0  0
  5  4  1  0  0  0  0
  5  8  1  1  0  0  0
  6  3  1  0  0  0  0
  7 19  1  6  0  0  0
  7  4  1  0  0  0  0
  9 10  1  0  0  0  0
  9  8  1  0  0  0  0
 11 10  1  0  0  0  0
 12 13  1  0  0  0  0
 14 17  1  0  0  0  0
 15 14  1  0  0  0  0
 16 18  1  0  0  0  0
 16 14  2  0  0  0  0
 17 13  2  0  0  0  0
 17 11  1  0  0  0  0
 18 12  2  0  0  0  0
 20 19  1  0  0  0  0
 21 24  1  6  0  0  0
 21 20  1  0  0  0  0
 22 25  1  0  0  0  0
 22 24  1  0  0  0  0
 23 22  2  0  0  0  0
 26 27  1  0  0  0  0
 27 21  1  0  0  0  0
M  END
>  <MODEL>
6

>  <REMARK>
 VINA RESULT:      -6.7      2.624      6.140
  Name = 
  10 active torsions:
  status: ('A' for Active; 'I' for Inactive)
    1  A    between atoms: O_2  and  C_5
    2  A    between atoms: O_2  and  C_27
    3  A    between atoms: C_5  and  O_11
    4  A    between atoms: C_5  and  N_14
    5  A    between atoms: C_9  and  N_13
    6  A    between atoms: C_9  and  C_25
    7  A    between atoms: N_13  and  C_23
    8  A    between atoms: C_17  and  C_18
    9  A    between atoms: C_18  and  C_25
   10  A    between atoms: C_22  and  C_27
                            x       y       z     vdW  Elec       q    Type
                         _______ _______ _______ _____ _____    ______ ____

>  <TORSDO>
F 10

$$$$
=
 OpenBabel10222420063D

 27 28  0  0  1  0  0  0  0  0999 V2000
  187.1730  177.0850  143.0920 O   0  0  0  0  0  0  0  0  0  0  0  0
  186.9500  178.0660  142.1560 N   0  0  0  0  0  2  0  0  0  0  0  0
  184.4520  178.6200  146.0440 N   0  0  0  0  0  1  0  0  0  0  0  0
  185.5270  178.4710  143.8990 C   0  0  0  0  0  0  0  0  0  0  0  0
  185.7240  178.7800  142.4940 C   0  0  2  0  0  3  0  0  0  0  0  0
  184.5780  178.9950  144.6750 C   0  0  0  0  0  3  0  0  0  0  0  0
  186.5400  177.4850  144.2880 C   0  0  2  0  0  3  0  0  0  0  0  0
  184.5660  178.2460  141.6630 C   0  0  0  0  0  2  0  0  0  0  0  0
  184.3150  179.1520  140.4700 C   0  0  0  0  0  2  0  0  0  0  0  0
  184.7070  178.4490  139.1840 C   0  0  0  0  0  2  0  0  0  0  0  0
  186.1310  178.6210  138.9360 N   0  0  0  0  0  2  0  0  0  0  0  0
  186.9470  176.2320  136.2160 C   0  0  0  0  0  3  0  0  0  0  0  0
  186.2420  176.9560  137.1790 C   0  0  0  0  0  3  0  0  0  0  0  0
  188.2890  178.1120  137.7560 C   0  0  0  0  0  0  0  0  0  0  0  0
  189.0340  179.0620  138.5130 N   0  0  0  0  0  1  0  0  0  0  0  0
  188.9520  177.3630  136.7810 C   0  0  0  0  0  3  0  0  0  0  0  0
  186.9050  177.9060  137.9620 C   0  0  0  0  0  0  0  0  0  0  0  0
  188.2760  176.4480  136.0380 N   0  0  0  0  0  0  0  0  0  0  0  0
  187.5610  178.1060  145.2330 C   0  0  0  0  0  2  0  0  0  0  0  0
  187.6370  177.3580  146.4100 O   0  0  0  0  0  0  0  0  0  0  0  0
  188.9650  177.4810  146.8280 C   0  0  1  0  0  3  0  0  0  0  0  0
  191.0740  177.4360  145.4310 C   0  0  0  0  0  0  0  0  0  0  0  0
  191.7220  177.8850  144.4500 O   0  0  0  0  0  0  0  0  0  0  0  0
  189.7830  177.9700  145.7260 N   0  0  0  0  0  2  0  0  0  0  0  0
  191.6390  176.4080  146.2380 N   0  0  0  0  0  1  0  0  0  0  0  0
  188.0950  177.9210  148.8130 C   0  0  0  0  0  1  0  0  0  0  0  0
  189.0360  178.3820  147.8920 O   0  0  0  0  0  0  0  0  0  0  0  0
  1  7  1  0  0  0  0
  2  5  1  0  0  0  0
  2  1  1  0  0  0  0
  4  7  1  0  0  0  0
  4  6  2  0  0  0  0
  5  8  1  6  0  0  0
  5  4  1  0  0  0  0
  6  3  1  0  0  0  0
  7 19  1  1  0  0  0
  9  8  1  0  0  0  0
 10  9  1  0  0  0  0
 11 10  1  0  0  0  0
 12 13  1  0  0  0  0
 13 17  2  0  0  0  0
 14 17  1  0  0  0  0
 14 15  1  0  0  0  0
 16 14  2  0  0  0  0
 17 11  1  0  0  0  0
 18 12  2  0  0  0  0
 18 16  1  0  0  0  0
 19 20  1  0  0  0  0
 20 21  1  0  0  0  0
 21 24  1  6  0  0  0
 21 27  1  0  0  0  0
 22 24  1  0  0  0  0
 22 25  1  0  0  0  0
 23 22  2  0  0  0  0
 27 26  1  0  0  0  0
M  END
>  <MODEL>
7

>  <REMARK>
 VINA RESULT:      -6.6      2.583      7.603
  Name = 
  10 active torsions:
  status: ('A' for Active; 'I' for Inactive)
    1  A    between atoms: O_2  and  C_5
    2  A    between atoms: O_2  and  C_27
    3  A    between atoms: C_5  and  O_11
    4  A    between atoms: C_5  and  N_14
    5  A    between atoms: C_9  and  N_13
    6  A    between atoms: C_9  and  C_25
    7  A    between atoms: N_13  and  C_23
    8  A    between atoms: C_17  and  C_18
    9  A    between atoms: C_18  and  C_25
   10  A    between atoms: C_22  and  C_27
                            x       y       z     vdW  Elec       q    Type
                         _______ _______ _______ _____ _____    ______ ____

>  <TORSDO>
F 10

$$$$
=
 OpenBabel10222420063D

 27 28  0  0  1  0  0  0  0  0999 V2000
  188.0730  177.9420  141.1040 O   0  0  0  0  0  0  0  0  0  0  0  0
  189.0770  178.2060  142.0040 N   0  0  0  0  0  2  0  0  0  0  0  0
  190.5660  176.0660  138.1480 N   0  0  0  0  0  1  0  0  0  0  0  0
  190.0190  177.0430  140.2740 C   0  0  0  0  0  0  0  0  0  0  0  0
  190.2480  177.4060  141.6620 C   0  0  2  0  0  3  0  0  0  0  0  0
  190.8850  176.3920  139.4970 C   0  0  0  0  0  3  0  0  0  0  0  0
  188.6780  177.5060  139.9060 C   0  0  2  0  0  3  0  0  0  0  0  0
  190.3010  176.1610  142.5370 C   0  0  0  0  0  2  0  0  0  0  0  0
  191.4280  176.2790  143.5480 C   0  0  0  0  0  2  0  0  0  0  0  0
  190.9800  177.1020  144.7420 C   0  0  0  0  0  2  0  0  0  0  0  0
  189.6050  176.7700  145.0890 N   0  0  0  0  0  2  0  0  0  0  0  0
  188.8360  178.0720  148.4770 C   0  0  0  0  0  3  0  0  0  0  0  0
  189.5190  177.5270  147.3880 C   0  0  0  0  0  3  0  0  0  0  0  0
  187.4920  177.6960  146.0770 C   0  0  0  0  0  0  0  0  0  0  0  0
  186.7470  177.5290  144.8740 N   0  0  0  0  0  1  0  0  0  0  0  0
  186.8500  178.2380  147.1940 C   0  0  0  0  0  3  0  0  0  0  0  0
  188.8540  177.3330  146.1730 C   0  0  0  0  0  0  0  0  0  0  0  0
  187.5260  178.4130  148.3590 N   0  0  0  0  0  0  0  0  0  0  0  0
  188.7610  178.6620  138.9160 C   0  0  0  0  0  2  0  0  0  0  0  0
  188.0760  178.3340  137.7440 O   0  0  0  0  0  0  0  0  0  0  0  0
  186.8190  177.8970  138.1720 C   0  0  1  0  0  3  0  0  0  0  0  0
  184.9440  179.2670  139.1780 C   0  0  0  0  0  0  0  0  0  0  0  0
  184.1690  180.2540  139.0910 O   0  0  0  0  0  0  0  0  0  0  0  0
  185.8740  179.0050  138.1260 N   0  0  0  0  0  2  0  0  0  0  0  0
  184.8800  178.4190  140.3210 N   0  0  0  0  0  1  0  0  0  0  0  0
  186.5760  177.3550  136.0420 C   0  0  0  0  0  1  0  0  0  0  0  0
  186.3720  176.8730  137.3350 O   0  0  0  0  0  0  0  0  0  0  0  0
  1  2  1  0  0  0  0
  3  6  1  0  0  0  0
  4  5  1  0  0  0  0
  5  2  1  0  0  0  0
  5  8  1  1  0  0  0
  6  4  2  0  0  0  0
  7 19  1  6  0  0  0
  7  4  1  0  0  0  0
  7  1  1  0  0  0  0
  8  9  1  0  0  0  0
  9 10  1  0  0  0  0
 10 11  1  0  0  0  0
 11 17  1  0  0  0  0
 13 12  2  0  0  0  0
 14 17  2  0  0  0  0
 14 16  1  0  0  0  0
 15 14  1  0  0  0  0
 16 18  2  0  0  0  0
 17 13  1  0  0  0  0
 18 12  1  0  0  0  0
 20 21  1  0  0  0  0
 20 19  1  0  0  0  0
 21 27  1  6  0  0  0
 22 25  1  0  0  0  0
 23 22  2  0  0  0  0
 24 21  1  0  0  0  0
 24 22  1  0  0  0  0
 26 27  1  0  0  0  0
M  END
>  <MODEL>
8

>  <REMARK>
 VINA RESULT:      -6.5      2.179      4.777
  Name = 
  10 active torsions:
  status: ('A' for Active; 'I' for Inactive)
    1  A    between atoms: O_2  and  C_5
    2  A    between atoms: O_2  and  C_27
    3  A    between atoms: C_5  and  O_11
    4  A    between atoms: C_5  and  N_14
    5  A    between atoms: C_9  and  N_13
    6  A    between atoms: C_9  and  C_25
    7  A    between atoms: N_13  and  C_23
    8  A    between atoms: C_17  and  C_18
    9  A    between atoms: C_18  and  C_25
   10  A    between atoms: C_22  and  C_27
                            x       y       z     vdW  Elec       q    Type
                         _______ _______ _______ _____ _____    ______ ____

>  <TORSDO>
F 10

$$$$
=
 OpenBabel10222420063D

 27 28  0  0  1  0  0  0  0  0999 V2000
  187.6420  178.2230  146.1070 O   0  0  0  0  0  0  0  0  0  0  0  0
  186.3250  177.8420  146.2040 N   0  0  0  0  0  2  0  0  0  0  0  0
  187.9180  177.8870  141.8310 N   0  0  0  0  0  1  0  0  0  0  0  0
  186.8350  177.9200  143.9760 C   0  0  0  0  0  0  0  0  0  0  0  0
  185.7030  177.9280  144.8880 C   0  0  2  0  0  3  0  0  0  0  0  0
  186.7490  177.8770  142.6470 C   0  0  0  0  0  3  0  0  0  0  0  0
  188.0590  177.9810  144.7810 C   0  0  2  0  0  3  0  0  0  0  0  0
  184.9280  179.2320  144.7640 C   0  0  0  0  0  2  0  0  0  0  0  0
  183.4630  179.0040  145.0930 C   0  0  0  0  0  2  0  0  0  0  0  0
  182.7320  178.4480  143.8850 C   0  0  0  0  0  2  0  0  0  0  0  0
  183.2980  179.0010  142.6630 N   0  0  0  0  0  2  0  0  0  0  0  0
  180.9240  178.1590  139.9380 C   0  0  0  0  0  3  0  0  0  0  0  0
  181.4650  178.3780  141.2060 C   0  0  0  0  0  3  0  0  0  0  0  0
  183.5680  178.9750  140.1670 C   0  0  0  0  0  0  0  0  0  0  0  0
  184.9290  179.3930  140.2170 N   0  0  0  0  0  1  0  0  0  0  0  0
  182.9830  178.7430  138.9200 C   0  0  0  0  0  3  0  0  0  0  0  0
  182.7950  178.7900  141.3360 C   0  0  0  0  0  0  0  0  0  0  0  0
  181.6870  178.3430  138.8300 N   0  0  0  0  0  0  0  0  0  0  0  0
  188.8170  176.6610  144.7080 C   0  0  0  0  0  2  0  0  0  0  0  0
  189.9970  176.8310  143.9810 O   0  0  0  0  0  0  0  0  0  0  0  0
  190.8340  177.5710  144.8220 C   0  0  1  0  0  3  0  0  0  0  0  0
  191.5770  176.4420  146.9620 C   0  0  0  0  0  0  0  0  0  0  0  0
  192.3500  175.6340  147.5360 O   0  0  0  0  0  0  0  0  0  0  0  0
  191.7100  176.6700  145.5580 N   0  0  0  0  0  2  0  0  0  0  0  0
  190.5830  177.1270  147.7190 N   0  0  0  0  0  1  0  0  0  0  0  0
  191.6810  177.8480  142.7980 C   0  0  0  0  0  1  0  0  0  0  0  0
  191.6070  178.4460  144.0560 O   0  0  0  0  0  0  0  0  0  0  0  0
  1  2  1  0  0  0  0
  3  6  1  0  0  0  0
  4  7  1  0  0  0  0
  4  5  1  0  0  0  0
  5  8  1  1  0  0  0
  5  2  1  0  0  0  0
  6  4  2  0  0  0  0
  7 19  1  1  0  0  0
  7  1  1  0  0  0  0
  8  9  1  0  0  0  0
 10  9  1  0  0  0  0
 11 10  1  0  0  0  0
 12 13  1  0  0  0  0
 13 17  2  0  0  0  0
 14 15  1  0  0  0  0
 14 17  1  0  0  0  0
 16 14  2  0  0  0  0
 17 11  1  0  0  0  0
 18 16  1  0  0  0  0
 18 12  2  0  0  0  0
 20 19  1  0  0  0  0
 21 20  1  6  0  0  0
 21 24  1  0  0  0  0
 22 23  2  0  0  0  0
 22 25  1  0  0  0  0
 24 22  1  0  0  0  0
 26 27  1  0  0  0  0
 27 21  1  0  0  0  0
M  END
>  <MODEL>
9

>  <REMARK>
 VINA RESULT:      -6.4      3.392      7.364
  Name = 
  10 active torsions:
  status: ('A' for Active; 'I' for Inactive)
    1  A    between atoms: O_2  and  C_5
    2  A    between atoms: O_2  and  C_27
    3  A    between atoms: C_5  and  O_11
    4  A    between atoms: C_5  and  N_14
    5  A    between atoms: C_9  and  N_13
    6  A    between atoms: C_9  and  C_25
    7  A    between atoms: N_13  and  C_23
    8  A    between atoms: C_17  and  C_18
    9  A    between atoms: C_18  and  C_25
   10  A    between atoms: C_22  and  C_27
                            x       y       z     vdW  Elec       q    Type
                         _______ _______ _______ _____ _____    ______ ____

>  <TORSDO>
F 10

$$$$
