=
 OpenBabel10222419563D

 36 39  0  0  1  0  0  0  0  0999 V2000
  190.4970  177.1850  145.2350 C   0  0  0  0  0  3  0  0  0  0  0  0
  188.3500  177.9200  140.5870 N   0  0  0  0  0  0  0  0  0  0  0  0
  190.1390  177.0160  146.5040 C   0  0  0  0  0  3  0  0  0  0  0  0
  187.9480  177.2460  147.8890 C   0  0  0  0  0  1  0  0  0  0  0  0
  189.3730  177.7910  144.4490 C   0  0  1  0  0  3  0  0  0  0  0  0
  188.7570  177.4450  146.6540 C   0  0  0  0  0  0  0  0  0  0  0  0
  187.5290  177.3470  142.7500 C   0  0  2  0  0  3  0  0  0  0  0  0
  190.1200  176.6780  139.6110 N   0  0  0  0  0  2  0  0  0  0  0  0
  186.5670  177.8790  143.7030 N   0  0  0  0  0  0  0  0  0  0  0  0
  185.6800  178.7980  142.9950 C   0  0  1  0  0  3  0  0  0  0  0  0
  189.9700  176.8890  142.1400 C   0  0  0  0  0  2  0  0  0  0  0  0
  186.0280  178.4200  145.9180 O   0  0  0  0  0  0  0  0  0  0  0  0
  186.9040  178.0680  145.0830 C   0  0  0  0  0  0  0  0  0  0  0  0
  189.4230  177.1910  140.7460 C   0  0  0  0  0  0  0  0  0  0  0  0
  188.9120  176.9110  143.2810 C   0  0  1  0  0  3  0  0  0  0  0  0
  186.2710  178.9400  141.5780 C   0  0  0  0  0  2  0  0  0  0  0  0
  188.3000  177.8440  145.4780 C   0  0  0  0  0  0  0  0  0  0  0  0
  187.6920  178.4550  141.7660 C   0  0  2  0  0  3  0  0  0  0  0  0
  183.6130  178.2560  141.8310 C   0  0  0  0  0  0  0  0  0  0  0  0
  184.2990  178.2330  142.9400 C   0  0  0  0  0  3  0  0  0  0  0  0
  182.9260  178.2800  140.7160 C   0  0  0  0  0  0  0  0  0  0  0  0
  181.4440  179.6750  139.4870 O   0  0  0  0  0  0  0  0  0  0  0  0
  179.7130  180.1900  141.6710 C   0  0  0  0  0  1  0  0  0  0  0  0
  181.7330  179.1360  140.5920 C   0  0  0  0  0  0  0  0  0  0  0  0
  180.9010  179.3560  141.7330 N   0  0  0  0  0  2  0  0  0  0  0  0
  183.3320  177.4760  139.6050 N   0  0  0  0  0  2  0  0  0  0  0  0
  184.2330  177.9190  138.6960 O   0  0  0  0  0  1  0  0  0  0  0  0
  189.6750  176.9210  138.2460 C   0  0  0  0  0  2  0  0  0  0  0  0
  190.6310  176.2720  137.2590 C   0  0  0  0  0  2  0  0  0  0  0  0
  190.5880  173.9020  137.5310 O   0  0  0  0  0  1  0  0  0  0  0  0
  191.3080  175.0510  137.8720 C   0  0  1  0  0  3  0  0  0  0  0  0
  192.7430  174.9340  137.3650 C   0  0  1  0  0  3  0  0  0  0  0  0
  192.7510  174.6820  135.9900 O   0  0  0  0  0  1  0  0  0  0  0  0
  194.1080  176.7710  136.7000 O   0  0  0  0  0  0  0  0  0  0  0  0
  193.5110  176.1850  137.6390 C   0  0  0  0  0  0  0  0  0  0  0  0
  193.5760  176.7030  138.9280 O   0  0  0  0  0  1  0  0  0  0  0  0
  1  3  2  0  0  0  0
  2 14  2  0  0  0  0
  2 18  1  0  0  0  0
  3  6  1  0  0  0  0
  5  1  1  1  0  0  0
  5 17  1  0  0  0  0
  6  4  1  0  0  0  0
  7 15  1  0  0  0  0
  7  9  1  1  0  0  0
  8 14  1  0  0  0  0
  9 13  1  0  0  0  0
 10 20  1  6  0  0  0
 10  9  1  0  0  0  0
 13 17  1  0  0  0  0
 13 12  2  0  0  0  0
 14 11  1  0  0  0  0
 15 11  1  6  0  0  0
 15  5  1  0  0  0  0
 16 10  1  0  0  0  0
 17  6  2  0  0  0  0
 18 16  1  6  0  0  0
 18  7  1  0  0  0  0
 19 20  2  0  0  0  0
 21 19  2  0  0  0  0
 22 24  2  0  0  0  0
 23 25  1  0  0  0  0
 24 21  1  0  0  0  0
 24 25  1  0  0  0  0
 26 21  1  0  0  0  0
 27 26  1  0  0  0  0
 28  8  1  0  0  0  0
 29 31  1  0  0  0  0
 29 28  1  0  0  0  0
 31 30  1  6  0  0  0
 32 33  1  6  0  0  0
 32 35  1  0  0  0  0
 32 31  1  0  0  0  0
 34 35  2  0  0  0  0
 35 36  1  0  0  0  0
M  END
>  <MODEL>
1

>  <REMARK>
 VINA RESULT:      -9.3      0.000      0.000
  Name = 
  8 active torsions:
  status: ('A' for Active; 'I' for Inactive)
    1  A    between atoms: C_6  and  C_12
    2  A    between atoms: C_12  and  C_34
    3  A    between atoms: C_13  and  N_15
    4  A    between atoms: C_13  and  C_20
    5  A    between atoms: C_17  and  C_24
    6  A    between atoms: N_19  and  C_26
    7  A    between atoms: C_20  and  C_34
    8  A    between atoms: C_22  and  C_26
                            x       y       z     vdW  Elec       q    Type
                         _______ _______ _______ _____ _____    ______ ____

>  <TORSDO>
F 8

$$$$
=
 OpenBabel10222419563D

 36 39  0  0  1  0  0  0  0  0999 V2000
  187.5220  177.8840  147.9510 C   0  0  0  0  0  3  0  0  0  0  0  0
  186.5170  177.2600  142.9160 N   0  0  0  0  0  0  0  0  0  0  0  0
  188.5580  178.0480  148.7670 C   0  0  0  0  0  3  0  0  0  0  0  0
  191.1470  177.8600  148.5840 C   0  0  0  0  0  1  0  0  0  0  0  0
  187.9730  177.3180  146.6380 C   0  0  1  0  0  3  0  0  0  0  0  0
  189.7670  177.6540  148.0610 C   0  0  0  0  0  0  0  0  0  0  0  0
  188.4490  177.8300  144.1900 C   0  0  2  0  0  3  0  0  0  0  0  0
  184.4940  178.4670  143.2050 N   0  0  0  0  0  2  0  0  0  0  0  0
  189.7950  177.3120  144.3770 N   0  0  0  0  0  0  0  0  0  0  0  0
  190.1060  176.4250  143.2590 C   0  0  1  0  0  3  0  0  0  0  0  0
  186.1130  178.2300  145.1510 C   0  0  0  0  0  2  0  0  0  0  0  0
  191.5470  176.7600  145.8320 O   0  0  0  0  0  0  0  0  0  0  0  0
  190.3420  177.0990  145.6840 C   0  0  0  0  0  0  0  0  0  0  0  0
  185.7340  177.9590  143.6960 C   0  0  0  0  0  0  0  0  0  0  0  0
  187.6410  178.2230  145.4460 C   0  0  1  0  0  3  0  0  0  0  0  0
  188.7930  176.2840  142.4620 C   0  0  0  0  0  2  0  0  0  0  0  0
  189.4460  177.2810  146.8330 C   0  0  0  0  0  0  0  0  0  0  0  0
  187.7510  176.7290  143.4640 C   0  0  2  0  0  3  0  0  0  0  0  0
  191.0310  177.1270  141.1210 C   0  0  0  0  0  0  0  0  0  0  0  0
  191.1780  177.0270  142.4130 C   0  0  0  0  0  3  0  0  0  0  0  0
  190.8820  177.2260  139.8230 C   0  0  0  0  0  0  0  0  0  0  0  0
  192.9060  176.7370  138.6770 O   0  0  0  0  0  0  0  0  0  0  0  0
  191.9120  174.4180  137.3870 C   0  0  0  0  0  1  0  0  0  0  0  0
  191.7080  176.4150  138.9120 C   0  0  0  0  0  0  0  0  0  0  0  0
  191.1460  175.2560  138.2940 N   0  0  0  0  0  2  0  0  0  0  0  0
  189.9090  178.1220  139.2800 N   0  0  0  0  0  2  0  0  0  0  0  0
  189.5910  178.1160  137.9630 O   0  0  0  0  0  1  0  0  0  0  0  0
  184.0500  178.2520  141.8360 C   0  0  0  0  0  2  0  0  0  0  0  0
  184.7330  179.2360  140.9010 C   0  0  0  0  0  2  0  0  0  0  0  0
  183.7360  180.3620  139.0490 O   0  0  0  0  0  1  0  0  0  0  0  0
  184.1890  179.1130  139.4820 C   0  0  1  0  0  3  0  0  0  0  0  0
  185.2800  178.6020  138.5430 C   0  0  1  0  0  3  0  0  0  0  0  0
  186.4810  178.4410  139.2390 O   0  0  0  0  0  1  0  0  0  0  0  0
  183.7320  176.8400  138.1200 O   0  0  0  0  0  1  0  0  0  0  0  0
  184.8880  177.2970  137.9300 C   0  0  0  0  0  0  0  0  0  0  0  0
  185.7960  176.5810  137.1590 O   0  0  0  0  0  0  0  0  0  0  0  0
  1  3  2  0  0  0  0
  2 18  1  0  0  0  0
  2 14  2  0  0  0  0
  5 17  1  0  0  0  0
  5  1  1  1  0  0  0
  6  4  1  0  0  0  0
  6  3  1  0  0  0  0
  7  9  1  1  0  0  0
  7 15  1  0  0  0  0
  8 14  1  0  0  0  0
  9 13  1  0  0  0  0
 10 20  1  6  0  0  0
 10  9  1  0  0  0  0
 13 12  2  0  0  0  0
 13 17  1  0  0  0  0
 14 11  1  0  0  0  0
 15 11  1  6  0  0  0
 15  5  1  0  0  0  0
 16 10  1  0  0  0  0
 17  6  2  0  0  0  0
 18 16  1  6  0  0  0
 18  7  1  0  0  0  0
 19 20  2  0  0  0  0
 21 19  2  0  0  0  0
 22 24  2  0  0  0  0
 23 25  1  0  0  0  0
 24 21  1  0  0  0  0
 25 24  1  0  0  0  0
 26 21  1  0  0  0  0
 27 26  1  0  0  0  0
 28  8  1  0  0  0  0
 29 28  1  0  0  0  0
 31 30  1  6  0  0  0
 31 29  1  0  0  0  0
 32 33  1  1  0  0  0
 32 31  1  0  0  0  0
 35 34  1  0  0  0  0
 35 32  1  0  0  0  0
 36 35  2  0  0  0  0
M  END
>  <MODEL>
2

>  <REMARK>
 VINA RESULT:      -9.2      2.240      6.964
  Name = 
  8 active torsions:
  status: ('A' for Active; 'I' for Inactive)
    1  A    between atoms: C_6  and  C_12
    2  A    between atoms: C_12  and  C_34
    3  A    between atoms: C_13  and  N_15
    4  A    between atoms: C_13  and  C_20
    5  A    between atoms: C_17  and  C_24
    6  A    between atoms: N_19  and  C_26
    7  A    between atoms: C_20  and  C_34
    8  A    between atoms: C_22  and  C_26
                            x       y       z     vdW  Elec       q    Type
                         _______ _______ _______ _____ _____    ______ ____

>  <TORSDO>
F 8

$$$$
=
 OpenBabel10222419563D

 36 39  0  0  1  0  0  0  0  0999 V2000
  190.7930  177.2190  145.3650 C   0  0  0  0  0  3  0  0  0  0  0  0
  188.9360  177.7880  140.5720 N   0  0  0  0  0  0  0  0  0  0  0  0
  190.3570  177.0420  146.6090 C   0  0  0  0  0  3  0  0  0  0  0  0
  188.0660  177.1610  147.8360 C   0  0  0  0  0  1  0  0  0  0  0  0
  189.6940  177.7530  144.4960 C   0  0  1  0  0  3  0  0  0  0  0  0
  188.9470  177.3940  146.6570 C   0  0  0  0  0  0  0  0  0  0  0  0
  188.0000  177.1900  142.6800 C   0  0  2  0  0  3  0  0  0  0  0  0
  190.8360  176.6380  139.7360 N   0  0  0  0  0  2  0  0  0  0  0  0
  186.9470  177.6770  143.5570 N   0  0  0  0  0  0  0  0  0  0  0  0
  186.0610  178.5370  142.7770 C   0  0  1  0  0  3  0  0  0  0  0  0
  190.4990  176.8650  142.2450 C   0  0  0  0  0  2  0  0  0  0  0  0
  186.2260  178.2060  145.7230 O   0  0  0  0  0  0  0  0  0  0  0  0
  187.1760  177.8970  144.9550 C   0  0  0  0  0  0  0  0  0  0  0  0
  190.0350  177.1220  140.8130 C   0  0  0  0  0  0  0  0  0  0  0  0
  189.3660  176.8370  143.3110 C   0  0  1  0  0  3  0  0  0  0  0  0
  186.7410  178.6990  141.4030 C   0  0  0  0  0  2  0  0  0  0  0  0
  188.5510  177.7560  145.4480 C   0  0  0  0  0  0  0  0  0  0  0  0
  188.1700  178.2960  141.6940 C   0  0  2  0  0  3  0  0  0  0  0  0
  184.0020  178.0830  141.5630 C   0  0  0  0  0  0  0  0  0  0  0  0
  184.7210  177.8940  142.6350 C   0  0  0  0  0  3  0  0  0  0  0  0
  183.2810  178.2740  140.4870 C   0  0  0  0  0  0  0  0  0  0  0  0
  181.5740  179.6180  139.5220 O   0  0  0  0  0  0  0  0  0  0  0  0
  180.0930  179.9050  141.9210 C   0  0  0  0  0  1  0  0  0  0  0  0
  182.0300  179.0490  140.5530 C   0  0  0  0  0  0  0  0  0  0  0  0
  181.3310  179.1540  141.7940 N   0  0  0  0  0  2  0  0  0  0  0  0
  183.7080  177.7330  139.2330 N   0  0  0  0  0  2  0  0  0  0  0  0
  183.3570  176.4850  138.8390 O   0  0  0  0  0  1  0  0  0  0  0  0
  190.4750  176.8430  138.3410 C   0  0  0  0  0  2  0  0  0  0  0  0
  189.6640  175.6630  137.8300 C   0  0  0  0  0  2  0  0  0  0  0  0
  187.5750  175.6330  136.6780 O   0  0  0  0  0  1  0  0  0  0  0  0
  188.9110  176.0260  136.5560 C   0  0  1  0  0  3  0  0  0  0  0  0
  188.9880  177.5310  136.3080 C   0  0  1  0  0  3  0  0  0  0  0  0
  189.4200  177.7850  135.0040 O   0  0  0  0  0  1  0  0  0  0  0  0
  187.3420  178.6010  137.6600 O   0  0  0  0  0  1  0  0  0  0  0  0
  187.6570  178.1760  136.5180 C   0  0  0  0  0  0  0  0  0  0  0  0
  186.7610  178.3020  135.4640 O   0  0  0  0  0  0  0  0  0  0  0  0
  1  3  2  0  0  0  0
  2 14  2  0  0  0  0
  2 18  1  0  0  0  0
  3  6  1  0  0  0  0
  5  1  1  1  0  0  0
  5 17  1  0  0  0  0
  6  4  1  0  0  0  0
  7 15  1  0  0  0  0
  7  9  1  1  0  0  0
  8 14  1  0  0  0  0
  9 13  1  0  0  0  0
 10 20  1  6  0  0  0
 10  9  1  0  0  0  0
 13 17  1  0  0  0  0
 13 12  2  0  0  0  0
 14 11  1  0  0  0  0
 15 11  1  6  0  0  0
 15  5  1  0  0  0  0
 16 10  1  0  0  0  0
 17  6  2  0  0  0  0
 18 16  1  6  0  0  0
 18  7  1  0  0  0  0
 19 20  2  0  0  0  0
 21 24  1  0  0  0  0
 21 19  2  0  0  0  0
 22 24  2  0  0  0  0
 24 25  1  0  0  0  0
 25 23  1  0  0  0  0
 26 21  1  0  0  0  0
 27 26  1  0  0  0  0
 28  8  1  0  0  0  0
 29 28  1  0  0  0  0
 31 30  1  1  0  0  0
 31 29  1  0  0  0  0
 32 33  1  6  0  0  0
 32 35  1  0  0  0  0
 32 31  1  0  0  0  0
 35 34  1  0  0  0  0
 36 35  2  0  0  0  0
M  END
>  <MODEL>
3

>  <REMARK>
 VINA RESULT:      -8.9      1.884      2.506
  Name = 
  8 active torsions:
  status: ('A' for Active; 'I' for Inactive)
    1  A    between atoms: C_6  and  C_12
    2  A    between atoms: C_12  and  C_34
    3  A    between atoms: C_13  and  N_15
    4  A    between atoms: C_13  and  C_20
    5  A    between atoms: C_17  and  C_24
    6  A    between atoms: N_19  and  C_26
    7  A    between atoms: C_20  and  C_34
    8  A    between atoms: C_22  and  C_26
                            x       y       z     vdW  Elec       q    Type
                         _______ _______ _______ _____ _____    ______ ____

>  <TORSDO>
F 8

$$$$
=
 OpenBabel10222419563D

 36 39  0  0  1  0  0  0  0  0999 V2000
  184.5710  178.5720  142.9120 C   0  0  0  0  0  3  0  0  0  0  0  0
  188.8150  177.4900  140.1610 N   0  0  0  0  0  0  0  0  0  0  0  0
  184.2090  178.8140  144.1680 C   0  0  0  0  0  3  0  0  0  0  0  0
  185.3130  178.6200  146.5170 C   0  0  0  0  0  1  0  0  0  0  0  0
  185.9060  177.8910  142.8730 C   0  0  1  0  0  3  0  0  0  0  0  0
  185.2740  178.3620  145.0490 C   0  0  0  0  0  0  0  0  0  0  0  0
  188.3910  178.1800  142.4030 C   0  0  2  0  0  3  0  0  0  0  0  0
  187.9040  178.7100  138.3400 N   0  0  0  0  0  2  0  0  0  0  0  0
  188.6690  177.6870  143.7420 N   0  0  0  0  0  0  0  0  0  0  0  0
  189.7460  176.7040  143.6550 C   0  0  1  0  0  3  0  0  0  0  0  0
  186.6760  178.6570  140.5660 C   0  0  0  0  0  2  0  0  0  0  0  0
  187.9190  177.2770  145.9240 O   0  0  0  0  0  0  0  0  0  0  0  0
  187.6410  177.5950  144.7360 C   0  0  0  0  0  0  0  0  0  0  0  0
  187.8630  178.2540  139.6920 C   0  0  0  0  0  0  0  0  0  0  0  0
  186.9630  178.6830  142.0950 C   0  0  1  0  0  3  0  0  0  0  0  0
  189.9910  176.4860  142.1490 C   0  0  0  0  0  2  0  0  0  0  0  0
  186.2630  177.8770  144.3160 C   0  0  0  0  0  0  0  0  0  0  0  0
  188.7160  177.0160  141.5290 C   0  0  2  0  0  3  0  0  0  0  0  0
  191.5160  176.5910  145.3200 C   0  0  0  0  0  0  0  0  0  0  0  0
  190.9730  177.2310  144.3220 C   0  0  0  0  0  3  0  0  0  0  0  0
  192.0600  175.9470  146.3220 C   0  0  0  0  0  0  0  0  0  0  0  0
  191.0130  177.1450  148.0890 O   0  0  0  0  0  0  0  0  0  0  0  0
  193.1890  176.8950  149.8880 C   0  0  0  0  0  1  0  0  0  0  0  0
  192.0300  176.5170  147.6810 C   0  0  0  0  0  0  0  0  0  0  0  0
  193.1610  176.3550  148.5390 N   0  0  0  0  0  2  0  0  0  0  0  0
  192.6850  174.6800  146.1060 N   0  0  0  0  0  2  0  0  0  0  0  0
  192.5690  174.0190  144.9290 O   0  0  0  0  0  1  0  0  0  0  0  0
  188.9920  178.3700  137.4350 C   0  0  0  0  0  2  0  0  0  0  0  0
  188.4480  177.6680  136.2020 C   0  0  0  0  0  2  0  0  0  0  0  0
  187.1000  175.7500  135.7540 O   0  0  0  0  0  1  0  0  0  0  0  0
  188.2190  176.1850  136.4710 C   0  0  1  0  0  3  0  0  0  0  0  0
  189.4470  175.3780  136.0560 C   0  0  1  0  0  3  0  0  0  0  0  0
  190.4300  176.2250  135.5390 O   0  0  0  0  0  1  0  0  0  0  0  0
  189.9200  173.3700  137.2520 O   0  0  0  0  0  0  0  0  0  0  0  0
  190.0090  174.6250  137.2180 C   0  0  0  0  0  0  0  0  0  0  0  0
  190.6210  175.3020  138.2660 O   0  0  0  0  0  1  0  0  0  0  0  0
  1  3  2  0  0  0  0
  2 18  1  0  0  0  0
  3  6  1  0  0  0  0
  5  1  1  1  0  0  0
  5 17  1  0  0  0  0
  6  4  1  0  0  0  0
  7  9  1  1  0  0  0
  8 14  1  0  0  0  0
  9 13  1  0  0  0  0
 10  9  1  0  0  0  0
 10 20  1  1  0  0  0
 13 12  2  0  0  0  0
 14  2  2  0  0  0  0
 14 11  1  0  0  0  0
 15 11  1  6  0  0  0
 15  7  1  0  0  0  0
 15  5  1  0  0  0  0
 16 10  1  0  0  0  0
 17 13  1  0  0  0  0
 17  6  2  0  0  0  0
 18 16  1  1  0  0  0
 18  7  1  0  0  0  0
 19 21  2  0  0  0  0
 20 19  2  0  0  0  0
 21 24  1  0  0  0  0
 24 22  2  0  0  0  0
 24 25  1  0  0  0  0
 25 23  1  0  0  0  0
 26 21  1  0  0  0  0
 27 26  1  0  0  0  0
 28  8  1  0  0  0  0
 29 31  1  0  0  0  0
 29 28  1  0  0  0  0
 31 30  1  6  0  0  0
 32 33  1  1  0  0  0
 32 31  1  0  0  0  0
 32 35  1  0  0  0  0
 35 34  2  0  0  0  0
 35 36  1  0  0  0  0
M  END
>  <MODEL>
4

>  <REMARK>
 VINA RESULT:      -8.8      3.018      6.781
  Name = 
  8 active torsions:
  status: ('A' for Active; 'I' for Inactive)
    1  A    between atoms: C_6  and  C_12
    2  A    between atoms: C_12  and  C_34
    3  A    between atoms: C_13  and  N_15
    4  A    between atoms: C_13  and  C_20
    5  A    between atoms: C_17  and  C_24
    6  A    between atoms: N_19  and  C_26
    7  A    between atoms: C_20  and  C_34
    8  A    between atoms: C_22  and  C_26
                            x       y       z     vdW  Elec       q    Type
                         _______ _______ _______ _____ _____    ______ ____

>  <TORSDO>
F 8

$$$$
=
 OpenBabel10222419563D

 36 39  0  0  1  0  0  0  0  0999 V2000
  187.5730  177.8120  148.2700 C   0  0  0  0  0  3  0  0  0  0  0  0
  185.5160  177.8690  143.5260 N   0  0  0  0  0  0  0  0  0  0  0  0
  188.7640  177.8250  148.8620 C   0  0  0  0  0  3  0  0  0  0  0  0
  191.2410  177.5430  148.1140 C   0  0  0  0  0  1  0  0  0  0  0  0
  187.7040  177.3940  146.8370 C   0  0  1  0  0  3  0  0  0  0  0  0
  189.7720  177.4670  147.8750 C   0  0  0  0  0  0  0  0  0  0  0  0
  187.7040  178.1860  144.4170 C   0  0  2  0  0  3  0  0  0  0  0  0
  183.6860  179.1220  144.3710 N   0  0  0  0  0  2  0  0  0  0  0  0
  189.0200  177.5870  144.2550 N   0  0  0  0  0  0  0  0  0  0  0  0
  189.0300  176.8340  143.0030 C   0  0  1  0  0  3  0  0  0  0  0  0
  185.6490  178.5690  145.8900 C   0  0  0  0  0  2  0  0  0  0  0  0
  190.9890  176.7790  145.2330 O   0  0  0  0  0  0  0  0  0  0  0  0
  189.8060  177.1870  145.3840 C   0  0  0  0  0  0  0  0  0  0  0  0
  184.9620  178.5000  144.5280 C   0  0  0  0  0  0  0  0  0  0  0  0
  187.2000  178.4560  145.8520 C   0  0  1  0  0  3  0  0  0  0  0  0
  187.5760  176.8540  142.4920 C   0  0  0  0  0  2  0  0  0  0  0  0
  189.1800  177.2650  146.7090 C   0  0  0  0  0  0  0  0  0  0  0  0
  186.7960  177.2180  143.7360 C   0  0  2  0  0  3  0  0  0  0  0  0
  189.5900  177.6420  140.7780 C   0  0  0  0  0  0  0  0  0  0  0  0
  189.9470  177.4880  142.0230 C   0  0  0  0  0  3  0  0  0  0  0  0
  189.2300  177.7980  139.5280 C   0  0  0  0  0  0  0  0  0  0  0  0
  189.8250  177.4220  137.2570 O   0  0  0  0  0  0  0  0  0  0  0  0
  191.3250  175.0740  137.7740 C   0  0  0  0  0  1  0  0  0  0  0  0
  189.9010  177.0390  138.4580 C   0  0  0  0  0  0  0  0  0  0  0  0
  190.6420  175.8620  138.7860 N   0  0  0  0  0  2  0  0  0  0  0  0
  188.1760  178.7040  139.1930 N   0  0  0  0  0  2  0  0  0  0  0  0
  186.9080  178.2760  138.9820 O   0  0  0  0  0  1  0  0  0  0  0  0
  182.9570  179.1000  143.1120 C   0  0  0  0  0  2  0  0  0  0  0  0
  181.4610  179.1620  143.3710 C   0  0  0  0  0  2  0  0  0  0  0  0
  179.7530  177.6670  142.6360 O   0  0  0  0  0  1  0  0  0  0  0  0
  180.6750  178.6150  142.1840 C   0  0  1  0  0  3  0  0  0  0  0  0
  179.9450  179.7490  141.4680 C   0  0  1  0  0  3  0  0  0  0  0  0
  179.8320  180.8590  142.3080 O   0  0  0  0  0  1  0  0  0  0  0  0
  181.5400  179.3820  139.7350 O   0  0  0  0  0  1  0  0  0  0  0  0
  180.6680  180.1470  140.2230 C   0  0  0  0  0  0  0  0  0  0  0  0
  180.3900  181.3600  139.6040 O   0  0  0  0  0  0  0  0  0  0  0  0
  1  3  2  0  0  0  0
  2 18  1  0  0  0  0
  2 14  2  0  0  0  0
  5  1  1  1  0  0  0
  6  4  1  0  0  0  0
  6  3  1  0  0  0  0
  7  9  1  1  0  0  0
  7 15  1  0  0  0  0
  8 14  1  0  0  0  0
  9 13  1  0  0  0  0
 10 20  1  6  0  0  0
 10  9  1  0  0  0  0
 12 13  2  0  0  0  0
 13 17  1  0  0  0  0
 14 11  1  0  0  0  0
 15 11  1  6  0  0  0
 15  5  1  0  0  0  0
 16 10  1  0  0  0  0
 17  5  1  0  0  0  0
 17  6  2  0  0  0  0
 18 16  1  6  0  0  0
 18  7  1  0  0  0  0
 19 20  2  0  0  0  0
 21 19  2  0  0  0  0
 22 24  2  0  0  0  0
 23 25  1  0  0  0  0
 24 25  1  0  0  0  0
 24 21  1  0  0  0  0
 26 21  1  0  0  0  0
 27 26  1  0  0  0  0
 28 29  1  0  0  0  0
 28  8  1  0  0  0  0
 31 30  1  1  0  0  0
 31 29  1  0  0  0  0
 32 31  1  0  0  0  0
 32 33  1  1  0  0  0
 34 35  1  0  0  0  0
 35 32  1  0  0  0  0
 36 35  2  0  0  0  0
M  END
>  <MODEL>
5

>  <REMARK>
 VINA RESULT:      -8.8      2.285      8.165
  Name = 
  8 active torsions:
  status: ('A' for Active; 'I' for Inactive)
    1  A    between atoms: C_6  and  C_12
    2  A    between atoms: C_12  and  C_34
    3  A    between atoms: C_13  and  N_15
    4  A    between atoms: C_13  and  C_20
    5  A    between atoms: C_17  and  C_24
    6  A    between atoms: N_19  and  C_26
    7  A    between atoms: C_20  and  C_34
    8  A    between atoms: C_22  and  C_26
                            x       y       z     vdW  Elec       q    Type
                         _______ _______ _______ _____ _____    ______ ____

>  <TORSDO>
F 8

$$$$
=
 OpenBabel10222419563D

 36 39  0  0  1  0  0  0  0  0999 V2000
  187.8600  177.6840  147.7980 C   0  0  0  0  0  3  0  0  0  0  0  0
  186.4380  177.6640  142.8260 N   0  0  0  0  0  0  0  0  0  0  0  0
  188.9640  177.6610  148.5390 C   0  0  0  0  0  3  0  0  0  0  0  0
  191.4980  177.2300  148.1310 C   0  0  0  0  0  1  0  0  0  0  0  0
  188.1530  177.2070  146.4070 C   0  0  1  0  0  3  0  0  0  0  0  0
  190.0700  177.2170  147.7050 C   0  0  0  0  0  0  0  0  0  0  0  0
  188.5070  177.9070  143.9850 C   0  0  2  0  0  3  0  0  0  0  0  0
  184.5840  179.0350  143.3860 N   0  0  0  0  0  2  0  0  0  0  0  0
  189.7990  177.2390  144.0150 N   0  0  0  0  0  0  0  0  0  0  0  0
  189.9310  176.4410  142.7990 C   0  0  1  0  0  3  0  0  0  0  0  0
  186.3020  178.4450  145.1650 C   0  0  0  0  0  2  0  0  0  0  0  0
  191.5790  176.3730  145.2670 O   0  0  0  0  0  0  0  0  0  0  0  0
  190.4110  176.8440  145.2490 C   0  0  0  0  0  0  0  0  0  0  0  0
  185.7940  178.3580  143.7270 C   0  0  0  0  0  0  0  0  0  0  0  0
  187.8370  178.2540  145.3330 C   0  0  1  0  0  3  0  0  0  0  0  0
  188.5580  176.5130  142.1020 C   0  0  0  0  0  2  0  0  0  0  0  0
  189.6240  177.0020  146.4780 C   0  0  0  0  0  0  0  0  0  0  0  0
  187.6440  176.9600  143.2220 C   0  0  2  0  0  3  0  0  0  0  0  0
  190.8680  177.0190  140.6300 C   0  0  0  0  0  0  0  0  0  0  0  0
  190.9990  177.0120  141.9270 C   0  0  0  0  0  3  0  0  0  0  0  0
  190.7340  177.0260  139.3270 C   0  0  0  0  0  0  0  0  0  0  0  0
  191.3420  174.9460  138.3480 O   0  0  0  0  0  0  0  0  0  0  0  0
  193.6000  175.9650  136.9710 C   0  0  0  0  0  1  0  0  0  0  0  0
  191.5940  176.1760  138.4840 C   0  0  0  0  0  0  0  0  0  0  0  0
  192.7170  176.7530  137.8160 N   0  0  0  0  0  2  0  0  0  0  0  0
  189.7460  177.8560  138.7120 N   0  0  0  0  0  2  0  0  0  0  0  0
  188.8910  178.6080  139.4450 O   0  0  0  0  0  1  0  0  0  0  0  0
  184.0230  179.0020  142.0440 C   0  0  0  0  0  2  0  0  0  0  0  0
  182.6740  178.3010  142.0550 C   0  0  0  0  0  2  0  0  0  0  0  0
  182.0150  177.9970  139.7830 O   0  0  0  0  0  1  0  0  0  0  0  0
  181.7920  178.7900  140.9120 C   0  0  1  0  0  3  0  0  0  0  0  0
  180.3210  178.7180  141.3140 C   0  0  1  0  0  3  0  0  0  0  0  0
  179.8730  177.3960  141.2760 O   0  0  0  0  0  1  0  0  0  0  0  0
  180.2960  180.4930  142.9060 O   0  0  0  0  0  0  0  0  0  0  0  0
  180.1160  179.2660  142.6890 C   0  0  0  0  0  0  0  0  0  0  0  0
  179.7350  178.4300  143.7310 O   0  0  0  0  0  1  0  0  0  0  0  0
  1  3  2  0  0  0  0
  2 18  1  0  0  0  0
  2 14  2  0  0  0  0
  5 17  1  0  0  0  0
  5  1  1  1  0  0  0
  6  4  1  0  0  0  0
  6  3  1  0  0  0  0
  7  9  1  1  0  0  0
  7 15  1  0  0  0  0
  8 14  1  0  0  0  0
  9 13  1  0  0  0  0
 10 20  1  6  0  0  0
 10  9  1  0  0  0  0
 13 12  2  0  0  0  0
 13 17  1  0  0  0  0
 14 11  1  0  0  0  0
 15 11  1  6  0  0  0
 15  5  1  0  0  0  0
 16 10  1  0  0  0  0
 17  6  2  0  0  0  0
 18 16  1  6  0  0  0
 18  7  1  0  0  0  0
 19 20  2  0  0  0  0
 21 19  2  0  0  0  0
 22 24  2  0  0  0  0
 23 25  1  0  0  0  0
 24 21  1  0  0  0  0
 25 24  1  0  0  0  0
 26 21  1  0  0  0  0
 26 27  1  0  0  0  0
 28 29  1  0  0  0  0
 28  8  1  0  0  0  0
 31 30  1  6  0  0  0
 31 32  1  0  0  0  0
 31 29  1  0  0  0  0
 32 33  1  1  0  0  0
 32 35  1  0  0  0  0
 35 34  2  0  0  0  0
 35 36  1  0  0  0  0
M  END
>  <MODEL>
6

>  <REMARK>
 VINA RESULT:      -8.4      2.165      8.385
  Name = 
  8 active torsions:
  status: ('A' for Active; 'I' for Inactive)
    1  A    between atoms: C_6  and  C_12
    2  A    between atoms: C_12  and  C_34
    3  A    between atoms: C_13  and  N_15
    4  A    between atoms: C_13  and  C_20
    5  A    between atoms: C_17  and  C_24
    6  A    between atoms: N_19  and  C_26
    7  A    between atoms: C_20  and  C_34
    8  A    between atoms: C_22  and  C_26
                            x       y       z     vdW  Elec       q    Type
                         _______ _______ _______ _____ _____    ______ ____

>  <TORSDO>
F 8

$$$$
=
 OpenBabel10222419563D

 36 39  0  0  1  0  0  0  0  0999 V2000
  183.7530  178.9130  144.8120 C   0  0  0  0  0  3  0  0  0  0  0  0
  188.8550  178.0780  144.9540 N   0  0  0  0  0  0  0  0  0  0  0  0
  182.7420  178.8830  143.9490 C   0  0  0  0  0  3  0  0  0  0  0  0
  182.4760  178.6910  141.3670 C   0  0  0  0  0  1  0  0  0  0  0  0
  185.0610  178.9900  144.0850 C   0  0  1  0  0  3  0  0  0  0  0  0
  183.2880  178.8920  142.6010 C   0  0  0  0  0  0  0  0  0  0  0  0
  187.1300  177.6980  143.3540 C   0  0  2  0  0  3  0  0  0  0  0  0
  188.6270  177.2720  147.1740 N   0  0  0  0  0  2  0  0  0  0  0  0
  186.8440  178.0810  141.9800 N   0  0  0  0  0  0  0  0  0  0  0  0
  188.0870  178.5370  141.3630 C   0  0  1  0  0  3  0  0  0  0  0  0
  186.5560  177.8970  145.8380 C   0  0  0  0  0  2  0  0  0  0  0  0
  185.2990  178.8360  140.3890 O   0  0  0  0  0  0  0  0  0  0  0  0
  185.5710  178.6170  141.6000 C   0  0  0  0  0  0  0  0  0  0  0  0
  188.0720  177.7520  145.9500 C   0  0  0  0  0  0  0  0  0  0  0  0
  185.9910  177.8100  144.3910 C   0  0  1  0  0  3  0  0  0  0  0  0
  189.1250  178.5840  142.5020 C   0  0  0  0  0  2  0  0  0  0  0  0
  184.6090  178.9060  142.6710 C   0  0  0  0  0  0  0  0  0  0  0  0
  188.2540  178.5980  143.7390 C   0  0  2  0  0  3  0  0  0  0  0  0
  188.1050  177.7300  139.0680 C   0  0  0  0  0  0  0  0  0  0  0  0
  188.5090  177.5790  140.2990 C   0  0  0  0  0  3  0  0  0  0  0  0
  187.6990  177.8830  137.8330 C   0  0  0  0  0  0  0  0  0  0  0  0
  185.6810  177.3150  136.7120 O   0  0  0  0  0  0  0  0  0  0  0  0
  186.1980  174.5290  136.6550 C   0  0  0  0  0  1  0  0  0  0  0  0
  186.7610  176.9180  137.2300 C   0  0  0  0  0  0  0  0  0  0  0  0
  187.0820  175.5260  137.2340 N   0  0  0  0  0  2  0  0  0  0  0  0
  188.1590  178.9930  137.0580 N   0  0  0  0  0  2  0  0  0  0  0  0
  189.0540  179.8830  137.5500 O   0  0  0  0  0  1  0  0  0  0  0  0
  190.0600  177.1090  147.3720 C   0  0  0  0  0  2  0  0  0  0  0  0
  190.5620  175.9010  146.5990 C   0  0  0  0  0  2  0  0  0  0  0  0
  192.7530  175.3210  147.3440 O   0  0  0  0  0  1  0  0  0  0  0  0
  192.0600  176.0010  146.3380 C   0  0  1  0  0  3  0  0  0  0  0  0
  192.4000  175.3970  144.9760 C   0  0  1  0  0  3  0  0  0  0  0  0
  192.1060  174.0320  144.9660 O   0  0  0  0  0  1  0  0  0  0  0  0
  191.9110  177.2590  143.5700 O   0  0  0  0  0  1  0  0  0  0  0  0
  191.6330  176.0730  143.8870 C   0  0  0  0  0  0  0  0  0  0  0  0
  190.6090  175.4040  143.2270 O   0  0  0  0  0  0  0  0  0  0  0  0
  2 14  2  0  0  0  0
  3  1  2  0  0  0  0
  4  6  1  0  0  0  0
  5 15  1  0  0  0  0
  5  1  1  1  0  0  0
  6 17  2  0  0  0  0
  6  3  1  0  0  0  0
  7  9  1  6  0  0  0
  7 18  1  0  0  0  0
  7 15  1  0  0  0  0
  8 28  1  0  0  0  0
 10 20  1  6  0  0  0
 10  9  1  0  0  0  0
 10 16  1  0  0  0  0
 11 14  1  0  0  0  0
 12 13  2  0  0  0  0
 13  9  1  0  0  0  0
 13 17  1  0  0  0  0
 14  8  1  0  0  0  0
 15 11  1  1  0  0  0
 17  5  1  0  0  0  0
 18 16  1  6  0  0  0
 18  2  1  0  0  0  0
 19 20  2  0  0  0  0
 21 19  2  0  0  0  0
 22 24  2  0  0  0  0
 23 25  1  0  0  0  0
 24 25  1  0  0  0  0
 24 21  1  0  0  0  0
 26 27  1  0  0  0  0
 26 21  1  0  0  0  0
 29 28  1  0  0  0  0
 31 29  1  0  0  0  0
 31 30  1  1  0  0  0
 32 33  1  1  0  0  0
 32 31  1  0  0  0  0
 34 35  1  0  0  0  0
 35 32  1  0  0  0  0
 36 35  2  0  0  0  0
M  END
>  <MODEL>
7

>  <REMARK>
 VINA RESULT:      -8.3      3.363      6.446
  Name = 
  8 active torsions:
  status: ('A' for Active; 'I' for Inactive)
    1  A    between atoms: C_6  and  C_12
    2  A    between atoms: C_12  and  C_34
    3  A    between atoms: C_13  and  N_15
    4  A    between atoms: C_13  and  C_20
    5  A    between atoms: C_17  and  C_24
    6  A    between atoms: N_19  and  C_26
    7  A    between atoms: C_20  and  C_34
    8  A    between atoms: C_22  and  C_26
                            x       y       z     vdW  Elec       q    Type
                         _______ _______ _______ _____ _____    ______ ____

>  <TORSDO>
F 8

$$$$
=
 OpenBabel10222419563D

 36 39  0  0  1  0  0  0  0  0999 V2000
  190.0420  177.3170  138.0380 C   0  0  0  0  0  3  0  0  0  0  0  0
  189.3820  177.6500  143.1560 N   0  0  0  0  0  0  0  0  0  0  0  0
  189.4210  177.6490  136.9090 C   0  0  0  0  0  3  0  0  0  0  0  0
  187.0550  178.5030  136.2440 C   0  0  0  0  0  1  0  0  0  0  0  0
  189.0770  177.3130  139.1850 C   0  0  1  0  0  3  0  0  0  0  0  0
  188.0280  177.9310  137.2170 C   0  0  0  0  0  0  0  0  0  0  0  0
  188.2780  178.5660  141.2530 C   0  0  2  0  0  3  0  0  0  0  0  0
  191.7300  177.8900  143.4090 N   0  0  0  0  0  2  0  0  0  0  0  0
  186.9350  178.5640  140.6940 N   0  0  0  0  0  0  0  0  0  0  0  0
  186.0010  178.1730  141.7470 C   0  0  1  0  0  3  0  0  0  0  0  0
  190.7120  177.7990  141.0810 C   0  0  0  0  0  2  0  0  0  0  0  0
  185.5430  178.3670  138.8200 O   0  0  0  0  0  0  0  0  0  0  0  0
  186.6950  178.2510  139.3170 C   0  0  0  0  0  0  0  0  0  0  0  0
  190.5590  177.7820  142.6000 C   0  0  0  0  0  0  0  0  0  0  0  0
  189.4620  178.2950  140.2980 C   0  0  1  0  0  3  0  0  0  0  0  0
  186.8750  177.7530  142.9450 C   0  0  0  0  0  2  0  0  0  0  0  0
  187.8360  177.7870  138.5180 C   0  0  0  0  0  0  0  0  0  0  0  0
  188.2200  177.5050  142.2990 C   0  0  2  0  0  3  0  0  0  0  0  0
  184.2070  179.2060  143.0250 C   0  0  0  0  0  0  0  0  0  0  0  0
  185.1250  179.3270  142.1070 C   0  0  0  0  0  3  0  0  0  0  0  0
  183.2860  179.0830  143.9480 C   0  0  0  0  0  0  0  0  0  0  0  0
  180.9910  178.6110  144.3490 O   0  0  0  0  0  0  0  0  0  0  0  0
  180.0630  179.8230  141.9600 C   0  0  0  0  0  1  0  0  0  0  0  0
  181.8580  179.1240  143.5880 C   0  0  0  0  0  0  0  0  0  0  0  0
  181.4560  179.7510  142.3680 N   0  0  0  0  0  2  0  0  0  0  0  0
  183.6610  178.9010  145.3160 N   0  0  0  0  0  2  0  0  0  0  0  0
  184.9510  178.9940  145.7200 O   0  0  0  0  0  1  0  0  0  0  0  0
  191.6780  177.8750  144.8630 C   0  0  0  0  0  2  0  0  0  0  0  0
  191.5430  176.4490  145.3690 C   0  0  0  0  0  2  0  0  0  0  0  0
  191.6390  176.8210  147.7240 O   0  0  0  0  0  1  0  0  0  0  0  0
  190.7900  176.4060  146.6940 C   0  0  1  0  0  3  0  0  0  0  0  0
  189.5650  177.3160  146.6340 C   0  0  1  0  0  3  0  0  0  0  0  0
  188.6000  176.7720  145.7820 O   0  0  0  0  0  1  0  0  0  0  0  0
  188.1870  176.6350  148.4560 O   0  0  0  0  0  0  0  0  0  0  0  0
  188.9710  177.5030  147.9920 C   0  0  0  0  0  0  0  0  0  0  0  0
  189.2730  178.6320  148.7440 O   0  0  0  0  0  1  0  0  0  0  0  0
  3  6  1  0  0  0  0
  3  1  2  0  0  0  0
  4  6  1  0  0  0  0
  5  1  1  6  0  0  0
  5 15  1  0  0  0  0
  6 17  2  0  0  0  0
  7  9  1  6  0  0  0
  7 18  1  0  0  0  0
  8 28  1  0  0  0  0
  9 10  1  0  0  0  0
 10 20  1  1  0  0  0
 10 16  1  0  0  0  0
 11 14  1  0  0  0  0
 12 13  2  0  0  0  0
 13  9  1  0  0  0  0
 14  2  2  0  0  0  0
 14  8  1  0  0  0  0
 15 11  1  1  0  0  0
 15  7  1  0  0  0  0
 17  5  1  0  0  0  0
 17 13  1  0  0  0  0
 18 16  1  1  0  0  0
 18  2  1  0  0  0  0
 19 21  2  0  0  0  0
 20 19  2  0  0  0  0
 21 26  1  0  0  0  0
 23 25  1  0  0  0  0
 24 21  1  0  0  0  0
 24 22  2  0  0  0  0
 25 24  1  0  0  0  0
 26 27  1  0  0  0  0
 28 29  1  0  0  0  0
 29 31  1  0  0  0  0
 31 30  1  1  0  0  0
 32 33  1  6  0  0  0
 32 31  1  0  0  0  0
 32 35  1  0  0  0  0
 35 34  2  0  0  0  0
 35 36  1  0  0  0  0
M  END
>  <MODEL>
8

>  <REMARK>
 VINA RESULT:      -8.3      3.372      6.844
  Name = 
  8 active torsions:
  status: ('A' for Active; 'I' for Inactive)
    1  A    between atoms: C_6  and  C_12
    2  A    between atoms: C_12  and  C_34
    3  A    between atoms: C_13  and  N_15
    4  A    between atoms: C_13  and  C_20
    5  A    between atoms: C_17  and  C_24
    6  A    between atoms: N_19  and  C_26
    7  A    between atoms: C_20  and  C_34
    8  A    between atoms: C_22  and  C_26
                            x       y       z     vdW  Elec       q    Type
                         _______ _______ _______ _____ _____    ______ ____

>  <TORSDO>
F 8

$$$$
=
 OpenBabel10222419563D

 36 39  0  0  1  0  0  0  0  0999 V2000
  190.7710  177.6740  144.6120 C   0  0  0  0  0  3  0  0  0  0  0  0
  188.1350  178.4100  140.2230 N   0  0  0  0  0  0  0  0  0  0  0  0
  190.5560  177.3630  145.8860 C   0  0  0  0  0  3  0  0  0  0  0  0
  188.4860  177.1660  147.4520 C   0  0  0  0  0  1  0  0  0  0  0  0
  189.5070  178.1600  143.9700 C   0  0  1  0  0  3  0  0  0  0  0  0
  189.1460  177.5710  146.1790 C   0  0  0  0  0  0  0  0  0  0  0  0
  187.6000  177.5690  142.3880 C   0  0  2  0  0  3  0  0  0  0  0  0
  189.9700  177.5170  139.0110 N   0  0  0  0  0  2  0  0  0  0  0  0
  186.6620  177.8840  143.4540 N   0  0  0  0  0  0  0  0  0  0  0  0
  185.5930  178.7080  142.8960 C   0  0  1  0  0  3  0  0  0  0  0  0
  190.0180  177.5240  141.5530 C   0  0  0  0  0  2  0  0  0  0  0  0
  186.2520  178.1790  145.7420 O   0  0  0  0  0  0  0  0  0  0  0  0
  187.0910  178.0220  144.8150 C   0  0  0  0  0  0  0  0  0  0  0  0
  189.3110  177.8390  140.2360 C   0  0  0  0  0  0  0  0  0  0  0  0
  189.0740  177.3070  142.7720 C   0  0  1  0  0  3  0  0  0  0  0  0
  186.0300  179.0370  141.4550 C   0  0  0  0  0  2  0  0  0  0  0  0
  188.5340  177.9800  145.0800 C   0  0  0  0  0  0  0  0  0  0  0  0
  187.5160  178.7560  141.4900 C   0  0  2  0  0  3  0  0  0  0  0  0
  183.2440  178.4370  142.3270 C   0  0  0  0  0  0  0  0  0  0  0  0
  184.3080  177.9500  142.9020 C   0  0  0  0  0  3  0  0  0  0  0  0
  182.1760  178.9280  141.7480 C   0  0  0  0  0  0  0  0  0  0  0  0
  180.5170  180.5030  142.3950 O   0  0  0  0  0  0  0  0  0  0  0  0
  179.3240  178.8250  144.3440 C   0  0  0  0  0  1  0  0  0  0  0  0
  181.0190  179.3550  142.5540 C   0  0  0  0  0  0  0  0  0  0  0  0
  180.4640  178.4600  143.5200 N   0  0  0  0  0  2  0  0  0  0  0  0
  182.1280  179.0590  140.3250 N   0  0  0  0  0  2  0  0  0  0  0  0
  180.9590  179.0030  139.6430 O   0  0  0  0  0  1  0  0  0  0  0  0
  189.3750  177.7880  137.7110 C   0  0  0  0  0  2  0  0  0  0  0  0
  189.7570  176.6990  136.7220 C   0  0  0  0  0  2  0  0  0  0  0  0
  188.8460  175.3670  134.9640 O   0  0  0  0  0  1  0  0  0  0  0  0
  188.5190  176.0060  136.1640 C   0  0  1  0  0  3  0  0  0  0  0  0
  187.9890  174.9850  137.1680 C   0  0  1  0  0  3  0  0  0  0  0  0
  186.6040  174.8510  137.0350 O   0  0  0  0  0  1  0  0  0  0  0  0
  189.8260  173.4750  137.3260 O   0  0  0  0  0  1  0  0  0  0  0  0
  188.6330  173.6530  136.9660 C   0  0  0  0  0  0  0  0  0  0  0  0
  187.9280  172.6110  136.3760 O   0  0  0  0  0  0  0  0  0  0  0  0
  1  3  2  0  0  0  0
  2 14  2  0  0  0  0
  2 18  1  0  0  0  0
  3  6  1  0  0  0  0
  5  1  1  1  0  0  0
  5 17  1  0  0  0  0
  6  4  1  0  0  0  0
  7 15  1  0  0  0  0
  7  9  1  1  0  0  0
  8 14  1  0  0  0  0
  9 13  1  0  0  0  0
 10 20  1  6  0  0  0
 10  9  1  0  0  0  0
 13 17  1  0  0  0  0
 13 12  2  0  0  0  0
 14 11  1  0  0  0  0
 15 11  1  6  0  0  0
 15  5  1  0  0  0  0
 16 10  1  0  0  0  0
 17  6  2  0  0  0  0
 18 16  1  6  0  0  0
 18  7  1  0  0  0  0
 19 20  2  0  0  0  0
 21 19  2  0  0  0  0
 21 24  1  0  0  0  0
 22 24  2  0  0  0  0
 24 25  1  0  0  0  0
 25 23  1  0  0  0  0
 26 21  1  0  0  0  0
 27 26  1  0  0  0  0
 28  8  1  0  0  0  0
 29 28  1  0  0  0  0
 31 30  1  6  0  0  0
 31 29  1  0  0  0  0
 31 32  1  0  0  0  0
 32 33  1  6  0  0  0
 35 32  1  0  0  0  0
 35 34  1  0  0  0  0
 36 35  2  0  0  0  0
M  END
>  <MODEL>
9

>  <REMARK>
 VINA RESULT:      -8.2      1.982      2.674
  Name = 
  8 active torsions:
  status: ('A' for Active; 'I' for Inactive)
    1  A    between atoms: C_6  and  C_12
    2  A    between atoms: C_12  and  C_34
    3  A    between atoms: C_13  and  N_15
    4  A    between atoms: C_13  and  C_20
    5  A    between atoms: C_17  and  C_24
    6  A    between atoms: N_19  and  C_26
    7  A    between atoms: C_20  and  C_34
    8  A    between atoms: C_22  and  C_26
                            x       y       z     vdW  Elec       q    Type
                         _______ _______ _______ _____ _____    ______ ____

>  <TORSDO>
F 8

$$$$
