=
 OpenBabel10222419543D

 37 39  0  0  1  0  0  0  0  0999 V2000
  183.6160  178.9800  145.1740 C   0  0  0  0  0  2  0  0  0  0  0  0
  185.7050  178.1170  144.0830 C   0  0  2  0  0  3  0  0  0  0  0  0
  185.0640  178.3120  142.7040 C   0  0  0  0  0  2  0  0  0  0  0  0
  182.9960  179.1890  143.7960 C   0  0  0  0  0  2  0  0  0  0  0  0
  185.1360  179.1110  145.0960 C   0  0  0  0  0  2  0  0  0  0  0  0
  183.5510  178.1590  142.8160 C   0  0  1  0  0  3  0  0  0  0  0  0
  187.2420  178.1760  144.0470 C   0  0  1  0  0  3  0  0  0  0  0  0
  191.6920  176.5300  146.6020 C   0  0  0  0  0  3  0  0  0  0  0  0
  190.3900  177.3750  144.7330 C   0  0  0  0  0  3  0  0  0  0  0  0
  187.2000  177.5200  146.4670 C   0  0  0  0  0  3  0  0  0  0  0  0
  187.8910  177.7590  145.3470 C   0  0  0  0  0  0  0  0  0  0  0  0
  189.3960  176.9670  146.8790 C   0  0  0  0  0  0  0  0  0  0  0  0
  190.5780  176.5410  147.3930 N   0  0  0  0  0  2  0  0  0  0  0  0
  188.0900  177.0230  147.5780 C   0  0  0  0  0  3  0  0  0  0  0  0
  191.6180  176.9440  145.2580 C   0  0  0  0  0  3  0  0  0  0  0  0
  189.2830  177.3860  145.5820 C   0  0  0  0  0  0  0  0  0  0  0  0
  188.4720  178.0790  141.9030 C   0  0  0  0  0  3  0  0  0  0  0  0
  187.8330  177.4320  142.8780 C   0  0  0  0  0  3  0  0  0  0  0  0
  190.4260  177.5590  140.6810 O   0  0  0  0  0  1  0  0  0  0  0  0
  189.0500  177.3280  140.7510 C   0  0  2  0  0  3  0  0  0  0  0  0
  188.3840  177.7900  139.4650 C   0  0  0  0  0  2  0  0  0  0  0  0
  189.6540  177.3530  137.4930 O   0  0  0  0  0  1  0  0  0  0  0  0
  189.4180  178.3110  138.4810 C   0  0  0  0  0  3  0  0  0  0  0  0
  188.9420  179.4770  137.8870 O   0  0  0  0  0  1  0  0  0  0  0  0
  182.9410  178.3480  141.5130 N   0  0  0  0  0  2  0  0  0  0  0  0
  183.9680  178.7440  140.6450 N   0  0  0  0  0  2  0  0  0  0  0  0
  184.6720  179.9860  138.8180 O   0  0  0  0  0  0  0  0  0  0  0  0
  182.4130  180.1740  139.3560 N   0  0  0  0  0  2  0  0  0  0  0  0
  183.7210  179.6470  139.5710 C   0  0  0  0  0  0  0  0  0  0  0  0
  180.3290  182.0300  139.2250 O   0  0  0  0  0  0  0  0  0  0  0  0
  182.1300  180.9450  138.2210 N   0  0  0  0  0  2  0  0  0  0  0  0
  181.0140  181.8380  138.1830 C   0  0  0  0  0  0  0  0  0  0  0  0
  180.6410  182.5520  136.9150 C   0  0  1  0  0  3  0  0  0  0  0  0
  179.1940  182.3120  136.5070 C   0  0  0  0  0  1  0  0  0  0  0  0
  182.0820  184.4140  137.2890 O   0  0  0  0  0  0  0  0  0  0  0  0
  179.8760  184.9710  136.8240 N   0  0  0  0  0  1  0  0  0  0  0  0
  180.9170  184.0190  137.0220 C   0  0  0  0  0  0  0  0  0  0  0  0
  2  7  1  6  0  0  0
  2  5  1  0  0  0  0
  3  6  1  0  0  0  0
  3  2  1  0  0  0  0
  4  1  1  0  0  0  0
  5  1  1  0  0  0  0
  6 25  1  6  0  0  0
  6  4  1  0  0  0  0
  7 18  1  6  0  0  0
  7 11  1  0  0  0  0
  8 13  1  0  0  0  0
  9 15  1  0  0  0  0
  9 16  2  0  0  0  0
 10 14  1  0  0  0  0
 11 16  1  0  0  0  0
 11 10  2  0  0  0  0
 12 13  1  0  0  0  0
 12 14  2  0  0  0  0
 15  8  2  0  0  0  0
 16 12  1  0  0  0  0
 17 18  2  0  0  0  0
 20 19  1  6  0  0  0
 20 17  1  0  0  0  0
 21 20  1  0  0  0  0
 22 23  1  0  0  0  0
 23 21  1  0  0  0  0
 24 23  1  0  0  0  0
 26 25  1  0  0  0  0
 27 29  2  0  0  0  0
 28 29  1  0  0  0  0
 29 26  1  0  0  0  0
 31 28  1  0  0  0  0
 32 31  1  0  0  0  0
 32 30  2  0  0  0  0
 33 34  1  1  0  0  0
 33 37  1  0  0  0  0
 33 32  1  0  0  0  0
 36 37  1  0  0  0  0
 37 35  2  0  0  0  0
M  END
>  <MODEL>
1

>  <REMARK>
 VINA RESULT:      -9.7      0.000      0.000
  Name = 
  11 active torsions:
  status: ('A' for Active; 'I' for Inactive)
    1  A    between atoms: C_5  and  C_6
    2  A    between atoms: C_6  and  C_21
    3  A    between atoms: C_6  and  C_37
    4  A    between atoms: C_7  and  C_30
    5  A    between atoms: C_10  and  C_12
    6  A    between atoms: C_10  and  C_33
    7  A    between atoms: N_11  and  N_25
    8  A    between atoms: N_13  and  N_17
    9  A    between atoms: N_13  and  C_29
   10  A    between atoms: C_14  and  C_19
   11  A    between atoms: C_14  and  C_30
                            x       y       z     vdW  Elec       q    Type
                         _______ _______ _______ _____ _____    ______ ____

>  <TORSDO>
F 11

$$$$
=
 OpenBabel10222419543D

 37 39  0  0  1  0  0  0  0  0999 V2000
  191.1370  176.7920  140.4110 C   0  0  0  0  0  2  0  0  0  0  0  0
  189.3350  177.5580  141.9810 C   0  0  2  0  0  3  0  0  0  0  0  0
  188.5320  178.0980  140.7930 C   0  0  0  0  0  2  0  0  0  0  0  0
  190.3190  177.3140  139.2350 C   0  0  0  0  0  2  0  0  0  0  0  0
  190.2150  176.3810  141.5570 C   0  0  0  0  0  2  0  0  0  0  0  0
  189.4830  178.5120  139.6760 C   0  0  1  0  0  3  0  0  0  0  0  0
  188.4550  177.1900  143.1870 C   0  0  1  0  0  3  0  0  0  0  0  0
  188.3960  178.0060  148.5140 C   0  0  0  0  0  3  0  0  0  0  0  0
  187.4430  177.8150  146.2870 C   0  0  0  0  0  3  0  0  0  0  0  0
  190.5330  176.9670  144.5730 C   0  0  0  0  0  3  0  0  0  0  0  0
  189.2110  177.1540  144.4960 C   0  0  0  0  0  0  0  0  0  0  0  0
  189.7750  177.4210  146.6980 C   0  0  0  0  0  0  0  0  0  0  0  0
  189.6290  177.6840  148.0230 N   0  0  0  0  0  2  0  0  0  0  0  0
  191.0330  177.0810  145.9910 C   0  0  0  0  0  3  0  0  0  0  0  0
  187.2830  178.0800  147.6560 C   0  0  0  0  0  3  0  0  0  0  0  0
  188.7170  177.4720  145.8330 C   0  0  0  0  0  0  0  0  0  0  0  0
  186.0240  177.5680  142.9350 C   0  0  0  0  0  3  0  0  0  0  0  0
  187.2170  178.0410  143.2950 C   0  0  0  0  0  3  0  0  0  0  0  0
  184.6680  179.1980  141.8910 O   0  0  0  0  0  1  0  0  0  0  0  0
  184.8070  178.4250  143.0460 C   0  0  2  0  0  3  0  0  0  0  0  0
  184.9390  179.3310  144.2600 C   0  0  0  0  0  2  0  0  0  0  0  0
  182.7100  178.5070  144.4740 O   0  0  0  0  0  1  0  0  0  0  0  0
  183.6930  179.2550  145.1260 C   0  0  0  0  0  3  0  0  0  0  0  0
  184.0080  178.6440  146.3370 O   0  0  0  0  0  1  0  0  0  0  0  0
  188.7240  179.0190  138.5470 N   0  0  0  0  0  2  0  0  0  0  0  0
  188.2080  177.9010  137.8790 N   0  0  0  0  0  2  0  0  0  0  0  0
  186.3780  176.7000  137.1120 O   0  0  0  0  0  0  0  0  0  0  0  0
  185.8850  178.6690  138.2550 N   0  0  0  0  0  0  0  0  0  0  0  0
  186.8030  177.7130  137.7270 C   0  0  0  0  0  0  0  0  0  0  0  0
  183.9650  180.5560  138.9990 O   0  0  0  0  0  0  0  0  0  0  0  0
  184.5060  178.4210  138.2390 N   0  0  0  0  0  0  0  0  0  0  0  0
  183.5660  179.4000  138.6870 C   0  0  0  0  0  0  0  0  0  0  0  0
  182.1040  179.0710  138.7950 C   0  0  1  0  0  3  0  0  0  0  0  0
  181.5900  178.2790  137.6010 C   0  0  0  0  0  1  0  0  0  0  0  0
  181.9350  177.0940  140.1160 O   0  0  0  0  0  0  0  0  0  0  0  0
  181.3850  179.0560  141.2310 N   0  0  0  0  0  1  0  0  0  0  0  0
  181.8080  178.3460  140.0700 C   0  0  0  0  0  0  0  0  0  0  0  0
  1  5  1  0  0  0  0
  2  7  1  1  0  0  0
  3  2  1  0  0  0  0
  4  6  1  0  0  0  0
  4  1  1  0  0  0  0
  5  2  1  0  0  0  0
  6 25  1  6  0  0  0
  6  3  1  0  0  0  0
  7 18  1  1  0  0  0
  7 11  1  0  0  0  0
  9 15  1  0  0  0  0
 10 14  1  0  0  0  0
 11 10  2  0  0  0  0
 11 16  1  0  0  0  0
 12 13  1  0  0  0  0
 13  8  1  0  0  0  0
 14 12  2  0  0  0  0
 15  8  2  0  0  0  0
 16  9  2  0  0  0  0
 16 12  1  0  0  0  0
 17 20  1  0  0  0  0
 17 18  2  0  0  0  0
 20 19  1  6  0  0  0
 20 21  1  0  0  0  0
 21 23  1  0  0  0  0
 22 23  1  0  0  0  0
 23 24  1  0  0  0  0
 26 25  1  0  0  0  0
 27 29  2  0  0  0  0
 29 26  1  0  0  0  0
 29 28  1  0  0  0  0
 31 28  2  0  0  0  0
 31 32  1  0  0  0  0
 32 33  1  0  0  0  0
 32 30  2  0  0  0  0
 33 34  1  6  0  0  0
 33 37  1  0  0  0  0
 37 35  2  0  0  0  0
 37 36  1  0  0  0  0
M  END
>  <MODEL>
2

>  <REMARK>
 VINA RESULT:      -9.5      2.746      5.490
  Name = 
  11 active torsions:
  status: ('A' for Active; 'I' for Inactive)
    1  A    between atoms: C_5  and  C_6
    2  A    between atoms: C_6  and  C_21
    3  A    between atoms: C_6  and  C_37
    4  A    between atoms: C_7  and  C_30
    5  A    between atoms: C_10  and  C_12
    6  A    between atoms: C_10  and  C_33
    7  A    between atoms: N_11  and  N_25
    8  A    between atoms: N_13  and  N_17
    9  A    between atoms: N_13  and  C_29
   10  A    between atoms: C_14  and  C_19
   11  A    between atoms: C_14  and  C_30
                            x       y       z     vdW  Elec       q    Type
                         _______ _______ _______ _____ _____    ______ ____

>  <TORSDO>
F 11

$$$$
=
 OpenBabel10222419543D

 37 39  0  0  1  0  0  0  0  0999 V2000
  190.0360  175.9660  142.8360 C   0  0  0  0  0  2  0  0  0  0  0  0
  188.0200  177.4470  143.0400 C   0  0  2  0  0  3  0  0  0  0  0  0
  188.1920  177.8790  141.5790 C   0  0  0  0  0  2  0  0  0  0  0  0
  190.1840  176.3870  141.3780 C   0  0  0  0  0  2  0  0  0  0  0  0
  188.5710  176.0370  143.2620 C   0  0  0  0  0  2  0  0  0  0  0  0
  189.6650  177.8110  141.1940 C   0  0  1  0  0  3  0  0  0  0  0  0
  186.5690  177.5630  143.5360 C   0  0  1  0  0  3  0  0  0  0  0  0
  188.8550  177.9360  148.4030 C   0  0  0  0  0  3  0  0  0  0  0  0
  188.7640  177.4480  146.0240 C   0  0  0  0  0  3  0  0  0  0  0  0
  185.3190  178.4810  145.5070 C   0  0  0  0  0  3  0  0  0  0  0  0
  186.4580  178.0300  144.9700 C   0  0  0  0  0  0  0  0  0  0  0  0
  186.8810  178.3660  147.1950 C   0  0  0  0  0  0  0  0  0  0  0  0
  187.5620  178.3760  148.3690 N   0  0  0  0  0  2  0  0  0  0  0  0
  185.4740  178.7800  146.9770 C   0  0  0  0  0  3  0  0  0  0  0  0
  189.4780  177.4630  147.2330 C   0  0  0  0  0  3  0  0  0  0  0  0
  187.4530  177.9230  146.0330 C   0  0  0  0  0  0  0  0  0  0  0  0
  184.5580  177.8980  142.1360 C   0  0  0  0  0  3  0  0  0  0  0  0
  185.6980  178.3860  142.6250 C   0  0  0  0  0  3  0  0  0  0  0  0
  182.3980  178.7620  141.7200 O   0  0  0  0  0  1  0  0  0  0  0  0
  183.7070  178.7260  141.2330 C   0  0  2  0  0  3  0  0  0  0  0  0
  183.7210  178.1230  139.8380 C   0  0  0  0  0  2  0  0  0  0  0  0
  184.3010  180.3410  139.1780 O   0  0  0  0  0  1  0  0  0  0  0  0
  184.5200  178.9940  138.8830 C   0  0  0  0  0  3  0  0  0  0  0  0
  185.8760  178.7070  139.0210 O   0  0  0  0  0  1  0  0  0  0  0  0
  189.8290  178.2140  139.8090 N   0  0  0  0  0  2  0  0  0  0  0  0
  189.2320  177.2150  139.0290 N   0  0  0  0  0  2  0  0  0  0  0  0
  189.4100  175.5960  137.3790 O   0  0  0  0  0  0  0  0  0  0  0  0
  191.3650  176.7710  137.8530 N   0  0  0  0  0  2  0  0  0  0  0  0
  189.9800  176.4920  138.0540 C   0  0  0  0  0  0  0  0  0  0  0  0
  194.0980  176.2030  137.9490 O   0  0  0  0  0  0  0  0  0  0  0  0
  192.0700  176.1710  136.8020 N   0  0  0  0  0  2  0  0  0  0  0  0
  193.4810  175.9560  136.8760 C   0  0  0  0  0  0  0  0  0  0  0  0
  194.2450  175.4390  135.6890 C   0  0  1  0  0  3  0  0  0  0  0  0
  195.1030  176.5110  135.0310 C   0  0  0  0  0  1  0  0  0  0  0  0
  196.3260  174.2940  135.8840 O   0  0  0  0  0  0  0  0  0  0  0  0
  194.4820  173.0860  136.6130 N   0  0  0  0  0  1  0  0  0  0  0  0
  195.0810  174.2550  136.0600 C   0  0  0  0  0  0  0  0  0  0  0  0
  1  5  1  0  0  0  0
  2  5  1  0  0  0  0
  2  7  1  6  0  0  0
  3  2  1  0  0  0  0
  4  1  1  0  0  0  0
  6 25  1  6  0  0  0
  6  4  1  0  0  0  0
  6  3  1  0  0  0  0
  7 18  1  6  0  0  0
  7 11  1  0  0  0  0
  9 16  2  0  0  0  0
  9 15  1  0  0  0  0
 10 14  1  0  0  0  0
 11 10  2  0  0  0  0
 11 16  1  0  0  0  0
 12 13  1  0  0  0  0
 13  8  1  0  0  0  0
 14 12  2  0  0  0  0
 15  8  2  0  0  0  0
 16 12  1  0  0  0  0
 17 18  2  0  0  0  0
 20 19  1  1  0  0  0
 20 17  1  0  0  0  0
 21 20  1  0  0  0  0
 23 24  1  0  0  0  0
 23 22  1  0  0  0  0
 23 21  1  0  0  0  0
 26 25  1  0  0  0  0
 27 29  2  0  0  0  0
 28 29  1  0  0  0  0
 29 26  1  0  0  0  0
 31 32  1  0  0  0  0
 31 28  1  0  0  0  0
 32 30  2  0  0  0  0
 33 34  1  1  0  0  0
 33 37  1  0  0  0  0
 33 32  1  0  0  0  0
 35 37  2  0  0  0  0
 37 36  1  0  0  0  0
M  END
>  <MODEL>
3

>  <REMARK>
 VINA RESULT:      -9.1      4.283      8.683
  Name = 
  11 active torsions:
  status: ('A' for Active; 'I' for Inactive)
    1  A    between atoms: C_5  and  C_6
    2  A    between atoms: C_6  and  C_21
    3  A    between atoms: C_6  and  C_37
    4  A    between atoms: C_7  and  C_30
    5  A    between atoms: C_10  and  C_12
    6  A    between atoms: C_10  and  C_33
    7  A    between atoms: N_11  and  N_25
    8  A    between atoms: N_13  and  N_17
    9  A    between atoms: N_13  and  C_29
   10  A    between atoms: C_14  and  C_19
   11  A    between atoms: C_14  and  C_30
                            x       y       z     vdW  Elec       q    Type
                         _______ _______ _______ _____ _____    ______ ____

>  <TORSDO>
F 11

$$$$
=
 OpenBabel10222419543D

 37 39  0  0  1  0  0  0  0  0999 V2000
  190.0150  176.1910  142.5890 C   0  0  0  0  0  2  0  0  0  0  0  0
  187.9360  177.5700  142.8670 C   0  0  2  0  0  3  0  0  0  0  0  0
  187.9970  177.9570  141.3850 C   0  0  0  0  0  2  0  0  0  0  0  0
  190.0530  176.5670  141.1110 C   0  0  0  0  0  2  0  0  0  0  0  0
  188.5760  176.2000  143.1000 C   0  0  0  0  0  2  0  0  0  0  0  0
  189.4460  177.9530  140.9130 C   0  0  1  0  0  3  0  0  0  0  0  0
  186.5130  177.6270  143.4470 C   0  0  1  0  0  3  0  0  0  0  0  0
  188.9130  177.7570  148.2710 C   0  0  0  0  0  3  0  0  0  0  0  0
  188.7390  177.3060  145.8890 C   0  0  0  0  0  3  0  0  0  0  0  0
  185.3800  178.6200  145.4520 C   0  0  0  0  0  3  0  0  0  0  0  0
  186.4680  178.0840  144.8880 C   0  0  0  0  0  0  0  0  0  0  0  0
  186.9580  178.3590  147.1070 C   0  0  0  0  0  0  0  0  0  0  0  0
  187.6600  178.3000  148.2670 N   0  0  0  0  0  2  0  0  0  0  0  0
  185.5850  178.8870  146.9210 C   0  0  0  0  0  3  0  0  0  0  0  0
  189.4740  177.2490  147.0840 C   0  0  0  0  0  3  0  0  0  0  0  0
  187.4700  177.8850  145.9300 C   0  0  0  0  0  0  0  0  0  0  0  0
  184.4130  177.8870  142.1670 C   0  0  0  0  0  3  0  0  0  0  0  0
  185.5590  178.4190  142.5920 C   0  0  0  0  0  3  0  0  0  0  0  0
  182.2220  178.7390  141.9250 O   0  0  0  0  0  1  0  0  0  0  0  0
  183.4790  178.6840  141.3190 C   0  0  2  0  0  3  0  0  0  0  0  0
  183.3630  178.0320  139.9510 C   0  0  0  0  0  2  0  0  0  0  0  0
  184.5690  180.0350  139.4720 O   0  0  0  0  0  1  0  0  0  0  0  0
  183.9800  178.9160  138.8790 C   0  0  0  0  0  3  0  0  0  0  0  0
  184.9520  178.1960  138.1900 O   0  0  0  0  0  1  0  0  0  0  0  0
  189.5060  178.3150  139.5080 N   0  0  0  0  0  2  0  0  0  0  0  0
  188.3930  177.7230  138.8960 N   0  0  0  0  0  2  0  0  0  0  0  0
  187.5200  176.2530  137.3300 O   0  0  0  0  0  0  0  0  0  0  0  0
  189.8450  176.3910  137.3980 N   0  0  0  0  0  2  0  0  0  0  0  0
  188.5440  176.7700  137.8480 C   0  0  0  0  0  0  0  0  0  0  0  0
  190.1770  173.6220  137.5450 O   0  0  0  0  0  0  0  0  0  0  0  0
  190.0010  175.5680  136.2750 N   0  0  0  0  0  2  0  0  0  0  0  0
  190.2290  174.1630  136.4060 C   0  0  0  0  0  0  0  0  0  0  0  0
  190.5340  173.3170  135.2020 C   0  0  1  0  0  3  0  0  0  0  0  0
  191.8320  172.5350  135.3460 C   0  0  0  0  0  1  0  0  0  0  0  0
  188.2200  172.8330  134.8960 O   0  0  0  0  0  0  0  0  0  0  0  0
  189.6390  171.0200  134.5940 N   0  0  0  0  0  1  0  0  0  0  0  0
  189.3990  172.3920  134.8930 C   0  0  0  0  0  0  0  0  0  0  0  0
  1  5  1  0  0  0  0
  2  5  1  0  0  0  0
  2  7  1  6  0  0  0
  3  2  1  0  0  0  0
  4  1  1  0  0  0  0
  6 25  1  6  0  0  0
  6  4  1  0  0  0  0
  6  3  1  0  0  0  0
  7 18  1  6  0  0  0
  7 11  1  0  0  0  0
  9 16  2  0  0  0  0
  9 15  1  0  0  0  0
 10 14  1  0  0  0  0
 11 10  2  0  0  0  0
 11 16  1  0  0  0  0
 12 13  1  0  0  0  0
 13  8  1  0  0  0  0
 14 12  2  0  0  0  0
 15  8  2  0  0  0  0
 16 12  1  0  0  0  0
 17 18  2  0  0  0  0
 20 19  1  1  0  0  0
 20 17  1  0  0  0  0
 21 20  1  0  0  0  0
 23 22  1  0  0  0  0
 23 21  1  0  0  0  0
 24 23  1  0  0  0  0
 26 25  1  0  0  0  0
 27 29  2  0  0  0  0
 28 29  1  0  0  0  0
 29 26  1  0  0  0  0
 31 32  1  0  0  0  0
 31 28  1  0  0  0  0
 32 30  2  0  0  0  0
 33 34  1  1  0  0  0
 33 32  1  0  0  0  0
 36 37  1  0  0  0  0
 37 35  2  0  0  0  0
 37 33  1  0  0  0  0
M  END
>  <MODEL>
4

>  <REMARK>
 VINA RESULT:      -9.0      3.930      7.789
  Name = 
  11 active torsions:
  status: ('A' for Active; 'I' for Inactive)
    1  A    between atoms: C_5  and  C_6
    2  A    between atoms: C_6  and  C_21
    3  A    between atoms: C_6  and  C_37
    4  A    between atoms: C_7  and  C_30
    5  A    between atoms: C_10  and  C_12
    6  A    between atoms: C_10  and  C_33
    7  A    between atoms: N_11  and  N_25
    8  A    between atoms: N_13  and  N_17
    9  A    between atoms: N_13  and  C_29
   10  A    between atoms: C_14  and  C_19
   11  A    between atoms: C_14  and  C_30
                            x       y       z     vdW  Elec       q    Type
                         _______ _______ _______ _____ _____    ______ ____

>  <TORSDO>
F 11

$$$$
=
 OpenBabel10222419543D

 37 39  0  0  1  0  0  0  0  0999 V2000
  190.0870  176.0570  142.7330 C   0  0  0  0  0  2  0  0  0  0  0  0
  188.0440  177.4930  142.9890 C   0  0  2  0  0  3  0  0  0  0  0  0
  188.1540  177.9090  141.5180 C   0  0  0  0  0  2  0  0  0  0  0  0
  190.1740  176.4620  141.2650 C   0  0  0  0  0  2  0  0  0  0  0  0
  188.6360  176.1000  143.2090 C   0  0  0  0  0  2  0  0  0  0  0  0
  189.6150  177.8700  141.0820 C   0  0  1  0  0  3  0  0  0  0  0  0
  186.6090  177.5810  143.5350 C   0  0  1  0  0  3  0  0  0  0  0  0
  189.0690  177.8320  148.3230 C   0  0  0  0  0  3  0  0  0  0  0  0
  188.9000  177.4310  145.9320 C   0  0  0  0  0  3  0  0  0  0  0  0
  185.4130  178.3910  145.5850 C   0  0  0  0  0  3  0  0  0  0  0  0
  186.5410  177.9910  144.9890 C   0  0  0  0  0  0  0  0  0  0  0  0
  187.0400  178.2540  147.2070 C   0  0  0  0  0  0  0  0  0  0  0  0
  187.7650  178.2380  148.3550 N   0  0  0  0  0  2  0  0  0  0  0  0
  185.6160  178.6380  147.0580 C   0  0  0  0  0  3  0  0  0  0  0  0
  189.6590  177.4200  147.1130 C   0  0  0  0  0  3  0  0  0  0  0  0
  187.5780  177.8710  146.0090 C   0  0  0  0  0  0  0  0  0  0  0  0
  184.5860  177.9410  142.1570 C   0  0  0  0  0  3  0  0  0  0  0  0
  185.7060  178.4360  142.6840 C   0  0  0  0  0  3  0  0  0  0  0  0
  182.4590  178.9460  141.9330 O   0  0  0  0  0  1  0  0  0  0  0  0
  183.7040  178.7990  141.3150 C   0  0  2  0  0  3  0  0  0  0  0  0
  183.5280  178.1530  139.9500 C   0  0  0  0  0  2  0  0  0  0  0  0
  182.0920  179.7040  138.8420 O   0  0  0  0  0  1  0  0  0  0  0  0
  183.3990  179.2110  138.8670 C   0  0  0  0  0  3  0  0  0  0  0  0
  184.2790  180.2570  139.1360 O   0  0  0  0  0  1  0  0  0  0  0  0
  189.7210  178.2590  139.6870 N   0  0  0  0  0  2  0  0  0  0  0  0
  188.4400  178.6600  139.2860 N   0  0  0  0  0  2  0  0  0  0  0  0
  186.6390  178.4420  137.8420 O   0  0  0  0  0  0  0  0  0  0  0  0
  188.4440  177.0290  137.4240 N   0  0  0  0  0  2  0  0  0  0  0  0
  187.7940  178.0610  138.1660 C   0  0  0  0  0  0  0  0  0  0  0  0
  187.1570  174.5580  137.2320 O   0  0  0  0  0  0  0  0  0  0  0  0
  187.8810  176.5370  136.2390 N   0  0  0  0  0  2  0  0  0  0  0  0
  187.2860  175.2390  136.1780 C   0  0  0  0  0  0  0  0  0  0  0  0
  186.8120  174.6700  134.8700 C   0  0  1  0  0  3  0  0  0  0  0  0
  187.3640  173.2770  134.6010 C   0  0  0  0  0  1  0  0  0  0  0  0
  184.7010  173.5660  134.8000 O   0  0  0  0  0  0  0  0  0  0  0  0
  184.5870  175.8840  134.7210 N   0  0  0  0  0  1  0  0  0  0  0  0
  185.3180  174.6630  134.7960 C   0  0  0  0  0  0  0  0  0  0  0  0
  1  5  1  0  0  0  0
  2  5  1  0  0  0  0
  2  7  1  6  0  0  0
  3  2  1  0  0  0  0
  4  1  1  0  0  0  0
  6 25  1  6  0  0  0
  6  4  1  0  0  0  0
  6  3  1  0  0  0  0
  7 18  1  6  0  0  0
  7 11  1  0  0  0  0
  8 13  1  0  0  0  0
  9 16  2  0  0  0  0
  9 15  1  0  0  0  0
 10 14  1  0  0  0  0
 11 10  2  0  0  0  0
 11 16  1  0  0  0  0
 12 13  1  0  0  0  0
 14 12  2  0  0  0  0
 15  8  2  0  0  0  0
 16 12  1  0  0  0  0
 17 18  2  0  0  0  0
 20 19  1  1  0  0  0
 20 17  1  0  0  0  0
 21 20  1  0  0  0  0
 22 23  1  0  0  0  0
 23 24  1  0  0  0  0
 23 21  1  0  0  0  0
 26 25  1  0  0  0  0
 27 29  2  0  0  0  0
 28 29  1  0  0  0  0
 29 26  1  0  0  0  0
 31 28  1  0  0  0  0
 32 31  1  0  0  0  0
 32 30  2  0  0  0  0
 33 34  1  1  0  0  0
 33 32  1  0  0  0  0
 36 37  1  0  0  0  0
 37 35  2  0  0  0  0
 37 33  1  0  0  0  0
M  END
>  <MODEL>
5

>  <REMARK>
 VINA RESULT:      -8.9      3.594      6.456
  Name = 
  11 active torsions:
  status: ('A' for Active; 'I' for Inactive)
    1  A    between atoms: C_5  and  C_6
    2  A    between atoms: C_6  and  C_21
    3  A    between atoms: C_6  and  C_37
    4  A    between atoms: C_7  and  C_30
    5  A    between atoms: C_10  and  C_12
    6  A    between atoms: C_10  and  C_33
    7  A    between atoms: N_11  and  N_25
    8  A    between atoms: N_13  and  N_17
    9  A    between atoms: N_13  and  C_29
   10  A    between atoms: C_14  and  C_19
   11  A    between atoms: C_14  and  C_30
                            x       y       z     vdW  Elec       q    Type
                         _______ _______ _______ _____ _____    ______ ____

>  <TORSDO>
F 11

$$$$
=
 OpenBabel10222419543D

 37 39  0  0  1  0  0  0  0  0999 V2000
  183.7670  178.8000  145.3160 C   0  0  0  0  0  2  0  0  0  0  0  0
  185.8510  178.0160  144.1570 C   0  0  2  0  0  3  0  0  0  0  0  0
  185.2400  178.3960  142.8040 C   0  0  0  0  0  2  0  0  0  0  0  0
  183.1780  179.1950  143.9660 C   0  0  0  0  0  2  0  0  0  0  0  0
  185.2910  178.8950  145.2770 C   0  0  0  0  0  2  0  0  0  0  0  0
  183.7220  178.2760  142.8750 C   0  0  1  0  0  3  0  0  0  0  0  0
  187.3890  178.0330  144.1510 C   0  0  1  0  0  3  0  0  0  0  0  0
  191.7330  176.3680  146.8720 C   0  0  0  0  0  3  0  0  0  0  0  0
  190.4930  177.1580  144.9360 C   0  0  0  0  0  3  0  0  0  0  0  0
  187.2830  177.5080  146.6010 C   0  0  0  0  0  3  0  0  0  0  0  0
  188.0010  177.6630  145.4840 C   0  0  0  0  0  0  0  0  0  0  0  0
  189.4500  176.9000  147.0820 C   0  0  0  0  0  0  0  0  0  0  0  0
  190.6070  176.4600  147.6400 N   0  0  0  0  0  2  0  0  0  0  0  0
  188.1350  177.0390  147.7530 C   0  0  0  0  0  3  0  0  0  0  0  0
  191.6960  176.7130  145.5070 C   0  0  0  0  0  3  0  0  0  0  0  0
  189.3740  177.2540  145.7630 C   0  0  0  0  0  0  0  0  0  0  0  0
  188.7170  177.7910  142.0780 C   0  0  0  0  0  3  0  0  0  0  0  0
  187.9820  177.2180  143.0320 C   0  0  0  0  0  3  0  0  0  0  0  0
  190.1960  176.0410  141.5020 O   0  0  0  0  0  1  0  0  0  0  0  0
  189.2960  176.9700  140.9760 C   0  0  2  0  0  3  0  0  0  0  0  0
  190.0140  177.8830  139.9940 C   0  0  0  0  0  2  0  0  0  0  0  0
  188.8000  176.5610  138.4210 O   0  0  0  0  0  1  0  0  0  0  0  0
  189.3540  177.8260  138.6260 C   0  0  0  0  0  3  0  0  0  0  0  0
  188.3470  178.7860  138.5590 O   0  0  0  0  0  1  0  0  0  0  0  0
  183.1410  178.6420  141.5950 N   0  0  0  0  0  2  0  0  0  0  0  0
  184.1920  179.1180  140.8010 N   0  0  0  0  0  2  0  0  0  0  0  0
  185.1950  179.3090  138.7200 O   0  0  0  0  0  0  0  0  0  0  0  0
  183.2060  178.0970  138.7730 N   0  0  0  0  0  2  0  0  0  0  0  0
  184.2390  178.8560  139.4020 C   0  0  0  0  0  0  0  0  0  0  0  0
  183.7610  175.4850  137.9540 O   0  0  0  0  0  0  0  0  0  0  0  0
  183.3180  177.7120  137.4310 N   0  0  0  0  0  2  0  0  0  0  0  0
  183.6640  176.3740  137.0640 C   0  0  0  0  0  0  0  0  0  0  0  0
  183.9160  176.0100  135.6280 C   0  0  1  0  0  3  0  0  0  0  0  0
  184.8400  176.9940  134.9260 C   0  0  0  0  0  1  0  0  0  0  0  0
  185.6930  174.4240  135.5350 O   0  0  0  0  0  0  0  0  0  0  0  0
  183.5650  173.5080  135.3760 N   0  0  0  0  0  1  0  0  0  0  0  0
  184.4490  174.6170  135.5120 C   0  0  0  0  0  0  0  0  0  0  0  0
  2  7  1  6  0  0  0
  2  5  1  0  0  0  0
  3  6  1  0  0  0  0
  3  2  1  0  0  0  0
  4  1  1  0  0  0  0
  5  1  1  0  0  0  0
  6 25  1  6  0  0  0
  6  4  1  0  0  0  0
  7 18  1  6  0  0  0
  7 11  1  0  0  0  0
  8 13  1  0  0  0  0
  9 15  1  0  0  0  0
  9 16  2  0  0  0  0
 10 14  1  0  0  0  0
 11 16  1  0  0  0  0
 11 10  2  0  0  0  0
 12 13  1  0  0  0  0
 12 14  2  0  0  0  0
 15  8  2  0  0  0  0
 16 12  1  0  0  0  0
 17 18  2  0  0  0  0
 20 19  1  1  0  0  0
 20 17  1  0  0  0  0
 21 20  1  0  0  0  0
 22 23  1  0  0  0  0
 23 21  1  0  0  0  0
 24 23  1  0  0  0  0
 26 25  1  0  0  0  0
 27 29  2  0  0  0  0
 28 29  1  0  0  0  0
 29 26  1  0  0  0  0
 31 28  1  0  0  0  0
 32 31  1  0  0  0  0
 32 30  2  0  0  0  0
 33 34  1  1  0  0  0
 33 32  1  0  0  0  0
 36 37  1  0  0  0  0
 37 35  2  0  0  0  0
 37 33  1  0  0  0  0
M  END
>  <MODEL>
6

>  <REMARK>
 VINA RESULT:      -8.9      2.851      4.058
  Name = 
  11 active torsions:
  status: ('A' for Active; 'I' for Inactive)
    1  A    between atoms: C_5  and  C_6
    2  A    between atoms: C_6  and  C_21
    3  A    between atoms: C_6  and  C_37
    4  A    between atoms: C_7  and  C_30
    5  A    between atoms: C_10  and  C_12
    6  A    between atoms: C_10  and  C_33
    7  A    between atoms: N_11  and  N_25
    8  A    between atoms: N_13  and  N_17
    9  A    between atoms: N_13  and  C_29
   10  A    between atoms: C_14  and  C_19
   11  A    between atoms: C_14  and  C_30
                            x       y       z     vdW  Elec       q    Type
                         _______ _______ _______ _____ _____    ______ ____

>  <TORSDO>
F 11

$$$$
=
 OpenBabel10222419543D

 37 39  0  0  1  0  0  0  0  0999 V2000
  188.6160  178.0330  137.6290 C   0  0  0  0  0  2  0  0  0  0  0  0
  188.9100  177.5230  140.0690 C   0  0  2  0  0  3  0  0  0  0  0  0
  190.1640  176.7040  139.7450 C   0  0  0  0  0  2  0  0  0  0  0  0
  189.8770  177.2330  137.3220 C   0  0  0  0  0  2  0  0  0  0  0  0
  188.6960  178.6290  139.0340 C   0  0  0  0  0  2  0  0  0  0  0  0
  190.0440  176.1130  138.3450 C   0  0  1  0  0  3  0  0  0  0  0  0
  188.9130  178.0920  141.4980 C   0  0  1  0  0  3  0  0  0  0  0  0
  185.6580  177.8490  145.7870 C   0  0  0  0  0  3  0  0  0  0  0  0
  187.7770  177.7610  144.6000 C   0  0  0  0  0  3  0  0  0  0  0  0
  186.4540  178.5490  141.3090 C   0  0  0  0  0  3  0  0  0  0  0  0
  187.5270  178.2990  142.0670 C   0  0  0  0  0  0  0  0  0  0  0  0
  185.7240  178.2940  143.4770 C   0  0  0  0  0  0  0  0  0  0  0  0
  185.0130  178.1680  144.6260 N   0  0  0  0  0  0  0  0  0  0  0  0
  185.1910  178.6090  142.1290 C   0  0  0  0  0  2  0  0  0  0  0  0
  187.0500  177.6380  145.7950 C   0  0  0  0  0  3  0  0  0  0  0  0
  187.0790  178.1070  143.4430 C   0  0  0  0  0  0  0  0  0  0  0  0
  190.8230  177.8660  143.0540 C   0  0  0  0  0  3  0  0  0  0  0  0
  189.7790  177.3030  142.4440 C   0  0  0  0  0  3  0  0  0  0  0  0
  191.3110  175.7230  143.9210 O   0  0  0  0  0  1  0  0  0  0  0  0
  191.6730  177.0700  143.9860 C   0  0  2  0  0  3  0  0  0  0  0  0
  191.4810  177.5860  145.4040 C   0  0  0  0  0  2  0  0  0  0  0  0
  192.3550  176.4150  147.2910 O   0  0  0  0  0  1  0  0  0  0  0  0
  191.3000  176.4320  146.3760 C   0  0  0  0  0  3  0  0  0  0  0  0
  190.0980  176.5910  147.0620 O   0  0  0  0  0  1  0  0  0  0  0  0
  191.2330  175.3410  138.0340 N   0  0  0  0  0  2  0  0  0  0  0  0
  192.1820  176.2500  137.5480 N   0  0  0  0  0  2  0  0  0  0  0  0
  194.3000  176.6630  136.6990 O   0  0  0  0  0  0  0  0  0  0  0  0
  193.8380  174.4390  137.2160 N   0  0  0  0  0  2  0  0  0  0  0  0
  193.4780  175.8180  137.1400 C   0  0  0  0  0  0  0  0  0  0  0  0
  195.5690  173.4600  139.1770 O   0  0  0  0  0  0  0  0  0  0  0  0
  195.1510  174.0270  136.9560 N   0  0  0  0  0  2  0  0  0  0  0  0
  196.0180  173.5900  138.0050 C   0  0  0  0  0  0  0  0  0  0  0  0
  197.4640  173.2850  137.7310 C   0  0  1  0  0  3  0  0  0  0  0  0
  197.6610  172.4530  136.4720 C   0  0  0  0  0  1  0  0  0  0  0  0
  198.9100  174.8110  136.6090 O   0  0  0  0  0  0  0  0  0  0  0  0
  198.3370  175.4300  138.7720 N   0  0  0  0  0  1  0  0  0  0  0  0
  198.2750  174.5400  137.6610 C   0  0  0  0  0  0  0  0  0  0  0  0
  1  5  1  0  0  0  0
  2  7  1  1  0  0  0
  3  2  1  0  0  0  0
  4  1  1  0  0  0  0
  4  6  1  0  0  0  0
  5  2  1  0  0  0  0
  6 25  1  6  0  0  0
  6  3  1  0  0  0  0
  7 11  1  0  0  0  0
  7 18  1  1  0  0  0
  8 15  1  0  0  0  0
  9 15  2  0  0  0  0
 10 11  2  0  0  0  0
 10 14  1  0  0  0  0
 11 16  1  0  0  0  0
 12 13  1  0  0  0  0
 13  8  2  0  0  0  0
 14 12  1  0  0  0  0
 16 12  2  0  0  0  0
 16  9  1  0  0  0  0
 17 20  1  0  0  0  0
 18 17  2  0  0  0  0
 20 19  1  1  0  0  0
 20 21  1  0  0  0  0
 21 23  1  0  0  0  0
 23 24  1  0  0  0  0
 23 22  1  0  0  0  0
 26 25  1  0  0  0  0
 27 29  2  0  0  0  0
 29 28  1  0  0  0  0
 29 26  1  0  0  0  0
 31 28  1  0  0  0  0
 31 32  1  0  0  0  0
 32 30  2  0  0  0  0
 33 34  1  6  0  0  0
 33 32  1  0  0  0  0
 35 37  2  0  0  0  0
 37 33  1  0  0  0  0
 37 36  1  0  0  0  0
M  END
>  <MODEL>
7

>  <REMARK>
 VINA RESULT:      -8.7      5.783     10.830
  Name = 
  11 active torsions:
  status: ('A' for Active; 'I' for Inactive)
    1  A    between atoms: C_5  and  C_6
    2  A    between atoms: C_6  and  C_21
    3  A    between atoms: C_6  and  C_37
    4  A    between atoms: C_7  and  C_30
    5  A    between atoms: C_10  and  C_12
    6  A    between atoms: C_10  and  C_33
    7  A    between atoms: N_11  and  N_25
    8  A    between atoms: N_13  and  N_17
    9  A    between atoms: N_13  and  C_29
   10  A    between atoms: C_14  and  C_19
   11  A    between atoms: C_14  and  C_30
                            x       y       z     vdW  Elec       q    Type
                         _______ _______ _______ _____ _____    ______ ____

>  <TORSDO>
F 11

$$$$
=
 OpenBabel10222419543D

 37 39  0  0  1  0  0  0  0  0999 V2000
  191.0680  177.0660  139.5910 C   0  0  0  0  0  2  0  0  0  0  0  0
  189.2030  177.8680  141.0670 C   0  0  2  0  0  3  0  0  0  0  0  0
  188.3860  178.2470  139.8260 C   0  0  0  0  0  2  0  0  0  0  0  0
  190.2370  177.4270  138.3640 C   0  0  0  0  0  2  0  0  0  0  0  0
  190.1550  176.7100  140.7620 C   0  0  0  0  0  2  0  0  0  0  0  0
  189.3280  178.6100  138.6830 C   0  0  1  0  0  3  0  0  0  0  0  0
  188.3290  177.5630  142.2950 C   0  0  1  0  0  3  0  0  0  0  0  0
  188.1440  177.7150  147.6790 C   0  0  0  0  0  3  0  0  0  0  0  0
  187.2440  177.5030  145.4320 C   0  0  0  0  0  3  0  0  0  0  0  0
  190.4090  177.8130  143.6740 C   0  0  0  0  0  3  0  0  0  0  0  0
  189.0900  177.6050  143.6010 C   0  0  0  0  0  0  0  0  0  0  0  0
  189.5960  177.7760  145.8270 C   0  0  0  0  0  0  0  0  0  0  0  0
  189.4070  177.8320  147.1700 N   0  0  0  0  0  2  0  0  0  0  0  0
  190.8820  177.9080  145.1020 C   0  0  0  0  0  3  0  0  0  0  0  0
  187.0410  177.5510  146.8200 C   0  0  0  0  0  3  0  0  0  0  0  0
  188.5520  177.6080  144.9580 C   0  0  0  0  0  0  0  0  0  0  0  0
  185.8790  177.8770  142.1740 C   0  0  0  0  0  3  0  0  0  0  0  0
  187.0870  178.4110  142.3590 C   0  0  0  0  0  3  0  0  0  0  0  0
  184.7120  179.7090  141.2430 O   0  0  0  0  0  1  0  0  0  0  0  0
  184.6570  178.7310  142.2380 C   0  0  2  0  0  3  0  0  0  0  0  0
  184.5780  179.3920  143.6050 C   0  0  0  0  0  2  0  0  0  0  0  0
  183.8560  179.0010  145.8460 O   0  0  0  0  0  1  0  0  0  0  0  0
  183.6360  178.6260  144.5190 C   0  0  0  0  0  3  0  0  0  0  0  0
  182.3180  178.9170  144.1720 O   0  0  0  0  0  1  0  0  0  0  0  0
  188.5560  178.9630  137.5060 N   0  0  0  0  0  2  0  0  0  0  0  0
  187.2080  178.9310  137.8870 N   0  0  0  0  0  2  0  0  0  0  0  0
  185.1750  177.8180  137.9440 O   0  0  0  0  0  0  0  0  0  0  0  0
  186.9080  176.6960  136.8660 N   0  0  0  0  0  0  0  0  0  0  0  0
  186.3780  177.8150  137.5770 C   0  0  0  0  0  0  0  0  0  0  0  0
  187.8420  174.2700  135.8450 O   0  0  0  0  0  0  0  0  0  0  0  0
  186.0680  175.6620  136.4310 N   0  0  0  0  0  0  0  0  0  0  0  0
  186.5960  174.4630  135.8590 C   0  0  0  0  0  0  0  0  0  0  0  0
  185.6820  173.4250  135.2700 C   0  0  1  0  0  3  0  0  0  0  0  0
  186.4330  172.2020  134.7610 C   0  0  0  0  0  1  0  0  0  0  0  0
  183.4250  172.9560  135.8750 O   0  0  0  0  0  0  0  0  0  0  0  0
  184.9640  172.7050  137.5960 N   0  0  0  0  0  1  0  0  0  0  0  0
  184.6260  173.0200  136.2480 C   0  0  0  0  0  0  0  0  0  0  0  0
  1  5  1  0  0  0  0
  2  7  1  1  0  0  0
  3  2  1  0  0  0  0
  4  6  1  0  0  0  0
  4  1  1  0  0  0  0
  5  2  1  0  0  0  0
  6 25  1  6  0  0  0
  6  3  1  0  0  0  0
  7 18  1  1  0  0  0
  7 11  1  0  0  0  0
  9 15  1  0  0  0  0
 10 14  1  0  0  0  0
 11 10  2  0  0  0  0
 11 16  1  0  0  0  0
 12 13  1  0  0  0  0
 13  8  1  0  0  0  0
 14 12  2  0  0  0  0
 15  8  2  0  0  0  0
 16  9  2  0  0  0  0
 16 12  1  0  0  0  0
 17 20  1  0  0  0  0
 17 18  2  0  0  0  0
 20 19  1  6  0  0  0
 20 21  1  0  0  0  0
 21 23  1  0  0  0  0
 23 22  1  0  0  0  0
 24 23  1  0  0  0  0
 25 26  1  0  0  0  0
 28 29  1  0  0  0  0
 29 26  1  0  0  0  0
 29 27  2  0  0  0  0
 30 32  2  0  0  0  0
 31 28  2  0  0  0  0
 32 31  1  0  0  0  0
 33 34  1  1  0  0  0
 33 32  1  0  0  0  0
 33 37  1  0  0  0  0
 35 37  2  0  0  0  0
 37 36  1  0  0  0  0
M  END
>  <MODEL>
8

>  <REMARK>
 VINA RESULT:      -8.4      4.086      7.136
  Name = 
  11 active torsions:
  status: ('A' for Active; 'I' for Inactive)
    1  A    between atoms: C_5  and  C_6
    2  A    between atoms: C_6  and  C_21
    3  A    between atoms: C_6  and  C_37
    4  A    between atoms: C_7  and  C_30
    5  A    between atoms: C_10  and  C_12
    6  A    between atoms: C_10  and  C_33
    7  A    between atoms: N_11  and  N_25
    8  A    between atoms: N_13  and  N_17
    9  A    between atoms: N_13  and  C_29
   10  A    between atoms: C_14  and  C_19
   11  A    between atoms: C_14  and  C_30
                            x       y       z     vdW  Elec       q    Type
                         _______ _______ _______ _____ _____    ______ ____

>  <TORSDO>
F 11

$$$$
=
 OpenBabel10222419543D

 37 39  0  0  1  0  0  0  0  0999 V2000
  181.7240  179.0500  143.0820 C   0  0  0  0  0  2  0  0  0  0  0  0
  183.1880  178.8590  141.0520 C   0  0  2  0  0  3  0  0  0  0  0  0
  184.3790  178.4980  141.9470 C   0  0  0  0  0  2  0  0  0  0  0  0
  182.9120  178.6700  143.9600 C   0  0  0  0  0  2  0  0  0  0  0  0
  181.8700  178.4260  141.6950 C   0  0  0  0  0  2  0  0  0  0  0  0
  184.2090  179.1500  143.3150 C   0  0  1  0  0  3  0  0  0  0  0  0
  183.3180  178.3060  139.6230 C   0  0  1  0  0  3  0  0  0  0  0  0
  180.2730  182.1770  137.4330 C   0  0  0  0  0  3  0  0  0  0  0  0
  182.1520  181.2680  138.6780 C   0  0  0  0  0  3  0  0  0  0  0  0
  181.2870  177.7640  138.2550 C   0  0  0  0  0  3  0  0  0  0  0  0
  182.1530  178.6670  138.7290 C   0  0  1  0  0  3  0  0  0  0  0  0
  180.5200  179.8450  137.6420 C   0  0  0  0  0  0  0  0  0  0  0  0
  179.8240  180.9130  137.1740 N   0  0  0  0  0  0  0  0  0  0  0  0
  180.1700  178.4140  137.4790 C   0  0  0  0  0  3  0  0  0  0  0  0
  181.4430  182.3770  138.1910 C   0  0  0  0  0  3  0  0  0  0  0  0
  181.6660  179.9960  138.3730 C   0  0  0  0  0  0  0  0  0  0  0  0
  185.1500  177.8880  138.0140 C   0  0  0  0  0  3  0  0  0  0  0  0
  184.6320  178.6540  138.9740 C   0  0  0  0  0  3  0  0  0  0  0  0
  186.6630  177.4510  136.2520 O   0  0  0  0  0  1  0  0  0  0  0  0
  186.4530  178.2450  137.3820 C   0  0  2  0  0  3  0  0  0  0  0  0
  187.5750  178.0200  138.3840 C   0  0  0  0  0  2  0  0  0  0  0  0
  189.0560  179.7160  137.5940 O   0  0  0  0  0  1  0  0  0  0  0  0
  188.9240  178.3360  137.7600 C   0  0  0  0  0  3  0  0  0  0  0  0
  189.9380  177.8740  138.5960 O   0  0  0  0  0  1  0  0  0  0  0  0
  185.3330  178.8050  144.1660 N   0  0  0  0  0  2  0  0  0  0  0  0
  186.0060  177.7520  143.5320 N   0  0  0  0  0  2  0  0  0  0  0  0
  187.7280  176.2000  143.5220 O   0  0  0  0  0  0  0  0  0  0  0  0
  187.6510  177.6090  145.3750 N   0  0  0  0  0  2  0  0  0  0  0  0
  187.1560  177.1500  144.1180 C   0  0  0  0  0  0  0  0  0  0  0  0
  190.1530  178.6280  144.6640 O   0  0  0  0  0  0  0  0  0  0  0  0
  188.8610  177.1240  145.8880 N   0  0  0  0  0  2  0  0  0  0  0  0
  190.1190  177.6390  145.4470 C   0  0  0  0  0  0  0  0  0  0  0  0
  191.4090  177.0140  145.9010 C   0  0  1  0  0  3  0  0  0  0  0  0
  191.3520  176.5320  147.3440 C   0  0  0  0  0  1  0  0  0  0  0  0
  191.6120  175.9980  143.7550 O   0  0  0  0  0  0  0  0  0  0  0  0
  192.4310  174.7230  145.5140 N   0  0  0  0  0  1  0  0  0  0  0  0
  191.8150  175.8970  144.9930 C   0  0  0  0  0  0  0  0  0  0  0  0
  1  4  1  0  0  0  0
  2  7  1  6  0  0  0
  2  5  1  0  0  0  0
  2  3  1  0  0  0  0
  3  6  1  0  0  0  0
  5  1  1  0  0  0  0
  6  4  1  0  0  0  0
  6 25  1  1  0  0  0
  7 18  1  6  0  0  0
  8 15  1  0  0  0  0
 10 11  1  0  0  0  0
 11  7  1  1  0  0  0
 12 16  2  0  0  0  0
 13  8  2  0  0  0  0
 13 12  1  0  0  0  0
 14 12  1  0  0  0  0
 14 10  2  0  0  0  0
 15  9  2  0  0  0  0
 16  9  1  0  0  0  0
 16 11  1  0  0  0  0
 17 18  2  0  0  0  0
 20 19  1  6  0  0  0
 20 17  1  0  0  0  0
 20 21  1  0  0  0  0
 22 23  1  0  0  0  0
 23 21  1  0  0  0  0
 23 24  1  0  0  0  0
 26 29  1  0  0  0  0
 26 25  1  0  0  0  0
 27 29  2  0  0  0  0
 28 31  1  0  0  0  0
 29 28  1  0  0  0  0
 30 32  2  0  0  0  0
 32 31  1  0  0  0  0
 32 33  1  0  0  0  0
 33 34  1  1  0  0  0
 35 37  2  0  0  0  0
 37 36  1  0  0  0  0
 37 33  1  0  0  0  0
M  END
>  <MODEL>
9

>  <REMARK>
 VINA RESULT:      -8.2      2.829      9.773
  Name = 
  11 active torsions:
  status: ('A' for Active; 'I' for Inactive)
    1  A    between atoms: C_5  and  C_6
    2  A    between atoms: C_6  and  C_21
    3  A    between atoms: C_6  and  C_37
    4  A    between atoms: C_7  and  C_30
    5  A    between atoms: C_10  and  C_12
    6  A    between atoms: C_10  and  C_33
    7  A    between atoms: N_11  and  N_25
    8  A    between atoms: N_13  and  N_17
    9  A    between atoms: N_13  and  C_29
   10  A    between atoms: C_14  and  C_19
   11  A    between atoms: C_14  and  C_30
                            x       y       z     vdW  Elec       q    Type
                         _______ _______ _______ _____ _____    ______ ____

>  <TORSDO>
F 11

$$$$
