=
 OpenBabel10222416263D

 38 39  0  0  1  0  0  0  0  0999 V2000
  189.1290  176.7990  147.4170 O   0  0  0  0  0  0  0  0  0  0  0  0
  187.8260  177.7610  145.4510 C   0  0  0  0  0  0  0  0  0  0  0  0
  188.4960  177.2670  146.4630 C   0  0  0  0  0  0  0  0  0  0  0  0
  186.2400  179.5130  147.1570 C   0  0  0  0  0  1  0  0  0  0  0  0
  185.5390  178.5200  146.2390 C   0  0  2  0  0  0  0  0  0  0  0  0
  185.6110  178.8530  144.7500 C   0  0  1  0  0  3  0  0  0  0  0  0
  184.3440  177.9630  146.7010 O   0  0  0  0  0  1  0  0  0  0  0  0
  186.3270  177.6100  145.3080 C   0  0  1  0  0  3  0  0  0  0  0  0
  184.3360  178.4620  143.9830 C   0  0  1  0  0  3  0  0  0  0  0  0
  182.4560  179.4850  145.0180 O   0  0  0  0  0  0  0  0  0  0  0  0
  183.3190  179.5570  144.1560 C   0  0  0  0  0  3  0  0  0  0  0  0
  184.5800  178.1500  142.4780 C   0  0  1  0  0  3  0  0  0  0  0  0
  183.3830  177.5090  140.3330 C   0  0  0  0  0  1  0  0  0  0  0  0
  183.3460  178.3650  141.5830 C   0  0  1  0  0  3  0  0  0  0  0  0
  182.1510  178.1880  142.2810 O   0  0  0  0  0  1  0  0  0  0  0  0
  185.7870  178.9470  141.9220 C   0  0  2  0  0  3  0  0  0  0  0  0
  185.4140  179.8250  140.8970 O   0  0  0  0  0  1  0  0  0  0  0  0
  186.9050  178.0370  141.4210 C   0  0  0  0  0  2  0  0  0  0  0  0
  188.0770  178.8340  140.8660 C   0  0  0  0  0  2  0  0  0  0  0  0
  188.5240  178.2420  139.5760 C   0  0  0  0  0  0  0  0  0  0  0  0
  188.5060  176.9940  139.4180 O   0  0  0  0  0  0  0  0  0  0  0  0
  188.9370  179.0870  138.5100 N   0  0  0  0  0  1  0  0  0  0  0  0
  188.5620  178.5730  144.4370 C   0  0  0  0  0  2  0  0  0  0  0  0
  191.3550  179.7550  144.3170 C   0  0  0  0  0  1  0  0  0  0  0  0
  191.6400  174.9920  143.7730 C   0  0  0  0  0  1  0  0  0  0  0  0
  190.9940  178.3740  143.8860 C   0  0  0  0  0  0  0  0  0  0  0  0
  189.7870  177.8450  143.9710 C   0  0  0  0  0  0  0  0  0  0  0  0
  189.7730  176.5260  143.4570 N   0  0  0  0  0  0  0  0  0  0  0  0
  188.5830  175.7150  143.2540 C   0  0  0  0  0  1  0  0  0  0  0  0
  191.1000  176.1710  142.9830 C   0  0  1  0  0  3  0  0  0  0  0  0
  191.9590  177.4130  143.2640 C   0  0  1  0  0  3  0  0  0  0  0  0
  192.4270  177.9350  142.0560 O   0  0  0  0  0  0  0  0  0  0  0  0
  191.6730  177.2950  141.0710 C   0  0  0  0  0  2  0  0  0  0  0  0
  193.7720  176.7050  137.2570 O   0  0  0  0  0  0  0  0  0  0  0  0
  192.4930  177.1360  139.8390 C   0  0  0  0  0  0  0  0  0  0  0  0
  193.6900  177.5300  139.8360 O   0  0  0  0  0  0  0  0  0  0  0  0
  192.5630  176.3830  137.4140 C   0  0  0  0  0  3  0  0  0  0  0  0
  191.8950  176.5770  138.6650 N   0  0  0  0  0  2  0  0  0  0  0  0
  2  3  2  0  0  0  0
  3  1  2  0  0  0  0
  5  7  1  0  0  0  0
  5  4  1  1  0  0  0
  6  9  1  6  0  0  0
  6  8  1  0  0  0  0
  6  5  1  0  0  0  0
  8  2  1  1  0  0  0
  8  5  1  0  0  0  0
  9 11  1  6  0  0  0
 11 10  2  0  0  0  0
 12 14  1  6  0  0  0
 12  9  1  0  0  0  0
 14 13  1  6  0  0  0
 14 15  1  0  0  0  0
 16 17  1  6  0  0  0
 16 12  1  0  0  0  0
 18 16  1  0  0  0  0
 19 18  1  0  0  0  0
 20 19  1  0  0  0  0
 21 20  2  0  0  0  0
 22 20  1  0  0  0  0
 23  2  1  0  0  0  0
 26 27  2  0  0  0  0
 26 24  1  0  0  0  0
 27 23  1  0  0  0  0
 28 27  1  0  0  0  0
 29 28  1  0  0  0  0
 30 31  1  0  0  0  0
 30 28  1  0  0  0  0
 30 25  1  1  0  0  0
 31 32  1  6  0  0  0
 31 26  1  0  0  0  0
 33 32  1  0  0  0  0
 34 37  2  0  0  0  0
 35 33  1  0  0  0  0
 36 35  2  0  0  0  0
 37 38  1  0  0  0  0
 38 35  1  0  0  0  0
M  END
>  <MODEL>
1

>  <REMARK>
 VINA RESULT:      -6.9      0.000      0.000
  Name = 
  14 active torsions:
  status: ('A' for Active; 'I' for Inactive)
    1  A    between atoms: C_2  and  C_16
    2  A    between atoms: C_2  and  O_33
    3  A    between atoms: C_7  and  C_10
    4  A    between atoms: C_8  and  C_28
    5  A    between atoms: C_8  and  C_35
    6  A    between atoms: C_8  and  C_37
    7  A    between atoms: C_10  and  C_13
    8  A    between atoms: C_12  and  C_31
    9  A    between atoms: C_12  and  C_34
   10  A    between atoms: C_13  and  C_24
   11  A    between atoms: C_14  and  C_31
   12  A    between atoms: C_18  and  C_35
   13  A    between atoms: C_24  and  C_35
   14  A    between atoms: O_33  and  C_36
                            x       y       z     vdW  Elec       q    Type
                         _______ _______ _______ _____ _____    ______ ____

>  <TORSDO>
F 14

$$$$
=
 OpenBabel10222416263D

 38 39  0  0  1  0  0  0  0  0999 V2000
  189.7670  175.2450  138.1440 O   0  0  0  0  0  0  0  0  0  0  0  0
  188.6220  177.5160  138.2850 C   0  0  0  0  0  0  0  0  0  0  0  0
  189.2100  176.3490  138.2130 C   0  0  0  0  0  0  0  0  0  0  0  0
  188.9340  177.3090  135.3960 C   0  0  0  0  0  1  0  0  0  0  0  0
  187.6060  177.7740  135.9770 C   0  0  2  0  0  0  0  0  0  0  0  0
  186.7930  176.6900  136.6840 C   0  0  1  0  0  3  0  0  0  0  0  0
  186.8860  178.7190  135.2410 O   0  0  0  0  0  1  0  0  0  0  0  0
  187.3890  177.8650  137.4800 C   0  0  1  0  0  3  0  0  0  0  0  0
  185.2750  176.8590  136.4980 C   0  0  1  0  0  3  0  0  0  0  0  0
  183.8560  176.7470  134.5940 O   0  0  0  0  0  0  0  0  0  0  0  0
  184.9110  176.4090  135.1090 C   0  0  0  0  0  3  0  0  0  0  0  0
  184.4260  176.1190  137.5730 C   0  0  1  0  0  3  0  0  0  0  0  0
  183.1440  176.8510  139.6390 C   0  0  0  0  0  1  0  0  0  0  0  0
  183.2560  176.9500  138.1310 C   0  0  1  0  0  3  0  0  0  0  0  0
  183.3090  178.2810  137.7150 O   0  0  0  0  0  1  0  0  0  0  0  0
  183.9080  174.7570  137.0470 C   0  0  2  0  0  3  0  0  0  0  0  0
  182.5370  174.5890  137.2750 O   0  0  0  0  0  1  0  0  0  0  0  0
  184.6650  173.5750  137.6470 C   0  0  0  0  0  2  0  0  0  0  0  0
  185.2150  172.6500  136.5720 C   0  0  0  0  0  2  0  0  0  0  0  0
  184.3490  171.4460  136.4520 C   0  0  0  0  0  0  0  0  0  0  0  0
  183.2790  171.3720  137.1110 O   0  0  0  0  0  0  0  0  0  0  0  0
  184.7120  170.3930  135.5680 N   0  0  0  0  0  1  0  0  0  0  0  0
  189.1450  178.5190  139.2600 C   0  0  0  0  0  2  0  0  0  0  0  0
  186.7930  178.4070  141.1750 C   0  0  0  0  0  1  0  0  0  0  0  0
  190.3000  175.5730  142.8260 C   0  0  0  0  0  1  0  0  0  0  0  0
  188.1690  177.9230  141.4850 C   0  0  0  0  0  0  0  0  0  0  0  0
  189.1850  177.9380  140.6410 C   0  0  0  0  0  0  0  0  0  0  0  0
  190.3580  177.4300  141.2500 N   0  0  0  0  0  0  0  0  0  0  0  0
  191.6870  177.4480  140.6600 C   0  0  0  0  0  1  0  0  0  0  0  0
  190.0750  177.0610  142.6270 C   0  0  1  0  0  3  0  0  0  0  0  0
  188.5850  177.3840  142.8170 C   0  0  1  0  0  3  0  0  0  0  0  0
  188.4480  178.3790  143.7890 O   0  0  0  0  0  0  0  0  0  0  0  0
  188.4340  177.6940  145.0060 C   0  0  0  0  0  2  0  0  0  0  0  0
  184.5130  178.6120  146.7600 O   0  0  0  0  0  0  0  0  0  0  0  0
  187.1540  177.9630  145.7150 C   0  0  0  0  0  0  0  0  0  0  0  0
  187.0230  177.6030  146.9150 O   0  0  0  0  0  0  0  0  0  0  0  0
  184.7930  178.8890  145.5630 C   0  0  0  0  0  3  0  0  0  0  0  0
  186.0780  178.5880  145.0080 N   0  0  0  0  0  2  0  0  0  0  0  0
  1  3  2  0  0  0  0
  2 23  1  0  0  0  0
  3  2  2  0  0  0  0
  5  4  1  6  0  0  0
  5  6  1  0  0  0  0
  5  8  1  0  0  0  0
  6  9  1  6  0  0  0
  6  8  1  0  0  0  0
  7  5  1  0  0  0  0
  8  2  1  1  0  0  0
  9 11  1  6  0  0  0
 10 11  2  0  0  0  0
 12  9  1  6  0  0  0
 12 14  1  0  0  0  0
 14 13  1  1  0  0  0
 15 14  1  0  0  0  0
 16 17  1  1  0  0  0
 16 12  1  0  0  0  0
 16 18  1  0  0  0  0
 19 18  1  0  0  0  0
 20 19  1  0  0  0  0
 20 21  2  0  0  0  0
 22 20  1  0  0  0  0
 23 27  1  0  0  0  0
 24 26  1  0  0  0  0
 26 31  1  0  0  0  0
 27 28  1  0  0  0  0
 27 26  2  0  0  0  0
 28 30  1  0  0  0  0
 29 28  1  0  0  0  0
 30 31  1  0  0  0  0
 30 25  1  6  0  0  0
 31 32  1  1  0  0  0
 32 33  1  0  0  0  0
 33 35  1  0  0  0  0
 35 36  2  0  0  0  0
 37 34  2  0  0  0  0
 38 37  1  0  0  0  0
 38 35  1  0  0  0  0
M  END
>  <MODEL>
2

>  <REMARK>
 VINA RESULT:      -6.5      4.028      7.676
  Name = 
  14 active torsions:
  status: ('A' for Active; 'I' for Inactive)
    1  A    between atoms: C_2  and  C_16
    2  A    between atoms: C_2  and  O_33
    3  A    between atoms: C_7  and  C_10
    4  A    between atoms: C_8  and  C_28
    5  A    between atoms: C_8  and  C_35
    6  A    between atoms: C_8  and  C_37
    7  A    between atoms: C_10  and  C_13
    8  A    between atoms: C_12  and  C_31
    9  A    between atoms: C_12  and  C_34
   10  A    between atoms: C_13  and  C_24
   11  A    between atoms: C_14  and  C_31
   12  A    between atoms: C_18  and  C_35
   13  A    between atoms: C_24  and  C_35
   14  A    between atoms: O_33  and  C_36
                            x       y       z     vdW  Elec       q    Type
                         _______ _______ _______ _____ _____    ______ ____

>  <TORSDO>
F 14

$$$$
=
 OpenBabel10222416263D

 38 39  0  0  1  0  0  0  0  0999 V2000
  189.2220  176.0260  142.0830 O   0  0  0  0  0  0  0  0  0  0  0  0
  188.4050  178.1790  140.9940 C   0  0  0  0  0  0  0  0  0  0  0  0
  188.8260  177.0730  141.5550 C   0  0  0  0  0  0  0  0  0  0  0  0
  185.9640  177.7360  139.4670 C   0  0  0  0  0  1  0  0  0  0  0  0
  185.9500  178.7040  140.6420 C   0  0  2  0  0  0  0  0  0  0  0  0
  186.0560  178.0510  142.0200 C   0  0  1  0  0  3  0  0  0  0  0  0
  185.1140  179.8180  140.5380 O   0  0  0  0  0  1  0  0  0  0  0  0
  187.1940  178.9400  141.4870 C   0  0  1  0  0  3  0  0  0  0  0  0
  185.2370  178.7840  143.0970 C   0  0  1  0  0  3  0  0  0  0  0  0
  182.9400  178.7600  142.4830 O   0  0  0  0  0  0  0  0  0  0  0  0
  183.8420  178.2180  143.1040 C   0  0  0  0  0  3  0  0  0  0  0  0
  185.8760  178.7300  144.5150 C   0  0  1  0  0  3  0  0  0  0  0  0
  185.4940  178.7000  147.0250 C   0  0  0  0  0  1  0  0  0  0  0  0
  184.8590  178.5500  145.6570 C   0  0  1  0  0  3  0  0  0  0  0  0
  183.7550  179.3920  145.5170 O   0  0  0  0  0  1  0  0  0  0  0  0
  186.9710  177.6370  144.6020 C   0  0  2  0  0  3  0  0  0  0  0  0
  186.5310  176.4980  145.2860 O   0  0  0  0  0  1  0  0  0  0  0  0
  188.2530  178.1490  145.2540 C   0  0  0  0  0  2  0  0  0  0  0  0
  189.2650  177.0320  145.4670 C   0  0  0  0  0  2  0  0  0  0  0  0
  189.7890  177.0850  146.8580 C   0  0  0  0  0  0  0  0  0  0  0  0
  190.9060  176.5710  147.1300 O   0  0  0  0  0  0  0  0  0  0  0  0
  189.0460  177.7460  147.8750 N   0  0  0  0  0  1  0  0  0  0  0  0
  189.2010  178.7560  139.8700 C   0  0  0  0  0  2  0  0  0  0  0  0
  191.9120  177.6130  140.6140 C   0  0  0  0  0  1  0  0  0  0  0  0
  189.8460  174.7600  137.3500 C   0  0  0  0  0  1  0  0  0  0  0  0
  191.1090  177.2000  139.4270 C   0  0  0  0  0  0  0  0  0  0  0  0
  189.9140  177.6700  139.1210 C   0  0  0  0  0  0  0  0  0  0  0  0
  189.4320  177.0920  137.9210 N   0  0  0  0  0  0  0  0  0  0  0  0
  188.2260  177.4970  137.2180 C   0  0  0  0  0  1  0  0  0  0  0  0
  190.4200  176.1650  137.3940 C   0  0  1  0  0  3  0  0  0  0  0  0
  191.5770  176.2150  138.4020 C   0  0  1  0  0  3  0  0  0  0  0  0
  192.7220  176.7050  137.7690 O   0  0  0  0  0  0  0  0  0  0  0  0
  193.0590  175.7290  136.8290 C   0  0  0  0  0  2  0  0  0  0  0  0
  195.6680  172.8990  138.9450 O   0  0  0  0  0  0  0  0  0  0  0  0
  193.8840  174.6750  137.4780 C   0  0  0  0  0  0  0  0  0  0  0  0
  193.6260  173.4620  137.2550 O   0  0  0  0  0  0  0  0  0  0  0  0
  195.7840  174.1460  139.0800 C   0  0  0  0  0  3  0  0  0  0  0  0
  194.9290  175.0560  138.3780 N   0  0  0  0  0  2  0  0  0  0  0  0
  2  3  2  0  0  0  0
  3  1  2  0  0  0  0
  5  4  1  6  0  0  0
  5  8  1  0  0  0  0
  5  6  1  0  0  0  0
  6  9  1  1  0  0  0
  7  5  1  0  0  0  0
  8  2  1  6  0  0  0
  8  6  1  0  0  0  0
  9 11  1  1  0  0  0
 10 11  2  0  0  0  0
 12  9  1  6  0  0  0
 12 16  1  0  0  0  0
 12 14  1  0  0  0  0
 14 13  1  1  0  0  0
 15 14  1  0  0  0  0
 16 18  1  0  0  0  0
 16 17  1  1  0  0  0
 18 19  1  0  0  0  0
 19 20  1  0  0  0  0
 20 21  2  0  0  0  0
 20 22  1  0  0  0  0
 23  2  1  0  0  0  0
 26 24  1  0  0  0  0
 27 26  2  0  0  0  0
 27 23  1  0  0  0  0
 28 27  1  0  0  0  0
 29 28  1  0  0  0  0
 30 25  1  1  0  0  0
 30 28  1  0  0  0  0
 30 31  1  0  0  0  0
 31 32  1  6  0  0  0
 31 26  1  0  0  0  0
 33 35  1  0  0  0  0
 33 32  1  0  0  0  0
 34 37  2  0  0  0  0
 35 38  1  0  0  0  0
 36 35  2  0  0  0  0
 38 37  1  0  0  0  0
M  END
>  <MODEL>
3

>  <REMARK>
 VINA RESULT:      -6.5      2.105      5.179
  Name = 
  14 active torsions:
  status: ('A' for Active; 'I' for Inactive)
    1  A    between atoms: C_2  and  C_16
    2  A    between atoms: C_2  and  O_33
    3  A    between atoms: C_7  and  C_10
    4  A    between atoms: C_8  and  C_28
    5  A    between atoms: C_8  and  C_35
    6  A    between atoms: C_8  and  C_37
    7  A    between atoms: C_10  and  C_13
    8  A    between atoms: C_12  and  C_31
    9  A    between atoms: C_12  and  C_34
   10  A    between atoms: C_13  and  C_24
   11  A    between atoms: C_14  and  C_31
   12  A    between atoms: C_18  and  C_35
   13  A    between atoms: C_24  and  C_35
   14  A    between atoms: O_33  and  C_36
                            x       y       z     vdW  Elec       q    Type
                         _______ _______ _______ _____ _____    ______ ____

>  <TORSDO>
F 14

$$$$
=
 OpenBabel10222416263D

 38 39  0  0  1  0  0  0  0  0999 V2000
  180.7390  179.3970  142.4630 O   0  0  0  0  0  0  0  0  0  0  0  0
  183.0490  178.5830  141.7620 C   0  0  0  0  0  0  0  0  0  0  0  0
  181.8610  179.0010  142.1230 C   0  0  0  0  0  0  0  0  0  0  0  0
  182.9730  178.7080  144.6720 C   0  0  0  0  0  1  0  0  0  0  0  0
  184.2290  179.1490  143.9330 C   0  0  2  0  0  0  0  0  0  0  0  0
  185.0330  178.0200  143.2900 C   0  0  1  0  0  3  0  0  0  0  0  0
  184.9600  180.2000  144.4930 O   0  0  0  0  0  1  0  0  0  0  0  0
  184.3240  179.0690  142.4160 C   0  0  1  0  0  3  0  0  0  0  0  0
  186.5510  178.2640  143.3300 C   0  0  1  0  0  3  0  0  0  0  0  0
  186.3700  177.1540  145.4240 O   0  0  0  0  0  0  0  0  0  0  0  0
  187.0780  177.7880  144.6570 C   0  0  0  0  0  3  0  0  0  0  0  0
  187.3230  177.6080  142.1470 C   0  0  1  0  0  3  0  0  0  0  0  0
  188.8650  178.1700  140.2110 C   0  0  0  0  0  1  0  0  0  0  0  0
  187.6230  178.5680  140.9820 C   0  0  1  0  0  3  0  0  0  0  0  0
  186.5280  178.7230  140.1310 O   0  0  0  0  0  1  0  0  0  0  0  0
  188.6300  176.9310  142.6300 C   0  0  2  0  0  3  0  0  0  0  0  0
  188.3980  175.6680  143.1870 O   0  0  0  0  0  1  0  0  0  0  0  0
  189.3930  177.7890  143.6360 C   0  0  0  0  0  2  0  0  0  0  0  0
  190.8980  177.7050  143.4260 C   0  0  0  0  0  2  0  0  0  0  0  0
  191.4910  176.7550  144.4040 C   0  0  0  0  0  0  0  0  0  0  0  0
  191.8190  175.5960  144.0370 O   0  0  0  0  0  0  0  0  0  0  0  0
  191.7200  177.1650  145.7470 N   0  0  0  0  0  1  0  0  0  0  0  0
  183.1440  177.5260  140.7120 C   0  0  0  0  0  2  0  0  0  0  0  0
  183.5470  179.8390  138.7890 C   0  0  0  0  0  1  0  0  0  0  0  0
  180.2540  176.8480  136.9800 C   0  0  0  0  0  1  0  0  0  0  0  0
  182.4060  178.8800  138.7420 C   0  0  0  0  0  0  0  0  0  0  0  0
  182.2470  177.8520  139.5560 C   0  0  0  0  0  0  0  0  0  0  0  0
  181.0520  177.1520  139.2630 N   0  0  0  0  0  0  0  0  0  0  0  0
  180.4940  176.0700  140.0590 C   0  0  0  0  0  1  0  0  0  0  0  0
  180.3640  177.8000  138.1580 C   0  0  1  0  0  3  0  0  0  0  0  0
  181.2660  178.9830  137.7780 C   0  0  1  0  0  3  0  0  0  0  0  0
  180.5760  180.1790  137.9950 O   0  0  0  0  0  0  0  0  0  0  0  0
  180.4770  180.7710  136.7330 C   0  0  0  0  0  2  0  0  0  0  0  0
  181.4970  185.0420  136.6450 O   0  0  0  0  0  0  0  0  0  0  0  0
  180.8800  182.2000  136.8200 C   0  0  0  0  0  0  0  0  0  0  0  0
  181.4120  182.6310  137.8780 O   0  0  0  0  0  0  0  0  0  0  0  0
  180.9390  184.4660  135.6720 C   0  0  0  0  0  3  0  0  0  0  0  0
  180.6190  183.0720  135.7150 N   0  0  0  0  0  2  0  0  0  0  0  0
  2  3  2  0  0  0  0
  3  1  2  0  0  0  0
  5  7  1  0  0  0  0
  5  4  1  1  0  0  0
  6  9  1  1  0  0  0
  6  5  1  0  0  0  0
  8  2  1  6  0  0  0
  8  6  1  0  0  0  0
  8  5  1  0  0  0  0
  9 11  1  1  0  0  0
 11 10  2  0  0  0  0
 12 14  1  6  0  0  0
 12 16  1  0  0  0  0
 12  9  1  0  0  0  0
 14 13  1  6  0  0  0
 15 14  1  0  0  0  0
 16 17  1  1  0  0  0
 16 18  1  0  0  0  0
 19 18  1  0  0  0  0
 19 20  1  0  0  0  0
 20 22  1  0  0  0  0
 21 20  2  0  0  0  0
 23  2  1  0  0  0  0
 26 24  1  0  0  0  0
 26 27  2  0  0  0  0
 27 23  1  0  0  0  0
 28 27  1  0  0  0  0
 28 29  1  0  0  0  0
 30 25  1  6  0  0  0
 30 28  1  0  0  0  0
 31 32  1  1  0  0  0
 31 30  1  0  0  0  0
 31 26  1  0  0  0  0
 33 35  1  0  0  0  0
 33 32  1  0  0  0  0
 35 36  2  0  0  0  0
 37 38  1  0  0  0  0
 37 34  2  0  0  0  0
 38 35  1  0  0  0  0
M  END
>  <MODEL>
4

>  <REMARK>
 VINA RESULT:      -6.4      3.884      8.594
  Name = 
  14 active torsions:
  status: ('A' for Active; 'I' for Inactive)
    1  A    between atoms: C_2  and  C_16
    2  A    between atoms: C_2  and  O_33
    3  A    between atoms: C_7  and  C_10
    4  A    between atoms: C_8  and  C_28
    5  A    between atoms: C_8  and  C_35
    6  A    between atoms: C_8  and  C_37
    7  A    between atoms: C_10  and  C_13
    8  A    between atoms: C_12  and  C_31
    9  A    between atoms: C_12  and  C_34
   10  A    between atoms: C_13  and  C_24
   11  A    between atoms: C_14  and  C_31
   12  A    between atoms: C_18  and  C_35
   13  A    between atoms: C_24  and  C_35
   14  A    between atoms: O_33  and  C_36
                            x       y       z     vdW  Elec       q    Type
                         _______ _______ _______ _____ _____    ______ ____

>  <TORSDO>
F 14

$$$$
=
 OpenBabel10222416263D

 38 39  0  0  1  0  0  0  0  0999 V2000
  186.1460  177.2920  137.8060 O   0  0  0  0  0  0  0  0  0  0  0  0
  184.5450  178.3960  139.4510 C   0  0  0  0  0  0  0  0  0  0  0  0
  185.3680  177.8280  138.6060 C   0  0  0  0  0  0  0  0  0  0  0  0
  182.7010  180.5340  138.7310 C   0  0  0  0  0  1  0  0  0  0  0  0
  182.1520  179.1890  139.1830 C   0  0  2  0  0  0  0  0  0  0  0  0
  182.3380  178.0450  138.1870 C   0  0  1  0  0  3  0  0  0  0  0  0
  180.9570  179.2010  139.9080 O   0  0  0  0  0  1  0  0  0  0  0  0
  183.0780  178.0340  139.5370 C   0  0  1  0  0  3  0  0  0  0  0  0
  181.1660  177.0490  138.1890 C   0  0  1  0  0  3  0  0  0  0  0  0
  180.0440  178.5150  136.6920 O   0  0  0  0  0  0  0  0  0  0  0  0
  180.2710  177.3610  137.0200 C   0  0  0  0  0  3  0  0  0  0  0  0
  181.6110  175.5570  138.1770 C   0  0  1  0  0  3  0  0  0  0  0  0
  180.3010  174.8740  140.2420 C   0  0  0  0  0  1  0  0  0  0  0  0
  180.5780  174.5870  138.7800 C   0  0  1  0  0  3  0  0  0  0  0  0
  179.3950  174.5500  138.0400 O   0  0  0  0  0  1  0  0  0  0  0  0
  182.0060  175.0940  136.7520 C   0  0  2  0  0  3  0  0  0  0  0  0
  181.3790  173.8960  136.3910 O   0  0  0  0  0  1  0  0  0  0  0  0
  183.5160  174.9380  136.5890 C   0  0  0  0  0  2  0  0  0  0  0  0
  184.1730  174.4240  137.8620 C   0  0  0  0  0  2  0  0  0  0  0  0
  184.8170  173.1090  137.6020 C   0  0  0  0  0  0  0  0  0  0  0  0
  186.0490  172.9590  137.8140 O   0  0  0  0  0  0  0  0  0  0  0  0
  184.0360  172.0110  137.1480 N   0  0  0  0  0  1  0  0  0  0  0  0
  185.0930  179.3880  140.4220 C   0  0  0  0  0  2  0  0  0  0  0  0
  183.6520  178.6280  142.9830 C   0  0  0  0  0  1  0  0  0  0  0  0
  187.8900  176.3740  142.8360 C   0  0  0  0  0  1  0  0  0  0  0  0
  185.1000  178.3910  142.7160 C   0  0  0  0  0  0  0  0  0  0  0  0
  185.7210  178.6880  141.5900 C   0  0  0  0  0  0  0  0  0  0  0  0
  187.0960  178.3580  141.6650 N   0  0  0  0  0  0  0  0  0  0  0  0
  188.0980  178.6950  140.6660 C   0  0  0  0  0  1  0  0  0  0  0  0
  187.3950  177.8030  142.9750 C   0  0  1  0  0  3  0  0  0  0  0  0
  186.0500  177.8100  143.7160 C   0  0  1  0  0  3  0  0  0  0  0  0
  186.1380  178.6550  144.8260 O   0  0  0  0  0  0  0  0  0  0  0  0
  186.0460  177.8070  145.9320 C   0  0  0  0  0  2  0  0  0  0  0  0
  189.6840  177.8760  148.3930 O   0  0  0  0  0  0  0  0  0  0  0  0
  187.3440  177.7930  146.6580 C   0  0  0  0  0  0  0  0  0  0  0  0
  188.3760  177.3640  146.0760 O   0  0  0  0  0  0  0  0  0  0  0  0
  188.5660  178.2520  148.8380 C   0  0  0  0  0  3  0  0  0  0  0  0
  187.3910  178.2290  148.0210 N   0  0  0  0  0  2  0  0  0  0  0  0
  1  3  2  0  0  0  0
  2 23  1  0  0  0  0
  3  2  2  0  0  0  0
  5  4  1  6  0  0  0
  5  8  1  0  0  0  0
  5  7  1  0  0  0  0
  6  9  1  1  0  0  0
  6  5  1  0  0  0  0
  6  8  1  0  0  0  0
  8  2  1  6  0  0  0
  9 11  1  6  0  0  0
 10 11  2  0  0  0  0
 12 16  1  6  0  0  0
 12  9  1  0  0  0  0
 12 14  1  0  0  0  0
 14 13  1  1  0  0  0
 15 14  1  0  0  0  0
 16 17  1  1  0  0  0
 18 16  1  0  0  0  0
 18 19  1  0  0  0  0
 20 21  2  0  0  0  0
 20 19  1  0  0  0  0
 22 20  1  0  0  0  0
 23 27  1  0  0  0  0
 26 24  1  0  0  0  0
 26 31  1  0  0  0  0
 27 28  1  0  0  0  0
 27 26  2  0  0  0  0
 28 30  1  0  0  0  0
 29 28  1  0  0  0  0
 30 25  1  6  0  0  0
 30 31  1  0  0  0  0
 31 32  1  1  0  0  0
 32 33  1  0  0  0  0
 33 35  1  0  0  0  0
 34 37  2  0  0  0  0
 35 38  1  0  0  0  0
 36 35  2  0  0  0  0
 38 37  1  0  0  0  0
M  END
>  <MODEL>
5

>  <REMARK>
 VINA RESULT:      -6.2      3.696      7.409
  Name = 
  14 active torsions:
  status: ('A' for Active; 'I' for Inactive)
    1  A    between atoms: C_2  and  C_16
    2  A    between atoms: C_2  and  O_33
    3  A    between atoms: C_7  and  C_10
    4  A    between atoms: C_8  and  C_28
    5  A    between atoms: C_8  and  C_35
    6  A    between atoms: C_8  and  C_37
    7  A    between atoms: C_10  and  C_13
    8  A    between atoms: C_12  and  C_31
    9  A    between atoms: C_12  and  C_34
   10  A    between atoms: C_13  and  C_24
   11  A    between atoms: C_14  and  C_31
   12  A    between atoms: C_18  and  C_35
   13  A    between atoms: C_24  and  C_35
   14  A    between atoms: O_33  and  C_36
                            x       y       z     vdW  Elec       q    Type
                         _______ _______ _______ _____ _____    ______ ____

>  <TORSDO>
F 14

$$$$
=
 OpenBabel10222416263D

 38 39  0  0  1  0  0  0  0  0999 V2000
  185.9070  179.0290  140.6410 O   0  0  0  0  0  0  0  0  0  0  0  0
  186.9690  177.8670  138.6390 C   0  0  0  0  0  0  0  0  0  0  0  0
  186.4230  178.4640  139.6680 C   0  0  0  0  0  0  0  0  0  0  0  0
  189.1830  179.1420  137.2360 C   0  0  0  0  0  1  0  0  0  0  0  0
  189.4090  177.8160  137.9500 C   0  0  2  0  0  0  0  0  0  0  0  0
  189.3960  177.8910  139.4760 C   0  0  1  0  0  3  0  0  0  0  0  0
  190.3230  176.9310  137.3720 O   0  0  0  0  0  1  0  0  0  0  0  0
  188.2900  177.1320  138.7220 C   0  0  1  0  0  3  0  0  0  0  0  0
  190.3880  176.9170  140.1350 C   0  0  1  0  0  3  0  0  0  0  0  0
  192.6520  176.9280  139.4090 O   0  0  0  0  0  0  0  0  0  0  0  0
  191.7710  177.5010  140.0330 C   0  0  0  0  0  3  0  0  0  0  0  0
  190.0320  176.5600  141.6080 C   0  0  1  0  0  3  0  0  0  0  0  0
  191.1440  178.1650  143.2300 C   0  0  0  0  0  1  0  0  0  0  0  0
  191.1820  176.7850  142.6050 C   0  0  1  0  0  3  0  0  0  0  0  0
  191.2350  175.7900  143.5820 O   0  0  0  0  0  1  0  0  0  0  0  0
  188.7620  177.3120  142.0810 C   0  0  2  0  0  3  0  0  0  0  0  0
  189.0420  178.6250  142.4790 O   0  0  0  0  0  1  0  0  0  0  0  0
  188.0460  176.5860  143.2180 C   0  0  0  0  0  2  0  0  0  0  0  0
  187.1300  177.5190  143.9970 C   0  0  0  0  0  2  0  0  0  0  0  0
  187.4950  177.4960  145.4380 C   0  0  0  0  0  0  0  0  0  0  0  0
  186.6270  177.7550  146.3120 O   0  0  0  0  0  0  0  0  0  0  0  0
  188.8160  177.1470  145.8330 N   0  0  0  0  0  1  0  0  0  0  0  0
  186.2210  177.8460  137.3470 C   0  0  0  0  0  2  0  0  0  0  0  0
  183.3670  178.5720  138.0800 C   0  0  0  0  0  1  0  0  0  0  0  0
  183.4340  174.1440  136.2240 C   0  0  0  0  0  1  0  0  0  0  0  0
  183.8440  177.1930  137.7730 C   0  0  0  0  0  0  0  0  0  0  0  0
  185.0770  176.8800  137.4180 C   0  0  0  0  0  0  0  0  0  0  0  0
  185.2100  175.4850  137.2190 N   0  0  0  0  0  0  0  0  0  0  0  0
  186.4610  174.7840  136.9760 C   0  0  0  0  0  1  0  0  0  0  0  0
  183.9390  174.8300  137.4810 C   0  0  1  0  0  3  0  0  0  0  0  0
  182.9840  175.9720  137.8600 C   0  0  1  0  0  3  0  0  0  0  0  0
  182.5520  175.7960  139.1770 O   0  0  0  0  0  0  0  0  0  0  0  0
  181.2020  175.4560  139.0710 C   0  0  0  0  0  2  0  0  0  0  0  0
  179.1470  177.8340  142.1400 O   0  0  0  0  0  0  0  0  0  0  0  0
  180.4250  176.1590  140.1280 C   0  0  0  0  0  0  0  0  0  0  0  0
  179.3860  175.6220  140.5940 O   0  0  0  0  0  0  0  0  0  0  0  0
  180.1890  178.2440  141.5610 C   0  0  0  0  0  3  0  0  0  0  0  0
  180.8500  177.4540  140.5670 N   0  0  0  0  0  2  0  0  0  0  0  0
  2  3  2  0  0  0  0
  3  1  2  0  0  0  0
  5  4  1  6  0  0  0
  5  8  1  0  0  0  0
  5  6  1  0  0  0  0
  6  9  1  1  0  0  0
  7  5  1  0  0  0  0
  8  2  1  6  0  0  0
  8  6  1  0  0  0  0
  9 11  1  1  0  0  0
 10 11  2  0  0  0  0
 12  9  1  6  0  0  0
 12 16  1  0  0  0  0
 12 14  1  0  0  0  0
 14 13  1  1  0  0  0
 14 15  1  0  0  0  0
 16 17  1  1  0  0  0
 16 18  1  0  0  0  0
 18 19  1  0  0  0  0
 19 20  1  0  0  0  0
 20 22  1  0  0  0  0
 20 21  2  0  0  0  0
 23 27  1  0  0  0  0
 23  2  1  0  0  0  0
 26 31  1  0  0  0  0
 26 24  1  0  0  0  0
 27 26  2  0  0  0  0
 28 27  1  0  0  0  0
 28 30  1  0  0  0  0
 29 28  1  0  0  0  0
 30 25  1  6  0  0  0
 30 31  1  0  0  0  0
 31 32  1  1  0  0  0
 33 32  1  0  0  0  0
 33 35  1  0  0  0  0
 35 38  1  0  0  0  0
 35 36  2  0  0  0  0
 37 34  2  0  0  0  0
 38 37  1  0  0  0  0
M  END
>  <MODEL>
6

>  <REMARK>
 VINA RESULT:      -6.2      3.089      9.131
  Name = 
  14 active torsions:
  status: ('A' for Active; 'I' for Inactive)
    1  A    between atoms: C_2  and  C_16
    2  A    between atoms: C_2  and  O_33
    3  A    between atoms: C_7  and  C_10
    4  A    between atoms: C_8  and  C_28
    5  A    between atoms: C_8  and  C_35
    6  A    between atoms: C_8  and  C_37
    7  A    between atoms: C_10  and  C_13
    8  A    between atoms: C_12  and  C_31
    9  A    between atoms: C_12  and  C_34
   10  A    between atoms: C_13  and  C_24
   11  A    between atoms: C_14  and  C_31
   12  A    between atoms: C_18  and  C_35
   13  A    between atoms: C_24  and  C_35
   14  A    between atoms: O_33  and  C_36
                            x       y       z     vdW  Elec       q    Type
                         _______ _______ _______ _____ _____    ______ ____

>  <TORSDO>
F 14

$$$$
=
 OpenBabel10222416263D

 38 39  0  0  1  0  0  0  0  0999 V2000
  186.9960  174.7060  137.1270 O   0  0  0  0  0  0  0  0  0  0  0  0
  186.3150  177.1430  137.4190 C   0  0  0  0  0  0  0  0  0  0  0  0
  186.6650  175.8900  137.2700 C   0  0  0  0  0  0  0  0  0  0  0  0
  184.4820  176.0850  135.4160 C   0  0  0  0  0  1  0  0  0  0  0  0
  183.9590  177.0300  136.4890 C   0  0  2  0  0  0  0  0  0  0  0  0
  183.8930  176.4380  137.8970 C   0  0  1  0  0  3  0  0  0  0  0  0
  182.9260  177.8970  136.1240 O   0  0  0  0  0  1  0  0  0  0  0  0
  184.8740  177.5800  137.5740 C   0  0  1  0  0  3  0  0  0  0  0  0
  182.6920  176.9520  138.7100 C   0  0  1  0  0  3  0  0  0  0  0  0
  180.9880  175.5780  139.6380 O   0  0  0  0  0  0  0  0  0  0  0  0
  182.1820  175.8290  139.5720 C   0  0  0  0  0  3  0  0  0  0  0  0
  183.0050  178.2190  139.5580 C   0  0  1  0  0  3  0  0  0  0  0  0
  182.6760  180.5870  138.7030 C   0  0  0  0  0  1  0  0  0  0  0  0
  182.0180  179.3810  139.3420 C   0  0  1  0  0  3  0  0  0  0  0  0
  180.8860  178.9850  138.6280 O   0  0  0  0  0  1  0  0  0  0  0  0
  183.1060  177.8800  141.0670 C   0  0  2  0  0  3  0  0  0  0  0  0
  182.1290  178.5380  141.8230 O   0  0  0  0  0  1  0  0  0  0  0  0
  184.4840  178.1970  141.6430 C   0  0  0  0  0  2  0  0  0  0  0  0
  184.3890  179.0540  142.8980 C   0  0  0  0  0  2  0  0  0  0  0  0
  185.2150  178.4550  143.9810 C   0  0  0  0  0  0  0  0  0  0  0  0
  184.8760  178.6000  145.1840 O   0  0  0  0  0  0  0  0  0  0  0  0
  186.3680  177.6890  143.6560 N   0  0  0  0  0  1  0  0  0  0  0  0
  187.3880  178.1770  137.5180 C   0  0  0  0  0  2  0  0  0  0  0  0
  188.0100  177.9680  140.4810 C   0  0  0  0  0  1  0  0  0  0  0  0
  191.1040  175.2340  138.0290 C   0  0  0  0  0  1  0  0  0  0  0  0
  188.9200  177.5260  139.3850 C   0  0  0  0  0  0  0  0  0  0  0  0
  188.6370  177.5830  138.0960 C   0  0  0  0  0  0  0  0  0  0  0  0
  189.7190  177.1080  137.3170 N   0  0  0  0  0  0  0  0  0  0  0  0
  189.8050  177.1770  135.8660 C   0  0  0  0  0  1  0  0  0  0  0  0
  190.8150  176.7160  138.1880 C   0  0  1  0  0  3  0  0  0  0  0  0
  190.2990  176.9880  139.6090 C   0  0  1  0  0  3  0  0  0  0  0  0
  191.0930  177.9680  140.2100 O   0  0  0  0  0  0  0  0  0  0  0  0
  191.9550  177.2650  141.0530 C   0  0  0  0  0  2  0  0  0  0  0  0
  190.8800  177.4990  145.3060 O   0  0  0  0  0  0  0  0  0  0  0  0
  191.5410  177.4630  142.4680 C   0  0  0  0  0  0  0  0  0  0  0  0
  191.0680  178.5740  142.8260 O   0  0  0  0  0  0  0  0  0  0  0  0
  191.3840  176.4620  144.7980 C   0  0  0  0  0  3  0  0  0  0  0  0
  191.7240  176.4000  143.4090 N   0  0  0  0  0  2  0  0  0  0  0  0
  1  3  2  0  0  0  0
  2 23  1  0  0  0  0
  3  2  2  0  0  0  0
  5  4  1  6  0  0  0
  5  8  1  0  0  0  0
  5  6  1  0  0  0  0
  6  9  1  1  0  0  0
  7  5  1  0  0  0  0
  8  2  1  6  0  0  0
  8  6  1  0  0  0  0
  9 11  1  1  0  0  0
 11 10  2  0  0  0  0
 12  9  1  6  0  0  0
 12 16  1  0  0  0  0
 14 13  1  6  0  0  0
 14 12  1  0  0  0  0
 15 14  1  0  0  0  0
 16 18  1  0  0  0  0
 16 17  1  1  0  0  0
 18 19  1  0  0  0  0
 19 20  1  0  0  0  0
 20 21  2  0  0  0  0
 22 20  1  0  0  0  0
 23 27  1  0  0  0  0
 26 31  1  0  0  0  0
 26 24  1  0  0  0  0
 27 26  2  0  0  0  0
 28 27  1  0  0  0  0
 28 30  1  0  0  0  0
 29 28  1  0  0  0  0
 30 25  1  1  0  0  0
 30 31  1  0  0  0  0
 31 32  1  6  0  0  0
 32 33  1  0  0  0  0
 33 35  1  0  0  0  0
 35 36  2  0  0  0  0
 35 38  1  0  0  0  0
 37 34  2  0  0  0  0
 38 37  1  0  0  0  0
M  END
>  <MODEL>
7

>  <REMARK>
 VINA RESULT:      -6.2      2.671      6.428
  Name = 
  14 active torsions:
  status: ('A' for Active; 'I' for Inactive)
    1  A    between atoms: C_2  and  C_16
    2  A    between atoms: C_2  and  O_33
    3  A    between atoms: C_7  and  C_10
    4  A    between atoms: C_8  and  C_28
    5  A    between atoms: C_8  and  C_35
    6  A    between atoms: C_8  and  C_37
    7  A    between atoms: C_10  and  C_13
    8  A    between atoms: C_12  and  C_31
    9  A    between atoms: C_12  and  C_34
   10  A    between atoms: C_13  and  C_24
   11  A    between atoms: C_14  and  C_31
   12  A    between atoms: C_18  and  C_35
   13  A    between atoms: C_24  and  C_35
   14  A    between atoms: O_33  and  C_36
                            x       y       z     vdW  Elec       q    Type
                         _______ _______ _______ _____ _____    ______ ____

>  <TORSDO>
F 14

$$$$
=
 OpenBabel10222416263D

 38 39  0  0  1  0  0  0  0  0999 V2000
  183.0130  176.5290  140.6320 O   0  0  0  0  0  0  0  0  0  0  0  0
  184.4400  178.6240  140.8820 C   0  0  0  0  0  0  0  0  0  0  0  0
  183.7070  177.5460  140.7540 C   0  0  0  0  0  0  0  0  0  0  0  0
  182.4310  178.6410  142.9930 C   0  0  0  0  0  1  0  0  0  0  0  0
  183.8340  179.1540  143.2860 C   0  0  2  0  0  0  0  0  0  0  0  0
  184.9180  178.0780  143.3450 C   0  0  1  0  0  3  0  0  0  0  0  0
  183.9480  180.2090  144.1950 O   0  0  0  0  0  1  0  0  0  0  0  0
  184.9230  179.1320  142.2240 C   0  0  1  0  0  3  0  0  0  0  0  0
  186.0050  178.3760  144.3920 C   0  0  1  0  0  3  0  0  0  0  0  0
  185.7050  179.2530  146.5810 O   0  0  0  0  0  0  0  0  0  0  0  0
  185.3600  178.4260  145.7510 C   0  0  0  0  0  3  0  0  0  0  0  0
  187.1920  177.3680  144.3670 C   0  0  1  0  0  3  0  0  0  0  0  0
  188.3920  178.1800  142.2820 C   0  0  0  0  0  1  0  0  0  0  0  0
  187.6890  177.0170  142.9530 C   0  0  1  0  0  3  0  0  0  0  0  0
  188.4870  175.8720  142.9430 O   0  0  0  0  0  1  0  0  0  0  0  0
  188.3730  177.8620  145.2390 C   0  0  2  0  0  3  0  0  0  0  0  0
  189.4310  178.3560  144.4670 O   0  0  0  0  0  1  0  0  0  0  0  0
  188.9000  176.7770  146.1750 C   0  0  0  0  0  2  0  0  0  0  0  0
  189.9270  177.3250  147.1550 C   0  0  0  0  0  2  0  0  0  0  0  0
  191.2500  176.6950  146.9030 C   0  0  0  0  0  0  0  0  0  0  0  0
  191.9930  177.1350  145.9870 O   0  0  0  0  0  0  0  0  0  0  0  0
  191.6940  175.6170  147.7190 N   0  0  0  0  0  1  0  0  0  0  0  0
  184.8810  179.3380  139.6480 C   0  0  0  0  0  2  0  0  0  0  0  0
  187.6450  178.2500  139.0240 C   0  0  0  0  0  1  0  0  0  0  0  0
  184.3610  175.6200  136.7080 C   0  0  0  0  0  1  0  0  0  0  0  0
  186.4050  177.9130  138.2670 C   0  0  0  0  0  0  0  0  0  0  0  0
  185.1960  178.3570  138.5580 C   0  0  0  0  0  0  0  0  0  0  0  0
  184.2400  177.8710  137.6350 N   0  0  0  0  0  0  0  0  0  0  0  0
  182.8470  178.2860  137.5680 C   0  0  0  0  0  1  0  0  0  0  0  0
  184.8980  177.0390  136.6410 C   0  0  1  0  0  3  0  0  0  0  0  0
  186.3790  177.0470  137.0470 C   0  0  1  0  0  3  0  0  0  0  0  0
  187.1340  177.6420  136.0330 O   0  0  0  0  0  0  0  0  0  0  0  0
  187.7250  176.5760  135.3510 C   0  0  0  0  0  2  0  0  0  0  0  0
  190.8210  174.5420  137.7120 O   0  0  0  0  0  0  0  0  0  0  0  0
  188.8250  176.0050  136.1740 C   0  0  0  0  0  0  0  0  0  0  0  0
  189.7460  176.7600  136.5860 O   0  0  0  0  0  0  0  0  0  0  0  0
  189.8450  173.9220  137.2100 C   0  0  0  0  0  3  0  0  0  0  0  0
  188.8410  174.6010  136.4480 N   0  0  0  0  0  2  0  0  0  0  0  0
  1  3  2  0  0  0  0
  3  2  2  0  0  0  0
  5  4  1  6  0  0  0
  5  6  1  0  0  0  0
  5  7  1  0  0  0  0
  6  9  1  1  0  0  0
  8  2  1  6  0  0  0
  8  5  1  0  0  0  0
  8  6  1  0  0  0  0
  9 11  1  1  0  0  0
 11 10  2  0  0  0  0
 12 14  1  6  0  0  0
 12  9  1  0  0  0  0
 12 16  1  0  0  0  0
 14 13  1  1  0  0  0
 15 14  1  0  0  0  0
 16 17  1  6  0  0  0
 16 18  1  0  0  0  0
 18 19  1  0  0  0  0
 20 19  1  0  0  0  0
 20 22  1  0  0  0  0
 21 20  2  0  0  0  0
 23  2  1  0  0  0  0
 26 27  2  0  0  0  0
 26 24  1  0  0  0  0
 27 23  1  0  0  0  0
 28 27  1  0  0  0  0
 29 28  1  0  0  0  0
 30 25  1  1  0  0  0
 30 31  1  0  0  0  0
 30 28  1  0  0  0  0
 31 32  1  6  0  0  0
 31 26  1  0  0  0  0
 33 32  1  0  0  0  0
 33 35  1  0  0  0  0
 35 38  1  0  0  0  0
 35 36  2  0  0  0  0
 37 34  2  0  0  0  0
 38 37  1  0  0  0  0
M  END
>  <MODEL>
8

>  <REMARK>
 VINA RESULT:      -6.1      2.825      6.311
  Name = 
  14 active torsions:
  status: ('A' for Active; 'I' for Inactive)
    1  A    between atoms: C_2  and  C_16
    2  A    between atoms: C_2  and  O_33
    3  A    between atoms: C_7  and  C_10
    4  A    between atoms: C_8  and  C_28
    5  A    between atoms: C_8  and  C_35
    6  A    between atoms: C_8  and  C_37
    7  A    between atoms: C_10  and  C_13
    8  A    between atoms: C_12  and  C_31
    9  A    between atoms: C_12  and  C_34
   10  A    between atoms: C_13  and  C_24
   11  A    between atoms: C_14  and  C_31
   12  A    between atoms: C_18  and  C_35
   13  A    between atoms: C_24  and  C_35
   14  A    between atoms: O_33  and  C_36
                            x       y       z     vdW  Elec       q    Type
                         _______ _______ _______ _____ _____    ______ ____

>  <TORSDO>
F 14

$$$$
=
 OpenBabel10222416263D

 38 39  0  0  1  0  0  0  0  0999 V2000
  183.3160  174.1120  137.5270 O   0  0  0  0  0  0  0  0  0  0  0  0
  185.4250  175.5060  137.2180 C   0  0  0  0  0  0  0  0  0  0  0  0
  184.3410  174.7890  137.3760 C   0  0  0  0  0  0  0  0  0  0  0  0
  186.0750  173.2080  135.5490 C   0  0  0  0  0  1  0  0  0  0  0  0
  187.1010  173.7270  136.5460 C   0  0  2  0  0  0  0  0  0  0  0  0
  187.7340  175.0700  136.1850 C   0  0  1  0  0  3  0  0  0  0  0  0
  187.9350  172.7820  137.1500 O   0  0  0  0  0  1  0  0  0  0  0  0
  186.8170  174.9440  137.4140 C   0  0  1  0  0  3  0  0  0  0  0  0
  189.2120  175.1700  136.6030 C   0  0  1  0  0  3  0  0  0  0  0  0
  190.8690  174.5400  135.0200 O   0  0  0  0  0  0  0  0  0  0  0  0
  190.0040  174.1730  135.8020 C   0  0  0  0  0  3  0  0  0  0  0  0
  189.8050  176.6030  136.4690 C   0  0  1  0  0  3  0  0  0  0  0  0
  189.0520  178.9980  136.8490 C   0  0  0  0  0  1  0  0  0  0  0  0
  188.7610  177.6880  136.1450 C   0  0  1  0  0  3  0  0  0  0  0  0
  188.6070  177.8770  134.7710 O   0  0  0  0  0  1  0  0  0  0  0  0
  190.6130  177.0020  137.7290 C   0  0  2  0  0  3  0  0  0  0  0  0
  191.9410  176.5630  137.6670 O   0  0  0  0  0  1  0  0  0  0  0  0
  189.9750  176.4890  139.0170 C   0  0  0  0  0  2  0  0  0  0  0  0
  190.0530  177.5170  140.1360 C   0  0  0  0  0  2  0  0  0  0  0  0
  189.6460  176.8930  141.4240 C   0  0  0  0  0  0  0  0  0  0  0  0
  188.5080  177.1300  141.9060 O   0  0  0  0  0  0  0  0  0  0  0  0
  190.5280  176.0000  142.0920 N   0  0  0  0  0  1  0  0  0  0  0  0
  185.2850  176.9170  136.7500 C   0  0  0  0  0  2  0  0  0  0  0  0
  186.6050  178.1800  139.1740 C   0  0  0  0  0  1  0  0  0  0  0  0
  182.2210  180.0590  138.6150 C   0  0  0  0  0  1  0  0  0  0  0  0
  185.1500  178.2630  138.8550 C   0  0  0  0  0  0  0  0  0  0  0  0
  184.5800  177.7450  137.7820 C   0  0  0  0  0  0  0  0  0  0  0  0
  183.1840  177.9790  137.7860 N   0  0  0  0  0  0  0  0  0  0  0  0
  182.2330  177.4150  136.8410 C   0  0  0  0  0  1  0  0  0  0  0  0
  182.8140  178.7110  138.9860 C   0  0  1  0  0  3  0  0  0  0  0  0
  184.1370  178.9230  139.7370 C   0  0  1  0  0  3  0  0  0  0  0  0
  184.0830  178.2600  140.9660 O   0  0  0  0  0  0  0  0  0  0  0  0
  182.9040  178.7090  141.5650 C   0  0  0  0  0  2  0  0  0  0  0  0
  183.8680  179.0020  145.8400 O   0  0  0  0  0  0  0  0  0  0  0  0
  183.1020  178.8170  143.0360 C   0  0  0  0  0  0  0  0  0  0  0  0
  182.1110  179.0500  143.7790 O   0  0  0  0  0  0  0  0  0  0  0  0
  184.7520  178.7940  144.9670 C   0  0  0  0  0  3  0  0  0  0  0  0
  184.4210  178.6950  143.5780 N   0  0  0  0  0  2  0  0  0  0  0  0
  2  3  2  0  0  0  0
  3  1  2  0  0  0  0
  5  4  1  6  0  0  0
  5  7  1  0  0  0  0
  5  8  1  0  0  0  0
  6  5  1  0  0  0  0
  6  9  1  1  0  0  0
  6  8  1  0  0  0  0
  8  2  1  6  0  0  0
  9 11  1  6  0  0  0
 10 11  2  0  0  0  0
 12 14  1  1  0  0  0
 12  9  1  0  0  0  0
 12 16  1  0  0  0  0
 14 13  1  1  0  0  0
 15 14  1  0  0  0  0
 16 17  1  6  0  0  0
 16 18  1  0  0  0  0
 18 19  1  0  0  0  0
 19 20  1  0  0  0  0
 20 21  2  0  0  0  0
 20 22  1  0  0  0  0
 23  2  1  0  0  0  0
 23 27  1  0  0  0  0
 26 24  1  0  0  0  0
 26 31  1  0  0  0  0
 27 28  1  0  0  0  0
 27 26  2  0  0  0  0
 28 30  1  0  0  0  0
 29 28  1  0  0  0  0
 30 25  1  6  0  0  0
 30 31  1  0  0  0  0
 31 32  1  1  0  0  0
 32 33  1  0  0  0  0
 33 35  1  0  0  0  0
 35 38  1  0  0  0  0
 35 36  2  0  0  0  0
 37 34  2  0  0  0  0
 38 37  1  0  0  0  0
M  END
>  <MODEL>
9

>  <REMARK>
 VINA RESULT:      -6.1      3.584      9.298
  Name = 
  14 active torsions:
  status: ('A' for Active; 'I' for Inactive)
    1  A    between atoms: C_2  and  C_16
    2  A    between atoms: C_2  and  O_33
    3  A    between atoms: C_7  and  C_10
    4  A    between atoms: C_8  and  C_28
    5  A    between atoms: C_8  and  C_35
    6  A    between atoms: C_8  and  C_37
    7  A    between atoms: C_10  and  C_13
    8  A    between atoms: C_12  and  C_31
    9  A    between atoms: C_12  and  C_34
   10  A    between atoms: C_13  and  C_24
   11  A    between atoms: C_14  and  C_31
   12  A    between atoms: C_18  and  C_35
   13  A    between atoms: C_24  and  C_35
   14  A    between atoms: O_33  and  C_36
                            x       y       z     vdW  Elec       q    Type
                         _______ _______ _______ _____ _____    ______ ____

>  <TORSDO>
F 14

$$$$
