=
 OpenBabel10222419563D

 37 41  0  0  1  0  0  0  0  0999 V2000
  187.4590  177.8100  148.1860 C   0  0  0  0  0  2  0  0  0  0  0  0
  180.9210  179.4080  142.1030 O   0  0  0  0  0  0  0  0  0  0  0  0
  182.0860  179.0330  141.8010 C   0  0  0  0  0  0  0  0  0  0  0  0
  190.1230  176.8440  144.7960 C   0  0  0  0  0  0  0  0  0  0  0  0
  189.8850  178.1750  148.0280 C   0  0  0  0  0  3  0  0  0  0  0  0
  185.6890  177.9760  142.4680 S   0  0  0  0  0  0  0  0  0  0  0  0
  188.6980  178.6010  148.4650 C   0  0  0  0  0  3  0  0  0  0  0  0
  183.1170  178.7900  142.7130 C   0  0  0  0  0  0  0  0  0  0  0  0
  185.7710  178.2440  146.4530 C   0  0  0  0  0  3  0  0  0  0  0  0
  186.1250  177.9560  144.0930 C   0  0  0  0  0  0  0  0  0  0  0  0
  185.2660  178.3060  145.1510 C   0  0  0  0  0  0  0  0  0  0  0  0
  181.8870  179.3070  144.5650 O   0  0  0  0  0  0  0  0  0  0  0  0
  183.7460  178.4460  140.6360 C   0  0  0  0  0  0  0  0  0  0  0  0
  183.9680  178.7010  145.0460 N   0  0  0  0  0  2  0  0  0  0  0  0
  182.4620  178.8180  140.5280 N   0  0  0  0  0  0  0  0  0  0  0  0
  187.4370  177.5610  144.3660 C   0  0  0  0  0  3  0  0  0  0  0  0
  191.4350  176.4240  147.2550 C   0  0  0  0  0  1  0  0  0  0  0  0
  189.9890  176.9060  147.2410 C   0  0  2  0  0  3  0  0  0  0  0  0
  190.8550  176.6210  143.7400 C   0  0  0  0  0  3  0  0  0  0  0  0
  187.0820  177.8560  146.7350 C   0  0  0  0  0  0  0  0  0  0  0  0
  184.1460  178.4190  141.9610 C   0  0  0  0  0  0  0  0  0  0  0  0
  183.0020  178.9300  144.1140 C   0  0  0  0  0  0  0  0  0  0  0  0
  189.3820  177.0730  145.8580 C   0  0  0  0  0  0  0  0  0  0  0  0
  187.9500  177.4930  145.6710 C   0  0  0  0  0  0  0  0  0  0  0  0
  191.3210  177.7600  142.9080 C   0  0  0  0  0  2  0  0  0  0  0  0
  191.0930  177.4430  141.4450 C   0  0  0  0  0  2  0  0  0  0  0  0
  189.0650  177.6050  140.5920 C   0  0  0  0  0  1  0  0  0  0  0  0
  189.8970  176.7390  141.3010 O   0  0  0  0  0  0  0  0  0  0  0  0
  184.5810  178.0570  139.4630 C   0  0  0  0  0  2  0  0  0  0  0  0
  185.3060  179.2150  138.9730 N   0  0  0  0  0  2  0  0  0  0  0  0
  186.4820  178.7340  138.3850 N   0  0  0  0  0  2  0  0  0  0  0  0
  186.0800  177.7660  137.3790 C   0  0  0  0  0  2  0  0  0  0  0  0
  187.2960  177.2920  136.6070 C   0  0  2  0  0  3  0  0  0  0  0  0
  189.5850  177.3630  136.5970 N   0  0  0  0  0  2  0  0  0  0  0  0
  189.4140  176.0470  137.1910 C   0  0  0  0  0  2  0  0  0  0  0  0
  187.6700  175.5820  137.0560 S   0  0  0  0  0  0  0  0  0  0  0  0
  188.4490  178.1110  136.9410 N   0  0  0  0  0  2  0  0  0  0  0  0
  1  7  1  0  0  0  0
  3  2  2  0  0  0  0
  3  8  1  0  0  0  0
  4 23  2  0  0  0  0
  5  7  2  0  0  0  0
  6 10  1  0  0  0  0
  8 22  1  0  0  0  0
  9 20  1  0  0  0  0
 10 16  2  0  0  0  0
 10 11  1  0  0  0  0
 11  9  2  0  0  0  0
 13 21  1  0  0  0  0
 14 11  1  0  0  0  0
 15 13  2  0  0  0  0
 15  3  1  0  0  0  0
 16 24  1  0  0  0  0
 18 17  1  6  0  0  0
 18  5  1  0  0  0  0
 19  4  2  0  0  0  0
 20  1  1  0  0  0  0
 21  6  1  0  0  0  0
 21  8  2  0  0  0  0
 22 12  2  0  0  0  0
 22 14  1  0  0  0  0
 23 18  1  0  0  0  0
 24 23  1  0  0  0  0
 24 20  2  0  0  0  0
 25 19  1  0  0  0  0
 26 25  1  0  0  0  0
 27 28  1  0  0  0  0
 28 26  1  0  0  0  0
 29 13  1  0  0  0  0
 30 29  1  0  0  0  0
 31 30  1  0  0  0  0
 32 31  1  0  0  0  0
 33 37  1  0  0  0  0
 33 36  1  0  0  0  0
 33 32  1  1  0  0  0
 34 37  1  0  0  0  0
 34 35  1  0  0  0  0
 36 35  1  0  0  0  0
M  END
>  <MODEL>
1

>  <REMARK>
 VINA RESULT:      -9.9      0.000      0.000
  Name = 
  8 active torsions:
  status: ('A' for Active; 'I' for Inactive)
    1  A    between atoms: C_5  and  C_30
    2  A    between atoms: C_8  and  C_16
    3  A    between atoms: C_8  and  C_29
    4  A    between atoms: N_11  and  C_30
    5  A    between atoms: N_11  and  N_34
    6  A    between atoms: C_16  and  O_33
    7  A    between atoms: C_20  and  C_22
    8  A    between atoms: C_20  and  N_34
                            x       y       z     vdW  Elec       q    Type
                         _______ _______ _______ _____ _____    ______ ____

>  <TORSDO>
F 8

$$$$
=
 OpenBabel10222419563D

 37 41  0  0  1  0  0  0  0  0999 V2000
  181.4060  179.1530  143.9900 C   0  0  0  0  0  2  0  0  0  0  0  0
  189.7030  177.3910  147.2060 O   0  0  0  0  0  0  0  0  0  0  0  0
  189.4270  177.4710  145.9790 C   0  0  0  0  0  0  0  0  0  0  0  0
  183.1080  178.8140  139.9270 C   0  0  0  0  0  0  0  0  0  0  0  0
  180.2940  178.3320  141.9570 C   0  0  0  0  0  3  0  0  0  0  0  0
  187.1840  177.9890  142.9380 S   0  0  0  0  0  0  0  0  0  0  0  0
  180.4590  178.2380  143.2780 C   0  0  0  0  0  3  0  0  0  0  0  0
  188.1580  177.7280  145.4530 C   0  0  0  0  0  0  0  0  0  0  0  0
  183.6840  178.6400  144.7530 C   0  0  0  0  0  3  0  0  0  0  0  0
  185.5720  178.3050  143.3010 C   0  0  0  0  0  0  0  0  0  0  0  0
  185.0480  178.3700  144.6060 C   0  0  0  0  0  0  0  0  0  0  0  0
  187.1170  177.8840  147.4780 O   0  0  0  0  0  0  0  0  0  0  0  0
  189.6710  177.4640  143.8820 C   0  0  0  0  0  0  0  0  0  0  0  0
  185.7380  178.2010  145.7660 N   0  0  0  0  0  2  0  0  0  0  0  0
  190.3590  177.3140  145.0230 N   0  0  0  0  0  0  0  0  0  0  0  0
  184.7310  178.5110  142.2050 C   0  0  0  0  0  3  0  0  0  0  0  0
  180.3890  179.5490  139.8180 C   0  0  0  0  0  1  0  0  0  0  0  0
  181.0640  179.3450  141.1690 C   0  0  2  0  0  3  0  0  0  0  0  0
  183.6780  178.6520  138.7650 C   0  0  0  0  0  3  0  0  0  0  0  0
  182.8360  178.8410  143.6630 C   0  0  0  0  0  0  0  0  0  0  0  0
  188.3360  177.7240  144.1370 C   0  0  0  0  0  0  0  0  0  0  0  0
  186.9940  177.9390  146.2250 C   0  0  0  0  0  0  0  0  0  0  0  0
  182.5360  178.9740  141.1010 C   0  0  0  0  0  0  0  0  0  0  0  0
  183.3610  178.7860  142.3450 C   0  0  0  0  0  0  0  0  0  0  0  0
  184.0310  177.2860  138.2980 C   0  0  0  0  0  2  0  0  0  0  0  0
  182.7630  176.5020  138.0310 C   0  0  0  0  0  2  0  0  0  0  0  0
  181.3260  175.6520  139.4710 C   0  0  0  0  0  1  0  0  0  0  0  0
  182.6250  175.4970  138.9880 O   0  0  0  0  0  0  0  0  0  0  0  0
  190.3100  177.4150  142.5350 C   0  0  0  0  0  2  0  0  0  0  0  0
  190.0360  176.1330  141.9100 N   0  0  0  0  0  2  0  0  0  0  0  0
  190.4590  176.2360  140.5790 N   0  0  0  0  0  2  0  0  0  0  0  0
  190.0450  177.5480  140.1100 C   0  0  0  0  0  2  0  0  0  0  0  0
  188.9370  177.4010  139.0850 C   0  0  2  0  0  3  0  0  0  0  0  0
  187.3660  178.5940  137.9230 N   0  0  0  0  0  2  0  0  0  0  0  0
  188.3780  178.5040  136.8830 C   0  0  0  0  0  2  0  0  0  0  0  0
  189.6510  177.3380  137.4260 S   0  0  0  0  0  0  0  0  0  0  0  0
  188.0430  178.5450  139.1510 N   0  0  0  0  0  2  0  0  0  0  0  0
  3  2  2  0  0  0  0
  4 23  2  0  0  0  0
  5  7  2  0  0  0  0
  6 10  1  0  0  0  0
  6 21  1  0  0  0  0
  7  1  1  0  0  0  0
  8  3  1  0  0  0  0
  8 22  1  0  0  0  0
 10 11  2  0  0  0  0
 11  9  1  0  0  0  0
 11 14  1  0  0  0  0
 13 21  1  0  0  0  0
 13 15  2  0  0  0  0
 14 22  1  0  0  0  0
 15  3  1  0  0  0  0
 16 24  2  0  0  0  0
 16 10  1  0  0  0  0
 18 17  1  6  0  0  0
 18  5  1  0  0  0  0
 19  4  2  0  0  0  0
 20  1  1  0  0  0  0
 20  9  2  0  0  0  0
 21  8  2  0  0  0  0
 22 12  2  0  0  0  0
 23 18  1  0  0  0  0
 23 24  1  0  0  0  0
 24 20  1  0  0  0  0
 25 19  1  0  0  0  0
 26 25  1  0  0  0  0
 26 28  1  0  0  0  0
 28 27  1  0  0  0  0
 29 13  1  0  0  0  0
 30 29  1  0  0  0  0
 31 30  1  0  0  0  0
 32 31  1  0  0  0  0
 33 37  1  0  0  0  0
 33 32  1  1  0  0  0
 34 37  1  0  0  0  0
 35 36  1  0  0  0  0
 35 34  1  0  0  0  0
 36 33  1  0  0  0  0
M  END
>  <MODEL>
2

>  <REMARK>
 VINA RESULT:      -9.1      2.710      6.955
  Name = 
  8 active torsions:
  status: ('A' for Active; 'I' for Inactive)
    1  A    between atoms: C_5  and  C_30
    2  A    between atoms: C_8  and  C_16
    3  A    between atoms: C_8  and  C_29
    4  A    between atoms: N_11  and  C_30
    5  A    between atoms: N_11  and  N_34
    6  A    between atoms: C_16  and  O_33
    7  A    between atoms: C_20  and  C_22
    8  A    between atoms: C_20  and  N_34
                            x       y       z     vdW  Elec       q    Type
                         _______ _______ _______ _____ _____    ______ ____

>  <TORSDO>
F 8

$$$$
=
 OpenBabel10222419563D

 37 41  0  0  1  0  0  0  0  0999 V2000
  184.9210  178.4420  147.0360 C   0  0  0  0  0  2  0  0  0  0  0  0
  179.4680  179.8240  139.9180 O   0  0  0  0  0  0  0  0  0  0  0  0
  180.6540  179.4080  139.8250 C   0  0  0  0  0  0  0  0  0  0  0  0
  188.0540  177.2290  144.1670 C   0  0  0  0  0  0  0  0  0  0  0  0
  187.3510  178.7470  147.2450 C   0  0  0  0  0  3  0  0  0  0  0  0
  184.0750  178.3170  141.1100 S   0  0  0  0  0  0  0  0  0  0  0  0
  186.1230  179.2220  147.4650 C   0  0  0  0  0  3  0  0  0  0  0  0
  181.5220  179.1970  140.9000 C   0  0  0  0  0  0  0  0  0  0  0  0
  183.5390  178.8110  145.0380 C   0  0  0  0  0  3  0  0  0  0  0  0
  184.2510  178.3810  142.7820 C   0  0  0  0  0  0  0  0  0  0  0  0
  183.2470  178.8090  143.6710 C   0  0  0  0  0  0  0  0  0  0  0  0
  180.0320  179.8440  142.5040 O   0  0  0  0  0  0  0  0  0  0  0  0
  182.4590  178.7220  138.9710 C   0  0  0  0  0  0  0  0  0  0  0  0
  181.9940  179.2240  143.3410 N   0  0  0  0  0  2  0  0  0  0  0  0
  181.2190  179.1140  138.6410 N   0  0  0  0  0  0  0  0  0  0  0  0
  185.4900  177.9760  143.2790 C   0  0  0  0  0  3  0  0  0  0  0  0
  188.9510  176.9230  146.8220 C   0  0  0  0  0  1  0  0  0  0  0  0
  187.5400  177.4330  146.5530 C   0  0  2  0  0  3  0  0  0  0  0  0
  188.9350  176.9300  143.2540 C   0  0  0  0  0  3  0  0  0  0  0  0
  184.7770  178.4120  145.5430 C   0  0  0  0  0  0  0  0  0  0  0  0
  182.6440  178.7630  140.3420 C   0  0  0  0  0  0  0  0  0  0  0  0
  181.1920  179.4200  142.2560 C   0  0  0  0  0  0  0  0  0  0  0  0
  187.1620  177.5330  145.0850 C   0  0  0  0  0  0  0  0  0  0  0  0
  185.7900  177.9720  144.6510 C   0  0  0  0  0  0  0  0  0  0  0  0
  189.5600  178.0110  142.4470 C   0  0  0  0  0  2  0  0  0  0  0  0
  191.0350  177.7160  142.2650 C   0  0  0  0  0  2  0  0  0  0  0  0
  191.4810  179.0850  143.9350 C   0  0  0  0  0  1  0  0  0  0  0  0
  191.6780  177.7750  143.5010 O   0  0  0  0  0  0  0  0  0  0  0  0
  183.4550  178.2490  137.9670 C   0  0  0  0  0  2  0  0  0  0  0  0
  183.3810  176.8040  137.8470 N   0  0  0  0  0  2  0  0  0  0  0  0
  184.6450  176.3690  137.4320 N   0  0  0  0  0  2  0  0  0  0  0  0
  185.5560  177.4830  137.6310 C   0  0  0  0  0  2  0  0  0  0  0  0
  186.9610  177.0760  137.2340 C   0  0  2  0  0  3  0  0  0  0  0  0
  188.6790  177.6140  135.8180 N   0  0  0  0  0  2  0  0  0  0  0  0
  189.1770  178.2680  137.0170 C   0  0  0  0  0  2  0  0  0  0  0  0
  188.1460  177.7580  138.4150 S   0  0  0  0  0  0  0  0  0  0  0  0
  187.2790  177.6020  135.9170 N   0  0  0  0  0  2  0  0  0  0  0  0
  1  7  1  0  0  0  0
  3  2  2  0  0  0  0
  3  8  1  0  0  0  0
  4 23  2  0  0  0  0
  5  7  2  0  0  0  0
  6 10  1  0  0  0  0
  8 22  1  0  0  0  0
  9 20  1  0  0  0  0
 10 16  2  0  0  0  0
 10 11  1  0  0  0  0
 11  9  2  0  0  0  0
 13 21  1  0  0  0  0
 14 11  1  0  0  0  0
 15 13  2  0  0  0  0
 15  3  1  0  0  0  0
 16 24  1  0  0  0  0
 18 17  1  6  0  0  0
 18  5  1  0  0  0  0
 19  4  2  0  0  0  0
 20  1  1  0  0  0  0
 21  8  2  0  0  0  0
 21  6  1  0  0  0  0
 22 12  2  0  0  0  0
 22 14  1  0  0  0  0
 23 18  1  0  0  0  0
 24 23  1  0  0  0  0
 24 20  2  0  0  0  0
 25 19  1  0  0  0  0
 26 25  1  0  0  0  0
 26 28  1  0  0  0  0
 28 27  1  0  0  0  0
 29 13  1  0  0  0  0
 30 29  1  0  0  0  0
 31 32  1  0  0  0  0
 31 30  1  0  0  0  0
 33 32  1  1  0  0  0
 33 36  1  0  0  0  0
 34 37  1  0  0  0  0
 34 35  1  0  0  0  0
 35 36  1  0  0  0  0
 37 33  1  0  0  0  0
M  END
>  <MODEL>
3

>  <REMARK>
 VINA RESULT:      -8.8      1.738      2.454
  Name = 
  8 active torsions:
  status: ('A' for Active; 'I' for Inactive)
    1  A    between atoms: C_5  and  C_30
    2  A    between atoms: C_8  and  C_16
    3  A    between atoms: C_8  and  C_29
    4  A    between atoms: N_11  and  C_30
    5  A    between atoms: N_11  and  N_34
    6  A    between atoms: C_16  and  O_33
    7  A    between atoms: C_20  and  C_22
    8  A    between atoms: C_20  and  N_34
                            x       y       z     vdW  Elec       q    Type
                         _______ _______ _______ _____ _____    ______ ____

>  <TORSDO>
F 8

$$$$
=
 OpenBabel10222419563D

 37 41  0  0  1  0  0  0  0  0999 V2000
  191.3770  176.9070  145.8780 C   0  0  0  0  0  2  0  0  0  0  0  0
  190.4400  176.8520  136.8550 O   0  0  0  0  0  0  0  0  0  0  0  0
  189.5440  177.2370  137.6530 C   0  0  0  0  0  0  0  0  0  0  0  0
  187.2450  178.4520  146.1150 C   0  0  0  0  0  0  0  0  0  0  0  0
  189.7150  176.4910  147.6400 C   0  0  0  0  0  3  0  0  0  0  0  0
  187.9990  177.9950  141.0560 S   0  0  0  0  0  0  0  0  0  0  0  0
  190.7230  176.0290  146.8980 C   0  0  0  0  0  3  0  0  0  0  0  0
  189.6530  177.2460  139.0460 C   0  0  0  0  0  0  0  0  0  0  0  0
  191.0070  176.9050  143.4490 C   0  0  0  0  0  3  0  0  0  0  0  0
  188.9960  177.6620  142.3700 C   0  0  0  0  0  0  0  0  0  0  0  0
  190.2960  177.1340  142.2670 C   0  0  0  0  0  0  0  0  0  0  0  0
  191.7740  176.4050  139.0970 O   0  0  0  0  0  0  0  0  0  0  0  0
  187.7020  177.9890  138.3610 C   0  0  0  0  0  0  0  0  0  0  0  0
  190.9560  176.8180  141.1190 N   0  0  0  0  0  2  0  0  0  0  0  0
  188.3540  177.6960  137.2260 N   0  0  0  0  0  0  0  0  0  0  0  0
  188.4580  177.9420  143.6280 C   0  0  0  0  0  3  0  0  0  0  0  0
  188.4090  178.3030  148.6770 C   0  0  0  0  0  1  0  0  0  0  0  0
  189.2180  177.8900  147.4530 C   0  0  2  0  0  3  0  0  0  0  0  0
  186.0060  178.8600  146.0990 C   0  0  0  0  0  3  0  0  0  0  0  0
  190.4760  177.1770  144.7110 C   0  0  0  0  0  0  0  0  0  0  0  0
  188.4900  177.7250  139.4690 C   0  0  0  0  0  0  0  0  0  0  0  0
  190.7930  176.8240  139.7670 C   0  0  0  0  0  0  0  0  0  0  0  0
  188.4930  178.0360  146.1260 C   0  0  0  0  0  0  0  0  0  0  0  0
  189.1670  177.7190  144.8190 C   0  0  0  0  0  0  0  0  0  0  0  0
  184.9140  177.9010  145.7930 C   0  0  0  0  0  2  0  0  0  0  0  0
  183.9900  178.5020  144.7550 C   0  0  0  0  0  2  0  0  0  0  0  0
  184.8310  179.3420  142.8970 C   0  0  0  0  0  1  0  0  0  0  0  0
  184.4240  178.1420  143.4790 O   0  0  0  0  0  0  0  0  0  0  0  0
  186.3330  178.5800  138.3830 C   0  0  0  0  0  2  0  0  0  0  0  0
  185.4920  177.9030  137.4120 N   0  0  0  0  0  2  0  0  0  0  0  0
  184.4080  177.3710  138.1200 N   0  0  0  0  0  2  0  0  0  0  0  0
  184.1910  178.2390  139.2650 C   0  0  0  0  0  2  0  0  0  0  0  0
  183.1570  177.6230  140.1880 C   0  0  2  0  0  3  0  0  0  0  0  0
  180.9760  177.8120  140.8570 N   0  0  0  0  0  2  0  0  0  0  0  0
  180.8140  176.7260  139.9050 C   0  0  0  0  0  2  0  0  0  0  0  0
  182.4570  176.1480  139.4140 S   0  0  0  0  0  0  0  0  0  0  0  0
  182.0770  178.5660  140.4260 N   0  0  0  0  0  2  0  0  0  0  0  0
  1  7  1  0  0  0  0
  2  3  2  0  0  0  0
  3  8  1  0  0  0  0
  4 23  2  0  0  0  0
  6 10  1  0  0  0  0
  7  5  2  0  0  0  0
  8 21  2  0  0  0  0
  8 22  1  0  0  0  0
  9 20  1  0  0  0  0
 10 16  2  0  0  0  0
 11 10  1  0  0  0  0
 11  9  2  0  0  0  0
 12 22  2  0  0  0  0
 13 29  1  0  0  0  0
 13 21  1  0  0  0  0
 14 11  1  0  0  0  0
 15  3  1  0  0  0  0
 15 13  2  0  0  0  0
 16 24  1  0  0  0  0
 18  5  1  0  0  0  0
 18 17  1  1  0  0  0
 19  4  2  0  0  0  0
 20 24  2  0  0  0  0
 20  1  1  0  0  0  0
 21  6  1  0  0  0  0
 22 14  1  0  0  0  0
 23 18  1  0  0  0  0
 24 23  1  0  0  0  0
 25 19  1  0  0  0  0
 26 25  1  0  0  0  0
 27 28  1  0  0  0  0
 28 26  1  0  0  0  0
 30 31  1  0  0  0  0
 30 29  1  0  0  0  0
 31 32  1  0  0  0  0
 33 32  1  6  0  0  0
 33 37  1  0  0  0  0
 35 34  1  0  0  0  0
 36 35  1  0  0  0  0
 36 33  1  0  0  0  0
 37 34  1  0  0  0  0
M  END
>  <MODEL>
4

>  <REMARK>
 VINA RESULT:      -8.8      2.000      6.024
  Name = 
  8 active torsions:
  status: ('A' for Active; 'I' for Inactive)
    1  A    between atoms: C_5  and  C_30
    2  A    between atoms: C_8  and  C_16
    3  A    between atoms: C_8  and  C_29
    4  A    between atoms: N_11  and  C_30
    5  A    between atoms: N_11  and  N_34
    6  A    between atoms: C_16  and  O_33
    7  A    between atoms: C_20  and  C_22
    8  A    between atoms: C_20  and  N_34
                            x       y       z     vdW  Elec       q    Type
                         _______ _______ _______ _____ _____    ______ ____

>  <TORSDO>
F 8

$$$$
=
 OpenBabel10222419563D

 37 41  0  0  1  0  0  0  0  0999 V2000
  180.6580  179.2190  142.0550 C   0  0  0  0  0  2  0  0  0  0  0  0
  187.4940  177.9870  147.8890 O   0  0  0  0  0  0  0  0  0  0  0  0
  187.6180  177.9170  146.6370 C   0  0  0  0  0  0  0  0  0  0  0  0
  183.5370  178.4340  138.7980 C   0  0  0  0  0  0  0  0  0  0  0  0
  180.2200  178.1470  139.8870 C   0  0  0  0  0  3  0  0  0  0  0  0
  186.4490  178.0360  143.0080 S   0  0  0  0  0  0  0  0  0  0  0  0
  179.9620  178.2120  141.1940 C   0  0  0  0  0  3  0  0  0  0  0  0
  186.5830  178.0900  145.7130 C   0  0  0  0  0  0  0  0  0  0  0  0
  182.5720  178.8380  143.5470 C   0  0  0  0  0  3  0  0  0  0  0  0
  184.8110  178.3670  142.8080 C   0  0  0  0  0  0  0  0  0  0  0  0
  183.9080  178.5750  143.8670 C   0  0  0  0  0  0  0  0  0  0  0  0
  184.9640  178.4650  147.2780 O   0  0  0  0  0  0  0  0  0  0  0  0
  188.5050  177.6680  144.7370 C   0  0  0  0  0  0  0  0  0  0  0  0
  184.1960  178.5550  145.1960 N   0  0  0  0  0  2  0  0  0  0  0  0
  188.7980  177.6640  146.0460 N   0  0  0  0  0  0  0  0  0  0  0  0
  184.3600  178.4280  141.4890 C   0  0  0  0  0  3  0  0  0  0  0  0
  181.0050  179.1050  137.7580 C   0  0  0  0  0  1  0  0  0  0  0  0
  181.2200  179.0720  139.2670 C   0  0  2  0  0  3  0  0  0  0  0  0
  184.4390  178.1450  137.9000 C   0  0  0  0  0  3  0  0  0  0  0  0
  182.1110  178.8950  142.2310 C   0  0  0  0  0  0  0  0  0  0  0  0
  187.1630  177.9340  144.5300 C   0  0  0  0  0  0  0  0  0  0  0  0
  185.2400  178.3700  146.0520 C   0  0  0  0  0  0  0  0  0  0  0  0
  182.6310  178.7210  139.7070 C   0  0  0  0  0  0  0  0  0  0  0  0
  183.0210  178.6940  141.1590 C   0  0  0  0  0  0  0  0  0  0  0  0
  184.8910  176.7400  137.7300 C   0  0  0  0  0  2  0  0  0  0  0  0
  184.7410  176.3350  136.2780 C   0  0  0  0  0  2  0  0  0  0  0  0
  186.5660  175.3130  136.9760 C   0  0  0  0  0  1  0  0  0  0  0  0
  185.9350  175.7780  135.8230 O   0  0  0  0  0  0  0  0  0  0  0  0
  189.5320  177.4720  143.6730 C   0  0  0  0  0  2  0  0  0  0  0  0
  189.4870  176.1010  143.1970 N   0  0  0  0  0  2  0  0  0  0  0  0
  190.0410  176.1030  141.9120 N   0  0  0  0  0  2  0  0  0  0  0  0
  189.8130  177.4280  141.3610 C   0  0  0  0  0  2  0  0  0  0  0  0
  189.0120  177.3210  140.0780 C   0  0  2  0  0  3  0  0  0  0  0  0
  188.0510  178.5800  138.4230 N   0  0  0  0  0  2  0  0  0  0  0  0
  189.2720  178.2070  137.7270 C   0  0  0  0  0  2  0  0  0  0  0  0
  190.1210  176.9410  138.7020 S   0  0  0  0  0  0  0  0  0  0  0  0
  188.3550  178.5850  139.7930 N   0  0  0  0  0  2  0  0  0  0  0  0
  1 20  1  0  0  0  0
  3  2  2  0  0  0  0
  4 23  2  0  0  0  0
  5  7  2  0  0  0  0
  6 21  1  0  0  0  0
  7  1  1  0  0  0  0
  8 22  1  0  0  0  0
  8  3  1  0  0  0  0
  9 11  1  0  0  0  0
 10  6  1  0  0  0  0
 10 11  2  0  0  0  0
 11 14  1  0  0  0  0
 13 15  2  0  0  0  0
 14 22  1  0  0  0  0
 15  3  1  0  0  0  0
 16 10  1  0  0  0  0
 18 17  1  6  0  0  0
 18 23  1  0  0  0  0
 18  5  1  0  0  0  0
 19  4  2  0  0  0  0
 20  9  2  0  0  0  0
 21 13  1  0  0  0  0
 21  8  2  0  0  0  0
 22 12  2  0  0  0  0
 23 24  1  0  0  0  0
 24 16  2  0  0  0  0
 24 20  1  0  0  0  0
 25 19  1  0  0  0  0
 26 25  1  0  0  0  0
 28 26  1  0  0  0  0
 28 27  1  0  0  0  0
 29 13  1  0  0  0  0
 30 29  1  0  0  0  0
 31 30  1  0  0  0  0
 32 31  1  0  0  0  0
 33 32  1  1  0  0  0
 34 37  1  0  0  0  0
 35 34  1  0  0  0  0
 35 36  1  0  0  0  0
 36 33  1  0  0  0  0
 37 33  1  0  0  0  0
M  END
>  <MODEL>
5

>  <REMARK>
 VINA RESULT:      -8.8      2.829      7.021
  Name = 
  8 active torsions:
  status: ('A' for Active; 'I' for Inactive)
    1  A    between atoms: C_5  and  C_30
    2  A    between atoms: C_8  and  C_16
    3  A    between atoms: C_8  and  C_29
    4  A    between atoms: N_11  and  C_30
    5  A    between atoms: N_11  and  N_34
    6  A    between atoms: C_16  and  O_33
    7  A    between atoms: C_20  and  C_22
    8  A    between atoms: C_20  and  N_34
                            x       y       z     vdW  Elec       q    Type
                         _______ _______ _______ _____ _____    ______ ____

>  <TORSDO>
F 8

$$$$
=
 OpenBabel10222419563D

 37 41  0  0  1  0  0  0  0  0999 V2000
  191.5920  176.8480  145.5700 C   0  0  0  0  0  2  0  0  0  0  0  0
  190.4160  176.8010  136.5740 O   0  0  0  0  0  0  0  0  0  0  0  0
  189.5400  177.1840  137.3960 C   0  0  0  0  0  0  0  0  0  0  0  0
  187.4640  178.3860  145.9170 C   0  0  0  0  0  0  0  0  0  0  0  0
  189.9770  176.4280  147.3750 C   0  0  0  0  0  3  0  0  0  0  0  0
  188.0850  177.9360  140.8400 S   0  0  0  0  0  0  0  0  0  0  0  0
  190.9650  175.9680  146.6050 C   0  0  0  0  0  3  0  0  0  0  0  0
  189.6860  177.1910  138.7860 C   0  0  0  0  0  0  0  0  0  0  0  0
  191.1570  176.8480  143.1510 C   0  0  0  0  0  3  0  0  0  0  0  0
  189.1170  177.6030  142.1260 C   0  0  0  0  0  0  0  0  0  0  0  0
  190.4150  177.0770  141.9880 C   0  0  0  0  0  0  0  0  0  0  0  0
  191.8090  176.3540  138.7790 O   0  0  0  0  0  0  0  0  0  0  0  0
  187.7170  177.9310  138.1540 C   0  0  0  0  0  0  0  0  0  0  0  0
  191.0440  176.7630  140.8230 N   0  0  0  0  0  2  0  0  0  0  0  0
  188.3390  177.6410  137.0020 N   0  0  0  0  0  0  0  0  0  0  0  0
  188.6130  177.8800  143.3980 C   0  0  0  0  0  3  0  0  0  0  0  0
  188.6960  178.2370  148.4480 C   0  0  0  0  0  1  0  0  0  0  0  0
  189.4730  177.8270  147.2020 C   0  0  2  0  0  3  0  0  0  0  0  0
  186.2260  178.7930  145.9340 C   0  0  0  0  0  3  0  0  0  0  0  0
  190.6590  177.1180  144.4270 C   0  0  0  0  0  0  0  0  0  0  0  0
  188.5340  177.6680  139.2390 C   0  0  0  0  0  0  0  0  0  0  0  0
  190.8450  176.7700  139.4750 C   0  0  0  0  0  0  0  0  0  0  0  0
  188.7130  177.9730  145.8950 C   0  0  0  0  0  0  0  0  0  0  0  0
  189.3530  177.6570  144.5700 C   0  0  0  0  0  0  0  0  0  0  0  0
  185.1270  177.8320  145.6570 C   0  0  0  0  0  2  0  0  0  0  0  0
  184.3190  178.3180  144.4710 C   0  0  0  0  0  2  0  0  0  0  0  0
  184.8900  179.0670  142.4770 C   0  0  0  0  0  1  0  0  0  0  0  0
  184.9500  177.9350  143.2880 O   0  0  0  0  0  0  0  0  0  0  0  0
  186.3480  178.5210  138.2120 C   0  0  0  0  0  2  0  0  0  0  0  0
  185.3560  177.4660  138.1060 N   0  0  0  0  0  2  0  0  0  0  0  0
  184.8560  177.5150  136.8000 N   0  0  0  0  0  2  0  0  0  0  0  0
  184.2910  176.2060  136.5200 C   0  0  0  0  0  2  0  0  0  0  0  0
  185.1420  175.1300  137.1650 C   0  0  2  0  0  3  0  0  0  0  0  0
  185.1080  172.9370  137.8260 N   0  0  0  0  0  2  0  0  0  0  0  0
  185.8030  172.7680  136.5610 C   0  0  0  0  0  2  0  0  0  0  0  0
  186.2430  174.4060  135.9280 S   0  0  0  0  0  0  0  0  0  0  0  0
  184.2950  174.0730  137.6910 N   0  0  0  0  0  2  0  0  0  0  0  0
  1  7  1  0  0  0  0
  2  3  2  0  0  0  0
  3  8  1  0  0  0  0
  4 19  2  0  0  0  0
  6 10  1  0  0  0  0
  7  5  2  0  0  0  0
  8 21  2  0  0  0  0
  8 22  1  0  0  0  0
  9 20  1  0  0  0  0
 10 16  2  0  0  0  0
 11 10  1  0  0  0  0
 11  9  2  0  0  0  0
 12 22  2  0  0  0  0
 13 29  1  0  0  0  0
 13 21  1  0  0  0  0
 14 11  1  0  0  0  0
 15  3  1  0  0  0  0
 15 13  2  0  0  0  0
 16 24  1  0  0  0  0
 18  5  1  0  0  0  0
 18 17  1  1  0  0  0
 20 24  2  0  0  0  0
 20  1  1  0  0  0  0
 21  6  1  0  0  0  0
 22 14  1  0  0  0  0
 23  4  2  0  0  0  0
 23 18  1  0  0  0  0
 24 23  1  0  0  0  0
 25 19  1  0  0  0  0
 26 25  1  0  0  0  0
 27 28  1  0  0  0  0
 28 26  1  0  0  0  0
 30 29  1  0  0  0  0
 31 30  1  0  0  0  0
 32 31  1  0  0  0  0
 33 32  1  6  0  0  0
 33 37  1  0  0  0  0
 35 34  1  0  0  0  0
 36 35  1  0  0  0  0
 36 33  1  0  0  0  0
 37 34  1  0  0  0  0
M  END
>  <MODEL>
6

>  <REMARK>
 VINA RESULT:      -8.4      2.457      5.649
  Name = 
  8 active torsions:
  status: ('A' for Active; 'I' for Inactive)
    1  A    between atoms: C_5  and  C_30
    2  A    between atoms: C_8  and  C_16
    3  A    between atoms: C_8  and  C_29
    4  A    between atoms: N_11  and  C_30
    5  A    between atoms: N_11  and  N_34
    6  A    between atoms: C_16  and  O_33
    7  A    between atoms: C_20  and  C_22
    8  A    between atoms: C_20  and  N_34
                            x       y       z     vdW  Elec       q    Type
                         _______ _______ _______ _____ _____    ______ ____

>  <TORSDO>
F 8

$$$$
=
 OpenBabel10222419563D

 37 41  0  0  1  0  0  0  0  0999 V2000
  185.2980  178.3480  147.3200 C   0  0  0  0  0  2  0  0  0  0  0  0
  179.6750  179.8080  140.3520 O   0  0  0  0  0  0  0  0  0  0  0  0
  180.8540  179.3820  140.2270 C   0  0  0  0  0  0  0  0  0  0  0  0
  188.3450  177.1190  144.3660 C   0  0  0  0  0  0  0  0  0  0  0  0
  187.7350  178.6310  147.4670 C   0  0  0  0  0  3  0  0  0  0  0  0
  184.2980  178.2560  141.4170 S   0  0  0  0  0  0  0  0  0  0  0  0
  186.5180  179.1170  147.7210 C   0  0  0  0  0  3  0  0  0  0  0  0
  181.7480  179.1590  141.2780 C   0  0  0  0  0  0  0  0  0  0  0  0
  183.8680  178.7380  145.3600 C   0  0  0  0  0  3  0  0  0  0  0  0
  184.5170  178.3110  143.0850 C   0  0  0  0  0  0  0  0  0  0  0  0
  183.5400  178.7440  144.0010 C   0  0  0  0  0  0  0  0  0  0  0  0
  180.3060  179.8120  142.9220 O   0  0  0  0  0  0  0  0  0  0  0  0
  182.6300  178.6830  139.3230 C   0  0  0  0  0  0  0  0  0  0  0  0
  182.2830  179.1720  143.7050 N   0  0  0  0  0  2  0  0  0  0  0  0
  181.3860  179.0870  139.0270 N   0  0  0  0  0  0  0  0  0  0  0  0
  185.7660  177.8930  143.5480 C   0  0  0  0  0  3  0  0  0  0  0  0
  189.3070  176.7950  146.9950 C   0  0  0  0  0  1  0  0  0  0  0  0
  187.8940  177.3190  146.7660 C   0  0  2  0  0  3  0  0  0  0  0  0
  189.1990  176.8170  143.4290 C   0  0  0  0  0  3  0  0  0  0  0  0
  185.1150  178.3260  145.8320 C   0  0  0  0  0  0  0  0  0  0  0  0
  182.8520  178.7170  140.6890 C   0  0  0  0  0  0  0  0  0  0  0  0
  181.4560  179.3790  142.6430 C   0  0  0  0  0  0  0  0  0  0  0  0
  187.4790  177.4280  145.3080 C   0  0  0  0  0  0  0  0  0  0  0  0
  186.1010  177.8810  144.9120 C   0  0  0  0  0  0  0  0  0  0  0  0
  189.8130  177.8950  142.6110 C   0  0  0  0  0  2  0  0  0  0  0  0
  191.3110  177.6830  142.5390 C   0  0  0  0  0  2  0  0  0  0  0  0
  191.2950  179.3710  143.9580 C   0  0  0  0  0  1  0  0  0  0  0  0
  191.9030  178.1410  143.7160 O   0  0  0  0  0  0  0  0  0  0  0  0
  183.5960  178.2060  138.2920 C   0  0  0  0  0  2  0  0  0  0  0  0
  183.3930  176.7890  138.0500 N   0  0  0  0  0  2  0  0  0  0  0  0
  183.5240  176.5930  136.6700 N   0  0  0  0  0  2  0  0  0  0  0  0
  184.3430  175.4070  136.4920 C   0  0  0  0  0  2  0  0  0  0  0  0
  183.6850  174.2210  137.1680 C   0  0  2  0  0  3  0  0  0  0  0  0
  182.5130  172.3010  136.7370 N   0  0  0  0  0  2  0  0  0  0  0  0
  183.8290  171.7120  136.9210 C   0  0  0  0  0  2  0  0  0  0  0  0
  184.9370  172.9830  137.5760 S   0  0  0  0  0  0  0  0  0  0  0  0
  182.7180  173.6090  136.2720 N   0  0  0  0  0  2  0  0  0  0  0  0
  1  7  1  0  0  0  0
  3  2  2  0  0  0  0
  3  8  1  0  0  0  0
  4 23  2  0  0  0  0
  5  7  2  0  0  0  0
  6 10  1  0  0  0  0
  8 22  1  0  0  0  0
  9 20  1  0  0  0  0
 10 16  2  0  0  0  0
 10 11  1  0  0  0  0
 11  9  2  0  0  0  0
 13 21  1  0  0  0  0
 14 11  1  0  0  0  0
 15 13  2  0  0  0  0
 15  3  1  0  0  0  0
 16 24  1  0  0  0  0
 18 17  1  6  0  0  0
 18  5  1  0  0  0  0
 19  4  2  0  0  0  0
 20  1  1  0  0  0  0
 21  8  2  0  0  0  0
 21  6  1  0  0  0  0
 22 12  2  0  0  0  0
 22 14  1  0  0  0  0
 23 18  1  0  0  0  0
 24 23  1  0  0  0  0
 24 20  2  0  0  0  0
 25 19  1  0  0  0  0
 26 25  1  0  0  0  0
 26 28  1  0  0  0  0
 28 27  1  0  0  0  0
 29 13  1  0  0  0  0
 30 29  1  0  0  0  0
 31 30  1  0  0  0  0
 32 31  1  0  0  0  0
 33 32  1  6  0  0  0
 33 36  1  0  0  0  0
 34 35  1  0  0  0  0
 35 36  1  0  0  0  0
 37 34  1  0  0  0  0
 37 33  1  0  0  0  0
M  END
>  <MODEL>
7

>  <REMARK>
 VINA RESULT:      -8.4      2.728      3.260
  Name = 
  8 active torsions:
  status: ('A' for Active; 'I' for Inactive)
    1  A    between atoms: C_5  and  C_30
    2  A    between atoms: C_8  and  C_16
    3  A    between atoms: C_8  and  C_29
    4  A    between atoms: N_11  and  C_30
    5  A    between atoms: N_11  and  N_34
    6  A    between atoms: C_16  and  O_33
    7  A    between atoms: C_20  and  C_22
    8  A    between atoms: C_20  and  N_34
                            x       y       z     vdW  Elec       q    Type
                         _______ _______ _______ _____ _____    ______ ____

>  <TORSDO>
F 8

$$$$
=
 OpenBabel10222419563D

 37 41  0  0  1  0  0  0  0  0999 V2000
  187.7910  177.5220  146.2900 C   0  0  0  0  0  2  0  0  0  0  0  0
  179.8950  179.5910  142.3320 O   0  0  0  0  0  0  0  0  0  0  0  0
  180.9290  179.2470  141.7000 C   0  0  0  0  0  0  0  0  0  0  0  0
  189.4340  176.8510  142.2440 C   0  0  0  0  0  0  0  0  0  0  0  0
  190.0930  177.9090  145.5180 C   0  0  0  0  0  3  0  0  0  0  0  0
  184.5600  178.1540  141.2890 S   0  0  0  0  0  0  0  0  0  0  0  0
  189.0740  178.2920  146.2900 C   0  0  0  0  0  3  0  0  0  0  0  0
  182.1620  178.9340  142.2790 C   0  0  0  0  0  0  0  0  0  0  0  0
  185.7100  178.0910  145.1150 C   0  0  0  0  0  3  0  0  0  0  0  0
  185.4150  178.0010  142.7300 C   0  0  0  0  0  0  0  0  0  0  0  0
  184.8760  178.2580  144.0050 C   0  0  0  0  0  0  0  0  0  0  0  0
  181.4820  179.2900  144.4290 O   0  0  0  0  0  0  0  0  0  0  0  0
  182.2070  178.7660  140.0890 C   0  0  0  0  0  0  0  0  0  0  0  0
  183.6050  178.6560  144.2840 N   0  0  0  0  0  2  0  0  0  0  0  0
  180.9480  179.1410  140.3600 N   0  0  0  0  0  0  0  0  0  0  0  0
  186.7440  177.5900  142.6090 C   0  0  0  0  0  3  0  0  0  0  0  0
  191.3480  176.2340  144.2190 C   0  0  0  0  0  1  0  0  0  0  0  0
  189.9600  176.7100  144.6320 C   0  0  2  0  0  3  0  0  0  0  0  0
  189.8520  176.7190  141.0160 C   0  0  0  0  0  3  0  0  0  0  0  0
  187.0410  177.6860  145.0020 C   0  0  0  0  0  0  0  0  0  0  0  0
  182.9460  178.6310  141.2520 C   0  0  0  0  0  0  0  0  0  0  0  0
  182.4290  178.9570  143.6670 C   0  0  0  0  0  0  0  0  0  0  0  0
  189.0080  176.9880  143.4810 C   0  0  0  0  0  0  0  0  0  0  0  0
  187.5860  177.4170  143.7190 C   0  0  0  0  0  0  0  0  0  0  0  0
  190.1000  177.9260  140.1850 C   0  0  0  0  0  2  0  0  0  0  0  0
  189.1350  177.9410  139.0180 C   0  0  0  0  0  2  0  0  0  0  0  0
  189.0440  179.1610  137.1830 C   0  0  0  0  0  1  0  0  0  0  0  0
  188.9610  179.2510  138.5720 O   0  0  0  0  0  0  0  0  0  0  0  0
  182.6910  178.4790  138.7080 C   0  0  0  0  0  2  0  0  0  0  0  0
  182.2570  177.1540  138.3030 N   0  0  0  0  0  2  0  0  0  0  0  0
  183.4160  176.4140  138.0420 N   0  0  0  0  0  2  0  0  0  0  0  0
  183.5500  176.3450  136.5970 C   0  0  0  0  0  2  0  0  0  0  0  0
  184.9810  176.0050  136.2290 C   0  0  2  0  0  3  0  0  0  0  0  0
  187.0660  175.7020  137.1260 N   0  0  0  0  0  2  0  0  0  0  0  0
  186.6760  174.3060  137.0160 C   0  0  0  0  0  2  0  0  0  0  0  0
  185.1510  174.2150  136.0470 S   0  0  0  0  0  0  0  0  0  0  0  0
  185.8830  176.4410  137.2820 N   0  0  0  0  0  2  0  0  0  0  0  0
  3  8  1  0  0  0  0
  3  2  2  0  0  0  0
  4 23  2  0  0  0  0
  5  7  2  0  0  0  0
  6 10  1  0  0  0  0
  7  1  1  0  0  0  0
  8 22  1  0  0  0  0
 10 11  1  0  0  0  0
 11 14  1  0  0  0  0
 11  9  2  0  0  0  0
 13 15  2  0  0  0  0
 13 21  1  0  0  0  0
 15  3  1  0  0  0  0
 16 10  2  0  0  0  0
 16 24  1  0  0  0  0
 18 17  1  6  0  0  0
 18  5  1  0  0  0  0
 19  4  2  0  0  0  0
 20  9  1  0  0  0  0
 20  1  1  0  0  0  0
 21  6  1  0  0  0  0
 21  8  2  0  0  0  0
 22 14  1  0  0  0  0
 22 12  2  0  0  0  0
 23 24  1  0  0  0  0
 23 18  1  0  0  0  0
 24 20  2  0  0  0  0
 25 19  1  0  0  0  0
 26 25  1  0  0  0  0
 27 28  1  0  0  0  0
 28 26  1  0  0  0  0
 29 13  1  0  0  0  0
 30 29  1  0  0  0  0
 31 30  1  0  0  0  0
 32 31  1  0  0  0  0
 33 32  1  1  0  0  0
 33 37  1  0  0  0  0
 34 37  1  0  0  0  0
 35 34  1  0  0  0  0
 36 33  1  0  0  0  0
 36 35  1  0  0  0  0
M  END
>  <MODEL>
8

>  <REMARK>
 VINA RESULT:      -8.1      1.892      2.434
  Name = 
  8 active torsions:
  status: ('A' for Active; 'I' for Inactive)
    1  A    between atoms: C_5  and  C_30
    2  A    between atoms: C_8  and  C_16
    3  A    between atoms: C_8  and  C_29
    4  A    between atoms: N_11  and  C_30
    5  A    between atoms: N_11  and  N_34
    6  A    between atoms: C_16  and  O_33
    7  A    between atoms: C_20  and  C_22
    8  A    between atoms: C_20  and  N_34
                            x       y       z     vdW  Elec       q    Type
                         _______ _______ _______ _____ _____    ______ ____

>  <TORSDO>
F 8

$$$$
=
 OpenBabel10222419563D

 37 41  0  0  1  0  0  0  0  0999 V2000
  192.0470  176.7530  141.9640 C   0  0  0  0  0  2  0  0  0  0  0  0
  185.2270  178.7880  147.5900 O   0  0  0  0  0  0  0  0  0  0  0  0
  185.0970  178.6690  146.3430 C   0  0  0  0  0  0  0  0  0  0  0  0
  189.1450  177.0230  138.6440 C   0  0  0  0  0  0  0  0  0  0  0  0
  192.4650  177.4940  139.6580 C   0  0  0  0  0  3  0  0  0  0  0  0
  186.2500  178.0200  142.7650 S   0  0  0  0  0  0  0  0  0  0  0  0
  192.7300  177.6260  140.9590 C   0  0  0  0  0  3  0  0  0  0  0  0
  186.1290  178.3690  145.4490 C   0  0  0  0  0  0  0  0  0  0  0  0
  190.1360  177.3380  143.3950 C   0  0  0  0  0  3  0  0  0  0  0  0
  187.8890  177.6760  142.6070 C   0  0  0  0  0  0  0  0  0  0  0  0
  188.8000  177.6340  143.6800 C   0  0  0  0  0  0  0  0  0  0  0  0
  187.7590  178.2430  147.0430 O   0  0  0  0  0  0  0  0  0  0  0  0
  184.1990  178.6260  144.4320 C   0  0  0  0  0  0  0  0  0  0  0  0
  188.5170  177.8500  144.9930 N   0  0  0  0  0  2  0  0  0  0  0  0
  183.9120  178.8220  145.7280 N   0  0  0  0  0  0  0  0  0  0  0  0
  188.3350  177.4230  141.3090 C   0  0  0  0  0  3  0  0  0  0  0  0
  191.6780  176.2230  137.7010 C   0  0  0  0  0  1  0  0  0  0  0  0
  191.4700  176.4780  139.1890 C   0  0  2  0  0  3  0  0  0  0  0  0
  188.2370  177.1670  137.7190 C   0  0  0  0  0  3  0  0  0  0  0  0
  190.5910  177.0880  142.0990 C   0  0  0  0  0  0  0  0  0  0  0  0
  185.5430  178.3420  144.2590 C   0  0  0  0  0  0  0  0  0  0  0  0
  187.4760  178.1520  145.8180 C   0  0  0  0  0  0  0  0  0  0  0  0
  190.0580  176.8810  139.5800 C   0  0  0  0  0  0  0  0  0  0  0  0
  189.6740  177.1210  141.0140 C   0  0  0  0  0  0  0  0  0  0  0  0
  187.7720  178.5280  137.3440 C   0  0  0  0  0  2  0  0  0  0  0  0
  186.2860  178.6440  137.6110 C   0  0  0  0  0  2  0  0  0  0  0  0
  184.7000  178.9240  139.1180 C   0  0  0  0  0  1  0  0  0  0  0  0
  186.0560  178.6270  138.9870 O   0  0  0  0  0  0  0  0  0  0  0  0
  183.1660  178.6540  143.3570 C   0  0  0  0  0  2  0  0  0  0  0  0
  181.8490  178.8100  143.9480 N   0  0  0  0  0  2  0  0  0  0  0  0
  181.0960  179.5810  143.0550 N   0  0  0  0  0  2  0  0  0  0  0  0
  181.2550  178.9750  141.7440 C   0  0  0  0  0  2  0  0  0  0  0  0
  180.2780  179.5990  140.7670 C   0  0  2  0  0  3  0  0  0  0  0  0
  179.3950  181.6080  140.1110 N   0  0  0  0  0  2  0  0  0  0  0  0
  180.3910  181.4600  139.0630 C   0  0  0  0  0  2  0  0  0  0  0  0
  181.0690  179.7840  139.1530 S   0  0  0  0  0  0  0  0  0  0  0  0
  179.8820  180.9180  141.2310 N   0  0  0  0  0  2  0  0  0  0  0  0
  1 20  1  0  0  0  0
  3  2  2  0  0  0  0
  4 23  2  0  0  0  0
  5  7  2  0  0  0  0
  6 21  1  0  0  0  0
  7  1  1  0  0  0  0
  8 22  1  0  0  0  0
  8  3  1  0  0  0  0
  9 11  1  0  0  0  0
 10  6  1  0  0  0  0
 10 11  2  0  0  0  0
 11 14  1  0  0  0  0
 13 15  2  0  0  0  0
 14 22  1  0  0  0  0
 15  3  1  0  0  0  0
 16 10  1  0  0  0  0
 18 17  1  6  0  0  0
 18 23  1  0  0  0  0
 18  5  1  0  0  0  0
 19  4  2  0  0  0  0
 20  9  2  0  0  0  0
 21 13  1  0  0  0  0
 21  8  2  0  0  0  0
 22 12  2  0  0  0  0
 23 24  1  0  0  0  0
 24 16  2  0  0  0  0
 24 20  1  0  0  0  0
 25 26  1  0  0  0  0
 25 19  1  0  0  0  0
 26 28  1  0  0  0  0
 28 27  1  0  0  0  0
 29 30  1  0  0  0  0
 29 13  1  0  0  0  0
 31 30  1  0  0  0  0
 32 31  1  0  0  0  0
 33 37  1  0  0  0  0
 33 32  1  1  0  0  0
 34 37  1  0  0  0  0
 35 36  1  0  0  0  0
 35 34  1  0  0  0  0
 36 33  1  0  0  0  0
M  END
>  <MODEL>
9

>  <REMARK>
 VINA RESULT:      -8.0      3.433      6.598
  Name = 
  8 active torsions:
  status: ('A' for Active; 'I' for Inactive)
    1  A    between atoms: C_5  and  C_30
    2  A    between atoms: C_8  and  C_16
    3  A    between atoms: C_8  and  C_29
    4  A    between atoms: N_11  and  C_30
    5  A    between atoms: N_11  and  N_34
    6  A    between atoms: C_16  and  O_33
    7  A    between atoms: C_20  and  C_22
    8  A    between atoms: C_20  and  N_34
                            x       y       z     vdW  Elec       q    Type
                         _______ _______ _______ _____ _____    ______ ____

>  <TORSDO>
F 8

$$$$
