=
 OpenBabel10222418553D

 43 47  0  0  1  0  0  0  0  0999 V2000
  191.5670  175.9620  138.4740 C   0  0  0  0  0  3  0  0  0  0  0  0
  189.3970  175.9610  137.7940 C   0  0  1  0  0  3  0  0  0  0  0  0
  189.5630  177.1330  138.3960 C   0  0  1  0  0  3  0  0  0  0  0  0
  189.3340  177.3200  140.7950 C   0  0  1  0  0  3  0  0  0  0  0  0
  188.3330  177.9220  139.3930 S   0  0  0  0  0  0  0  0  0  0  0  0
  190.9510  177.2620  138.8980 C   0  0  1  0  0  3  0  0  0  0  0  0
  190.6660  175.2560  137.8080 C   0  0  0  0  0  0  0  0  0  0  0  0
  190.8190  177.3770  140.4160 C   0  0  0  0  0  2  0  0  0  0  0  0
  192.2160  173.5290  136.8000 C   0  0  0  0  0  1  0  0  0  0  0  0
  190.9170  173.9440  137.2980 N   0  0  0  0  0  2  0  0  0  0  0  0
  188.1840  175.4180  137.3640 O   0  0  0  0  0  0  0  0  0  0  0  0
  187.0670  176.2020  137.1820 N   0  0  0  0  0  2  0  0  0  0  0  0
  184.2090  174.2020  136.1440 C   0  0  1  0  0  3  0  0  0  0  0  0
  184.8440  176.4030  136.3670 N   0  0  0  0  0  0  0  0  0  0  0  0
  185.8030  173.2840  137.4940 C   0  0  0  0  0  3  0  0  0  0  0  0
  185.6750  174.2090  136.3260 C   0  0  2  0  0  3  0  0  0  0  0  0
  184.6570  172.8080  137.8560 N   0  0  0  0  0  0  0  0  0  0  0  0
  185.8690  175.6570  136.6370 C   0  0  0  0  0  0  0  0  0  0  0  0
  183.6520  173.4120  137.0560 C   0  0  0  0  0  2  0  0  0  0  0  0
  183.7440  175.5960  135.8510 C   0  0  2  0  0  3  0  0  0  0  0  0
  182.4440  175.9690  136.5070 C   0  0  0  0  0  0  0  0  0  0  0  0
  182.4610  176.7850  137.6790 N   0  0  0  0  0  2  0  0  0  0  0  0
  181.3470  175.6100  135.9970 O   0  0  0  0  0  0  0  0  0  0  0  0
  180.7840  178.5230  137.8320 C   0  0  0  0  0  1  0  0  0  0  0  0
  181.2440  177.1820  138.3700 C   0  0  2  0  0  3  0  0  0  0  0  0
  181.5120  177.2870  139.8630 C   0  0  0  0  0  2  0  0  0  0  0  0
  183.0060  177.3670  140.1230 C   0  0  0  0  0  2  0  0  0  0  0  0
  184.3690  179.2000  139.6610 C   0  0  0  0  0  1  0  0  0  0  0  0
  184.0050  178.5520  141.8670 C   0  0  0  0  0  1  0  0  0  0  0  0
  183.3570  178.7020  140.5750 N   0  0  0  0  0  0  0  0  0  0  0  0
  189.0850  178.1270  141.9830 N   0  0  0  0  0  2  0  0  0  0  0  0
  189.5760  177.1680  145.3700 C   0  0  0  0  0  0  0  0  0  0  0  0
  188.5860  177.3650  146.2550 C   0  0  0  0  0  0  0  0  0  0  0  0
  188.5050  177.6030  143.1820 C   0  0  0  0  0  0  0  0  0  0  0  0
  187.2410  177.8890  143.5110 C   0  0  0  0  0  3  0  0  0  0  0  0
  186.5640  177.4280  144.7350 C   0  0  0  0  0  3  0  0  0  0  0  0
  189.3020  176.6370  143.9920 C   0  0  0  0  0  2  0  0  0  0  0  0
  187.1480  177.1940  145.9190 C   0  0  0  0  0  3  0  0  0  0  0  0
  188.9410  177.7300  147.5590 O   0  0  0  0  0  0  0  0  0  0  0  0
  188.0150  178.2740  148.4890 C   0  0  0  0  0  1  0  0  0  0  0  0
  190.8940  177.4220  145.7700 O   0  0  0  0  0  0  0  0  0  0  0  0
  191.7930  176.4030  146.1860 C   0  0  0  0  0  2  0  0  0  0  0  0
  192.1130  176.5740  147.5340 O   0  0  0  0  0  1  0  0  0  0  0  0
  2 11  1  1  0  0  0
  2  7  1  0  0  0  0
  2  3  1  0  0  0  0
  3  6  1  0  0  0  0
  3  5  1  1  0  0  0
  4 31  1  1  0  0  0
  5  4  1  0  0  0  0
  6  1  1  1  0  0  0
  6  8  1  0  0  0  0
  7  1  2  0  0  0  0
  8  4  1  0  0  0  0
  9 10  1  0  0  0  0
 10  7  1  0  0  0  0
 12 11  1  0  0  0  0
 13 16  1  0  0  0  0
 13 19  1  1  0  0  0
 14 18  2  0  0  0  0
 15 17  2  0  0  0  0
 16 18  1  0  0  0  0
 16 15  1  1  0  0  0
 18 12  1  0  0  0  0
 19 17  1  0  0  0  0
 20 13  1  0  0  0  0
 20 14  1  0  0  0  0
 20 21  1  1  0  0  0
 21 22  1  0  0  0  0
 22 25  1  0  0  0  0
 23 21  2  0  0  0  0
 25 24  1  6  0  0  0
 25 26  1  0  0  0  0
 26 27  1  0  0  0  0
 27 30  1  0  0  0  0
 28 30  1  0  0  0  0
 30 29  1  0  0  0  0
 31 34  1  0  0  0  0
 32 41  1  0  0  0  0
 32 33  2  0  0  0  0
 33 39  1  0  0  0  0
 34 35  2  0  0  0  0
 34 37  1  0  0  0  0
 35 36  1  0  0  0  0
 36 38  2  0  0  0  0
 37 32  1  0  0  0  0
 38 33  1  0  0  0  0
 39 40  1  0  0  0  0
 41 42  1  0  0  0  0
 42 43  1  0  0  0  0
M  END
>  <MODEL>
1

>  <REMARK>
 VINA RESULT:      -7.6      0.000      0.000
  Name = 
  13 active torsions:
  status: ('A' for Active; 'I' for Inactive)
    1  A    between atoms: C_2  and  O_18
    2  A    between atoms: O_4  and  C_12
    3  A    between atoms: C_6  and  C_14
    4  A    between atoms: C_6  and  N_25
    5  A    between atoms: C_8  and  O_11
    6  A    between atoms: N_10  and  O_11
    7  A    between atoms: C_13  and  C_41
    8  A    between atoms: C_14  and  C_22
    9  A    between atoms: C_15  and  N_23
   10  A    between atoms: N_17  and  C_22
   11  A    between atoms: O_18  and  C_30
   12  A    between atoms: N_23  and  C_28
   13  A    between atoms: N_26  and  C_38
                            x       y       z     vdW  Elec       q    Type
                         _______ _______ _______ _____ _____    ______ ____

>  <TORSDO>
F 13

$$$$
=
 OpenBabel10222418553D

 43 47  0  0  1  0  0  0  0  0999 V2000
  180.8820  177.3720  138.3430 C   0  0  0  0  0  3  0  0  0  0  0  0
  182.1660  178.2130  140.0220 C   0  0  1  0  0  3  0  0  0  0  0  0
  182.6600  178.7520  138.9140 C   0  0  1  0  0  3  0  0  0  0  0  0
  184.2920  177.5550  137.5910 C   0  0  1  0  0  3  0  0  0  0  0  0
  184.3830  179.0480  138.6360 S   0  0  0  0  0  0  0  0  0  0  0  0
  181.9090  178.2770  137.7290 C   0  0  1  0  0  3  0  0  0  0  0  0
  181.0270  177.3880  139.6590 C   0  0  0  0  0  0  0  0  0  0  0  0
  182.9300  177.5140  136.8860 C   0  0  0  0  0  2  0  0  0  0  0  0
  179.6640  175.3170  140.1650 C   0  0  0  0  0  1  0  0  0  0  0  0
  180.2300  176.5980  140.5450 N   0  0  0  0  0  2  0  0  0  0  0  0
  182.7280  178.2830  141.2980 O   0  0  0  0  0  0  0  0  0  0  0  0
  183.9750  177.7640  141.5670 N   0  0  0  0  0  2  0  0  0  0  0  0
  185.4200  179.2790  144.5430 C   0  0  1  0  0  3  0  0  0  0  0  0
  186.0030  177.8990  142.7970 N   0  0  0  0  0  0  0  0  0  0  0  0
  183.1560  179.0460  144.3760 C   0  0  0  0  0  3  0  0  0  0  0  0
  184.3450  179.3860  143.5350 C   0  0  2  0  0  3  0  0  0  0  0  0
  183.4830  178.8500  145.6110 N   0  0  0  0  0  0  0  0  0  0  0  0
  184.7900  178.3100  142.6000 C   0  0  0  0  0  0  0  0  0  0  0  0
  184.8960  178.9420  145.7170 C   0  0  0  0  0  2  0  0  0  0  0  0
  186.6030  178.5950  143.9290 C   0  0  2  0  0  3  0  0  0  0  0  0
  187.3100  177.6350  144.8440 C   0  0  0  0  0  0  0  0  0  0  0  0
  188.4270  178.0910  145.6080 N   0  0  0  0  0  2  0  0  0  0  0  0
  186.8870  176.4530  144.9770 O   0  0  0  0  0  0  0  0  0  0  0  0
  189.1290  177.8080  147.9070 C   0  0  0  0  0  1  0  0  0  0  0  0
  189.1630  177.2180  146.5110 C   0  0  2  0  0  3  0  0  0  0  0  0
  190.6020  177.0880  146.0380 C   0  0  0  0  0  2  0  0  0  0  0  0
  190.6420  176.8350  144.5420 C   0  0  0  0  0  2  0  0  0  0  0  0
  191.3780  178.9790  144.0020 C   0  0  0  0  0  1  0  0  0  0  0  0
  191.7790  177.2130  142.5400 C   0  0  0  0  0  1  0  0  0  0  0  0
  191.7420  177.5750  143.9460 N   0  0  0  0  0  0  0  0  0  0  0  0
  185.3680  177.5520  136.6100 N   0  0  0  0  0  2  0  0  0  0  0  0
  188.7970  176.6290  136.7750 C   0  0  0  0  0  0  0  0  0  0  0  0
  189.1260  175.4240  137.2670 C   0  0  0  0  0  0  0  0  0  0  0  0
  186.3400  176.5050  136.5100 C   0  0  0  0  0  0  0  0  0  0  0  0
  186.0490  175.2640  136.9140 C   0  0  0  0  0  3  0  0  0  0  0  0
  186.9870  174.1280  136.8850 C   0  0  0  0  0  3  0  0  0  0  0  0
  187.6370  176.8030  135.8370 C   0  0  0  0  0  2  0  0  0  0  0  0
  188.3170  174.1990  137.0290 C   0  0  0  0  0  3  0  0  0  0  0  0
  190.3010  175.3270  138.0220 O   0  0  0  0  0  0  0  0  0  0  0  0
  191.5270  174.8480  137.4870 C   0  0  0  0  0  1  0  0  0  0  0  0
  189.5910  177.7320  137.1150 O   0  0  0  0  0  0  0  0  0  0  0  0
  189.0710  178.9140  137.7080 C   0  0  0  0  0  2  0  0  0  0  0  0
  188.3080  178.5850  138.8300 O   0  0  0  0  0  1  0  0  0  0  0  0
  1  7  2  0  0  0  0
  2 11  1  6  0  0  0
  3  5  1  6  0  0  0
  3  2  1  0  0  0  0
  4 31  1  6  0  0  0
  4  5  1  0  0  0  0
  6  8  1  6  0  0  0
  6  1  1  0  0  0  0
  6  3  1  0  0  0  0
  7  2  1  0  0  0  0
  7 10  1  0  0  0  0
  8  4  1  0  0  0  0
  9 10  1  0  0  0  0
 11 12  1  0  0  0  0
 12 18  1  0  0  0  0
 13 19  1  1  0  0  0
 14 20  1  0  0  0  0
 15 17  2  0  0  0  0
 16 15  1  1  0  0  0
 16 13  1  0  0  0  0
 17 19  1  0  0  0  0
 18 14  2  0  0  0  0
 18 16  1  0  0  0  0
 20 13  1  0  0  0  0
 20 21  1  1  0  0  0
 21 23  2  0  0  0  0
 21 22  1  0  0  0  0
 22 25  1  0  0  0  0
 25 24  1  1  0  0  0
 26 25  1  0  0  0  0
 27 26  1  0  0  0  0
 29 30  1  0  0  0  0
 30 28  1  0  0  0  0
 30 27  1  0  0  0  0
 32 41  1  0  0  0  0
 32 33  2  0  0  0  0
 33 39  1  0  0  0  0
 34 31  1  0  0  0  0
 34 35  2  0  0  0  0
 36 35  1  0  0  0  0
 36 38  2  0  0  0  0
 37 34  1  0  0  0  0
 37 32  1  0  0  0  0
 38 33  1  0  0  0  0
 40 39  1  0  0  0  0
 41 42  1  0  0  0  0
 42 43  1  0  0  0  0
M  END
>  <MODEL>
2

>  <REMARK>
 VINA RESULT:      -7.4      2.658      9.189
  Name = 
  13 active torsions:
  status: ('A' for Active; 'I' for Inactive)
    1  A    between atoms: C_2  and  O_18
    2  A    between atoms: O_4  and  C_12
    3  A    between atoms: C_6  and  C_14
    4  A    between atoms: C_6  and  N_25
    5  A    between atoms: C_8  and  O_11
    6  A    between atoms: N_10  and  O_11
    7  A    between atoms: C_13  and  C_41
    8  A    between atoms: C_14  and  C_22
    9  A    between atoms: C_15  and  N_23
   10  A    between atoms: N_17  and  C_22
   11  A    between atoms: O_18  and  C_30
   12  A    between atoms: N_23  and  C_28
   13  A    between atoms: N_26  and  C_38
                            x       y       z     vdW  Elec       q    Type
                         _______ _______ _______ _____ _____    ______ ____

>  <TORSDO>
F 13

$$$$
=
 OpenBabel10222418553D

 43 47  0  0  1  0  0  0  0  0999 V2000
  189.5200  177.1940  136.8680 C   0  0  0  0  0  3  0  0  0  0  0  0
  190.5110  176.7010  138.8540 C   0  0  1  0  0  3  0  0  0  0  0  0
  191.4950  176.6540  137.9640 C   0  0  1  0  0  3  0  0  0  0  0  0
  191.9000  174.6400  136.6900 C   0  0  1  0  0  3  0  0  0  0  0  0
  192.8260  175.4900  138.0130 S   0  0  0  0  0  0  0  0  0  0  0  0
  190.9780  176.9550  136.6080 C   0  0  1  0  0  3  0  0  0  0  0  0
  189.2910  177.0830  138.1670 C   0  0  0  0  0  0  0  0  0  0  0  0
  191.2250  175.6860  135.7940 C   0  0  0  0  0  2  0  0  0  0  0  0
  186.8860  177.8640  138.0680 C   0  0  0  0  0  1  0  0  0  0  0  0
  187.9910  177.2120  138.7480 N   0  0  0  0  0  2  0  0  0  0  0  0
  190.5850  176.2970  140.1890 O   0  0  0  0  0  0  0  0  0  0  0  0
  189.4800  176.3190  141.0110 N   0  0  0  0  0  2  0  0  0  0  0  0
  190.4030  177.1240  144.4380 C   0  0  1  0  0  3  0  0  0  0  0  0
  188.5970  176.3910  143.2150 N   0  0  0  0  0  0  0  0  0  0  0  0
  191.6180  177.9810  142.7060 C   0  0  0  0  0  3  0  0  0  0  0  0
  190.9170  176.7240  143.1120 C   0  0  2  0  0  3  0  0  0  0  0  0
  191.5640  178.8800  143.6330 N   0  0  0  0  0  0  0  0  0  0  0  0
  189.6180  176.4700  142.4210 C   0  0  0  0  0  0  0  0  0  0  0  0
  190.7670  178.3770  144.6950 C   0  0  0  0  0  2  0  0  0  0  0  0
  189.0050  176.6120  144.5980 C   0  0  2  0  0  3  0  0  0  0  0  0
  188.0700  177.5600  145.2940 C   0  0  0  0  0  0  0  0  0  0  0  0
  186.8440  177.9270  144.6590 N   0  0  0  0  0  2  0  0  0  0  0  0
  188.3400  177.9860  146.4520 O   0  0  0  0  0  0  0  0  0  0  0  0
  185.1600  178.1240  146.3850 C   0  0  0  0  0  1  0  0  0  0  0  0
  185.8940  178.8430  145.2710 C   0  0  2  0  0  3  0  0  0  0  0  0
  184.9010  179.3260  144.2250 C   0  0  0  0  0  2  0  0  0  0  0  0
  185.0830  178.5510  142.9320 C   0  0  0  0  0  2  0  0  0  0  0  0
  183.7740  178.7740  141.0170 C   0  0  0  0  0  1  0  0  0  0  0  0
  182.7970  178.9790  143.1190 C   0  0  0  0  0  1  0  0  0  0  0  0
  183.7860  178.2300  142.3630 N   0  0  0  0  0  0  0  0  0  0  0  0
  192.7920  173.8000  135.9020 N   0  0  0  0  0  2  0  0  0  0  0  0
  196.1420  174.9160  136.3130 C   0  0  0  0  0  0  0  0  0  0  0  0
  196.8670  174.4430  137.3390 C   0  0  0  0  0  0  0  0  0  0  0  0
  194.1290  173.4780  136.3030 C   0  0  0  0  0  0  0  0  0  0  0  0
  194.3530  172.6290  137.3120 C   0  0  0  0  0  3  0  0  0  0  0  0
  195.6840  172.2590  137.8210 C   0  0  0  0  0  3  0  0  0  0  0  0
  195.2600  174.0160  135.4950 C   0  0  0  0  0  2  0  0  0  0  0  0
  196.7720  173.0410  137.8250 C   0  0  0  0  0  3  0  0  0  0  0  0
  197.7650  175.3200  137.9600 O   0  0  0  0  0  0  0  0  0  0  0  0
  198.2000  175.1570  139.3030 C   0  0  0  0  0  1  0  0  0  0  0  0
  196.2570  176.2720  135.9790 O   0  0  0  0  0  0  0  0  0  0  0  0
  195.2320  177.0000  135.3160 C   0  0  0  0  0  2  0  0  0  0  0  0
  195.4930  178.3690  135.4000 O   0  0  0  0  0  1  0  0  0  0  0  0
  1  7  2  0  0  0  0
  2 11  1  6  0  0  0
  3  5  1  6  0  0  0
  3  2  1  0  0  0  0
  4 31  1  6  0  0  0
  4  5  1  0  0  0  0
  6  8  1  6  0  0  0
  6  1  1  0  0  0  0
  6  3  1  0  0  0  0
  7 10  1  0  0  0  0
  7  2  1  0  0  0  0
  8  4  1  0  0  0  0
  9 10  1  0  0  0  0
 11 12  1  0  0  0  0
 12 18  1  0  0  0  0
 13 20  1  0  0  0  0
 13 19  1  6  0  0  0
 14 20  1  0  0  0  0
 15 17  2  0  0  0  0
 16 15  1  6  0  0  0
 16 13  1  0  0  0  0
 17 19  1  0  0  0  0
 18 16  1  0  0  0  0
 18 14  2  0  0  0  0
 20 21  1  6  0  0  0
 21 23  2  0  0  0  0
 22 25  1  0  0  0  0
 22 21  1  0  0  0  0
 25 24  1  1  0  0  0
 26 25  1  0  0  0  0
 27 26  1  0  0  0  0
 28 30  1  0  0  0  0
 30 27  1  0  0  0  0
 30 29  1  0  0  0  0
 31 34  1  0  0  0  0
 32 33  2  0  0  0  0
 33 38  1  0  0  0  0
 33 39  1  0  0  0  0
 34 35  2  0  0  0  0
 35 36  1  0  0  0  0
 36 38  2  0  0  0  0
 37 34  1  0  0  0  0
 37 32  1  0  0  0  0
 39 40  1  0  0  0  0
 41 32  1  0  0  0  0
 42 43  1  0  0  0  0
 42 41  1  0  0  0  0
M  END
>  <MODEL>
3

>  <REMARK>
 VINA RESULT:      -7.1      3.549      8.805
  Name = 
  13 active torsions:
  status: ('A' for Active; 'I' for Inactive)
    1  A    between atoms: C_2  and  O_18
    2  A    between atoms: O_4  and  C_12
    3  A    between atoms: C_6  and  C_14
    4  A    between atoms: C_6  and  N_25
    5  A    between atoms: C_8  and  O_11
    6  A    between atoms: N_10  and  O_11
    7  A    between atoms: C_13  and  C_41
    8  A    between atoms: C_14  and  C_22
    9  A    between atoms: C_15  and  N_23
   10  A    between atoms: N_17  and  C_22
   11  A    between atoms: O_18  and  C_30
   12  A    between atoms: N_23  and  C_28
   13  A    between atoms: N_26  and  C_38
                            x       y       z     vdW  Elec       q    Type
                         _______ _______ _______ _____ _____    ______ ____

>  <TORSDO>
F 13

$$$$
=
 OpenBabel10222418553D

 43 47  0  0  1  0  0  0  0  0999 V2000
  190.2170  176.0000  137.4810 C   0  0  0  0  0  3  0  0  0  0  0  0
  187.9880  176.4380  137.3690 C   0  0  1  0  0  3  0  0  0  0  0  0
  188.5020  177.4630  138.0380 C   0  0  1  0  0  3  0  0  0  0  0  0
  188.8620  177.3120  140.4240 C   0  0  1  0  0  3  0  0  0  0  0  0
  187.6990  178.2690  139.3930 S   0  0  0  0  0  0  0  0  0  0  0  0
  189.9670  177.2980  138.1890 C   0  0  1  0  0  3  0  0  0  0  0  0
  189.0730  175.5520  136.9860 C   0  0  0  0  0  0  0  0  0  0  0  0
  190.2060  177.1970  139.6940 C   0  0  0  0  0  2  0  0  0  0  0  0
  189.9780  173.2840  136.3240 C   0  0  0  0  0  1  0  0  0  0  0  0
  188.9540  174.3110  136.2860 N   0  0  0  0  0  2  0  0  0  0  0  0
  186.6310  176.1600  137.1980 O   0  0  0  0  0  0  0  0  0  0  0  0
  185.7900  177.0410  136.5540 N   0  0  0  0  0  2  0  0  0  0  0  0
  182.4010  175.7270  136.3610 C   0  0  1  0  0  3  0  0  0  0  0  0
  183.6810  177.4560  135.5420 N   0  0  0  0  0  0  0  0  0  0  0  0
  183.7330  175.1710  138.1290 C   0  0  0  0  0  3  0  0  0  0  0  0
  183.8110  175.3930  136.6520 C   0  0  2  0  0  3  0  0  0  0  0  0
  182.5240  175.2930  138.5690 N   0  0  0  0  0  0  0  0  0  0  0  0
  184.4500  176.6770  136.2360 C   0  0  0  0  0  0  0  0  0  0  0  0
  181.6950  175.6900  137.4860 C   0  0  0  0  0  2  0  0  0  0  0  0
  182.3580  176.8630  135.3850 C   0  0  2  0  0  3  0  0  0  0  0  0
  181.2760  177.8710  135.6520 C   0  0  0  0  0  0  0  0  0  0  0  0
  181.6060  179.0910  136.3200 N   0  0  0  0  0  2  0  0  0  0  0  0
  180.0990  177.6680  135.2430 O   0  0  0  0  0  0  0  0  0  0  0  0
  180.4810  181.0360  135.4230 C   0  0  0  0  0  1  0  0  0  0  0  0
  180.6110  180.1110  136.6160 C   0  0  2  0  0  3  0  0  0  0  0  0
  181.0390  180.9030  137.8420 C   0  0  0  0  0  2  0  0  0  0  0  0
  181.3150  179.9640  139.0030 C   0  0  0  0  0  2  0  0  0  0  0  0
  179.9470  180.2340  140.8700 C   0  0  0  0  0  1  0  0  0  0  0  0
  180.2040  178.1270  139.9160 C   0  0  0  0  0  1  0  0  0  0  0  0
  180.0620  179.5380  139.6010 N   0  0  0  0  0  0  0  0  0  0  0  0
  189.0430  177.9550  141.7190 N   0  0  0  0  0  2  0  0  0  0  0  0
  189.1360  177.3820  145.2250 C   0  0  0  0  0  0  0  0  0  0  0  0
  188.0550  177.6790  145.9650 C   0  0  0  0  0  0  0  0  0  0  0  0
  188.3240  177.5700  142.8960 C   0  0  0  0  0  0  0  0  0  0  0  0
  187.0350  177.8950  143.0450 C   0  0  0  0  0  3  0  0  0  0  0  0
  186.2190  177.5760  144.2280 C   0  0  0  0  0  3  0  0  0  0  0  0
  189.0100  176.7000  143.8930 C   0  0  0  0  0  2  0  0  0  0  0  0
  186.6620  177.4750  145.4890 C   0  0  0  0  0  3  0  0  0  0  0  0
  188.2670  178.1870  147.2530 O   0  0  0  0  0  0  0  0  0  0  0  0
  188.1860  177.3860  148.4230 C   0  0  0  0  0  1  0  0  0  0  0  0
  190.4040  177.6760  145.7420 O   0  0  0  0  0  0  0  0  0  0  0  0
  191.4530  176.7210  145.8240 C   0  0  0  0  0  2  0  0  0  0  0  0
  191.9920  176.7180  147.1120 O   0  0  0  0  0  1  0  0  0  0  0  0
  2 11  1  1  0  0  0
  2  3  1  0  0  0  0
  3  6  1  0  0  0  0
  3  5  1  1  0  0  0
  4 31  1  1  0  0  0
  5  4  1  0  0  0  0
  6  1  1  6  0  0  0
  6  8  1  0  0  0  0
  7  2  1  0  0  0  0
  7  1  2  0  0  0  0
  8  4  1  0  0  0  0
 10  9  1  0  0  0  0
 10  7  1  0  0  0  0
 12 11  1  0  0  0  0
 13 16  1  0  0  0  0
 13 19  1  1  0  0  0
 14 18  2  0  0  0  0
 15 17  2  0  0  0  0
 16 15  1  1  0  0  0
 18 12  1  0  0  0  0
 18 16  1  0  0  0  0
 19 17  1  0  0  0  0
 20 14  1  0  0  0  0
 20 21  1  1  0  0  0
 20 13  1  0  0  0  0
 21 22  1  0  0  0  0
 22 25  1  0  0  0  0
 23 21  2  0  0  0  0
 25 24  1  6  0  0  0
 25 26  1  0  0  0  0
 26 27  1  0  0  0  0
 27 30  1  0  0  0  0
 30 29  1  0  0  0  0
 30 28  1  0  0  0  0
 31 34  1  0  0  0  0
 32 41  1  0  0  0  0
 32 33  2  0  0  0  0
 33 39  1  0  0  0  0
 34 35  2  0  0  0  0
 34 37  1  0  0  0  0
 35 36  1  0  0  0  0
 36 38  2  0  0  0  0
 37 32  1  0  0  0  0
 38 33  1  0  0  0  0
 39 40  1  0  0  0  0
 41 42  1  0  0  0  0
 42 43  1  0  0  0  0
M  END
>  <MODEL>
4

>  <REMARK>
 VINA RESULT:      -6.8      1.706      2.203
  Name = 
  13 active torsions:
  status: ('A' for Active; 'I' for Inactive)
    1  A    between atoms: C_2  and  O_18
    2  A    between atoms: O_4  and  C_12
    3  A    between atoms: C_6  and  C_14
    4  A    between atoms: C_6  and  N_25
    5  A    between atoms: C_8  and  O_11
    6  A    between atoms: N_10  and  O_11
    7  A    between atoms: C_13  and  C_41
    8  A    between atoms: C_14  and  C_22
    9  A    between atoms: C_15  and  N_23
   10  A    between atoms: N_17  and  C_22
   11  A    between atoms: O_18  and  C_30
   12  A    between atoms: N_23  and  C_28
   13  A    between atoms: N_26  and  C_38
                            x       y       z     vdW  Elec       q    Type
                         _______ _______ _______ _____ _____    ______ ____

>  <TORSDO>
F 13

$$$$
=
 OpenBabel10222418553D

 43 47  0  0  1  0  0  0  0  0999 V2000
  180.6890  177.5390  138.4110 C   0  0  0  0  0  3  0  0  0  0  0  0
  182.0420  178.2750  140.0840 C   0  0  1  0  0  3  0  0  0  0  0  0
  182.5640  178.7870  138.9760 C   0  0  1  0  0  3  0  0  0  0  0  0
  184.0960  177.4890  137.6300 C   0  0  1  0  0  3  0  0  0  0  0  0
  184.3000  178.9650  138.6850 S   0  0  0  0  0  0  0  0  0  0  0  0
  181.7710  178.3750  137.7940 C   0  0  1  0  0  3  0  0  0  0  0  0
  180.8460  177.5340  139.7260 C   0  0  0  0  0  0  0  0  0  0  0  0
  182.7290  177.5500  136.9370 C   0  0  0  0  0  2  0  0  0  0  0  0
  179.7200  175.3820  140.4370 C   0  0  0  0  0  1  0  0  0  0  0  0
  180.0030  176.7950  140.6130 N   0  0  0  0  0  2  0  0  0  0  0  0
  182.6190  178.2960  141.3560 O   0  0  0  0  0  0  0  0  0  0  0  0
  183.8710  177.7710  141.5890 N   0  0  0  0  0  2  0  0  0  0  0  0
  185.4080  179.2820  144.5220 C   0  0  1  0  0  3  0  0  0  0  0  0
  185.9340  177.8980  142.7600 N   0  0  0  0  0  0  0  0  0  0  0  0
  183.1390  179.0580  144.4200 C   0  0  0  0  0  3  0  0  0  0  0  0
  184.3050  179.3920  143.5450 C   0  0  2  0  0  3  0  0  0  0  0  0
  183.5000  178.8610  145.6460 N   0  0  0  0  0  0  0  0  0  0  0  0
  184.7180  178.3140  142.5980 C   0  0  0  0  0  0  0  0  0  0  0  0
  184.9160  178.9470  145.7110 C   0  0  0  0  0  2  0  0  0  0  0  0
  186.5700  178.5920  143.8740 C   0  0  2  0  0  3  0  0  0  0  0  0
  187.2980  177.6290  144.7690 C   0  0  0  0  0  0  0  0  0  0  0  0
  188.5400  178.0220  145.3560 N   0  0  0  0  0  2  0  0  0  0  0  0
  186.7920  176.5060  145.0440 O   0  0  0  0  0  0  0  0  0  0  0  0
  189.2800  177.7010  147.6370 C   0  0  0  0  0  1  0  0  0  0  0  0
  189.3030  177.1420  146.2280 C   0  0  2  0  0  3  0  0  0  0  0  0
  190.7380  177.0470  145.7320 C   0  0  0  0  0  2  0  0  0  0  0  0
  190.8400  177.5840  144.3160 C   0  0  0  0  0  2  0  0  0  0  0  0
  192.0870  177.0080  142.4340 C   0  0  0  0  0  1  0  0  0  0  0  0
  189.9040  176.2330  142.6590 C   0  0  0  0  0  1  0  0  0  0  0  0
  191.1280  176.4970  143.3960 N   0  0  0  0  0  0  0  0  0  0  0  0
  185.1620  177.4200  136.6390 N   0  0  0  0  0  2  0  0  0  0  0  0
  188.2930  175.7420  136.5050 C   0  0  0  0  0  0  0  0  0  0  0  0
  189.4160  176.4650  136.3770 C   0  0  0  0  0  0  0  0  0  0  0  0
  186.5530  177.4370  136.9770 C   0  0  0  0  0  0  0  0  0  0  0  0
  187.2380  178.5850  136.9890 C   0  0  0  0  0  3  0  0  0  0  0  0
  188.6750  178.7050  137.2900 C   0  0  0  0  0  3  0  0  0  0  0  0
  187.1880  176.1670  137.4310 C   0  0  0  0  0  2  0  0  0  0  0  0
  189.6140  177.7850  137.0320 C   0  0  0  0  0  3  0  0  0  0  0  0
  190.4510  175.9290  135.6000 O   0  0  0  0  0  0  0  0  0  0  0  0
  191.6720  175.4630  136.1570 C   0  0  0  0  0  1  0  0  0  0  0  0
  188.1810  174.5420  135.7910 O   0  0  0  0  0  0  0  0  0  0  0  0
  188.4120  173.2660  136.3700 C   0  0  0  0  0  2  0  0  0  0  0  0
  189.4540  172.6220  135.7000 O   0  0  0  0  0  1  0  0  0  0  0  0
  1  7  2  0  0  0  0
  2 11  1  6  0  0  0
  3  5  1  6  0  0  0
  3  2  1  0  0  0  0
  4 31  1  6  0  0  0
  4  5  1  0  0  0  0
  6  8  1  6  0  0  0
  6  1  1  0  0  0  0
  6  3  1  0  0  0  0
  7  2  1  0  0  0  0
  7 10  1  0  0  0  0
  8  4  1  0  0  0  0
  9 10  1  0  0  0  0
 11 12  1  0  0  0  0
 12 18  1  0  0  0  0
 13 19  1  1  0  0  0
 14 20  1  0  0  0  0
 15 17  2  0  0  0  0
 16 15  1  1  0  0  0
 16 13  1  0  0  0  0
 17 19  1  0  0  0  0
 18 14  2  0  0  0  0
 18 16  1  0  0  0  0
 20 13  1  0  0  0  0
 20 21  1  1  0  0  0
 21 23  2  0  0  0  0
 21 22  1  0  0  0  0
 22 25  1  0  0  0  0
 25 24  1  1  0  0  0
 26 25  1  0  0  0  0
 27 26  1  0  0  0  0
 28 30  1  0  0  0  0
 29 30  1  0  0  0  0
 30 27  1  0  0  0  0
 31 34  1  0  0  0  0
 32 37  1  0  0  0  0
 33 32  2  0  0  0  0
 33 38  1  0  0  0  0
 34 35  2  0  0  0  0
 34 37  1  0  0  0  0
 35 36  1  0  0  0  0
 38 36  2  0  0  0  0
 39 40  1  0  0  0  0
 39 33  1  0  0  0  0
 41 42  1  0  0  0  0
 41 32  1  0  0  0  0
 43 42  1  0  0  0  0
M  END
>  <MODEL>
5

>  <REMARK>
 VINA RESULT:      -6.7      2.781      9.414
  Name = 
  13 active torsions:
  status: ('A' for Active; 'I' for Inactive)
    1  A    between atoms: C_2  and  O_18
    2  A    between atoms: O_4  and  C_12
    3  A    between atoms: C_6  and  C_14
    4  A    between atoms: C_6  and  N_25
    5  A    between atoms: C_8  and  O_11
    6  A    between atoms: N_10  and  O_11
    7  A    between atoms: C_13  and  C_41
    8  A    between atoms: C_14  and  C_22
    9  A    between atoms: C_15  and  N_23
   10  A    between atoms: N_17  and  C_22
   11  A    between atoms: O_18  and  C_30
   12  A    between atoms: N_23  and  C_28
   13  A    between atoms: N_26  and  C_38
                            x       y       z     vdW  Elec       q    Type
                         _______ _______ _______ _____ _____    ______ ____

>  <TORSDO>
F 13

$$$$
=
 OpenBabel10222418553D

 43 47  0  0  1  0  0  0  0  0999 V2000
  179.4620  176.9100  140.6440 C   0  0  0  0  0  3  0  0  0  0  0  0
  181.3140  178.1870  140.9790 C   0  0  1  0  0  3  0  0  0  0  0  0
  181.2710  177.9890  139.6660 C   0  0  1  0  0  3  0  0  0  0  0  0
  182.2150  175.9840  138.6990 C   0  0  1  0  0  3  0  0  0  0  0  0
  182.6990  177.7430  138.6510 S   0  0  0  0  0  0  0  0  0  0  0  0
  180.0990  177.1550  139.3090 C   0  0  1  0  0  3  0  0  0  0  0  0
  180.1550  177.5470  141.5750 C   0  0  0  0  0  0  0  0  0  0  0  0
  180.6840  175.8820  138.7000 C   0  0  0  0  0  2  0  0  0  0  0  0
  179.6440  178.6730  143.7830 C   0  0  0  0  0  1  0  0  0  0  0  0
  179.8370  177.4880  142.9680 N   0  0  0  0  0  2  0  0  0  0  0  0
  182.3650  178.7640  141.6930 O   0  0  0  0  0  0  0  0  0  0  0  0
  183.6380  178.2400  141.6530 N   0  0  0  0  0  2  0  0  0  0  0  0
  185.5850  179.2810  144.5470 C   0  0  1  0  0  3  0  0  0  0  0  0
  185.8500  178.2220  142.5210 N   0  0  0  0  0  0  0  0  0  0  0  0
  183.3250  179.0210  144.7350 C   0  0  0  0  0  3  0  0  0  0  0  0
  184.3510  179.5250  143.7710 C   0  0  2  0  0  3  0  0  0  0  0  0
  183.8610  178.6330  145.8460 N   0  0  0  0  0  0  0  0  0  0  0  0
  184.6220  178.6290  142.6070 C   0  0  0  0  0  0  0  0  0  0  0  0
  185.2720  178.7420  145.7200 C   0  0  0  0  0  2  0  0  0  0  0  0
  186.6400  178.7370  143.6330 C   0  0  2  0  0  3  0  0  0  0  0  0
  187.4920  177.6580  144.2390 C   0  0  0  0  0  0  0  0  0  0  0  0
  188.4060  177.9930  145.2850 N   0  0  0  0  0  2  0  0  0  0  0  0
  187.3610  176.4580  143.8680 O   0  0  0  0  0  0  0  0  0  0  0  0
  188.9930  176.9910  147.4070 C   0  0  0  0  0  1  0  0  0  0  0  0
  189.2650  177.0030  145.9160 C   0  0  2  0  0  3  0  0  0  0  0  0
  190.7230  177.3500  145.6580 C   0  0  0  0  0  2  0  0  0  0  0  0
  191.4330  176.1790  145.0030 C   0  0  0  0  0  2  0  0  0  0  0  0
  191.6630  177.9220  143.4740 C   0  0  0  0  0  1  0  0  0  0  0  0
  190.5460  175.9760  142.8540 C   0  0  0  0  0  1  0  0  0  0  0  0
  191.6860  176.4760  143.6030 N   0  0  0  0  0  0  0  0  0  0  0  0
  182.7680  175.2720  137.5550 N   0  0  0  0  0  2  0  0  0  0  0  0
  185.0110  172.6120  136.8270 C   0  0  0  0  0  0  0  0  0  0  0  0
  186.2040  172.8940  136.2800 C   0  0  0  0  0  0  0  0  0  0  0  0
  184.1270  174.8270  137.4880 C   0  0  0  0  0  0  0  0  0  0  0  0
  185.1040  175.6670  137.1280 C   0  0  0  0  0  3  0  0  0  0  0  0
  186.5240  175.3000  136.9970 C   0  0  0  0  0  3  0  0  0  0  0  0
  184.4430  173.4430  137.9430 C   0  0  0  0  0  2  0  0  0  0  0  0
  186.9990  174.0990  136.6380 C   0  0  0  0  0  3  0  0  0  0  0  0
  186.7210  171.9920  135.3430 O   0  0  0  0  0  0  0  0  0  0  0  0
  187.7520  171.0640  135.6510 C   0  0  0  0  0  1  0  0  0  0  0  0
  184.3130  171.4870  136.3700 O   0  0  0  0  0  0  0  0  0  0  0  0
  183.0790  171.0560  136.9280 C   0  0  0  0  0  2  0  0  0  0  0  0
  182.0170  171.6590  136.2520 O   0  0  0  0  0  1  0  0  0  0  0  0
  1  7  2  0  0  0  0
  2  7  1  0  0  0  0
  2 11  1  1  0  0  0
  3  5  1  1  0  0  0
  3  2  1  0  0  0  0
  4 31  1  6  0  0  0
  4  8  1  0  0  0  0
  5  4  1  0  0  0  0
  6  8  1  1  0  0  0
  6  3  1  0  0  0  0
  6  1  1  0  0  0  0
  7 10  1  0  0  0  0
 10  9  1  0  0  0  0
 12 11  1  0  0  0  0
 12 18  1  0  0  0  0
 13 19  1  1  0  0  0
 14 18  2  0  0  0  0
 14 20  1  0  0  0  0
 15 17  2  0  0  0  0
 16 13  1  0  0  0  0
 16 15  1  1  0  0  0
 18 16  1  0  0  0  0
 19 17  1  0  0  0  0
 20 21  1  1  0  0  0
 20 13  1  0  0  0  0
 21 22  1  0  0  0  0
 22 25  1  0  0  0  0
 23 21  2  0  0  0  0
 25 24  1  1  0  0  0
 26 25  1  0  0  0  0
 27 26  1  0  0  0  0
 28 30  1  0  0  0  0
 29 30  1  0  0  0  0
 30 27  1  0  0  0  0
 32 37  1  0  0  0  0
 33 38  1  0  0  0  0
 33 32  2  0  0  0  0
 34 31  1  0  0  0  0
 34 37  1  0  0  0  0
 35 34  2  0  0  0  0
 36 35  1  0  0  0  0
 38 36  2  0  0  0  0
 39 40  1  0  0  0  0
 39 33  1  0  0  0  0
 41 32  1  0  0  0  0
 41 42  1  0  0  0  0
 43 42  1  0  0  0  0
M  END
>  <MODEL>
6

>  <REMARK>
 VINA RESULT:      -6.7      3.082     10.275
  Name = 
  13 active torsions:
  status: ('A' for Active; 'I' for Inactive)
    1  A    between atoms: C_2  and  O_18
    2  A    between atoms: O_4  and  C_12
    3  A    between atoms: C_6  and  C_14
    4  A    between atoms: C_6  and  N_25
    5  A    between atoms: C_8  and  O_11
    6  A    between atoms: N_10  and  O_11
    7  A    between atoms: C_13  and  C_41
    8  A    between atoms: C_14  and  C_22
    9  A    between atoms: C_15  and  N_23
   10  A    between atoms: N_17  and  C_22
   11  A    between atoms: O_18  and  C_30
   12  A    between atoms: N_23  and  C_28
   13  A    between atoms: N_26  and  C_38
                            x       y       z     vdW  Elec       q    Type
                         _______ _______ _______ _____ _____    ______ ____

>  <TORSDO>
F 13

$$$$
=
 OpenBabel10222418553D

 43 47  0  0  1  0  0  0  0  0999 V2000
  182.5110  178.7580  141.2950 C   0  0  0  0  0  3  0  0  0  0  0  0
  184.6160  178.6520  140.4420 C   0  0  1  0  0  3  0  0  0  0  0  0
  184.7080  178.0930  141.6430 C   0  0  1  0  0  3  0  0  0  0  0  0
  185.0350  179.4610  143.6090 C   0  0  1  0  0  3  0  0  0  0  0  0
  186.1000  178.2750  142.7200 S   0  0  0  0  0  0  0  0  0  0  0  0
  183.3900  178.1020  142.3180 C   0  0  1  0  0  3  0  0  0  0  0  0
  183.2310  179.0230  140.2160 C   0  0  0  0  0  0  0  0  0  0  0  0
  183.5830  178.9680  143.5620 C   0  0  0  0  0  2  0  0  0  0  0  0
  181.4870  180.4780  139.1000 C   0  0  0  0  0  1  0  0  0  0  0  0
  182.7030  179.6870  139.0650 N   0  0  0  0  0  2  0  0  0  0  0  0
  185.6800  178.9820  139.6000 O   0  0  0  0  0  0  0  0  0  0  0  0
  185.8850  178.3270  138.4060 N   0  0  0  0  0  2  0  0  0  0  0  0
  189.4350  178.0110  137.6690 C   0  0  1  0  0  3  0  0  0  0  0  0
  187.3840  177.6920  136.6750 N   0  0  0  0  0  0  0  0  0  0  0  0
  188.7260  178.0290  139.8380 C   0  0  0  0  0  3  0  0  0  0  0  0
  188.4350  178.6830  138.5240 C   0  0  2  0  0  3  0  0  0  0  0  0
  189.7210  177.2070  139.7540 N   0  0  0  0  0  0  0  0  0  0  0  0
  187.1900  178.2160  137.8450 C   0  0  0  0  0  0  0  0  0  0  0  0
  190.1370  177.1500  138.3980 C   0  0  0  0  0  2  0  0  0  0  0  0
  188.8060  177.6720  136.3520 C   0  0  2  0  0  3  0  0  0  0  0  0
  189.2160  176.3390  135.7920 C   0  0  0  0  0  0  0  0  0  0  0  0
  188.8420  175.1450  136.4830 N   0  0  0  0  0  2  0  0  0  0  0  0
  189.8370  176.2710  134.6950 O   0  0  0  0  0  0  0  0  0  0  0  0
  188.0880  172.8510  136.3310 C   0  0  0  0  0  1  0  0  0  0  0  0
  189.2060  173.8210  136.0030 C   0  0  2  0  0  3  0  0  0  0  0  0
  190.4950  173.3700  136.6720 C   0  0  0  0  0  2  0  0  0  0  0  0
  191.6600  173.5010  135.7080 C   0  0  0  0  0  2  0  0  0  0  0  0
  193.8650  174.2530  135.6470 C   0  0  0  0  0  1  0  0  0  0  0  0
  192.6090  174.5060  137.5890 C   0  0  0  0  0  1  0  0  0  0  0  0
  192.5390  174.5760  136.1400 N   0  0  0  0  0  0  0  0  0  0  0  0
  185.4750  179.6050  144.9900 N   0  0  0  0  0  2  0  0  0  0  0  0
  188.5480  177.8260  145.1360 C   0  0  0  0  0  0  0  0  0  0  0  0
  189.0650  177.5100  146.3340 C   0  0  0  0  0  0  0  0  0  0  0  0
  186.2690  178.6260  145.6690 C   0  0  0  0  0  0  0  0  0  0  0  0
  186.2000  178.4940  146.9980 C   0  0  0  0  0  3  0  0  0  0  0  0
  186.9980  177.5440  147.7920 C   0  0  0  0  0  3  0  0  0  0  0  0
  187.0800  177.6800  144.8520 C   0  0  0  0  0  2  0  0  0  0  0  0
  188.2320  177.1130  147.5000 C   0  0  0  0  0  3  0  0  0  0  0  0
  190.4580  177.5440  146.4720 O   0  0  0  0  0  0  0  0  0  0  0  0
  191.2180  176.4250  146.9070 C   0  0  0  0  0  1  0  0  0  0  0  0
  189.4160  178.2530  144.1220 O   0  0  0  0  0  0  0  0  0  0  0  0
  190.0990  177.3600  143.2530 C   0  0  0  0  0  2  0  0  0  0  0  0
  191.3590  177.8720  142.9410 O   0  0  0  0  0  1  0  0  0  0  0  0
  2 11  1  1  0  0  0
  2  3  1  0  0  0  0
  3  6  1  0  0  0  0
  3  5  1  1  0  0  0
  4 31  1  1  0  0  0
  5  4  1  0  0  0  0
  6  1  1  6  0  0  0
  6  8  1  0  0  0  0
  7  2  1  0  0  0  0
  7  1  2  0  0  0  0
  8  4  1  0  0  0  0
 10  9  1  0  0  0  0
 10  7  1  0  0  0  0
 12 11  1  0  0  0  0
 13 19  1  1  0  0  0
 13 16  1  0  0  0  0
 14 18  2  0  0  0  0
 16 15  1  1  0  0  0
 17 15  2  0  0  0  0
 18 12  1  0  0  0  0
 18 16  1  0  0  0  0
 19 17  1  0  0  0  0
 20 21  1  1  0  0  0
 20 14  1  0  0  0  0
 20 13  1  0  0  0  0
 21 22  1  0  0  0  0
 23 21  2  0  0  0  0
 25 24  1  1  0  0  0
 25 22  1  0  0  0  0
 25 26  1  0  0  0  0
 27 30  1  0  0  0  0
 27 26  1  0  0  0  0
 28 30  1  0  0  0  0
 30 29  1  0  0  0  0
 31 34  1  0  0  0  0
 32 33  2  0  0  0  0
 33 39  1  0  0  0  0
 33 38  1  0  0  0  0
 34 35  2  0  0  0  0
 35 36  1  0  0  0  0
 37 32  1  0  0  0  0
 37 34  1  0  0  0  0
 38 36  2  0  0  0  0
 39 40  1  0  0  0  0
 41 32  1  0  0  0  0
 42 41  1  0  0  0  0
 43 42  1  0  0  0  0
M  END
>  <MODEL>
7

>  <REMARK>
 VINA RESULT:      -6.6      2.664      6.889
  Name = 
  13 active torsions:
  status: ('A' for Active; 'I' for Inactive)
    1  A    between atoms: C_2  and  O_18
    2  A    between atoms: O_4  and  C_12
    3  A    between atoms: C_6  and  C_14
    4  A    between atoms: C_6  and  N_25
    5  A    between atoms: C_8  and  O_11
    6  A    between atoms: N_10  and  O_11
    7  A    between atoms: C_13  and  C_41
    8  A    between atoms: C_14  and  C_22
    9  A    between atoms: C_15  and  N_23
   10  A    between atoms: N_17  and  C_22
   11  A    between atoms: O_18  and  C_30
   12  A    between atoms: N_23  and  C_28
   13  A    between atoms: N_26  and  C_38
                            x       y       z     vdW  Elec       q    Type
                         _______ _______ _______ _____ _____    ______ ____

>  <TORSDO>
F 13

$$$$
=
 OpenBabel10222418553D

 43 47  0  0  1  0  0  0  0  0999 V2000
  189.6180  175.5650  136.8260 C   0  0  0  0  0  3  0  0  0  0  0  0
  188.2450  177.3680  136.6340 C   0  0  1  0  0  3  0  0  0  0  0  0
  189.2120  177.7640  137.4520 C   0  0  1  0  0  3  0  0  0  0  0  0
  189.0860  177.2910  139.8190 C   0  0  1  0  0  3  0  0  0  0  0  0
  188.9640  178.8280  138.8430 S   0  0  0  0  0  0  0  0  0  0  0  0
  190.1850  176.6680  137.6700 C   0  0  1  0  0  3  0  0  0  0  0  0
  188.5310  176.0080  136.2130 C   0  0  0  0  0  0  0  0  0  0  0  0
  190.1100  176.3570  139.1630 C   0  0  0  0  0  2  0  0  0  0  0  0
  188.1490  173.8890  134.8840 C   0  0  0  0  0  1  0  0  0  0  0  0
  187.7230  175.1920  135.3610 N   0  0  0  0  0  2  0  0  0  0  0  0
  187.0680  178.0630  136.3480 O   0  0  0  0  0  0  0  0  0  0  0  0
  185.8700  177.4080  136.1660 N   0  0  0  0  0  2  0  0  0  0  0  0
  183.7550  177.6850  139.1140 C   0  0  1  0  0  3  0  0  0  0  0  0
  183.8600  176.5620  137.1090 N   0  0  0  0  0  0  0  0  0  0  0  0
  185.2060  179.3690  138.6000 C   0  0  0  0  0  3  0  0  0  0  0  0
  185.1220  177.8760  138.5870 C   0  0  2  0  0  3  0  0  0  0  0  0
  184.1360  179.9060  139.0880 N   0  0  0  0  0  0  0  0  0  0  0  0
  184.9440  177.2610  137.2380 C   0  0  0  0  0  0  0  0  0  0  0  0
  183.2060  178.8690  139.3640 C   0  0  0  0  0  2  0  0  0  0  0  0
  183.0770  176.5980  138.3380 C   0  0  2  0  0  3  0  0  0  0  0  0
  181.6250  176.8530  138.0490 C   0  0  0  0  0  0  0  0  0  0  0  0
  181.2660  177.6530  136.9200 N   0  0  0  0  0  2  0  0  0  0  0  0
  180.7290  176.3220  138.7620 O   0  0  0  0  0  0  0  0  0  0  0  0
  179.6210  177.5120  135.1520 C   0  0  0  0  0  1  0  0  0  0  0  0
  179.8820  177.9460  136.5810 C   0  0  2  0  0  3  0  0  0  0  0  0
  179.6240  179.4380  136.7240 C   0  0  0  0  0  2  0  0  0  0  0  0
  179.3630  179.7880  138.1780 C   0  0  0  0  0  2  0  0  0  0  0  0
  180.9840  181.3950  137.7090 C   0  0  0  0  0  1  0  0  0  0  0  0
  180.0620  181.2660  139.8430 C   0  0  0  0  0  1  0  0  0  0  0  0
  179.7440  181.1670  138.4290 N   0  0  0  0  0  0  0  0  0  0  0  0
  189.4770  177.5870  141.1910 N   0  0  0  0  0  2  0  0  0  0  0  0
  189.2660  176.9490  144.6810 C   0  0  0  0  0  0  0  0  0  0  0  0
  188.2310  177.4480  145.3760 C   0  0  0  0  0  0  0  0  0  0  0  0
  188.6340  177.3370  142.3210 C   0  0  0  0  0  0  0  0  0  0  0  0
  187.4310  177.9140  142.4160 C   0  0  0  0  0  3  0  0  0  0  0  0
  186.5060  177.7490  143.5500 C   0  0  0  0  0  3  0  0  0  0  0  0
  189.0760  176.3290  143.3260 C   0  0  0  0  0  2  0  0  0  0  0  0
  186.8520  177.5390  144.8270 C   0  0  0  0  0  3  0  0  0  0  0  0
  188.4730  177.8810  146.6850 O   0  0  0  0  0  0  0  0  0  0  0  0
  187.4520  177.9790  147.6670 C   0  0  0  0  0  1  0  0  0  0  0  0
  190.5390  176.9700  145.2660 O   0  0  0  0  0  0  0  0  0  0  0  0
  191.6820  177.5210  144.6260 C   0  0  0  0  0  2  0  0  0  0  0  0
  191.3860  178.7960  144.1420 O   0  0  0  0  0  1  0  0  0  0  0  0
  2 11  1  1  0  0  0
  2  3  1  0  0  0  0
  3  6  1  0  0  0  0
  3  5  1  1  0  0  0
  4 31  1  1  0  0  0
  5  4  1  0  0  0  0
  6  1  1  6  0  0  0
  6  8  1  0  0  0  0
  7  2  1  0  0  0  0
  7  1  2  0  0  0  0
  8  4  1  0  0  0  0
  9 10  1  0  0  0  0
 10  7  1  0  0  0  0
 12 11  1  0  0  0  0
 12 18  1  0  0  0  0
 13 19  1  6  0  0  0
 14 18  2  0  0  0  0
 14 20  1  0  0  0  0
 15 17  2  0  0  0  0
 16 15  1  6  0  0  0
 16 13  1  0  0  0  0
 17 19  1  0  0  0  0
 18 16  1  0  0  0  0
 20 21  1  6  0  0  0
 20 13  1  0  0  0  0
 21 23  2  0  0  0  0
 22 21  1  0  0  0  0
 25 24  1  6  0  0  0
 25 26  1  0  0  0  0
 25 22  1  0  0  0  0
 26 27  1  0  0  0  0
 27 30  1  0  0  0  0
 28 30  1  0  0  0  0
 30 29  1  0  0  0  0
 31 34  1  0  0  0  0
 32 41  1  0  0  0  0
 32 33  2  0  0  0  0
 33 39  1  0  0  0  0
 34 35  2  0  0  0  0
 34 37  1  0  0  0  0
 35 36  1  0  0  0  0
 36 38  2  0  0  0  0
 37 32  1  0  0  0  0
 38 33  1  0  0  0  0
 39 40  1  0  0  0  0
 42 41  1  0  0  0  0
 43 42  1  0  0  0  0
M  END
>  <MODEL>
8

>  <REMARK>
 VINA RESULT:      -6.6      2.051      3.163
  Name = 
  13 active torsions:
  status: ('A' for Active; 'I' for Inactive)
    1  A    between atoms: C_2  and  O_18
    2  A    between atoms: O_4  and  C_12
    3  A    between atoms: C_6  and  C_14
    4  A    between atoms: C_6  and  N_25
    5  A    between atoms: C_8  and  O_11
    6  A    between atoms: N_10  and  O_11
    7  A    between atoms: C_13  and  C_41
    8  A    between atoms: C_14  and  C_22
    9  A    between atoms: C_15  and  N_23
   10  A    between atoms: N_17  and  C_22
   11  A    between atoms: O_18  and  C_30
   12  A    between atoms: N_23  and  C_28
   13  A    between atoms: N_26  and  C_38
                            x       y       z     vdW  Elec       q    Type
                         _______ _______ _______ _____ _____    ______ ____

>  <TORSDO>
F 13

$$$$
=
 OpenBabel10222418553D

 43 47  0  0  1  0  0  0  0  0999 V2000
  189.0430  176.4530  143.8850 C   0  0  0  0  0  3  0  0  0  0  0  0
  187.9950  177.9280  142.5070 C   0  0  1  0  0  3  0  0  0  0  0  0
  188.6480  177.1070  141.6930 C   0  0  1  0  0  3  0  0  0  0  0  0
  190.9750  177.4990  141.1660 C   0  0  1  0  0  3  0  0  0  0  0  0
  189.4350  177.6150  140.1920 S   0  0  0  0  0  0  0  0  0  0  0  0
  189.3880  176.0870  142.4720 C   0  0  1  0  0  3  0  0  0  0  0  0
  188.2120  177.4840  143.8730 C   0  0  0  0  0  0  0  0  0  0  0  0
  190.8610  176.3280  142.1500 C   0  0  0  0  0  2  0  0  0  0  0  0
  187.9300  177.5570  146.3860 C   0  0  0  0  0  1  0  0  0  0  0  0
  187.7190  178.1090  145.0600 N   0  0  0  0  0  2  0  0  0  0  0  0
  187.3460  179.1100  142.1440 O   0  0  0  0  0  0  0  0  0  0  0  0
  186.4220  179.1410  141.1230 N   0  0  0  0  0  2  0  0  0  0  0  0
  183.1040  178.2480  142.3210 C   0  0  1  0  0  3  0  0  0  0  0  0
  184.2370  178.6170  140.3520 N   0  0  0  0  0  0  0  0  0  0  0  0
  184.5670  179.3010  143.7200 C   0  0  0  0  0  3  0  0  0  0  0  0
  184.5440  178.2560  142.6500 C   0  0  2  0  0  3  0  0  0  0  0  0
  183.3820  179.7450  143.9820 N   0  0  0  0  0  0  0  0  0  0  0  0
  185.0870  178.6890  141.3280 C   0  0  0  0  0  0  0  0  0  0  0  0
  182.4690  179.1340  143.0820 C   0  0  0  0  0  2  0  0  0  0  0  0
  182.9400  178.1550  140.8350 C   0  0  2  0  0  3  0  0  0  0  0  0
  181.8240  178.9930  140.2780 C   0  0  0  0  0  0  0  0  0  0  0  0
  182.0630  179.7980  139.1220 N   0  0  0  0  0  2  0  0  0  0  0  0
  180.6730  178.9460  140.7940 O   0  0  0  0  0  0  0  0  0  0  0  0
  180.6290  180.0550  137.1900 C   0  0  0  0  0  1  0  0  0  0  0  0
  181.0320  180.6380  138.5310 C   0  0  2  0  0  3  0  0  0  0  0  0
  181.5660  182.0490  138.3430 C   0  0  0  0  0  2  0  0  0  0  0  0
  180.5290  182.9140  137.6500 C   0  0  0  0  0  2  0  0  0  0  0  0
  180.5780  185.1200  136.8990 C   0  0  0  0  0  1  0  0  0  0  0  0
  180.8120  183.3730  135.3800 C   0  0  0  0  0  1  0  0  0  0  0  0
  181.1820  183.8130  136.7140 N   0  0  0  0  0  0  0  0  0  0  0  0
  192.1210  177.3110  140.2870 N   0  0  0  0  0  2  0  0  0  0  0  0
  193.8320  175.4150  137.8150 C   0  0  0  0  0  0  0  0  0  0  0  0
  193.1750  174.4390  137.1690 C   0  0  0  0  0  0  0  0  0  0  0  0
  192.0480  176.6180  139.0360 C   0  0  0  0  0  0  0  0  0  0  0  0
  190.9380  175.9610  138.6830 C   0  0  0  0  0  3  0  0  0  0  0  0
  190.7750  175.1920  137.4380 C   0  0  0  0  0  3  0  0  0  0  0  0
  193.1910  176.7460  138.0870 C   0  0  0  0  0  2  0  0  0  0  0  0
  191.7440  174.5410  136.7800 C   0  0  0  0  0  3  0  0  0  0  0  0
  193.8900  173.2820  136.8350 O   0  0  0  0  0  0  0  0  0  0  0  0
  193.3290  172.2180  136.0800 C   0  0  0  0  0  1  0  0  0  0  0  0
  195.1620  175.1900  138.1960 O   0  0  0  0  0  0  0  0  0  0  0  0
  195.5310  174.6590  139.4610 C   0  0  0  0  0  2  0  0  0  0  0  0
  196.0190  175.6780  140.2790 O   0  0  0  0  0  1  0  0  0  0  0  0
  2 11  1  1  0  0  0
  2  7  1  0  0  0  0
  3  5  1  1  0  0  0
  3  6  1  0  0  0  0
  3  2  1  0  0  0  0
  4 31  1  6  0  0  0
  4  8  1  0  0  0  0
  5  4  1  0  0  0  0
  6  8  1  1  0  0  0
  6  1  1  0  0  0  0
  7  1  2  0  0  0  0
  7 10  1  0  0  0  0
 10  9  1  0  0  0  0
 12 18  1  0  0  0  0
 12 11  1  0  0  0  0
 13 16  1  0  0  0  0
 13 19  1  6  0  0  0
 14 20  1  0  0  0  0
 14 18  2  0  0  0  0
 15 17  2  0  0  0  0
 16 15  1  1  0  0  0
 18 16  1  0  0  0  0
 19 17  1  0  0  0  0
 20 21  1  6  0  0  0
 20 13  1  0  0  0  0
 21 23  2  0  0  0  0
 22 21  1  0  0  0  0
 25 24  1  6  0  0  0
 25 22  1  0  0  0  0
 26 25  1  0  0  0  0
 27 26  1  0  0  0  0
 29 30  1  0  0  0  0
 30 28  1  0  0  0  0
 30 27  1  0  0  0  0
 32 37  1  0  0  0  0
 32 41  1  0  0  0  0
 33 32  2  0  0  0  0
 34 31  1  0  0  0  0
 35 34  2  0  0  0  0
 36 35  1  0  0  0  0
 37 34  1  0  0  0  0
 38 33  1  0  0  0  0
 38 36  2  0  0  0  0
 39 33  1  0  0  0  0
 40 39  1  0  0  0  0
 41 42  1  0  0  0  0
 42 43  1  0  0  0  0
M  END
>  <MODEL>
9

>  <REMARK>
 VINA RESULT:      -6.4      3.704      7.298
  Name = 
  13 active torsions:
  status: ('A' for Active; 'I' for Inactive)
    1  A    between atoms: C_2  and  O_18
    2  A    between atoms: O_4  and  C_12
    3  A    between atoms: C_6  and  C_14
    4  A    between atoms: C_6  and  N_25
    5  A    between atoms: C_8  and  O_11
    6  A    between atoms: N_10  and  O_11
    7  A    between atoms: C_13  and  C_41
    8  A    between atoms: C_14  and  C_22
    9  A    between atoms: C_15  and  N_23
   10  A    between atoms: N_17  and  C_22
   11  A    between atoms: O_18  and  C_30
   12  A    between atoms: N_23  and  C_28
   13  A    between atoms: N_26  and  C_38
                            x       y       z     vdW  Elec       q    Type
                         _______ _______ _______ _____ _____    ______ ____

>  <TORSDO>
F 13

$$$$
