=
 OpenBabel10222419403D

 36 40  0  0  1  0  0  0  0  0999 V2000
  183.5240  177.8990  137.7700 C   0  0  1  0  0  3  0  0  0  0  0  0
  182.1100  178.8200  143.9580 C   0  0  0  0  0  2  0  0  0  0  0  0
  185.7470  178.5830  140.6950 C   0  0  0  0  0  0  0  0  0  0  0  0
  182.4150  177.5890  136.7690 C   0  0  0  0  0  2  0  0  0  0  0  0
  181.2650  178.5960  136.8810 C   0  0  1  0  0  3  0  0  0  0  0  0
  183.5320  179.3530  139.9100 C   0  0  1  0  0  3  0  0  0  0  0  0
  181.7330  177.6660  141.7640 C   0  0  0  0  0  2  0  0  0  0  0  0
  180.9420  178.2590  140.6020 C   0  0  0  0  0  2  0  0  0  0  0  0
  182.4330  178.8130  142.4750 C   0  0  2  0  0  3  0  0  0  0  0  0
  183.8870  178.7370  142.3380 N   0  0  0  0  0  0  0  0  0  0  0  0
  188.0020  177.4800  143.1430 C   0  0  0  0  0  2  0  0  0  0  0  0
  182.9780  178.1020  139.1980 C   0  0  1  0  0  3  0  0  0  0  0  0
  184.4540  176.8590  137.7670 O   0  0  0  0  0  1  0  0  0  0  0  0
  184.4820  178.9480  141.0200 C   0  0  0  0  0  0  0  0  0  0  0  0
  186.6590  178.1210  143.0750 C   0  0  0  0  0  0  0  0  0  0  0  0
  180.8660  178.8780  138.3380 C   0  0  0  0  0  2  0  0  0  0  0  0
  186.6780  178.0850  141.7060 C   0  0  0  0  0  0  0  0  0  0  0  0
  181.5050  177.9550  139.2790 N   0  0  2  0  0  0  0  0  0  0  0  0
  188.0180  177.4290  141.7230 C   0  0  0  0  0  2  0  0  0  0  0  0
  184.0780  180.3010  139.0360 O   0  0  0  0  0  1  0  0  0  0  0  0
  183.3840  179.2730  144.6370 C   0  0  0  0  0  2  0  0  0  0  0  0
  184.4470  178.9450  143.6530 C   0  0  0  0  0  0  0  0  0  0  0  0
  185.7140  178.6510  144.0340 C   0  0  0  0  0  0  0  0  0  0  0  0
  181.6320  179.8480  136.2410 N   0  0  0  0  0  2  0  0  0  0  0  0
  181.0370  180.9240  137.0150 C   0  0  0  0  0  2  0  0  0  0  0  0
  180.6590  183.2350  136.5850 O   0  0  0  0  0  1  0  0  0  0  0  0
  180.4270  181.9550  136.0790 C   0  0  0  0  0  2  0  0  0  0  0  0
  186.1990  178.7860  145.3490 O   0  0  0  0  0  0  0  0  0  0  0  0
  187.6400  177.8200  147.0000 C   0  0  0  0  0  1  0  0  0  0  0  0
  186.2890  177.7490  146.3190 C   0  0  0  0  0  2  0  0  0  0  0  0
  186.1590  178.6820  139.3550 O   0  0  0  0  0  0  0  0  0  0  0  0
  187.3830  178.1620  138.8530 C   0  0  0  0  0  2  0  0  0  0  0  0
  187.4470  179.5490  136.9210 O   0  0  0  0  0  0  0  0  0  0  0  0
  187.5480  177.2490  136.5080 N   0  0  0  0  0  2  0  0  0  0  0  0
  187.4460  178.3750  137.3820 C   0  0  0  0  0  0  0  0  0  0  0  0
  187.6420  177.4020  135.0650 C   0  0  0  0  0  1  0  0  0  0  0  0
  1 13  1  1  0  0  0
  1 12  1  0  0  0  0
  2 21  1  0  0  0  0
  3 14  2  0  0  0  0
  3 17  1  0  0  0  0
  4  5  1  0  0  0  0
  4  1  1  0  0  0  0
  5 24  1  1  0  0  0
  5 16  1  0  0  0  0
  6 20  1  6  0  0  0
  6 14  1  0  0  0  0
  8  7  1  0  0  0  0
  9  7  1  6  0  0  0
  9  2  1  0  0  0  0
 10  9  1  0  0  0  0
 10 22  1  0  0  0  0
 12 18  1  0  0  0  0
 12  6  1  0  0  0  0
 14 10  1  0  0  0  0
 15 11  1  0  0  0  0
 15 23  1  0  0  0  0
 16 18  1  0  0  0  0
 17 19  1  0  0  0  0
 17 15  2  0  0  0  0
 18  8  1  0  0  0  0
 19 11  1  0  0  0  0
 22 23  2  0  0  0  0
 22 21  1  0  0  0  0
 23 28  1  0  0  0  0
 24 25  1  0  0  0  0
 27 26  1  0  0  0  0
 27 25  1  0  0  0  0
 28 30  1  0  0  0  0
 30 29  1  0  0  0  0
 31  3  1  0  0  0  0
 32 31  1  0  0  0  0
 33 35  2  0  0  0  0
 34 35  1  0  0  0  0
 35 32  1  0  0  0  0
 36 34  1  0  0  0  0
M  END
>  <MODEL>
1

>  <REMARK>
 VINA RESULT:      -6.7      0.000      0.000
  Name = 
  8 active torsions:
  status: ('A' for Active; 'I' for Inactive)
    1  A    between atoms: C_4  and  O_35
    2  A    between atoms: C_6  and  N_29
    3  A    between atoms: C_19  and  C_21
    4  A    between atoms: C_19  and  N_29
    5  A    between atoms: C_24  and  C_28
    6  A    between atoms: C_24  and  O_35
    7  A    between atoms: C_27  and  O_33
    8  A    between atoms: O_33  and  C_34
                            x       y       z     vdW  Elec       q    Type
                         _______ _______ _______ _____ _____    ______ ____

>  <TORSDO>
F 8

$$$$
=
 OpenBabel10222419403D

 36 40  0  0  1  0  0  0  0  0999 V2000
  188.5260  178.3820  140.5220 C   0  0  1  0  0  3  0  0  0  0  0  0
  191.4380  176.7230  145.9920 C   0  0  0  0  0  2  0  0  0  0  0  0
  187.1230  177.7500  143.9280 C   0  0  0  0  0  0  0  0  0  0  0  0
  189.3490  178.6250  139.2610 C   0  0  0  0  0  2  0  0  0  0  0  0
  190.3110  177.4630  138.9890 C   0  0  1  0  0  3  0  0  0  0  0  0
  188.8830  176.7560  142.5040 C   0  0  1  0  0  3  0  0  0  0  0  0
  191.3680  178.0060  143.8380 C   0  0  0  0  0  2  0  0  0  0  0  0
  191.7020  177.4170  142.4710 C   0  0  0  0  0  2  0  0  0  0  0  0
  190.7210  176.9070  144.6660 C   0  0  2  0  0  3  0  0  0  0  0  0
  189.3170  177.1950  144.9570 N   0  0  0  0  0  0  0  0  0  0  0  0
  185.8390  178.9280  146.9700 C   0  0  0  0  0  2  0  0  0  0  0  0
  189.4070  177.9780  141.7210 C   0  0  1  0  0  3  0  0  0  0  0  0
  187.8080  179.5360  140.8360 O   0  0  0  0  0  1  0  0  0  0  0  0
  188.3540  177.1860  143.8580 C   0  0  0  0  0  0  0  0  0  0  0  0
  186.9910  178.1180  146.4890 C   0  0  0  0  0  0  0  0  0  0  0  0
  191.0480  176.9990  140.2540 C   0  0  0  0  0  2  0  0  0  0  0  0
  186.5990  178.2790  145.1860 C   0  0  0  0  0  0  0  0  0  0  0  0
  190.8490  177.9130  141.3820 N   0  0  2  0  0  0  0  0  0  0  0  0
  185.4380  179.1090  145.6190 C   0  0  0  0  0  2  0  0  0  0  0  0
  187.9740  175.9750  141.7800 O   0  0  0  0  0  1  0  0  0  0  0  0
  190.3470  176.3900  146.9860 C   0  0  0  0  0  2  0  0  0  0  0  0
  189.1180  176.9480  146.3660 C   0  0  0  0  0  0  0  0  0  0  0  0
  188.0700  177.3780  147.1090 C   0  0  0  0  0  0  0  0  0  0  0  0
  189.5880  176.3370  138.4230 N   0  0  0  0  0  2  0  0  0  0  0  0
  190.0010  176.2070  137.0360 C   0  0  0  0  0  2  0  0  0  0  0  0
  190.4240  173.9470  137.6550 O   0  0  0  0  0  1  0  0  0  0  0  0
  190.9150  175.0000  136.8830 C   0  0  0  0  0  2  0  0  0  0  0  0
  187.9540  177.1930  148.5000 O   0  0  0  0  0  0  0  0  0  0  0  0
  189.6810  178.6880  149.2210 C   0  0  0  0  0  1  0  0  0  0  0  0
  188.2960  178.1430  149.5020 C   0  0  0  0  0  2  0  0  0  0  0  0
  186.3450  177.8300  142.7600 O   0  0  0  0  0  0  0  0  0  0  0  0
  185.1570  178.6010  142.6400 C   0  0  0  0  0  2  0  0  0  0  0  0
  183.8260  177.4440  141.0430 O   0  0  0  0  0  0  0  0  0  0  0  0
  184.8690  179.3850  140.2610 N   0  0  0  0  0  2  0  0  0  0  0  0
  184.5850  178.4220  141.2780 C   0  0  0  0  0  0  0  0  0  0  0  0
  184.3130  179.2740  138.9210 C   0  0  0  0  0  1  0  0  0  0  0  0
  1 13  1  1  0  0  0
  1 12  1  0  0  0  0
  2 21  1  0  0  0  0
  3 17  1  0  0  0  0
  4  1  1  0  0  0  0
  5 24  1  1  0  0  0
  5  4  1  0  0  0  0
  5 16  1  0  0  0  0
  6 20  1  6  0  0  0
  6 14  1  0  0  0  0
  8  7  1  0  0  0  0
  9  7  1  1  0  0  0
  9 10  1  0  0  0  0
  9  2  1  0  0  0  0
 10 22  1  0  0  0  0
 12  6  1  0  0  0  0
 14  3  2  0  0  0  0
 14 10  1  0  0  0  0
 15 11  1  0  0  0  0
 15 23  1  0  0  0  0
 16 18  1  0  0  0  0
 17 19  1  0  0  0  0
 17 15  2  0  0  0  0
 18 12  1  0  0  0  0
 18  8  1  0  0  0  0
 19 11  1  0  0  0  0
 22 21  1  0  0  0  0
 22 23  2  0  0  0  0
 23 28  1  0  0  0  0
 25 24  1  0  0  0  0
 27 25  1  0  0  0  0
 27 26  1  0  0  0  0
 28 30  1  0  0  0  0
 29 30  1  0  0  0  0
 31  3  1  0  0  0  0
 32 31  1  0  0  0  0
 33 35  2  0  0  0  0
 34 35  1  0  0  0  0
 35 32  1  0  0  0  0
 36 34  1  0  0  0  0
M  END
>  <MODEL>
2

>  <REMARK>
 VINA RESULT:      -6.6      3.102      7.259
  Name = 
  8 active torsions:
  status: ('A' for Active; 'I' for Inactive)
    1  A    between atoms: C_4  and  O_35
    2  A    between atoms: C_6  and  N_29
    3  A    between atoms: C_19  and  C_21
    4  A    between atoms: C_19  and  N_29
    5  A    between atoms: C_24  and  C_28
    6  A    between atoms: C_24  and  O_35
    7  A    between atoms: C_27  and  O_33
    8  A    between atoms: O_33  and  C_34
                            x       y       z     vdW  Elec       q    Type
                         _______ _______ _______ _____ _____    ______ ____

>  <TORSDO>
F 8

$$$$
=
 OpenBabel10222419403D

 36 40  0  0  1  0  0  0  0  0999 V2000
  189.6180  178.0530  144.1870 C   0  0  1  0  0  3  0  0  0  0  0  0
  183.3670  178.8100  145.4120 C   0  0  0  0  0  2  0  0  0  0  0  0
  186.6600  177.9050  141.9090 C   0  0  0  0  0  0  0  0  0  0  0  0
  190.6420  178.2100  145.3070 C   0  0  0  0  0  2  0  0  0  0  0  0
  190.2620  177.3710  146.5320 C   0  0  1  0  0  3  0  0  0  0  0  0
  187.1850  177.1730  144.2110 C   0  0  1  0  0  3  0  0  0  0  0  0
  185.7710  179.4200  145.7820 C   0  0  0  0  0  2  0  0  0  0  0  0
  186.7340  178.6370  146.6690 C   0  0  0  0  0  2  0  0  0  0  0  0
  184.8120  178.4240  145.1520 C   0  0  2  0  0  3  0  0  0  0  0  0
  184.9930  178.3300  143.7040 N   0  0  0  0  0  0  0  0  0  0  0  0
  184.6070  179.3620  139.4680 C   0  0  0  0  0  2  0  0  0  0  0  0
  188.1740  178.2570  144.6870 C   0  0  1  0  0  3  0  0  0  0  0  0
  189.8970  178.9710  143.1740 O   0  0  0  0  0  1  0  0  0  0  0  0
  186.2290  177.7480  143.1850 C   0  0  0  0  0  0  0  0  0  0  0  0
  184.4870  178.8500  140.8610 C   0  0  0  0  0  0  0  0  0  0  0  0
  188.7730  177.4910  146.8910 C   0  0  0  0  0  2  0  0  0  0  0  0
  185.8220  178.5480  140.8970 C   0  0  0  0  0  0  0  0  0  0  0  0
  188.1020  178.5540  146.1380 N   0  0  2  0  0  0  0  0  0  0  0  0
  185.9950  179.0620  139.5070 C   0  0  0  0  0  2  0  0  0  0  0  0
  187.8080  175.9940  143.7840 O   0  0  0  0  0  1  0  0  0  0  0  0
  182.6230  178.4220  144.1530 C   0  0  0  0  0  2  0  0  0  0  0  0
  183.6780  178.3990  143.1090 C   0  0  0  0  0  0  0  0  0  0  0  0
  183.4070  178.6600  141.8070 C   0  0  0  0  0  0  0  0  0  0  0  0
  190.5790  175.9720  146.2990 N   0  0  0  0  0  2  0  0  0  0  0  0
  192.0210  175.8290  146.4110 C   0  0  0  0  0  2  0  0  0  0  0  0
  192.9520  176.4170  148.5220 O   0  0  0  0  0  1  0  0  0  0  0  0
  192.3840  175.3590  147.8110 C   0  0  0  0  0  2  0  0  0  0  0  0
  182.1100  178.8070  141.2800 O   0  0  0  0  0  0  0  0  0  0  0  0
  180.0220  177.6390  141.1630 C   0  0  0  0  0  1  0  0  0  0  0  0
  181.3900  177.8270  140.5410 C   0  0  0  0  0  2  0  0  0  0  0  0
  187.9410  177.4440  141.5630 O   0  0  0  0  0  0  0  0  0  0  0  0
  188.7090  177.9490  140.4780 C   0  0  0  0  0  2  0  0  0  0  0  0
  190.3070  176.3080  141.1200 O   0  0  0  0  0  0  0  0  0  0  0  0
  190.3410  176.9110  138.8600 N   0  0  0  0  0  2  0  0  0  0  0  0
  189.8350  177.0190  140.1930 C   0  0  0  0  0  0  0  0  0  0  0  0
  191.4210  175.9970  138.5210 C   0  0  0  0  0  1  0  0  0  0  0  0
  1 13  1  6  0  0  0
  1 12  1  0  0  0  0
  1  4  1  0  0  0  0
  3 14  2  0  0  0  0
  4  5  1  0  0  0  0
  5 24  1  6  0  0  0
  5 16  1  0  0  0  0
  6 20  1  6  0  0  0
  6 12  1  0  0  0  0
  7  8  1  0  0  0  0
  9  2  1  6  0  0  0
  9  7  1  0  0  0  0
 10  9  1  0  0  0  0
 11 19  1  0  0  0  0
 11 15  1  0  0  0  0
 12 18  1  0  0  0  0
 14 10  1  0  0  0  0
 14  6  1  0  0  0  0
 15 17  2  0  0  0  0
 15 23  1  0  0  0  0
 17  3  1  0  0  0  0
 18  8  1  0  0  0  0
 18 16  1  0  0  0  0
 19 17  1  0  0  0  0
 21  2  1  0  0  0  0
 22 10  1  0  0  0  0
 22 21  1  0  0  0  0
 23 22  2  0  0  0  0
 24 25  1  0  0  0  0
 25 27  1  0  0  0  0
 27 26  1  0  0  0  0
 28 23  1  0  0  0  0
 30 29  1  0  0  0  0
 30 28  1  0  0  0  0
 31  3  1  0  0  0  0
 32 31  1  0  0  0  0
 34 35  1  0  0  0  0
 35 32  1  0  0  0  0
 35 33  2  0  0  0  0
 36 34  1  0  0  0  0
M  END
>  <MODEL>
3

>  <REMARK>
 VINA RESULT:      -6.5      3.323      8.206
  Name = 
  8 active torsions:
  status: ('A' for Active; 'I' for Inactive)
    1  A    between atoms: C_4  and  O_35
    2  A    between atoms: C_6  and  N_29
    3  A    between atoms: C_19  and  C_21
    4  A    between atoms: C_19  and  N_29
    5  A    between atoms: C_24  and  C_28
    6  A    between atoms: C_24  and  O_35
    7  A    between atoms: C_27  and  O_33
    8  A    between atoms: O_33  and  C_34
                            x       y       z     vdW  Elec       q    Type
                         _______ _______ _______ _____ _____    ______ ____

>  <TORSDO>
F 8

$$$$
=
 OpenBabel10222419403D

 36 40  0  0  1  0  0  0  0  0999 V2000
  191.9600  175.7230  136.0000 C   0  0  1  0  0  3  0  0  0  0  0  0
  191.3590  177.8400  142.0250 C   0  0  0  0  0  2  0  0  0  0  0  0
  188.9080  176.5500  137.9920 C   0  0  0  0  0  0  0  0  0  0  0  0
  193.3460  175.5030  135.4010 C   0  0  0  0  0  2  0  0  0  0  0  0
  194.2250  174.6530  136.3250 C   0  0  1  0  0  3  0  0  0  0  0  0
  191.0890  175.4650  138.4220 C   0  0  1  0  0  3  0  0  0  0  0  0
  192.5420  177.8030  139.8140 C   0  0  0  0  0  2  0  0  0  0  0  0
  193.5190  176.7160  139.3770 C   0  0  0  0  0  2  0  0  0  0  0  0
  191.4810  177.1440  140.6810 C   0  0  2  0  0  3  0  0  0  0  0  0
  190.1630  177.1690  140.0470 N   0  0  0  0  0  0  0  0  0  0  0  0
  186.2710  178.7200  138.7830 C   0  0  0  0  0  2  0  0  0  0  0  0
  192.0300  176.2170  137.4590 C   0  0  1  0  0  3  0  0  0  0  0  0
  191.2640  176.6510  135.2240 O   0  0  0  0  0  1  0  0  0  0  0  0
  189.9440  176.3640  138.8470 C   0  0  0  0  0  0  0  0  0  0  0  0
  187.4450  178.1040  139.4600 C   0  0  0  0  0  0  0  0  0  0  0  0
  194.1340  175.0920  137.7950 C   0  0  0  0  0  2  0  0  0  0  0  0
  187.8270  177.4840  138.3000 C   0  0  0  0  0  0  0  0  0  0  0  0
  193.4210  176.3620  137.9530 N   0  0  2  0  0  0  0  0  0  0  0  0
  186.6720  178.0900  137.5750 C   0  0  0  0  0  2  0  0  0  0  0  0
  190.6620  174.2240  137.9340 O   0  0  0  0  0  1  0  0  0  0  0  0
  189.8850  177.7850  142.3640 C   0  0  0  0  0  2  0  0  0  0  0  0
  189.2220  177.6200  141.0460 C   0  0  0  0  0  0  0  0  0  0  0  0
  187.9700  178.0800  140.8090 C   0  0  0  0  0  0  0  0  0  0  0  0
  193.8470  173.2530  136.2270 N   0  0  0  0  0  2  0  0  0  0  0  0
  195.0730  172.4720  136.2030 C   0  0  0  0  0  2  0  0  0  0  0  0
  195.3520  171.8920  138.4960 O   0  0  0  0  0  1  0  0  0  0  0  0
  195.0010  171.3710  137.2490 C   0  0  0  0  0  2  0  0  0  0  0  0
  187.1120  178.5950  141.7990 O   0  0  0  0  0  0  0  0  0  0  0  0
  186.4880  177.8200  143.9780 C   0  0  0  0  0  1  0  0  0  0  0  0
  186.1200  177.8640  142.5100 C   0  0  0  0  0  2  0  0  0  0  0  0
  188.8880  175.8310  136.7840 O   0  0  0  0  0  0  0  0  0  0  0  0
  187.7040  175.4950  136.0730 C   0  0  0  0  0  2  0  0  0  0  0  0
  187.8450  173.1580  136.4930 O   0  0  0  0  0  0  0  0  0  0  0  0
  185.8860  174.1940  137.2400 N   0  0  0  0  0  2  0  0  0  0  0  0
  187.1610  174.2120  136.5930 C   0  0  0  0  0  0  0  0  0  0  0  0
  185.3220  172.9730  137.7920 C   0  0  0  0  0  1  0  0  0  0  0  0
  1 13  1  6  0  0  0
  1 12  1  0  0  0  0
  2 21  1  0  0  0  0
  3 17  1  0  0  0  0
  3 14  2  0  0  0  0
  4  1  1  0  0  0  0
  4  5  1  0  0  0  0
  5 24  1  1  0  0  0
  5 16  1  0  0  0  0
  6 20  1  6  0  0  0
  6 14  1  0  0  0  0
  8  7  1  0  0  0  0
  9  7  1  6  0  0  0
  9  2  1  0  0  0  0
 10  9  1  0  0  0  0
 10 22  1  0  0  0  0
 11 15  1  0  0  0  0
 12 18  1  0  0  0  0
 12  6  1  0  0  0  0
 14 10  1  0  0  0  0
 15 23  1  0  0  0  0
 16 18  1  0  0  0  0
 17 15  2  0  0  0  0
 18  8  1  0  0  0  0
 19 17  1  0  0  0  0
 19 11  1  0  0  0  0
 22 21  1  0  0  0  0
 23 22  2  0  0  0  0
 23 28  1  0  0  0  0
 25 24  1  0  0  0  0
 25 27  1  0  0  0  0
 27 26  1  0  0  0  0
 28 30  1  0  0  0  0
 30 29  1  0  0  0  0
 31  3  1  0  0  0  0
 32 35  1  0  0  0  0
 32 31  1  0  0  0  0
 33 35  2  0  0  0  0
 34 36  1  0  0  0  0
 35 34  1  0  0  0  0
M  END
>  <MODEL>
4

>  <REMARK>
 VINA RESULT:      -6.1      5.030      9.243
  Name = 
  8 active torsions:
  status: ('A' for Active; 'I' for Inactive)
    1  A    between atoms: C_4  and  O_35
    2  A    between atoms: C_6  and  N_29
    3  A    between atoms: C_19  and  C_21
    4  A    between atoms: C_19  and  N_29
    5  A    between atoms: C_24  and  C_28
    6  A    between atoms: C_24  and  O_35
    7  A    between atoms: C_27  and  O_33
    8  A    between atoms: O_33  and  C_34
                            x       y       z     vdW  Elec       q    Type
                         _______ _______ _______ _____ _____    ______ ____

>  <TORSDO>
F 8

$$$$
=
 OpenBabel10222419403D

 36 40  0  0  1  0  0  0  0  0999 V2000
  181.9840  177.2700  136.8780 C   0  0  1  0  0  3  0  0  0  0  0  0
  186.3480  178.8530  141.3050 C   0  0  0  0  0  2  0  0  0  0  0  0
  181.6330  177.7760  140.5640 C   0  0  0  0  0  0  0  0  0  0  0  0
  182.3850  177.1700  135.4090 C   0  0  0  0  0  2  0  0  0  0  0  0
  183.6290  176.2910  135.2300 C   0  0  1  0  0  3  0  0  0  0  0  0
  183.3060  176.7710  139.0450 C   0  0  1  0  0  3  0  0  0  0  0  0
  185.3770  179.0570  139.0020 C   0  0  0  0  0  2  0  0  0  0  0  0
  185.6180  178.0600  137.8720 C   0  0  0  0  0  2  0  0  0  0  0  0
  185.3600  178.2770  140.3060 C   0  0  2  0  0  3  0  0  0  0  0  0
  184.0390  178.2870  140.9330 N   0  0  0  0  0  0  0  0  0  0  0  0
  180.6550  179.7390  143.2990 C   0  0  0  0  0  2  0  0  0  0  0  0
  183.1760  177.6450  137.7810 C   0  0  1  0  0  3  0  0  0  0  0  0
  180.9740  178.2220  137.0160 O   0  0  0  0  0  1  0  0  0  0  0  0
  182.9440  177.5730  140.2800 C   0  0  0  0  0  0  0  0  0  0  0  0
  181.9000  179.1290  142.7570 C   0  0  0  0  0  0  0  0  0  0  0  0
  184.7260  176.6040  136.2590 C   0  0  0  0  0  2  0  0  0  0  0  0
  181.2210  178.6260  141.6800 C   0  0  0  0  0  0  0  0  0  0  0  0
  184.4400  177.8190  137.0260 N   0  0  2  0  0  0  0  0  0  0  0  0
  179.9500  179.2310  142.1760 C   0  0  0  0  0  2  0  0  0  0  0  0
  182.6180  175.5540  138.9580 O   0  0  0  0  0  1  0  0  0  0  0  0
  185.6810  178.6960  142.6540 C   0  0  0  0  0  2  0  0  0  0  0  0
  184.2350  178.6070  142.3280 C   0  0  0  0  0  0  0  0  0  0  0  0
  183.2770  179.0210  143.1920 C   0  0  0  0  0  0  0  0  0  0  0  0
  183.2700  174.8870  135.3340 N   0  0  0  0  0  2  0  0  0  0  0  0
  184.4690  174.1580  135.7110 C   0  0  0  0  0  2  0  0  0  0  0  0
  184.7480  173.1900  137.8690 O   0  0  0  0  0  1  0  0  0  0  0  0
  184.1020  173.0140  136.6440 C   0  0  0  0  0  2  0  0  0  0  0  0
  183.5220  179.4090  144.5230 O   0  0  0  0  0  0  0  0  0  0  0  0
  185.3640  178.9360  145.9790 C   0  0  0  0  0  1  0  0  0  0  0  0
  183.9530  178.5580  145.5780 C   0  0  0  0  0  2  0  0  0  0  0  0
  180.6610  177.1590  139.7600 O   0  0  0  0  0  0  0  0  0  0  0  0
  179.3650  176.7880  140.2120 C   0  0  0  0  0  2  0  0  0  0  0  0
  179.5980  174.5430  139.4610 O   0  0  0  0  0  0  0  0  0  0  0  0
  178.9840  174.7910  141.7040 N   0  0  0  0  0  2  0  0  0  0  0  0
  179.3140  175.3150  140.4150 C   0  0  0  0  0  0  0  0  0  0  0  0
  178.9490  173.3600  141.9650 C   0  0  0  0  0  1  0  0  0  0  0  0
  1 13  1  6  0  0  0
  1 12  1  0  0  0  0
  2 21  1  0  0  0  0
  3 17  1  0  0  0  0
  4  1  1  0  0  0  0
  5 24  1  1  0  0  0
  5  4  1  0  0  0  0
  5 16  1  0  0  0  0
  6 20  1  6  0  0  0
  6 14  1  0  0  0  0
  8  7  1  0  0  0  0
  9  7  1  6  0  0  0
  9 10  1  0  0  0  0
  9  2  1  0  0  0  0
 10 22  1  0  0  0  0
 12  6  1  0  0  0  0
 14  3  2  0  0  0  0
 14 10  1  0  0  0  0
 15 23  1  0  0  0  0
 15 11  1  0  0  0  0
 16 18  1  0  0  0  0
 17 19  1  0  0  0  0
 17 15  2  0  0  0  0
 18 12  1  0  0  0  0
 18  8  1  0  0  0  0
 19 11  1  0  0  0  0
 22 21  1  0  0  0  0
 22 23  2  0  0  0  0
 23 28  1  0  0  0  0
 24 25  1  0  0  0  0
 25 27  1  0  0  0  0
 27 26  1  0  0  0  0
 28 30  1  0  0  0  0
 30 29  1  0  0  0  0
 31 32  1  0  0  0  0
 31  3  1  0  0  0  0
 32 35  1  0  0  0  0
 33 35  2  0  0  0  0
 34 36  1  0  0  0  0
 35 34  1  0  0  0  0
M  END
>  <MODEL>
5

>  <REMARK>
 VINA RESULT:      -5.8      2.790      5.936
  Name = 
  8 active torsions:
  status: ('A' for Active; 'I' for Inactive)
    1  A    between atoms: C_4  and  O_35
    2  A    between atoms: C_6  and  N_29
    3  A    between atoms: C_19  and  C_21
    4  A    between atoms: C_19  and  N_29
    5  A    between atoms: C_24  and  C_28
    6  A    between atoms: C_24  and  O_35
    7  A    between atoms: C_27  and  O_33
    8  A    between atoms: O_33  and  C_34
                            x       y       z     vdW  Elec       q    Type
                         _______ _______ _______ _____ _____    ______ ____

>  <TORSDO>
F 8

$$$$
=
 OpenBabel10222419403D

 36 40  0  0  1  0  0  0  0  0999 V2000
  190.3520  175.4870  137.3580 C   0  0  1  0  0  3  0  0  0  0  0  0
  184.8310  178.6280  138.2540 C   0  0  0  0  0  2  0  0  0  0  0  0
  189.0060  177.2220  140.3820 C   0  0  0  0  0  0  0  0  0  0  0  0
  190.6440  174.8200  136.0170 C   0  0  0  0  0  2  0  0  0  0  0  0
  190.4180  175.7890  134.8510 C   0  0  1  0  0  3  0  0  0  0  0  0
  189.0270  177.6310  137.9430 C   0  0  1  0  0  3  0  0  0  0  0  0
  186.1520  176.7400  137.2650 C   0  0  0  0  0  2  0  0  0  0  0  0
  187.0150  176.8540  136.0110 C   0  0  0  0  0  2  0  0  0  0  0  0
  186.2200  178.0730  137.9920 C   0  0  2  0  0  3  0  0  0  0  0  0
  186.9040  177.9620  139.2790 N   0  0  0  0  0  0  0  0  0  0  0  0
  187.4780  177.1210  143.5360 C   0  0  0  0  0  2  0  0  0  0  0  0
  188.9850  176.2010  137.3660 C   0  0  1  0  0  3  0  0  0  0  0  0
  190.3840  174.5260  138.3690 O   0  0  0  0  0  1  0  0  0  0  0  0
  188.3360  177.6740  139.2920 C   0  0  0  0  0  0  0  0  0  0  0  0
  187.2030  177.6820  142.1840 C   0  0  0  0  0  0  0  0  0  0  0  0
  189.1140  176.5890  134.9920 C   0  0  0  0  0  2  0  0  0  0  0  0
  188.3610  177.1410  141.6910 C   0  0  0  0  0  0  0  0  0  0  0  0
  188.2660  176.0850  136.0750 N   0  0  2  0  0  0  0  0  0  0  0  0
  188.6720  176.5470  143.0240 C   0  0  0  0  0  2  0  0  0  0  0  0
  190.3100  178.1900  137.9640 O   0  0  0  0  0  1  0  0  0  0  0  0
  184.9280  179.3090  139.6020 C   0  0  0  0  0  2  0  0  0  0  0  0
  186.0870  178.6480  140.2530 C   0  0  0  0  0  0  0  0  0  0  0  0
  186.1810  178.5240  141.5990 C   0  0  0  0  0  0  0  0  0  0  0  0
  191.5320  176.7160  134.7480 N   0  0  0  0  0  2  0  0  0  0  0  0
  192.7430  175.9270  134.5940 C   0  0  0  0  0  2  0  0  0  0  0  0
  193.9070  176.7020  136.5200 O   0  0  0  0  0  1  0  0  0  0  0  0
  193.9360  176.7060  135.1250 C   0  0  0  0  0  2  0  0  0  0  0  0
  185.3090  179.1410  142.5160 O   0  0  0  0  0  0  0  0  0  0  0  0
  183.8840  179.3360  144.4320 C   0  0  0  0  0  1  0  0  0  0  0  0
  184.2460  178.5060  143.2180 C   0  0  0  0  0  2  0  0  0  0  0  0
  190.3450  176.8190  140.2380 O   0  0  0  0  0  0  0  0  0  0  0  0
  191.4640  177.6020  140.6330 C   0  0  0  0  0  2  0  0  0  0  0  0
  192.0460  176.4010  142.6020 O   0  0  0  0  0  0  0  0  0  0  0  0
  191.4250  178.6310  142.9350 N   0  0  0  0  0  2  0  0  0  0  0  0
  191.6520  177.4900  142.1040 C   0  0  0  0  0  0  0  0  0  0  0  0
  191.6220  178.5840  144.3750 C   0  0  0  0  0  1  0  0  0  0  0  0
  1 12  1  0  0  0  0
  1 13  1  1  0  0  0
  2 21  1  0  0  0  0
  3 17  1  0  0  0  0
  4  1  1  0  0  0  0
  5 24  1  1  0  0  0
  5 16  1  0  0  0  0
  5  4  1  0  0  0  0
  6 20  1  1  0  0  0
  6 14  1  0  0  0  0
  8 18  1  0  0  0  0
  8  7  1  0  0  0  0
  9  7  1  1  0  0  0
  9  2  1  0  0  0  0
  9 10  1  0  0  0  0
 10 14  1  0  0  0  0
 10 22  1  0  0  0  0
 12  6  1  0  0  0  0
 14  3  2  0  0  0  0
 15 11  1  0  0  0  0
 16 18  1  0  0  0  0
 17 15  2  0  0  0  0
 17 19  1  0  0  0  0
 18 12  1  0  0  0  0
 19 11  1  0  0  0  0
 21 22  1  0  0  0  0
 22 23  2  0  0  0  0
 23 15  1  0  0  0  0
 23 28  1  0  0  0  0
 25 24  1  0  0  0  0
 25 27  1  0  0  0  0
 27 26  1  0  0  0  0
 28 30  1  0  0  0  0
 30 29  1  0  0  0  0
 31  3  1  0  0  0  0
 31 32  1  0  0  0  0
 32 35  1  0  0  0  0
 34 36  1  0  0  0  0
 35 33  2  0  0  0  0
 35 34  1  0  0  0  0
M  END
>  <MODEL>
6

>  <REMARK>
 VINA RESULT:      -5.7      3.538      7.224
  Name = 
  8 active torsions:
  status: ('A' for Active; 'I' for Inactive)
    1  A    between atoms: C_4  and  O_35
    2  A    between atoms: C_6  and  N_29
    3  A    between atoms: C_19  and  C_21
    4  A    between atoms: C_19  and  N_29
    5  A    between atoms: C_24  and  C_28
    6  A    between atoms: C_24  and  O_35
    7  A    between atoms: C_27  and  O_33
    8  A    between atoms: O_33  and  C_34
                            x       y       z     vdW  Elec       q    Type
                         _______ _______ _______ _____ _____    ______ ____

>  <TORSDO>
F 8

$$$$
=
 OpenBabel10222419403D

 36 40  0  0  1  0  0  0  0  0999 V2000
  190.3130  176.2240  138.6930 C   0  0  1  0  0  3  0  0  0  0  0  0
  184.4020  176.7310  136.2540 C   0  0  0  0  0  2  0  0  0  0  0  0
  187.4000  178.2890  139.7930 C   0  0  0  0  0  0  0  0  0  0  0  0
  191.3180  175.2590  138.0700 C   0  0  0  0  0  2  0  0  0  0  0  0
  191.4120  175.4530  136.5530 C   0  0  1  0  0  3  0  0  0  0  0  0
  188.4030  177.6130  137.6360 C   0  0  1  0  0  3  0  0  0  0  0  0
  186.4280  175.3780  136.8470 C   0  0  0  0  0  2  0  0  0  0  0  0
  187.7030  175.3210  136.0110 C   0  0  0  0  0  2  0  0  0  0  0  0
  185.8500  176.7770  136.7080 C   0  0  2  0  0  3  0  0  0  0  0  0
  185.8970  177.5170  137.9680 N   0  0  0  0  0  0  0  0  0  0  0  0
  184.7030  178.8580  141.9600 C   0  0  0  0  0  2  0  0  0  0  0  0
  188.9600  176.2100  137.9540 C   0  0  1  0  0  3  0  0  0  0  0  0
  190.1190  175.8880  140.0320 O   0  0  0  0  0  1  0  0  0  0  0  0
  187.1980  177.9090  138.5060 C   0  0  0  0  0  0  0  0  0  0  0  0
  184.9330  178.6280  140.5070 C   0  0  0  0  0  0  0  0  0  0  0  0
  190.0330  175.5900  135.8880 C   0  0  0  0  0  2  0  0  0  0  0  0
  186.2800  178.4890  140.7110 C   0  0  0  0  0  0  0  0  0  0  0  0
  188.9380  175.2700  136.8070 N   0  0  2  0  0  0  0  0  0  0  0  0
  186.0980  178.7010  142.1770 C   0  0  0  0  0  2  0  0  0  0  0  0
  189.3720  178.6230  137.6750 O   0  0  0  0  0  1  0  0  0  0  0  0
  183.7270  177.8780  136.9740 C   0  0  0  0  0  2  0  0  0  0  0  0
  184.5970  178.1180  138.1540 C   0  0  0  0  0  0  0  0  0  0  0  0
  184.1100  178.6190  139.3150 C   0  0  0  0  0  0  0  0  0  0  0  0
  192.2020  176.6340  136.2470 N   0  0  0  0  0  2  0  0  0  0  0  0
  193.5560  176.3830  136.7130 C   0  0  0  0  0  2  0  0  0  0  0  0
  195.1570  177.8380  135.7170 O   0  0  0  0  0  1  0  0  0  0  0  0
  194.5390  176.5950  135.5720 C   0  0  0  0  0  2  0  0  0  0  0  0
  182.8040  179.1170  139.4800 O   0  0  0  0  0  0  0  0  0  0  0  0
  181.1120  179.0020  141.1710 C   0  0  0  0  0  1  0  0  0  0  0  0
  181.6720  178.3720  139.9130 C   0  0  0  0  0  2  0  0  0  0  0  0
  188.7160  178.4830  140.2440 O   0  0  0  0  0  0  0  0  0  0  0  0
  189.0560  178.9880  141.5300 C   0  0  0  0  0  2  0  0  0  0  0  0
  188.9010  176.9760  142.7890 O   0  0  0  0  0  0  0  0  0  0  0  0
  191.0510  177.8770  142.6000 N   0  0  0  0  0  2  0  0  0  0  0  0
  189.6430  177.8960  142.3510 C   0  0  0  0  0  0  0  0  0  0  0  0
  191.6800  176.8180  143.3720 C   0  0  0  0  0  1  0  0  0  0  0  0
  1 13  1  1  0  0  0
  2 21  1  0  0  0  0
  3 31  1  0  0  0  0
  3 17  1  0  0  0  0
  4  1  1  0  0  0  0
  5 24  1  1  0  0  0
  5  4  1  0  0  0  0
  6 20  1  1  0  0  0
  6 12  1  0  0  0  0
  6 14  1  0  0  0  0
  8 18  1  0  0  0  0
  8  7  1  0  0  0  0
  9  2  1  1  0  0  0
  9  7  1  0  0  0  0
  9 10  1  0  0  0  0
 10 22  1  0  0  0  0
 10 14  1  0  0  0  0
 11 19  1  0  0  0  0
 12  1  1  0  0  0  0
 14  3  2  0  0  0  0
 15 17  2  0  0  0  0
 15 11  1  0  0  0  0
 16  5  1  0  0  0  0
 16 18  1  0  0  0  0
 17 19  1  0  0  0  0
 18 12  1  0  0  0  0
 21 22  1  0  0  0  0
 22 23  2  0  0  0  0
 23 28  1  0  0  0  0
 23 15  1  0  0  0  0
 24 25  1  0  0  0  0
 27 26  1  0  0  0  0
 27 25  1  0  0  0  0
 28 30  1  0  0  0  0
 30 29  1  0  0  0  0
 31 32  1  0  0  0  0
 32 35  1  0  0  0  0
 34 36  1  0  0  0  0
 35 34  1  0  0  0  0
 35 33  2  0  0  0  0
M  END
>  <MODEL>
7

>  <REMARK>
 VINA RESULT:      -5.6      3.415      7.779
  Name = 
  8 active torsions:
  status: ('A' for Active; 'I' for Inactive)
    1  A    between atoms: C_4  and  O_35
    2  A    between atoms: C_6  and  N_29
    3  A    between atoms: C_19  and  C_21
    4  A    between atoms: C_19  and  N_29
    5  A    between atoms: C_24  and  C_28
    6  A    between atoms: C_24  and  O_35
    7  A    between atoms: C_27  and  O_33
    8  A    between atoms: O_33  and  C_34
                            x       y       z     vdW  Elec       q    Type
                         _______ _______ _______ _____ _____    ______ ____

>  <TORSDO>
F 8

$$$$
=
 OpenBabel10222419403D

 36 40  0  0  1  0  0  0  0  0999 V2000
  188.5030  176.9080  143.2870 C   0  0  1  0  0  3  0  0  0  0  0  0
  190.2250  177.4180  137.1290 C   0  0  0  0  0  2  0  0  0  0  0  0
  186.6560  178.3060  140.3540 C   0  0  0  0  0  0  0  0  0  0  0  0
  189.4420  176.2460  144.2910 C   0  0  0  0  0  2  0  0  0  0  0  0
  190.8540  176.8360  144.2080 C   0  0  1  0  0  3  0  0  0  0  0  0
  188.9890  178.3190  141.1720 C   0  0  1  0  0  3  0  0  0  0  0  0
  190.1840  176.1730  139.3050 C   0  0  0  0  0  2  0  0  0  0  0  0
  191.1060  176.4670  140.4850 C   0  0  0  0  0  2  0  0  0  0  0  0
  189.8950  177.4930  138.6090 C   0  0  2  0  0  3  0  0  0  0  0  0
  188.4910  177.8820  138.7310 N   0  0  0  0  0  0  0  0  0  0  0  0
  184.2030  178.0140  137.8670 C   0  0  0  0  0  2  0  0  0  0  0  0
  189.1060  176.9460  141.8680 C   0  0  1  0  0  3  0  0  0  0  0  0
  187.2910  176.2180  143.2630 O   0  0  0  0  0  1  0  0  0  0  0  0
  187.9760  178.2540  140.0470 C   0  0  0  0  0  0  0  0  0  0  0  0
  185.6780  178.1920  137.9580 C   0  0  0  0  0  0  0  0  0  0  0  0
  191.3420  176.9970  142.7610 C   0  0  0  0  0  2  0  0  0  0  0  0
  185.6290  178.1450  139.3260 C   0  0  0  0  0  0  0  0  0  0  0  0
  190.4570  176.3390  141.7970 N   0  0  2  0  0  0  0  0  0  0  0  0
  184.1510  177.9500  139.2850 C   0  0  0  0  0  2  0  0  0  0  0  0
  188.7610  179.3790  142.0590 O   0  0  0  0  0  1  0  0  0  0  0  0
  189.1720  178.2620  136.4470 C   0  0  0  0  0  2  0  0  0  0  0  0
  188.0460  178.2770  137.4150 C   0  0  0  0  0  0  0  0  0  0  0  0
  186.7570  178.4070  137.0170 C   0  0  0  0  0  0  0  0  0  0  0  0
  190.8950  178.1300  144.8680 N   0  0  0  0  0  2  0  0  0  0  0  0
  190.6550  177.9060  146.2830 C   0  0  0  0  0  2  0  0  0  0  0  0
  192.0480  177.0540  148.0170 O   0  0  0  0  0  1  0  0  0  0  0  0
  191.5030  176.7410  146.7700 C   0  0  0  0  0  2  0  0  0  0  0  0
  186.3590  178.7080  135.7010 O   0  0  0  0  0  0  0  0  0  0  0  0
  186.0700  176.4100  135.0910 C   0  0  0  0  0  1  0  0  0  0  0  0
  186.3670  177.8100  134.5970 C   0  0  0  0  0  2  0  0  0  0  0  0
  186.2780  178.5120  141.6920 O   0  0  0  0  0  0  0  0  0  0  0  0
  185.2280  179.3770  142.1030 C   0  0  0  0  0  2  0  0  0  0  0  0
  183.5510  178.6210  143.6130 O   0  0  0  0  0  0  0  0  0  0  0  0
  185.6710  178.9420  144.5480 N   0  0  0  0  0  2  0  0  0  0  0  0
  184.7520  178.9710  143.4530 C   0  0  0  0  0  0  0  0  0  0  0  0
  185.2650  178.5260  145.8810 C   0  0  0  0  0  1  0  0  0  0  0  0
  1 13  1  6  0  0  0
  1  4  1  0  0  0  0
  3 31  1  0  0  0  0
  5  4  1  0  0  0  0
  5 24  1  6  0  0  0
  6 12  1  0  0  0  0
  6 20  1  1  0  0  0
  7  8  1  0  0  0  0
  8 18  1  0  0  0  0
  9  2  1  6  0  0  0
  9 10  1  0  0  0  0
  9  7  1  0  0  0  0
 10 14  1  0  0  0  0
 11 15  1  0  0  0  0
 11 19  1  0  0  0  0
 12  1  1  0  0  0  0
 14  3  2  0  0  0  0
 14  6  1  0  0  0  0
 15 17  2  0  0  0  0
 16  5  1  0  0  0  0
 17  3  1  0  0  0  0
 18 12  1  0  0  0  0
 18 16  1  0  0  0  0
 19 17  1  0  0  0  0
 21  2  1  0  0  0  0
 21 22  1  0  0  0  0
 22 10  1  0  0  0  0
 23 22  2  0  0  0  0
 23 15  1  0  0  0  0
 24 25  1  0  0  0  0
 25 27  1  0  0  0  0
 27 26  1  0  0  0  0
 28 23  1  0  0  0  0
 30 29  1  0  0  0  0
 30 28  1  0  0  0  0
 31 32  1  0  0  0  0
 32 35  1  0  0  0  0
 34 36  1  0  0  0  0
 35 33  2  0  0  0  0
 35 34  1  0  0  0  0
M  END
>  <MODEL>
8

>  <REMARK>
 VINA RESULT:      -5.5      3.195      9.161
  Name = 
  8 active torsions:
  status: ('A' for Active; 'I' for Inactive)
    1  A    between atoms: C_4  and  O_35
    2  A    between atoms: C_6  and  N_29
    3  A    between atoms: C_19  and  C_21
    4  A    between atoms: C_19  and  N_29
    5  A    between atoms: C_24  and  C_28
    6  A    between atoms: C_24  and  O_35
    7  A    between atoms: C_27  and  O_33
    8  A    between atoms: O_33  and  C_34
                            x       y       z     vdW  Elec       q    Type
                         _______ _______ _______ _____ _____    ______ ____

>  <TORSDO>
F 8

$$$$
=
 OpenBabel10222419403D

 36 40  0  0  1  0  0  0  0  0999 V2000
  188.9910  176.7620  142.8600 C   0  0  1  0  0  3  0  0  0  0  0  0
  186.9200  178.1600  136.9530 C   0  0  0  0  0  2  0  0  0  0  0  0
  185.8180  178.3680  141.7140 C   0  0  0  0  0  0  0  0  0  0  0  0
  190.3280  176.0530  143.0550 C   0  0  0  0  0  2  0  0  0  0  0  0
  191.4490  176.7540  142.2790 C   0  0  1  0  0  3  0  0  0  0  0  0
  188.2030  178.4560  141.0710 C   0  0  1  0  0  3  0  0  0  0  0  0
  188.1100  176.6550  138.5680 C   0  0  0  0  0  2  0  0  0  0  0  0
  189.5410  176.8690  139.0520 C   0  0  0  0  0  2  0  0  0  0  0  0
  187.4890  178.0260  138.3540 C   0  0  2  0  0  3  0  0  0  0  0  0
  186.4050  178.2890  139.3000 N   0  0  0  0  0  0  0  0  0  0  0  0
  182.3840  178.2020  141.0260 C   0  0  0  0  0  2  0  0  0  0  0  0
  188.6820  177.0210  141.3720 C   0  0  1  0  0  3  0  0  0  0  0  0
  187.9730  175.9900  143.4220 O   0  0  0  0  0  1  0  0  0  0  0  0
  186.7300  178.4550  140.7140 C   0  0  0  0  0  0  0  0  0  0  0  0
  183.6520  178.4790  140.2970 C   0  0  0  0  0  0  0  0  0  0  0  0
  191.0310  177.1300  140.8490 C   0  0  0  0  0  2  0  0  0  0  0  0
  184.3870  178.2590  141.4310 C   0  0  0  0  0  0  0  0  0  0  0  0
  189.7500  176.5310  140.4670 N   0  0  2  0  0  0  0  0  0  0  0  0
  183.1450  177.9590  142.2000 C   0  0  0  0  0  2  0  0  0  0  0  0
  188.5260  179.3770  142.0740 O   0  0  0  0  0  1  0  0  0  0  0  0
  185.6720  179.0000  137.1120 C   0  0  0  0  0  2  0  0  0  0  0  0
  185.2950  178.8100  138.5360 C   0  0  0  0  0  0  0  0  0  0  0  0
  184.0090  178.8900  138.9550 C   0  0  0  0  0  0  0  0  0  0  0  0
  191.8670  177.9550  142.9800 N   0  0  0  0  0  2  0  0  0  0  0  0
  191.6800  177.7180  144.4020 C   0  0  0  0  0  2  0  0  0  0  0  0
  190.9370  179.9640  144.1390 O   0  0  0  0  0  1  0  0  0  0  0  0
  190.9310  178.8850  145.0240 C   0  0  0  0  0  2  0  0  0  0  0  0
  182.9370  179.3210  138.1510 O   0  0  0  0  0  0  0  0  0  0  0  0
  180.8180  180.3330  137.6760 C   0  0  0  0  0  1  0  0  0  0  0  0
  182.1670  180.5020  138.3440 C   0  0  0  0  0  2  0  0  0  0  0  0
  186.2670  178.3770  143.0460 O   0  0  0  0  0  0  0  0  0  0  0  0
  185.6570  179.1240  144.0920 C   0  0  0  0  0  2  0  0  0  0  0  0
  185.0740  178.2520  146.2270 O   0  0  0  0  0  0  0  0  0  0  0  0
  187.3500  178.1640  145.6960 N   0  0  0  0  0  2  0  0  0  0  0  0
  185.9930  178.5050  145.4020 C   0  0  0  0  0  0  0  0  0  0  0  0
  187.7290  177.5310  146.9490 C   0  0  0  0  0  1  0  0  0  0  0  0
  1  4  1  0  0  0  0
  1 13  1  6  0  0  0
  2 21  1  0  0  0  0
  3 31  1  0  0  0  0
  5 24  1  1  0  0  0
  5  4  1  0  0  0  0
  6 12  1  0  0  0  0
  6 20  1  1  0  0  0
  7  8  1  0  0  0  0
  8 18  1  0  0  0  0
  9  2  1  6  0  0  0
  9  7  1  0  0  0  0
  9 10  1  0  0  0  0
 10 14  1  0  0  0  0
 11 19  1  0  0  0  0
 12  1  1  0  0  0  0
 14  6  1  0  0  0  0
 14  3  2  0  0  0  0
 15 11  1  0  0  0  0
 15 17  2  0  0  0  0
 16  5  1  0  0  0  0
 17  3  1  0  0  0  0
 17 19  1  0  0  0  0
 18 16  1  0  0  0  0
 18 12  1  0  0  0  0
 21 22  1  0  0  0  0
 22 23  2  0  0  0  0
 22 10  1  0  0  0  0
 23 15  1  0  0  0  0
 24 25  1  0  0  0  0
 25 27  1  0  0  0  0
 26 27  1  0  0  0  0
 28 30  1  0  0  0  0
 28 23  1  0  0  0  0
 29 30  1  0  0  0  0
 31 32  1  0  0  0  0
 32 35  1  0  0  0  0
 34 36  1  0  0  0  0
 35 34  1  0  0  0  0
 35 33  2  0  0  0  0
M  END
>  <MODEL>
9

>  <REMARK>
 VINA RESULT:      -5.4      2.762      8.360
  Name = 
  8 active torsions:
  status: ('A' for Active; 'I' for Inactive)
    1  A    between atoms: C_4  and  O_35
    2  A    between atoms: C_6  and  N_29
    3  A    between atoms: C_19  and  C_21
    4  A    between atoms: C_19  and  N_29
    5  A    between atoms: C_24  and  C_28
    6  A    between atoms: C_24  and  O_35
    7  A    between atoms: C_27  and  O_33
    8  A    between atoms: O_33  and  C_34
                            x       y       z     vdW  Elec       q    Type
                         _______ _______ _______ _____ _____    ______ ____

>  <TORSDO>
F 8

$$$$
