=
 OpenBabel10222418483D

 29 32  0  0  1  0  0  0  0  0999 V2000
  188.4990  177.0970  142.0690 C   0  0  0  0  0  2  0  0  0  0  0  0
  187.0960  177.9950  144.4590 C   0  0  2  0  0  3  0  0  0  0  0  0
  187.2710  179.3110  140.5650 O   0  0  0  0  0  0  0  0  0  0  0  0
  185.2670  179.1310  141.9320 C   0  0  2  0  0  3  0  0  0  0  0  0
  186.6140  178.7020  141.4520 C   0  0  0  0  0  0  0  0  0  0  0  0
  188.4460  177.2960  144.5960 C   0  0  0  0  0  2  0  0  0  0  0  0
  184.9850  178.0780  143.0300 C   0  0  1  0  0  3  0  0  0  0  0  0
  189.2590  177.5580  143.3220 C   0  0  0  0  0  2  0  0  0  0  0  0
  187.1130  177.5590  142.1240 N   0  0  0  0  0  0  0  0  0  0  0  0
  186.2590  178.0830  145.7240 C   0  0  2  0  0  3  0  0  0  0  0  0
  185.1290  179.0560  145.4220 C   0  0  0  0  0  2  0  0  0  0  0  0
  186.3150  177.3460  143.3110 C   0  0  1  0  0  3  0  0  0  0  0  0
  184.2260  178.5200  144.3110 C   0  0  1  0  0  3  0  0  0  0  0  0
  183.3900  177.3900  139.2600 C   0  0  0  0  0  2  0  0  0  0  0  0
  184.9170  179.2520  139.4640 N   0  0  0  0  0  0  0  0  0  0  0  0
  183.6850  177.6190  140.7150 C   0  0  0  0  0  2  0  0  0  0  0  0
  184.3640  178.2840  138.5210 C   0  0  1  0  0  3  0  0  0  0  0  0
  184.2840  179.0060  140.7560 C   0  0  1  0  0  3  0  0  0  0  0  0
  184.5060  180.4750  139.0520 O   0  0  0  0  0  1  0  0  0  0  0  0
  186.8280  178.5180  137.1450 C   0  0  0  0  0  1  0  0  0  0  0  0
  185.6990  177.2910  137.8230 S   0  0  2  0  0  0  0  0  0  0  0  0
  185.0740  176.6760  136.5790 O   0  0  0  0  0  0  0  0  0  0  0  0
  183.0910  179.4930  144.0360 C   0  0  0  0  0  2  0  0  0  0  0  0
  181.8100  178.7440  143.7260 C   0  0  0  0  0  1  0  0  0  0  0  0
  187.0810  178.6310  146.8850 C   0  0  0  0  0  2  0  0  0  0  0  0
  187.6880  177.5710  147.6150 O   0  0  0  0  0  0  0  0  0  0  0  0
  189.3340  178.4410  148.9870 O   0  0  0  0  0  0  0  0  0  0  0  0
  189.0050  177.6370  148.0740 C   0  0  0  0  0  0  0  0  0  0  0  0
  190.0320  176.7440  147.4780 C   0  0  0  0  0  1  0  0  0  0  0  0
  1  9  1  0  0  0  0
  1  8  1  0  0  0  0
  2  6  1  1  0  0  0
  2 10  1  0  0  0  0
  3  5  2  0  0  0  0
  4  5  1  6  0  0  0
  4  7  1  0  0  0  0
  5  9  1  0  0  0  0
  7 12  1  0  0  0  0
  7 13  1  0  0  0  0
  8  6  1  0  0  0  0
  9 12  1  0  0  0  0
 10 25  1  0  0  0  0
 11 10  1  0  0  0  0
 12  2  1  0  0  0  0
 13 11  1  0  0  0  0
 14 16  1  0  0  0  0
 15 18  1  0  0  0  0
 16 18  1  0  0  0  0
 17 14  1  0  0  0  0
 17 15  1  0  0  0  0
 18  4  1  0  0  0  0
 19 15  1  0  0  0  0
 20 21  1  0  0  0  0
 21 17  1  0  0  0  0
 22 21  2  0  0  0  0
 23 13  1  0  0  0  0
 24 23  1  0  0  0  0
 25 26  1  0  0  0  0
 26 28  1  0  0  0  0
 28 27  2  0  0  0  0
 29 28  1  0  0  0  0
M  END
>  <MODEL>
1

>  <REMARK>
 VINA RESULT:      -8.3      0.000      0.000
  Name = 
  6 active torsions:
  status: ('A' for Active; 'I' for Inactive)
    1  A    between atoms: C_8  and  O_10
    2  A    between atoms: C_9  and  C_22
    3  A    between atoms: O_10  and  C_23
    4  A    between atoms: C_11  and  C_29
    5  A    between atoms: C_20  and  C_23
    6  A    between atoms: C_21  and  S_25
                            x       y       z     vdW  Elec       q    Type
                         _______ _______ _______ _____ _____    ______ ____

>  <TORSDO>
F 6

$$$$
=
 OpenBabel10222418483D

 29 32  0  0  1  0  0  0  0  0999 V2000
  187.9410  177.3240  147.2920 C   0  0  0  0  0  2  0  0  0  0  0  0
  186.1230  178.2810  145.2280 C   0  0  2  0  0  3  0  0  0  0  0  0
  190.1790  178.5800  145.8480 O   0  0  0  0  0  0  0  0  0  0  0  0
  189.0800  178.1070  143.7300 C   0  0  2  0  0  3  0  0  0  0  0  0
  189.2390  178.0310  145.2130 C   0  0  0  0  0  0  0  0  0  0  0  0
  185.6160  178.1110  146.6580 C   0  0  0  0  0  2  0  0  0  0  0  0
  187.7610  177.3250  143.5240 C   0  0  1  0  0  3  0  0  0  0  0  0
  186.7990  178.2980  147.6170 C   0  0  0  0  0  2  0  0  0  0  0  0
  188.1990  177.3120  145.8530 N   0  0  0  0  0  0  0  0  0  0  0  0
  185.0560  178.4040  144.1540 C   0  0  2  0  0  3  0  0  0  0  0  0
  185.7730  178.8550  142.8890 C   0  0  0  0  0  2  0  0  0  0  0  0
  187.1110  177.1530  144.9140 C   0  0  1  0  0  3  0  0  0  0  0  0
  186.7760  177.7990  142.4220 C   0  0  1  0  0  3  0  0  0  0  0  0
  191.7500  177.5490  141.2300 C   0  0  0  0  0  2  0  0  0  0  0  0
  189.8710  176.3410  142.1530 N   0  0  0  0  0  0  0  0  0  0  0  0
  191.1380  178.3700  142.3280 C   0  0  0  0  0  2  0  0  0  0  0  0
  190.7790  176.4070  141.0110 C   0  0  1  0  0  3  0  0  0  0  0  0
  190.2780  177.3860  143.0880 C   0  0  1  0  0  3  0  0  0  0  0  0
  190.1010  175.1560  142.7660 O   0  0  0  0  0  1  0  0  0  0  0  0
  190.7140  175.7250  138.2640 C   0  0  0  0  0  1  0  0  0  0  0  0
  189.8310  176.6870  139.5020 S   0  0  2  0  0  0  0  0  0  0  0  0
  190.1720  178.1230  139.1280 O   0  0  0  0  0  0  0  0  0  0  0  0
  187.4680  178.2560  141.1480 C   0  0  0  0  0  2  0  0  0  0  0  0
  186.4490  178.5340  140.0590 C   0  0  0  0  0  1  0  0  0  0  0  0
  184.0200  179.4560  144.5300 C   0  0  0  0  0  2  0  0  0  0  0  0
  182.7340  178.8630  144.6770 O   0  0  0  0  0  0  0  0  0  0  0  0
  182.1500  179.0210  142.4440 O   0  0  0  0  0  0  0  0  0  0  0  0
  181.7970  178.8450  143.6410 C   0  0  0  0  0  0  0  0  0  0  0  0
  180.3640  178.6090  143.9560 C   0  0  0  0  0  1  0  0  0  0  0  0
  1  8  1  0  0  0  0
  2  6  1  1  0  0  0
  4  5  1  1  0  0  0
  5  3  2  0  0  0  0
  5  9  1  0  0  0  0
  6  8  1  0  0  0  0
  7  4  1  0  0  0  0
  7 12  1  0  0  0  0
  9  1  1  0  0  0  0
 10 25  1  0  0  0  0
 10  2  1  0  0  0  0
 11 10  1  0  0  0  0
 12  2  1  0  0  0  0
 12  9  1  0  0  0  0
 13 11  1  0  0  0  0
 13  7  1  0  0  0  0
 14 16  1  0  0  0  0
 15 19  1  0  0  0  0
 15 18  1  0  0  0  0
 16 18  1  0  0  0  0
 17 14  1  0  0  0  0
 17 15  1  0  0  0  0
 18  4  1  0  0  0  0
 20 21  1  0  0  0  0
 21 17  1  0  0  0  0
 22 21  2  0  0  0  0
 23 13  1  0  0  0  0
 24 23  1  0  0  0  0
 25 26  1  0  0  0  0
 27 28  2  0  0  0  0
 28 29  1  0  0  0  0
 28 26  1  0  0  0  0
M  END
>  <MODEL>
2

>  <REMARK>
 VINA RESULT:      -7.8      2.746      5.885
  Name = 
  6 active torsions:
  status: ('A' for Active; 'I' for Inactive)
    1  A    between atoms: C_8  and  O_10
    2  A    between atoms: C_9  and  C_22
    3  A    between atoms: O_10  and  C_23
    4  A    between atoms: C_11  and  C_29
    5  A    between atoms: C_20  and  C_23
    6  A    between atoms: C_21  and  S_25
                            x       y       z     vdW  Elec       q    Type
                         _______ _______ _______ _____ _____    ______ ____

>  <TORSDO>
F 6

$$$$
=
 OpenBabel10222418483D

 29 32  0  0  1  0  0  0  0  0999 V2000
  191.5840  176.0210  143.6910 C   0  0  0  0  0  2  0  0  0  0  0  0
  188.9400  177.1820  144.0760 C   0  0  2  0  0  3  0  0  0  0  0  0
  192.1130  178.0210  141.5950 O   0  0  0  0  0  0  0  0  0  0  0  0
  189.7650  177.9810  140.9610 C   0  0  2  0  0  3  0  0  0  0  0  0
  190.9660  177.5150  141.7170 C   0  0  0  0  0  0  0  0  0  0  0  0
  189.6530  176.5220  145.2540 C   0  0  0  0  0  2  0  0  0  0  0  0
  188.6630  177.0650  141.5440 C   0  0  1  0  0  3  0  0  0  0  0  0
  191.1660  176.6390  145.0330 C   0  0  0  0  0  2  0  0  0  0  0  0
  190.6840  176.4680  142.6290 N   0  0  0  0  0  0  0  0  0  0  0  0
  187.4480  177.4100  144.2430 C   0  0  2  0  0  3  0  0  0  0  0  0
  187.0260  178.3260  143.1030 C   0  0  0  0  0  2  0  0  0  0  0  0
  189.2500  176.3890  142.8020 C   0  0  1  0  0  3  0  0  0  0  0  0
  187.2380  177.6470  141.7480 C   0  0  1  0  0  3  0  0  0  0  0  0
  189.0250  178.0750  137.3370 C   0  0  0  0  0  2  0  0  0  0  0  0
  189.4670  176.4170  139.0390 N   0  0  0  0  0  0  0  0  0  0  0  0
  189.3640  178.7760  138.6210 C   0  0  0  0  0  2  0  0  0  0  0  0
  188.8780  176.6160  137.7180 C   0  0  1  0  0  3  0  0  0  0  0  0
  190.0090  177.7030  139.4690 C   0  0  1  0  0  3  0  0  0  0  0  0
  190.5210  175.5840  138.8730 O   0  0  0  0  0  1  0  0  0  0  0  0
  186.9620  174.9890  136.4150 C   0  0  0  0  0  1  0  0  0  0  0  0
  187.1300  176.1680  137.7630 S   0  0  2  0  0  0  0  0  0  0  0  0
  186.4300  177.4080  137.2240 O   0  0  0  0  0  0  0  0  0  0  0  0
  186.7930  178.5660  140.6220 C   0  0  0  0  0  2  0  0  0  0  0  0
  185.3440  178.9730  140.8090 C   0  0  0  0  0  1  0  0  0  0  0  0
  187.1470  178.1060  145.5660 C   0  0  0  0  0  2  0  0  0  0  0  0
  186.0780  179.0330  145.4120 O   0  0  0  0  0  0  0  0  0  0  0  0
  184.5520  178.3970  147.0290 O   0  0  0  0  0  0  0  0  0  0  0  0
  184.7790  178.7550  145.8430 C   0  0  0  0  0  0  0  0  0  0  0  0
  183.6490  178.8860  144.8870 C   0  0  0  0  0  1  0  0  0  0  0  0
  1  8  1  0  0  0  0
  2 10  1  0  0  0  0
  2  6  1  1  0  0  0
  3  5  2  0  0  0  0
  4  7  1  0  0  0  0
  4  5  1  1  0  0  0
  5  9  1  0  0  0  0
  7 13  1  0  0  0  0
  7 12  1  0  0  0  0
  8  6  1  0  0  0  0
  9 12  1  0  0  0  0
  9  1  1  0  0  0  0
 10 25  1  0  0  0  0
 11 10  1  0  0  0  0
 12  2  1  0  0  0  0
 13 11  1  0  0  0  0
 14 17  1  0  0  0  0
 14 16  1  0  0  0  0
 15 18  1  0  0  0  0
 16 18  1  0  0  0  0
 17 21  1  0  0  0  0
 17 15  1  0  0  0  0
 18  4  1  0  0  0  0
 19 15  1  0  0  0  0
 20 21  1  0  0  0  0
 22 21  2  0  0  0  0
 23 24  1  0  0  0  0
 23 13  1  0  0  0  0
 26 25  1  0  0  0  0
 26 28  1  0  0  0  0
 28 27  2  0  0  0  0
 29 28  1  0  0  0  0
M  END
>  <MODEL>
3

>  <REMARK>
 VINA RESULT:      -7.8      2.570      4.437
  Name = 
  6 active torsions:
  status: ('A' for Active; 'I' for Inactive)
    1  A    between atoms: C_8  and  O_10
    2  A    between atoms: C_9  and  C_22
    3  A    between atoms: O_10  and  C_23
    4  A    between atoms: C_11  and  C_29
    5  A    between atoms: C_20  and  C_23
    6  A    between atoms: C_21  and  S_25
                            x       y       z     vdW  Elec       q    Type
                         _______ _______ _______ _____ _____    ______ ____

>  <TORSDO>
F 6

$$$$
=
 OpenBabel10222418483D

 29 32  0  0  1  0  0  0  0  0999 V2000
  186.5780  177.5100  146.0020 C   0  0  0  0  0  2  0  0  0  0  0  0
  186.1160  178.2450  143.2210 C   0  0  2  0  0  3  0  0  0  0  0  0
  189.2530  178.7320  145.8390 O   0  0  0  0  0  0  0  0  0  0  0  0
  189.4180  178.0620  143.5060 C   0  0  2  0  0  3  0  0  0  0  0  0
  188.7790  178.1030  144.8550 C   0  0  0  0  0  0  0  0  0  0  0  0
  184.9350  178.1660  144.1860 C   0  0  0  0  0  2  0  0  0  0  0  0
  188.3940  177.2220  142.7080 C   0  0  1  0  0  3  0  0  0  0  0  0
  185.4450  178.4650  145.6020 C   0  0  0  0  0  2  0  0  0  0  0  0
  187.5500  177.4000  144.9150 N   0  0  0  0  0  0  0  0  0  0  0  0
  185.7690  178.2500  141.7430 C   0  0  2  0  0  3  0  0  0  0  0  0
  187.0450  178.6290  141.0050 C   0  0  0  0  0  2  0  0  0  0  0  0
  187.1120  177.1320  143.5630 C   0  0  1  0  0  3  0  0  0  0  0  0
  188.1350  177.5770  141.2190 C   0  0  1  0  0  3  0  0  0  0  0  0
  191.6820  175.2530  144.3250 C   0  0  0  0  0  2  0  0  0  0  0  0
  191.4040  177.5740  144.9370 N   0  0  0  0  0  0  0  0  0  0  0  0
  190.5830  175.8460  143.4920 C   0  0  0  0  0  2  0  0  0  0  0  0
  191.9950  176.3090  145.3650 C   0  0  1  0  0  3  0  0  0  0  0  0
  190.7680  177.3380  143.6440 C   0  0  1  0  0  3  0  0  0  0  0  0
  192.4300  178.4290  144.7190 O   0  0  0  0  0  1  0  0  0  0  0  0
  190.9820  177.3990  147.7750 C   0  0  0  0  0  1  0  0  0  0  0  0
  191.2990  175.8260  146.9590 S   0  0  2  0  0  0  0  0  0  0  0  0
  192.4980  175.2800  147.7210 O   0  0  0  0  0  0  0  0  0  0  0  0
  189.3940  177.9610  140.4600 C   0  0  0  0  0  2  0  0  0  0  0  0
  189.0560  178.3690  139.0380 C   0  0  0  0  0  1  0  0  0  0  0  0
  184.6990  179.2910  141.4360 C   0  0  0  0  0  2  0  0  0  0  0  0
  184.8190  179.7530  140.0950 O   0  0  0  0  0  0  0  0  0  0  0  0
  184.1980  178.2900  138.4140 O   0  0  0  0  0  0  0  0  0  0  0  0
  183.9570  179.3320  139.0800 C   0  0  0  0  0  0  0  0  0  0  0  0
  182.7350  180.1250  138.7840 C   0  0  0  0  0  1  0  0  0  0  0  0
  2 12  1  0  0  0  0
  2  6  1  1  0  0  0
  4 18  1  0  0  0  0
  4  5  1  1  0  0  0
  5  9  1  0  0  0  0
  5  3  2  0  0  0  0
  6  8  1  0  0  0  0
  7  4  1  0  0  0  0
  7 12  1  0  0  0  0
  8  1  1  0  0  0  0
  9  1  1  0  0  0  0
 10  2  1  0  0  0  0
 11 13  1  0  0  0  0
 11 10  1  0  0  0  0
 12  9  1  0  0  0  0
 13  7  1  0  0  0  0
 14 17  1  0  0  0  0
 15 17  1  0  0  0  0
 16 18  1  0  0  0  0
 16 14  1  0  0  0  0
 17 21  1  0  0  0  0
 18 15  1  0  0  0  0
 19 15  1  0  0  0  0
 21 22  2  0  0  0  0
 21 20  1  0  0  0  0
 23 13  1  0  0  0  0
 24 23  1  0  0  0  0
 25 10  1  0  0  0  0
 26 25  1  0  0  0  0
 27 28  2  0  0  0  0
 28 26  1  0  0  0  0
 29 28  1  0  0  0  0
M  END
>  <MODEL>
4

>  <REMARK>
 VINA RESULT:      -7.1      3.064      7.784
  Name = 
  6 active torsions:
  status: ('A' for Active; 'I' for Inactive)
    1  A    between atoms: C_8  and  O_10
    2  A    between atoms: C_9  and  C_22
    3  A    between atoms: O_10  and  C_23
    4  A    between atoms: C_11  and  C_29
    5  A    between atoms: C_20  and  C_23
    6  A    between atoms: C_21  and  S_25
                            x       y       z     vdW  Elec       q    Type
                         _______ _______ _______ _____ _____    ______ ____

>  <TORSDO>
F 6

$$$$
=
 OpenBabel10222418483D

 29 32  0  0  1  0  0  0  0  0999 V2000
  183.3650  179.4020  144.1280 C   0  0  0  0  0  2  0  0  0  0  0  0
  186.0650  178.3300  143.9190 C   0  0  2  0  0  3  0  0  0  0  0  0
  182.6260  177.9070  141.7000 O   0  0  0  0  0  0  0  0  0  0  0  0
  184.8730  178.2190  140.8220 C   0  0  2  0  0  3  0  0  0  0  0  0
  183.7670  178.4340  141.8020 C   0  0  0  0  0  0  0  0  0  0  0  0
  185.4910  178.6630  145.2940 C   0  0  0  0  0  2  0  0  0  0  0  0
  186.0160  179.0370  141.4690 C   0  0  1  0  0  3  0  0  0  0  0  0
  183.9660  178.5180  145.2300 C   0  0  0  0  0  2  0  0  0  0  0  0
  184.1350  179.2590  142.8930 N   0  0  0  0  0  0  0  0  0  0  0  0
  187.5720  178.1510  143.8510 C   0  0  2  0  0  3  0  0  0  0  0  0
  187.8700  177.5440  142.4870 C   0  0  0  0  0  2  0  0  0  0  0  0
  185.5760  179.3750  142.9100 C   0  0  1  0  0  3  0  0  0  0  0  0
  187.4700  178.5010  141.3630 C   0  0  1  0  0  3  0  0  0  0  0  0
  182.4930  179.5830  138.3400 C   0  0  0  0  0  2  0  0  0  0  0  0
  184.1120  177.7950  138.4840 N   0  0  0  0  0  0  0  0  0  0  0  0
  183.2080  179.6820  139.6560 C   0  0  0  0  0  2  0  0  0  0  0  0
  182.9330  178.2560  137.7560 C   0  0  1  0  0  3  0  0  0  0  0  0
  184.4350  178.8170  139.4750 C   0  0  1  0  0  3  0  0  0  0  0  0
  185.1330  177.7730  137.5960 O   0  0  0  0  0  1  0  0  0  0  0  0
  182.3410  175.7540  138.9430 C   0  0  0  0  0  1  0  0  0  0  0  0
  181.6070  177.0430  137.9230 S   0  0  2  0  0  0  0  0  0  0  0  0
  181.5410  176.3950  136.5470 O   0  0  0  0  0  0  0  0  0  0  0  0
  187.7930  177.8900  140.0100 C   0  0  0  0  0  2  0  0  0  0  0  0
  189.2680  177.5500  139.9170 C   0  0  0  0  0  1  0  0  0  0  0  0
  188.0570  177.1890  144.9300 C   0  0  0  0  0  2  0  0  0  0  0  0
  188.9470  177.8480  145.8250 O   0  0  0  0  0  0  0  0  0  0  0  0
  190.0280  176.5260  147.3860 O   0  0  0  0  0  0  0  0  0  0  0  0
  189.1580  177.4020  147.1310 C   0  0  0  0  0  0  0  0  0  0  0  0
  188.3470  177.9730  148.2380 C   0  0  0  0  0  1  0  0  0  0  0  0
  1  8  1  0  0  0  0
  2  6  1  1  0  0  0
  3  5  2  0  0  0  0
  4  7  1  0  0  0  0
  4  5  1  1  0  0  0
  5  9  1  0  0  0  0
  7 12  1  0  0  0  0
  8  6  1  0  0  0  0
  9 12  1  0  0  0  0
  9  1  1  0  0  0  0
 10  2  1  0  0  0  0
 10 25  1  0  0  0  0
 11 10  1  0  0  0  0
 12  2  1  0  0  0  0
 13  7  1  0  0  0  0
 13 11  1  0  0  0  0
 14 16  1  0  0  0  0
 15 18  1  0  0  0  0
 17 21  1  0  0  0  0
 17 14  1  0  0  0  0
 17 15  1  0  0  0  0
 18 16  1  0  0  0  0
 18  4  1  0  0  0  0
 19 15  1  0  0  0  0
 21 20  1  0  0  0  0
 22 21  2  0  0  0  0
 23 13  1  0  0  0  0
 24 23  1  0  0  0  0
 25 26  1  0  0  0  0
 26 28  1  0  0  0  0
 28 27  2  0  0  0  0
 28 29  1  0  0  0  0
M  END
>  <MODEL>
5

>  <REMARK>
 VINA RESULT:      -7.1      1.970      3.750
  Name = 
  6 active torsions:
  status: ('A' for Active; 'I' for Inactive)
    1  A    between atoms: C_8  and  O_10
    2  A    between atoms: C_9  and  C_22
    3  A    between atoms: O_10  and  C_23
    4  A    between atoms: C_11  and  C_29
    5  A    between atoms: C_20  and  C_23
    6  A    between atoms: C_21  and  S_25
                            x       y       z     vdW  Elec       q    Type
                         _______ _______ _______ _____ _____    ______ ____

>  <TORSDO>
F 6

$$$$
=
 OpenBabel10222418483D

 29 32  0  0  1  0  0  0  0  0999 V2000
  188.5730  178.4370  138.8240 C   0  0  0  0  0  2  0  0  0  0  0  0
  186.3400  178.2410  140.6840 C   0  0  2  0  0  3  0  0  0  0  0  0
  189.9870  176.3640  140.3640 O   0  0  0  0  0  0  0  0  0  0  0  0
  188.9720  177.1920  142.4140 C   0  0  2  0  0  3  0  0  0  0  0  0
  189.2860  177.2290  140.9540 C   0  0  0  0  0  0  0  0  0  0  0  0
  186.0780  178.6280  139.2300 C   0  0  0  0  0  2  0  0  0  0  0  0
  188.0560  178.4300  142.5600 C   0  0  1  0  0  3  0  0  0  0  0  0
  187.1750  178.0050  138.3580 C   0  0  0  0  0  2  0  0  0  0  0  0
  188.6780  178.3150  140.2760 N   0  0  0  0  0  0  0  0  0  0  0  0
  185.2160  178.5310  141.6640 C   0  0  2  0  0  3  0  0  0  0  0  0
  185.5750  177.8050  142.9530 C   0  0  0  0  0  2  0  0  0  0  0  0
  187.6590  178.8750  141.1360 C   0  0  1  0  0  3  0  0  0  0  0  0
  186.8650  178.3640  143.5550 C   0  0  1  0  0  3  0  0  0  0  0  0
  191.6800  176.2210  144.7400 C   0  0  0  0  0  2  0  0  0  0  0  0
  190.1100  178.0380  144.4670 N   0  0  0  0  0  0  0  0  0  0  0  0
  190.9160  176.0140  143.4640 C   0  0  0  0  0  2  0  0  0  0  0  0
  190.9740  177.3680  145.4350 C   0  0  1  0  0  3  0  0  0  0  0  0
  190.2910  177.3620  143.1860 C   0  0  1  0  0  3  0  0  0  0  0  0
  190.5920  179.2940  144.3190 O   0  0  0  0  0  1  0  0  0  0  0  0
  189.5100  178.2210  147.7020 C   0  0  0  0  0  1  0  0  0  0  0  0
  189.9770  176.7360  146.8000 S   0  0  2  0  0  0  0  0  0  0  0  0
  191.0010  176.0850  147.7180 O   0  0  0  0  0  0  0  0  0  0  0  0
  187.1980  177.6430  144.8510 C   0  0  0  0  0  2  0  0  0  0  0  0
  186.1870  177.9900  145.9270 C   0  0  0  0  0  1  0  0  0  0  0  0
  183.8890  177.9860  141.1490 C   0  0  0  0  0  2  0  0  0  0  0  0
  182.8580  178.9580  141.2940 O   0  0  0  0  0  0  0  0  0  0  0  0
  180.6510  178.4940  141.8070 O   0  0  0  0  0  0  0  0  0  0  0  0
  181.8080  178.8030  142.2010 C   0  0  0  0  0  0  0  0  0  0  0  0
  182.0600  179.0030  143.6520 C   0  0  0  0  0  1  0  0  0  0  0  0
  1  9  1  0  0  0  0
  2  6  1  6  0  0  0
  2 12  1  0  0  0  0
  2 10  1  0  0  0  0
  3  5  2  0  0  0  0
  4  5  1  6  0  0  0
  4  7  1  0  0  0  0
  4 18  1  0  0  0  0
  7 13  1  0  0  0  0
  8  1  1  0  0  0  0
  8  6  1  0  0  0  0
  9  5  1  0  0  0  0
  9 12  1  0  0  0  0
 10 11  1  0  0  0  0
 11 13  1  0  0  0  0
 12  7  1  0  0  0  0
 13 23  1  0  0  0  0
 14 17  1  0  0  0  0
 15 17  1  0  0  0  0
 16 14  1  0  0  0  0
 17 21  1  0  0  0  0
 18 16  1  0  0  0  0
 18 15  1  0  0  0  0
 19 15  1  0  0  0  0
 21 20  1  0  0  0  0
 21 22  2  0  0  0  0
 23 24  1  0  0  0  0
 25 26  1  0  0  0  0
 25 10  1  0  0  0  0
 26 28  1  0  0  0  0
 27 28  2  0  0  0  0
 28 29  1  0  0  0  0
M  END
>  <MODEL>
6

>  <REMARK>
 VINA RESULT:      -7.1      2.936      7.054
  Name = 
  6 active torsions:
  status: ('A' for Active; 'I' for Inactive)
    1  A    between atoms: C_8  and  O_10
    2  A    between atoms: C_9  and  C_22
    3  A    between atoms: O_10  and  C_23
    4  A    between atoms: C_11  and  C_29
    5  A    between atoms: C_20  and  C_23
    6  A    between atoms: C_21  and  S_25
                            x       y       z     vdW  Elec       q    Type
                         _______ _______ _______ _____ _____    ______ ____

>  <TORSDO>
F 6

$$$$
=
 OpenBabel10222418483D

 29 32  0  0  1  0  0  0  0  0999 V2000
  185.0990  179.0030  140.6120 C   0  0  0  0  0  2  0  0  0  0  0  0
  186.6790  177.9750  142.8330 C   0  0  2  0  0  3  0  0  0  0  0  0
  186.5920  177.2390  138.7860 O   0  0  0  0  0  0  0  0  0  0  0  0
  188.5840  177.5050  140.1560 C   0  0  2  0  0  3  0  0  0  0  0  0
  187.1770  177.7990  139.7510 C   0  0  0  0  0  0  0  0  0  0  0  0
  185.2460  178.4420  143.0800 C   0  0  0  0  0  2  0  0  0  0  0  0
  188.7400  178.4130  141.3990 C   0  0  1  0  0  3  0  0  0  0  0  0
  184.4460  178.2560  141.7840 C   0  0  0  0  0  2  0  0  0  0  0  0
  186.5380  178.7450  140.5910 N   0  0  0  0  0  0  0  0  0  0  0  0
  187.5520  177.8240  144.0670 C   0  0  2  0  0  3  0  0  0  0  0  0
  188.8020  177.0810  143.6170 C   0  0  0  0  0  2  0  0  0  0  0  0
  187.3280  178.8940  141.7930 C   0  0  1  0  0  3  0  0  0  0  0  0
  189.5890  177.9020  142.5950 C   0  0  1  0  0  3  0  0  0  0  0  0
  189.4300  178.6080  136.7270 C   0  0  0  0  0  2  0  0  0  0  0  0
  190.0230  176.8160  138.2360 N   0  0  0  0  0  0  0  0  0  0  0  0
  188.7670  178.8500  138.0520 C   0  0  0  0  0  2  0  0  0  0  0  0
  190.0070  177.2110  136.8310 C   0  0  1  0  0  3  0  0  0  0  0  0
  189.5080  177.9440  139.0070 C   0  0  1  0  0  3  0  0  0  0  0  0
  191.3230  176.6650  138.5830 O   0  0  0  0  0  1  0  0  0  0  0  0
  187.6310  177.0780  135.2960 C   0  0  0  0  0  1  0  0  0  0  0  0
  188.9880  176.0560  135.8900 S   0  0  2  0  0  0  0  0  0  0  0  0
  188.3300  175.2040  136.9660 O   0  0  0  0  0  0  0  0  0  0  0  0
  190.8440  177.1550  142.1720 C   0  0  0  0  0  2  0  0  0  0  0  0
  191.4110  176.3670  143.3360 C   0  0  0  0  0  1  0  0  0  0  0  0
  186.8480  176.9950  145.1350 C   0  0  0  0  0  2  0  0  0  0  0  0
  186.9240  177.6420  146.4010 O   0  0  0  0  0  0  0  0  0  0  0  0
  188.9910  176.7530  146.9360 O   0  0  0  0  0  0  0  0  0  0  0  0
  188.0270  177.5030  147.2460 C   0  0  0  0  0  0  0  0  0  0  0  0
  188.0650  178.2540  148.5270 C   0  0  0  0  0  1  0  0  0  0  0  0
  1  8  1  0  0  0  0
  2  6  1  1  0  0  0
  2 10  1  0  0  0  0
  3  5  2  0  0  0  0
  4  5  1  6  0  0  0
  4  7  1  0  0  0  0
  5  9  1  0  0  0  0
  7 12  1  0  0  0  0
  7 13  1  0  0  0  0
  8  6  1  0  0  0  0
  9  1  1  0  0  0  0
  9 12  1  0  0  0  0
 10 25  1  0  0  0  0
 11 10  1  0  0  0  0
 12  2  1  0  0  0  0
 13 11  1  0  0  0  0
 14 17  1  0  0  0  0
 14 16  1  0  0  0  0
 15 19  1  0  0  0  0
 15 18  1  0  0  0  0
 16 18  1  0  0  0  0
 17 15  1  0  0  0  0
 18  4  1  0  0  0  0
 20 21  1  0  0  0  0
 21 17  1  0  0  0  0
 21 22  2  0  0  0  0
 23 13  1  0  0  0  0
 23 24  1  0  0  0  0
 25 26  1  0  0  0  0
 26 28  1  0  0  0  0
 27 28  2  0  0  0  0
 28 29  1  0  0  0  0
M  END
>  <MODEL>
7

>  <REMARK>
 VINA RESULT:      -7.0      2.406      4.696
  Name = 
  6 active torsions:
  status: ('A' for Active; 'I' for Inactive)
    1  A    between atoms: C_8  and  O_10
    2  A    between atoms: C_9  and  C_22
    3  A    between atoms: O_10  and  C_23
    4  A    between atoms: C_11  and  C_29
    5  A    between atoms: C_20  and  C_23
    6  A    between atoms: C_21  and  S_25
                            x       y       z     vdW  Elec       q    Type
                         _______ _______ _______ _____ _____    ______ ____

>  <TORSDO>
F 6

$$$$
=
 OpenBabel10222418483D

 29 32  0  0  1  0  0  0  0  0999 V2000
  183.4450  179.3590  144.0760 C   0  0  0  0  0  2  0  0  0  0  0  0
  186.1450  178.2990  143.8130 C   0  0  2  0  0  3  0  0  0  0  0  0
  182.6670  177.8700  141.6580 O   0  0  0  0  0  0  0  0  0  0  0  0
  184.8960  178.1940  140.7390 C   0  0  2  0  0  3  0  0  0  0  0  0
  183.8070  178.4010  141.7400 C   0  0  0  0  0  0  0  0  0  0  0  0
  185.5960  178.6260  145.2000 C   0  0  0  0  0  2  0  0  0  0  0  0
  186.0480  179.0140  141.3680 C   0  0  1  0  0  3  0  0  0  0  0  0
  184.0690  178.4740  145.1640 C   0  0  0  0  0  2  0  0  0  0  0  0
  184.1920  179.2240  142.8270 N   0  0  0  0  0  0  0  0  0  0  0  0
  187.6510  178.1260  143.7170 C   0  0  2  0  0  3  0  0  0  0  0  0
  187.9260  177.5260  142.3460 C   0  0  0  0  0  2  0  0  0  0  0  0
  185.6330  179.3460  142.8170 C   0  0  1  0  0  3  0  0  0  0  0  0
  187.5010  178.4850  141.2330 C   0  0  1  0  0  3  0  0  0  0  0  0
  182.4870  179.6620  138.3450 C   0  0  0  0  0  2  0  0  0  0  0  0
  183.9960  177.7780  138.4490 N   0  0  0  0  0  0  0  0  0  0  0  0
  183.2710  179.7380  139.6240 C   0  0  0  0  0  2  0  0  0  0  0  0
  182.8140  178.3000  137.7690 C   0  0  1  0  0  3  0  0  0  0  0  0
  184.4310  178.7950  139.4020 C   0  0  1  0  0  3  0  0  0  0  0  0
  184.9700  177.6760  137.5140 O   0  0  0  0  0  1  0  0  0  0  0  0
  180.2750  178.1450  139.0110 C   0  0  0  0  0  1  0  0  0  0  0  0
  181.4260  177.1760  138.0240 S   0  0  2  0  0  0  0  0  0  0  0  0
  181.9650  176.1620  139.0230 O   0  0  0  0  0  0  0  0  0  0  0  0
  187.8010  177.8790  139.8710 C   0  0  0  0  0  2  0  0  0  0  0  0
  189.0570  178.4920  139.2810 C   0  0  0  0  0  1  0  0  0  0  0  0
  188.1600  177.1640  144.7840 C   0  0  0  0  0  2  0  0  0  0  0  0
  189.2650  177.7270  145.4820 O   0  0  0  0  0  0  0  0  0  0  0  0
  191.2280  176.5040  145.5130 O   0  0  0  0  0  0  0  0  0  0  0  0
  190.5870  177.5040  145.0910 C   0  0  0  0  0  0  0  0  0  0  0  0
  191.2450  178.4580  144.1610 C   0  0  0  0  0  1  0  0  0  0  0  0
  1  8  1  0  0  0  0
  2  6  1  1  0  0  0
  3  5  2  0  0  0  0
  4  7  1  0  0  0  0
  4  5  1  1  0  0  0
  5  9  1  0  0  0  0
  7 12  1  0  0  0  0
  8  6  1  0  0  0  0
  9  1  1  0  0  0  0
 10  2  1  0  0  0  0
 10 25  1  0  0  0  0
 11 10  1  0  0  0  0
 12  9  1  0  0  0  0
 12  2  1  0  0  0  0
 13  7  1  0  0  0  0
 13 11  1  0  0  0  0
 14 16  1  0  0  0  0
 15 18  1  0  0  0  0
 17 21  1  0  0  0  0
 17 14  1  0  0  0  0
 17 15  1  0  0  0  0
 18 16  1  0  0  0  0
 18  4  1  0  0  0  0
 19 15  1  0  0  0  0
 21 20  1  0  0  0  0
 21 22  2  0  0  0  0
 23 13  1  0  0  0  0
 24 23  1  0  0  0  0
 25 26  1  0  0  0  0
 28 26  1  0  0  0  0
 28 27  2  0  0  0  0
 29 28  1  0  0  0  0
M  END
>  <MODEL>
8

>  <REMARK>
 VINA RESULT:      -6.8      2.276      4.016
  Name = 
  6 active torsions:
  status: ('A' for Active; 'I' for Inactive)
    1  A    between atoms: C_8  and  O_10
    2  A    between atoms: C_9  and  C_22
    3  A    between atoms: O_10  and  C_23
    4  A    between atoms: C_11  and  C_29
    5  A    between atoms: C_20  and  C_23
    6  A    between atoms: C_21  and  S_25
                            x       y       z     vdW  Elec       q    Type
                         _______ _______ _______ _____ _____    ______ ____

>  <TORSDO>
F 6

$$$$
=
 OpenBabel10222418483D

 29 32  0  0  1  0  0  0  0  0999 V2000
  183.0870  179.3340  143.9190 C   0  0  0  0  0  2  0  0  0  0  0  0
  185.8280  178.3690  143.7160 C   0  0  2  0  0  3  0  0  0  0  0  0
  182.4170  177.8250  141.4810 O   0  0  0  0  0  0  0  0  0  0  0  0
  184.6530  178.2280  140.6140 C   0  0  2  0  0  3  0  0  0  0  0  0
  183.5350  178.3950  141.5900 C   0  0  0  0  0  0  0  0  0  0  0  0
  185.2360  178.6720  145.0900 C   0  0  0  0  0  2  0  0  0  0  0  0
  185.7610  179.0860  141.2700 C   0  0  1  0  0  3  0  0  0  0  0  0
  183.7170  178.4680  145.0190 C   0  0  0  0  0  2  0  0  0  0  0  0
  183.8670  179.2280  142.6870 N   0  0  0  0  0  0  0  0  0  0  0  0
  187.3400  178.2480  143.6540 C   0  0  2  0  0  3  0  0  0  0  0  0
  187.6670  177.6610  142.2880 C   0  0  0  0  0  2  0  0  0  0  0  0
  185.3020  179.3990  142.7110 C   0  0  1  0  0  3  0  0  0  0  0  0
  187.2350  178.6080  141.1670 C   0  0  1  0  0  3  0  0  0  0  0  0
  182.2990  179.8000  138.2310 C   0  0  0  0  0  2  0  0  0  0  0  0
  183.6550  177.8040  138.3670 N   0  0  0  0  0  0  0  0  0  0  0  0
  183.1250  179.8580  139.4840 C   0  0  0  0  0  2  0  0  0  0  0  0
  182.4990  178.3950  137.6990 C   0  0  1  0  0  3  0  0  0  0  0  0
  184.1980  178.8160  139.2680 C   0  0  1  0  0  3  0  0  0  0  0  0
  184.5880  177.5890  137.4100 O   0  0  0  0  0  1  0  0  0  0  0  0
  180.3810  177.0410  136.3950 C   0  0  0  0  0  1  0  0  0  0  0  0
  181.0320  177.3990  138.0340 S   0  0  2  0  0  0  0  0  0  0  0  0
  180.0340  178.4070  138.5870 O   0  0  0  0  0  0  0  0  0  0  0  0
  187.5860  178.0170  139.8120 C   0  0  0  0  0  2  0  0  0  0  0  0
  189.0370  178.2960  139.4700 C   0  0  0  0  0  1  0  0  0  0  0  0
  187.8570  177.3010  144.7300 C   0  0  0  0  0  2  0  0  0  0  0  0
  188.9280  177.8990  145.4520 O   0  0  0  0  0  0  0  0  0  0  0  0
  190.9590  176.8960  144.9810 O   0  0  0  0  0  0  0  0  0  0  0  0
  190.0690  177.1850  145.8250 C   0  0  0  0  0  0  0  0  0  0  0  0
  190.2360  176.7630  147.2400 C   0  0  0  0  0  1  0  0  0  0  0  0
  1  8  1  0  0  0  0
  2  6  1  1  0  0  0
  3  5  2  0  0  0  0
  4  7  1  0  0  0  0
  4  5  1  1  0  0  0
  5  9  1  0  0  0  0
  7 12  1  0  0  0  0
  8  6  1  0  0  0  0
  9 12  1  0  0  0  0
  9  1  1  0  0  0  0
 10  2  1  0  0  0  0
 10 25  1  0  0  0  0
 11 10  1  0  0  0  0
 12  2  1  0  0  0  0
 13  7  1  0  0  0  0
 13 11  1  0  0  0  0
 14 16  1  0  0  0  0
 15 18  1  0  0  0  0
 17 21  1  0  0  0  0
 17 14  1  0  0  0  0
 17 15  1  0  0  0  0
 18 16  1  0  0  0  0
 18  4  1  0  0  0  0
 19 15  1  0  0  0  0
 20 21  1  0  0  0  0
 21 22  2  0  0  0  0
 23 13  1  0  0  0  0
 24 23  1  0  0  0  0
 25 26  1  0  0  0  0
 26 28  1  0  0  0  0
 27 28  2  0  0  0  0
 28 29  1  0  0  0  0
M  END
>  <MODEL>
9

>  <REMARK>
 VINA RESULT:      -6.6      2.371      4.069
  Name = 
  6 active torsions:
  status: ('A' for Active; 'I' for Inactive)
    1  A    between atoms: C_8  and  O_10
    2  A    between atoms: C_9  and  C_22
    3  A    between atoms: O_10  and  C_23
    4  A    between atoms: C_11  and  C_29
    5  A    between atoms: C_20  and  C_23
    6  A    between atoms: C_21  and  S_25
                            x       y       z     vdW  Elec       q    Type
                         _______ _______ _______ _____ _____    ______ ____

>  <TORSDO>
F 6

$$$$
