=
 OpenBabel10222420283D

 31 32  0  0  1  0  0  0  0  0999 V2000
  184.3320  178.2400  143.4960 C   0  0  2  0  0  3  0  0  0  0  0  0
  187.5340  178.2440  148.3670 C   0  0  0  0  0  2  0  0  0  0  0  0
  185.4370  178.4990  146.9600 C   0  0  0  0  0  3  0  0  0  0  0  0
  188.0850  177.3050  147.3910 N   0  0  0  0  0  2  0  0  0  0  0  0
  187.9880  176.9260  145.0460 C   0  0  0  0  0  3  0  0  0  0  0  0
  187.3500  176.4220  142.8750 F   0  0  0  0  0  0  0  0  0  0  0  0
  185.4690  178.4860  145.6490 C   0  0  0  0  0  0  0  0  0  0  0  0
  185.5490  178.4340  144.3370 C   0  0  0  0  0  0  0  0  0  0  0  0
  186.5110  179.2080  147.7320 C   0  0  0  0  0  2  0  0  0  0  0  0
  188.2930  177.7320  146.0520 C   0  0  0  0  0  3  0  0  0  0  0  0
  187.8490  177.4560  143.6460 C   0  0  1  0  0  0  0  0  0  0  0  0
  184.8850  178.1670  141.7620 S   0  0  0  0  0  0  0  0  0  0  0  0
  186.4040  179.0760  142.1820 C   0  0  1  0  0  3  0  0  0  0  0  0
  186.8450  178.6650  143.5940 C   0  0  1  0  0  3  0  0  0  0  0  0
  183.3640  179.4020  143.6760 C   0  0  0  0  0  2  0  0  0  0  0  0
  182.0590  178.9220  143.7770 O   0  0  0  0  0  1  0  0  0  0  0  0
  189.2330  177.8260  143.0810 C   0  0  0  0  0  2  0  0  0  0  0  0
  190.2010  176.6520  143.0060 C   0  0  0  0  0  2  0  0  0  0  0  0
  191.5130  177.0230  143.6710 C   0  0  0  0  0  2  0  0  0  0  0  0
  191.6890  176.2370  144.9590 C   0  0  0  0  0  2  0  0  0  0  0  0
  191.7720  177.1150  146.0520 O   0  0  0  0  0  0  0  0  0  0  0  0
  190.6350  175.6300  147.3950 F   0  0  0  0  0  0  0  0  0  0  0  0
  192.8570  175.4460  147.1330 F   0  0  0  0  0  0  0  0  0  0  0  0
  191.8120  176.3450  147.2310 C   0  0  0  0  0  0  0  0  0  0  0  0
  192.0320  177.1510  148.3370 F   0  0  0  0  0  0  0  0  0  0  0  0
  187.3850  178.8690  141.2100 O   0  0  0  0  0  0  0  0  0  0  0  0
  186.6980  178.3260  140.1220 C   0  0  0  0  0  2  0  0  0  0  0  0
  188.6540  177.8950  138.5790 C   0  0  0  0  0  0  0  0  0  0  0  0
  187.4400  178.5780  138.8960 N   0  0  0  0  0  2  0  0  0  0  0  0
  189.1470  177.0560  139.3800 O   0  0  0  0  0  0  0  0  0  0  0  0
  189.3160  178.1690  137.3510 N   0  0  0  0  0  1  0  0  0  0  0  0
  1 15  1  6  0  0  0
  1  8  1  0  0  0  0
  3  9  1  0  0  0  0
  4  2  1  0  0  0  0
  5 10  2  0  0  0  0
  7  3  2  0  0  0  0
  8  7  2  0  0  0  0
  9  2  1  0  0  0  0
 10  4  1  0  0  0  0
 11  6  1  6  0  0  0
 11  5  1  0  0  0  0
 12 13  1  0  0  0  0
 12  1  1  0  0  0  0
 13 26  1  6  0  0  0
 13 14  1  0  0  0  0
 14 11  1  0  0  0  0
 14  8  1  1  0  0  0
 15 16  1  0  0  0  0
 17 11  1  0  0  0  0
 18 17  1  0  0  0  0
 18 19  1  0  0  0  0
 19 20  1  0  0  0  0
 20 21  1  0  0  0  0
 21 24  1  0  0  0  0
 23 24  1  0  0  0  0
 24 22  1  0  0  0  0
 24 25  1  0  0  0  0
 27 26  1  0  0  0  0
 28 29  1  0  0  0  0
 28 30  2  0  0  0  0
 29 27  1  0  0  0  0
 31 28  1  0  0  0  0
M  END
>  <MODEL>
1

>  <REMARK>
 VINA RESULT:      -7.7      0.000      0.000
  Name = 
  10 active torsions:
  status: ('A' for Active; 'I' for Inactive)
    1  A    between atoms: C_1  and  N_10
    2  A    between atoms: C_1  and  O_16
    3  A    between atoms: C_2  and  C_5
    4  A    between atoms: C_3  and  C_8
    5  A    between atoms: C_3  and  C_23
    6  A    between atoms: C_8  and  C_29
    7  A    between atoms: O_16  and  C_26
    8  A    between atoms: C_18  and  O_27
    9  A    between atoms: C_18  and  C_29
   10  A    between atoms: C_24  and  O_27
                            x       y       z     vdW  Elec       q    Type
                         _______ _______ _______ _____ _____    ______ ____

>  <TORSDO>
F 10

$$$$
=
 OpenBabel10222420283D

 31 32  0  0  1  0  0  0  0  0999 V2000
  186.8360  178.4480  145.4100 C   0  0  2  0  0  3  0  0  0  0  0  0
  184.2570  178.6390  140.1870 C   0  0  0  0  0  2  0  0  0  0  0  0
  184.3950  178.7390  142.7190 C   0  0  0  0  0  3  0  0  0  0  0  0
  185.6540  179.0570  140.0850 N   0  0  0  0  0  2  0  0  0  0  0  0
  187.6670  178.8280  141.3290 C   0  0  0  0  0  3  0  0  0  0  0  0
  189.3540  178.9380  142.9160 F   0  0  0  0  0  0  0  0  0  0  0  0
  185.4810  178.4030  143.3730 C   0  0  0  0  0  0  0  0  0  0  0  0
  186.6030  178.0850  143.9820 C   0  0  0  0  0  0  0  0  0  0  0  0
  183.9560  177.9390  141.5280 C   0  0  0  0  0  2  0  0  0  0  0  0
  186.6670  178.2550  140.6760 C   0  0  0  0  0  3  0  0  0  0  0  0
  188.5400  178.0320  142.2590 C   0  0  1  0  0  0  0  0  0  0  0  0
  188.5140  177.8830  145.8390 S   0  0  0  0  0  0  0  0  0  0  0  0
  188.4760  176.6640  144.4900 C   0  0  1  0  0  3  0  0  0  0  0  0
  187.6770  177.2540  143.3190 C   0  0  1  0  0  3  0  0  0  0  0  0
  185.8190  177.7600  146.3120 C   0  0  0  0  0  2  0  0  0  0  0  0
  184.9160  178.6980  146.8100 O   0  0  0  0  0  1  0  0  0  0  0  0
  189.4540  177.0920  141.4510 C   0  0  0  0  0  2  0  0  0  0  0  0
  190.9070  177.5440  141.3970 C   0  0  0  0  0  2  0  0  0  0  0  0
  191.4770  177.2830  140.0160 C   0  0  0  0  0  2  0  0  0  0  0  0
  190.3940  176.7460  139.0950 C   0  0  0  0  0  2  0  0  0  0  0  0
  190.4630  177.3860  137.8460 O   0  0  0  0  0  0  0  0  0  0  0  0
  189.1670  178.5810  136.3660 F   0  0  0  0  0  0  0  0  0  0  0  0
  188.2010  177.3380  137.9670 F   0  0  0  0  0  0  0  0  0  0  0  0
  189.2870  178.1420  137.6760 C   0  0  0  0  0  0  0  0  0  0  0  0
  189.2710  179.2270  138.5400 F   0  0  0  0  0  0  0  0  0  0  0  0
  189.7710  176.2760  144.1410 O   0  0  0  0  0  0  0  0  0  0  0  0
  190.6010  176.9990  145.0000 C   0  0  0  0  0  2  0  0  0  0  0  0
  191.9480  176.2110  146.9910 C   0  0  0  0  0  0  0  0  0  0  0  0
  191.5690  176.1050  145.6170 N   0  0  0  0  0  2  0  0  0  0  0  0
  191.4680  177.1180  147.7210 O   0  0  0  0  0  0  0  0  0  0  0  0
  192.8800  175.2870  147.5370 N   0  0  0  0  0  1  0  0  0  0  0  0
  1 12  1  0  0  0  0
  1 15  1  1  0  0  0
  2  9  1  0  0  0  0
  3  7  2  0  0  0  0
  4  2  1  0  0  0  0
  4 10  1  0  0  0  0
  5 11  1  0  0  0  0
  7  8  2  0  0  0  0
  8  1  1  0  0  0  0
  9  3  1  0  0  0  0
 10  5  2  0  0  0  0
 11  6  1  1  0  0  0
 11 14  1  0  0  0  0
 13 26  1  6  0  0  0
 13 12  1  0  0  0  0
 14  8  1  1  0  0  0
 14 13  1  0  0  0  0
 15 16  1  0  0  0  0
 17 11  1  0  0  0  0
 18 17  1  0  0  0  0
 19 18  1  0  0  0  0
 20 19  1  0  0  0  0
 21 20  1  0  0  0  0
 22 24  1  0  0  0  0
 24 21  1  0  0  0  0
 24 23  1  0  0  0  0
 24 25  1  0  0  0  0
 26 27  1  0  0  0  0
 27 29  1  0  0  0  0
 28 31  1  0  0  0  0
 28 30  2  0  0  0  0
 29 28  1  0  0  0  0
M  END
>  <MODEL>
2

>  <REMARK>
 VINA RESULT:      -7.7      3.001      6.616
  Name = 
  10 active torsions:
  status: ('A' for Active; 'I' for Inactive)
    1  A    between atoms: C_1  and  N_10
    2  A    between atoms: C_1  and  O_16
    3  A    between atoms: C_2  and  C_5
    4  A    between atoms: C_3  and  C_8
    5  A    between atoms: C_3  and  C_23
    6  A    between atoms: C_8  and  C_29
    7  A    between atoms: O_16  and  C_26
    8  A    between atoms: C_18  and  O_27
    9  A    between atoms: C_18  and  C_29
   10  A    between atoms: C_24  and  O_27
                            x       y       z     vdW  Elec       q    Type
                         _______ _______ _______ _____ _____    ______ ____

>  <TORSDO>
F 10

$$$$
=
 OpenBabel10222420283D

 31 32  0  0  1  0  0  0  0  0999 V2000
  185.4900  178.1240  140.7930 C   0  0  2  0  0  3  0  0  0  0  0  0
  185.5510  178.3640  146.6170 C   0  0  0  0  0  2  0  0  0  0  0  0
  184.5550  178.5520  144.2910 C   0  0  0  0  0  3  0  0  0  0  0  0
  186.5160  177.3780  146.1340 N   0  0  0  0  0  2  0  0  0  0  0  0
  187.6920  176.8850  144.1270 C   0  0  0  0  0  3  0  0  0  0  0  0
  188.3140  176.2750  141.9780 F   0  0  0  0  0  0  0  0  0  0  0  0
  185.2890  178.4740  143.2070 C   0  0  0  0  0  0  0  0  0  0  0  0
  186.0640  178.3570  142.1500 C   0  0  0  0  0  0  0  0  0  0  0  0
  185.0600  179.2970  145.4910 C   0  0  0  0  0  2  0  0  0  0  0  0
  187.4260  177.7390  145.1040 C   0  0  0  0  0  3  0  0  0  0  0  0
  188.3450  177.3450  142.8540 C   0  0  1  0  0  0  0  0  0  0  0  0
  186.8890  177.9660  139.6390 S   0  0  0  0  0  0  0  0  0  0  0  0
  187.9650  178.8920  140.7760 C   0  0  1  0  0  3  0  0  0  0  0  0
  187.5610  178.5510  142.2170 C   0  0  1  0  0  3  0  0  0  0  0  0
  184.6100  179.2940  140.3740 C   0  0  0  0  0  2  0  0  0  0  0  0
  184.9540  179.7090  139.0880 O   0  0  0  0  0  1  0  0  0  0  0  0
  189.8240  177.6860  143.1130 C   0  0  0  0  0  2  0  0  0  0  0  0
  190.7860  176.5580  142.7630 C   0  0  0  0  0  2  0  0  0  0  0  0
  191.5200  176.1000  144.0090 C   0  0  0  0  0  2  0  0  0  0  0  0
  191.1840  177.0100  145.1790 C   0  0  0  0  0  2  0  0  0  0  0  0
  192.0930  176.7990  146.2290 O   0  0  0  0  0  0  0  0  0  0  0  0
  191.5620  175.1160  147.7070 F   0  0  0  0  0  0  0  0  0  0  0  0
  191.7960  177.2280  148.4340 F   0  0  0  0  0  0  0  0  0  0  0  0
  191.3590  176.4490  147.3790 C   0  0  0  0  0  0  0  0  0  0  0  0
  190.0060  176.6870  147.1910 F   0  0  0  0  0  0  0  0  0  0  0  0
  189.3090  178.6370  140.4990 O   0  0  0  0  0  0  0  0  0  0  0  0
  189.3150  178.1480  139.1910 C   0  0  0  0  0  2  0  0  0  0  0  0
  190.1200  175.9470  138.2400 C   0  0  0  0  0  0  0  0  0  0  0  0
  190.3150  177.0990  139.0620 N   0  0  0  0  0  2  0  0  0  0  0  0
  189.0410  175.7840  137.6090 O   0  0  0  0  0  0  0  0  0  0  0  0
  191.1490  174.9720  138.1380 N   0  0  0  0  0  1  0  0  0  0  0  0
  1 15  1  6  0  0  0
  1  8  1  0  0  0  0
  3  9  1  0  0  0  0
  4  2  1  0  0  0  0
  5 10  2  0  0  0  0
  7  3  2  0  0  0  0
  8  7  2  0  0  0  0
  9  2  1  0  0  0  0
 10  4  1  0  0  0  0
 11  6  1  6  0  0  0
 11 17  1  0  0  0  0
 11  5  1  0  0  0  0
 12 13  1  0  0  0  0
 12  1  1  0  0  0  0
 13 26  1  1  0  0  0
 13 14  1  0  0  0  0
 14  8  1  6  0  0  0
 14 11  1  0  0  0  0
 16 15  1  0  0  0  0
 18 17  1  0  0  0  0
 18 19  1  0  0  0  0
 19 20  1  0  0  0  0
 20 21  1  0  0  0  0
 21 24  1  0  0  0  0
 24 22  1  0  0  0  0
 24 23  1  0  0  0  0
 25 24  1  0  0  0  0
 27 26  1  0  0  0  0
 28 29  1  0  0  0  0
 29 27  1  0  0  0  0
 30 28  2  0  0  0  0
 31 28  1  0  0  0  0
M  END
>  <MODEL>
3

>  <REMARK>
 VINA RESULT:      -7.4      1.793      2.365
  Name = 
  10 active torsions:
  status: ('A' for Active; 'I' for Inactive)
    1  A    between atoms: C_1  and  N_10
    2  A    between atoms: C_1  and  O_16
    3  A    between atoms: C_2  and  C_5
    4  A    between atoms: C_3  and  C_8
    5  A    between atoms: C_3  and  C_23
    6  A    between atoms: C_8  and  C_29
    7  A    between atoms: O_16  and  C_26
    8  A    between atoms: C_18  and  O_27
    9  A    between atoms: C_18  and  C_29
   10  A    between atoms: C_24  and  O_27
                            x       y       z     vdW  Elec       q    Type
                         _______ _______ _______ _____ _____    ______ ____

>  <TORSDO>
F 10

$$$$
=
 OpenBabel10222420283D

 31 32  0  0  1  0  0  0  0  0999 V2000
  183.5730  178.3590  143.6710 C   0  0  2  0  0  3  0  0  0  0  0  0
  187.5920  178.1500  147.8880 C   0  0  0  0  0  2  0  0  0  0  0  0
  185.2680  178.3920  146.8990 C   0  0  0  0  0  3  0  0  0  0  0  0
  188.0030  177.3340  146.7460 N   0  0  0  0  0  2  0  0  0  0  0  0
  187.5050  177.1510  144.4290 C   0  0  0  0  0  3  0  0  0  0  0  0
  186.5120  176.7940  142.3640 F   0  0  0  0  0  0  0  0  0  0  0  0
  185.0650  178.4920  145.6070 C   0  0  0  0  0  0  0  0  0  0  0  0
  184.9110  178.5570  144.3020 C   0  0  0  0  0  0  0  0  0  0  0  0
  186.4280  179.0990  147.5350 C   0  0  0  0  0  2  0  0  0  0  0  0
  187.9470  177.8860  145.4380 C   0  0  0  0  0  3  0  0  0  0  0  0
  187.0930  177.7880  143.1310 C   0  0  1  0  0  0  0  0  0  0  0  0
  183.8090  178.4700  141.8690 S   0  0  0  0  0  0  0  0  0  0  0  0
  185.3350  179.4330  142.1020 C   0  0  1  0  0  3  0  0  0  0  0  0
  186.0400  178.9320  143.3700 C   0  0  1  0  0  3  0  0  0  0  0  0
  182.6000  179.4390  144.1270 C   0  0  0  0  0  2  0  0  0  0  0  0
  181.7320  179.7660  143.0860 O   0  0  0  0  0  1  0  0  0  0  0  0
  188.3350  178.2910  142.3720 C   0  0  0  0  0  2  0  0  0  0  0  0
  188.7920  177.3610  141.2570 C   0  0  0  0  0  2  0  0  0  0  0  0
  190.2930  177.1590  141.3370 C   0  0  0  0  0  2  0  0  0  0  0  0
  190.7430  177.1370  142.7880 C   0  0  0  0  0  2  0  0  0  0  0  0
  191.8300  178.0070  142.9700 O   0  0  0  0  0  0  0  0  0  0  0  0
  190.5090  179.6050  143.9710 F   0  0  0  0  0  0  0  0  0  0  0  0
  191.3200  177.8910  145.1740 F   0  0  0  0  0  0  0  0  0  0  0  0
  191.5980  178.7610  144.1360 C   0  0  0  0  0  0  0  0  0  0  0  0
  192.7200  179.5010  144.4760 F   0  0  0  0  0  0  0  0  0  0  0  0
  186.1340  179.3710  140.9590 O   0  0  0  0  0  0  0  0  0  0  0  0
  185.3130  178.8040  139.9820 C   0  0  0  0  0  2  0  0  0  0  0  0
  185.5400  177.8560  137.6480 C   0  0  0  0  0  0  0  0  0  0  0  0
  186.1090  178.4490  138.8170 N   0  0  0  0  0  2  0  0  0  0  0  0
  184.3090  177.5900  137.5980 O   0  0  0  0  0  0  0  0  0  0  0  0
  186.3700  177.5580  136.5340 N   0  0  0  0  0  1  0  0  0  0  0  0
  1 15  1  1  0  0  0
  1  8  1  0  0  0  0
  3  9  1  0  0  0  0
  4  2  1  0  0  0  0
  5 10  2  0  0  0  0
  7  3  2  0  0  0  0
  8  7  2  0  0  0  0
  9  2  1  0  0  0  0
 10  4  1  0  0  0  0
 11  6  1  6  0  0  0
 11 14  1  0  0  0  0
 11  5  1  0  0  0  0
 12 13  1  0  0  0  0
 12  1  1  0  0  0  0
 13 26  1  6  0  0  0
 13 14  1  0  0  0  0
 14  8  1  1  0  0  0
 16 15  1  0  0  0  0
 17 11  1  0  0  0  0
 18 19  1  0  0  0  0
 18 17  1  0  0  0  0
 19 20  1  0  0  0  0
 20 21  1  0  0  0  0
 21 24  1  0  0  0  0
 22 24  1  0  0  0  0
 24 25  1  0  0  0  0
 24 23  1  0  0  0  0
 27 26  1  0  0  0  0
 28 29  1  0  0  0  0
 29 27  1  0  0  0  0
 30 28  2  0  0  0  0
 31 28  1  0  0  0  0
M  END
>  <MODEL>
4

>  <REMARK>
 VINA RESULT:      -7.2      2.057      2.345
  Name = 
  10 active torsions:
  status: ('A' for Active; 'I' for Inactive)
    1  A    between atoms: C_1  and  N_10
    2  A    between atoms: C_1  and  O_16
    3  A    between atoms: C_2  and  C_5
    4  A    between atoms: C_3  and  C_8
    5  A    between atoms: C_3  and  C_23
    6  A    between atoms: C_8  and  C_29
    7  A    between atoms: O_16  and  C_26
    8  A    between atoms: C_18  and  O_27
    9  A    between atoms: C_18  and  C_29
   10  A    between atoms: C_24  and  O_27
                            x       y       z     vdW  Elec       q    Type
                         _______ _______ _______ _____ _____    ______ ____

>  <TORSDO>
F 10

$$$$
=
 OpenBabel10222420283D

 31 32  0  0  1  0  0  0  0  0999 V2000
  187.6490  178.5410  139.9150 C   0  0  2  0  0  3  0  0  0  0  0  0
  192.9990  176.5000  138.8280 C   0  0  0  0  0  2  0  0  0  0  0  0
  190.6690  177.3340  138.2690 C   0  0  0  0  0  3  0  0  0  0  0  0
  192.9860  177.2700  140.0710 N   0  0  0  0  0  2  0  0  0  0  0  0
  191.4020  178.0050  141.6830 C   0  0  0  0  0  3  0  0  0  0  0  0
  189.6710  179.0480  142.8210 F   0  0  0  0  0  0  0  0  0  0  0  0
  189.7570  177.5310  139.1900 C   0  0  0  0  0  0  0  0  0  0  0  0
  188.8880  177.7450  140.1550 C   0  0  0  0  0  0  0  0  0  0  0  0
  191.5770  176.1420  138.3520 C   0  0  0  0  0  2  0  0  0  0  0  0
  191.9890  177.0030  141.0470 C   0  0  0  0  0  3  0  0  0  0  0  0
  190.1180  177.7970  142.4370 C   0  0  1  0  0  0  0  0  0  0  0  0
  186.7630  178.6440  141.5030 S   0  0  0  0  0  0  0  0  0  0  0  0
  187.6040  177.1450  142.0990 C   0  0  1  0  0  3  0  0  0  0  0  0
  189.0280  177.1230  141.5250 C   0  0  1  0  0  3  0  0  0  0  0  0
  186.7640  177.8590  138.8790 C   0  0  0  0  0  2  0  0  0  0  0  0
  186.6110  178.6860  137.7680 O   0  0  0  0  0  1  0  0  0  0  0  0
  190.3840  176.9870  143.7190 C   0  0  0  0  0  2  0  0  0  0  0  0
  190.9390  177.8190  144.8680 C   0  0  0  0  0  2  0  0  0  0  0  0
  189.9470  177.8410  146.0140 C   0  0  0  0  0  2  0  0  0  0  0  0
  190.3340  176.8120  147.0630 C   0  0  0  0  0  2  0  0  0  0  0  0
  191.7030  176.9170  147.3590 O   0  0  0  0  0  0  0  0  0  0  0  0
  191.4220  174.7420  148.0570 F   0  0  0  0  0  0  0  0  0  0  0  0
  192.3660  175.1790  146.0670 F   0  0  0  0  0  0  0  0  0  0  0  0
  192.2490  175.6200  147.3720 C   0  0  0  0  0  0  0  0  0  0  0  0
  193.5110  175.6220  147.9460 F   0  0  0  0  0  0  0  0  0  0  0  0
  187.5650  177.0810  143.4930 O   0  0  0  0  0  0  0  0  0  0  0  0
  186.4220  177.8000  143.8490 C   0  0  0  0  0  2  0  0  0  0  0  0
  185.4750  178.9310  145.9030 C   0  0  0  0  0  0  0  0  0  0  0  0
  186.5340  178.2490  145.2290 N   0  0  0  0  0  2  0  0  0  0  0  0
  184.3980  179.1960  145.3060 O   0  0  0  0  0  0  0  0  0  0  0  0
  185.6410  179.3190  147.2610 N   0  0  0  0  0  1  0  0  0  0  0  0
  1 15  1  6  0  0  0
  1  8  1  0  0  0  0
  1 12  1  0  0  0  0
  2  4  1  0  0  0  0
  3  9  1  0  0  0  0
  3  7  2  0  0  0  0
  4 10  1  0  0  0  0
  5 11  1  0  0  0  0
  7  8  2  0  0  0  0
  9  2  1  0  0  0  0
 10  5  2  0  0  0  0
 11  6  1  1  0  0  0
 11 17  1  0  0  0  0
 12 13  1  0  0  0  0
 13 26  1  1  0  0  0
 14  8  1  6  0  0  0
 14 13  1  0  0  0  0
 14 11  1  0  0  0  0
 16 15  1  0  0  0  0
 17 18  1  0  0  0  0
 18 19  1  0  0  0  0
 19 20  1  0  0  0  0
 20 21  1  0  0  0  0
 21 24  1  0  0  0  0
 23 24  1  0  0  0  0
 24 25  1  0  0  0  0
 24 22  1  0  0  0  0
 26 27  1  0  0  0  0
 27 29  1  0  0  0  0
 28 31  1  0  0  0  0
 29 28  1  0  0  0  0
 30 28  2  0  0  0  0
M  END
>  <MODEL>
5

>  <REMARK>
 VINA RESULT:      -7.0      2.371      5.894
  Name = 
  10 active torsions:
  status: ('A' for Active; 'I' for Inactive)
    1  A    between atoms: C_1  and  N_10
    2  A    between atoms: C_1  and  O_16
    3  A    between atoms: C_2  and  C_5
    4  A    between atoms: C_3  and  C_8
    5  A    between atoms: C_3  and  C_23
    6  A    between atoms: C_8  and  C_29
    7  A    between atoms: O_16  and  C_26
    8  A    between atoms: C_18  and  O_27
    9  A    between atoms: C_18  and  C_29
   10  A    between atoms: C_24  and  O_27
                            x       y       z     vdW  Elec       q    Type
                         _______ _______ _______ _____ _____    ______ ____

>  <TORSDO>
F 10

$$$$
=
 OpenBabel10222420283D

 31 32  0  0  1  0  0  0  0  0999 V2000
  186.4600  177.3300  145.5670 C   0  0  2  0  0  3  0  0  0  0  0  0
  192.0630  176.3380  146.8280 C   0  0  0  0  0  2  0  0  0  0  0  0
  189.6040  176.7320  147.3120 C   0  0  0  0  0  3  0  0  0  0  0  0
  191.7260  175.7830  145.5180 N   0  0  0  0  0  2  0  0  0  0  0  0
  190.0590  176.0700  143.8480 C   0  0  0  0  0  3  0  0  0  0  0  0
  188.0920  176.1250  142.6210 F   0  0  0  0  0  0  0  0  0  0  0  0
  188.7560  177.0910  146.3780 C   0  0  0  0  0  0  0  0  0  0  0  0
  187.9400  177.4200  145.4000 C   0  0  0  0  0  0  0  0  0  0  0  0
  190.9860  177.3160  147.3400 C   0  0  0  0  0  2  0  0  0  0  0  0
  191.0370  176.5900  144.5740 C   0  0  0  0  0  3  0  0  0  0  0  0
  189.0830  176.9520  143.1200 C   0  0  1  0  0  0  0  0  0  0  0  0
  185.7110  177.8130  143.9780 S   0  0  0  0  0  0  0  0  0  0  0  0
  187.2100  178.7370  143.5240 C   0  0  1  0  0  3  0  0  0  0  0  0
  188.4310  178.0010  144.0950 C   0  0  1  0  0  3  0  0  0  0  0  0
  185.9840  178.2730  146.6640 C   0  0  0  0  0  2  0  0  0  0  0  0
  184.9120  179.0360  146.2030 O   0  0  0  0  0  1  0  0  0  0  0  0
  189.7720  177.6250  141.9190 C   0  0  0  0  0  2  0  0  0  0  0  0
  190.5470  176.6580  141.0340 C   0  0  0  0  0  2  0  0  0  0  0  0
  190.1300  176.8370  139.5870 C   0  0  0  0  0  2  0  0  0  0  0  0
  189.2350  178.0560  139.4460 C   0  0  0  0  0  2  0  0  0  0  0  0
  188.0990  177.7350  138.6850 O   0  0  0  0  0  0  0  0  0  0  0  0
  188.4930  177.4690  136.4330 F   0  0  0  0  0  0  0  0  0  0  0  0
  187.0000  178.9860  137.1490 F   0  0  0  0  0  0  0  0  0  0  0  0
  188.2090  178.3810  137.4390 C   0  0  0  0  0  0  0  0  0  0  0  0
  189.1890  179.3610  137.4770 F   0  0  0  0  0  0  0  0  0  0  0  0
  187.2710  178.9280  142.1420 O   0  0  0  0  0  0  0  0  0  0  0  0
  186.0180  178.5260  141.6740 C   0  0  0  0  0  2  0  0  0  0  0  0
  184.3060  179.3410  140.0010 C   0  0  0  0  0  0  0  0  0  0  0  0
  185.6270  179.3540  140.5430 N   0  0  0  0  0  2  0  0  0  0  0  0
  183.4240  178.5770  140.4760 O   0  0  0  0  0  0  0  0  0  0  0  0
  183.9840  180.1950  138.9110 N   0  0  0  0  0  1  0  0  0  0  0  0
  1 15  1  1  0  0  0
  2  9  1  0  0  0  0
  3  9  1  0  0  0  0
  4  2  1  0  0  0  0
  5 10  2  0  0  0  0
  7  3  2  0  0  0  0
  8  1  1  0  0  0  0
  8  7  2  0  0  0  0
 10  4  1  0  0  0  0
 11  6  1  6  0  0  0
 11  5  1  0  0  0  0
 11 14  1  0  0  0  0
 12  1  1  0  0  0  0
 13 26  1  6  0  0  0
 13 12  1  0  0  0  0
 13 14  1  0  0  0  0
 14  8  1  1  0  0  0
 16 15  1  0  0  0  0
 17 11  1  0  0  0  0
 18 17  1  0  0  0  0
 19 18  1  0  0  0  0
 20 19  1  0  0  0  0
 21 20  1  0  0  0  0
 22 24  1  0  0  0  0
 23 24  1  0  0  0  0
 24 25  1  0  0  0  0
 24 21  1  0  0  0  0
 27 26  1  0  0  0  0
 28 30  2  0  0  0  0
 28 29  1  0  0  0  0
 29 27  1  0  0  0  0
 31 28  1  0  0  0  0
M  END
>  <MODEL>
6

>  <REMARK>
 VINA RESULT:      -7.0      2.983      5.504
  Name = 
  10 active torsions:
  status: ('A' for Active; 'I' for Inactive)
    1  A    between atoms: C_1  and  N_10
    2  A    between atoms: C_1  and  O_16
    3  A    between atoms: C_2  and  C_5
    4  A    between atoms: C_3  and  C_8
    5  A    between atoms: C_3  and  C_23
    6  A    between atoms: C_8  and  C_29
    7  A    between atoms: O_16  and  C_26
    8  A    between atoms: C_18  and  O_27
    9  A    between atoms: C_18  and  C_29
   10  A    between atoms: C_24  and  O_27
                            x       y       z     vdW  Elec       q    Type
                         _______ _______ _______ _____ _____    ______ ____

>  <TORSDO>
F 10

$$$$
=
 OpenBabel10222420283D

 31 32  0  0  1  0  0  0  0  0999 V2000
  186.9730  177.4380  144.8980 C   0  0  2  0  0  3  0  0  0  0  0  0
  192.0600  176.2330  147.4760 C   0  0  0  0  0  2  0  0  0  0  0  0
  189.5870  176.7870  147.3540 C   0  0  0  0  0  3  0  0  0  0  0  0
  191.9950  175.6130  146.1530 N   0  0  0  0  0  2  0  0  0  0  0  0
  190.7780  175.8810  144.1290 C   0  0  0  0  0  3  0  0  0  0  0  0
  189.1530  175.9620  142.4770 F   0  0  0  0  0  0  0  0  0  0  0  0
  189.0010  177.1310  146.2320 C   0  0  0  0  0  0  0  0  0  0  0  0
  188.4540  177.4390  145.0760 C   0  0  0  0  0  0  0  0  0  0  0  0
  190.9620  177.2970  147.6730 C   0  0  0  0  0  2  0  0  0  0  0  0
  191.5960  176.3940  145.0350 C   0  0  0  0  0  3  0  0  0  0  0  0
  190.0550  176.7650  143.1510 C   0  0  1  0  0  0  0  0  0  0  0  0
  186.6420  177.8570  143.1570 S   0  0  0  0  0  0  0  0  0  0  0  0
  188.2630  178.6700  143.0180 C   0  0  1  0  0  3  0  0  0  0  0  0
  189.2690  177.9080  143.8930 C   0  0  1  0  0  3  0  0  0  0  0  0
  186.3220  178.4740  145.8060 C   0  0  0  0  0  2  0  0  0  0  0  0
  185.4630  177.8440  146.7050 O   0  0  0  0  0  1  0  0  0  0  0  0
  191.0440  177.3210  142.1110 C   0  0  0  0  0  2  0  0  0  0  0  0
  191.0690  176.5380  140.8050 C   0  0  0  0  0  2  0  0  0  0  0  0
  191.2290  177.4910  139.6360 C   0  0  0  0  0  2  0  0  0  0  0  0
  191.2650  176.7160  138.3290 C   0  0  0  0  0  2  0  0  0  0  0  0
  190.9740  175.3620  138.5630 O   0  0  0  0  0  0  0  0  0  0  0  0
  191.7420  175.3890  136.3930 F   0  0  0  0  0  0  0  0  0  0  0  0
  192.7700  174.1290  137.9420 F   0  0  0  0  0  0  0  0  0  0  0  0
  191.5420  174.6050  137.5210 C   0  0  0  0  0  0  0  0  0  0  0  0
  190.7380  173.5210  137.2050 F   0  0  0  0  0  0  0  0  0  0  0  0
  188.6520  178.7680  141.6810 O   0  0  0  0  0  0  0  0  0  0  0  0
  187.4840  178.5240  140.9540 C   0  0  0  0  0  2  0  0  0  0  0  0
  186.8770  178.2660  138.5130 C   0  0  0  0  0  0  0  0  0  0  0  0
  187.8210  178.1810  139.5810 N   0  0  0  0  0  2  0  0  0  0  0  0
  185.6880  178.6200  138.7330 O   0  0  0  0  0  0  0  0  0  0  0  0
  187.2810  177.9420  137.1890 N   0  0  0  0  0  1  0  0  0  0  0  0
  1  8  1  0  0  0  0
  1 15  1  1  0  0  0
  2  9  1  0  0  0  0
  3  9  1  0  0  0  0
  4  2  1  0  0  0  0
  5 10  2  0  0  0  0
  7  3  2  0  0  0  0
  8  7  2  0  0  0  0
 10  4  1  0  0  0  0
 11  6  1  6  0  0  0
 11 14  1  0  0  0  0
 11  5  1  0  0  0  0
 12  1  1  0  0  0  0
 13 26  1  6  0  0  0
 13 12  1  0  0  0  0
 13 14  1  0  0  0  0
 14  8  1  1  0  0  0
 15 16  1  0  0  0  0
 17 11  1  0  0  0  0
 18 17  1  0  0  0  0
 19 18  1  0  0  0  0
 20 21  1  0  0  0  0
 20 19  1  0  0  0  0
 22 24  1  0  0  0  0
 24 23  1  0  0  0  0
 24 21  1  0  0  0  0
 25 24  1  0  0  0  0
 27 26  1  0  0  0  0
 28 30  2  0  0  0  0
 28 29  1  0  0  0  0
 29 27  1  0  0  0  0
 31 28  1  0  0  0  0
M  END
>  <MODEL>
7

>  <REMARK>
 VINA RESULT:      -6.7      3.146      5.108
  Name = 
  10 active torsions:
  status: ('A' for Active; 'I' for Inactive)
    1  A    between atoms: C_1  and  N_10
    2  A    between atoms: C_1  and  O_16
    3  A    between atoms: C_2  and  C_5
    4  A    between atoms: C_3  and  C_8
    5  A    between atoms: C_3  and  C_23
    6  A    between atoms: C_8  and  C_29
    7  A    between atoms: O_16  and  C_26
    8  A    between atoms: C_18  and  O_27
    9  A    between atoms: C_18  and  C_29
   10  A    between atoms: C_24  and  O_27
                            x       y       z     vdW  Elec       q    Type
                         _______ _______ _______ _____ _____    ______ ____

>  <TORSDO>
F 10

$$$$
=
 OpenBabel10222420283D

 31 32  0  0  1  0  0  0  0  0999 V2000
  184.0610  178.2530  143.5910 C   0  0  2  0  0  3  0  0  0  0  0  0
  187.5330  178.3470  148.2720 C   0  0  0  0  0  2  0  0  0  0  0  0
  185.3520  178.5330  146.9890 C   0  0  0  0  0  3  0  0  0  0  0  0
  188.0620  177.4340  147.2590 N   0  0  0  0  0  2  0  0  0  0  0  0
  187.8450  177.0660  144.9200 C   0  0  0  0  0  3  0  0  0  0  0  0
  187.1020  176.5510  142.7850 F   0  0  0  0  0  0  0  0  0  0  0  0
  185.3090  178.5280  145.6780 C   0  0  0  0  0  0  0  0  0  0  0  0
  185.3160  178.4870  144.3630 C   0  0  0  0  0  0  0  0  0  0  0  0
  186.4410  179.2760  147.7040 C   0  0  0  0  0  2  0  0  0  0  0  0
  188.1770  177.8770  145.9140 C   0  0  0  0  0  3  0  0  0  0  0  0
  187.6070  177.5990  143.5340 C   0  0  1  0  0  0  0  0  0  0  0  0
  184.5160  178.2110  141.8280 S   0  0  0  0  0  0  0  0  0  0  0  0
  186.0220  179.1720  142.1680 C   0  0  1  0  0  3  0  0  0  0  0  0
  186.5580  178.7700  143.5490 C   0  0  1  0  0  3  0  0  0  0  0  0
  183.0630  179.3780  143.8350 C   0  0  0  0  0  2  0  0  0  0  0  0
  181.7970  178.9930  143.3950 O   0  0  0  0  0  1  0  0  0  0  0  0
  188.9420  178.0230  142.8950 C   0  0  0  0  0  2  0  0  0  0  0  0
  190.1110  178.0500  143.8710 C   0  0  0  0  0  2  0  0  0  0  0  0
  191.4070  178.2780  143.1180 C   0  0  0  0  0  2  0  0  0  0  0  0
  191.6800  177.1140  142.1800 C   0  0  0  0  0  2  0  0  0  0  0  0
  192.0270  177.5930  140.9060 O   0  0  0  0  0  0  0  0  0  0  0  0
  190.1810  178.2120  139.6780 F   0  0  0  0  0  0  0  0  0  0  0  0
  191.6620  176.7490  138.8350 F   0  0  0  0  0  0  0  0  0  0  0  0
  191.0390  177.1700  139.9960 C   0  0  0  0  0  0  0  0  0  0  0  0
  190.3160  176.1060  140.5130 F   0  0  0  0  0  0  0  0  0  0  0  0
  186.9530  179.0080  141.1410 O   0  0  0  0  0  0  0  0  0  0  0  0
  186.1940  178.6280  140.0310 C   0  0  0  0  0  2  0  0  0  0  0  0
  186.6300  177.8910  137.6520 C   0  0  0  0  0  0  0  0  0  0  0  0
  187.0510  178.5280  138.8600 N   0  0  0  0  0  2  0  0  0  0  0  0
  185.4910  177.3590  137.5690 O   0  0  0  0  0  0  0  0  0  0  0  0
  187.5080  177.8520  136.5340 N   0  0  0  0  0  1  0  0  0  0  0  0
  1 15  1  6  0  0  0
  1  8  1  0  0  0  0
  3  9  1  0  0  0  0
  4  2  1  0  0  0  0
  5 10  2  0  0  0  0
  7  3  2  0  0  0  0
  8  7  2  0  0  0  0
  9  2  1  0  0  0  0
 10  4  1  0  0  0  0
 11  6  1  6  0  0  0
 11 14  1  0  0  0  0
 11  5  1  0  0  0  0
 12 13  1  0  0  0  0
 12  1  1  0  0  0  0
 13 26  1  6  0  0  0
 13 14  1  0  0  0  0
 14  8  1  1  0  0  0
 16 15  1  0  0  0  0
 17 11  1  0  0  0  0
 17 18  1  0  0  0  0
 19 18  1  0  0  0  0
 20 19  1  0  0  0  0
 21 20  1  0  0  0  0
 22 24  1  0  0  0  0
 23 24  1  0  0  0  0
 24 25  1  0  0  0  0
 24 21  1  0  0  0  0
 27 26  1  0  0  0  0
 28 29  1  0  0  0  0
 29 27  1  0  0  0  0
 30 28  2  0  0  0  0
 31 28  1  0  0  0  0
M  END
>  <MODEL>
8

>  <REMARK>
 VINA RESULT:      -6.7      2.653      3.238
  Name = 
  10 active torsions:
  status: ('A' for Active; 'I' for Inactive)
    1  A    between atoms: C_1  and  N_10
    2  A    between atoms: C_1  and  O_16
    3  A    between atoms: C_2  and  C_5
    4  A    between atoms: C_3  and  C_8
    5  A    between atoms: C_3  and  C_23
    6  A    between atoms: C_8  and  C_29
    7  A    between atoms: O_16  and  C_26
    8  A    between atoms: C_18  and  O_27
    9  A    between atoms: C_18  and  C_29
   10  A    between atoms: C_24  and  O_27
                            x       y       z     vdW  Elec       q    Type
                         _______ _______ _______ _____ _____    ______ ____

>  <TORSDO>
F 10

$$$$
=
 OpenBabel10222420283D

 31 32  0  0  1  0  0  0  0  0999 V2000
  190.2820  177.8480  144.3560 C   0  0  2  0  0  3  0  0  0  0  0  0
  184.4950  178.4950  144.6130 C   0  0  0  0  0  2  0  0  0  0  0  0
  186.8480  178.2200  145.5220 C   0  0  0  0  0  3  0  0  0  0  0  0
  185.0260  179.1090  143.3970 N   0  0  0  0  0  2  0  0  0  0  0  0
  186.9770  178.9640  142.0470 C   0  0  0  0  0  3  0  0  0  0  0  0
  189.1310  179.0540  141.1910 F   0  0  0  0  0  0  0  0  0  0  0  0
  187.8680  177.9360  144.7480 C   0  0  0  0  0  0  0  0  0  0  0  0
  188.8630  177.6830  143.9250 C   0  0  0  0  0  0  0  0  0  0  0  0
  185.5200  177.5620  145.2890 C   0  0  0  0  0  2  0  0  0  0  0  0
  185.9190  178.3690  142.5750 C   0  0  0  0  0  3  0  0  0  0  0  0
  188.1180  178.1590  141.4880 C   0  0  1  0  0  0  0  0  0  0  0  0
  191.3270  177.4560  142.9170 S   0  0  0  0  0  0  0  0  0  0  0  0
  189.9900  176.4660  142.1830 C   0  0  1  0  0  3  0  0  0  0  0  0
  188.6470  177.1170  142.5410 C   0  0  1  0  0  3  0  0  0  0  0  0
  190.6100  176.8980  145.5010 C   0  0  0  0  0  2  0  0  0  0  0  0
  191.8210  177.2620  146.0870 O   0  0  0  0  0  1  0  0  0  0  0  0
  187.6930  177.4880  140.1690 C   0  0  0  0  0  2  0  0  0  0  0  0
  188.0290  178.3040  138.9270 C   0  0  0  0  0  2  0  0  0  0  0  0
  186.9710  178.0830  137.8640 C   0  0  0  0  0  2  0  0  0  0  0  0
  185.5860  178.1040  138.4890 C   0  0  0  0  0  2  0  0  0  0  0  0
  185.2590  179.4080  138.8930 O   0  0  0  0  0  0  0  0  0  0  0  0
  183.5780  179.2610  140.4600 F   0  0  0  0  0  0  0  0  0  0  0  0
  183.4140  180.7160  138.7570 F   0  0  0  0  0  0  0  0  0  0  0  0
  183.8700  179.4620  139.1180 C   0  0  0  0  0  0  0  0  0  0  0  0
  183.2100  178.5180  138.3460 F   0  0  0  0  0  0  0  0  0  0  0  0
  190.1870  176.3150  140.8090 O   0  0  0  0  0  0  0  0  0  0  0  0
  191.3050  177.1020  140.5230 C   0  0  0  0  0  2  0  0  0  0  0  0
  193.1350  176.8150  138.8010 C   0  0  0  0  0  0  0  0  0  0  0  0
  191.7540  176.8440  139.1630 N   0  0  0  0  0  2  0  0  0  0  0  0
  194.0290  177.0460  139.6590 O   0  0  0  0  0  0  0  0  0  0  0  0
  193.5050  176.5300  137.4580 N   0  0  0  0  0  1  0  0  0  0  0  0
  1 15  1  1  0  0  0
  2  9  1  0  0  0  0
  4  2  1  0  0  0  0
  5 10  2  0  0  0  0
  7  3  2  0  0  0  0
  8  1  1  0  0  0  0
  8  7  2  0  0  0  0
  9  3  1  0  0  0  0
 10  4  1  0  0  0  0
 11  6  1  6  0  0  0
 11  5  1  0  0  0  0
 11 14  1  0  0  0  0
 12  1  1  0  0  0  0
 13 26  1  6  0  0  0
 13 14  1  0  0  0  0
 13 12  1  0  0  0  0
 14  8  1  1  0  0  0
 15 16  1  0  0  0  0
 17 11  1  0  0  0  0
 18 17  1  0  0  0  0
 19 20  1  0  0  0  0
 19 18  1  0  0  0  0
 20 21  1  0  0  0  0
 21 24  1  0  0  0  0
 23 24  1  0  0  0  0
 24 22  1  0  0  0  0
 25 24  1  0  0  0  0
 27 26  1  0  0  0  0
 28 29  1  0  0  0  0
 28 30  2  0  0  0  0
 29 27  1  0  0  0  0
 31 28  1  0  0  0  0
M  END
>  <MODEL>
9

>  <REMARK>
 VINA RESULT:      -6.7      3.538      6.766
  Name = 
  10 active torsions:
  status: ('A' for Active; 'I' for Inactive)
    1  A    between atoms: C_1  and  N_10
    2  A    between atoms: C_1  and  O_16
    3  A    between atoms: C_2  and  C_5
    4  A    between atoms: C_3  and  C_8
    5  A    between atoms: C_3  and  C_23
    6  A    between atoms: C_8  and  C_29
    7  A    between atoms: O_16  and  C_26
    8  A    between atoms: C_18  and  O_27
    9  A    between atoms: C_18  and  C_29
   10  A    between atoms: C_24  and  O_27
                            x       y       z     vdW  Elec       q    Type
                         _______ _______ _______ _____ _____    ______ ____

>  <TORSDO>
F 10

$$$$
