=
 OpenBabel10222420313D

 37 42  0  0  1  0  0  0  0  0999 V2000
  189.9480  177.4680  139.8410 C   0  0  2  0  0  3  0  0  0  0  0  0
  188.9990  178.5480  141.8540 C   0  0  0  0  0  2  0  0  0  0  0  0
  187.6700  177.8150  142.0980 C   0  0  0  0  0  2  0  0  0  0  0  0
  188.8540  176.6430  144.0880 C   0  0  2  0  0  3  0  0  0  0  0  0
  190.3390  176.4600  141.9880 C   0  0  0  0  0  2  0  0  0  0  0  0
  190.0870  177.7240  141.2850 N   0  0  0  0  0  0  0  0  0  0  0  0
  190.2860  176.6160  143.5130 C   0  0  2  0  0  3  0  0  0  0  0  0
  187.7560  176.5820  143.0060 C   0  0  0  0  0  2  0  0  0  0  0  0
  190.9820  175.5780  144.1000 F   0  0  0  0  0  0  0  0  0  0  0  0
  188.8880  177.2580  147.4770 C   0  0  1  0  0  3  0  0  0  0  0  0
  189.6620  177.7030  146.2320 C   0  0  0  0  0  2  0  0  0  0  0  0
  189.2040  178.1810  148.6350 C   0  0  0  0  0  1  0  0  0  0  0  0
  187.5190  177.3660  147.1400 O   0  0  0  0  0  0  0  0  0  0  0  0
  186.2320  177.8490  145.2810 O   0  0  0  0  0  0  0  0  0  0  0  0
  187.3620  177.6640  145.8050 C   0  0  0  0  0  0  0  0  0  0  0  0
  188.6500  177.7990  145.0820 C   0  0  2  0  0  3  0  0  0  0  0  0
  193.0800  176.4620  137.9780 C   0  0  0  0  0  2  0  0  0  0  0  0
  191.1320  175.1370  138.4520 N   0  0  0  0  0  1  0  0  0  0  0  0
  193.5970  176.8330  139.2960 N   0  0  0  0  0  2  0  0  0  0  0  0
  191.5710  176.4620  138.0400 C   0  0  1  0  0  3  0  0  0  0  0  0
  192.4880  177.4220  140.0430 C   0  0  0  0  0  2  0  0  0  0  0  0
  191.3010  177.5040  139.1090 C   0  0  2  0  0  3  0  0  0  0  0  0
  188.9290  178.2990  139.1990 N   0  0  0  0  0  2  0  0  0  0  0  0
  186.6730  177.4150  138.8370 C   0  0  0  0  0  2  0  0  0  0  0  0
  185.7780  177.9780  136.5570 C   0  0  2  0  0  3  0  0  0  0  0  0
  183.5610  179.2870  138.8360 C   0  0  0  0  0  2  0  0  0  0  0  0
  188.1280  177.4340  138.3450 C   0  0  1  0  0  3  0  0  0  0  0  0
  183.7830  178.0940  139.7610 C   0  0  0  0  0  2  0  0  0  0  0  0
  187.3060  177.7390  134.5950 C   0  0  0  0  0  1  0  0  0  0  0  0
  187.0950  177.3640  136.0500 C   0  0  1  0  0  3  0  0  0  0  0  0
  183.9930  177.3120  135.1320 F   0  0  0  0  0  0  0  0  0  0  0  0
  188.2760  177.8590  136.8780 C   0  0  0  0  0  2  0  0  0  0  0  0
  185.7690  178.3480  138.0260 C   0  0  1  0  0  3  0  0  0  0  0  0
  184.3250  178.0770  138.3480 C   0  0  0  0  0  0  0  0  0  0  0  0
  183.6170  177.3490  137.3820 O   0  0  0  0  0  0  0  0  0  0  0  0
  184.5590  177.0670  136.3700 C   0  0  0  0  0  0  0  0  0  0  0  0
  184.9180  175.7310  136.4540 F   0  0  0  0  0  0  0  0  0  0  0  0
  1 23  1  6  0  0  0
  1  6  1  0  0  0  0
  2  3  1  0  0  0  0
  3  8  1  0  0  0  0
  4  8  1  6  0  0  0
  4 16  1  0  0  0  0
  5  7  1  0  0  0  0
  6  2  1  0  0  0  0
  6  5  1  0  0  0  0
  7  4  1  0  0  0  0
  7  9  1  1  0  0  0
 10 12  1  1  0  0  0
 11 10  1  0  0  0  0
 13 10  1  0  0  0  0
 14 15  2  0  0  0  0
 15 13  1  0  0  0  0
 16 15  1  0  0  0  0
 16 11  1  1  0  0  0
 17 20  1  0  0  0  0
 17 19  1  0  0  0  0
 19 21  1  0  0  0  0
 20 18  1  1  0  0  0
 20 22  1  0  0  0  0
 22  1  1  1  0  0  0
 22 21  1  0  0  0  0
 25 36  1  1  0  0  0
 25 33  1  0  0  0  0
 26 28  1  0  0  0  0
 27 24  1  0  0  0  0
 27 23  1  1  0  0  0
 30 29  1  6  0  0  0
 30 25  1  0  0  0  0
 30 32  1  0  0  0  0
 31 36  1  0  0  0  0
 32 27  1  0  0  0  0
 33 34  1  0  0  0  0
 33 24  1  1  0  0  0
 34 26  1  0  0  0  0
 34 28  1  0  0  0  0
 35 34  1  0  0  0  0
 36 37  1  0  0  0  0
 36 35  1  0  0  0  0
M  END
>  <MODEL>
1

>  <REMARK>
 VINA RESULT:      -9.0      0.000      0.000
  Name = 
  5 active torsions:
  status: ('A' for Active; 'I' for Inactive)
    1  A    between atoms: N_3  and  C_7
    2  A    between atoms: N_3  and  C_10
    3  A    between atoms: C_10  and  N_26
    4  A    between atoms: C_10  and  C_32
    5  A    between atoms: C_22  and  C_37
                            x       y       z     vdW  Elec       q    Type
                         _______ _______ _______ _____ _____    ______ ____

>  <TORSDO>
F 5

$$$$
=
 OpenBabel10222420313D

 37 42  0  0  1  0  0  0  0  0999 V2000
  189.6590  177.4850  140.3180 C   0  0  2  0  0  3  0  0  0  0  0  0
  189.3140  176.2930  142.4580 C   0  0  0  0  0  2  0  0  0  0  0  0
  190.6430  175.5620  142.7140 C   0  0  0  0  0  2  0  0  0  0  0  0
  191.1010  177.3490  144.5390 C   0  0  2  0  0  3  0  0  0  0  0  0
  190.3990  178.5250  142.3550 C   0  0  0  0  0  2  0  0  0  0  0  0
  189.4250  177.5950  141.7690 N   0  0  0  0  0  0  0  0  0  0  0  0
  190.3530  178.5330  143.8880 C   0  0  2  0  0  3  0  0  0  0  0  0
  191.6840  176.3530  143.5170 C   0  0  0  0  0  2  0  0  0  0  0  0
  190.8980  179.7130  144.3530 F   0  0  0  0  0  0  0  0  0  0  0  0
  189.3410  178.1170  147.3990 C   0  0  1  0  0  3  0  0  0  0  0  0
  189.0570  177.5350  146.0100 C   0  0  0  0  0  2  0  0  0  0  0  0
  188.1550  177.8750  148.3080 C   0  0  0  0  0  1  0  0  0  0  0  0
  190.4680  177.4180  147.8880 O   0  0  0  0  0  0  0  0  0  0  0  0
  191.9890  175.8500  147.1300 O   0  0  0  0  0  0  0  0  0  0  0  0
  191.0030  176.6020  146.9160 C   0  0  0  0  0  0  0  0  0  0  0  0
  190.2630  176.6650  145.6320 C   0  0  2  0  0  3  0  0  0  0  0  0
  186.8710  178.4090  137.9390 C   0  0  0  0  0  2  0  0  0  0  0  0
  189.0580  179.3870  138.1310 N   0  0  0  0  0  1  0  0  0  0  0  0
  186.2590  178.6280  139.2500 N   0  0  0  0  0  2  0  0  0  0  0  0
  188.3390  178.1210  138.1410 C   0  0  1  0  0  3  0  0  0  0  0  0
  187.1920  178.1180  140.2520 C   0  0  0  0  0  2  0  0  0  0  0  0
  188.3470  177.4780  139.5140 C   0  0  2  0  0  3  0  0  0  0  0  0
  190.5560  176.3860  139.9570 N   0  0  0  0  0  2  0  0  0  0  0  0
  192.8060  176.4140  138.9890 C   0  0  0  0  0  2  0  0  0  0  0  0
  192.8980  175.2870  136.7450 C   0  0  2  0  0  3  0  0  0  0  0  0
  195.1300  173.6320  138.7690 C   0  0  0  0  0  2  0  0  0  0  0  0
  191.3350  176.8150  138.8050 C   0  0  1  0  0  3  0  0  0  0  0  0
  195.5060  174.9420  139.4540 C   0  0  0  0  0  2  0  0  0  0  0  0
  191.0670  175.7560  135.1110 C   0  0  0  0  0  1  0  0  0  0  0  0
  191.7350  176.2300  136.3880 C   0  0  1  0  0  3  0  0  0  0  0  0
  194.3840  175.1250  134.8940 F   0  0  0  0  0  0  0  0  0  0  0  0
  190.7070  176.2710  137.5130 C   0  0  0  0  0  2  0  0  0  0  0  0
  193.1650  175.1340  138.2280 C   0  0  1  0  0  3  0  0  0  0  0  0
  194.6570  174.9500  138.2010 C   0  0  0  0  0  0  0  0  0  0  0  0
  195.2830  175.2660  136.9870 O   0  0  0  0  0  0  0  0  0  0  0  0
  194.2430  175.7070  136.1420 C   0  0  0  0  0  0  0  0  0  0  0  0
  194.3240  177.0860  136.0160 F   0  0  0  0  0  0  0  0  0  0  0  0
  1 23  1  1  0  0  0
  1  6  1  0  0  0  0
  2  3  1  0  0  0  0
  3  8  1  0  0  0  0
  4  8  1  6  0  0  0
  4 16  1  0  0  0  0
  5  7  1  0  0  0  0
  6  5  1  0  0  0  0
  6  2  1  0  0  0  0
  7  9  1  1  0  0  0
  7  4  1  0  0  0  0
 10 13  1  0  0  0  0
 10 12  1  1  0  0  0
 11 10  1  0  0  0  0
 15 14  2  0  0  0  0
 15 13  1  0  0  0  0
 16 11  1  1  0  0  0
 16 15  1  0  0  0  0
 17 20  1  0  0  0  0
 17 19  1  0  0  0  0
 19 21  1  0  0  0  0
 20 18  1  1  0  0  0
 20 22  1  0  0  0  0
 22 21  1  0  0  0  0
 22  1  1  1  0  0  0
 25 36  1  6  0  0  0
 25 33  1  0  0  0  0
 26 28  1  0  0  0  0
 27 24  1  0  0  0  0
 27 23  1  1  0  0  0
 30 29  1  6  0  0  0
 30 25  1  0  0  0  0
 30 32  1  0  0  0  0
 31 36  1  0  0  0  0
 32 27  1  0  0  0  0
 33 24  1  1  0  0  0
 34 33  1  0  0  0  0
 34 26  1  0  0  0  0
 34 28  1  0  0  0  0
 35 34  1  0  0  0  0
 36 35  1  0  0  0  0
 37 36  1  0  0  0  0
M  END
>  <MODEL>
2

>  <REMARK>
 VINA RESULT:      -8.7      3.675      6.177
  Name = 
  5 active torsions:
  status: ('A' for Active; 'I' for Inactive)
    1  A    between atoms: N_3  and  C_7
    2  A    between atoms: N_3  and  C_10
    3  A    between atoms: C_10  and  N_26
    4  A    between atoms: C_10  and  C_32
    5  A    between atoms: C_22  and  C_37
                            x       y       z     vdW  Elec       q    Type
                         _______ _______ _______ _____ _____    ______ ____

>  <TORSDO>
F 5

$$$$
=
 OpenBabel10222420313D

 37 42  0  0  1  0  0  0  0  0999 V2000
  187.8250  177.9310  141.0400 C   0  0  2  0  0  3  0  0  0  0  0  0
  187.9340  176.6580  143.1590 C   0  0  0  0  0  2  0  0  0  0  0  0
  189.0730  175.6470  142.9460 C   0  0  0  0  0  2  0  0  0  0  0  0
  190.4890  177.1360  144.5310 C   0  0  2  0  0  3  0  0  0  0  0  0
  189.3990  178.6160  142.7230 C   0  0  0  0  0  2  0  0  0  0  0  0
  188.1050  177.9630  142.4860 N   0  0  0  0  0  0  0  0  0  0  0  0
  189.8570  178.5010  144.1820 C   0  0  2  0  0  3  0  0  0  0  0  0
  190.4680  176.1320  143.3610 C   0  0  0  0  0  2  0  0  0  0  0  0
  190.7740  179.4970  144.4510 F   0  0  0  0  0  0  0  0  0  0  0  0
  189.3160  178.1560  147.6050 C   0  0  1  0  0  3  0  0  0  0  0  0
  188.7810  177.4300  146.3680 C   0  0  0  0  0  2  0  0  0  0  0  0
  188.3510  177.9840  148.7590 C   0  0  0  0  0  1  0  0  0  0  0  0
  190.5470  177.5350  147.9160 O   0  0  0  0  0  0  0  0  0  0  0  0
  191.9460  175.9300  147.0150 O   0  0  0  0  0  0  0  0  0  0  0  0
  190.9060  176.6350  146.9380 C   0  0  0  0  0  0  0  0  0  0  0  0
  189.9190  176.5500  145.8340 C   0  0  2  0  0  3  0  0  0  0  0  0
  190.2480  177.9260  138.1400 C   0  0  0  0  0  2  0  0  0  0  0  0
  187.9020  178.4480  138.1270 N   0  0  0  0  0  1  0  0  0  0  0  0
  190.3100  176.5420  138.6100 N   0  0  0  0  0  2  0  0  0  0  0  0
  189.1360  178.6320  138.8780 C   0  0  1  0  0  3  0  0  0  0  0  0
  189.5490  176.4770  139.8560 C   0  0  0  0  0  2  0  0  0  0  0  0
  189.1100  177.8840  140.1970 C   0  0  2  0  0  3  0  0  0  0  0  0
  186.8940  178.9750  140.6070 N   0  0  0  0  0  2  0  0  0  0  0  0
  184.8820  178.1460  141.7320 C   0  0  0  0  0  2  0  0  0  0  0  0
  182.7930  179.2770  140.9130 C   0  0  2  0  0  3  0  0  0  0  0  0
  182.9550  179.8410  144.3010 C   0  0  0  0  0  2  0  0  0  0  0  0
  185.5990  178.3470  140.3880 C   0  0  1  0  0  3  0  0  0  0  0  0
  183.5410  178.4500  144.5210 C   0  0  0  0  0  2  0  0  0  0  0  0
  182.5260  179.6320  138.4550 C   0  0  0  0  0  1  0  0  0  0  0  0
  183.2950  178.8690  139.5170 C   0  0  1  0  0  3  0  0  0  0  0  0
  180.4360  178.9630  141.0310 F   0  0  0  0  0  0  0  0  0  0  0  0
  184.7850  179.1600  139.3720 C   0  0  0  0  0  2  0  0  0  0  0  0
  183.8390  179.2330  142.0080 C   0  0  1  0  0  3  0  0  0  0  0  0
  182.9750  178.8360  143.1720 C   0  0  0  0  0  0  0  0  0  0  0  0
  181.6920  178.3740  142.8430 O   0  0  0  0  0  0  0  0  0  0  0  0
  181.6400  178.4110  141.4330 C   0  0  0  0  0  0  0  0  0  0  0  0
  181.7330  177.1140  140.9500 F   0  0  0  0  0  0  0  0  0  0  0  0
  1 23  1  6  0  0  0
  1  6  1  0  0  0  0
  3  2  1  0  0  0  0
  3  8  1  0  0  0  0
  4  8  1  6  0  0  0
  4 16  1  0  0  0  0
  5  7  1  0  0  0  0
  6  5  1  0  0  0  0
  6  2  1  0  0  0  0
  7  9  1  6  0  0  0
  7  4  1  0  0  0  0
 10 13  1  0  0  0  0
 10 12  1  1  0  0  0
 11 10  1  0  0  0  0
 15 14  2  0  0  0  0
 15 13  1  0  0  0  0
 16 11  1  1  0  0  0
 16 15  1  0  0  0  0
 17 19  1  0  0  0  0
 17 20  1  0  0  0  0
 19 21  1  0  0  0  0
 20 18  1  6  0  0  0
 20 22  1  0  0  0  0
 21 22  1  0  0  0  0
 22  1  1  6  0  0  0
 25 36  1  1  0  0  0
 25 33  1  0  0  0  0
 26 28  1  0  0  0  0
 27 23  1  1  0  0  0
 27 24  1  0  0  0  0
 30 29  1  6  0  0  0
 30 25  1  0  0  0  0
 31 36  1  0  0  0  0
 32 30  1  0  0  0  0
 32 27  1  0  0  0  0
 33 24  1  6  0  0  0
 33 34  1  0  0  0  0
 34 26  1  0  0  0  0
 34 28  1  0  0  0  0
 35 34  1  0  0  0  0
 36 35  1  0  0  0  0
 37 36  1  0  0  0  0
M  END
>  <MODEL>
3

>  <REMARK>
 VINA RESULT:      -8.2      2.831      4.043
  Name = 
  5 active torsions:
  status: ('A' for Active; 'I' for Inactive)
    1  A    between atoms: N_3  and  C_7
    2  A    between atoms: N_3  and  C_10
    3  A    between atoms: C_10  and  N_26
    4  A    between atoms: C_10  and  C_32
    5  A    between atoms: C_22  and  C_37
                            x       y       z     vdW  Elec       q    Type
                         _______ _______ _______ _____ _____    ______ ____

>  <TORSDO>
F 5

$$$$
=
 OpenBabel10222420313D

 37 42  0  0  1  0  0  0  0  0999 V2000
  189.7660  177.3850  143.7290 C   0  0  2  0  0  3  0  0  0  0  0  0
  189.4440  176.1950  141.5840 C   0  0  0  0  0  2  0  0  0  0  0  0
  188.6580  177.1840  140.7060 C   0  0  0  0  0  2  0  0  0  0  0  0
  190.8740  177.5620  139.4100 C   0  0  2  0  0  3  0  0  0  0  0  0
  191.3210  177.7840  141.9390 C   0  0  0  0  0  2  0  0  0  0  0  0
  190.4000  176.8050  142.5320 N   0  0  0  0  0  0  0  0  0  0  0  0
  191.8590  177.3320  140.5760 C   0  0  2  0  0  3  0  0  0  0  0  0
  189.5140  178.1330  139.8570 C   0  0  0  0  0  2  0  0  0  0  0  0
  193.0340  178.0050  140.3060 F   0  0  0  0  0  0  0  0  0  0  0  0
  192.4660  175.9980  136.7850 C   0  0  1  0  0  3  0  0  0  0  0  0
  192.1120  175.6950  138.2450 C   0  0  0  0  0  2  0  0  0  0  0  0
  192.8870  174.7240  136.0840 C   0  0  0  0  0  1  0  0  0  0  0  0
  191.2820  176.4990  136.1970 O   0  0  0  0  0  0  0  0  0  0  0  0
  189.1450  177.0910  136.8530 O   0  0  0  0  0  0  0  0  0  0  0  0
  190.3020  176.6890  137.1450 C   0  0  0  0  0  0  0  0  0  0  0  0
  190.7370  176.3190  138.5140 C   0  0  2  0  0  3  0  0  0  0  0  0
  192.1320  176.1820  146.4200 C   0  0  0  0  0  2  0  0  0  0  0  0
  191.4750  175.0630  144.3980 N   0  0  0  0  0  1  0  0  0  0  0  0
  190.8800  176.3690  147.1550 N   0  0  0  0  0  2  0  0  0  0  0  0
  191.8510  176.3570  144.9470 C   0  0  1  0  0  3  0  0  0  0  0  0
  189.9390  177.0170  146.2440 C   0  0  0  0  0  2  0  0  0  0  0  0
  190.6820  177.3240  144.9620 C   0  0  2  0  0  3  0  0  0  0  0  0
  188.4240  176.8590  143.9870 N   0  0  0  0  0  2  0  0  0  0  0  0
  186.7740  178.4310  143.0880 C   0  0  0  0  0  2  0  0  0  0  0  0
  184.5840  178.3270  144.3170 C   0  0  2  0  0  3  0  0  0  0  0  0
  183.8960  177.6390  141.0200 C   0  0  0  0  0  2  0  0  0  0  0  0
  187.5680  177.9860  144.3260 C   0  0  1  0  0  3  0  0  0  0  0  0
  184.9580  178.6390  140.5720 C   0  0  0  0  0  2  0  0  0  0  0  0
  184.6330  178.1980  146.8120 C   0  0  0  0  0  1  0  0  0  0  0  0
  185.4480  178.5260  145.5750 C   0  0  1  0  0  3  0  0  0  0  0  0
  182.5910  179.6120  144.5140 F   0  0  0  0  0  0  0  0  0  0  0  0
  186.6830  177.6320  145.5290 C   0  0  0  0  0  2  0  0  0  0  0  0
  185.3430  177.8850  143.0830 C   0  0  1  0  0  3  0  0  0  0  0  0
  184.5300  178.5750  142.0220 C   0  0  0  0  0  0  0  0  0  0  0  0
  183.6360  179.5500  142.4860 O   0  0  0  0  0  0  0  0  0  0  0  0
  183.8230  179.5850  143.8840 C   0  0  0  0  0  0  0  0  0  0  0  0
  184.5300  180.7330  144.2110 F   0  0  0  0  0  0  0  0  0  0  0  0
  1 23  1  1  0  0  0
  2  6  1  0  0  0  0
  3  2  1  0  0  0  0
  4  8  1  1  0  0  0
  4  7  1  0  0  0  0
  5  6  1  0  0  0  0
  6  1  1  0  0  0  0
  7  9  1  6  0  0  0
  7  5  1  0  0  0  0
  8  3  1  0  0  0  0
 10 12  1  6  0  0  0
 10 11  1  0  0  0  0
 13 10  1  0  0  0  0
 13 15  1  0  0  0  0
 14 15  2  0  0  0  0
 15 16  1  0  0  0  0
 16 11  1  6  0  0  0
 16  4  1  0  0  0  0
 17 19  1  0  0  0  0
 20 18  1  1  0  0  0
 20 22  1  0  0  0  0
 20 17  1  0  0  0  0
 21 19  1  0  0  0  0
 22  1  1  6  0  0  0
 22 21  1  0  0  0  0
 24 27  1  0  0  0  0
 25 36  1  6  0  0  0
 25 30  1  0  0  0  0
 26 34  1  0  0  0  0
 27 23  1  6  0  0  0
 27 32  1  0  0  0  0
 28 26  1  0  0  0  0
 28 34  1  0  0  0  0
 30 29  1  1  0  0  0
 32 30  1  0  0  0  0
 33 24  1  1  0  0  0
 33 25  1  0  0  0  0
 34 35  1  0  0  0  0
 34 33  1  0  0  0  0
 35 36  1  0  0  0  0
 36 37  1  0  0  0  0
 36 31  1  0  0  0  0
M  END
>  <MODEL>
4

>  <REMARK>
 VINA RESULT:      -8.1      3.626      7.247
  Name = 
  5 active torsions:
  status: ('A' for Active; 'I' for Inactive)
    1  A    between atoms: N_3  and  C_7
    2  A    between atoms: N_3  and  C_10
    3  A    between atoms: C_10  and  N_26
    4  A    between atoms: C_10  and  C_32
    5  A    between atoms: C_22  and  C_37
                            x       y       z     vdW  Elec       q    Type
                         _______ _______ _______ _____ _____    ______ ____

>  <TORSDO>
F 5

$$$$
=
 OpenBabel10222420313D

 37 42  0  0  1  0  0  0  0  0999 V2000
  188.1220  177.9860  140.0320 C   0  0  2  0  0  3  0  0  0  0  0  0
  188.6680  178.7320  142.3260 C   0  0  0  0  0  2  0  0  0  0  0  0
  187.4930  178.2350  143.1860 C   0  0  0  0  0  2  0  0  0  0  0  0
  189.1180  176.4260  144.0920 C   0  0  2  0  0  3  0  0  0  0  0  0
  189.2250  176.4500  141.5160 C   0  0  0  0  0  2  0  0  0  0  0  0
  189.0320  177.8680  141.1840 N   0  0  0  0  0  0  0  0  0  0  0  0
  189.9910  176.2550  142.8300 C   0  0  2  0  0  3  0  0  0  0  0  0
  187.6630  176.8320  143.7820 C   0  0  0  0  0  2  0  0  0  0  0  0
  190.5530  174.9930  142.8460 F   0  0  0  0  0  0  0  0  0  0  0  0
  190.9570  176.2160  146.9970 C   0  0  1  0  0  3  0  0  0  0  0  0
  191.1360  176.7540  145.5740 C   0  0  0  0  0  2  0  0  0  0  0  0
  192.0560  176.7510  147.8900 C   0  0  0  0  0  1  0  0  0  0  0  0
  189.7040  176.7000  147.4390 O   0  0  0  0  0  0  0  0  0  0  0  0
  187.9070  177.8730  146.5790 O   0  0  0  0  0  0  0  0  0  0  0  0
  189.0290  177.3260  146.4160 C   0  0  0  0  0  0  0  0  0  0  0  0
  189.7840  177.3350  145.1390 C   0  0  2  0  0  3  0  0  0  0  0  0
  189.3890  177.4740  136.5080 C   0  0  0  0  0  2  0  0  0  0  0  0
  187.5510  176.3860  137.6080 N   0  0  0  0  0  1  0  0  0  0  0  0
  190.5560  177.1270  137.3210 N   0  0  0  0  0  2  0  0  0  0  0  0
  188.2090  177.6720  137.4280 C   0  0  1  0  0  3  0  0  0  0  0  0
  190.2350  177.4740  138.7030 C   0  0  0  0  0  2  0  0  0  0  0  0
  188.8790  178.1460  138.7030 C   0  0  2  0  0  3  0  0  0  0  0  0
  187.0770  178.9940  140.2190 N   0  0  0  0  0  2  0  0  0  0  0  0
  185.1160  178.1140  141.3930 C   0  0  0  0  0  2  0  0  0  0  0  0
  182.9790  179.1970  140.6340 C   0  0  2  0  0  3  0  0  0  0  0  0
  183.2160  179.7530  144.0180 C   0  0  0  0  0  2  0  0  0  0  0  0
  185.7920  178.3370  140.0320 C   0  0  1  0  0  3  0  0  0  0  0  0
  183.8410  178.3760  144.2170 C   0  0  0  0  0  2  0  0  0  0  0  0
  182.6390  179.5550  138.1840 C   0  0  0  0  0  1  0  0  0  0  0  0
  183.4540  178.8060  139.2230 C   0  0  1  0  0  3  0  0  0  0  0  0
  180.6350  178.8270  140.8110 F   0  0  0  0  0  0  0  0  0  0  0  0
  184.9320  179.1330  139.0410 C   0  0  0  0  0  2  0  0  0  0  0  0
  184.0540  179.1750  141.7000 C   0  0  1  0  0  3  0  0  0  0  0  0
  183.2300  178.7530  142.8850 C   0  0  0  0  0  0  0  0  0  0  0  0
  181.9510  178.2620  142.5870 O   0  0  0  0  0  0  0  0  0  0  0  0
  181.8610  178.3020  141.1800 C   0  0  0  0  0  0  0  0  0  0  0  0
  181.9720  177.0100  140.6890 F   0  0  0  0  0  0  0  0  0  0  0  0
  1 23  1  1  0  0  0
  1  6  1  0  0  0  0
  2  3  1  0  0  0  0
  3  8  1  0  0  0  0
  4  8  1  6  0  0  0
  4 16  1  0  0  0  0
  5  7  1  0  0  0  0
  6  5  1  0  0  0  0
  6  2  1  0  0  0  0
  7  9  1  6  0  0  0
  7  4  1  0  0  0  0
 10 13  1  0  0  0  0
 10 12  1  1  0  0  0
 11 10  1  0  0  0  0
 15 14  2  0  0  0  0
 15 13  1  0  0  0  0
 16 11  1  1  0  0  0
 16 15  1  0  0  0  0
 17 19  1  0  0  0  0
 17 20  1  0  0  0  0
 19 21  1  0  0  0  0
 20 18  1  1  0  0  0
 20 22  1  0  0  0  0
 22 21  1  0  0  0  0
 22  1  1  1  0  0  0
 25 36  1  1  0  0  0
 25 33  1  0  0  0  0
 26 28  1  0  0  0  0
 27 23  1  1  0  0  0
 27 24  1  0  0  0  0
 30 29  1  6  0  0  0
 30 25  1  0  0  0  0
 31 36  1  0  0  0  0
 32 30  1  0  0  0  0
 32 27  1  0  0  0  0
 33 24  1  6  0  0  0
 33 34  1  0  0  0  0
 34 26  1  0  0  0  0
 34 28  1  0  0  0  0
 35 34  1  0  0  0  0
 36 35  1  0  0  0  0
 37 36  1  0  0  0  0
M  END
>  <MODEL>
5

>  <REMARK>
 VINA RESULT:      -7.8      2.498      3.568
  Name = 
  5 active torsions:
  status: ('A' for Active; 'I' for Inactive)
    1  A    between atoms: N_3  and  C_7
    2  A    between atoms: N_3  and  C_10
    3  A    between atoms: C_10  and  N_26
    4  A    between atoms: C_10  and  C_32
    5  A    between atoms: C_22  and  C_37
                            x       y       z     vdW  Elec       q    Type
                         _______ _______ _______ _____ _____    ______ ____

>  <TORSDO>
F 5

$$$$
=
 OpenBabel10222420313D

 37 42  0  0  1  0  0  0  0  0999 V2000
  187.0200  178.2500  140.0180 C   0  0  2  0  0  3  0  0  0  0  0  0
  187.3740  178.8700  142.3870 C   0  0  0  0  0  2  0  0  0  0  0  0
  186.5020  177.8820  143.1810 C   0  0  0  0  0  2  0  0  0  0  0  0
  188.7120  176.6950  143.8430 C   0  0  2  0  0  3  0  0  0  0  0  0
  188.6750  177.0590  141.2910 C   0  0  0  0  0  2  0  0  0  0  0  0
  187.9680  178.3370  141.1430 N   0  0  0  0  0  0  0  0  0  0  0  0
  189.5240  177.0030  142.5660 C   0  0  2  0  0  3  0  0  0  0  0  0
  187.1950  176.5780  143.5940 C   0  0  0  0  0  2  0  0  0  0  0  0
  190.5030  176.0390  142.4190 F   0  0  0  0  0  0  0  0  0  0  0  0
  190.4320  176.7430  146.8270 C   0  0  1  0  0  3  0  0  0  0  0  0
  190.5020  177.4360  145.4630 C   0  0  0  0  0  2  0  0  0  0  0  0
  191.3030  177.4800  147.8220 C   0  0  0  0  0  1  0  0  0  0  0  0
  189.0790  176.8170  147.2300 O   0  0  0  0  0  0  0  0  0  0  0  0
  187.0550  177.5170  146.3590 O   0  0  0  0  0  0  0  0  0  0  0  0
  188.2910  177.3210  146.2200 C   0  0  0  0  0  0  0  0  0  0  0  0
  189.0580  177.6550  144.9940 C   0  0  2  0  0  3  0  0  0  0  0  0
  188.5960  177.8750  136.6030 C   0  0  0  0  0  2  0  0  0  0  0  0
  187.4420  176.2190  137.9080 N   0  0  0  0  0  1  0  0  0  0  0  0
  189.7310  178.2690  137.4380 N   0  0  0  0  0  2  0  0  0  0  0  0
  187.4110  177.6160  137.5020 C   0  0  1  0  0  3  0  0  0  0  0  0
  189.1970  178.6270  138.7500 C   0  0  0  0  0  2  0  0  0  0  0  0
  187.6890  178.5480  138.6660 C   0  0  2  0  0  3  0  0  0  0  0  0
  185.7940  179.0220  140.2320 N   0  0  0  0  0  2  0  0  0  0  0  0
  183.7160  178.0490  141.0880 C   0  0  0  0  0  2  0  0  0  0  0  0
  181.7180  178.6880  139.7050 C   0  0  2  0  0  3  0  0  0  0  0  0
  181.0820  179.7630  142.9080 C   0  0  0  0  0  2  0  0  0  0  0  0
  184.6690  178.1650  139.8890 C   0  0  1  0  0  3  0  0  0  0  0  0
  181.7860  178.5350  143.4770 C   0  0  0  0  0  2  0  0  0  0  0  0
  181.9340  178.6290  137.2170 C   0  0  0  0  0  1  0  0  0  0  0  0
  182.5540  178.1670  138.5220 C   0  0  1  0  0  3  0  0  0  0  0  0
  179.4520  178.0120  139.4320 F   0  0  0  0  0  0  0  0  0  0  0  0
  183.9890  178.6740  138.6110 C   0  0  0  0  0  2  0  0  0  0  0  0
  182.5040  178.9780  140.9660 C   0  0  1  0  0  3  0  0  0  0  0  0
  181.4720  178.6200  142.0000 C   0  0  0  0  0  0  0  0  0  0  0  0
  180.3610  177.9100  141.5230 O   0  0  0  0  0  0  0  0  0  0  0  0
  180.6050  177.7300  140.1440 C   0  0  0  0  0  0  0  0  0  0  0  0
  180.9670  176.4100  139.9250 F   0  0  0  0  0  0  0  0  0  0  0  0
  1 23  1  1  0  0  0
  1  6  1  0  0  0  0
  2  3  1  0  0  0  0
  3  8  1  0  0  0  0
  4  8  1  6  0  0  0
  4 16  1  0  0  0  0
  5  7  1  0  0  0  0
  6  5  1  0  0  0  0
  6  2  1  0  0  0  0
  7  9  1  6  0  0  0
  7  4  1  0  0  0  0
 10 13  1  0  0  0  0
 10 12  1  1  0  0  0
 11 10  1  0  0  0  0
 15 14  2  0  0  0  0
 15 13  1  0  0  0  0
 16 11  1  1  0  0  0
 16 15  1  0  0  0  0
 17 19  1  0  0  0  0
 17 20  1  0  0  0  0
 19 21  1  0  0  0  0
 20 18  1  1  0  0  0
 20 22  1  0  0  0  0
 22 21  1  0  0  0  0
 22  1  1  1  0  0  0
 25 36  1  1  0  0  0
 25 33  1  0  0  0  0
 26 28  1  0  0  0  0
 27 23  1  1  0  0  0
 27 24  1  0  0  0  0
 30 29  1  6  0  0  0
 30 32  1  0  0  0  0
 30 25  1  0  0  0  0
 31 36  1  0  0  0  0
 32 27  1  0  0  0  0
 33 24  1  1  0  0  0
 33 34  1  0  0  0  0
 34 26  1  0  0  0  0
 34 28  1  0  0  0  0
 35 34  1  0  0  0  0
 36 35  1  0  0  0  0
 37 36  1  0  0  0  0
M  END
>  <MODEL>
6

>  <REMARK>
 VINA RESULT:      -7.8      2.534      3.726
  Name = 
  5 active torsions:
  status: ('A' for Active; 'I' for Inactive)
    1  A    between atoms: N_3  and  C_7
    2  A    between atoms: N_3  and  C_10
    3  A    between atoms: C_10  and  N_26
    4  A    between atoms: C_10  and  C_32
    5  A    between atoms: C_22  and  C_37
                            x       y       z     vdW  Elec       q    Type
                         _______ _______ _______ _____ _____    ______ ____

>  <TORSDO>
F 5

$$$$
=
 OpenBabel10222420313D

 37 42  0  0  1  0  0  0  0  0999 V2000
  187.3710  177.4660  138.0740 C   0  0  2  0  0  3  0  0  0  0  0  0
  189.7670  178.0140  137.7990 C   0  0  0  0  0  2  0  0  0  0  0  0
  190.4200  177.5780  139.1210 C   0  0  0  0  0  2  0  0  0  0  0  0
  191.4020  175.5720  137.8000 C   0  0  2  0  0  3  0  0  0  0  0  0
  188.8740  175.7450  137.3260 C   0  0  0  0  0  2  0  0  0  0  0  0
  188.6240  177.1920  137.3500 N   0  0  0  0  0  0  0  0  0  0  0  0
  190.2620  175.3980  136.7740 C   0  0  2  0  0  3  0  0  0  0  0  0
  190.9280  176.1310  139.1570 C   0  0  0  0  0  2  0  0  0  0  0  0
  190.2600  174.0910  136.3290 F   0  0  0  0  0  0  0  0  0  0  0  0
  194.3910  175.0120  136.1810 C   0  0  1  0  0  3  0  0  0  0  0  0
  193.0570  175.7120  135.8990 C   0  0  0  0  0  2  0  0  0  0  0  0
  195.4190  175.4330  135.1530 C   0  0  0  0  0  1  0  0  0  0  0  0
  194.7920  175.4500  137.4650 O   0  0  0  0  0  0  0  0  0  0  0  0
  193.9450  176.7270  139.1960 O   0  0  0  0  0  0  0  0  0  0  0  0
  193.8020  176.1960  138.0640 C   0  0  0  0  0  0  0  0  0  0  0  0
  192.5940  176.3480  137.2160 C   0  0  2  0  0  3  0  0  0  0  0  0
  184.3700  177.1610  135.7950 C   0  0  0  0  0  2  0  0  0  0  0  0
  185.3400  175.4880  137.2220 N   0  0  0  0  0  1  0  0  0  0  0  0
  185.4440  177.5120  134.8650 N   0  0  0  0  0  2  0  0  0  0  0  0
  184.9810  176.8960  137.1500 C   0  0  1  0  0  3  0  0  0  0  0  0
  186.6190  177.8420  135.6690 C   0  0  0  0  0  2  0  0  0  0  0  0
  186.2060  177.7900  137.1230 C   0  0  2  0  0  3  0  0  0  0  0  0
  187.5230  178.4490  139.1470 N   0  0  0  0  0  2  0  0  0  0  0  0
  188.2010  177.3900  141.2500 C   0  0  0  0  0  2  0  0  0  0  0  0
  187.3160  178.6070  143.2630 C   0  0  2  0  0  3  0  0  0  0  0  0
  190.7400  178.5560  143.5700 C   0  0  0  0  0  2  0  0  0  0  0  0
  187.0240  177.8440  140.3730 C   0  0  1  0  0  3  0  0  0  0  0  0
  190.7910  177.1600  142.9550 C   0  0  0  0  0  2  0  0  0  0  0  0
  184.9450  179.3920  143.2220 C   0  0  0  0  0  1  0  0  0  0  0  0
  185.9510  178.4670  142.5650 C   0  0  1  0  0  3  0  0  0  0  0  0
  187.0540  178.2280  145.5980 F   0  0  0  0  0  0  0  0  0  0  0  0
  186.0650  178.8090  141.0830 C   0  0  0  0  0  2  0  0  0  0  0  0
  188.5180  178.3880  142.3680 C   0  0  1  0  0  3  0  0  0  0  0  0
  189.4660  177.7710  143.3580 C   0  0  0  0  0  0  0  0  0  0  0  0
  188.8890  177.3490  144.5640 O   0  0  0  0  0  0  0  0  0  0  0  0
  187.5130  177.6370  144.4340 C   0  0  0  0  0  0  0  0  0  0  0  0
  186.8280  176.4510  144.2210 F   0  0  0  0  0  0  0  0  0  0  0  0
  1 23  1  1  0  0  0
  2  3  1  0  0  0  0
  3  8  1  0  0  0  0
  4  8  1  1  0  0  0
  5  6  1  0  0  0  0
  6  2  1  0  0  0  0
  6  1  1  0  0  0  0
  7  9  1  1  0  0  0
  7  5  1  0  0  0  0
  7  4  1  0  0  0  0
 10 12  1  6  0  0  0
 10 13  1  0  0  0  0
 11 10  1  0  0  0  0
 13 15  1  0  0  0  0
 15 14  2  0  0  0  0
 16 11  1  6  0  0  0
 16  4  1  0  0  0  0
 16 15  1  0  0  0  0
 17 20  1  0  0  0  0
 19 21  1  0  0  0  0
 19 17  1  0  0  0  0
 20 18  1  6  0  0  0
 21 22  1  0  0  0  0
 22 20  1  0  0  0  0
 22  1  1  1  0  0  0
 25 36  1  1  0  0  0
 27 23  1  6  0  0  0
 27 32  1  0  0  0  0
 27 24  1  0  0  0  0
 28 34  1  0  0  0  0
 28 26  1  0  0  0  0
 30 29  1  1  0  0  0
 30 25  1  0  0  0  0
 32 30  1  0  0  0  0
 33 24  1  6  0  0  0
 33 25  1  0  0  0  0
 33 34  1  0  0  0  0
 34 26  1  0  0  0  0
 34 35  1  0  0  0  0
 36 35  1  0  0  0  0
 36 31  1  0  0  0  0
 37 36  1  0  0  0  0
M  END
>  <MODEL>
7

>  <REMARK>
 VINA RESULT:      -7.7      3.494      7.899
  Name = 
  5 active torsions:
  status: ('A' for Active; 'I' for Inactive)
    1  A    between atoms: N_3  and  C_7
    2  A    between atoms: N_3  and  C_10
    3  A    between atoms: C_10  and  N_26
    4  A    between atoms: C_10  and  C_32
    5  A    between atoms: C_22  and  C_37
                            x       y       z     vdW  Elec       q    Type
                         _______ _______ _______ _____ _____    ______ ____

>  <TORSDO>
F 5

$$$$
=
 OpenBabel10222420313D

 37 42  0  0  1  0  0  0  0  0999 V2000
  189.3190  177.6190  141.9820 C   0  0  2  0  0  3  0  0  0  0  0  0
  188.3920  176.8530  139.8200 C   0  0  0  0  0  2  0  0  0  0  0  0
  188.1880  178.1420  139.0070 C   0  0  0  0  0  2  0  0  0  0  0  0
  190.2620  177.4210  137.6250 C   0  0  2  0  0  3  0  0  0  0  0  0
  190.8200  177.2700  140.1370 C   0  0  0  0  0  2  0  0  0  0  0  0
  189.5470  176.8570  140.7420 N   0  0  0  0  0  0  0  0  0  0  0  0
  191.0260  176.6740  138.7390 C   0  0  2  0  0  3  0  0  0  0  0  0
  189.3830  178.5740  138.1490 C   0  0  0  0  0  2  0  0  0  0  0  0
  192.3730  176.6810  138.4360 F   0  0  0  0  0  0  0  0  0  0  0  0
  190.7860  174.5940  135.7280 C   0  0  1  0  0  3  0  0  0  0  0  0
  189.9480  175.0100  136.9400 C   0  0  0  0  0  2  0  0  0  0  0  0
  190.2870  173.2690  135.1900 C   0  0  0  0  0  1  0  0  0  0  0  0
  190.5940  175.6050  134.7590 O   0  0  0  0  0  0  0  0  0  0  0  0
  189.5490  177.6610  134.5950 O   0  0  0  0  0  0  0  0  0  0  0  0
  189.8790  176.6590  135.2810 C   0  0  0  0  0  0  0  0  0  0  0  0
  189.4980  176.4570  136.7010 C   0  0  2  0  0  3  0  0  0  0  0  0
  192.1100  177.8360  144.5220 C   0  0  0  0  0  2  0  0  0  0  0  0
  190.2160  176.3570  144.5050 N   0  0  0  0  0  1  0  0  0  0  0  0
  191.5240  179.1760  144.5750 N   0  0  0  0  0  2  0  0  0  0  0  0
  191.2300  176.9650  143.6570 C   0  0  1  0  0  3  0  0  0  0  0  0
  190.5500  179.2630  143.4890 C   0  0  0  0  0  2  0  0  0  0  0  0
  190.6320  177.9760  142.6980 C   0  0  2  0  0  3  0  0  0  0  0  0
  188.3330  177.0000  142.8700 N   0  0  0  0  0  2  0  0  0  0  0  0
  186.4350  178.4700  142.3840 C   0  0  0  0  0  2  0  0  0  0  0  0
  184.5690  178.2050  144.0450 C   0  0  2  0  0  3  0  0  0  0  0  0
  183.2380  177.5160  140.9510 C   0  0  0  0  0  2  0  0  0  0  0  0
  187.5010  178.0630  143.4130 C   0  0  1  0  0  3  0  0  0  0  0  0
  184.1160  178.5900  140.3160 C   0  0  0  0  0  2  0  0  0  0  0  0
  185.1550  178.0480  146.4680 C   0  0  0  0  0  1  0  0  0  0  0  0
  185.6670  178.4450  145.0960 C   0  0  1  0  0  3  0  0  0  0  0  0
  182.5870  179.3530  144.6930 F   0  0  0  0  0  0  0  0  0  0  0  0
  186.9160  177.6350  144.7660 C   0  0  0  0  0  2  0  0  0  0  0  0
  185.0730  177.8310  142.6670 C   0  0  1  0  0  3  0  0  0  0  0  0
  184.0120  178.4790  141.8210 C   0  0  0  0  0  0  0  0  0  0  0  0
  183.1780  179.3870  142.4900 O   0  0  0  0  0  0  0  0  0  0  0  0
  183.6560  179.4160  143.8170 C   0  0  0  0  0  0  0  0  0  0  0  0
  184.3440  180.6030  144.0170 F   0  0  0  0  0  0  0  0  0  0  0  0
  1 23  1  1  0  0  0
  2  6  1  0  0  0  0
  3  2  1  0  0  0  0
  4  8  1  1  0  0  0
  4  7  1  0  0  0  0
  5  6  1  0  0  0  0
  6  1  1  0  0  0  0
  7  9  1  6  0  0  0
  7  5  1  0  0  0  0
  8  3  1  0  0  0  0
 10 12  1  6  0  0  0
 10 11  1  0  0  0  0
 13 15  1  0  0  0  0
 13 10  1  0  0  0  0
 14 15  2  0  0  0  0
 15 16  1  0  0  0  0
 16 11  1  1  0  0  0
 16  4  1  0  0  0  0
 17 19  1  0  0  0  0
 20 18  1  1  0  0  0
 20 17  1  0  0  0  0
 21 19  1  0  0  0  0
 22  1  1  1  0  0  0
 22 21  1  0  0  0  0
 22 20  1  0  0  0  0
 24 27  1  0  0  0  0
 25 36  1  6  0  0  0
 25 30  1  0  0  0  0
 26 34  1  0  0  0  0
 27 23  1  6  0  0  0
 27 32  1  0  0  0  0
 28 26  1  0  0  0  0
 28 34  1  0  0  0  0
 30 29  1  1  0  0  0
 32 30  1  0  0  0  0
 33 24  1  6  0  0  0
 33 25  1  0  0  0  0
 34 35  1  0  0  0  0
 34 33  1  0  0  0  0
 35 36  1  0  0  0  0
 36 37  1  0  0  0  0
 36 31  1  0  0  0  0
M  END
>  <MODEL>
8

>  <REMARK>
 VINA RESULT:      -7.7      3.587      7.353
  Name = 
  5 active torsions:
  status: ('A' for Active; 'I' for Inactive)
    1  A    between atoms: N_3  and  C_7
    2  A    between atoms: N_3  and  C_10
    3  A    between atoms: C_10  and  N_26
    4  A    between atoms: C_10  and  C_32
    5  A    between atoms: C_22  and  C_37
                            x       y       z     vdW  Elec       q    Type
                         _______ _______ _______ _____ _____    ______ ____

>  <TORSDO>
F 5

$$$$
=
 OpenBabel10222420313D

 37 42  0  0  1  0  0  0  0  0999 V2000
  189.3900  176.6020  142.3580 C   0  0  2  0  0  3  0  0  0  0  0  0
  187.2580  176.3220  143.5820 C   0  0  0  0  0  2  0  0  0  0  0  0
  187.4400  177.1440  144.8700 C   0  0  0  0  0  2  0  0  0  0  0  0
  185.8400  178.8870  143.8040 C   0  0  2  0  0  3  0  0  0  0  0  0
  187.6830  178.2770  142.1080 C   0  0  0  0  0  2  0  0  0  0  0  0
  187.9390  176.8570  142.3840 N   0  0  0  0  0  0  0  0  0  0  0  0
  186.2140  178.6610  142.3240 C   0  0  2  0  0  3  0  0  0  0  0  0
  187.0010  178.6110  144.7810 C   0  0  0  0  0  2  0  0  0  0  0  0
  185.9360  179.8120  141.6140 F   0  0  0  0  0  0  0  0  0  0  0  0
  182.4260  179.3370  143.7440 C   0  0  1  0  0  3  0  0  0  0  0  0
  183.4580  178.3860  143.1330 C   0  0  0  0  0  2  0  0  0  0  0  0
  181.0350  178.7660  143.5710 C   0  0  0  0  0  1  0  0  0  0  0  0
  182.7410  179.4170  145.1200 O   0  0  0  0  0  0  0  0  0  0  0  0
  184.3880  178.6700  146.5600 O   0  0  0  0  0  0  0  0  0  0  0  0
  183.9230  178.7680  145.3940 C   0  0  0  0  0  0  0  0  0  0  0  0
  184.5440  178.1570  144.1930 C   0  0  2  0  0  3  0  0  0  0  0  0
  191.6230  177.5590  145.2530 C   0  0  0  0  0  2  0  0  0  0  0  0
  191.5010  178.5520  143.0690 N   0  0  0  0  0  1  0  0  0  0  0  0
  192.0060  176.1690  145.0000 N   0  0  0  0  0  2  0  0  0  0  0  0
  190.6950  178.0060  144.1510 C   0  0  1  0  0  3  0  0  0  0  0  0
  191.0650  175.6360  144.0170 C   0  0  0  0  0  2  0  0  0  0  0  0
  190.0260  176.7040  143.7550 C   0  0  2  0  0  3  0  0  0  0  0  0
  190.1000  177.3890  141.3480 N   0  0  0  0  0  2  0  0  0  0  0  0
  189.1540  176.6670  139.2070 C   0  0  0  0  0  2  0  0  0  0  0  0
  190.6950  177.1250  137.2760 C   0  0  2  0  0  3  0  0  0  0  0  0
  187.7590  178.7820  136.6050 C   0  0  0  0  0  2  0  0  0  0  0  0
  190.3210  176.5290  140.1950 C   0  0  1  0  0  3  0  0  0  0  0  0
  186.9560  177.6500  137.2380 C   0  0  0  0  0  2  0  0  0  0  0  0
  193.1250  176.6120  137.5540 C   0  0  0  0  0  1  0  0  0  0  0  0
  191.7370  176.3680  138.1180 C   0  0  1  0  0  3  0  0  0  0  0  0
  190.9190  176.5000  134.9900 F   0  0  0  0  0  0  0  0  0  0  0  0
  191.6920  176.8270  139.5720 C   0  0  0  0  0  2  0  0  0  0  0  0
  189.4800  177.6060  138.0410 C   0  0  1  0  0  3  0  0  0  0  0  0
  188.4350  177.4800  136.9680 C   0  0  0  0  0  0  0  0  0  0  0  0
  188.8150  176.7400  135.8390 O   0  0  0  0  0  0  0  0  0  0  0  0
  190.1300  176.3060  136.1100 C   0  0  0  0  0  0  0  0  0  0  0  0
  190.0980  174.9540  136.4200 F   0  0  0  0  0  0  0  0  0  0  0  0
  1 23  1  6  0  0  0
  1  6  1  0  0  0  0
  2  3  1  0  0  0  0
  4 16  1  0  0  0  0
  4  8  1  1  0  0  0
  5  7  1  0  0  0  0
  5  6  1  0  0  0  0
  6  2  1  0  0  0  0
  7  9  1  6  0  0  0
  7  4  1  0  0  0  0
  8  3  1  0  0  0  0
 10 12  1  1  0  0  0
 10 13  1  0  0  0  0
 11 10  1  0  0  0  0
 13 15  1  0  0  0  0
 15 14  2  0  0  0  0
 16 11  1  6  0  0  0
 16 15  1  0  0  0  0
 19 17  1  0  0  0  0
 20 18  1  6  0  0  0
 20 17  1  0  0  0  0
 21 19  1  0  0  0  0
 22  1  1  6  0  0  0
 22 21  1  0  0  0  0
 22 20  1  0  0  0  0
 24 27  1  0  0  0  0
 25 36  1  6  0  0  0
 25 33  1  0  0  0  0
 25 30  1  0  0  0  0
 26 34  1  0  0  0  0
 26 28  1  0  0  0  0
 27 23  1  1  0  0  0
 30 29  1  6  0  0  0
 30 32  1  0  0  0  0
 31 36  1  0  0  0  0
 32 27  1  0  0  0  0
 33 24  1  1  0  0  0
 34 28  1  0  0  0  0
 34 33  1  0  0  0  0
 35 36  1  0  0  0  0
 35 34  1  0  0  0  0
 36 37  1  0  0  0  0
M  END
>  <MODEL>
9

>  <REMARK>
 VINA RESULT:      -7.5      2.902      5.109
  Name = 
  5 active torsions:
  status: ('A' for Active; 'I' for Inactive)
    1  A    between atoms: N_3  and  C_7
    2  A    between atoms: N_3  and  C_10
    3  A    between atoms: C_10  and  N_26
    4  A    between atoms: C_10  and  C_32
    5  A    between atoms: C_22  and  C_37
                            x       y       z     vdW  Elec       q    Type
                         _______ _______ _______ _____ _____    ______ ____

>  <TORSDO>
F 5

$$$$
