=
 OpenBabel10222418263D

 26 30  0  0  1  0  0  0  0  0999 V2000
  181.4440  178.2240  139.9960 C   0  0  1  0  0  3  0  0  0  0  0  0
  182.3150  180.0460  138.3000 C   0  0  0  0  0  1  0  0  0  0  0  0
  181.8520  178.0530  141.4520 C   0  0  1  0  0  3  0  0  0  0  0  0
  183.5830  179.3790  140.3630 C   0  0  1  0  0  3  0  0  0  0  0  0
  183.1390  178.7250  141.5850 N   0  0  0  0  0  0  0  0  0  0  0  0
  183.9900  178.3440  139.3230 C   0  0  0  0  0  2  0  0  0  0  0  0
  182.5980  178.9440  139.2990 C   0  0  1  0  0  0  0  0  0  0  0  0
  185.6160  178.3930  145.0220 C   0  0  0  0  0  0  0  0  0  0  0  0
  185.2310  177.9870  142.6670 C   0  0  0  0  0  3  0  0  0  0  0  0
  186.4070  178.2870  146.1170 F   0  0  0  0  0  0  0  0  0  0  0  0
  184.3700  179.0170  145.1180 C   0  0  0  0  0  3  0  0  0  0  0  0
  186.0470  177.8780  143.7970 C   0  0  0  0  0  3  0  0  0  0  0  0
  183.9770  178.6130  142.7510 C   0  0  0  0  0  0  0  0  0  0  0  0
  183.5550  179.1260  143.9870 C   0  0  0  0  0  3  0  0  0  0  0  0
  180.2920  179.9200  142.0370 C   0  0  0  0  0  3  0  0  0  0  0  0
  180.8230  178.6670  142.3530 C   0  0  0  0  0  0  0  0  0  0  0  0
  179.3640  180.4960  142.8490 N   0  0  0  0  0  0  0  0  0  0  0  0
  179.4380  178.6290  144.3390 C   0  0  0  0  0  3  0  0  0  0  0  0
  180.3910  178.0230  143.5200 C   0  0  0  0  0  3  0  0  0  0  0  0
  178.9310  179.8800  143.9830 C   0  0  0  0  0  3  0  0  0  0  0  0
  180.3840  175.9140  139.9410 C   0  0  0  0  0  3  0  0  0  0  0  0
  181.1520  176.9050  139.3600 C   0  0  0  0  0  0  0  0  0  0  0  0
  181.1490  175.3360  137.9000 C   0  0  0  0  0  3  0  0  0  0  0  0
  179.7510  173.6660  139.0930 N   0  0  0  0  0  1  0  0  0  0  0  0
  180.4040  174.9250  138.9810 C   0  0  0  0  0  0  0  0  0  0  0  0
  181.5840  176.5440  138.1720 O   0  0  0  0  0  0  0  0  0  0  0  0
  1 22  1  6  0  0  0
  1  3  1  0  0  0  0
  3  5  1  0  0  0  0
  3 16  1  1  0  0  0
  4  6  1  6  0  0  0
  4  5  1  0  0  0  0
  5 13  1  0  0  0  0
  7  2  1  6  0  0  0
  7  6  1  0  0  0  0
  7  1  1  0  0  0  0
  7  4  1  0  0  0  0
  8 11  1  0  0  0  0
  8 10  1  0  0  0  0
  9 13  2  0  0  0  0
  9 12  1  0  0  0  0
 12  8  2  0  0  0  0
 13 14  1  0  0  0  0
 14 11  2  0  0  0  0
 15 16  2  0  0  0  0
 15 17  1  0  0  0  0
 16 19  1  0  0  0  0
 17 20  2  0  0  0  0
 19 18  2  0  0  0  0
 20 18  1  0  0  0  0
 22 21  2  0  0  0  0
 23 26  1  0  0  0  0
 23 25  2  0  0  0  0
 25 24  1  0  0  0  0
 25 21  1  0  0  0  0
 26 22  1  0  0  0  0
M  END
>  <MODEL>
1

>  <REMARK>
 VINA RESULT:      -6.7      0.000      0.000
  Name = 
  3 active torsions:
  status: ('A' for Active; 'I' for Inactive)
    1  A    between atoms: C_2  and  C_5
    2  A    between atoms: C_4  and  C_13
    3  A    between atoms: C_15  and  N_23
                            x       y       z     vdW  Elec       q    Type
                         _______ _______ _______ _____ _____    ______ ____

>  <TORSDO>
F 3

$$$$
=
 OpenBabel10222418263D

 26 30  0  0  1  0  0  0  0  0999 V2000
  181.0620  179.2880  139.1520 C   0  0  1  0  0  3  0  0  0  0  0  0
  179.0340  177.6540  139.5630 C   0  0  0  0  0  1  0  0  0  0  0  0
  182.3880  179.3160  139.8970 C   0  0  1  0  0  3  0  0  0  0  0  0
  180.7900  178.1220  141.2980 C   0  0  1  0  0  3  0  0  0  0  0  0
  182.1420  178.6460  141.1690 N   0  0  0  0  0  0  0  0  0  0  0  0
  179.7910  179.2590  141.4600 C   0  0  0  0  0  2  0  0  0  0  0  0
  180.0410  178.6520  140.0940 C   0  0  1  0  0  0  0  0  0  0  0  0
  184.9020  178.6540  144.4010 C   0  0  0  0  0  0  0  0  0  0  0  0
  182.6840  179.0940  143.5350 C   0  0  0  0  0  3  0  0  0  0  0  0
  185.7800  178.6560  145.4310 F   0  0  0  0  0  0  0  0  0  0  0  0
  185.3050  178.2090  143.1390 C   0  0  0  0  0  3  0  0  0  0  0  0
  183.5910  179.0960  144.5980 C   0  0  0  0  0  3  0  0  0  0  0  0
  183.0780  178.6490  142.2630 C   0  0  0  0  0  0  0  0  0  0  0  0
  184.3980  178.2070  142.0760 C   0  0  0  0  0  3  0  0  0  0  0  0
  184.6790  179.2230  138.8970 C   0  0  0  0  0  3  0  0  0  0  0  0
  183.4430  178.6060  139.1040 C   0  0  0  0  0  0  0  0  0  0  0  0
  185.6450  178.5970  138.1720 N   0  0  0  0  0  0  0  0  0  0  0  0
  184.2190  176.7140  137.8070 C   0  0  0  0  0  3  0  0  0  0  0  0
  183.2160  177.3410  138.5470 C   0  0  0  0  0  3  0  0  0  0  0  0
  185.4410  177.3650  137.6290 C   0  0  0  0  0  3  0  0  0  0  0  0
  181.5120  181.6160  138.2320 C   0  0  0  0  0  3  0  0  0  0  0  0
  180.6490  180.6620  138.7360 C   0  0  0  0  0  0  0  0  0  0  0  0
  179.3830  182.3480  138.3500 C   0  0  0  0  0  3  0  0  0  0  0  0
  181.0740  183.9380  137.4690 N   0  0  0  0  0  1  0  0  0  0  0  0
  180.6710  182.6810  137.9970 C   0  0  0  0  0  0  0  0  0  0  0  0
  179.4150  181.1130  138.7930 O   0  0  0  0  0  0  0  0  0  0  0  0
  1 22  1  1  0  0  0
  1  3  1  0  0  0  0
  1  7  1  0  0  0  0
  3 16  1  6  0  0  0
  3  5  1  0  0  0  0
  4  6  1  1  0  0  0
  5  4  1  0  0  0  0
  5 13  1  0  0  0  0
  7  2  1  6  0  0  0
  7  4  1  0  0  0  0
  7  6  1  0  0  0  0
  8 12  1  0  0  0  0
  8 10  1  0  0  0  0
  9 12  2  0  0  0  0
 11  8  2  0  0  0  0
 13  9  1  0  0  0  0
 14 13  2  0  0  0  0
 14 11  1  0  0  0  0
 15 16  1  0  0  0  0
 17 15  2  0  0  0  0
 18 19  1  0  0  0  0
 19 16  2  0  0  0  0
 20 18  2  0  0  0  0
 20 17  1  0  0  0  0
 21 22  2  0  0  0  0
 22 26  1  0  0  0  0
 23 26  1  0  0  0  0
 24 25  1  0  0  0  0
 25 21  1  0  0  0  0
 25 23  2  0  0  0  0
M  END
>  <MODEL>
2

>  <REMARK>
 VINA RESULT:      -6.6      2.411      5.192
  Name = 
  3 active torsions:
  status: ('A' for Active; 'I' for Inactive)
    1  A    between atoms: C_2  and  C_5
    2  A    between atoms: C_4  and  C_13
    3  A    between atoms: C_15  and  N_23
                            x       y       z     vdW  Elec       q    Type
                         _______ _______ _______ _____ _____    ______ ____

>  <TORSDO>
F 3

$$$$
=
 OpenBabel10222418263D

 26 30  0  0  1  0  0  0  0  0999 V2000
  189.9520  177.2650  138.6360 C   0  0  1  0  0  3  0  0  0  0  0  0
  189.0270  179.2610  137.1840 C   0  0  0  0  0  1  0  0  0  0  0  0
  190.1380  175.8190  138.2010 C   0  0  1  0  0  3  0  0  0  0  0  0
  188.5680  176.8500  136.6480 C   0  0  1  0  0  3  0  0  0  0  0  0
  189.2620  175.6350  137.0490 N   0  0  0  0  0  0  0  0  0  0  0  0
  187.5000  177.2160  137.6710 C   0  0  0  0  0  2  0  0  0  0  0  0
  188.8720  177.8590  137.7350 C   0  0  1  0  0  0  0  0  0  0  0  0
  188.4090  171.8440  135.3300 C   0  0  0  0  0  0  0  0  0  0  0  0
  189.3850  174.0530  135.1600 C   0  0  0  0  0  3  0  0  0  0  0  0
  188.1380  170.6350  134.7820 F   0  0  0  0  0  0  0  0  0  0  0  0
  187.9920  172.1290  136.6330 C   0  0  0  0  0  3  0  0  0  0  0  0
  189.1050  172.8050  134.5940 C   0  0  0  0  0  3  0  0  0  0  0  0
  188.9720  174.3500  136.4680 C   0  0  0  0  0  0  0  0  0  0  0  0
  188.2720  173.3760  137.1990 C   0  0  0  0  0  3  0  0  0  0  0  0
  192.4590  176.6410  137.7580 C   0  0  0  0  0  3  0  0  0  0  0  0
  191.5710  175.5660  137.8390 C   0  0  0  0  0  0  0  0  0  0  0  0
  193.7610  176.4310  137.4210 N   0  0  0  0  0  0  0  0  0  0  0  0
  193.3790  174.0810  137.2200 C   0  0  0  0  0  3  0  0  0  0  0  0
  192.0410  174.2760  137.5610 C   0  0  0  0  0  3  0  0  0  0  0  0
  194.2340  175.1830  137.1540 C   0  0  0  0  0  3  0  0  0  0  0  0
  190.1940  176.6350  141.0880 C   0  0  0  0  0  3  0  0  0  0  0  0
  189.5770  177.3490  140.0790 C   0  0  0  0  0  0  0  0  0  0  0  0
  188.5470  177.9710  141.8530 C   0  0  0  0  0  3  0  0  0  0  0  0
  189.7650  176.6080  143.5340 N   0  0  0  0  0  1  0  0  0  0  0  0
  189.5110  177.0550  142.2080 C   0  0  0  0  0  0  0  0  0  0  0  0
  188.6220  178.1200  140.5510 O   0  0  0  0  0  0  0  0  0  0  0  0
  1 22  1  1  0  0  0
  3 16  1  6  0  0  0
  3  1  1  0  0  0  0
  4  5  1  0  0  0  0
  4  6  1  1  0  0  0
  4  7  1  0  0  0  0
  5  3  1  0  0  0  0
  6  7  1  0  0  0  0
  7  2  1  6  0  0  0
  7  1  1  0  0  0  0
  8 11  1  0  0  0  0
  9 13  2  0  0  0  0
 10  8  1  0  0  0  0
 11 14  2  0  0  0  0
 12  9  1  0  0  0  0
 12  8  2  0  0  0  0
 13  5  1  0  0  0  0
 13 14  1  0  0  0  0
 15 16  1  0  0  0  0
 17 15  2  0  0  0  0
 18 19  1  0  0  0  0
 19 16  2  0  0  0  0
 20 18  2  0  0  0  0
 20 17  1  0  0  0  0
 21 25  1  0  0  0  0
 22 26  1  0  0  0  0
 22 21  2  0  0  0  0
 23 25  2  0  0  0  0
 25 24  1  0  0  0  0
 26 23  1  0  0  0  0
M  END
>  <MODEL>
3

>  <REMARK>
 VINA RESULT:      -6.1      7.834     10.918
  Name = 
  3 active torsions:
  status: ('A' for Active; 'I' for Inactive)
    1  A    between atoms: C_2  and  C_5
    2  A    between atoms: C_4  and  C_13
    3  A    between atoms: C_15  and  N_23
                            x       y       z     vdW  Elec       q    Type
                         _______ _______ _______ _____ _____    ______ ____

>  <TORSDO>
F 3

$$$$
=
 OpenBabel10222418263D

 26 30  0  0  1  0  0  0  0  0999 V2000
  182.6130  178.4860  138.6690 C   0  0  1  0  0  3  0  0  0  0  0  0
  181.1720  176.2800  138.5670 C   0  0  0  0  0  1  0  0  0  0  0  0
  183.5910  178.8960  139.7590 C   0  0  1  0  0  3  0  0  0  0  0  0
  182.1190  177.2000  140.7040 C   0  0  1  0  0  3  0  0  0  0  0  0
  183.2150  178.1280  140.9400 N   0  0  0  0  0  0  0  0  0  0  0  0
  180.8110  177.9570  140.5180 C   0  0  0  0  0  2  0  0  0  0  0  0
  181.6190  177.5200  139.3120 C   0  0  1  0  0  0  0  0  0  0  0  0
  184.7870  178.8630  144.8190 C   0  0  0  0  0  0  0  0  0  0  0  0
  183.0000  179.0920  143.2020 C   0  0  0  0  0  3  0  0  0  0  0  0
  185.2870  179.0960  146.0560 F   0  0  0  0  0  0  0  0  0  0  0  0
  185.5410  178.1490  143.8840 C   0  0  0  0  0  3  0  0  0  0  0  0
  183.5170  179.3340  144.4780 C   0  0  0  0  0  3  0  0  0  0  0  0
  183.7490  178.3760  142.2540 C   0  0  0  0  0  0  0  0  0  0  0  0
  185.0250  177.9080  142.6080 C   0  0  0  0  0  3  0  0  0  0  0  0
  186.0540  178.8910  140.1980 C   0  0  0  0  0  3  0  0  0  0  0  0
  184.9970  178.5890  139.3370 C   0  0  0  0  0  0  0  0  0  0  0  0
  187.3370  178.6280  139.8270 N   0  0  0  0  0  0  0  0  0  0  0  0
  186.6020  177.7600  137.7250 C   0  0  0  0  0  3  0  0  0  0  0  0
  185.2810  178.0230  138.0870 C   0  0  0  0  0  3  0  0  0  0  0  0
  187.6290  178.0720  138.6190 C   0  0  0  0  0  3  0  0  0  0  0  0
  181.9430  180.9390  138.6470 C   0  0  0  0  0  3  0  0  0  0  0  0
  181.9280  179.6770  138.0840 C   0  0  0  0  0  0  0  0  0  0  0  0
  180.7740  180.8610  136.7190 C   0  0  0  0  0  3  0  0  0  0  0  0
  180.9030  183.0570  137.8720 N   0  0  0  0  0  1  0  0  0  0  0  0
  181.1960  181.6700  137.7500 C   0  0  0  0  0  0  0  0  0  0  0  0
  181.2420  179.6590  136.9620 O   0  0  0  0  0  0  0  0  0  0  0  0
  1 22  1  1  0  0  0
  1  7  1  0  0  0  0
  1  3  1  0  0  0  0
  3 16  1  6  0  0  0
  3  5  1  0  0  0  0
  4  6  1  1  0  0  0
  4  5  1  0  0  0  0
  5 13  1  0  0  0  0
  7  2  1  6  0  0  0
  7  6  1  0  0  0  0
  7  4  1  0  0  0  0
  8 10  1  0  0  0  0
  9 12  2  0  0  0  0
 11  8  2  0  0  0  0
 12  8  1  0  0  0  0
 13 14  2  0  0  0  0
 13  9  1  0  0  0  0
 14 11  1  0  0  0  0
 16 15  2  0  0  0  0
 17 15  1  0  0  0  0
 18 19  2  0  0  0  0
 18 20  1  0  0  0  0
 19 16  1  0  0  0  0
 20 17  2  0  0  0  0
 22 21  2  0  0  0  0
 23 26  1  0  0  0  0
 23 25  2  0  0  0  0
 25 24  1  0  0  0  0
 25 21  1  0  0  0  0
 26 22  1  0  0  0  0
M  END
>  <MODEL>
4

>  <REMARK>
 VINA RESULT:      -5.8      2.299      5.167
  Name = 
  3 active torsions:
  status: ('A' for Active; 'I' for Inactive)
    1  A    between atoms: C_2  and  C_5
    2  A    between atoms: C_4  and  C_13
    3  A    between atoms: C_15  and  N_23
                            x       y       z     vdW  Elec       q    Type
                         _______ _______ _______ _____ _____    ______ ____

>  <TORSDO>
F 3

$$$$
=
 OpenBabel10222418263D

 26 30  0  0  1  0  0  0  0  0999 V2000
  182.5230  176.3170  139.3450 C   0  0  1  0  0  3  0  0  0  0  0  0
  180.4710  174.9120  140.2220 C   0  0  0  0  0  1  0  0  0  0  0  0
  182.6410  177.8320  139.2830 C   0  0  1  0  0  3  0  0  0  0  0  0
  180.2700  177.2940  139.4490 C   0  0  1  0  0  3  0  0  0  0  0  0
  181.2740  178.3390  139.3080 N   0  0  0  0  0  0  0  0  0  0  0  0
  180.1700  176.4750  138.1690 C   0  0  0  0  0  2  0  0  0  0  0  0
  181.0310  175.9910  139.3190 C   0  0  1  0  0  0  0  0  0  0  0  0
  180.2590  182.3920  138.5330 C   0  0  0  0  0  0  0  0  0  0  0  0
  181.5180  180.4000  137.9740 C   0  0  0  0  0  3  0  0  0  0  0  0
  179.9350  183.6830  138.2850 F   0  0  0  0  0  0  0  0  0  0  0  0
  179.6670  181.7160  139.6040 C   0  0  0  0  0  3  0  0  0  0  0  0
  181.1840  181.7340  137.7190 C   0  0  0  0  0  3  0  0  0  0  0  0
  180.9290  179.7120  139.0470 C   0  0  0  0  0  0  0  0  0  0  0  0
  180.0010  180.3830  139.8590 C   0  0  0  0  0  3  0  0  0  0  0  0
  184.6830  178.9180  140.2370 C   0  0  0  0  0  3  0  0  0  0  0  0
  183.4300  178.3390  140.4520 C   0  0  0  0  0  0  0  0  0  0  0  0
  185.4170  179.3750  141.2880 N   0  0  0  0  0  0  0  0  0  0  0  0
  183.7170  178.7050  142.8280 C   0  0  0  0  0  3  0  0  0  0  0  0
  182.9500  178.2300  141.7640 C   0  0  0  0  0  3  0  0  0  0  0  0
  184.9620  179.2820  142.5680 C   0  0  0  0  0  3  0  0  0  0  0  0
  184.0200  176.3570  137.2900 C   0  0  0  0  0  3  0  0  0  0  0  0
  183.2490  175.6730  138.2100 C   0  0  0  0  0  0  0  0  0  0  0  0
  183.9800  174.1350  136.9080 C   0  0  0  0  0  3  0  0  0  0  0  0
  185.3190  175.5230  135.3440 N   0  0  0  0  0  1  0  0  0  0  0  0
  184.4710  175.3440  136.4720 C   0  0  0  0  0  0  0  0  0  0  0  0
  183.2430  174.3810  137.9660 O   0  0  0  0  0  0  0  0  0  0  0  0
  1 22  1  6  0  0  0
  3  5  1  0  0  0  0
  3  1  1  0  0  0  0
  3 16  1  1  0  0  0
  4  6  1  6  0  0  0
  5  4  1  0  0  0  0
  6  7  1  0  0  0  0
  7  1  1  0  0  0  0
  7  4  1  0  0  0  0
  7  2  1  1  0  0  0
  8 11  1  0  0  0  0
  9 13  2  0  0  0  0
 10  8  1  0  0  0  0
 11 14  2  0  0  0  0
 12  9  1  0  0  0  0
 12  8  2  0  0  0  0
 13  5  1  0  0  0  0
 13 14  1  0  0  0  0
 15 16  2  0  0  0  0
 15 17  1  0  0  0  0
 16 19  1  0  0  0  0
 17 20  2  0  0  0  0
 19 18  2  0  0  0  0
 20 18  1  0  0  0  0
 21 22  2  0  0  0  0
 23 26  1  0  0  0  0
 24 25  1  0  0  0  0
 25 23  2  0  0  0  0
 25 21  1  0  0  0  0
 26 22  1  0  0  0  0
M  END
>  <MODEL>
5

>  <REMARK>
 VINA RESULT:      -5.8      3.313      5.587
  Name = 
  3 active torsions:
  status: ('A' for Active; 'I' for Inactive)
    1  A    between atoms: C_2  and  C_5
    2  A    between atoms: C_4  and  C_13
    3  A    between atoms: C_15  and  N_23
                            x       y       z     vdW  Elec       q    Type
                         _______ _______ _______ _____ _____    ______ ____

>  <TORSDO>
F 3

$$$$
=
 OpenBabel10222418263D

 26 30  0  0  1  0  0  0  0  0999 V2000
  188.6140  177.4630  137.9070 C   0  0  1  0  0  3  0  0  0  0  0  0
  187.5600  179.4080  136.4720 C   0  0  0  0  0  1  0  0  0  0  0  0
  188.5350  175.9690  137.6310 C   0  0  1  0  0  3  0  0  0  0  0  0
  186.7360  177.0360  136.3800 C   0  0  1  0  0  3  0  0  0  0  0  0
  187.3810  175.7870  136.7570 N   0  0  0  0  0  0  0  0  0  0  0  0
  186.0060  177.6400  137.5720 C   0  0  0  0  0  2  0  0  0  0  0  0
  187.4080  178.1010  137.2210 C   0  0  1  0  0  0  0  0  0  0  0  0
  185.7320  171.9880  135.8070 C   0  0  0  0  0  0  0  0  0  0  0  0
  185.9590  173.8540  137.3320 C   0  0  0  0  0  3  0  0  0  0  0  0
  185.2050  170.7780  135.5040 F   0  0  0  0  0  0  0  0  0  0  0  0
  186.5910  172.6220  134.9050 C   0  0  0  0  0  3  0  0  0  0  0  0
  185.4160  172.6050  137.0200 C   0  0  0  0  0  3  0  0  0  0  0  0
  186.8230  174.5000  136.4340 C   0  0  0  0  0  0  0  0  0  0  0  0
  187.1340  173.8710  135.2170 C   0  0  0  0  0  3  0  0  0  0  0  0
  190.4590  176.3350  136.0750 C   0  0  0  0  0  3  0  0  0  0  0  0
  189.7950  175.4950  136.9730 C   0  0  0  0  0  0  0  0  0  0  0  0
  191.6000  175.9170  135.4610 N   0  0  0  0  0  0  0  0  0  0  0  0
  191.4890  173.8100  136.5830 C   0  0  0  0  0  3  0  0  0  0  0  0
  190.3180  174.2190  137.2210 C   0  0  0  0  0  3  0  0  0  0  0  0
  192.1230  174.6830  135.6960 C   0  0  0  0  0  3  0  0  0  0  0  0
  189.4690  177.1200  140.2770 C   0  0  0  0  0  3  0  0  0  0  0  0
  188.6270  177.7400  139.3740 C   0  0  0  0  0  0  0  0  0  0  0  0
  188.1060  178.6260  141.2550 C   0  0  0  0  0  3  0  0  0  0  0  0
  189.6880  177.4110  142.7340 N   0  0  0  0  0  1  0  0  0  0  0  0
  189.1090  177.7090  141.4690 C   0  0  0  0  0  0  0  0  0  0  0  0
  187.8440  178.6130  139.9690 O   0  0  0  0  0  0  0  0  0  0  0  0
  1 22  1  1  0  0  0
  3 16  1  6  0  0  0
  3  1  1  0  0  0  0
  4  5  1  0  0  0  0
  4  7  1  0  0  0  0
  4  6  1  1  0  0  0
  5  3  1  0  0  0  0
  7  2  1  6  0  0  0
  7  6  1  0  0  0  0
  7  1  1  0  0  0  0
  8 12  1  0  0  0  0
 10  8  1  0  0  0  0
 11 14  1  0  0  0  0
 11  8  2  0  0  0  0
 12  9  2  0  0  0  0
 13  5  1  0  0  0  0
 13  9  1  0  0  0  0
 14 13  2  0  0  0  0
 15 16  1  0  0  0  0
 16 19  2  0  0  0  0
 17 20  1  0  0  0  0
 17 15  2  0  0  0  0
 18 19  1  0  0  0  0
 20 18  2  0  0  0  0
 21 25  1  0  0  0  0
 22 26  1  0  0  0  0
 22 21  2  0  0  0  0
 23 25  2  0  0  0  0
 25 24  1  0  0  0  0
 26 23  1  0  0  0  0
M  END
>  <MODEL>
6

>  <REMARK>
 VINA RESULT:      -5.7      6.714     10.074
  Name = 
  3 active torsions:
  status: ('A' for Active; 'I' for Inactive)
    1  A    between atoms: C_2  and  C_5
    2  A    between atoms: C_4  and  C_13
    3  A    between atoms: C_15  and  N_23
                            x       y       z     vdW  Elec       q    Type
                         _______ _______ _______ _____ _____    ______ ____

>  <TORSDO>
F 3

$$$$
=
 OpenBabel10222418263D

 26 30  0  0  1  0  0  0  0  0999 V2000
  184.1030  178.2380  138.7190 C   0  0  1  0  0  3  0  0  0  0  0  0
  181.7910  179.3440  138.0990 C   0  0  0  0  0  1  0  0  0  0  0  0
  184.6420  176.9000  138.2360 C   0  0  1  0  0  3  0  0  0  0  0  0
  182.2290  176.8790  137.8930 C   0  0  1  0  0  3  0  0  0  0  0  0
  183.4770  176.1370  137.8010 N   0  0  0  0  0  0  0  0  0  0  0  0
  181.8270  177.0670  139.3500 C   0  0  0  0  0  2  0  0  0  0  0  0
  182.5810  178.1610  138.6180 C   0  0  1  0  0  0  0  0  0  0  0  0
  183.6040  172.0000  136.8390 C   0  0  0  0  0  0  0  0  0  0  0  0
  182.3680  174.0730  137.0250 C   0  0  0  0  0  3  0  0  0  0  0  0
  183.6440  170.6810  136.5320 F   0  0  0  0  0  0  0  0  0  0  0  0
  184.7580  172.6480  137.2870 C   0  0  0  0  0  3  0  0  0  0  0  0
  182.4100  172.7120  136.7080 C   0  0  0  0  0  3  0  0  0  0  0  0
  183.5220  174.7350  137.4760 C   0  0  0  0  0  0  0  0  0  0  0  0
  184.7170  174.0090  137.6040 C   0  0  0  0  0  3  0  0  0  0  0  0
  186.9800  177.1040  137.3710 C   0  0  0  0  0  3  0  0  0  0  0  0
  185.6080  177.1070  137.1090 C   0  0  0  0  0  0  0  0  0  0  0  0
  187.8710  177.3000  136.3610 N   0  0  0  0  0  0  0  0  0  0  0  0
  186.0980  177.5210  134.7740 C   0  0  0  0  0  3  0  0  0  0  0  0
  185.1690  177.3230  135.7960 C   0  0  0  0  0  3  0  0  0  0  0  0
  187.4600  177.5050  135.0790 C   0  0  0  0  0  3  0  0  0  0  0  0
  183.9980  177.9520  141.2440 C   0  0  0  0  0  3  0  0  0  0  0  0
  184.5500  178.5260  140.1150 C   0  0  0  0  0  0  0  0  0  0  0  0
  185.6770  179.3780  141.7270 C   0  0  0  0  0  3  0  0  0  0  0  0
  184.5660  178.2550  143.6430 N   0  0  0  0  0  1  0  0  0  0  0  0
  184.7410  178.5190  142.2560 C   0  0  0  0  0  0  0  0  0  0  0  0
  185.5260  179.3520  140.4240 O   0  0  0  0  0  0  0  0  0  0  0  0
  1 22  1  1  0  0  0
  3 16  1  6  0  0  0
  3  1  1  0  0  0  0
  4  7  1  0  0  0  0
  4  6  1  1  0  0  0
  5  4  1  0  0  0  0
  5  3  1  0  0  0  0
  7  2  1  6  0  0  0
  7  1  1  0  0  0  0
  7  6  1  0  0  0  0
  8 11  1  0  0  0  0
  9 13  2  0  0  0  0
 10  8  1  0  0  0  0
 11 14  2  0  0  0  0
 12  8  2  0  0  0  0
 12  9  1  0  0  0  0
 13 14  1  0  0  0  0
 13  5  1  0  0  0  0
 16 15  1  0  0  0  0
 17 15  2  0  0  0  0
 18 20  2  0  0  0  0
 18 19  1  0  0  0  0
 19 16  2  0  0  0  0
 20 17  1  0  0  0  0
 21 25  1  0  0  0  0
 22 26  1  0  0  0  0
 22 21  2  0  0  0  0
 23 25  2  0  0  0  0
 25 24  1  0  0  0  0
 26 23  1  0  0  0  0
M  END
>  <MODEL>
7

>  <REMARK>
 VINA RESULT:      -5.4      4.162      7.722
  Name = 
  3 active torsions:
  status: ('A' for Active; 'I' for Inactive)
    1  A    between atoms: C_2  and  C_5
    2  A    between atoms: C_4  and  C_13
    3  A    between atoms: C_15  and  N_23
                            x       y       z     vdW  Elec       q    Type
                         _______ _______ _______ _____ _____    ______ ____

>  <TORSDO>
F 3

$$$$
=
 OpenBabel10222418263D

 26 30  0  0  1  0  0  0  0  0999 V2000
  181.7510  177.4010  137.6250 C   0  0  1  0  0  3  0  0  0  0  0  0
  183.6060  177.2430  135.7570 C   0  0  0  0  0  1  0  0  0  0  0  0
  181.8760  178.0550  138.9930 C   0  0  1  0  0  3  0  0  0  0  0  0
  184.1340  177.6250  138.1830 C   0  0  1  0  0  3  0  0  0  0  0  0
  183.3060  178.1190  139.2740 N   0  0  0  0  0  0  0  0  0  0  0  0
  184.0090  176.1120  138.0610 C   0  0  0  0  0  2  0  0  0  0  0  0
  183.1650  177.0210  137.1890 C   0  0  1  0  0  0  0  0  0  0  0  0
  184.9050  179.1510  143.0730 C   0  0  0  0  0  0  0  0  0  0  0  0
  183.0870  178.2900  141.7260 C   0  0  0  0  0  3  0  0  0  0  0  0
  185.4150  179.4790  144.2840 F   0  0  0  0  0  0  0  0  0  0  0  0
  185.6730  179.3330  141.9190 C   0  0  0  0  0  3  0  0  0  0  0  0
  183.6130  178.6300  142.9760 C   0  0  0  0  0  3  0  0  0  0  0  0
  183.8490  178.4690  140.5600 C   0  0  0  0  0  0  0  0  0  0  0  0
  185.1470  178.9940  140.6690 C   0  0  0  0  0  3  0  0  0  0  0  0
  180.3580  179.7880  139.9680 C   0  0  0  0  0  3  0  0  0  0  0  0
  181.2660  179.4240  138.9700 C   0  0  0  0  0  0  0  0  0  0  0  0
  179.7880  181.0240  139.9570 N   0  0  0  0  0  0  0  0  0  0  0  0
  180.9740  181.6080  137.9660 C   0  0  0  0  0  3  0  0  0  0  0  0
  181.5680  180.3460  137.9590 C   0  0  0  0  0  3  0  0  0  0  0  0
  180.0760  181.9320  138.9850 C   0  0  0  0  0  3  0  0  0  0  0  0
  180.4790  175.4650  136.5760 C   0  0  0  0  0  3  0  0  0  0  0  0
  180.8510  176.2100  137.6780 C   0  0  0  0  0  0  0  0  0  0  0  0
  179.5890  174.6810  138.4940 C   0  0  0  0  0  3  0  0  0  0  0  0
  179.0200  173.4620  136.4070 N   0  0  0  0  0  1  0  0  0  0  0  0
  179.6720  174.4970  137.1330 C   0  0  0  0  0  0  0  0  0  0  0  0
  180.3210  175.7320  138.7820 O   0  0  0  0  0  0  0  0  0  0  0  0
  1 22  1  1  0  0  0
  1  3  1  0  0  0  0
  3 16  1  6  0  0  0
  3  5  1  0  0  0  0
  4  6  1  1  0  0  0
  4  5  1  0  0  0  0
  5 13  1  0  0  0  0
  7  2  1  6  0  0  0
  7  1  1  0  0  0  0
  7  6  1  0  0  0  0
  7  4  1  0  0  0  0
  8 10  1  0  0  0  0
  9 12  2  0  0  0  0
 11  8  2  0  0  0  0
 12  8  1  0  0  0  0
 13 14  2  0  0  0  0
 13  9  1  0  0  0  0
 14 11  1  0  0  0  0
 16 15  2  0  0  0  0
 17 15  1  0  0  0  0
 18 20  1  0  0  0  0
 19 18  2  0  0  0  0
 19 16  1  0  0  0  0
 20 17  2  0  0  0  0
 21 25  1  0  0  0  0
 21 22  2  0  0  0  0
 22 26  1  0  0  0  0
 23 26  1  0  0  0  0
 24 25  1  0  0  0  0
 25 23  2  0  0  0  0
M  END
>  <MODEL>
8

>  <REMARK>
 VINA RESULT:      -5.4      2.151      3.335
  Name = 
  3 active torsions:
  status: ('A' for Active; 'I' for Inactive)
    1  A    between atoms: C_2  and  C_5
    2  A    between atoms: C_4  and  C_13
    3  A    between atoms: C_15  and  N_23
                            x       y       z     vdW  Elec       q    Type
                         _______ _______ _______ _____ _____    ______ ____

>  <TORSDO>
F 3

$$$$
=
 OpenBabel10222418263D

 26 30  0  0  1  0  0  0  0  0999 V2000
  184.5290  178.9980  139.6470 C   0  0  1  0  0  3  0  0  0  0  0  0
  182.6810  180.6350  138.7210 C   0  0  0  0  0  1  0  0  0  0  0  0
  185.1020  177.7710  138.9540 C   0  0  1  0  0  3  0  0  0  0  0  0
  182.9760  178.2860  137.8800 C   0  0  1  0  0  3  0  0  0  0  0  0
  184.1150  177.3830  137.9530 N   0  0  0  0  0  0  0  0  0  0  0  0
  182.0970  178.1340  139.1150 C   0  0  0  0  0  2  0  0  0  0  0  0
  183.1420  179.2310  139.0510 C   0  0  1  0  0  0  0  0  0  0  0  0
  184.2650  173.7180  135.8070 C   0  0  0  0  0  0  0  0  0  0  0  0
  184.1480  174.9160  137.9080 C   0  0  0  0  0  3  0  0  0  0  0  0
  184.3120  172.5500  135.1240 F   0  0  0  0  0  0  0  0  0  0  0  0
  184.2850  174.9330  135.1170 C   0  0  0  0  0  3  0  0  0  0  0  0
  184.1970  173.7100  137.2020 C   0  0  0  0  0  3  0  0  0  0  0  0
  184.1670  176.1420  137.2250 C   0  0  0  0  0  0  0  0  0  0  0  0
  184.2360  176.1390  135.8220 C   0  0  0  0  0  3  0  0  0  0  0  0
  187.5990  177.9000  139.0400 C   0  0  0  0  0  3  0  0  0  0  0  0
  186.4190  178.1020  138.3200 C   0  0  0  0  0  0  0  0  0  0  0  0
  188.8030  178.2040  138.4820 N   0  0  0  0  0  0  0  0  0  0  0  0
  187.7420  178.9320  136.4690 C   0  0  0  0  0  3  0  0  0  0  0  0
  186.4980  178.6280  137.0240 C   0  0  0  0  0  3  0  0  0  0  0  0
  188.8960  178.7100  137.2230 C   0  0  0  0  0  3  0  0  0  0  0  0
  185.5750  178.5920  141.9290 C   0  0  0  0  0  3  0  0  0  0  0  0
  184.4700  178.8030  141.1260 C   0  0  0  0  0  0  0  0  0  0  0  0
  183.6460  178.6270  143.0980 C   0  0  0  0  0  3  0  0  0  0  0  0
  185.7370  178.2540  144.3850 N   0  0  0  0  0  1  0  0  0  0  0  0
  185.0120  178.4830  143.1820 C   0  0  0  0  0  0  0  0  0  0  0  0
  183.3600  178.8200  141.8320 O   0  0  0  0  0  0  0  0  0  0  0  0
  1 22  1  1  0  0  0
  3 16  1  6  0  0  0
  3  1  1  0  0  0  0
  4  5  1  0  0  0  0
  4  7  1  0  0  0  0
  4  6  1  1  0  0  0
  5  3  1  0  0  0  0
  7  2  1  6  0  0  0
  7  6  1  0  0  0  0
  7  1  1  0  0  0  0
  8 12  1  0  0  0  0
 10  8  1  0  0  0  0
 11  8  2  0  0  0  0
 11 14  1  0  0  0  0
 12  9  2  0  0  0  0
 13  9  1  0  0  0  0
 13  5  1  0  0  0  0
 14 13  2  0  0  0  0
 16 15  2  0  0  0  0
 17 15  1  0  0  0  0
 18 19  2  0  0  0  0
 18 20  1  0  0  0  0
 19 16  1  0  0  0  0
 20 17  2  0  0  0  0
 21 25  1  0  0  0  0
 22 26  1  0  0  0  0
 22 21  2  0  0  0  0
 23 25  2  0  0  0  0
 25 24  1  0  0  0  0
 26 23  1  0  0  0  0
M  END
>  <MODEL>
9

>  <REMARK>
 VINA RESULT:      -5.3      4.049      7.576
  Name = 
  3 active torsions:
  status: ('A' for Active; 'I' for Inactive)
    1  A    between atoms: C_2  and  C_5
    2  A    between atoms: C_4  and  C_13
    3  A    between atoms: C_15  and  N_23
                            x       y       z     vdW  Elec       q    Type
                         _______ _______ _______ _____ _____    ______ ____

>  <TORSDO>
F 3

$$$$
