=
 OpenBabel10222421153D

 37 40  0  0  1  0  0  0  0  0999 V2000
  184.0570  179.2470  140.6900 C   0  0  1  0  0  3  0  0  0  0  0  0
  185.0010  177.9910  138.7700 C   0  0  0  0  0  0  0  0  0  0  0  0
  180.7170  176.2240  139.7910 O   0  0  0  0  0  0  0  0  0  0  0  0
  181.8600  176.3620  139.2790 C   0  0  0  0  0  0  0  0  0  0  0  0
  182.3580  175.5560  138.3170 N   0  0  0  0  0  2  0  0  0  0  0  0
  184.4300  175.4160  137.0160 C   0  0  0  0  0  1  0  0  0  0  0  0
  183.5720  176.0120  138.0260 N   0  0  0  0  0  0  0  0  0  0  0  0
  185.0430  178.9910  139.6140 N   0  0  0  0  0  0  0  0  0  0  0  0
  182.7770  177.3380  139.5980 C   0  0  0  0  0  0  0  0  0  0  0  0
  183.8420  177.0890  138.7920 C   0  0  0  0  0  0  0  0  0  0  0  0
  182.7620  178.4800  140.5080 C   0  0  0  0  0  0  0  0  0  0  0  0
  186.0390  177.8210  137.8050 N   0  0  0  0  0  2  0  0  0  0  0  0
  181.7080  178.7830  141.1910 N   0  0  0  0  0  2  0  0  0  0  0  0
  184.6670  178.9050  142.0100 C   0  0  0  0  0  0  0  0  0  0  0  0
  185.8800  178.3040  146.2220 C   0  0  0  0  0  3  0  0  0  0  0  0
  184.1290  179.2430  143.1710 O   0  0  0  0  0  0  0  0  0  0  0  0
  184.9450  178.7910  144.0810 C   0  0  0  0  0  0  0  0  0  0  0  0
  185.8410  178.2310  142.1290 N   0  0  0  0  0  0  0  0  0  0  0  0
  186.9750  177.6580  145.5880 C   0  0  0  0  0  0  0  0  0  0  0  0
  184.8450  178.8830  145.4660 C   0  0  0  0  0  3  0  0  0  0  0  0
  187.0310  177.5910  144.1820 C   0  0  0  0  0  3  0  0  0  0  0  0
  185.9910  178.1730  143.4640 C   0  0  0  0  0  0  0  0  0  0  0  0
  189.3840  177.3140  146.0340 C   0  0  0  0  0  1  0  0  0  0  0  0
  188.0120  177.0830  146.3280 O   0  0  0  0  0  0  0  0  0  0  0  0
  187.0840  178.7480  137.6950 N   0  0  0  0  0  2  0  0  0  0  0  0
  188.2930  178.0770  138.1600 C   0  0  1  0  0  3  0  0  0  0  0  0
  188.7540  178.6450  139.4190 N   0  0  0  0  0  2  0  0  0  0  0  0
  188.8040  177.5580  140.3830 C   0  0  0  0  0  2  0  0  0  0  0  0
  190.1930  177.4030  140.9080 C   0  0  0  0  0  0  0  0  0  0  0  0
  191.1490  177.5020  140.1550 O   0  0  0  0  0  0  0  0  0  0  0  0
  190.2250  175.7030  142.6160 N   0  0  0  0  0  1  0  0  0  0  0  0
  190.4080  177.1210  142.3580 C   0  0  0  0  0  2  0  0  0  0  0  0
  188.1500  176.6700  138.2350 O   0  0  0  0  0  0  0  0  0  0  0  0
  190.4070  175.0520  138.0360 O   0  0  0  0  0  1  0  0  0  0  0  0
  189.9690  176.9770  136.1050 O   0  0  0  0  0  0  0  0  0  0  0  0
  189.2220  175.8800  137.1570 P   0  0  0  0  0  0  0  0  0  0  0  0
  188.4390  174.8800  136.3380 O   0  0  0  0  0  1  0  0  0  0  0  0
  1 14  1  1  0  0  0
  2 10  1  0  0  0  0
  2  8  2  0  0  0  0
  4  9  1  0  0  0  0
  4  3  2  0  0  0  0
  5  4  1  0  0  0  0
  6  7  1  0  0  0  0
  7  5  1  0  0  0  0
  7 10  1  0  0  0  0
  8  1  1  0  0  0  0
  9 11  1  0  0  0  0
 10  9  2  0  0  0  0
 11  1  1  0  0  0  0
 11 13  2  0  0  0  0
 12  2  1  0  0  0  0
 14 18  2  0  0  0  0
 14 16  1  0  0  0  0
 16 17  1  0  0  0  0
 17 20  1  0  0  0  0
 18 22  1  0  0  0  0
 19 15  1  0  0  0  0
 19 24  1  0  0  0  0
 20 15  2  0  0  0  0
 21 19  2  0  0  0  0
 22 17  2  0  0  0  0
 22 21  1  0  0  0  0
 23 24  1  0  0  0  0
 25 12  1  0  0  0  0
 26 25  1  1  0  0  0
 26 33  1  0  0  0  0
 26 27  1  0  0  0  0
 27 28  1  0  0  0  0
 28 29  1  0  0  0  0
 29 32  1  0  0  0  0
 30 29  2  0  0  0  0
 32 31  1  0  0  0  0
 35 36  2  0  0  0  0
 36 34  1  0  0  0  0
 36 33  1  0  0  0  0
 37 36  1  0  0  0  0
M  END
>  <MODEL>
1

>  <REMARK>
 VINA RESULT:      -7.9      0.000      0.000
  Name = 
  10 active torsions:
  status: ('A' for Active; 'I' for Inactive)
    1  A    between atoms: C_1  and  C_3
    2  A    between atoms: C_7  and  C_29
    3  A    between atoms: C_7  and  C_33
    4  A    between atoms: C_16  and  N_19
    5  A    between atoms: C_16  and  N_30
    6  A    between atoms: C_16  and  O_36
    7  A    between atoms: N_19  and  C_29
    8  A    between atoms: C_24  and  O_34
    9  A    between atoms: P_26  and  O_36
   10  A    between atoms: N_30  and  N_31
                            x       y       z     vdW  Elec       q    Type
                         _______ _______ _______ _____ _____    ______ ____

>  <TORSDO>
F 10

$$$$
=
 OpenBabel10222421153D

 37 40  0  0  1  0  0  0  0  0999 V2000
  183.9440  179.1060  140.5380 C   0  0  1  0  0  3  0  0  0  0  0  0
  185.0590  177.9550  138.6440 C   0  0  0  0  0  0  0  0  0  0  0  0
  180.9530  175.7610  139.5570 O   0  0  0  0  0  0  0  0  0  0  0  0
  182.0880  176.0150  139.0740 C   0  0  0  0  0  0  0  0  0  0  0  0
  182.6900  175.2650  138.1270 N   0  0  0  0  0  2  0  0  0  0  0  0
  184.7980  175.3380  136.8790 C   0  0  0  0  0  1  0  0  0  0  0  0
  183.8580  175.8410  137.8660 N   0  0  0  0  0  0  0  0  0  0  0  0
  184.9780  178.9530  139.4870 N   0  0  0  0  0  0  0  0  0  0  0  0
  182.8930  177.0780  139.4150 C   0  0  0  0  0  0  0  0  0  0  0  0
  183.9980  176.9390  138.6370 C   0  0  0  0  0  0  0  0  0  0  0  0
  182.7390  178.2120  140.3230 C   0  0  0  0  0  0  0  0  0  0  0  0
  186.1340  177.8930  137.7060 N   0  0  0  0  0  2  0  0  0  0  0  0
  181.6420  178.4050  140.9790 N   0  0  0  0  0  2  0  0  0  0  0  0
  184.5520  178.8260  141.8730 C   0  0  0  0  0  0  0  0  0  0  0  0
  185.7300  178.3770  146.1140 C   0  0  0  0  0  3  0  0  0  0  0  0
  183.9750  179.1510  143.0190 O   0  0  0  0  0  0  0  0  0  0  0  0
  184.8020  178.7670  143.9500 C   0  0  0  0  0  0  0  0  0  0  0  0
  185.7620  178.2270  142.0230 N   0  0  0  0  0  0  0  0  0  0  0  0
  186.8720  177.7880  145.5090 C   0  0  0  0  0  0  0  0  0  0  0  0
  184.6730  178.8770  145.3310 C   0  0  0  0  0  3  0  0  0  0  0  0
  186.9550  177.6990  144.1060 C   0  0  0  0  0  3  0  0  0  0  0  0
  185.8930  178.2030  143.3610 C   0  0  0  0  0  0  0  0  0  0  0  0
  189.2810  177.3330  145.8370 C   0  0  0  0  0  1  0  0  0  0  0  0
  187.9290  177.2910  146.2760 O   0  0  0  0  0  0  0  0  0  0  0  0
  187.0810  178.9210  137.6210 N   0  0  0  0  0  2  0  0  0  0  0  0
  188.3870  178.3100  137.8420 C   0  0  1  0  0  3  0  0  0  0  0  0
  189.2710  178.5390  136.7080 N   0  0  0  0  0  2  0  0  0  0  0  0
  188.7240  177.7950  135.5850 C   0  0  0  0  0  2  0  0  0  0  0  0
  189.4230  176.4820  135.4520 C   0  0  0  0  0  0  0  0  0  0  0  0
  190.6110  176.3890  135.7170 O   0  0  0  0  0  0  0  0  0  0  0  0
  188.4470  174.3760  136.1020 N   0  0  0  0  0  1  0  0  0  0  0  0
  188.6640  175.2840  134.9880 C   0  0  0  0  0  2  0  0  0  0  0  0
  188.9830  178.7060  139.0640 O   0  0  0  0  0  0  0  0  0  0  0  0
  191.2590  177.7410  140.3450 O   0  0  0  0  0  1  0  0  0  0  0  0
  189.6910  175.9840  138.9040 O   0  0  0  0  0  0  0  0  0  0  0  0
  189.6760  177.3680  139.8790 P   0  0  0  0  0  0  0  0  0  0  0  0
  188.8620  177.0780  141.1200 O   0  0  0  0  0  1  0  0  0  0  0  0
  1 14  1  1  0  0  0
  2  8  2  0  0  0  0
  4  9  1  0  0  0  0
  4  3  2  0  0  0  0
  5  4  1  0  0  0  0
  6  7  1  0  0  0  0
  7  5  1  0  0  0  0
  7 10  1  0  0  0  0
  8  1  1  0  0  0  0
  9 11  1  0  0  0  0
 10  2  1  0  0  0  0
 10  9  2  0  0  0  0
 11  1  1  0  0  0  0
 11 13  2  0  0  0  0
 12  2  1  0  0  0  0
 14 18  2  0  0  0  0
 14 16  1  0  0  0  0
 16 17  1  0  0  0  0
 17 20  1  0  0  0  0
 18 22  1  0  0  0  0
 19 15  1  0  0  0  0
 19 24  1  0  0  0  0
 20 15  2  0  0  0  0
 21 19  2  0  0  0  0
 22 17  2  0  0  0  0
 22 21  1  0  0  0  0
 23 24  1  0  0  0  0
 25 12  1  0  0  0  0
 25 26  1  0  0  0  0
 26 27  1  6  0  0  0
 26 33  1  0  0  0  0
 28 27  1  0  0  0  0
 29 28  1  0  0  0  0
 29 30  2  0  0  0  0
 32 29  1  0  0  0  0
 32 31  1  0  0  0  0
 33 36  1  0  0  0  0
 35 36  2  0  0  0  0
 36 34  1  0  0  0  0
 36 37  1  0  0  0  0
M  END
>  <MODEL>
2

>  <REMARK>
 VINA RESULT:      -7.1      1.584      2.645
  Name = 
  10 active torsions:
  status: ('A' for Active; 'I' for Inactive)
    1  A    between atoms: C_1  and  C_3
    2  A    between atoms: C_7  and  C_29
    3  A    between atoms: C_7  and  C_33
    4  A    between atoms: C_16  and  N_19
    5  A    between atoms: C_16  and  N_30
    6  A    between atoms: C_16  and  O_36
    7  A    between atoms: N_19  and  C_29
    8  A    between atoms: C_24  and  O_34
    9  A    between atoms: P_26  and  O_36
   10  A    between atoms: N_30  and  N_31
                            x       y       z     vdW  Elec       q    Type
                         _______ _______ _______ _____ _____    ______ ____

>  <TORSDO>
F 10

$$$$
=
 OpenBabel10222421153D

 37 40  0  0  1  0  0  0  0  0999 V2000
  187.6950  177.9330  137.6620 C   0  0  1  0  0  3  0  0  0  0  0  0
  187.9100  178.2970  140.1060 C   0  0  0  0  0  0  0  0  0  0  0  0
  192.0180  176.5960  138.4490 O   0  0  0  0  0  0  0  0  0  0  0  0
  191.1180  176.9760  139.2440 C   0  0  0  0  0  0  0  0  0  0  0  0
  191.2690  177.0290  140.5850 N   0  0  0  0  0  2  0  0  0  0  0  0
  189.8940  177.6950  142.5010 C   0  0  0  0  0  1  0  0  0  0  0  0
  190.1230  177.4800  141.0820 N   0  0  0  0  0  0  0  0  0  0  0  0
  187.2490  178.4300  138.9840 N   0  0  0  0  0  0  0  0  0  0  0  0
  189.8550  177.3980  138.8950 C   0  0  0  0  0  0  0  0  0  0  0  0
  189.2560  177.7070  140.0740 C   0  0  0  0  0  0  0  0  0  0  0  0
  189.1710  177.5910  137.6200 C   0  0  0  0  0  0  0  0  0  0  0  0
  187.3530  178.7760  141.3310 N   0  0  0  0  0  2  0  0  0  0  0  0
  189.7780  177.4030  136.4940 N   0  0  0  0  0  2  0  0  0  0  0  0
  186.8860  176.7350  137.2870 C   0  0  0  0  0  0  0  0  0  0  0  0
  185.0870  172.7750  136.4720 C   0  0  0  0  0  3  0  0  0  0  0  0
  187.2540  175.4930  137.5570 O   0  0  0  0  0  0  0  0  0  0  0  0
  186.3150  174.7330  137.0680 C   0  0  0  0  0  0  0  0  0  0  0  0
  185.7070  176.8200  136.6170 N   0  0  0  0  0  0  0  0  0  0  0  0
  184.0930  173.5920  135.8690 C   0  0  0  0  0  0  0  0  0  0  0  0
  186.2190  173.3450  137.0830 C   0  0  0  0  0  3  0  0  0  0  0  0
  184.2360  174.9940  135.8800 C   0  0  0  0  0  3  0  0  0  0  0  0
  185.3670  175.5250  136.4930 C   0  0  0  0  0  0  0  0  0  0  0  0
  182.0980  172.1320  135.9230 C   0  0  0  0  0  1  0  0  0  0  0  0
  182.9670  173.0380  135.2550 O   0  0  0  0  0  0  0  0  0  0  0  0
  186.1270  179.4510  141.3520 N   0  0  0  0  0  2  0  0  0  0  0  0
  185.1070  178.4640  141.6880 C   0  0  1  0  0  3  0  0  0  0  0  0
  185.3060  177.9420  143.0330 N   0  0  0  0  0  2  0  0  0  0  0  0
  184.9890  179.0180  143.9570 C   0  0  0  0  0  2  0  0  0  0  0  0
  185.1940  178.5600  145.3640 C   0  0  0  0  0  0  0  0  0  0  0  0
  184.5230  179.0320  146.2680 O   0  0  0  0  0  0  0  0  0  0  0  0
  187.5490  178.1320  145.6470 N   0  0  0  0  0  1  0  0  0  0  0  0
  186.2280  177.5260  145.6620 C   0  0  0  0  0  2  0  0  0  0  0  0
  183.7880  178.9440  141.4970 O   0  0  0  0  0  0  0  0  0  0  0  0
  184.1770  180.2500  139.0690 O   0  0  0  0  0  0  0  0  0  0  0  0
  181.7050  179.1460  139.6110 O   0  0  0  0  0  1  0  0  0  0  0  0
  183.3740  178.9730  139.8350 P   0  0  0  0  0  0  0  0  0  0  0  0
  183.8160  177.6740  139.2000 O   0  0  0  0  0  1  0  0  0  0  0  0
  1 14  1  1  0  0  0
  1  8  1  0  0  0  0
  2 12  1  0  0  0  0
  3  4  2  0  0  0  0
  4  5  1  0  0  0  0
  5  7  1  0  0  0  0
  7  6  1  0  0  0  0
  8  2  2  0  0  0  0
  9  4  1  0  0  0  0
  9 10  2  0  0  0  0
 10  2  1  0  0  0  0
 10  7  1  0  0  0  0
 11  1  1  0  0  0  0
 11  9  1  0  0  0  0
 12 25  1  0  0  0  0
 13 11  2  0  0  0  0
 14 16  1  0  0  0  0
 15 20  1  0  0  0  0
 17 20  2  0  0  0  0
 17 16  1  0  0  0  0
 18 14  2  0  0  0  0
 19 21  1  0  0  0  0
 19 15  2  0  0  0  0
 21 22  2  0  0  0  0
 22 18  1  0  0  0  0
 22 17  1  0  0  0  0
 24 19  1  0  0  0  0
 24 23  1  0  0  0  0
 26 25  1  1  0  0  0
 26 27  1  0  0  0  0
 27 28  1  0  0  0  0
 28 29  1  0  0  0  0
 29 32  1  0  0  0  0
 29 30  2  0  0  0  0
 31 32  1  0  0  0  0
 33 26  1  0  0  0  0
 34 36  2  0  0  0  0
 35 36  1  0  0  0  0
 36 33  1  0  0  0  0
 37 36  1  0  0  0  0
M  END
>  <MODEL>
3

>  <REMARK>
 VINA RESULT:      -7.1      2.628      7.830
  Name = 
  10 active torsions:
  status: ('A' for Active; 'I' for Inactive)
    1  A    between atoms: C_1  and  C_3
    2  A    between atoms: C_7  and  C_29
    3  A    between atoms: C_7  and  C_33
    4  A    between atoms: C_16  and  N_19
    5  A    between atoms: C_16  and  N_30
    6  A    between atoms: C_16  and  O_36
    7  A    between atoms: N_19  and  C_29
    8  A    between atoms: C_24  and  O_34
    9  A    between atoms: P_26  and  O_36
   10  A    between atoms: N_30  and  N_31
                            x       y       z     vdW  Elec       q    Type
                         _______ _______ _______ _____ _____    ______ ____

>  <TORSDO>
F 10

$$$$
=
 OpenBabel10222421153D

 37 40  0  0  1  0  0  0  0  0999 V2000
  185.0850  179.0430  138.8110 C   0  0  1  0  0  3  0  0  0  0  0  0
  186.8820  177.4730  138.1340 C   0  0  0  0  0  0  0  0  0  0  0  0
  182.7190  175.7670  136.6270 O   0  0  0  0  0  0  0  0  0  0  0  0
  183.9450  175.8480  136.9040 C   0  0  0  0  0  0  0  0  0  0  0  0
  184.8500  174.8900  136.6130 N   0  0  0  0  0  2  0  0  0  0  0  0
  187.2640  174.5810  136.9000 C   0  0  0  0  0  1  0  0  0  0  0  0
  186.0260  175.3280  137.0460 N   0  0  0  0  0  0  0  0  0  0  0  0
  186.4930  178.6210  138.6290 N   0  0  0  0  0  0  0  0  0  0  0  0
  184.5640  176.9050  137.5330 C   0  0  0  0  0  0  0  0  0  0  0  0
  185.8720  176.5450  137.6070 C   0  0  0  0  0  0  0  0  0  0  0  0
  184.1030  178.2030  138.0190 C   0  0  0  0  0  0  0  0  0  0  0  0
  188.2720  177.1590  138.0540 N   0  0  0  0  0  2  0  0  0  0  0  0
  182.8820  178.5900  137.8480 N   0  0  0  0  0  2  0  0  0  0  0  0
  184.7380  178.9940  140.2630 C   0  0  0  0  0  0  0  0  0  0  0  0
  182.9750  178.7540  144.3140 C   0  0  0  0  0  3  0  0  0  0  0  0
  183.5140  178.7680  140.7130 O   0  0  0  0  0  0  0  0  0  0  0  0
  183.6030  178.8160  142.0120 C   0  0  0  0  0  0  0  0  0  0  0  0
  185.6520  179.1970  141.2480 N   0  0  0  0  0  0  0  0  0  0  0  0
  184.3210  179.0250  144.6790 C   0  0  0  0  0  0  0  0  0  0  0  0
  182.6000  178.6460  142.9620 C   0  0  0  0  0  3  0  0  0  0  0  0
  185.3000  179.1890  143.6800 C   0  0  0  0  0  3  0  0  0  0  0  0
  184.8960  179.0760  142.3530 C   0  0  0  0  0  0  0  0  0  0  0  0
  185.6250  178.2450  146.6320 C   0  0  0  0  0  1  0  0  0  0  0  0
  184.7040  179.1390  146.0180 O   0  0  0  0  0  0  0  0  0  0  0  0
  189.2480  178.0880  138.4390 N   0  0  0  0  0  2  0  0  0  0  0  0
  190.1640  177.3910  139.3340 C   0  0  1  0  0  3  0  0  0  0  0  0
  189.7540  177.5400  140.7230 N   0  0  0  0  0  2  0  0  0  0  0  0
  190.8830  177.1370  141.5460 C   0  0  0  0  0  2  0  0  0  0  0  0
  190.4330  176.8980  142.9490 C   0  0  0  0  0  0  0  0  0  0  0  0
  189.5170  176.1240  143.1780 O   0  0  0  0  0  0  0  0  0  0  0  0
  190.8740  179.0450  143.9540 N   0  0  0  0  0  1  0  0  0  0  0  0
  191.1050  177.6150  144.0730 C   0  0  0  0  0  2  0  0  0  0  0  0
  190.3540  176.0320  138.9820 O   0  0  0  0  0  0  0  0  0  0  0  0
  191.2340  176.3560  136.3610 O   0  0  0  0  0  0  0  0  0  0  0  0
  192.2080  174.2410  137.8450 O   0  0  0  0  0  1  0  0  0  0  0  0
  191.6790  175.8480  137.9120 P   0  0  0  0  0  0  0  0  0  0  0  0
  192.8190  176.7150  138.3960 O   0  0  0  0  0  1  0  0  0  0  0  0
  1 14  1  1  0  0  0
  2  8  2  0  0  0  0
  3  4  2  0  0  0  0
  4  9  1  0  0  0  0
  5  4  1  0  0  0  0
  5  7  1  0  0  0  0
  6  7  1  0  0  0  0
  7 10  1  0  0  0  0
  8  1  1  0  0  0  0
  9 10  2  0  0  0  0
  9 11  1  0  0  0  0
 10  2  1  0  0  0  0
 11  1  1  0  0  0  0
 12  2  1  0  0  0  0
 12 25  1  0  0  0  0
 13 11  2  0  0  0  0
 14 16  1  0  0  0  0
 14 18  2  0  0  0  0
 15 19  1  0  0  0  0
 16 17  1  0  0  0  0
 17 22  2  0  0  0  0
 17 20  1  0  0  0  0
 18 22  1  0  0  0  0
 19 24  1  0  0  0  0
 20 15  2  0  0  0  0
 21 19  2  0  0  0  0
 22 21  1  0  0  0  0
 24 23  1  0  0  0  0
 26 25  1  6  0  0  0
 26 27  1  0  0  0  0
 27 28  1  0  0  0  0
 28 29  1  0  0  0  0
 29 30  2  0  0  0  0
 29 32  1  0  0  0  0
 31 32  1  0  0  0  0
 33 26  1  0  0  0  0
 34 36  2  0  0  0  0
 35 36  1  0  0  0  0
 36 37  1  0  0  0  0
 36 33  1  0  0  0  0
M  END
>  <MODEL>
4

>  <REMARK>
 VINA RESULT:      -7.0      2.054      2.887
  Name = 
  10 active torsions:
  status: ('A' for Active; 'I' for Inactive)
    1  A    between atoms: C_1  and  C_3
    2  A    between atoms: C_7  and  C_29
    3  A    between atoms: C_7  and  C_33
    4  A    between atoms: C_16  and  N_19
    5  A    between atoms: C_16  and  N_30
    6  A    between atoms: C_16  and  O_36
    7  A    between atoms: N_19  and  C_29
    8  A    between atoms: C_24  and  O_34
    9  A    between atoms: P_26  and  O_36
   10  A    between atoms: N_30  and  N_31
                            x       y       z     vdW  Elec       q    Type
                         _______ _______ _______ _____ _____    ______ ____

>  <TORSDO>
F 10

$$$$
=
 OpenBabel10222421153D

 37 40  0  0  1  0  0  0  0  0999 V2000
  189.4290  177.9490  139.2560 C   0  0  1  0  0  3  0  0  0  0  0  0
  190.3790  175.9340  138.1640 C   0  0  0  0  0  0  0  0  0  0  0  0
  185.8480  176.3980  136.8320 O   0  0  0  0  0  0  0  0  0  0  0  0
  187.0000  175.9160  136.9950 C   0  0  0  0  0  0  0  0  0  0  0  0
  187.4090  174.7420  136.4670 N   0  0  0  0  0  2  0  0  0  0  0  0
  189.4740  173.4220  136.4590 C   0  0  0  0  0  1  0  0  0  0  0  0
  188.6710  174.5700  136.8440 N   0  0  0  0  0  0  0  0  0  0  0  0
  190.5230  177.0270  138.8690 N   0  0  0  0  0  0  0  0  0  0  0  0
  188.0230  176.4890  137.7160 C   0  0  0  0  0  0  0  0  0  0  0  0
  189.0580  175.6170  137.6010 C   0  0  0  0  0  0  0  0  0  0  0  0
  188.1640  177.7480  138.4440 C   0  0  0  0  0  0  0  0  0  0  0  0
  191.5040  175.0970  137.8960 N   0  0  0  0  0  2  0  0  0  0  0  0
  187.2170  178.6270  138.4590 N   0  0  0  0  0  2  0  0  0  0  0  0
  189.1310  177.7790  140.7090 C   0  0  0  0  0  0  0  0  0  0  0  0
  187.5040  177.4170  144.8080 C   0  0  0  0  0  3  0  0  0  0  0  0
  187.9070  177.8200  141.2110 O   0  0  0  0  0  0  0  0  0  0  0  0
  188.0480  177.6510  142.4960 C   0  0  0  0  0  0  0  0  0  0  0  0
  190.0970  177.5860  141.6440 N   0  0  0  0  0  0  0  0  0  0  0  0
  188.8850  177.2670  145.1090 C   0  0  0  0  0  0  0  0  0  0  0  0
  187.0700  177.6130  143.4840 C   0  0  0  0  0  3  0  0  0  0  0  0
  189.8370  177.3120  144.0720 C   0  0  0  0  0  3  0  0  0  0  0  0
  189.3740  177.5070  142.7740 C   0  0  0  0  0  0  0  0  0  0  0  0
  188.4870  177.2690  147.5500 C   0  0  0  0  0  1  0  0  0  0  0  0
  189.3280  177.0770  146.4200 O   0  0  0  0  0  0  0  0  0  0  0  0
  192.7890  175.4550  138.3220 N   0  0  0  0  0  2  0  0  0  0  0  0
  193.7250  174.5860  137.6170 C   0  0  1  0  0  3  0  0  0  0  0  0
  193.2290  174.2500  136.2900 N   0  0  0  0  0  2  0  0  0  0  0  0
  194.3810  173.8740  135.4880 C   0  0  0  0  0  2  0  0  0  0  0  0
  194.6660  172.4180  135.6520 C   0  0  0  0  0  0  0  0  0  0  0  0
  195.8170  172.0240  135.7560 O   0  0  0  0  0  0  0  0  0  0  0  0
  193.8760  170.3250  136.5500 N   0  0  0  0  0  1  0  0  0  0  0  0
  193.5370  171.4420  135.6850 C   0  0  0  0  0  2  0  0  0  0  0  0
  195.0400  175.1120  137.5720 O   0  0  0  0  0  0  0  0  0  0  0  0
  195.9480  175.3340  140.1950 O   0  0  0  0  0  1  0  0  0  0  0  0
  197.6430  174.2950  138.2780 O   0  0  0  0  0  0  0  0  0  0  0  0
  196.0300  174.4080  138.7800 P   0  0  0  0  0  0  0  0  0  0  0  0
  195.5170  173.0180  139.0820 O   0  0  0  0  0  1  0  0  0  0  0  0
  1 14  1  1  0  0  0
  2  8  2  0  0  0  0
  3  4  2  0  0  0  0
  4  9  1  0  0  0  0
  5  7  1  0  0  0  0
  5  4  1  0  0  0  0
  6  7  1  0  0  0  0
  7 10  1  0  0  0  0
  8  1  1  0  0  0  0
  9 11  1  0  0  0  0
 10  9  2  0  0  0  0
 10  2  1  0  0  0  0
 11 13  2  0  0  0  0
 11  1  1  0  0  0  0
 12  2  1  0  0  0  0
 12 25  1  0  0  0  0
 14 16  1  0  0  0  0
 14 18  2  0  0  0  0
 15 19  1  0  0  0  0
 16 17  1  0  0  0  0
 17 22  2  0  0  0  0
 17 20  1  0  0  0  0
 18 22  1  0  0  0  0
 19 24  1  0  0  0  0
 20 15  2  0  0  0  0
 21 19  2  0  0  0  0
 22 21  1  0  0  0  0
 24 23  1  0  0  0  0
 26 27  1  6  0  0  0
 26 25  1  0  0  0  0
 28 29  1  0  0  0  0
 28 27  1  0  0  0  0
 29 32  1  0  0  0  0
 29 30  2  0  0  0  0
 32 31  1  0  0  0  0
 33 26  1  0  0  0  0
 33 36  1  0  0  0  0
 35 36  2  0  0  0  0
 36 37  1  0  0  0  0
 36 34  1  0  0  0  0
M  END
>  <MODEL>
5

>  <REMARK>
 VINA RESULT:      -6.9      4.565      5.995
  Name = 
  10 active torsions:
  status: ('A' for Active; 'I' for Inactive)
    1  A    between atoms: C_1  and  C_3
    2  A    between atoms: C_7  and  C_29
    3  A    between atoms: C_7  and  C_33
    4  A    between atoms: C_16  and  N_19
    5  A    between atoms: C_16  and  N_30
    6  A    between atoms: C_16  and  O_36
    7  A    between atoms: N_19  and  C_29
    8  A    between atoms: C_24  and  O_34
    9  A    between atoms: P_26  and  O_36
   10  A    between atoms: N_30  and  N_31
                            x       y       z     vdW  Elec       q    Type
                         _______ _______ _______ _____ _____    ______ ____

>  <TORSDO>
F 10

$$$$
=
 OpenBabel10222421153D

 37 40  0  0  1  0  0  0  0  0999 V2000
  190.6100  177.5870  139.1090 C   0  0  1  0  0  3  0  0  0  0  0  0
  190.8150  175.3970  137.9630 C   0  0  0  0  0  0  0  0  0  0  0  0
  186.4080  177.0380  137.3360 O   0  0  0  0  0  0  0  0  0  0  0  0
  187.4060  176.2700  137.3360 C   0  0  0  0  0  0  0  0  0  0  0  0
  187.4050  175.0320  136.7990 N   0  0  0  0  0  2  0  0  0  0  0  0
  189.0270  173.2160  136.5210 C   0  0  0  0  0  1  0  0  0  0  0  0
  188.6230  174.5340  136.9810 N   0  0  0  0  0  0  0  0  0  0  0  0
  191.3500  176.4120  138.5930 N   0  0  0  0  0  0  0  0  0  0  0  0
  188.6440  176.5530  137.8660 C   0  0  0  0  0  0  0  0  0  0  0  0
  189.3860  175.4400  137.6260 C   0  0  0  0  0  0  0  0  0  0  0  0
  189.2230  177.7280  138.5120 C   0  0  0  0  0  0  0  0  0  0  0  0
  191.6260  174.2940  137.5570 N   0  0  0  0  0  2  0  0  0  0  0  0
  188.5520  178.8250  138.6400 N   0  0  0  0  0  2  0  0  0  0  0  0
  190.5150  177.4980  140.5960 C   0  0  0  0  0  0  0  0  0  0  0  0
  189.4610  177.2620  144.8870 C   0  0  0  0  0  3  0  0  0  0  0  0
  189.3670  177.4220  141.2500 O   0  0  0  0  0  0  0  0  0  0  0  0
  189.6840  177.3760  142.5140 C   0  0  0  0  0  0  0  0  0  0  0  0
  191.6050  177.5060  141.4080 N   0  0  0  0  0  0  0  0  0  0  0  0
  190.8750  177.3140  145.0140 C   0  0  0  0  0  0  0  0  0  0  0  0
  188.8470  177.2930  143.6210 C   0  0  0  0  0  3  0  0  0  0  0  0
  191.6800  177.3970  143.8620 C   0  0  0  0  0  3  0  0  0  0  0  0
  191.0410  177.4260  142.6260 C   0  0  0  0  0  0  0  0  0  0  0  0
  191.3540  176.1990  147.1700 C   0  0  0  0  0  1  0  0  0  0  0  0
  191.4950  177.2880  146.2660 O   0  0  0  0  0  0  0  0  0  0  0  0
  193.0120  174.3010  137.7630 N   0  0  0  0  0  2  0  0  0  0  0  0
  193.6330  174.4610  136.4530 C   0  0  1  0  0  3  0  0  0  0  0  0
  193.9380  175.8590  136.1860 N   0  0  0  0  0  2  0  0  0  0  0  0
  194.3860  175.9400  134.8050 C   0  0  0  0  0  2  0  0  0  0  0  0
  195.5540  176.8640  134.7000 C   0  0  0  0  0  0  0  0  0  0  0  0
  195.3780  178.0680  134.5940 O   0  0  0  0  0  0  0  0  0  0  0  0
  197.4600  176.3330  136.0760 N   0  0  0  0  0  1  0  0  0  0  0  0
  196.9390  176.3100  134.7190 C   0  0  0  0  0  2  0  0  0  0  0  0
  194.7650  173.6280  136.2730 O   0  0  0  0  0  0  0  0  0  0  0  0
  195.0780  172.2200  138.6540 O   0  0  0  0  0  1  0  0  0  0  0  0
  195.6150  174.9280  138.6240 O   0  0  0  0  0  1  0  0  0  0  0  0
  195.6740  173.4980  137.7200 P   0  0  0  0  0  0  0  0  0  0  0  0
  197.1140  173.2080  137.3650 O   0  0  0  0  0  0  0  0  0  0  0  0
  1 14  1  1  0  0  0
  2  8  2  0  0  0  0
  3  4  2  0  0  0  0
  4  9  1  0  0  0  0
  5  7  1  0  0  0  0
  5  4  1  0  0  0  0
  6  7  1  0  0  0  0
  7 10  1  0  0  0  0
  8  1  1  0  0  0  0
  9 11  1  0  0  0  0
 10  9  2  0  0  0  0
 10  2  1  0  0  0  0
 11 13  2  0  0  0  0
 11  1  1  0  0  0  0
 12 25  1  0  0  0  0
 12  2  1  0  0  0  0
 14 16  1  0  0  0  0
 14 18  2  0  0  0  0
 15 19  1  0  0  0  0
 16 17  1  0  0  0  0
 17 22  2  0  0  0  0
 17 20  1  0  0  0  0
 18 22  1  0  0  0  0
 19 24  1  0  0  0  0
 20 15  2  0  0  0  0
 21 19  2  0  0  0  0
 22 21  1  0  0  0  0
 24 23  1  0  0  0  0
 26 27  1  1  0  0  0
 26 25  1  0  0  0  0
 28 27  1  0  0  0  0
 29 32  1  0  0  0  0
 29 28  1  0  0  0  0
 30 29  2  0  0  0  0
 32 31  1  0  0  0  0
 33 26  1  0  0  0  0
 33 36  1  0  0  0  0
 36 35  1  0  0  0  0
 36 34  1  0  0  0  0
 37 36  2  0  0  0  0
M  END
>  <MODEL>
6

>  <REMARK>
 VINA RESULT:      -6.9      4.663      6.459
  Name = 
  10 active torsions:
  status: ('A' for Active; 'I' for Inactive)
    1  A    between atoms: C_1  and  C_3
    2  A    between atoms: C_7  and  C_29
    3  A    between atoms: C_7  and  C_33
    4  A    between atoms: C_16  and  N_19
    5  A    between atoms: C_16  and  N_30
    6  A    between atoms: C_16  and  O_36
    7  A    between atoms: N_19  and  C_29
    8  A    between atoms: C_24  and  O_34
    9  A    between atoms: P_26  and  O_36
   10  A    between atoms: N_30  and  N_31
                            x       y       z     vdW  Elec       q    Type
                         _______ _______ _______ _____ _____    ______ ____

>  <TORSDO>
F 10

$$$$
=
 OpenBabel10222421153D

 37 40  0  0  1  0  0  0  0  0999 V2000
  184.4110  179.2400  140.4630 C   0  0  1  0  0  3  0  0  0  0  0  0
  184.9690  177.9350  138.4280 C   0  0  0  0  0  0  0  0  0  0  0  0
  180.7730  176.4630  140.0820 O   0  0  0  0  0  0  0  0  0  0  0  0
  181.8330  176.5250  139.4050 C   0  0  0  0  0  0  0  0  0  0  0  0
  182.1250  175.6930  138.3830 N   0  0  0  0  0  2  0  0  0  0  0  0
  183.9660  175.4180  136.7880 C   0  0  0  0  0  1  0  0  0  0  0  0
  183.3100  176.0650  137.9120 N   0  0  0  0  0  0  0  0  0  0  0  0
  185.2050  178.9250  139.2520 N   0  0  0  0  0  0  0  0  0  0  0  0
  182.8530  177.4320  139.5800 C   0  0  0  0  0  0  0  0  0  0  0  0
  183.7660  177.1150  138.6250 C   0  0  0  0  0  0  0  0  0  0  0  0
  183.0530  178.5670  140.4780 C   0  0  0  0  0  0  0  0  0  0  0  0
  185.8370  177.7000  137.3190 N   0  0  0  0  0  2  0  0  0  0  0  0
  182.1360  178.9370  141.3100 N   0  0  0  0  0  2  0  0  0  0  0  0
  185.1850  178.8480  141.6770 C   0  0  0  0  0  0  0  0  0  0  0  0
  186.8580  177.9510  145.6740 C   0  0  0  0  0  3  0  0  0  0  0  0
  184.7090  178.9460  142.9090 O   0  0  0  0  0  0  0  0  0  0  0  0
  185.6660  178.5310  143.6900 C   0  0  0  0  0  0  0  0  0  0  0  0
  186.4570  178.3730  141.6220 N   0  0  0  0  0  0  0  0  0  0  0  0
  187.9790  177.5820  144.8830 C   0  0  0  0  0  0  0  0  0  0  0  0
  185.6790  178.4340  145.0780 C   0  0  0  0  0  3  0  0  0  0  0  0
  187.9160  177.6980  143.4810 C   0  0  0  0  0  3  0  0  0  0  0  0
  186.7360  178.1790  142.9230 C   0  0  0  0  0  0  0  0  0  0  0  0
  190.3520  176.9010  144.7210 C   0  0  0  0  0  1  0  0  0  0  0  0
  189.1570  177.1060  145.4650 O   0  0  0  0  0  0  0  0  0  0  0  0
  186.9150  178.5530  137.0510 N   0  0  0  0  0  2  0  0  0  0  0  0
  188.0960  177.7080  136.9070 C   0  0  1  0  0  3  0  0  0  0  0  0
  189.2240  178.2550  137.6460 N   0  0  0  0  0  2  0  0  0  0  0  0
  189.0770  177.8250  139.0270 C   0  0  0  0  0  2  0  0  0  0  0  0
  190.3860  177.3350  139.5530 C   0  0  0  0  0  0  0  0  0  0  0  0
  191.2700  176.9950  138.7820 O   0  0  0  0  0  0  0  0  0  0  0  0
  192.0320  177.3240  141.3140 N   0  0  0  0  0  1  0  0  0  0  0  0
  190.6090  177.2590  141.0270 C   0  0  0  0  0  2  0  0  0  0  0  0
  187.8500  176.3540  137.2420 O   0  0  0  0  0  0  0  0  0  0  0  0
  187.4520  175.5920  134.5940 O   0  0  0  0  0  0  0  0  0  0  0  0
  188.2030  173.6770  136.4360 O   0  0  0  0  0  1  0  0  0  0  0  0
  188.3630  175.3030  135.9910 P   0  0  0  0  0  0  0  0  0  0  0  0
  189.8170  175.5810  135.6860 O   0  0  0  0  0  1  0  0  0  0  0  0
  1 11  1  0  0  0  0
  1 14  1  1  0  0  0
  2 10  1  0  0  0  0
  2  8  2  0  0  0  0
  4  9  1  0  0  0  0
  4  3  2  0  0  0  0
  5  4  1  0  0  0  0
  6  7  1  0  0  0  0
  7  5  1  0  0  0  0
  7 10  1  0  0  0  0
  8  1  1  0  0  0  0
  9 11  1  0  0  0  0
 10  9  2  0  0  0  0
 11 13  2  0  0  0  0
 12  2  1  0  0  0  0
 14 16  1  0  0  0  0
 16 17  1  0  0  0  0
 17 20  2  0  0  0  0
 18 14  2  0  0  0  0
 18 22  1  0  0  0  0
 19 24  1  0  0  0  0
 19 15  2  0  0  0  0
 20 15  1  0  0  0  0
 21 19  1  0  0  0  0
 22 21  2  0  0  0  0
 22 17  1  0  0  0  0
 23 24  1  0  0  0  0
 25 12  1  0  0  0  0
 26 25  1  1  0  0  0
 26 33  1  0  0  0  0
 26 27  1  0  0  0  0
 27 28  1  0  0  0  0
 28 29  1  0  0  0  0
 29 32  1  0  0  0  0
 30 29  2  0  0  0  0
 32 31  1  0  0  0  0
 34 36  2  0  0  0  0
 36 35  1  0  0  0  0
 36 33  1  0  0  0  0
 37 36  1  0  0  0  0
M  END
>  <MODEL>
7

>  <REMARK>
 VINA RESULT:      -6.8      1.097      1.448
  Name = 
  10 active torsions:
  status: ('A' for Active; 'I' for Inactive)
    1  A    between atoms: C_1  and  C_3
    2  A    between atoms: C_7  and  C_29
    3  A    between atoms: C_7  and  C_33
    4  A    between atoms: C_16  and  N_19
    5  A    between atoms: C_16  and  N_30
    6  A    between atoms: C_16  and  O_36
    7  A    between atoms: N_19  and  C_29
    8  A    between atoms: C_24  and  O_34
    9  A    between atoms: P_26  and  O_36
   10  A    between atoms: N_30  and  N_31
                            x       y       z     vdW  Elec       q    Type
                         _______ _______ _______ _____ _____    ______ ____

>  <TORSDO>
F 10

$$$$
=
 OpenBabel10222421153D

 37 40  0  0  1  0  0  0  0  0999 V2000
  190.6620  177.7290  139.3800 C   0  0  1  0  0  3  0  0  0  0  0  0
  191.3690  175.7050  138.1310 C   0  0  0  0  0  0  0  0  0  0  0  0
  186.8000  176.5640  137.1830 O   0  0  0  0  0  0  0  0  0  0  0  0
  187.9210  175.9910  137.2330 C   0  0  0  0  0  0  0  0  0  0  0  0
  188.1970  174.8180  136.6250 N   0  0  0  0  0  2  0  0  0  0  0  0
  190.1480  173.3530  136.3960 C   0  0  0  0  0  1  0  0  0  0  0  0
  189.4670  174.5360  136.8930 N   0  0  0  0  0  0  0  0  0  0  0  0
  191.6500  176.7500  138.8680 N   0  0  0  0  0  0  0  0  0  0  0  0
  189.0360  176.4530  137.8950 C   0  0  0  0  0  0  0  0  0  0  0  0
  189.9900  175.5140  137.6610 C   0  0  0  0  0  0  0  0  0  0  0  0
  189.3280  177.6600  138.6620 C   0  0  0  0  0  0  0  0  0  0  0  0
  192.4040  174.8030  137.7390 N   0  0  0  0  0  2  0  0  0  0  0  0
  188.4550  178.6050  138.7900 N   0  0  0  0  0  2  0  0  0  0  0  0
  190.4630  177.5110  140.8430 C   0  0  0  0  0  0  0  0  0  0  0  0
  189.1080  176.8570  145.0040 C   0  0  0  0  0  3  0  0  0  0  0  0
  189.2760  177.3140  141.3960 O   0  0  0  0  0  0  0  0  0  0  0  0
  189.5000  177.1810  142.6730 C   0  0  0  0  0  0  0  0  0  0  0  0
  191.4860  177.5140  141.7370 N   0  0  0  0  0  0  0  0  0  0  0  0
  190.5020  176.9810  145.2480 C   0  0  0  0  0  0  0  0  0  0  0  0
  188.5890  176.9570  143.7000 C   0  0  0  0  0  3  0  0  0  0  0  0
  191.3840  177.2060  144.1730 C   0  0  0  0  0  3  0  0  0  0  0  0
  190.8390  177.3010  142.8960 C   0  0  0  0  0  0  0  0  0  0  0  0
  192.0430  175.9540  146.8880 C   0  0  0  0  0  1  0  0  0  0  0  0
  191.0270  176.8870  146.5390 O   0  0  0  0  0  0  0  0  0  0  0  0
  193.7410  175.0440  138.0770 N   0  0  0  0  0  2  0  0  0  0  0  0
  194.4980  173.8640  137.6760 C   0  0  1  0  0  3  0  0  0  0  0  0
  195.3140  173.3670  138.7750 N   0  0  0  0  0  2  0  0  0  0  0  0
  196.6870  173.3240  138.3000 C   0  0  0  0  0  2  0  0  0  0  0  0
  197.3900  174.5940  138.6520 C   0  0  0  0  0  0  0  0  0  0  0  0
  197.6940  175.3910  137.7780 O   0  0  0  0  0  0  0  0  0  0  0  0
  196.8290  175.9070  140.5940 N   0  0  0  0  0  1  0  0  0  0  0  0
  197.7230  174.8840  140.0770 C   0  0  0  0  0  2  0  0  0  0  0  0
  193.6820  172.8470  137.1220 O   0  0  0  0  0  0  0  0  0  0  0  0
  194.7590  170.8040  135.5670 O   0  0  0  0  0  1  0  0  0  0  0  0
  195.4690  173.4150  135.0180 O   0  0  0  0  0  1  0  0  0  0  0  0
  194.2190  172.4070  135.5550 P   0  0  0  0  0  0  0  0  0  0  0  0
  193.0580  172.5190  134.5940 O   0  0  0  0  0  0  0  0  0  0  0  0
  1 14  1  1  0  0  0
  2  8  2  0  0  0  0
  3  4  2  0  0  0  0
  4  9  1  0  0  0  0
  5  7  1  0  0  0  0
  5  4  1  0  0  0  0
  6  7  1  0  0  0  0
  7 10  1  0  0  0  0
  8  1  1  0  0  0  0
  9 11  1  0  0  0  0
 10  9  2  0  0  0  0
 10  2  1  0  0  0  0
 11 13  2  0  0  0  0
 11  1  1  0  0  0  0
 12 25  1  0  0  0  0
 12  2  1  0  0  0  0
 14 16  1  0  0  0  0
 14 18  2  0  0  0  0
 15 19  1  0  0  0  0
 16 17  1  0  0  0  0
 17 22  2  0  0  0  0
 17 20  1  0  0  0  0
 18 22  1  0  0  0  0
 19 24  1  0  0  0  0
 20 15  2  0  0  0  0
 21 19  2  0  0  0  0
 22 21  1  0  0  0  0
 24 23  1  0  0  0  0
 26 33  1  1  0  0  0
 26 25  1  0  0  0  0
 26 27  1  0  0  0  0
 28 29  1  0  0  0  0
 28 27  1  0  0  0  0
 29 32  1  0  0  0  0
 30 29  2  0  0  0  0
 32 31  1  0  0  0  0
 35 36  1  0  0  0  0
 36 34  1  0  0  0  0
 36 33  1  0  0  0  0
 37 36  2  0  0  0  0
M  END
>  <MODEL>
8

>  <REMARK>
 VINA RESULT:      -6.8      4.550      6.399
  Name = 
  10 active torsions:
  status: ('A' for Active; 'I' for Inactive)
    1  A    between atoms: C_1  and  C_3
    2  A    between atoms: C_7  and  C_29
    3  A    between atoms: C_7  and  C_33
    4  A    between atoms: C_16  and  N_19
    5  A    between atoms: C_16  and  N_30
    6  A    between atoms: C_16  and  O_36
    7  A    between atoms: N_19  and  C_29
    8  A    between atoms: C_24  and  O_34
    9  A    between atoms: P_26  and  O_36
   10  A    between atoms: N_30  and  N_31
                            x       y       z     vdW  Elec       q    Type
                         _______ _______ _______ _____ _____    ______ ____

>  <TORSDO>
F 10

$$$$
=
 OpenBabel10222421153D

 37 40  0  0  1  0  0  0  0  0999 V2000
  187.6380  177.4980  137.0280 C   0  0  1  0  0  3  0  0  0  0  0  0
  188.9620  177.7860  139.1060 C   0  0  0  0  0  0  0  0  0  0  0  0
  191.7820  175.9930  135.7370 O   0  0  0  0  0  0  0  0  0  0  0  0
  191.3620  176.3810  136.8590 C   0  0  0  0  0  0  0  0  0  0  0  0
  192.1100  176.3920  137.9830 N   0  0  0  0  0  2  0  0  0  0  0  0
  191.7930  177.0500  140.3220 C   0  0  0  0  0  1  0  0  0  0  0  0
  191.3390  176.8670  138.9540 N   0  0  0  0  0  0  0  0  0  0  0  0
  187.8680  177.9730  138.4120 N   0  0  0  0  0  0  0  0  0  0  0  0
  190.0980  176.8560  137.1310 C   0  0  0  0  0  0  0  0  0  0  0  0
  190.1180  177.1520  138.4570 C   0  0  0  0  0  0  0  0  0  0  0  0
  188.9160  177.1070  136.3120 C   0  0  0  0  0  0  0  0  0  0  0  0
  189.0470  178.2490  140.4540 N   0  0  0  0  0  2  0  0  0  0  0  0
  188.9340  176.9310  135.0310 N   0  0  0  0  0  2  0  0  0  0  0  0
  186.6970  176.3400  137.0530 C   0  0  0  0  0  0  0  0  0  0  0  0
  184.5520  172.4720  137.2190 C   0  0  0  0  0  3  0  0  0  0  0  0
  187.0830  175.0900  137.2610 O   0  0  0  0  0  0  0  0  0  0  0  0
  185.9980  174.3710  137.1950 C   0  0  0  0  0  0  0  0  0  0  0  0
  185.3600  176.4690  136.8460 N   0  0  0  0  0  0  0  0  0  0  0  0
  183.4450  173.3230  136.9560 C   0  0  0  0  0  0  0  0  0  0  0  0
  185.8530  172.9960  137.3420 C   0  0  0  0  0  3  0  0  0  0  0  0
  183.6430  174.7100  136.8160 C   0  0  0  0  0  3  0  0  0  0  0  0
  184.9420  175.1950  136.9430 C   0  0  0  0  0  0  0  0  0  0  0  0
  180.9890  173.6220  136.9790 C   0  0  0  0  0  1  0  0  0  0  0  0
  182.1500  172.8140  136.8270 O   0  0  0  0  0  0  0  0  0  0  0  0
  187.9960  178.9650  141.0410 N   0  0  0  0  0  2  0  0  0  0  0  0
  187.6870  178.3020  142.3030 C   0  0  1  0  0  3  0  0  0  0  0  0
  186.2490  178.1690  142.4860 N   0  0  0  0  0  2  0  0  0  0  0  0
  185.6210  179.2170  141.6990 C   0  0  0  0  0  2  0  0  0  0  0  0
  184.4040  178.6860  141.0170 C   0  0  0  0  0  0  0  0  0  0  0  0
  183.4940  178.2020  141.6720 O   0  0  0  0  0  0  0  0  0  0  0  0
  184.2170  180.1270  139.0940 N   0  0  0  0  0  1  0  0  0  0  0  0
  184.3060  178.7430  139.5290 C   0  0  0  0  0  2  0  0  0  0  0  0
  188.3560  177.0630  142.4540 O   0  0  0  0  0  0  0  0  0  0  0  0
  190.1730  178.6450  143.8490 O   0  0  0  0  0  1  0  0  0  0  0  0
  190.6770  175.9430  143.5930 O   0  0  0  0  0  0  0  0  0  0  0  0
  189.4640  177.1110  143.7600 P   0  0  0  0  0  0  0  0  0  0  0  0
  188.7120  176.8510  145.0460 O   0  0  0  0  0  1  0  0  0  0  0  0
  1 14  1  1  0  0  0
  1  8  1  0  0  0  0
  2 12  1  0  0  0  0
  3  4  2  0  0  0  0
  4  9  1  0  0  0  0
  4  5  1  0  0  0  0
  5  7  1  0  0  0  0
  7  6  1  0  0  0  0
  8  2  2  0  0  0  0
  9 10  2  0  0  0  0
 10  7  1  0  0  0  0
 10  2  1  0  0  0  0
 11  1  1  0  0  0  0
 11  9  1  0  0  0  0
 12 25  1  0  0  0  0
 13 11  2  0  0  0  0
 14 16  1  0  0  0  0
 15 20  1  0  0  0  0
 17 16  1  0  0  0  0
 17 20  2  0  0  0  0
 18 22  1  0  0  0  0
 18 14  2  0  0  0  0
 19 15  2  0  0  0  0
 21 22  2  0  0  0  0
 21 19  1  0  0  0  0
 22 17  1  0  0  0  0
 24 19  1  0  0  0  0
 24 23  1  0  0  0  0
 26 25  1  6  0  0  0
 26 33  1  0  0  0  0
 26 27  1  0  0  0  0
 28 27  1  0  0  0  0
 29 30  2  0  0  0  0
 29 28  1  0  0  0  0
 31 32  1  0  0  0  0
 32 29  1  0  0  0  0
 33 36  1  0  0  0  0
 35 36  2  0  0  0  0
 36 34  1  0  0  0  0
 36 37  1  0  0  0  0
M  END
>  <MODEL>
9

>  <REMARK>
 VINA RESULT:      -6.8      2.683      7.812
  Name = 
  10 active torsions:
  status: ('A' for Active; 'I' for Inactive)
    1  A    between atoms: C_1  and  C_3
    2  A    between atoms: C_7  and  C_29
    3  A    between atoms: C_7  and  C_33
    4  A    between atoms: C_16  and  N_19
    5  A    between atoms: C_16  and  N_30
    6  A    between atoms: C_16  and  O_36
    7  A    between atoms: N_19  and  C_29
    8  A    between atoms: C_24  and  O_34
    9  A    between atoms: P_26  and  O_36
   10  A    between atoms: N_30  and  N_31
                            x       y       z     vdW  Elec       q    Type
                         _______ _______ _______ _____ _____    ______ ____

>  <TORSDO>
F 10

$$$$
