=
 OpenBabel10222415163D

 65 75  0  0  1  0  0  0  0  0999 V2000
  187.0510  177.4020  146.6260 C   0  0  0  0  0  2  0  0  0  0  0  0
  187.0830  178.4410  137.0810 C   0  0  0  0  0  2  0  0  0  0  0  0
  186.8460  177.7560  145.3640 C   0  0  0  0  0  0  0  0  0  0  0  0
  185.0260  178.9840  141.4130 C   0  0  0  0  0  0  0  0  0  0  0  0
  188.5520  178.4700  137.3910 C   0  0  1  0  0  3  0  0  0  0  0  0
  189.0600  177.5050  138.9600 S   0  0  0  0  0  0  0  0  0  0  0  0
  186.3940  178.1090  138.5390 C   0  0  2  0  0  3  0  0  0  0  0  0
  186.4250  178.4010  141.7790 C   0  0  1  0  0  3  0  0  0  0  0  0
  185.0880  178.8520  138.8330 N   0  0  0  0  0  2  0  0  0  0  0  0
  183.5880  179.0000  143.6360 C   0  0  0  0  0  3  0  0  0  0  0  0
  185.9040  178.4450  144.3970 C   0  0  1  0  0  0  0  0  0  0  0  0
  184.3560  178.2950  144.6590 C   0  0  0  0  0  2  0  0  0  0  0  0
  187.6250  177.5530  144.0960 C   0  0  2  0  0  0  0  0  0  0  0  0
  184.4600  179.1010  139.9680 C   0  0  0  0  0  0  0  0  0  0  0  0
  187.5020  177.9670  139.7180 C   0  0  2  0  0  3  0  0  0  0  0  0
  184.2050  179.1040  142.4160 C   0  0  0  0  0  0  0  0  0  0  0  0
  187.6920  178.8940  141.0110 C   0  0  0  0  0  2  0  0  0  0  0  0
  186.4650  177.6640  143.2070 C   0  0  2  0  0  3  0  0  0  0  0  0
  183.0650  179.8410  139.7620 C   0  0  0  0  0  3  0  0  0  0  0  0
  182.5840  180.2100  138.6050 C   0  0  0  0  0  2  0  0  0  0  0  0
  181.3270  180.9470  138.7160 C   0  0  0  0  0  2  0  0  0  0  0  0
  181.2180  181.8380  137.5270 N   0  0  0  0  0  2  0  0  0  0  0  0
  179.6910  181.2770  135.4420 C   0  0  0  0  0  2  0  0  0  0  0  0
  179.4470  180.4470  136.7040 C   0  0  2  0  0  3  0  0  0  0  0  0
  180.8240  180.8810  136.4140 C   0  0  2  0  0  3  0  0  0  0  0  0
  179.3360  178.9820  136.4410 C   0  0  0  0  0  0  0  0  0  0  0  0
  179.5850  178.6600  135.2140 O   0  0  0  0  0  0  0  0  0  0  0  0
  181.4200  177.0670  136.7320 O   0  0  0  0  0  0  0  0  0  0  0  0
  180.4060  176.8840  137.4320 C   0  0  0  0  0  0  0  0  0  0  0  0
  179.3440  177.9040  137.4320 N   0  0  0  0  0  2  0  0  0  0  0  0
  181.0340  176.3860  139.8090 C   0  0  2  0  0  3  0  0  0  0  0  0
  179.7920  175.5700  139.7730 C   0  0  0  0  0  2  0  0  0  0  0  0
  180.3620  177.6340  140.3410 C   0  0  0  0  0  1  0  0  0  0  0  0
  180.5630  175.7600  138.5070 C   0  0  1  0  0  0  0  0  0  0  0  0
  180.4010  172.1590  137.8010 C   0  0  0  0  0  1  0  0  0  0  0  0
  180.2510  173.5660  137.4880 C   0  0  0  0  0  0  0  0  0  0  0  0
  179.4010  173.8720  136.6290 O   0  0  0  0  0  0  0  0  0  0  0  0
  181.1720  174.5350  137.9810 N   0  0  0  0  0  2  0  0  0  0  0  0
  188.8890  176.7570  143.9330 C   0  0  0  0  0  2  0  0  0  0  0  0
  190.0580  177.5270  144.7480 C   0  0  0  0  0  0  0  0  0  0  0  0
  190.4810  178.7350  144.6950 O   0  0  0  0  0  0  0  0  0  0  0  0
  190.6340  176.9960  147.3120 S   0  0  0  0  0  0  0  0  0  0  0  0
  191.9490  176.0570  147.7640 C   0  0  0  0  0  3  0  0  0  0  0  0
  190.8690  176.8610  145.7070 C   0  0  0  0  0  0  0  0  0  0  0  0
  191.8740  176.0770  145.4330 N   0  0  0  0  0  0  0  0  0  0  0  0
  192.4860  175.6510  146.5910 N   0  0  0  0  0  0  0  0  0  0  0  0
  189.2310  177.8380  136.1070 C   0  0  0  0  0  2  0  0  0  0  0  0
  188.7310  176.4630  135.9350 C   0  0  0  0  0  2  0  0  0  0  0  0
  189.2140  175.8070  134.6230 C   0  0  0  0  0  2  0  0  0  0  0  0
  189.7950  174.4300  134.9320 C   0  0  0  0  0  0  0  0  0  0  0  0
  189.0840  173.4180  134.9730 O   0  0  0  0  0  0  0  0  0  0  0  0
  191.3770  174.2010  134.7510 C   0  0  0  0  0  2  0  0  0  0  0  0
  195.7070  170.7130  137.8110 C   0  0  0  0  0  2  0  0  0  0  0  0
  193.4130  173.6290  136.6670 C   0  0  2  0  0  0  0  0  0  0  0  0
  194.1580  174.9100  136.1840 C   0  0  0  0  0  2  0  0  0  0  0  0
  194.5000  172.5300  136.7470 C   0  0  2  0  0  3  0  0  0  0  0  0
  193.9200  169.8380  136.1860 C   0  0  0  0  0  2  0  0  0  0  0  0
  192.3170  173.2250  135.6300 C   0  0  2  0  0  3  0  0  0  0  0  0
  193.7910  171.3650  135.9400 C   0  0  1  0  0  3  0  0  0  0  0  0
  194.6220  169.6410  137.5420 C   0  0  0  0  0  2  0  0  0  0  0  0
  192.4930  175.7990  137.0450 O   0  0  0  0  0  1  0  0  0  0  0  0
  193.4600  174.9240  137.4800 C   0  0  1  0  0  3  0  0  0  0  0  0
  191.5160  171.0930  134.8410 O   0  0  0  0  0  1  0  0  0  0  0  0
  195.1700  172.1340  138.0750 C   0  0  0  0  0  2  0  0  0  0  0  0
  192.6870  171.9190  134.9650 C   0  0  1  0  0  3  0  0  0  0  0  0
  2  5  1  0  0  0  0
  3  1  2  0  0  0  0
  4  8  1  0  0  0  0
  4 16  2  0  0  0  0
  5 47  1  6  0  0  0
  5  6  1  0  0  0  0
  6 15  1  0  0  0  0
  7  2  1  6  0  0  0
  7  9  1  0  0  0  0
  7 15  1  0  0  0  0
  8 17  1  1  0  0  0
  8 18  1  0  0  0  0
  9 14  1  0  0  0  0
 10 12  1  0  0  0  0
 11 12  1  6  0  0  0
 11  3  1  0  0  0  0
 13 39  1  6  0  0  0
 13 11  1  0  0  0  0
 13  3  1  0  0  0  0
 14  4  1  0  0  0  0
 15 17  1  6  0  0  0
 16 10  2  0  0  0  0
 18 13  1  0  0  0  0
 18 11  1  0  0  0  0
 19 14  2  0  0  0  0
 20 21  1  0  0  0  0
 20 19  1  0  0  0  0
 22 21  1  0  0  0  0
 23 25  1  0  0  0  0
 23 24  1  0  0  0  0
 25 24  1  0  0  0  0
 25 22  1  0  0  0  0
 26 24  1  0  0  0  0
 26 30  1  0  0  0  0
 27 26  2  0  0  0  0
 28 29  2  0  0  0  0
 29 30  1  0  0  0  0
 29 34  1  0  0  0  0
 31 33  1  0  0  0  0
 32 31  1  0  0  0  0
 34 32  1  0  0  0  0
 34 31  1  0  0  0  0
 36 35  1  0  0  0  0
 36 38  1  0  0  0  0
 37 36  2  0  0  0  0
 38 34  1  0  0  0  0
 39 40  1  0  0  0  0
 40 44  1  0  0  0  0
 41 40  2  0  0  0  0
 42 43  1  0  0  0  0
 44 42  1  0  0  0  0
 45 44  2  0  0  0  0
 45 46  1  0  0  0  0
 46 43  2  0  0  0  0
 48 47  1  0  0  0  0
 49 50  1  0  0  0  0
 49 48  1  0  0  0  0
 50 51  2  0  0  0  0
 52 50  1  0  0  0  0
 52 58  1  0  0  0  0
 53 64  1  0  0  0  0
 54 56  1  0  0  0  0
 54 62  1  0  0  0  0
 55 54  1  0  0  0  0
 55 62  1  0  0  0  0
 56 64  1  0  0  0  0
 57 60  1  0  0  0  0
 58 54  1  0  0  0  0
 59 57  1  0  0  0  0
 59 56  1  0  0  0  0
 60 53  1  0  0  0  0
 61 62  1  0  0  0  0
 63 65  1  0  0  0  0
 65 58  1  0  0  0  0
 65 59  1  0  0  0  0
M  END
>  <MODEL>
1

>  <REMARK>
 VINA RESULT:      -8.9      0.000      0.000
  Name = 
  16 active torsions:
  status: ('A' for Active; 'I' for Inactive)
    1  A    between atoms: N_1  and  C_15
    2  A    between atoms: N_1  and  C_40
    3  A    between atoms: C_3  and  C_34
    4  A    between atoms: C_4  and  C_56
    5  A    between atoms: C_9  and  C_20
    6  A    between atoms: C_9  and  C_46
    7  A    between atoms: C_15  and  C_54
    8  A    between atoms: C_20  and  C_64
    9  A    between atoms: C_21  and  C_25
   10  A    between atoms: C_24  and  C_41
   11  A    between atoms: C_25  and  C_46
   12  A    between atoms: C_28  and  C_60
   13  A    between atoms: C_31  and  C_64
   14  A    between atoms: N_36  and  C_60
   15  A    between atoms: C_41  and  C_50
   16  A    between atoms: C_50  and  C_53
                            x       y       z     vdW  Elec       q    Type
                         _______ _______ _______ _____ _____    ______ ____

>  <TORSDO>
F 16

$$$$
=
 OpenBabel10222415163D

 65 75  0  0  1  0  0  0  0  0999 V2000
  186.5620  177.5130  146.6190 C   0  0  0  0  0  2  0  0  0  0  0  0
  187.0340  178.3510  137.0660 C   0  0  0  0  0  2  0  0  0  0  0  0
  186.4120  177.8360  145.3410 C   0  0  0  0  0  0  0  0  0  0  0  0
  184.7630  178.9500  141.2820 C   0  0  0  0  0  0  0  0  0  0  0  0
  188.4860  178.4130  137.4440 C   0  0  1  0  0  3  0  0  0  0  0  0
  188.9340  177.4890  139.0570 S   0  0  0  0  0  0  0  0  0  0  0  0
  186.2810  178.0390  138.4960 C   0  0  2  0  0  3  0  0  0  0  0  0
  186.1520  178.3990  141.7270 C   0  0  1  0  0  3  0  0  0  0  0  0
  184.9510  178.7640  138.7110 N   0  0  0  0  0  2  0  0  0  0  0  0
  183.2200  178.9880  143.4330 C   0  0  0  0  0  3  0  0  0  0  0  0
  185.5060  178.4890  144.3160 C   0  0  1  0  0  0  0  0  0  0  0  0
  183.9490  178.3180  144.5070 C   0  0  0  0  0  2  0  0  0  0  0  0
  187.2530  177.6210  144.1160 C   0  0  2  0  0  0  0  0  0  0  0  0
  184.2660  179.0270  139.8100 C   0  0  2  0  0  3  0  0  0  0  0  0
  187.3340  177.9400  139.7290 C   0  0  2  0  0  3  0  0  0  0  0  0
  183.8940  179.0760  142.2420 C   0  0  0  0  0  0  0  0  0  0  0  0
  187.4460  178.8970  141.0100 C   0  0  0  0  0  2  0  0  0  0  0  0
  186.1360  177.6930  143.1710 C   0  0  2  0  0  3  0  0  0  0  0  0
  182.8700  179.7380  139.5220 C   0  0  0  0  0  2  0  0  0  0  0  0
  182.7070  180.7540  138.7170 C   0  0  0  0  0  2  0  0  0  0  0  0
  181.3370  181.2640  138.7090 C   0  0  0  0  0  2  0  0  0  0  0  0
  181.1920  182.1540  137.5240 N   0  0  0  0  0  2  0  0  0  0  0  0
  179.7070  181.5580  135.4180 C   0  0  0  0  0  2  0  0  0  0  0  0
  179.4630  180.7250  136.6780 C   0  0  2  0  0  3  0  0  0  0  0  0
  180.8350  181.1880  136.4070 C   0  0  2  0  0  3  0  0  0  0  0  0
  179.3880  179.2570  136.4160 C   0  0  0  0  0  0  0  0  0  0  0  0
  179.7790  178.9260  135.2290 O   0  0  0  0  0  0  0  0  0  0  0  0
  181.4290  177.3520  136.9650 O   0  0  0  0  0  0  0  0  0  0  0  0
  180.3400  177.1710  137.5420 C   0  0  0  0  0  0  0  0  0  0  0  0
  179.2820  178.1870  137.4100 N   0  0  0  0  0  2  0  0  0  0  0  0
  180.6590  176.6970  139.9860 C   0  0  2  0  0  3  0  0  0  0  0  0
  179.4460  175.8590  139.7930 C   0  0  0  0  0  2  0  0  0  0  0  0
  179.9010  177.9360  140.4140 C   0  0  0  0  0  1  0  0  0  0  0  0
  180.3730  176.0560  138.6380 C   0  0  1  0  0  0  0  0  0  0  0  0
  180.3500  172.4620  137.8810 C   0  0  0  0  0  1  0  0  0  0  0  0
  180.2440  173.8710  137.5610 C   0  0  0  0  0  0  0  0  0  0  0  0
  179.5430  174.1820  136.5780 O   0  0  0  0  0  0  0  0  0  0  0  0
  181.0680  174.8390  138.2060 N   0  0  0  0  0  2  0  0  0  0  0  0
  188.5360  176.8430  144.0310 C   0  0  0  0  0  2  0  0  0  0  0  0
  189.6860  177.7170  144.7650 C   0  0  0  0  0  0  0  0  0  0  0  0
  190.0520  178.9360  144.6210 O   0  0  0  0  0  0  0  0  0  0  0  0
  190.1660  177.1030  147.3310 S   0  0  0  0  0  0  0  0  0  0  0  0
  191.6120  176.4210  147.8390 C   0  0  0  0  0  3  0  0  0  0  0  0
  190.5440  177.1550  145.7490 C   0  0  0  0  0  0  0  0  0  0  0  0
  191.7110  176.6210  145.5170 N   0  0  0  0  0  0  0  0  0  0  0  0
  192.3100  176.2340  146.6950 N   0  0  0  0  0  0  0  0  0  0  0  0
  189.2360  177.7660  136.2090 C   0  0  0  0  0  2  0  0  0  0  0  0
  190.1960  176.7660  136.7080 C   0  0  0  0  0  2  0  0  0  0  0  0
  190.6610  175.7780  135.6140 C   0  0  0  0  0  2  0  0  0  0  0  0
  191.5480  174.7090  136.2440 C   0  0  0  0  0  0  0  0  0  0  0  0
  191.3210  174.2570  137.3740 O   0  0  0  0  0  0  0  0  0  0  0  0
  192.4960  173.8300  135.2870 C   0  0  0  0  0  2  0  0  0  0  0  0
  198.7270  173.1940  136.3160 C   0  0  0  0  0  2  0  0  0  0  0  0
  194.9820  172.4630  135.5970 C   0  0  2  0  0  0  0  0  0  0  0  0
  194.2800  171.5230  136.6230 C   0  0  0  0  0  2  0  0  0  0  0  0
  196.3230  172.8620  136.2590 C   0  0  2  0  0  3  0  0  0  0  0  0
  197.4780  175.3900  135.8480 C   0  0  0  0  0  2  0  0  0  0  0  0
  194.1070  173.7340  135.3510 C   0  0  2  0  0  3  0  0  0  0  0  0
  196.2770  174.4350  136.0800 C   0  0  1  0  0  3  0  0  0  0  0  0
  198.7070  174.5240  135.5200 C   0  0  0  0  0  2  0  0  0  0  0  0
  193.2730  170.9470  134.9030 O   0  0  0  0  0  1  0  0  0  0  0  0
  194.5940  171.0180  135.2770 C   0  0  1  0  0  3  0  0  0  0  0  0
  194.6550  176.0510  134.9770 O   0  0  0  0  0  1  0  0  0  0  0  0
  197.6520  172.1700  135.9010 C   0  0  0  0  0  2  0  0  0  0  0  0
  194.8030  174.9580  135.9000 C   0  0  1  0  0  3  0  0  0  0  0  0
  2  5  1  0  0  0  0
  3  1  2  0  0  0  0
  4  8  1  0  0  0  0
  4 16  2  0  0  0  0
  5 47  1  6  0  0  0
  5  6  1  0  0  0  0
  6 15  1  0  0  0  0
  7  2  1  6  0  0  0
  7  9  1  0  0  0  0
  7 15  1  0  0  0  0
  8 17  1  1  0  0  0
  8 18  1  0  0  0  0
  9 14  1  0  0  0  0
 10 12  1  0  0  0  0
 11 12  1  6  0  0  0
 11  3  1  0  0  0  0
 13 39  1  6  0  0  0
 13 11  1  0  0  0  0
 13  3  1  0  0  0  0
 14 19  1  6  0  0  0
 14  4  1  0  0  0  0
 15 17  1  6  0  0  0
 16 10  2  0  0  0  0
 18 13  1  0  0  0  0
 18 11  1  0  0  0  0
 20 19  1  0  0  0  0
 21 20  1  0  0  0  0
 22 21  1  0  0  0  0
 23 25  1  0  0  0  0
 23 24  1  0  0  0  0
 25 24  1  0  0  0  0
 25 22  1  0  0  0  0
 26 24  1  0  0  0  0
 26 30  1  0  0  0  0
 27 26  2  0  0  0  0
 28 29  2  0  0  0  0
 29 34  1  0  0  0  0
 30 29  1  0  0  0  0
 31 33  1  0  0  0  0
 32 31  1  0  0  0  0
 34 32  1  0  0  0  0
 34 31  1  0  0  0  0
 36 35  1  0  0  0  0
 36 38  1  0  0  0  0
 37 36  2  0  0  0  0
 38 34  1  0  0  0  0
 39 40  1  0  0  0  0
 40 44  1  0  0  0  0
 41 40  2  0  0  0  0
 42 43  1  0  0  0  0
 44 42  1  0  0  0  0
 45 44  2  0  0  0  0
 45 46  1  0  0  0  0
 46 43  2  0  0  0  0
 47 48  1  0  0  0  0
 49 50  1  0  0  0  0
 49 48  1  0  0  0  0
 50 51  2  0  0  0  0
 52 58  1  0  0  0  0
 52 50  1  0  0  0  0
 54 56  1  0  0  0  0
 54 55  1  0  0  0  0
 57 59  1  0  0  0  0
 58 54  1  0  0  0  0
 58 65  1  0  0  0  0
 59 56  1  0  0  0  0
 60 57  1  0  0  0  0
 60 53  1  0  0  0  0
 61 62  1  0  0  0  0
 62 54  1  0  0  0  0
 62 55  1  0  0  0  0
 63 65  1  0  0  0  0
 64 56  1  0  0  0  0
 64 53  1  0  0  0  0
 65 59  1  0  0  0  0
M  END
>  <MODEL>
2

>  <REMARK>
 VINA RESULT:      -8.6      1.268      2.097
  Name = 
  16 active torsions:
  status: ('A' for Active; 'I' for Inactive)
    1  A    between atoms: N_1  and  C_15
    2  A    between atoms: N_1  and  C_40
    3  A    between atoms: C_3  and  C_34
    4  A    between atoms: C_4  and  C_56
    5  A    between atoms: C_9  and  C_20
    6  A    between atoms: C_9  and  C_46
    7  A    between atoms: C_15  and  C_54
    8  A    between atoms: C_20  and  C_64
    9  A    between atoms: C_21  and  C_25
   10  A    between atoms: C_24  and  C_41
   11  A    between atoms: C_25  and  C_46
   12  A    between atoms: C_28  and  C_60
   13  A    between atoms: C_31  and  C_64
   14  A    between atoms: N_36  and  C_60
   15  A    between atoms: C_41  and  C_50
   16  A    between atoms: C_50  and  C_53
                            x       y       z     vdW  Elec       q    Type
                         _______ _______ _______ _____ _____    ______ ____

>  <TORSDO>
F 16

$$$$
=
 OpenBabel10222415163D

 65 75  0  0  1  0  0  0  0  0999 V2000
  186.2710  177.4880  146.7990 C   0  0  0  0  0  2  0  0  0  0  0  0
  186.8850  178.3410  137.2550 C   0  0  0  0  0  2  0  0  0  0  0  0
  186.1520  177.8240  145.5210 C   0  0  0  0  0  0  0  0  0  0  0  0
  184.6060  179.0420  141.4510 C   0  0  0  0  0  0  0  0  0  0  0  0
  188.3340  178.3230  137.6480 C   0  0  1  0  0  3  0  0  0  0  0  0
  188.7150  177.3690  139.2600 S   0  0  0  0  0  0  0  0  0  0  0  0
  186.1020  178.0630  138.6760 C   0  0  2  0  0  3  0  0  0  0  0  0
  185.9590  178.4160  141.9070 C   0  0  1  0  0  3  0  0  0  0  0  0
  184.8100  178.8580  138.8810 N   0  0  0  0  0  2  0  0  0  0  0  0
  183.0460  179.1540  143.5870 C   0  0  0  0  0  3  0  0  0  0  0  0
  185.2920  178.5290  144.4900 C   0  0  1  0  0  0  0  0  0  0  0  0
  183.7270  178.4410  144.6650 C   0  0  0  0  0  2  0  0  0  0  0  0
  186.9930  177.5690  144.3030 C   0  0  2  0  0  0  0  0  0  0  0  0
  184.1290  179.1520  139.9740 C   0  0  2  0  0  3  0  0  0  0  0  0
  187.1350  177.9030  139.9190 C   0  0  2  0  0  3  0  0  0  0  0  0
  183.7350  179.2110  142.4030 C   0  0  0  0  0  0  0  0  0  0  0  0
  187.2860  178.8470  141.2050 C   0  0  0  0  0  2  0  0  0  0  0  0
  185.8910  177.7050  143.3470 C   0  0  2  0  0  3  0  0  0  0  0  0
  182.7760  179.9390  139.6760 C   0  0  0  0  0  2  0  0  0  0  0  0
  182.5970  180.7520  138.6690 C   0  0  0  0  0  2  0  0  0  0  0  0
  181.2900  181.4050  138.6880 C   0  0  0  0  0  2  0  0  0  0  0  0
  181.0000  181.8770  137.3050 N   0  0  0  0  0  2  0  0  0  0  0  0
  180.3090  180.5350  135.1330 C   0  0  0  0  0  2  0  0  0  0  0  0
  179.6760  180.0710  136.4470 C   0  0  2  0  0  3  0  0  0  0  0  0
  181.0510  180.5970  136.4860 C   0  0  2  0  0  3  0  0  0  0  0  0
  179.7190  178.5920  136.6380 C   0  0  0  0  0  0  0  0  0  0  0  0
  180.5700  177.9970  135.8680 O   0  0  0  0  0  0  0  0  0  0  0  0
  181.3480  177.1920  138.5060 O   0  0  0  0  0  0  0  0  0  0  0  0
  180.1180  177.0400  138.6290 C   0  0  0  0  0  0  0  0  0  0  0  0
  179.2100  177.8350  137.7840 N   0  0  0  0  0  2  0  0  0  0  0  0
  179.1600  174.9140  139.5570 C   0  0  2  0  0  3  0  0  0  0  0  0
  180.2800  175.0480  140.5250 C   0  0  0  0  0  2  0  0  0  0  0  0
  179.9250  174.0420  138.5840 C   0  0  0  0  0  1  0  0  0  0  0  0
  179.6920  176.2870  139.9310 C   0  0  1  0  0  0  0  0  0  0  0  0
  179.6260  178.1460  143.0990 C   0  0  0  0  0  1  0  0  0  0  0  0
  179.8330  177.9890  141.6730 C   0  0  0  0  0  0  0  0  0  0  0  0
  180.6510  178.7550  141.1280 O   0  0  0  0  0  0  0  0  0  0  0  0
  178.9920  177.1440  140.8930 N   0  0  0  0  0  2  0  0  0  0  0  0
  188.2330  176.7250  144.2270 C   0  0  0  0  0  2  0  0  0  0  0  0
  189.5080  177.7160  144.3540 C   0  0  0  0  0  0  0  0  0  0  0  0
  189.8050  178.6170  145.2150 O   0  0  0  0  0  0  0  0  0  0  0  0
  190.3750  177.1260  141.8860 S   0  0  0  0  0  0  0  0  0  0  0  0
  191.9590  177.3930  141.4000 C   0  0  0  0  0  3  0  0  0  0  0  0
  190.5520  177.7240  143.3890 C   0  0  0  0  0  0  0  0  0  0  0  0
  191.7520  178.1990  143.5790 N   0  0  0  0  0  0  0  0  0  0  0  0
  192.5380  177.9880  142.4680 N   0  0  0  0  0  0  0  0  0  0  0  0
  189.0600  177.6420  136.4170 C   0  0  0  0  0  2  0  0  0  0  0  0
  189.4630  176.2770  136.7990 C   0  0  0  0  0  2  0  0  0  0  0  0
  190.7130  175.7820  136.0380 C   0  0  0  0  0  2  0  0  0  0  0  0
  191.5340  174.8770  136.9520 C   0  0  0  0  0  0  0  0  0  0  0  0
  191.3190  174.8130  138.1690 O   0  0  0  0  0  0  0  0  0  0  0  0
  192.3630  173.6650  136.2950 C   0  0  0  0  0  2  0  0  0  0  0  0
  198.4760  172.1960  137.1630 C   0  0  0  0  0  2  0  0  0  0  0  0
  194.7590  172.1350  136.0440 C   0  0  2  0  0  0  0  0  0  0  0  0
  193.9480  170.8840  136.5000 C   0  0  0  0  0  2  0  0  0  0  0  0
  196.0700  172.0950  136.8670 C   0  0  2  0  0  3  0  0  0  0  0  0
  197.3610  174.4470  137.6990 C   0  0  0  0  0  2  0  0  0  0  0  0
  193.9600  173.4370  136.3710 C   0  0  2  0  0  3  0  0  0  0  0  0
  196.1060  173.5780  137.4240 C   0  0  1  0  0  3  0  0  0  0  0  0
  198.5700  173.7390  137.0610 C   0  0  0  0  0  2  0  0  0  0  0  0
  193.0340  171.2210  134.6690 O   0  0  0  0  0  1  0  0  0  0  0  0
  194.3290  171.0230  135.0860 C   0  0  1  0  0  3  0  0  0  0  0  0
  194.6350  175.6270  137.1160 O   0  0  0  0  0  1  0  0  0  0  0  0
  197.3870  171.5490  136.2850 C   0  0  0  0  0  2  0  0  0  0  0  0
  194.6720  174.2280  137.4440 C   0  0  1  0  0  3  0  0  0  0  0  0
  2  5  1  0  0  0  0
  3  1  2  0  0  0  0
  4  8  1  0  0  0  0
  4 16  2  0  0  0  0
  5 47  1  6  0  0  0
  5  6  1  0  0  0  0
  6 15  1  0  0  0  0
  7  2  1  6  0  0  0
  7  9  1  0  0  0  0
  7 15  1  0  0  0  0
  8 17  1  1  0  0  0
  8 18  1  0  0  0  0
  9 14  1  0  0  0  0
 10 12  1  0  0  0  0
 11 12  1  6  0  0  0
 11  3  1  0  0  0  0
 13 39  1  6  0  0  0
 13 11  1  0  0  0  0
 13  3  1  0  0  0  0
 14 19  1  6  0  0  0
 14  4  1  0  0  0  0
 15 17  1  6  0  0  0
 16 10  2  0  0  0  0
 18 13  1  0  0  0  0
 18 11  1  0  0  0  0
 20 21  1  0  0  0  0
 20 19  1  0  0  0  0
 22 21  1  0  0  0  0
 23 24  1  0  0  0  0
 23 25  1  0  0  0  0
 24 25  1  0  0  0  0
 24 26  1  0  0  0  0
 25 22  1  0  0  0  0
 26 30  1  0  0  0  0
 27 26  2  0  0  0  0
 28 29  2  0  0  0  0
 29 34  1  0  0  0  0
 30 29  1  0  0  0  0
 31 34  1  0  0  0  0
 31 32  1  0  0  0  0
 33 31  1  0  0  0  0
 34 32  1  0  0  0  0
 34 38  1  0  0  0  0
 36 35  1  0  0  0  0
 37 36  2  0  0  0  0
 38 36  1  0  0  0  0
 39 40  1  0  0  0  0
 40 41  2  0  0  0  0
 42 44  1  0  0  0  0
 43 42  1  0  0  0  0
 43 46  2  0  0  0  0
 44 45  2  0  0  0  0
 44 40  1  0  0  0  0
 46 45  1  0  0  0  0
 47 48  1  0  0  0  0
 49 48  1  0  0  0  0
 49 50  1  0  0  0  0
 50 51  2  0  0  0  0
 52 58  1  0  0  0  0
 52 50  1  0  0  0  0
 54 58  1  0  0  0  0
 54 55  1  0  0  0  0
 54 56  1  0  0  0  0
 56 59  1  0  0  0  0
 58 65  1  0  0  0  0
 59 65  1  0  0  0  0
 59 57  1  0  0  0  0
 60 53  1  0  0  0  0
 60 57  1  0  0  0  0
 61 62  1  0  0  0  0
 62 54  1  0  0  0  0
 62 55  1  0  0  0  0
 63 65  1  0  0  0  0
 64 56  1  0  0  0  0
 64 53  1  0  0  0  0
M  END
>  <MODEL>
3

>  <REMARK>
 VINA RESULT:      -7.9      1.730      2.979
  Name = 
  16 active torsions:
  status: ('A' for Active; 'I' for Inactive)
    1  A    between atoms: N_1  and  C_15
    2  A    between atoms: N_1  and  C_40
    3  A    between atoms: C_3  and  C_34
    4  A    between atoms: C_4  and  C_56
    5  A    between atoms: C_9  and  C_20
    6  A    between atoms: C_9  and  C_46
    7  A    between atoms: C_15  and  C_54
    8  A    between atoms: C_20  and  C_64
    9  A    between atoms: C_21  and  C_25
   10  A    between atoms: C_24  and  C_41
   11  A    between atoms: C_25  and  C_46
   12  A    between atoms: C_28  and  C_60
   13  A    between atoms: C_31  and  C_64
   14  A    between atoms: N_36  and  C_60
   15  A    between atoms: C_41  and  C_50
   16  A    between atoms: C_50  and  C_53
                            x       y       z     vdW  Elec       q    Type
                         _______ _______ _______ _____ _____    ______ ____

>  <TORSDO>
F 16

$$$$
=
 OpenBabel10222415163D

 65 75  0  0  1  0  0  0  0  0999 V2000
  186.5230  177.5650  146.2850 C   0  0  0  0  0  2  0  0  0  0  0  0
  185.9040  178.1640  136.7220 C   0  0  0  0  0  2  0  0  0  0  0  0
  186.2380  177.8670  145.0250 C   0  0  0  0  0  0  0  0  0  0  0  0
  184.1760  178.9690  141.1570 C   0  0  1  0  0  3  0  0  0  0  0  0
  187.3910  178.1620  136.9270 C   0  0  1  0  0  3  0  0  0  0  0  0
  187.9830  177.2540  138.5020 S   0  0  0  0  0  0  0  0  0  0  0  0
  185.3120  177.9210  138.2390 C   0  0  2  0  0  3  0  0  0  0  0  0
  185.5810  178.3600  141.4520 C   0  0  1  0  0  3  0  0  0  0  0  0
  184.0510  178.7170  138.5870 N   0  0  0  0  0  2  0  0  0  0  0  0
  182.9010  179.1320  143.4710 C   0  0  0  0  0  2  0  0  0  0  0  0
  185.2490  178.5400  144.0950 C   0  0  1  0  0  0  0  0  0  0  0  0
  183.7200  178.4510  144.4700 C   0  0  0  0  0  2  0  0  0  0  0  0
  186.9190  177.5820  143.7170 C   0  0  2  0  0  0  0  0  0  0  0  0
  183.5130  179.0380  139.7510 C   0  0  2  0  0  3  0  0  0  0  0  0
  186.4970  177.7990  139.3430 C   0  0  2  0  0  3  0  0  0  0  0  0
  183.4330  179.1600  142.2070 C   0  0  0  0  0  2  0  0  0  0  0  0
  186.8030  178.7780  140.5740 C   0  0  0  0  0  2  0  0  0  0  0  0
  185.7020  177.6880  142.9070 C   0  0  2  0  0  3  0  0  0  0  0  0
  182.1270  179.8100  139.6080 C   0  0  0  0  0  2  0  0  0  0  0  0
  181.9430  180.8740  138.8710 C   0  0  0  0  0  2  0  0  0  0  0  0
  180.5970  181.4290  138.9950 C   0  0  0  0  0  2  0  0  0  0  0  0
  180.4360  182.4660  137.9380 N   0  0  0  0  0  2  0  0  0  0  0  0
  180.4570  182.3290  135.2970 C   0  0  0  0  0  2  0  0  0  0  0  0
  179.5800  181.3060  136.0210 C   0  0  2  0  0  3  0  0  0  0  0  0
  180.8330  181.7290  136.6690 C   0  0  2  0  0  3  0  0  0  0  0  0
  179.7450  179.9140  135.5110 C   0  0  0  0  0  0  0  0  0  0  0  0
  180.6500  179.8050  134.5950 O   0  0  0  0  0  0  0  0  0  0  0  0
  181.4680  177.9260  136.5980 O   0  0  0  0  0  0  0  0  0  0  0  0
  180.2540  177.6490  136.5790 C   0  0  0  0  0  0  0  0  0  0  0  0
  179.2900  178.6790  136.1540 N   0  0  0  0  0  2  0  0  0  0  0  0
  179.3370  175.3200  136.3900 C   0  0  2  0  0  3  0  0  0  0  0  0
  180.4940  174.9910  137.2650 C   0  0  0  0  0  2  0  0  0  0  0  0
  180.0660  175.0440  135.0920 C   0  0  0  0  0  1  0  0  0  0  0  0
  179.8810  176.3510  137.3660 C   0  0  1  0  0  0  0  0  0  0  0  0
  179.2610  175.5020  140.8860 C   0  0  0  0  0  1  0  0  0  0  0  0
  179.9310  176.1880  139.8000 C   0  0  0  0  0  0  0  0  0  0  0  0
  181.1100  176.5470  139.9920 O   0  0  0  0  0  0  0  0  0  0  0  0
  179.2160  176.6190  138.6450 N   0  0  0  0  0  2  0  0  0  0  0  0
  188.1460  176.7410  143.5050 C   0  0  0  0  0  2  0  0  0  0  0  0
  189.4270  177.7310  143.5310 C   0  0  0  0  0  0  0  0  0  0  0  0
  189.7490  178.6880  144.3200 O   0  0  0  0  0  0  0  0  0  0  0  0
  190.1580  177.2810  140.9910 S   0  0  0  0  0  0  0  0  0  0  0  0
  191.7600  177.3170  140.4940 C   0  0  0  0  0  3  0  0  0  0  0  0
  190.4490  177.6630  142.5460 C   0  0  0  0  0  0  0  0  0  0  0  0
  191.7160  177.8940  142.7540 N   0  0  0  0  0  0  0  0  0  0  0  0
  192.4430  177.6750  141.6060 N   0  0  0  0  0  0  0  0  0  0  0  0
  187.9590  177.4510  135.6310 C   0  0  0  0  0  2  0  0  0  0  0  0
  188.3220  176.0640  135.9710 C   0  0  0  0  0  2  0  0  0  0  0  0
  189.5090  175.5300  135.1390 C   0  0  0  0  0  2  0  0  0  0  0  0
  190.0400  174.2520  135.7810 C   0  0  0  0  0  0  0  0  0  0  0  0
  189.3600  173.5910  136.5760 O   0  0  0  0  0  0  0  0  0  0  0  0
  191.2870  173.5040  135.0940 C   0  0  0  0  0  2  0  0  0  0  0  0
  196.4900  170.8820  137.6120 C   0  0  0  0  0  2  0  0  0  0  0  0
  193.5950  173.3270  136.7630 C   0  0  2  0  0  0  0  0  0  0  0  0
  194.0390  174.7160  136.2110 C   0  0  0  0  0  2  0  0  0  0  0  0
  194.8640  172.4410  136.7080 C   0  0  2  0  0  3  0  0  0  0  0  0
  194.7170  169.6840  136.1910 C   0  0  0  0  0  2  0  0  0  0  0  0
  192.4800  172.7220  135.8520 C   0  0  2  0  0  3  0  0  0  0  0  0
  194.2890  171.1600  135.9750 C   0  0  1  0  0  3  0  0  0  0  0  0
  195.5910  169.6300  137.4570 C   0  0  0  0  0  2  0  0  0  0  0  0
  192.3500  175.3010  137.2630 O   0  0  0  0  0  1  0  0  0  0  0  0
  193.5000  174.6180  137.5770 C   0  0  1  0  0  3  0  0  0  0  0  0
  191.9910  170.4720  135.1370 O   0  0  0  0  0  1  0  0  0  0  0  0
  195.7400  172.1870  137.9490 C   0  0  0  0  0  2  0  0  0  0  0  0
  193.0010  171.4960  135.1370 C   0  0  1  0  0  3  0  0  0  0  0  0
  2  5  1  0  0  0  0
  3  1  2  0  0  0  0
  4  8  1  0  0  0  0
  4 16  1  1  0  0  0
  5 47  1  6  0  0  0
  5  6  1  0  0  0  0
  6 15  1  0  0  0  0
  7  2  1  6  0  0  0
  7  9  1  0  0  0  0
  7 15  1  0  0  0  0
  8 17  1  1  0  0  0
  8 18  1  0  0  0  0
  9 14  1  0  0  0  0
 10 12  1  0  0  0  0
 11 12  1  6  0  0  0
 11  3  1  0  0  0  0
 13 39  1  6  0  0  0
 13 11  1  0  0  0  0
 13  3  1  0  0  0  0
 14 19  1  6  0  0  0
 14  4  1  0  0  0  0
 15 17  1  6  0  0  0
 16 10  1  0  0  0  0
 18 13  1  0  0  0  0
 18 11  1  0  0  0  0
 20 21  1  0  0  0  0
 20 19  1  0  0  0  0
 22 21  1  0  0  0  0
 23 24  1  0  0  0  0
 23 25  1  0  0  0  0
 24 25  1  0  0  0  0
 25 22  1  0  0  0  0
 26 24  1  0  0  0  0
 26 30  1  0  0  0  0
 27 26  2  0  0  0  0
 29 28  2  0  0  0  0
 29 34  1  0  0  0  0
 30 29  1  0  0  0  0
 31 32  1  0  0  0  0
 31 34  1  0  0  0  0
 32 34  1  0  0  0  0
 33 31  1  0  0  0  0
 34 38  1  0  0  0  0
 36 37  2  0  0  0  0
 36 35  1  0  0  0  0
 38 36  1  0  0  0  0
 39 40  1  0  0  0  0
 40 41  2  0  0  0  0
 42 44  1  0  0  0  0
 43 42  1  0  0  0  0
 43 46  2  0  0  0  0
 44 45  2  0  0  0  0
 44 40  1  0  0  0  0
 46 45  1  0  0  0  0
 47 48  1  0  0  0  0
 49 50  1  0  0  0  0
 49 48  1  0  0  0  0
 50 51  2  0  0  0  0
 52 50  1  0  0  0  0
 52 58  1  0  0  0  0
 53 64  1  0  0  0  0
 54 62  1  0  0  0  0
 55 54  1  0  0  0  0
 55 62  1  0  0  0  0
 56 54  1  0  0  0  0
 56 64  1  0  0  0  0
 57 60  1  0  0  0  0
 58 54  1  0  0  0  0
 59 57  1  0  0  0  0
 59 56  1  0  0  0  0
 60 53  1  0  0  0  0
 61 62  1  0  0  0  0
 65 63  1  0  0  0  0
 65 58  1  0  0  0  0
 65 59  1  0  0  0  0
M  END
>  <MODEL>
4

>  <REMARK>
 VINA RESULT:      -7.5      1.732      2.207
  Name = 
  16 active torsions:
  status: ('A' for Active; 'I' for Inactive)
    1  A    between atoms: N_1  and  C_15
    2  A    between atoms: N_1  and  C_40
    3  A    between atoms: C_3  and  C_34
    4  A    between atoms: C_4  and  C_56
    5  A    between atoms: C_9  and  C_20
    6  A    between atoms: C_9  and  C_46
    7  A    between atoms: C_15  and  C_54
    8  A    between atoms: C_20  and  C_64
    9  A    between atoms: C_21  and  C_25
   10  A    between atoms: C_24  and  C_41
   11  A    between atoms: C_25  and  C_46
   12  A    between atoms: C_28  and  C_60
   13  A    between atoms: C_31  and  C_64
   14  A    between atoms: N_36  and  C_60
   15  A    between atoms: C_41  and  C_50
   16  A    between atoms: C_50  and  C_53
                            x       y       z     vdW  Elec       q    Type
                         _______ _______ _______ _____ _____    ______ ____

>  <TORSDO>
F 16

$$$$
=
 OpenBabel10222415163D

 65 75  0  0  1  0  0  0  0  0999 V2000
  189.8980  177.4730  147.7780 C   0  0  0  0  0  2  0  0  0  0  0  0
  186.4250  178.4960  138.8850 C   0  0  0  0  0  2  0  0  0  0  0  0
  189.6130  177.3930  146.4840 C   0  0  0  0  0  0  0  0  0  0  0  0
  189.8080  177.0000  141.9860 C   0  0  1  0  0  3  0  0  0  0  0  0
  185.1620  178.4290  139.6940 C   0  0  1  0  0  3  0  0  0  0  0  0
  185.3310  179.0480  141.4950 S   0  0  0  0  0  0  0  0  0  0  0  0
  187.6100  178.4940  140.0280 C   0  0  2  0  0  3  0  0  0  0  0  0
  188.6880  177.5190  142.9390 C   0  0  1  0  0  3  0  0  0  0  0  0
  188.8590  177.6810  139.6800 N   0  0  0  0  0  0  0  0  0  0  0  0
  191.9250  176.4810  143.4880 C   0  0  0  0  0  2  0  0  0  0  0  0
  190.0870  176.9070  145.1290 C   0  0  1  0  0  0  0  0  0  0  0  0
  191.6350  176.9670  144.8350 C   0  0  0  0  0  2  0  0  0  0  0  0
  188.4630  177.8770  145.6490 C   0  0  2  0  0  0  0  0  0  0  0  0
  189.8170  177.1820  140.4400 C   0  0  0  0  0  0  0  0  0  0  0  0
  187.0030  178.4040  141.5320 C   0  0  2  0  0  3  0  0  0  0  0  0
  190.9120  176.6530  142.5800 C   0  0  0  0  0  2  0  0  0  0  0  0
  187.1920  177.2270  142.6030 C   0  0  0  0  0  2  0  0  0  0  0  0
  189.2210  177.9350  144.3970 C   0  0  2  0  0  3  0  0  0  0  0  0
  190.9750  176.4760  139.6050 C   0  0  0  0  0  2  0  0  0  0  0  0
  190.7980  175.8580  138.4670 C   0  0  0  0  0  2  0  0  0  0  0  0
  192.0160  175.2250  137.9650 C   0  0  0  0  0  2  0  0  0  0  0  0
  191.8710  175.0730  136.4900 N   0  0  0  0  0  2  0  0  0  0  0  0
  191.9500  172.6740  135.3800 C   0  0  0  0  0  2  0  0  0  0  0  0
  190.7910  173.5790  134.9580 C   0  0  2  0  0  3  0  0  0  0  0  0
  191.2820  173.6800  136.3430 C   0  0  2  0  0  3  0  0  0  0  0  0
  189.4660  172.8900  134.9640 C   0  0  0  0  0  0  0  0  0  0  0  0
  189.5560  171.6020  135.0150 O   0  0  0  0  0  0  0  0  0  0  0  0
  187.9140  172.2680  137.2660 O   0  0  0  0  0  0  0  0  0  0  0  0
  187.3750  173.0130  136.4270 C   0  0  0  0  0  0  0  0  0  0  0  0
  188.1640  173.4840  135.2760 N   0  0  0  0  0  2  0  0  0  0  0  0
  184.8860  173.0450  136.1090 C   0  0  2  0  0  3  0  0  0  0  0  0
  184.8800  172.9910  137.5950 C   0  0  0  0  0  2  0  0  0  0  0  0
  184.8030  171.5450  135.9180 C   0  0  0  0  0  1  0  0  0  0  0  0
  186.0300  173.6500  136.9050 C   0  0  1  0  0  0  0  0  0  0  0  0
  187.4080  176.9420  136.0340 C   0  0  0  0  0  1  0  0  0  0  0  0
  186.4330  175.8710  135.9800 C   0  0  0  0  0  0  0  0  0  0  0  0
  185.7480  175.7750  134.9430 O   0  0  0  0  0  0  0  0  0  0  0  0
  186.1230  175.0960  137.1350 N   0  0  0  0  0  2  0  0  0  0  0  0
  187.3040  178.7140  146.1120 C   0  0  0  0  0  2  0  0  0  0  0  0
  185.9500  177.8680  145.8370 C   0  0  0  0  0  0  0  0  0  0  0  0
  185.6510  176.6420  146.0600 O   0  0  0  0  0  0  0  0  0  0  0  0
  184.8220  179.9480  144.5770 S   0  0  0  0  0  0  0  0  0  0  0  0
  183.2040  179.9640  144.1340 C   0  0  0  0  0  3  0  0  0  0  0  0
  184.8130  178.4510  145.2140 C   0  0  0  0  0  0  0  0  0  0  0  0
  183.6510  177.8770  145.0760 N   0  0  0  0  0  0  0  0  0  0  0  0
  182.7510  178.7400  144.4910 N   0  0  0  0  0  0  0  0  0  0  0  0
  184.1400  179.3340  138.8910 C   0  0  0  0  0  2  0  0  0  0  0  0
  182.8920  179.4420  139.6670 C   0  0  0  0  0  2  0  0  0  0  0  0
  182.0860  178.1240  139.6970 C   0  0  0  0  0  2  0  0  0  0  0  0
  181.1590  178.0720  138.4860 C   0  0  0  0  0  0  0  0  0  0  0  0
  181.0850  177.0690  137.7650 O   0  0  0  0  0  0  0  0  0  0  0  0
  179.9430  179.1220  138.3990 C   0  0  0  0  0  2  0  0  0  0  0  0
  180.8170  184.6380  135.3850 C   0  0  0  0  0  2  0  0  0  0  0  0
  180.1280  180.9000  136.1740 C   0  0  2  0  0  0  0  0  0  0  0  0
  181.1130  179.8890  135.5120 C   0  0  0  0  0  2  0  0  0  0  0  0
  180.7870  182.2890  135.9940 C   0  0  2  0  0  3  0  0  0  0  0  0
  180.4980  184.3200  137.9140 C   0  0  0  0  0  2  0  0  0  0  0  0
  179.9710  180.5750  137.6940 C   0  0  2  0  0  3  0  0  0  0  0  0
  180.6980  182.8450  137.4750 C   0  0  1  0  0  3  0  0  0  0  0  0
  180.0990  185.1290  136.6670 C   0  0  0  0  0  2  0  0  0  0  0  0
  179.3820  178.7460  135.4640 O   0  0  0  0  0  1  0  0  0  0  0  0
  179.7340  179.9930  135.0070 C   0  0  1  0  0  3  0  0  0  0  0  0
  179.7190  181.9640  139.6480 O   0  0  0  0  0  1  0  0  0  0  0  0
  180.3660  183.2570  134.8720 C   0  0  0  0  0  2  0  0  0  0  0  0
  180.5750  181.6820  138.5280 C   0  0  1  0  0  3  0  0  0  0  0  0
  2  5  1  0  0  0  0
  3  1  2  0  0  0  0
  4 16  1  1  0  0  0
  4  8  1  0  0  0  0
  5 47  1  6  0  0  0
  5  6  1  0  0  0  0
  6 15  1  0  0  0  0
  7  2  1  6  0  0  0
  7 15  1  0  0  0  0
  8 17  1  1  0  0  0
  8 18  1  0  0  0  0
  9  7  1  0  0  0  0
  9 14  2  0  0  0  0
 10 12  1  0  0  0  0
 11 12  1  6  0  0  0
 11 13  1  0  0  0  0
 11  3  1  0  0  0  0
 13 39  1  1  0  0  0
 13  3  1  0  0  0  0
 14  4  1  0  0  0  0
 15 17  1  6  0  0  0
 16 10  1  0  0  0  0
 18 11  1  0  0  0  0
 18 13  1  0  0  0  0
 19 14  1  0  0  0  0
 20 19  1  0  0  0  0
 21 20  1  0  0  0  0
 22 21  1  0  0  0  0
 23 25  1  0  0  0  0
 24 26  1  0  0  0  0
 24 23  1  0  0  0  0
 24 25  1  0  0  0  0
 25 22  1  0  0  0  0
 26 27  2  0  0  0  0
 26 30  1  0  0  0  0
 29 34  1  0  0  0  0
 29 28  2  0  0  0  0
 30 29  1  0  0  0  0
 31 34  1  0  0  0  0
 31 32  1  0  0  0  0
 33 31  1  0  0  0  0
 34 38  1  0  0  0  0
 34 32  1  0  0  0  0
 36 35  1  0  0  0  0
 36 38  1  0  0  0  0
 37 36  2  0  0  0  0
 40 41  2  0  0  0  0
 40 39  1  0  0  0  0
 42 44  1  0  0  0  0
 43 46  2  0  0  0  0
 43 42  1  0  0  0  0
 44 40  1  0  0  0  0
 45 44  2  0  0  0  0
 46 45  1  0  0  0  0
 47 48  1  0  0  0  0
 48 49  1  0  0  0  0
 50 49  1  0  0  0  0
 51 50  2  0  0  0  0
 52 50  1  0  0  0  0
 53 60  1  0  0  0  0
 54 58  1  0  0  0  0
 55 54  1  0  0  0  0
 56 54  1  0  0  0  0
 56 59  1  0  0  0  0
 58 52  1  0  0  0  0
 58 65  1  0  0  0  0
 59 57  1  0  0  0  0
 59 65  1  0  0  0  0
 60 57  1  0  0  0  0
 62 61  1  0  0  0  0
 62 55  1  0  0  0  0
 62 54  1  0  0  0  0
 64 53  1  0  0  0  0
 64 56  1  0  0  0  0
 65 63  1  0  0  0  0
M  END
>  <MODEL>
5

>  <REMARK>
 VINA RESULT:      -7.4      3.187     10.419
  Name = 
  16 active torsions:
  status: ('A' for Active; 'I' for Inactive)
    1  A    between atoms: N_1  and  C_15
    2  A    between atoms: N_1  and  C_40
    3  A    between atoms: C_3  and  C_34
    4  A    between atoms: C_4  and  C_56
    5  A    between atoms: C_9  and  C_20
    6  A    between atoms: C_9  and  C_46
    7  A    between atoms: C_15  and  C_54
    8  A    between atoms: C_20  and  C_64
    9  A    between atoms: C_21  and  C_25
   10  A    between atoms: C_24  and  C_41
   11  A    between atoms: C_25  and  C_46
   12  A    between atoms: C_28  and  C_60
   13  A    between atoms: C_31  and  C_64
   14  A    between atoms: N_36  and  C_60
   15  A    between atoms: C_41  and  C_50
   16  A    between atoms: C_50  and  C_53
                            x       y       z     vdW  Elec       q    Type
                         _______ _______ _______ _____ _____    ______ ____

>  <TORSDO>
F 16

$$$$
=
 OpenBabel10222415163D

 65 75  0  0  1  0  0  0  0  0999 V2000
  192.0010  177.6240  144.4460 C   0  0  0  0  0  2  0  0  0  0  0  0
  184.6250  178.6930  138.3930 C   0  0  0  0  0  2  0  0  0  0  0  0
  191.1400  177.5810  143.4380 C   0  0  0  0  0  0  0  0  0  0  0  0
  189.1900  177.4620  139.3610 C   0  0  0  0  0  0  0  0  0  0  0  0
  183.9140  178.4260  139.6880 C   0  0  1  0  0  3  0  0  0  0  0  0
  184.8710  178.9600  141.2540 S   0  0  0  0  0  0  0  0  0  0  0  0
  186.2070  178.7770  138.8390 C   0  0  2  0  0  3  0  0  0  0  0  0
  188.6240  177.7850  140.7780 C   0  0  1  0  0  3  0  0  0  0  0  0
  187.2000  178.1450  137.8600 N   0  0  0  0  0  2  0  0  0  0  0  0
  191.8030  177.1300  139.6290 C   0  0  0  0  0  3  0  0  0  0  0  0
  190.9460  177.2320  141.9750 C   0  0  1  0  0  0  0  0  0  0  0  0
  192.1540  177.5010  140.9970 C   0  0  0  0  0  2  0  0  0  0  0  0
  189.6940  177.9620  143.2980 C   0  0  2  0  0  0  0  0  0  0  0  0
  188.4440  177.7290  138.0220 C   0  0  2  0  0  3  0  0  0  0  0  0
  186.4050  178.5290  140.4320 C   0  0  2  0  0  3  0  0  0  0  0  0
  190.4680  177.2240  139.3260 C   0  0  0  0  0  0  0  0  0  0  0  0
  187.1800  177.3270  141.1550 C   0  0  0  0  0  2  0  0  0  0  0  0
  189.7530  178.1830  141.8510 C   0  0  2  0  0  3  0  0  0  0  0  0
  189.1150  177.2200  136.6700 C   0  0  0  0  0  2  0  0  0  0  0  0
  188.5270  176.4480  135.7950 C   0  0  0  0  0  2  0  0  0  0  0  0
  189.4050  176.0630  134.6920 C   0  0  0  0  0  2  0  0  0  0  0  0
  190.8070  176.1020  135.1940 N   0  0  0  0  0  2  0  0  0  0  0  0
  190.9720  174.0550  136.8600 C   0  0  0  0  0  2  0  0  0  0  0  0
  192.2970  174.6090  136.3330 C   0  0  2  0  0  3  0  0  0  0  0  0
  191.1280  174.6370  135.4380 C   0  0  2  0  0  3  0  0  0  0  0  0
  193.2400  173.5510  135.8640 C   0  0  0  0  0  0  0  0  0  0  0  0
  193.1420  173.2980  134.6000 O   0  0  0  0  0  0  0  0  0  0  0  0
  195.9050  173.9670  134.9570 O   0  0  0  0  0  0  0  0  0  0  0  0
  195.7730  173.2250  135.9480 C   0  0  0  0  0  0  0  0  0  0  0  0
  194.4390  173.0690  136.5540 N   0  0  0  0  0  2  0  0  0  0  0  0
  197.4080  171.3730  136.3890 C   0  0  2  0  0  3  0  0  0  0  0  0
  198.4040  172.4120  136.0190 C   0  0  0  0  0  2  0  0  0  0  0  0
  197.2780  170.8060  134.9910 C   0  0  0  0  0  1  0  0  0  0  0  0
  197.1180  172.8420  136.6470 C   0  0  1  0  0  0  0  0  0  0  0  0
  199.0080  174.8710  139.0560 C   0  0  0  0  0  1  0  0  0  0  0  0
  198.0100  174.6420  138.0300 C   0  0  0  0  0  0  0  0  0  0  0  0
  197.7020  175.6100  137.3090 O   0  0  0  0  0  0  0  0  0  0  0  0
  197.2640  173.4290  137.9830 N   0  0  0  0  0  2  0  0  0  0  0  0
  188.8330  178.6210  144.3380 C   0  0  0  0  0  2  0  0  0  0  0  0
  187.6290  177.5980  144.6950 C   0  0  0  0  0  0  0  0  0  0  0  0
  187.5070  176.3340  144.5260 O   0  0  0  0  0  0  0  0  0  0  0  0
  185.1510  178.5780  144.4010 S   0  0  0  0  0  0  0  0  0  0  0  0
  184.1810  178.9830  145.7080 C   0  0  0  0  0  3  0  0  0  0  0  0
  186.4120  178.0440  145.2790 C   0  0  0  0  0  0  0  0  0  0  0  0
  186.1570  178.0800  146.5570 N   0  0  0  0  0  0  0  0  0  0  0  0
  184.9150  178.6280  146.7880 N   0  0  0  0  0  0  0  0  0  0  0  0
  182.5610  179.2380  139.5610 C   0  0  0  0  0  2  0  0  0  0  0  0
  182.2850  179.4810  138.1340 C   0  0  0  0  0  2  0  0  0  0  0  0
  180.7950  179.2950  137.7690 C   0  0  0  0  0  2  0  0  0  0  0  0
  180.6870  178.8180  136.3230 C   0  0  0  0  0  0  0  0  0  0  0  0
  181.0330  179.5320  135.3740 O   0  0  0  0  0  0  0  0  0  0  0  0
  180.5660  177.2400  136.0380 C   0  0  0  0  0  2  0  0  0  0  0  0
  185.2990  173.1530  137.1250 C   0  0  0  0  0  2  0  0  0  0  0  0
  181.8050  174.8370  136.9540 C   0  0  2  0  0  0  0  0  0  0  0  0
  181.1070  175.0600  138.3300 C   0  0  0  0  0  2  0  0  0  0  0  0
  183.2710  174.4760  137.2930 C   0  0  2  0  0  3  0  0  0  0  0  0
  185.4010  175.2370  135.6270 C   0  0  0  0  0  2  0  0  0  0  0  0
  181.7570  176.1510  136.1110 C   0  0  2  0  0  3  0  0  0  0  0  0
  184.0430  175.4770  136.3370 C   0  0  1  0  0  3  0  0  0  0  0  0
  185.7430  173.7430  135.7630 C   0  0  0  0  0  2  0  0  0  0  0  0
  179.4310  174.6880  137.1650 O   0  0  0  0  0  1  0  0  0  0  0  0
  180.6020  174.0160  137.4240 C   0  0  1  0  0  3  0  0  0  0  0  0
  183.3230  177.1820  134.5960 O   0  0  0  0  0  1  0  0  0  0  0  0
  183.7740  173.0210  137.3130 C   0  0  0  0  0  2  0  0  0  0  0  0
  183.1510  176.7120  135.9440 C   0  0  1  0  0  3  0  0  0  0  0  0
  2  5  1  0  0  0  0
  3  1  2  0  0  0  0
  4  8  1  0  0  0  0
  5 47  1  6  0  0  0
  5  6  1  0  0  0  0
  7  2  1  6  0  0  0
  7 15  1  0  0  0  0
  8 17  1  1  0  0  0
  8 18  1  0  0  0  0
  9 14  1  0  0  0  0
  9  7  1  0  0  0  0
 10 12  1  0  0  0  0
 11 12  1  6  0  0  0
 11 13  1  0  0  0  0
 11  3  1  0  0  0  0
 13  3  1  0  0  0  0
 13 39  1  1  0  0  0
 14 19  1  6  0  0  0
 14  4  1  0  0  0  0
 15 17  1  6  0  0  0
 15  6  1  0  0  0  0
 16  4  2  0  0  0  0
 16 10  2  0  0  0  0
 18 11  1  0  0  0  0
 18 13  1  0  0  0  0
 20 19  1  0  0  0  0
 21 22  1  0  0  0  0
 21 20  1  0  0  0  0
 22 25  1  0  0  0  0
 24 23  1  0  0  0  0
 25 24  1  0  0  0  0
 25 23  1  0  0  0  0
 26 24  1  0  0  0  0
 26 30  1  0  0  0  0
 27 26  2  0  0  0  0
 28 29  2  0  0  0  0
 29 30  1  0  0  0  0
 29 34  1  0  0  0  0
 31 34  1  0  0  0  0
 32 31  1  0  0  0  0
 32 34  1  0  0  0  0
 33 31  1  0  0  0  0
 34 38  1  0  0  0  0
 36 35  1  0  0  0  0
 37 36  2  0  0  0  0
 38 36  1  0  0  0  0
 39 40  1  0  0  0  0
 40 44  1  0  0  0  0
 41 40  2  0  0  0  0
 42 44  1  0  0  0  0
 42 43  1  0  0  0  0
 43 46  2  0  0  0  0
 44 45  2  0  0  0  0
 45 46  1  0  0  0  0
 48 47  1  0  0  0  0
 49 48  1  0  0  0  0
 50 49  1  0  0  0  0
 51 50  2  0  0  0  0
 52 58  1  0  0  0  0
 52 50  1  0  0  0  0
 53 64  1  0  0  0  0
 54 56  1  0  0  0  0
 54 62  1  0  0  0  0
 54 55  1  0  0  0  0
 56 64  1  0  0  0  0
 57 60  1  0  0  0  0
 57 59  1  0  0  0  0
 58 54  1  0  0  0  0
 59 56  1  0  0  0  0
 60 53  1  0  0  0  0
 61 62  1  0  0  0  0
 62 55  1  0  0  0  0
 63 65  1  0  0  0  0
 65 58  1  0  0  0  0
 65 59  1  0  0  0  0
M  END
>  <MODEL>
6

>  <REMARK>
 VINA RESULT:      -7.0      3.450     10.778
  Name = 
  16 active torsions:
  status: ('A' for Active; 'I' for Inactive)
    1  A    between atoms: N_1  and  C_15
    2  A    between atoms: N_1  and  C_40
    3  A    between atoms: C_3  and  C_34
    4  A    between atoms: C_4  and  C_56
    5  A    between atoms: C_9  and  C_20
    6  A    between atoms: C_9  and  C_46
    7  A    between atoms: C_15  and  C_54
    8  A    between atoms: C_20  and  C_64
    9  A    between atoms: C_21  and  C_25
   10  A    between atoms: C_24  and  C_41
   11  A    between atoms: C_25  and  C_46
   12  A    between atoms: C_28  and  C_60
   13  A    between atoms: C_31  and  C_64
   14  A    between atoms: N_36  and  C_60
   15  A    between atoms: C_41  and  C_50
   16  A    between atoms: C_50  and  C_53
                            x       y       z     vdW  Elec       q    Type
                         _______ _______ _______ _____ _____    ______ ____

>  <TORSDO>
F 16

$$$$
=
 OpenBabel10222415163D

 65 75  0  0  1  0  0  0  0  0999 V2000
  192.5320  177.3580  144.7310 C   0  0  0  0  0  2  0  0  0  0  0  0
  183.7260  178.8780  141.2170 C   0  0  0  0  0  2  0  0  0  0  0  0
  191.4150  177.3990  144.0160 C   0  0  0  0  0  0  0  0  0  0  0  0
  188.3650  177.6550  140.6890 C   0  0  0  0  0  0  0  0  0  0  0  0
  183.4190  178.4650  142.6280 C   0  0  1  0  0  3  0  0  0  0  0  0
  184.7940  178.8580  143.8960 S   0  0  0  0  0  0  0  0  0  0  0  0
  185.3700  178.9500  141.1920 C   0  0  2  0  0  3  0  0  0  0  0  0
  188.2370  177.8180  142.2350 C   0  0  1  0  0  3  0  0  0  0  0  0
  186.0310  178.4440  139.9080 N   0  0  0  0  0  0  0  0  0  0  0  0
  190.9400  177.3540  140.1530 C   0  0  0  0  0  3  0  0  0  0  0  0
  190.8010  177.1980  142.6440 C   0  0  1  0  0  0  0  0  0  0  0  0
  191.6760  177.5900  141.3920 C   0  0  0  0  0  2  0  0  0  0  0  0
  189.9940  177.7610  144.3410 C   0  0  2  0  0  0  0  0  0  0  0  0
  187.2640  178.0400  139.6590 C   0  0  0  0  0  0  0  0  0  0  0  0
  186.0190  178.5460  142.6250 C   0  0  2  0  0  3  0  0  0  0  0  0
  189.5760  177.4490  140.2610 C   0  0  0  0  0  0  0  0  0  0  0  0
  186.9610  177.2930  142.9640 C   0  0  0  0  0  2  0  0  0  0  0  0
  189.6320  178.1300  142.9700 C   0  0  2  0  0  3  0  0  0  0  0  0
  187.5100  177.6860  138.1260 C   0  0  0  0  0  2  0  0  0  0  0  0
  187.1450  176.5690  137.5550 C   0  0  0  0  0  2  0  0  0  0  0  0
  187.5740  176.4720  136.1610 C   0  0  0  0  0  2  0  0  0  0  0  0
  187.6110  175.0280  135.7980 N   0  0  0  0  0  2  0  0  0  0  0  0
  189.4250  173.4990  134.6290 C   0  0  0  0  0  2  0  0  0  0  0  0
  189.8700  174.2310  135.8960 C   0  0  2  0  0  3  0  0  0  0  0  0
  188.9040  174.9020  135.0100 C   0  0  2  0  0  3  0  0  0  0  0  0
  191.1970  174.9010  135.7600 C   0  0  0  0  0  0  0  0  0  0  0  0
  191.2240  176.0950  136.2550 O   0  0  0  0  0  0  0  0  0  0  0  0
  193.3510  174.7380  137.6130 O   0  0  0  0  0  0  0  0  0  0  0  0
  193.5870  174.3300  136.4600 C   0  0  0  0  0  0  0  0  0  0  0  0
  192.4850  174.2610  135.4860 N   0  0  0  0  0  2  0  0  0  0  0  0
  194.7050  172.1770  135.8180 C   0  0  2  0  0  3  0  0  0  0  0  0
  195.6090  173.0850  135.0640 C   0  0  0  0  0  2  0  0  0  0  0  0
  193.7620  171.9310  134.6590 C   0  0  0  0  0  1  0  0  0  0  0  0
  194.9570  173.5930  136.3090 C   0  0  1  0  0  0  0  0  0  0  0  0
  198.3570  174.2690  137.5250 C   0  0  0  0  0  1  0  0  0  0  0  0
  197.0360  174.6310  137.0510 C   0  0  0  0  0  0  0  0  0  0  0  0
  196.9190  175.7300  136.4750 O   0  0  0  0  0  0  0  0  0  0  0  0
  195.8880  173.8680  137.4090 N   0  0  0  0  0  2  0  0  0  0  0  0
  189.4770  178.2920  145.6480 C   0  0  0  0  0  2  0  0  0  0  0  0
  189.5870  177.0990  146.7380 C   0  0  0  0  0  0  0  0  0  0  0  0
  188.6960  176.3560  147.2800 O   0  0  0  0  0  0  0  0  0  0  0  0
  191.5360  175.2780  147.0130 S   0  0  0  0  0  0  0  0  0  0  0  0
  192.8420  175.5050  148.0400 C   0  0  0  0  0  3  0  0  0  0  0  0
  190.8310  176.7150  147.3080 C   0  0  0  0  0  0  0  0  0  0  0  0
  191.5480  177.4440  148.1170 N   0  0  0  0  0  0  0  0  0  0  0  0
  192.6590  176.7490  148.5390 N   0  0  0  0  0  0  0  0  0  0  0  0
  182.0950  179.2560  142.9840 C   0  0  0  0  0  2  0  0  0  0  0  0
  180.9460  178.5520  142.3870 C   0  0  0  0  0  2  0  0  0  0  0  0
  179.9320  179.5100  141.7210 C   0  0  0  0  0  2  0  0  0  0  0  0
  179.7870  179.1440  140.2470 C   0  0  0  0  0  0  0  0  0  0  0  0
  178.9450  179.6880  139.5210 O   0  0  0  0  0  0  0  0  0  0  0  0
  181.0100  178.4010  139.5120 C   0  0  0  0  0  2  0  0  0  0  0  0
  180.8700  172.7330  136.6600 C   0  0  0  0  0  2  0  0  0  0  0  0
  181.9360  176.2690  137.8560 C   0  0  2  0  0  0  0  0  0  0  0  0
  182.1610  177.3150  136.7220 C   0  0  0  0  0  2  0  0  0  0  0  0
  181.2160  175.0790  137.1780 C   0  0  2  0  0  3  0  0  0  0  0  0
  179.3220  173.5240  138.5510 C   0  0  0  0  0  2  0  0  0  0  0  0
  181.0290  176.8790  138.9720 C   0  0  2  0  0  3  0  0  0  0  0  0
  180.0070  174.8650  138.1780 C   0  0  1  0  0  3  0  0  0  0  0  0
  180.2040  172.3830  138.0140 C   0  0  0  0  0  2  0  0  0  0  0  0
  183.6100  177.9600  138.0590 O   0  0  0  0  0  1  0  0  0  0  0  0
  183.3220  176.7660  137.4410 C   0  0  1  0  0  3  0  0  0  0  0  0
  179.2990  175.9460  140.3670 O   0  0  0  0  0  1  0  0  0  0  0  0
  181.9690  173.8110  136.7320 C   0  0  0  0  0  2  0  0  0  0  0  0
  179.6950  176.1690  139.0030 C   0  0  1  0  0  3  0  0  0  0  0  0
  2  5  1  0  0  0  0
  3 13  1  0  0  0  0
  3  1  2  0  0  0  0
  4  8  1  0  0  0  0
  5 47  1  1  0  0  0
  5  6  1  0  0  0  0
  7  2  1  1  0  0  0
  7 15  1  0  0  0  0
  8 17  1  1  0  0  0
  8 18  1  0  0  0  0
  9  7  1  0  0  0  0
 10 16  2  0  0  0  0
 10 12  1  0  0  0  0
 11 12  1  6  0  0  0
 11 18  1  0  0  0  0
 11  3  1  0  0  0  0
 11 13  1  0  0  0  0
 13 39  1  1  0  0  0
 14  9  2  0  0  0  0
 14  4  1  0  0  0  0
 15 17  1  6  0  0  0
 15  6  1  0  0  0  0
 16  4  2  0  0  0  0
 18 13  1  0  0  0  0
 19 14  1  0  0  0  0
 20 19  1  0  0  0  0
 21 20  1  0  0  0  0
 22 21  1  0  0  0  0
 23 25  1  0  0  0  0
 23 24  1  0  0  0  0
 25 22  1  0  0  0  0
 25 24  1  0  0  0  0
 26 24  1  0  0  0  0
 26 27  2  0  0  0  0
 29 28  2  0  0  0  0
 30 26  1  0  0  0  0
 30 29  1  0  0  0  0
 31 34  1  0  0  0  0
 32 31  1  0  0  0  0
 32 34  1  0  0  0  0
 33 31  1  0  0  0  0
 34 29  1  0  0  0  0
 34 38  1  0  0  0  0
 36 38  1  0  0  0  0
 36 35  1  0  0  0  0
 37 36  2  0  0  0  0
 39 40  1  0  0  0  0
 40 41  2  0  0  0  0
 40 44  1  0  0  0  0
 42 44  1  0  0  0  0
 42 43  1  0  0  0  0
 43 46  2  0  0  0  0
 44 45  2  0  0  0  0
 45 46  1  0  0  0  0
 48 47  1  0  0  0  0
 49 48  1  0  0  0  0
 50 49  1  0  0  0  0
 51 50  2  0  0  0  0
 52 50  1  0  0  0  0
 53 64  1  0  0  0  0
 53 60  1  0  0  0  0
 54 58  1  0  0  0  0
 55 62  1  0  0  0  0
 55 54  1  0  0  0  0
 56 54  1  0  0  0  0
 56 59  1  0  0  0  0
 58 65  1  0  0  0  0
 58 52  1  0  0  0  0
 59 57  1  0  0  0  0
 59 65  1  0  0  0  0
 60 57  1  0  0  0  0
 62 54  1  0  0  0  0
 62 61  1  0  0  0  0
 64 56  1  0  0  0  0
 65 63  1  0  0  0  0
M  END
>  <MODEL>
7

>  <REMARK>
 VINA RESULT:      -6.3      2.783     10.484
  Name = 
  16 active torsions:
  status: ('A' for Active; 'I' for Inactive)
    1  A    between atoms: N_1  and  C_15
    2  A    between atoms: N_1  and  C_40
    3  A    between atoms: C_3  and  C_34
    4  A    between atoms: C_4  and  C_56
    5  A    between atoms: C_9  and  C_20
    6  A    between atoms: C_9  and  C_46
    7  A    between atoms: C_15  and  C_54
    8  A    between atoms: C_20  and  C_64
    9  A    between atoms: C_21  and  C_25
   10  A    between atoms: C_24  and  C_41
   11  A    between atoms: C_25  and  C_46
   12  A    between atoms: C_28  and  C_60
   13  A    between atoms: C_31  and  C_64
   14  A    between atoms: N_36  and  C_60
   15  A    between atoms: C_41  and  C_50
   16  A    between atoms: C_50  and  C_53
                            x       y       z     vdW  Elec       q    Type
                         _______ _______ _______ _____ _____    ______ ____

>  <TORSDO>
F 16

$$$$
=
 OpenBabel10222415163D

 65 75  0  0  1  0  0  0  0  0999 V2000
  190.2230  177.3930  147.6300 C   0  0  0  0  0  2  0  0  0  0  0  0
  186.3090  178.3960  138.9200 C   0  0  0  0  0  2  0  0  0  0  0  0
  189.8740  177.3100  146.3530 C   0  0  0  0  0  0  0  0  0  0  0  0
  189.8430  176.9070  141.8510 C   0  0  0  0  0  0  0  0  0  0  0  0
  185.0880  178.3310  139.7920 C   0  0  1  0  0  3  0  0  0  0  0  0
  185.3470  178.9540  141.5810 S   0  0  0  0  0  0  0  0  0  0  0  0
  187.5490  178.3970  140.0030 C   0  0  2  0  0  3  0  0  0  0  0  0
  188.7720  177.4280  142.8580 C   0  0  1  0  0  3  0  0  0  0  0  0
  188.7790  177.5830  139.5940 N   0  0  0  0  0  2  0  0  0  0  0  0
  192.0320  176.3920  143.2460 C   0  0  0  0  0  3  0  0  0  0  0  0
  190.2790  176.8210  144.9760 C   0  0  1  0  0  0  0  0  0  0  0  0
  191.8110  176.8800  144.6050 C   0  0  0  0  0  2  0  0  0  0  0  0
  188.6830  177.7920  145.5750 C   0  0  2  0  0  0  0  0  0  0  0  0
  189.7740  177.0860  140.3060 C   0  0  0  0  0  0  0  0  0  0  0  0
  187.0190  178.3100  141.5360 C   0  0  2  0  0  3  0  0  0  0  0  0
  190.9750  176.5610  142.3890 C   0  0  0  0  0  0  0  0  0  0  0  0
  187.2610  177.1350  142.5980 C   0  0  0  0  0  2  0  0  0  0  0  0
  189.3780  177.8470  144.2860 C   0  0  2  0  0  3  0  0  0  0  0  0
  190.8890  176.3780  139.4150 C   0  0  0  0  0  3  0  0  0  0  0  0
  190.8810  176.3390  138.1090 C   0  0  0  0  0  2  0  0  0  0  0  0
  191.9760  175.5480  137.5540 C   0  0  0  0  0  2  0  0  0  0  0  0
  191.6200  175.2040  136.1490 N   0  0  0  0  0  2  0  0  0  0  0  0
  192.1250  172.6190  135.9100 C   0  0  0  0  0  2  0  0  0  0  0  0
  191.1580  173.2190  134.8870 C   0  0  2  0  0  3  0  0  0  0  0  0
  191.1470  173.7640  136.2550 C   0  0  2  0  0  3  0  0  0  0  0  0
  189.9270  172.4010  134.6820 C   0  0  0  0  0  0  0  0  0  0  0  0
  190.0960  171.1440  134.9340 O   0  0  0  0  0  0  0  0  0  0  0  0
  187.9100  171.8970  136.6260 O   0  0  0  0  0  0  0  0  0  0  0  0
  187.5380  172.4760  135.5890 C   0  0  0  0  0  0  0  0  0  0  0  0
  188.5480  172.8870  134.5980 N   0  0  0  0  0  2  0  0  0  0  0  0
  185.1250  171.9420  135.1550 C   0  0  2  0  0  3  0  0  0  0  0  0
  184.9390  172.5510  136.4990 C   0  0  0  0  0  2  0  0  0  0  0  0
  185.2570  170.5230  135.6680 C   0  0  0  0  0  1  0  0  0  0  0  0
  186.0750  173.0210  135.6480 C   0  0  1  0  0  0  0  0  0  0  0  0
  184.5630  176.3570  135.9350 C   0  0  0  0  0  1  0  0  0  0  0  0
  185.5620  175.3410  136.2000 C   0  0  0  0  0  0  0  0  0  0  0  0
  186.1930  175.4280  137.2720 O   0  0  0  0  0  0  0  0  0  0  0  0
  185.9550  174.4110  135.1950 N   0  0  0  0  0  2  0  0  0  0  0  0
  187.5490  178.6300  146.0940 C   0  0  0  0  0  2  0  0  0  0  0  0
  186.1690  177.9590  145.5750 C   0  0  0  0  0  0  0  0  0  0  0  0
  185.8020  176.7360  145.4730 O   0  0  0  0  0  0  0  0  0  0  0  0
  183.5670  178.1830  144.9690 S   0  0  0  0  0  0  0  0  0  0  0  0
  182.9210  179.5630  144.2680 C   0  0  0  0  0  3  0  0  0  0  0  0
  185.0900  178.7430  145.0840 C   0  0  0  0  0  0  0  0  0  0  0  0
  185.1790  179.9790  144.6760 N   0  0  0  0  0  0  0  0  0  0  0  0
  183.9650  180.4200  144.2000 N   0  0  0  0  0  0  0  0  0  0  0  0
  184.0270  179.2340  139.0400 C   0  0  0  0  0  2  0  0  0  0  0  0
  183.1480  178.3650  138.2370 C   0  0  0  0  0  2  0  0  0  0  0  0
  182.3030  179.1480  137.2080 C   0  0  0  0  0  2  0  0  0  0  0  0
  181.1960  178.2440  136.6730 C   0  0  0  0  0  0  0  0  0  0  0  0
  181.4260  177.3530  135.8450 O   0  0  0  0  0  0  0  0  0  0  0  0
  179.8250  178.1270  137.5060 C   0  0  0  0  0  2  0  0  0  0  0  0
  179.6420  180.1990  143.5020 C   0  0  0  0  0  2  0  0  0  0  0  0
  179.5070  180.0100  139.6260 C   0  0  2  0  0  0  0  0  0  0  0  0
  180.5080  180.9440  138.8800 C   0  0  0  0  0  2  0  0  0  0  0  0
  179.9680  180.0140  141.1040 C   0  0  2  0  0  3  0  0  0  0  0  0
  179.6970  177.7460  142.7400 C   0  0  0  0  0  2  0  0  0  0  0  0
  179.5900  178.5630  139.0430 C   0  0  2  0  0  3  0  0  0  0  0  0
  180.0100  178.4580  141.3970 C   0  0  1  0  0  3  0  0  0  0  0  0
  179.0460  178.7800  143.6760 C   0  0  0  0  0  2  0  0  0  0  0  0
  178.9320  181.0030  137.5320 O   0  0  0  0  0  1  0  0  0  0  0  0
  179.0720  181.2690  138.8730 C   0  0  1  0  0  3  0  0  0  0  0  0
  179.4340  176.3800  140.0520 O   0  0  0  0  0  1  0  0  0  0  0  0
  179.2930  180.8950  142.1710 C   0  0  0  0  0  2  0  0  0  0  0  0
  180.1640  177.6190  140.0740 C   0  0  1  0  0  3  0  0  0  0  0  0
  2  5  1  0  0  0  0
  3  1  2  0  0  0  0
  4 16  2  0  0  0  0
  4  8  1  0  0  0  0
  5 47  1  6  0  0  0
  5  6  1  0  0  0  0
  7  2  1  6  0  0  0
  7 15  1  0  0  0  0
  8 17  1  1  0  0  0
  8 18  1  0  0  0  0
  9  7  1  0  0  0  0
  9 14  1  0  0  0  0
 10 12  1  0  0  0  0
 11 12  1  6  0  0  0
 11 13  1  0  0  0  0
 11  3  1  0  0  0  0
 13 39  1  1  0  0  0
 13  3  1  0  0  0  0
 14  4  1  0  0  0  0
 15  6  1  0  0  0  0
 15 17  1  6  0  0  0
 16 10  2  0  0  0  0
 18 11  1  0  0  0  0
 18 13  1  0  0  0  0
 19 14  2  0  0  0  0
 20 19  1  0  0  0  0
 21 20  1  0  0  0  0
 22 25  1  0  0  0  0
 22 21  1  0  0  0  0
 23 25  1  0  0  0  0
 24 23  1  0  0  0  0
 24 25  1  0  0  0  0
 26 24  1  0  0  0  0
 26 27  2  0  0  0  0
 29 34  1  0  0  0  0
 29 28  2  0  0  0  0
 30 26  1  0  0  0  0
 30 29  1  0  0  0  0
 31 34  1  0  0  0  0
 31 33  1  0  0  0  0
 31 32  1  0  0  0  0
 34 32  1  0  0  0  0
 35 36  1  0  0  0  0
 36 37  2  0  0  0  0
 38 34  1  0  0  0  0
 38 36  1  0  0  0  0
 40 39  1  0  0  0  0
 41 40  2  0  0  0  0
 42 44  1  0  0  0  0
 43 42  1  0  0  0  0
 44 40  1  0  0  0  0
 45 44  2  0  0  0  0
 46 43  2  0  0  0  0
 46 45  1  0  0  0  0
 48 47  1  0  0  0  0
 49 48  1  0  0  0  0
 50 49  1  0  0  0  0
 50 52  1  0  0  0  0
 51 50  2  0  0  0  0
 52 58  1  0  0  0  0
 53 60  1  0  0  0  0
 54 56  1  0  0  0  0
 55 54  1  0  0  0  0
 56 59  1  0  0  0  0
 56 64  1  0  0  0  0
 57 60  1  0  0  0  0
 58 54  1  0  0  0  0
 58 65  1  0  0  0  0
 59 57  1  0  0  0  0
 61 62  1  0  0  0  0
 62 55  1  0  0  0  0
 62 54  1  0  0  0  0
 63 65  1  0  0  0  0
 64 53  1  0  0  0  0
 65 59  1  0  0  0  0
M  END
>  <MODEL>
8

>  <REMARK>
 VINA RESULT:      -6.1      3.282     10.222
  Name = 
  16 active torsions:
  status: ('A' for Active; 'I' for Inactive)
    1  A    between atoms: N_1  and  C_15
    2  A    between atoms: N_1  and  C_40
    3  A    between atoms: C_3  and  C_34
    4  A    between atoms: C_4  and  C_56
    5  A    between atoms: C_9  and  C_20
    6  A    between atoms: C_9  and  C_46
    7  A    between atoms: C_15  and  C_54
    8  A    between atoms: C_20  and  C_64
    9  A    between atoms: C_21  and  C_25
   10  A    between atoms: C_24  and  C_41
   11  A    between atoms: C_25  and  C_46
   12  A    between atoms: C_28  and  C_60
   13  A    between atoms: C_31  and  C_64
   14  A    between atoms: N_36  and  C_60
   15  A    between atoms: C_41  and  C_50
   16  A    between atoms: C_50  and  C_53
                            x       y       z     vdW  Elec       q    Type
                         _______ _______ _______ _____ _____    ______ ____

>  <TORSDO>
F 16

$$$$
