=
 OpenBabel10222415533D

 29 34  0  0  1  0  0  0  0  0999 V2000
  187.4600  174.4740  135.8800 C   0  0  1  0  0  3  0  0  0  0  0  0
  191.3230  175.7740  138.2710 C   0  0  0  0  0  2  0  0  0  0  0  0
  188.5260  176.6170  135.5900 O   0  0  0  0  0  0  0  0  0  0  0  0
  192.3280  177.3880  139.8710 C   0  0  0  0  0  3  0  0  0  0  0  0
  185.5810  176.9290  136.2280 C   0  0  0  0  0  2  0  0  0  0  0  0
  187.8770  176.3940  143.8170 N   0  0  0  0  0  0  0  0  0  0  0  0
  188.8390  176.0090  142.9290 C   0  0  0  0  0  3  0  0  0  0  0  0
  189.7720  177.8380  139.8180 C   0  0  1  0  0  0  0  0  0  0  0  0
  184.0780  173.6020  135.6190 C   0  0  0  0  0  1  0  0  0  0  0  0
  187.1320  177.5260  143.6310 C   0  0  0  0  0  0  0  0  0  0  0  0
  186.1390  177.8860  144.5840 N   0  0  0  0  0  1  0  0  0  0  0  0
  192.4650  176.5400  138.8430 C   0  0  0  0  0  3  0  0  0  0  0  0
  185.0750  175.7130  135.4470 C   0  0  0  0  0  2  0  0  0  0  0  0
  187.3420  178.3360  142.5030 C   0  0  0  0  0  3  0  0  0  0  0  0
  187.8860  175.8000  136.5290 C   0  0  1  0  0  3  0  0  0  0  0  0
  188.5250  173.5750  135.9070 O   0  0  0  0  0  1  0  0  0  0  0  0
  186.7360  176.6010  137.1830 C   0  0  1  0  0  3  0  0  0  0  0  0
  188.7190  178.5730  140.4530 O   0  0  0  0  0  0  0  0  0  0  0  0
  188.3270  177.9310  141.6060 C   0  0  0  0  0  0  0  0  0  0  0  0
  188.5490  178.2700  137.6610 N   0  0  0  0  0  2  0  0  0  0  0  0
  189.0630  176.8020  141.8070 C   0  0  0  0  0  0  0  0  0  0  0  0
  191.0640  177.7280  140.6340 C   0  0  1  0  0  3  0  0  0  0  0  0
  190.2430  176.5080  135.8070 S   0  0  0  0  0  0  0  0  0  0  0  0
  186.2240  173.8310  136.5380 C   0  0  0  0  0  2  0  0  0  0  0  0
  190.0330  176.5910  140.6930 C   0  0  2  0  0  3  0  0  0  0  0  0
  189.6240  177.5930  138.3170 C   0  0  0  0  0  0  0  0  0  0  0  0
  187.1680  177.8770  137.9330 C   0  0  0  0  0  2  0  0  0  0  0  0
  184.9460  174.5380  136.3110 N   0  0  0  0  0  0  0  0  0  0  0  0
  190.3580  176.6990  137.6110 C   0  0  0  0  0  0  0  0  0  0  0  0
  1 16  1  1  0  0  0
  1 15  1  0  0  0  0
  1 24  1  0  0  0  0
  2 12  1  0  0  0  0
  3 23  1  0  0  0  0
  7  6  2  0  0  0  0
  8 26  1  6  0  0  0
  8 18  1  0  0  0  0
  8 22  1  0  0  0  0
  8 25  1  0  0  0  0
  9 28  1  0  0  0  0
 10  6  1  0  0  0  0
 10 11  1  0  0  0  0
 12  4  2  0  0  0  0
 13  5  1  0  0  0  0
 13 28  1  0  0  0  0
 14 10  2  0  0  0  0
 15  3  1  6  0  0  0
 15 17  1  0  0  0  0
 17  5  1  6  0  0  0
 17 27  1  0  0  0  0
 18 19  1  0  0  0  0
 19 21  2  0  0  0  0
 19 14  1  0  0  0  0
 20 27  1  0  0  0  0
 20 26  1  0  0  0  0
 21  7  1  0  0  0  0
 22  4  1  6  0  0  0
 22 25  1  0  0  0  0
 23 29  1  0  0  0  0
 25 21  1  1  0  0  0
 28 24  1  0  0  0  0
 29  2  1  0  0  0  0
 29 26  2  0  0  0  0
M  END
>  <MODEL>
1

>  <REMARK>
 VINA RESULT:      -7.5      0.000      0.000
  Name = 
  0 active torsions:
  status: ('A' for Active; 'I' for Inactive)
                            x       y       z     vdW  Elec       q    Type
                         _______ _______ _______ _____ _____    ______ ____

>  <TORSDO>
F 0

$$$$
=
 OpenBabel10222415533D

 29 34  0  0  1  0  0  0  0  0999 V2000
  185.6980  174.8160  136.4290 C   0  0  1  0  0  3  0  0  0  0  0  0
  189.9370  175.8720  138.2300 C   0  0  0  0  0  2  0  0  0  0  0  0
  186.8460  176.8850  135.9620 O   0  0  0  0  0  0  0  0  0  0  0  0
  191.2600  177.4240  139.6510 C   0  0  0  0  0  3  0  0  0  0  0  0
  184.0480  177.3890  137.0080 C   0  0  0  0  0  2  0  0  0  0  0  0
  187.3620  176.7350  144.2010 N   0  0  0  0  0  0  0  0  0  0  0  0
  188.1610  176.2850  143.1900 C   0  0  0  0  0  3  0  0  0  0  0  0
  188.7560  178.0380  139.9550 C   0  0  1  0  0  0  0  0  0  0  0  0
  182.2650  174.1640  136.6610 C   0  0  0  0  0  1  0  0  0  0  0  0
  186.6720  177.9120  144.1080 C   0  0  0  0  0  0  0  0  0  0  0  0
  185.8490  178.3400  145.1870 N   0  0  0  0  0  1  0  0  0  0  0  0
  191.1950  176.5650  138.6250 C   0  0  0  0  0  3  0  0  0  0  0  0
  183.3600  176.2060  136.3220 C   0  0  0  0  0  2  0  0  0  0  0  0
  186.7700  178.7030  142.9510 C   0  0  0  0  0  3  0  0  0  0  0  0
  186.2960  176.1150  136.9930 C   0  0  1  0  0  3  0  0  0  0  0  0
  186.6960  173.8510  136.3160 O   0  0  0  0  0  1  0  0  0  0  0  0
  185.3040  176.9910  137.7930 C   0  0  1  0  0  3  0  0  0  0  0  0
  187.8540  178.8430  140.7240 O   0  0  0  0  0  0  0  0  0  0  0  0
  187.5890  178.2310  141.9290 C   0  0  0  0  0  0  0  0  0  0  0  0
  187.2690  178.5400  137.9880 N   0  0  0  0  0  2  0  0  0  0  0  0
  188.2730  177.0570  142.0380 C   0  0  0  0  0  0  0  0  0  0  0  0
  190.1410  177.8480  140.5810 C   0  0  1  0  0  3  0  0  0  0  0  0
  188.5660  176.6660  135.9350 S   0  0  0  0  0  0  0  0  0  0  0  0
  184.5290  174.2570  137.2630 C   0  0  0  0  0  2  0  0  0  0  0  0
  189.0590  176.7810  140.8000 C   0  0  2  0  0  3  0  0  0  0  0  0
  188.3810  177.7980  138.4940 C   0  0  0  0  0  0  0  0  0  0  0  0
  185.9190  178.2390  138.4580 C   0  0  0  0  0  2  0  0  0  0  0  0
  183.2800  175.0450  137.2110 N   0  0  0  0  0  0  0  0  0  0  0  0
  188.9480  176.8560  137.7020 C   0  0  0  0  0  0  0  0  0  0  0  0
  1 16  1  1  0  0  0
  1 15  1  0  0  0  0
  1 24  1  0  0  0  0
  2 12  1  0  0  0  0
  7  6  2  0  0  0  0
  8 26  1  6  0  0  0
  8 22  1  0  0  0  0
  8 18  1  0  0  0  0
  8 25  1  0  0  0  0
  9 28  1  0  0  0  0
 10  6  1  0  0  0  0
 10 11  1  0  0  0  0
 12  4  2  0  0  0  0
 13  5  1  0  0  0  0
 13 28  1  0  0  0  0
 14 10  2  0  0  0  0
 15  3  1  6  0  0  0
 15 17  1  0  0  0  0
 17  5  1  6  0  0  0
 17 27  1  0  0  0  0
 18 19  1  0  0  0  0
 19 21  2  0  0  0  0
 19 14  1  0  0  0  0
 20 27  1  0  0  0  0
 20 26  1  0  0  0  0
 21  7  1  0  0  0  0
 22  4  1  6  0  0  0
 22 25  1  0  0  0  0
 23  3  1  0  0  0  0
 23 29  1  0  0  0  0
 25 21  1  1  0  0  0
 28 24  1  0  0  0  0
 29  2  1  0  0  0  0
 29 26  2  0  0  0  0
M  END
>  <MODEL>
2

>  <REMARK>
 VINA RESULT:      -7.0      1.320      1.417
  Name = 
  0 active torsions:
  status: ('A' for Active; 'I' for Inactive)
                            x       y       z     vdW  Elec       q    Type
                         _______ _______ _______ _____ _____    ______ ____

>  <TORSDO>
F 0

$$$$
=
 OpenBabel10222415533D

 29 34  0  0  1  0  0  0  0  0999 V2000
  183.1440  175.6720  138.0120 C   0  0  1  0  0  3  0  0  0  0  0  0
  187.5530  177.1050  138.9300 C   0  0  0  0  0  2  0  0  0  0  0  0
  183.9420  177.8870  137.4900 O   0  0  0  0  0  0  0  0  0  0  0  0
  189.0010  178.7090  140.1580 C   0  0  0  0  0  3  0  0  0  0  0  0
  181.4180  177.9900  139.1620 C   0  0  0  0  0  2  0  0  0  0  0  0
  186.3260  177.2790  145.3710 N   0  0  0  0  0  0  0  0  0  0  0  0
  186.9170  176.9910  144.1740 C   0  0  0  0  0  3  0  0  0  0  0  0
  186.5820  179.0030  141.0540 C   0  0  1  0  0  0  0  0  0  0  0  0
  179.9380  174.6060  138.9320 C   0  0  0  0  0  1  0  0  0  0  0  0
  185.5180  178.3700  145.5350 C   0  0  0  0  0  0  0  0  0  0  0  0
  184.9240  178.6290  146.8010 N   0  0  0  0  0  1  0  0  0  0  0  0
  188.7910  177.9150  139.0990 C   0  0  0  0  0  3  0  0  0  0  0  0
  180.7150  176.7800  138.5420 C   0  0  0  0  0  2  0  0  0  0  0  0
  185.2710  179.2380  144.4580 C   0  0  0  0  0  3  0  0  0  0  0  0
  183.7210  176.9940  138.5450 C   0  0  1  0  0  3  0  0  0  0  0  0
  184.1830  174.8400  137.6000 O   0  0  0  0  0  1  0  0  0  0  0  0
  182.8530  177.6940  139.6160 C   0  0  1  0  0  3  0  0  0  0  0  0
  185.8010  179.6450  142.0700 O   0  0  0  0  0  0  0  0  0  0  0  0
  185.8800  178.9320  143.2450 C   0  0  0  0  0  0  0  0  0  0  0  0
  184.6440  179.4490  139.5120 N   0  0  0  0  0  2  0  0  0  0  0  0
  186.6860  177.8430  143.0980 C   0  0  0  0  0  0  0  0  0  0  0  0
  188.0850  178.9390  141.3440 C   0  0  1  0  0  3  0  0  0  0  0  0
  185.6240  177.8740  137.0690 S   0  0  0  0  0  0  0  0  0  0  0  0
  182.2580  174.9270  139.0300 C   0  0  0  0  0  2  0  0  0  0  0  0
  187.1950  177.7390  141.6990 C   0  0  2  0  0  3  0  0  0  0  0  0
  185.9110  178.8130  139.6950 C   0  0  0  0  0  0  0  0  0  0  0  0
  183.4730  178.9620  140.2370 C   0  0  0  0  0  2  0  0  0  0  0  0
  180.9570  175.5640  139.3210 N   0  0  0  0  0  0  0  0  0  0  0  0
  186.3760  177.9960  138.7190 C   0  0  0  0  0  0  0  0  0  0  0  0
  1 16  1  1  0  0  0
  1 15  1  0  0  0  0
  1 24  1  0  0  0  0
  2 12  1  0  0  0  0
  6 10  1  0  0  0  0
  7  6  2  0  0  0  0
  8 26  1  6  0  0  0
  8 22  1  0  0  0  0
  8 25  1  0  0  0  0
  8 18  1  0  0  0  0
  9 28  1  0  0  0  0
 10 11  1  0  0  0  0
 12  4  2  0  0  0  0
 13  5  1  0  0  0  0
 13 28  1  0  0  0  0
 14 10  2  0  0  0  0
 15  3  1  6  0  0  0
 15 17  1  0  0  0  0
 17  5  1  6  0  0  0
 17 27  1  0  0  0  0
 18 19  1  0  0  0  0
 19 14  1  0  0  0  0
 20 26  1  0  0  0  0
 20 27  1  0  0  0  0
 21 19  2  0  0  0  0
 21  7  1  0  0  0  0
 22  4  1  6  0  0  0
 22 25  1  0  0  0  0
 23  3  1  0  0  0  0
 23 29  1  0  0  0  0
 24 28  1  0  0  0  0
 25 21  1  1  0  0  0
 29  2  1  0  0  0  0
 29 26  2  0  0  0  0
M  END
>  <MODEL>
3

>  <REMARK>
 VINA RESULT:      -6.4      3.406      4.149
  Name = 
  0 active torsions:
  status: ('A' for Active; 'I' for Inactive)
                            x       y       z     vdW  Elec       q    Type
                         _______ _______ _______ _____ _____    ______ ____

>  <TORSDO>
F 0

$$$$
=
 OpenBabel10222415533D

 29 34  0  0  1  0  0  0  0  0999 V2000
  187.3670  177.2620  143.7840 C   0  0  1  0  0  3  0  0  0  0  0  0
  182.8290  178.1860  142.8460 C   0  0  0  0  0  2  0  0  0  0  0  0
  186.5960  179.4110  143.0090 O   0  0  0  0  0  0  0  0  0  0  0  0
  181.1590  178.8620  141.1330 C   0  0  0  0  0  3  0  0  0  0  0  0
  188.8220  178.3400  141.2540 C   0  0  0  0  0  2  0  0  0  0  0  0
  183.0210  174.4680  137.4460 N   0  0  0  0  0  0  0  0  0  0  0  0
  182.6350  174.9780  138.6520 C   0  0  0  0  0  3  0  0  0  0  0  0
  183.3970  178.4070  139.8980 C   0  0  1  0  0  0  0  0  0  0  0  0
  190.4190  175.6410  143.2180 C   0  0  0  0  0  1  0  0  0  0  0  0
  183.7610  175.1970  136.5560 C   0  0  0  0  0  0  0  0  0  0  0  0
  184.1410  174.6220  135.3110 N   0  0  0  0  0  1  0  0  0  0  0  0
  181.5560  178.8270  142.4130 C   0  0  0  0  0  3  0  0  0  0  0  0
  189.6490  177.6780  142.3590 C   0  0  0  0  0  2  0  0  0  0  0  0
  184.1490  176.5110  136.8650 C   0  0  0  0  0  3  0  0  0  0  0  0
  186.6750  178.0570  142.6650 C   0  0  1  0  0  3  0  0  0  0  0  0
  186.4310  176.9040  144.7510 O   0  0  0  0  0  1  0  0  0  0  0  0
  187.3430  177.9350  141.2750 C   0  0  1  0  0  3  0  0  0  0  0  0
  183.9890  178.2760  138.6000 O   0  0  0  0  0  0  0  0  0  0  0  0
  183.7470  177.0170  138.0980 C   0  0  0  0  0  0  0  0  0  0  0  0
  185.5390  179.5370  140.5820 N   0  0  0  0  0  2  0  0  0  0  0  0
  183.0070  176.2800  138.9730 C   0  0  0  0  0  0  0  0  0  0  0  0
  181.8690  178.2890  139.9230 C   0  0  1  0  0  3  0  0  0  0  0  0
  185.0030  179.7640  143.5930 S   0  0  0  0  0  0  0  0  0  0  0  0
  188.1030  176.0030  143.2860 C   0  0  0  0  0  2  0  0  0  0  0  0
  182.7280  177.0510  140.2190 C   0  0  2  0  0  3  0  0  0  0  0  0
  184.2790  179.0030  140.9940 C   0  0  0  0  0  0  0  0  0  0  0  0
  186.5950  178.6370  140.1240 C   0  0  0  0  0  2  0  0  0  0  0  0
  189.3230  176.2560  142.4920 N   0  0  0  0  0  0  0  0  0  0  0  0
  183.9970  178.9480  142.3180 C   0  0  0  0  0  0  0  0  0  0  0  0
  1 16  1  1  0  0  0
  3 23  1  0  0  0  0
  4 12  2  0  0  0  0
  5 17  1  0  0  0  0
  5 13  1  0  0  0  0
  6  7  1  0  0  0  0
  7 21  2  0  0  0  0
  8 18  1  6  0  0  0
  8 22  1  0  0  0  0
  8 25  1  0  0  0  0
  8 26  1  0  0  0  0
 10 14  1  0  0  0  0
 10  6  2  0  0  0  0
 11 10  1  0  0  0  0
 12  2  1  0  0  0  0
 13 28  1  0  0  0  0
 14 19  2  0  0  0  0
 15  3  1  1  0  0  0
 15  1  1  0  0  0  0
 17 27  1  6  0  0  0
 17 15  1  0  0  0  0
 19 18  1  0  0  0  0
 19 21  1  0  0  0  0
 20 26  1  0  0  0  0
 22 25  1  0  0  0  0
 22  4  1  1  0  0  0
 24  1  1  0  0  0  0
 25 21  1  6  0  0  0
 26 29  2  0  0  0  0
 27 20  1  0  0  0  0
 28  9  1  0  0  0  0
 28 24  1  0  0  0  0
 29  2  1  0  0  0  0
 29 23  1  0  0  0  0
M  END
>  <MODEL>
4

>  <REMARK>
 VINA RESULT:      -5.9      3.872      7.959
  Name = 
  0 active torsions:
  status: ('A' for Active; 'I' for Inactive)
                            x       y       z     vdW  Elec       q    Type
                         _______ _______ _______ _____ _____    ______ ____

>  <TORSDO>
F 0

$$$$
=
 OpenBabel10222415533D

 29 34  0  0  1  0  0  0  0  0999 V2000
  184.1080  177.8720  139.1770 C   0  0  1  0  0  3  0  0  0  0  0  0
  181.2050  178.4800  135.4980 C   0  0  0  0  0  2  0  0  0  0  0  0
  181.8470  177.0350  139.1340 O   0  0  0  0  0  0  0  0  0  0  0  0
  179.0650  179.4440  134.6800 C   0  0  0  0  0  3  0  0  0  0  0  0
  182.3450  178.7380  141.5900 C   0  0  0  0  0  2  0  0  0  0  0  0
  180.5650  184.8650  136.8540 N   0  0  0  0  0  0  0  0  0  0  0  0
  180.8040  183.7050  136.1760 C   0  0  0  0  0  3  0  0  0  0  0  0
  179.4560  180.3500  137.0810 C   0  0  1  0  0  0  0  0  0  0  0  0
  186.0260  179.0040  141.8790 C   0  0  0  0  0  1  0  0  0  0  0  0
  179.7850  184.8990  137.9770 C   0  0  0  0  0  0  0  0  0  0  0  0
  179.5650  186.1320  138.6510 N   0  0  0  0  0  1  0  0  0  0  0  0
  180.0200  178.5070  134.5960 C   0  0  0  0  0  3  0  0  0  0  0  0
  183.7910  178.3040  141.8460 C   0  0  0  0  0  2  0  0  0  0  0  0
  179.2010  183.7210  138.4710 C   0  0  0  0  0  3  0  0  0  0  0  0
  182.6110  178.2060  139.0750 C   0  0  1  0  0  3  0  0  0  0  0  0
  184.6030  177.5510  137.9140 O   0  0  0  0  0  1  0  0  0  0  0  0
  182.0930  179.1920  140.1470 C   0  0  1  0  0  3  0  0  0  0  0  0
  178.9720  181.2870  138.0500 O   0  0  0  0  0  0  0  0  0  0  0  0
  179.4530  182.5460  137.7680 C   0  0  0  0  0  0  0  0  0  0  0  0
  179.8810  178.8080  139.0240 N   0  0  0  0  0  2  0  0  0  0  0  0
  180.2300  182.5280  136.6480 C   0  0  0  0  0  0  0  0  0  0  0  0
  178.9870  180.6090  135.6460 C   0  0  1  0  0  3  0  0  0  0  0  0
  181.3670  176.5790  137.5320 S   0  0  0  0  0  0  0  0  0  0  0  0
  184.9550  179.0020  139.7930 C   0  0  0  0  0  2  0  0  0  0  0  0
  180.3510  181.1450  136.1040 C   0  0  2  0  0  3  0  0  0  0  0  0
  180.0380  179.0460  137.6240 C   0  0  0  0  0  0  0  0  0  0  0  0
  180.6200  179.6210  139.9880 C   0  0  0  0  0  2  0  0  0  0  0  0
  184.7440  179.2350  141.2370 N   0  0  0  0  0  0  0  0  0  0  0  0
  180.7830  178.1780  136.8970 C   0  0  0  0  0  0  0  0  0  0  0  0
  1 16  1  6  0  0  0
  1 24  1  0  0  0  0
  2 29  1  0  0  0  0
  5 13  1  0  0  0  0
  6 10  1  0  0  0  0
  7 21  1  0  0  0  0
  7  6  2  0  0  0  0
  8 26  1  1  0  0  0
  8 18  1  0  0  0  0
 10 14  2  0  0  0  0
 10 11  1  0  0  0  0
 12  4  2  0  0  0  0
 12  2  1  0  0  0  0
 15  3  1  1  0  0  0
 15  1  1  0  0  0  0
 15 17  1  0  0  0  0
 17 27  1  1  0  0  0
 17  5  1  0  0  0  0
 19 18  1  0  0  0  0
 19 14  1  0  0  0  0
 20 27  1  0  0  0  0
 21 19  2  0  0  0  0
 22  4  1  6  0  0  0
 22 25  1  0  0  0  0
 22  8  1  0  0  0  0
 23  3  1  0  0  0  0
 24 28  1  0  0  0  0
 25 21  1  1  0  0  0
 25  8  1  0  0  0  0
 26 20  1  0  0  0  0
 28 13  1  0  0  0  0
 28  9  1  0  0  0  0
 29 23  1  0  0  0  0
 29 26  2  0  0  0  0
M  END
>  <MODEL>
5

>  <REMARK>
 VINA RESULT:      -5.9      7.080      9.980
  Name = 
  0 active torsions:
  status: ('A' for Active; 'I' for Inactive)
                            x       y       z     vdW  Elec       q    Type
                         _______ _______ _______ _____ _____    ______ ____

>  <TORSDO>
F 0

$$$$
=
 OpenBabel10222415533D

 29 34  0  0  1  0  0  0  0  0999 V2000
  180.0990  182.0590  137.7840 C   0  0  1  0  0  3  0  0  0  0  0  0
  181.2030  177.9330  139.8060 C   0  0  0  0  0  2  0  0  0  0  0  0
  179.0900  179.9660  137.1370 O   0  0  0  0  0  0  0  0  0  0  0  0
  182.1220  175.6460  139.4880 C   0  0  0  0  0  3  0  0  0  0  0  0
  180.2780  181.4030  134.7480 C   0  0  0  0  0  2  0  0  0  0  0  0
  187.0780  177.8950  136.8910 N   0  0  0  0  0  0  0  0  0  0  0  0
  186.1120  177.8430  137.8540 C   0  0  0  0  0  3  0  0  0  0  0  0
  182.5350  176.9610  137.2880 C   0  0  1  0  0  0  0  0  0  0  0  0
  180.8060  184.8950  135.8550 C   0  0  0  0  0  1  0  0  0  0  0  0
  186.8060  177.6260  135.5780 C   0  0  0  0  0  0  0  0  0  0  0  0
  187.8460  177.6940  134.6090 N   0  0  0  0  0  1  0  0  0  0  0  0
  181.3140  176.4870  140.1470 C   0  0  0  0  0  3  0  0  0  0  0  0
  179.9320  182.8300  135.1790 C   0  0  0  0  0  2  0  0  0  0  0  0
  185.5030  177.2840  135.1790 C   0  0  0  0  0  3  0  0  0  0  0  0
  180.3120  180.6450  137.2190 C   0  0  1  0  0  3  0  0  0  0  0  0
  180.0960  182.0110  139.1770 O   0  0  0  0  0  1  0  0  0  0  0  0
  181.0010  180.5980  135.8360 C   0  0  1  0  0  3  0  0  0  0  0  0
  183.2010  176.9040  136.0210 O   0  0  0  0  0  0  0  0  0  0  0  0
  184.5290  177.2350  136.1720 C   0  0  0  0  0  0  0  0  0  0  0  0
  180.6640  178.1210  136.0680 N   0  0  0  0  0  2  0  0  0  0  0  0
  184.8170  177.5020  137.4770 C   0  0  0  0  0  0  0  0  0  0  0  0
  183.0470  175.9600  138.3290 C   0  0  1  0  0  3  0  0  0  0  0  0
  178.9400  178.8880  138.4860 S   0  0  0  0  0  0  0  0  0  0  0  0
  181.1460  183.0820  137.3040 C   0  0  0  0  0  2  0  0  0  0  0  0
  183.5950  177.3940  138.3260 C   0  0  2  0  0  3  0  0  0  0  0  0
  181.2040  177.7090  137.3270 C   0  0  0  0  0  0  0  0  0  0  0  0
  181.3200  179.1830  135.3090 C   0  0  0  0  0  2  0  0  0  0  0  0
  181.0510  183.4640  135.8800 N   0  0  0  0  0  0  0  0  0  0  0  0
  180.5780  178.1020  138.4620 C   0  0  0  0  0  0  0  0  0  0  0  0
  1 16  1  1  0  0  0
  2 12  1  0  0  0  0
  3 23  1  0  0  0  0
  4 12  2  0  0  0  0
  5 13  1  0  0  0  0
  6  7  1  0  0  0  0
  8 18  1  6  0  0  0
  8 26  1  0  0  0  0
  8 25  1  0  0  0  0
  8 22  1  0  0  0  0
  9 28  1  0  0  0  0
 10  6  2  0  0  0  0
 11 10  1  0  0  0  0
 13 28  1  0  0  0  0
 14 10  1  0  0  0  0
 14 19  2  0  0  0  0
 15  3  1  6  0  0  0
 15  1  1  0  0  0  0
 17  5  1  6  0  0  0
 17 15  1  0  0  0  0
 18 19  1  0  0  0  0
 19 21  1  0  0  0  0
 20 26  1  0  0  0  0
 21  7  2  0  0  0  0
 22  4  1  1  0  0  0
 24  1  1  0  0  0  0
 25 21  1  6  0  0  0
 25 22  1  0  0  0  0
 26 29  2  0  0  0  0
 27 17  1  0  0  0  0
 27 20  1  0  0  0  0
 28 24  1  0  0  0  0
 29 23  1  0  0  0  0
 29  2  1  0  0  0  0
M  END
>  <MODEL>
6

>  <REMARK>
 VINA RESULT:      -5.5      6.145      9.029
  Name = 
  0 active torsions:
  status: ('A' for Active; 'I' for Inactive)
                            x       y       z     vdW  Elec       q    Type
                         _______ _______ _______ _____ _____    ______ ____

>  <TORSDO>
F 0

$$$$
=
 OpenBabel10222415533D

 29 34  0  0  1  0  0  0  0  0999 V2000
  186.1450  178.1810  142.4670 C   0  0  1  0  0  3  0  0  0  0  0  0
  182.9570  177.2780  139.0980 C   0  0  0  0  0  2  0  0  0  0  0  0
  185.8150  179.6090  140.5520 O   0  0  0  0  0  0  0  0  0  0  0  0
  182.5590  176.8050  136.6900 C   0  0  0  0  0  3  0  0  0  0  0  0
  188.7190  178.7880  140.8290 C   0  0  0  0  0  2  0  0  0  0  0  0
  186.5440  172.2810  136.8200 N   0  0  0  0  0  0  0  0  0  0  0  0
  185.4890  173.0030  137.3000 C   0  0  0  0  0  3  0  0  0  0  0  0
  185.1220  176.7060  137.0860 C   0  0  1  0  0  0  0  0  0  0  0  0
  189.0610  177.5110  144.2850 C   0  0  0  0  0  1  0  0  0  0  0  0
  187.6080  172.8790  136.2020 C   0  0  0  0  0  0  0  0  0  0  0  0
  188.6850  172.0850  135.7190 N   0  0  0  0  0  1  0  0  0  0  0  0
  182.1340  177.3100  137.8560 C   0  0  0  0  0  3  0  0  0  0  0  0
  188.7900  178.8120  142.3580 C   0  0  0  0  0  2  0  0  0  0  0  0
  187.6430  174.2740  136.0420 C   0  0  0  0  0  3  0  0  0  0  0  0
  186.1810  178.3130  140.9360 C   0  0  1  0  0  3  0  0  0  0  0  0
  184.8490  177.8780  142.8800 O   0  0  0  0  0  1  0  0  0  0  0  0
  187.5410  177.9680  140.2880 C   0  0  1  0  0  3  0  0  0  0  0  0
  186.3690  176.3580  136.4720 O   0  0  0  0  0  0  0  0  0  0  0  0
  186.5610  174.9960  136.5360 C   0  0  0  0  0  0  0  0  0  0  0  0
  186.3700  178.6090  138.1620 N   0  0  0  0  0  2  0  0  0  0  0  0
  185.5060  174.3860  137.1460 C   0  0  0  0  0  0  0  0  0  0  0  0
  183.8820  176.1290  136.3960 C   0  0  1  0  0  3  0  0  0  0  0  0
  184.1600  179.6110  140.0380 S   0  0  0  0  0  0  0  0  0  0  0  0
  187.1240  177.1280  143.0210 C   0  0  0  0  0  2  0  0  0  0  0  0
  184.4950  175.3880  137.5940 C   0  0  2  0  0  3  0  0  0  0  0  0
  185.1500  177.8680  138.0780 C   0  0  0  0  0  0  0  0  0  0  0  0
  187.5580  177.9900  138.7460 C   0  0  0  0  0  2  0  0  0  0  0  0
  188.5550  177.4820  142.9250 N   0  0  0  0  0  0  0  0  0  0  0  0
  184.1530  178.1560  138.9490 C   0  0  0  0  0  0  0  0  0  0  0  0
  1 16  1  6  0  0  0
  1 24  1  0  0  0  0
  4 12  2  0  0  0  0
  5 13  1  0  0  0  0
  6  7  1  0  0  0  0
  8 18  1  6  0  0  0
  8 25  1  0  0  0  0
  8 26  1  0  0  0  0
 10  6  2  0  0  0  0
 11 10  1  0  0  0  0
 12  2  1  0  0  0  0
 13 28  1  0  0  0  0
 14 10  1  0  0  0  0
 14 19  2  0  0  0  0
 15  3  1  1  0  0  0
 15  1  1  0  0  0  0
 17 27  1  6  0  0  0
 17  5  1  0  0  0  0
 17 15  1  0  0  0  0
 18 19  1  0  0  0  0
 19 21  1  0  0  0  0
 20 27  1  0  0  0  0
 21  7  2  0  0  0  0
 22  4  1  1  0  0  0
 22  8  1  0  0  0  0
 22 25  1  0  0  0  0
 23  3  1  0  0  0  0
 25 21  1  6  0  0  0
 26 20  1  0  0  0  0
 26 29  2  0  0  0  0
 28 24  1  0  0  0  0
 28  9  1  0  0  0  0
 29  2  1  0  0  0  0
 29 23  1  0  0  0  0
M  END
>  <MODEL>
7

>  <REMARK>
 VINA RESULT:      -5.4      2.841      7.435
  Name = 
  0 active torsions:
  status: ('A' for Active; 'I' for Inactive)
                            x       y       z     vdW  Elec       q    Type
                         _______ _______ _______ _____ _____    ______ ____

>  <TORSDO>
F 0

$$$$
=
 OpenBabel10222415533D

 29 34  0  0  1  0  0  0  0  0999 V2000
  190.9780  176.5910  137.8650 C   0  0  1  0  0  3  0  0  0  0  0  0
  186.4770  177.8780  138.5080 C   0  0  0  0  0  2  0  0  0  0  0  0
  189.8060  178.0690  136.3630 O   0  0  0  0  0  0  0  0  0  0  0  0
  184.1650  177.8680  137.5960 C   0  0  0  0  0  3  0  0  0  0  0  0
  191.0220  175.7250  134.8770 C   0  0  0  0  0  2  0  0  0  0  0  0
  184.3650  171.8820  136.8910 N   0  0  0  0  0  0  0  0  0  0  0  0
  184.5530  173.0440  137.5820 C   0  0  0  0  0  3  0  0  0  0  0  0
  185.5950  176.3020  136.1000 C   0  0  1  0  0  0  0  0  0  0  0  0
  193.5100  174.2670  137.1960 C   0  0  0  0  0  1  0  0  0  0  0  0
  184.5600  171.8050  135.5400 C   0  0  0  0  0  0  0  0  0  0  0  0
  184.3530  170.5710  134.8630 N   0  0  0  0  0  1  0  0  0  0  0  0
  185.1120  178.4510  138.3440 C   0  0  0  0  0  3  0  0  0  0  0  0
  192.3060  175.6080  135.7020 C   0  0  0  0  0  2  0  0  0  0  0  0
  184.9660  172.9380  134.8150 C   0  0  0  0  0  3  0  0  0  0  0  0
  189.7980  176.7750  136.8970 C   0  0  1  0  0  3  0  0  0  0  0  0
  190.6220  177.0550  139.1300 O   0  0  0  0  0  1  0  0  0  0  0  0
  189.7500  175.7580  135.7340 C   0  0  1  0  0  3  0  0  0  0  0  0
  185.5230  175.3450  135.0360 O   0  0  0  0  0  0  0  0  0  0  0  0
  185.1530  174.1150  135.5340 C   0  0  0  0  0  0  0  0  0  0  0  0
  187.7370  177.0830  135.0330 N   0  0  0  0  0  2  0  0  0  0  0  0
  184.9510  174.1780  136.8800 C   0  0  0  0  0  0  0  0  0  0  0  0
  184.2650  176.5780  136.8080 C   0  0  1  0  0  3  0  0  0  0  0  0
  188.6480  179.0460  137.2060 S   0  0  0  0  0  0  0  0  0  0  0  0
  191.4740  175.1360  137.9680 C   0  0  0  0  0  2  0  0  0  0  0  0
  185.2360  175.5470  137.4000 C   0  0  2  0  0  3  0  0  0  0  0  0
  186.8470  177.1760  136.1490 C   0  0  0  0  0  0  0  0  0  0  0  0
  188.5110  175.8630  134.8210 C   0  0  0  0  0  2  0  0  0  0  0  0
  192.1670  174.6170  136.7710 N   0  0  0  0  0  0  0  0  0  0  0  0
  187.2170  177.9260  137.2140 C   0  0  0  0  0  0  0  0  0  0  0  0
  1 24  1  0  0  0  0
  1 16  1  1  0  0  0
  3 23  1  0  0  0  0
  4 12  2  0  0  0  0
  5 13  1  0  0  0  0
  5 17  1  0  0  0  0
  6  7  1  0  0  0  0
  8 18  1  6  0  0  0
  8 26  1  0  0  0  0
  8 22  1  0  0  0  0
  8 25  1  0  0  0  0
 10  6  2  0  0  0  0
 11 10  1  0  0  0  0
 12  2  1  0  0  0  0
 13 28  1  0  0  0  0
 14 19  2  0  0  0  0
 14 10  1  0  0  0  0
 15  3  1  6  0  0  0
 15  1  1  0  0  0  0
 17 27  1  6  0  0  0
 17 15  1  0  0  0  0
 18 19  1  0  0  0  0
 19 21  1  0  0  0  0
 20 26  1  0  0  0  0
 21  7  2  0  0  0  0
 22 25  1  0  0  0  0
 22  4  1  1  0  0  0
 23 29  1  0  0  0  0
 25 21  1  6  0  0  0
 26 29  2  0  0  0  0
 27 20  1  0  0  0  0
 28  9  1  0  0  0  0
 28 24  1  0  0  0  0
 29  2  1  0  0  0  0
M  END
>  <MODEL>
8

>  <REMARK>
 VINA RESULT:      -5.3      3.592      6.756
  Name = 
  0 active torsions:
  status: ('A' for Active; 'I' for Inactive)
                            x       y       z     vdW  Elec       q    Type
                         _______ _______ _______ _____ _____    ______ ____

>  <TORSDO>
F 0

$$$$
=
 OpenBabel10222415533D

 29 34  0  0  1  0  0  0  0  0999 V2000
  187.8710  177.3110  142.9010 C   0  0  1  0  0  3  0  0  0  0  0  0
  183.6480  177.8780  140.8600 C   0  0  0  0  0  2  0  0  0  0  0  0
  187.3100  179.2290  141.5520 O   0  0  0  0  0  0  0  0  0  0  0  0
  182.3880  178.1330  138.7320 C   0  0  0  0  0  3  0  0  0  0  0  0
  189.8440  177.8910  140.5660 C   0  0  0  0  0  2  0  0  0  0  0  0
  184.9330  173.1350  136.5150 N   0  0  0  0  0  0  0  0  0  0  0  0
  184.3060  173.8700  137.4800 C   0  0  0  0  0  3  0  0  0  0  0  0
  184.8310  177.5050  138.1170 C   0  0  1  0  0  0  0  0  0  0  0  0
  190.9530  175.7060  143.3400 C   0  0  0  0  0  1  0  0  0  0  0  0
  185.8540  173.6880  135.6690 C   0  0  0  0  0  0  0  0  0  0  0  0
  186.4820  172.8820  134.6790 N   0  0  0  0  0  1  0  0  0  0  0  0
  182.5040  178.3750  140.0450 C   0  0  0  0  0  3  0  0  0  0  0  0
  190.4090  177.4970  141.9330 C   0  0  0  0  0  2  0  0  0  0  0  0
  186.1850  175.0500  135.7720 C   0  0  0  0  0  3  0  0  0  0  0  0
  187.4430  177.8360  141.5220 C   0  0  1  0  0  3  0  0  0  0  0  0
  186.7470  177.1300  143.7040 O   0  0  0  0  0  1  0  0  0  0  0  0
  188.3890  177.4520  140.3600 C   0  0  1  0  0  3  0  0  0  0  0  0
  185.6830  177.1280  137.0290 O   0  0  0  0  0  0  0  0  0  0  0  0
  185.5370  175.7860  136.7600 C   0  0  0  0  0  0  0  0  0  0  0  0
  186.7940  178.8180  138.9850 N   0  0  0  0  0  2  0  0  0  0  0  0
  184.6190  175.2210  137.5940 C   0  0  0  0  0  0  0  0  0  0  0  0
  183.3320  177.3460  137.8440 C   0  0  1  0  0  3  0  0  0  0  0  0
  185.6340  179.6440  141.7020 S   0  0  0  0  0  0  0  0  0  0  0  0
  188.6800  176.0000  142.8420 C   0  0  0  0  0  2  0  0  0  0  0  0
  184.0920  176.2230  138.5650 C   0  0  2  0  0  3  0  0  0  0  0  0
  185.4680  178.3410  139.2250 C   0  0  0  0  0  0  0  0  0  0  0  0
  187.9120  177.8780  138.9570 C   0  0  0  0  0  2  0  0  0  0  0  0
  190.0440  176.1230  142.2870 N   0  0  0  0  0  0  0  0  0  0  0  0
  184.9110  178.5510  140.4420 C   0  0  0  0  0  0  0  0  0  0  0  0
  1 16  1  1  0  0  0
  3 23  1  0  0  0  0
  4 12  2  0  0  0  0
  5 13  1  0  0  0  0
  6  7  1  0  0  0  0
  7 21  2  0  0  0  0
  8 18  1  6  0  0  0
  8 25  1  0  0  0  0
  8 26  1  0  0  0  0
 10 14  1  0  0  0  0
 10  6  2  0  0  0  0
 11 10  1  0  0  0  0
 12  2  1  0  0  0  0
 13 28  1  0  0  0  0
 14 19  2  0  0  0  0
 15  3  1  1  0  0  0
 15  1  1  0  0  0  0
 17 27  1  6  0  0  0
 17  5  1  0  0  0  0
 17 15  1  0  0  0  0
 19 18  1  0  0  0  0
 19 21  1  0  0  0  0
 20 26  1  0  0  0  0
 22  8  1  0  0  0  0
 22 25  1  0  0  0  0
 22  4  1  1  0  0  0
 24  1  1  0  0  0  0
 25 21  1  6  0  0  0
 26 29  2  0  0  0  0
 27 20  1  0  0  0  0
 28 24  1  0  0  0  0
 28  9  1  0  0  0  0
 29  2  1  0  0  0  0
 29 23  1  0  0  0  0
M  END
>  <MODEL>
9

>  <REMARK>
 VINA RESULT:      -5.2      2.878      7.398
  Name = 
  0 active torsions:
  status: ('A' for Active; 'I' for Inactive)
                            x       y       z     vdW  Elec       q    Type
                         _______ _______ _______ _____ _____    ______ ____

>  <TORSDO>
F 0

$$$$
