=
 OpenBabel10222416013D

 55 59  0  0  1  0  0  0  0  0999 V2000
  186.2360  177.7850  143.9730 C   0  0  2  0  0  3  0  0  0  0  0  0
  186.1480  178.6610  145.2440 C   0  0  2  0  0  3  0  0  0  0  0  0
  186.4150  177.8690  146.4710 C   0  0  2  0  0  3  0  0  0  0  0  0
  185.1100  178.2580  146.1090 O   0  0  0  0  0  0  0  0  0  0  0  0
  186.9530  178.7870  147.5590 C   0  0  0  0  0  2  0  0  0  0  0  0
  187.8610  178.0350  148.5190 C   0  0  0  0  0  2  0  0  0  0  0  0
  188.2960  176.8390  147.9340 O   0  0  0  0  0  0  0  0  0  0  0  0
  189.6560  177.0480  147.7040 C   0  0  0  0  0  2  0  0  0  0  0  0
  189.9420  177.0500  146.2100 C   0  0  0  0  0  2  0  0  0  0  0  0
  191.4420  177.0180  145.9240 C   0  0  1  0  0  3  0  0  0  0  0  0
  192.0350  175.9660  146.6260 O   0  0  0  0  0  1  0  0  0  0  0  0
  191.6710  178.2500  143.7270 C   0  0  0  0  0  1  0  0  0  0  0  0
  191.7410  176.9020  144.4300 C   0  0  2  0  0  3  0  0  0  0  0  0
  190.8410  176.0200  143.8310 O   0  0  0  0  0  1  0  0  0  0  0  0
  187.6760  176.2160  142.8630 O   0  0  0  0  0  1  0  0  0  0  0  0
  187.6630  177.4540  143.5020 C   0  0  1  0  0  3  0  0  0  0  0  0
  188.1800  178.5160  142.5430 C   0  0  0  0  0  2  0  0  0  0  0  0
  187.4950  178.1550  138.8480 C   0  0  1  0  0  3  0  0  0  0  0  0
  187.0050  178.5430  140.2630 C   0  0  0  0  0  2  0  0  0  0  0  0
  188.7560  177.4390  139.0150 N   0  0  0  0  0  2  0  0  0  0  0  0
  188.0420  178.0760  141.1680 N   0  0  0  0  0  0  0  0  0  0  0  0
  190.1090  176.9900  140.8810 O   0  0  0  0  0  0  0  0  0  0  0  0
  189.0490  177.4600  140.3960 C   0  0  0  0  0  0  0  0  0  0  0  0
  186.4980  177.3170  138.1160 C   0  0  0  0  0  3  0  0  0  0  0  0
  185.7070  177.8100  137.1670 C   0  0  0  0  0  3  0  0  0  0  0  0
  183.2650  175.2770  137.8570 C   0  0  0  0  0  3  0  0  0  0  0  0
  184.7610  176.9260  136.5040 C   0  0  0  0  0  3  0  0  0  0  0  0
  184.0250  176.1020  137.1930 C   0  0  0  0  0  0  0  0  0  0  0  0
  182.0400  174.6420  137.2470 C   0  0  1  0  0  3  0  0  0  0  0  0
  181.1080  172.4970  136.6840 O   0  0  0  0  0  1  0  0  0  0  0  0
  183.4250  172.5040  137.2080 C   0  0  0  0  0  1  0  0  0  0  0  0
  182.5490  173.4580  135.2220 O   0  0  0  0  0  1  0  0  0  0  0  0
  182.2690  173.2680  136.5750 C   0  0  0  0  0  0  0  0  0  0  0  0
  180.7780  174.7530  138.1150 C   0  0  0  0  0  2  0  0  0  0  0  0
  181.0800  175.0990  139.5660 C   0  0  0  0  0  2  0  0  0  0  0  0
  178.9340  175.8950  140.5020 C   0  0  0  0  0  1  0  0  0  0  0  0
  179.8960  174.7260  140.4350 C   0  0  0  0  0  2  0  0  0  0  0  0
  185.4950  178.3710  142.9350 O   0  0  0  0  0  0  0  0  0  0  0  0
  184.2450  178.6680  143.4900 C   0  0  0  0  0  2  0  0  0  0  0  0
  181.7510  178.7900  142.8040 C   0  0  0  0  0  2  0  0  0  0  0  0
  183.2020  178.6760  142.4240 C   0  0  0  0  0  0  0  0  0  0  0  0
  180.9390  179.4700  141.6940 C   0  0  0  0  0  2  0  0  0  0  0  0
  183.5460  178.4650  141.1500 C   0  0  0  0  0  3  0  0  0  0  0  0
  182.5300  178.4870  140.0830 C   0  0  0  0  0  3  0  0  0  0  0  0
  181.2850  178.9080  140.3350 C   0  0  0  0  0  0  0  0  0  0  0  0
  179.9600  181.7560  136.9430 C   0  0  0  0  0  3  0  0  0  0  0  0
  180.9130  180.7460  134.9340 C   0  0  0  0  0  3  0  0  0  0  0  0
  180.1950  180.5500  137.6020 C   0  0  0  0  0  0  0  0  0  0  0  0
  180.7650  179.4790  136.9750 C   0  0  0  0  0  0  0  0  0  0  0  0
  179.9040  180.2670  138.9180 O   0  0  0  0  0  0  0  0  0  0  0  0
  180.3240  181.8470  135.5890 C   0  0  0  0  0  3  0  0  0  0  0  0
  180.8910  178.3430  137.9260 C   0  0  0  0  0  2  0  0  0  0  0  0
  181.1380  179.5460  135.6290 C   0  0  0  0  0  0  0  0  0  0  0  0
  180.2860  178.9250  139.2240 C   0  0  1  0  0  3  0  0  0  0  0  0
  181.8840  178.1830  134.8150 Cl  0  0  0  0  0  0  0  0  0  0  0  0
  1 38  1  6  0  0  0
  2  1  1  6  0  0  0
  2  4  1  0  0  0  0
  2  3  1  0  0  0  0
  3  5  1  1  0  0  0
  4  3  1  0  0  0  0
  5  6  1  0  0  0  0
  7  6  1  0  0  0  0
  8  7  1  0  0  0  0
  9  8  1  0  0  0  0
 10  9  1  0  0  0  0
 10 11  1  1  0  0  0
 13 12  1  6  0  0  0
 13 10  1  0  0  0  0
 14 13  1  0  0  0  0
 16 15  1  6  0  0  0
 16  1  1  0  0  0  0
 17 16  1  0  0  0  0
 18 24  1  1  0  0  0
 18 20  1  0  0  0  0
 18 19  1  0  0  0  0
 19 21  1  0  0  0  0
 20 23  1  0  0  0  0
 21 17  1  0  0  0  0
 23 22  2  0  0  0  0
 23 21  1  0  0  0  0
 25 24  2  0  0  0  0
 27 25  1  0  0  0  0
 27 28  2  0  0  0  0
 28 26  2  0  0  0  0
 29 26  1  1  0  0  0
 29 34  1  0  0  0  0
 32 33  1  0  0  0  0
 33 30  1  0  0  0  0
 33 31  1  0  0  0  0
 33 29  1  0  0  0  0
 34 35  1  0  0  0  0
 35 37  1  0  0  0  0
 37 36  1  0  0  0  0
 38 39  1  0  0  0  0
 41 40  1  0  0  0  0
 41 39  1  0  0  0  0
 42 40  1  0  0  0  0
 43 41  2  0  0  0  0
 44 45  2  0  0  0  0
 44 43  1  0  0  0  0
 45 42  1  0  0  0  0
 46 48  1  0  0  0  0
 47 51  1  0  0  0  0
 47 53  2  0  0  0  0
 48 50  1  0  0  0  0
 49 48  2  0  0  0  0
 49 52  1  0  0  0  0
 50 54  1  0  0  0  0
 51 46  2  0  0  0  0
 52 54  1  0  0  0  0
 53 49  1  0  0  0  0
 54 45  1  1  0  0  0
 55 53  1  0  0  0  0
M  END
>  <MODEL>
1

>  <REMARK>
 VINA RESULT:      -6.7      0.000      0.000
  Name = 
  22 active torsions:
  status: ('A' for Active; 'I' for Inactive)
    1  A    between atoms: C_2  and  C_22
    2  A    between atoms: C_3  and  O_18
    3  A    between atoms: C_3  and  C_25
    4  A    between atoms: C_3  and  C_53
    5  A    between atoms: C_4  and  C_7
    6  A    between atoms: C_5  and  N_16
    7  A    between atoms: C_5  and  C_53
    8  A    between atoms: C_11  and  C_14
    9  A    between atoms: C_12  and  C_17
   10  A    between atoms: C_12  and  C_45
   11  A    between atoms: C_14  and  O_18
   12  A    between atoms: C_17  and  C_26
   13  A    between atoms: C_19  and  C_38
   14  A    between atoms: C_22  and  C_48
   15  A    between atoms: C_22  and  C_54
   16  A    between atoms: C_26  and  O_31
   17  A    between atoms: O_31  and  C_44
   18  A    between atoms: C_33  and  C_39
   19  A    between atoms: C_35  and  C_52
   20  A    between atoms: C_39  and  C_44
   21  A    between atoms: C_40  and  C_41
   22  A    between atoms: C_40  and  C_54
                            x       y       z     vdW  Elec       q    Type
                         _______ _______ _______ _____ _____    ______ ____

>  <TORSDO>
F 22

$$$$
=
 OpenBabel10222416013D

 55 59  0  0  1  0  0  0  0  0999 V2000
  189.1840  177.5850  140.9940 C   0  0  2  0  0  3  0  0  0  0  0  0
  190.3680  176.9210  141.7320 C   0  0  2  0  0  3  0  0  0  0  0  0
  190.9600  177.8330  142.7440 C   0  0  2  0  0  3  0  0  0  0  0  0
  191.5900  177.5880  141.5070 O   0  0  0  0  0  0  0  0  0  0  0  0
  191.6210  177.0110  143.8400 C   0  0  0  0  0  2  0  0  0  0  0  0
  191.2180  177.5040  145.2210 C   0  0  0  0  0  2  0  0  0  0  0  0
  191.4820  176.5180  146.1800 O   0  0  0  0  0  0  0  0  0  0  0  0
  190.4860  176.7020  147.1400 C   0  0  0  0  0  2  0  0  0  0  0  0
  189.4400  177.6830  146.6310 C   0  0  0  0  0  2  0  0  0  0  0  0
  188.0840  177.4550  147.2940 C   0  0  1  0  0  3  0  0  0  0  0  0
  188.1070  177.9470  148.6020 O   0  0  0  0  0  1  0  0  0  0  0  0
  186.0630  178.9730  147.3760 C   0  0  0  0  0  1  0  0  0  0  0  0
  186.9420  178.0900  146.5030 C   0  0  2  0  0  3  0  0  0  0  0  0
  186.1590  177.0950  145.9150 O   0  0  0  0  0  1  0  0  0  0  0  0
  188.0920  177.2640  143.1080 O   0  0  0  0  0  1  0  0  0  0  0  0
  187.8680  177.6500  141.7880 C   0  0  1  0  0  3  0  0  0  0  0  0
  187.2900  179.0570  141.7700 C   0  0  0  0  0  2  0  0  0  0  0  0
  183.7840  178.4650  140.5010 C   0  0  1  0  0  3  0  0  0  0  0  0
  185.2500  178.8760  140.2260 C   0  0  0  0  0  2  0  0  0  0  0  0
  183.6100  178.4490  141.9500 N   0  0  0  0  0  2  0  0  0  0  0  0
  185.8590  179.0200  141.5380 N   0  0  0  0  0  0  0  0  0  0  0  0
  185.0960  178.7380  143.7450 O   0  0  0  0  0  0  0  0  0  0  0  0
  184.8740  178.7420  142.5080 C   0  0  0  0  0  0  0  0  0  0  0  0
  182.8080  179.3950  139.8570 C   0  0  0  0  0  3  0  0  0  0  0  0
  181.4970  179.1730  139.8610 C   0  0  0  0  0  3  0  0  0  0  0  0
  181.5580  182.1410  137.8500 C   0  0  0  0  0  3  0  0  0  0  0  0
  180.6140  180.1280  139.2080 C   0  0  0  0  0  3  0  0  0  0  0  0
  181.1010  181.1330  138.5390 C   0  0  0  0  0  0  0  0  0  0  0  0
  180.6980  182.9050  136.8730 C   0  0  1  0  0  3  0  0  0  0  0  0
  182.0200  184.8400  137.4170 O   0  0  0  0  0  1  0  0  0  0  0  0
  179.7270  184.9590  138.0250 C   0  0  0  0  0  1  0  0  0  0  0  0
  180.4690  185.0270  135.7740 O   0  0  0  0  0  1  0  0  0  0  0  0
  180.7420  184.4450  137.0120 C   0  0  0  0  0  0  0  0  0  0  0  0
  180.7560  182.3680  135.4350 C   0  0  0  0  0  2  0  0  0  0  0  0
  179.8020  181.2070  135.1930 C   0  0  0  0  0  2  0  0  0  0  0  0
  181.0760  179.1510  135.7060 C   0  0  0  0  0  1  0  0  0  0  0  0
  180.5610  180.0410  134.5940 C   0  0  0  0  0  2  0  0  0  0  0  0
  188.9830  176.9620  139.7520 O   0  0  0  0  0  0  0  0  0  0  0  0
  189.5280  177.8340  138.8030 C   0  0  0  0  0  2  0  0  0  0  0  0
  191.9720  177.0940  138.3750 C   0  0  0  0  0  2  0  0  0  0  0  0
  190.5260  177.1140  137.9610 C   0  0  0  0  0  0  0  0  0  0  0  0
  192.6740  175.8240  137.8750 C   0  0  0  0  0  2  0  0  0  0  0  0
  190.1580  176.5920  136.7870 C   0  0  0  0  0  3  0  0  0  0  0  0
  191.1280  175.8620  135.9510 C   0  0  0  0  0  3  0  0  0  0  0  0
  192.3350  175.5390  136.4310 C   0  0  0  0  0  0  0  0  0  0  0  0
  196.8090  175.7120  135.2780 C   0  0  0  0  0  3  0  0  0  0  0  0
  197.7950  173.8440  136.5030 C   0  0  0  0  0  3  0  0  0  0  0  0
  195.5560  175.1500  135.5240 C   0  0  0  0  0  0  0  0  0  0  0  0
  195.4080  173.9890  136.2290 C   0  0  0  0  0  0  0  0  0  0  0  0
  194.3400  175.6500  135.1170 O   0  0  0  0  0  0  0  0  0  0  0  0
  197.9390  175.0430  135.7750 C   0  0  0  0  0  3  0  0  0  0  0  0
  193.9670  173.6400  136.3310 C   0  0  0  0  0  2  0  0  0  0  0  0
  196.5180  173.3070  136.7360 C   0  0  0  0  0  0  0  0  0  0  0  0
  193.2870  174.7910  135.5560 C   0  0  1  0  0  3  0  0  0  0  0  0
  196.3410  171.8220  137.6550 Cl  0  0  0  0  0  0  0  0  0  0  0  0
  1 38  1  6  0  0  0
  1 16  1  0  0  0  0
  2  1  1  6  0  0  0
  2  3  1  0  0  0  0
  3  5  1  1  0  0  0
  4  2  1  0  0  0  0
  4  3  1  0  0  0  0
  5  6  1  0  0  0  0
  6  7  1  0  0  0  0
  7  8  1  0  0  0  0
  9  8  1  0  0  0  0
  9 10  1  0  0  0  0
 10 11  1  1  0  0  0
 13 10  1  0  0  0  0
 13 12  1  1  0  0  0
 14 13  1  0  0  0  0
 16 15  1  1  0  0  0
 17 16  1  0  0  0  0
 18 24  1  6  0  0  0
 18 20  1  0  0  0  0
 19 18  1  0  0  0  0
 19 21  1  0  0  0  0
 20 23  1  0  0  0  0
 21 17  1  0  0  0  0
 21 23  1  0  0  0  0
 23 22  2  0  0  0  0
 24 25  2  0  0  0  0
 26 28  2  0  0  0  0
 27 25  1  0  0  0  0
 28 27  2  0  0  0  0
 29 34  1  6  0  0  0
 29 33  1  0  0  0  0
 29 26  1  0  0  0  0
 32 33  1  0  0  0  0
 33 30  1  0  0  0  0
 33 31  1  0  0  0  0
 35 34  1  0  0  0  0
 37 35  1  0  0  0  0
 37 36  1  0  0  0  0
 39 38  1  0  0  0  0
 41 40  1  0  0  0  0
 41 39  1  0  0  0  0
 42 40  1  0  0  0  0
 43 41  2  0  0  0  0
 44 45  2  0  0  0  0
 44 43  1  0  0  0  0
 45 42  1  0  0  0  0
 46 48  2  0  0  0  0
 46 51  1  0  0  0  0
 47 53  1  0  0  0  0
 48 49  1  0  0  0  0
 49 52  1  0  0  0  0
 49 53  2  0  0  0  0
 50 48  1  0  0  0  0
 50 54  1  0  0  0  0
 51 47  2  0  0  0  0
 53 55  1  0  0  0  0
 54 52  1  0  0  0  0
 54 45  1  1  0  0  0
M  END
>  <MODEL>
2

>  <REMARK>
 VINA RESULT:      -6.4      4.691      9.537
  Name = 
  22 active torsions:
  status: ('A' for Active; 'I' for Inactive)
    1  A    between atoms: C_2  and  C_22
    2  A    between atoms: C_3  and  O_18
    3  A    between atoms: C_3  and  C_25
    4  A    between atoms: C_3  and  C_53
    5  A    between atoms: C_4  and  C_7
    6  A    between atoms: C_5  and  N_16
    7  A    between atoms: C_5  and  C_53
    8  A    between atoms: C_11  and  C_14
    9  A    between atoms: C_12  and  C_17
   10  A    between atoms: C_12  and  C_45
   11  A    between atoms: C_14  and  O_18
   12  A    between atoms: C_17  and  C_26
   13  A    between atoms: C_19  and  C_38
   14  A    between atoms: C_22  and  C_48
   15  A    between atoms: C_22  and  C_54
   16  A    between atoms: C_26  and  O_31
   17  A    between atoms: O_31  and  C_44
   18  A    between atoms: C_33  and  C_39
   19  A    between atoms: C_35  and  C_52
   20  A    between atoms: C_39  and  C_44
   21  A    between atoms: C_40  and  C_41
   22  A    between atoms: C_40  and  C_54
                            x       y       z     vdW  Elec       q    Type
                         _______ _______ _______ _____ _____    ______ ____

>  <TORSDO>
F 22

$$$$
=
 OpenBabel10222416013D

 55 59  0  0  1  0  0  0  0  0999 V2000
  186.5590  177.5490  144.4340 C   0  0  2  0  0  3  0  0  0  0  0  0
  186.6540  178.2890  145.7870 C   0  0  2  0  0  3  0  0  0  0  0  0
  187.2550  177.4280  146.8380 C   0  0  2  0  0  3  0  0  0  0  0  0
  185.8700  177.6850  146.7920 O   0  0  0  0  0  0  0  0  0  0  0  0
  187.9160  178.3030  147.8930 C   0  0  0  0  0  2  0  0  0  0  0  0
  189.4270  178.1370  147.8820 C   0  0  0  0  0  2  0  0  0  0  0  0
  189.7770  176.9520  147.2220 O   0  0  0  0  0  0  0  0  0  0  0  0
  191.0880  176.7080  147.6320 C   0  0  0  0  0  2  0  0  0  0  0  0
  191.9110  176.1730  146.4690 C   0  0  0  0  0  2  0  0  0  0  0  0
  191.3360  176.6120  145.1240 C   0  0  1  0  0  3  0  0  0  0  0  0
  191.7130  177.9310  144.8560 O   0  0  0  0  0  1  0  0  0  0  0  0
  190.5870  175.2500  143.1290 C   0  0  0  0  0  1  0  0  0  0  0  0
  191.7660  175.6890  143.9850 C   0  0  2  0  0  3  0  0  0  0  0  0
  192.4080  174.5630  144.5010 O   0  0  0  0  0  1  0  0  0  0  0  0
  187.7610  176.0630  142.9810 O   0  0  0  0  0  1  0  0  0  0  0  0
  187.9070  177.1910  143.7840 C   0  0  1  0  0  3  0  0  0  0  0  0
  188.4260  178.3430  142.9370 C   0  0  0  0  0  2  0  0  0  0  0  0
  187.3550  178.4560  139.3190 C   0  0  1  0  0  3  0  0  0  0  0  0
  186.9960  178.5670  140.8200 C   0  0  0  0  0  2  0  0  0  0  0  0
  188.6940  177.8800  139.2420 N   0  0  0  0  0  2  0  0  0  0  0  0
  188.1750  178.0990  141.5300 N   0  0  0  0  0  0  0  0  0  0  0  0
  190.2950  177.3250  140.8680 O   0  0  0  0  0  0  0  0  0  0  0  0
  189.1420  177.7310  140.5730 C   0  0  0  0  0  0  0  0  0  0  0  0
  186.3710  177.6220  138.5650 C   0  0  0  0  0  3  0  0  0  0  0  0
  185.4910  178.1440  137.7150 C   0  0  0  0  0  3  0  0  0  0  0  0
  183.6960  175.0680  138.1260 C   0  0  0  0  0  3  0  0  0  0  0  0
  184.5650  177.2620  137.0220 C   0  0  0  0  0  3  0  0  0  0  0  0
  184.1450  176.1650  137.5840 C   0  0  0  0  0  0  0  0  0  0  0  0
  182.4760  174.3510  137.6010 C   0  0  1  0  0  3  0  0  0  0  0  0
  181.3110  175.4070  139.4220 O   0  0  0  0  0  1  0  0  0  0  0  0
  180.0910  173.7370  138.2540 C   0  0  0  0  0  1  0  0  0  0  0  0
  180.6210  175.8460  137.3070 O   0  0  0  0  0  1  0  0  0  0  0  0
  181.1210  174.8550  138.1520 C   0  0  0  0  0  0  0  0  0  0  0  0
  182.5150  174.0730  136.0910 C   0  0  0  0  0  2  0  0  0  0  0  0
  183.2750  172.8020  135.7370 C   0  0  0  0  0  2  0  0  0  0  0  0
  183.5330  170.4020  136.2730 C   0  0  0  0  0  1  0  0  0  0  0  0
  182.6490  171.6200  136.4480 C   0  0  0  0  0  2  0  0  0  0  0  0
  185.7580  178.2810  143.5430 O   0  0  0  0  0  0  0  0  0  0  0  0
  184.5830  178.5690  144.2460 C   0  0  0  0  0  2  0  0  0  0  0  0
  182.0370  178.8030  143.8390 C   0  0  0  0  0  2  0  0  0  0  0  0
  183.4360  178.6820  143.3010 C   0  0  0  0  0  0  0  0  0  0  0  0
  181.1360  179.5830  142.8720 C   0  0  0  0  0  2  0  0  0  0  0  0
  183.6390  178.5560  141.9850 C   0  0  0  0  0  3  0  0  0  0  0  0
  182.5180  178.6820  141.0360 C   0  0  0  0  0  3  0  0  0  0  0  0
  181.3210  179.1140  141.4480 C   0  0  0  0  0  0  0  0  0  0  0  0
  179.6720  182.2780  138.5080 C   0  0  0  0  0  3  0  0  0  0  0  0
  180.4070  181.4750  136.3220 C   0  0  0  0  0  3  0  0  0  0  0  0
  179.9660  181.0140  139.0180 C   0  0  0  0  0  0  0  0  0  0  0  0
  180.4610  180.0120  138.2320 C   0  0  0  0  0  0  0  0  0  0  0  0
  179.8100  180.6010  140.3220 O   0  0  0  0  0  0  0  0  0  0  0  0
  179.8960  182.5040  137.1400 C   0  0  0  0  0  3  0  0  0  0  0  0
  180.6770  178.7890  139.0490 C   0  0  0  0  0  2  0  0  0  0  0  0
  180.6940  180.2130  136.8680 C   0  0  0  0  0  0  0  0  0  0  0  0
  180.2130  179.2370  140.4530 C   0  0  1  0  0  3  0  0  0  0  0  0
  181.3440  178.9400  135.8510 Cl  0  0  0  0  0  0  0  0  0  0  0  0
  1 38  1  6  0  0  0
  2  1  1  6  0  0  0
  2  4  1  0  0  0  0
  2  3  1  0  0  0  0
  3  5  1  1  0  0  0
  4  3  1  0  0  0  0
  6  5  1  0  0  0  0
  7  8  1  0  0  0  0
  7  6  1  0  0  0  0
  9  8  1  0  0  0  0
 10 11  1  6  0  0  0
 10  9  1  0  0  0  0
 13 12  1  1  0  0  0
 13 14  1  0  0  0  0
 13 10  1  0  0  0  0
 16 15  1  6  0  0  0
 16  1  1  0  0  0  0
 17 16  1  0  0  0  0
 18 24  1  6  0  0  0
 18 19  1  0  0  0  0
 19 21  1  0  0  0  0
 20 18  1  0  0  0  0
 20 23  1  0  0  0  0
 21 17  1  0  0  0  0
 23 22  2  0  0  0  0
 23 21  1  0  0  0  0
 25 24  2  0  0  0  0
 27 28  2  0  0  0  0
 27 25  1  0  0  0  0
 28 26  2  0  0  0  0
 29 34  1  6  0  0  0
 29 26  1  0  0  0  0
 29 33  1  0  0  0  0
 32 33  1  0  0  0  0
 33 31  1  0  0  0  0
 33 30  1  0  0  0  0
 35 34  1  0  0  0  0
 35 37  1  0  0  0  0
 36 37  1  0  0  0  0
 38 39  1  0  0  0  0
 41 40  1  0  0  0  0
 41 39  1  0  0  0  0
 42 40  1  0  0  0  0
 43 41  2  0  0  0  0
 44 45  2  0  0  0  0
 44 43  1  0  0  0  0
 45 42  1  0  0  0  0
 46 48  1  0  0  0  0
 47 53  2  0  0  0  0
 47 51  1  0  0  0  0
 48 50  1  0  0  0  0
 49 48  2  0  0  0  0
 49 52  1  0  0  0  0
 50 54  1  0  0  0  0
 51 46  2  0  0  0  0
 52 54  1  0  0  0  0
 53 49  1  0  0  0  0
 54 45  1  1  0  0  0
 55 53  1  0  0  0  0
M  END
>  <MODEL>
3

>  <REMARK>
 VINA RESULT:      -6.3      1.351      2.175
  Name = 
  22 active torsions:
  status: ('A' for Active; 'I' for Inactive)
    1  A    between atoms: C_2  and  C_22
    2  A    between atoms: C_3  and  O_18
    3  A    between atoms: C_3  and  C_25
    4  A    between atoms: C_3  and  C_53
    5  A    between atoms: C_4  and  C_7
    6  A    between atoms: C_5  and  N_16
    7  A    between atoms: C_5  and  C_53
    8  A    between atoms: C_11  and  C_14
    9  A    between atoms: C_12  and  C_17
   10  A    between atoms: C_12  and  C_45
   11  A    between atoms: C_14  and  O_18
   12  A    between atoms: C_17  and  C_26
   13  A    between atoms: C_19  and  C_38
   14  A    between atoms: C_22  and  C_48
   15  A    between atoms: C_22  and  C_54
   16  A    between atoms: C_26  and  O_31
   17  A    between atoms: O_31  and  C_44
   18  A    between atoms: C_33  and  C_39
   19  A    between atoms: C_35  and  C_52
   20  A    between atoms: C_39  and  C_44
   21  A    between atoms: C_40  and  C_41
   22  A    between atoms: C_40  and  C_54
                            x       y       z     vdW  Elec       q    Type
                         _______ _______ _______ _____ _____    ______ ____

>  <TORSDO>
F 22

$$$$
=
 OpenBabel10222416013D

 55 59  0  0  1  0  0  0  0  0999 V2000
  188.5510  177.5570  140.6090 C   0  0  2  0  0  3  0  0  0  0  0  0
  189.4420  177.7360  141.8600 C   0  0  2  0  0  3  0  0  0  0  0  0
  190.0790  176.4560  142.2630 C   0  0  2  0  0  3  0  0  0  0  0  0
  188.9810  176.9910  142.9650 O   0  0  0  0  0  0  0  0  0  0  0  0
  191.3720  176.7480  143.0100 C   0  0  0  0  0  2  0  0  0  0  0  0
  191.2500  176.4010  144.4850 C   0  0  0  0  0  2  0  0  0  0  0  0
  191.6480  177.4900  145.2710 O   0  0  0  0  0  0  0  0  0  0  0  0
  190.4680  177.9190  145.8800 C   0  0  0  0  0  2  0  0  0  0  0  0
  189.7190  176.7330  146.4700 C   0  0  0  0  0  2  0  0  0  0  0  0
  188.7640  177.1660  147.5800 C   0  0  1  0  0  3  0  0  0  0  0  0
  189.3050  178.2540  148.2710 O   0  0  0  0  0  1  0  0  0  0  0  0
  187.3890  177.7740  145.5470 C   0  0  0  0  0  1  0  0  0  0  0  0
  187.3750  177.5070  147.0450 C   0  0  2  0  0  3  0  0  0  0  0  0
  186.8700  178.6250  147.7090 O   0  0  0  0  0  1  0  0  0  0  0  0
  188.8600  176.1470  138.6900 O   0  0  0  0  0  1  0  0  0  0  0  0
  189.3090  177.3200  139.2920 C   0  0  1  0  0  3  0  0  0  0  0  0
  189.1070  178.4830  138.3310 C   0  0  0  0  0  2  0  0  0  0  0  0
  186.9200  178.0880  135.2790 C   0  0  1  0  0  3  0  0  0  0  0  0
  187.0620  178.4150  136.7860 C   0  0  0  0  0  2  0  0  0  0  0  0
  188.1830  177.4950  134.8510 N   0  0  0  0  0  2  0  0  0  0  0  0
  188.4240  178.0420  137.1300 N   0  0  0  0  0  0  0  0  0  0  0  0
  190.2440  177.1630  135.9270 O   0  0  0  0  0  0  0  0  0  0  0  0
  189.0430  177.5330  135.9700 C   0  0  0  0  0  0  0  0  0  0  0  0
  185.7770  177.1640  135.0090 C   0  0  0  0  0  3  0  0  0  0  0  0
  184.6860  177.1320  135.7690 C   0  0  0  0  0  3  0  0  0  0  0  0
  182.5380  174.6730  137.2510 C   0  0  0  0  0  3  0  0  0  0  0  0
  183.6190  176.2000  135.4380 C   0  0  0  0  0  3  0  0  0  0  0  0
  183.0940  175.4380  136.3530 C   0  0  0  0  0  0  0  0  0  0  0  0
  181.2110  173.9940  137.0210 C   0  0  1  0  0  3  0  0  0  0  0  0
  181.2670  172.2870  135.3270 O   0  0  0  0  0  1  0  0  0  0  0  0
  180.1210  171.7120  137.3270 C   0  0  0  0  0  1  0  0  0  0  0  0
  182.4770  171.9640  137.2170 O   0  0  0  0  0  1  0  0  0  0  0  0
  181.2840  172.4810  136.7110 C   0  0  0  0  0  0  0  0  0  0  0  0
  180.1120  174.4170  138.0060 C   0  0  0  0  0  2  0  0  0  0  0  0
  180.6030  175.3930  139.0660 C   0  0  0  0  0  2  0  0  0  0  0  0
  179.4560  176.4270  140.9980 C   0  0  0  0  0  1  0  0  0  0  0  0
  179.8980  175.1170  140.3780 C   0  0  0  0  0  2  0  0  0  0  0  0
  187.6730  178.6450  140.4870 O   0  0  0  0  0  0  0  0  0  0  0  0
  186.7150  178.4670  141.4920 C   0  0  0  0  0  2  0  0  0  0  0  0
  184.1650  178.0660  141.6860 C   0  0  0  0  0  2  0  0  0  0  0  0
  185.3450  178.5980  140.9200 C   0  0  0  0  0  0  0  0  0  0  0  0
  182.8900  178.8580  141.3620 C   0  0  0  0  0  2  0  0  0  0  0  0
  185.1790  179.0770  139.6830 C   0  0  0  0  0  3  0  0  0  0  0  0
  183.8300  179.2290  139.1100 C   0  0  0  0  0  3  0  0  0  0  0  0
  182.7430  179.0780  139.8750 C   0  0  0  0  0  0  0  0  0  0  0  0
  180.5340  182.1610  137.2310 C   0  0  0  0  0  3  0  0  0  0  0  0
  180.4680  181.0960  135.0340 C   0  0  0  0  0  3  0  0  0  0  0  0
  180.8620  180.9170  137.7700 C   0  0  0  0  0  0  0  0  0  0  0  0
  180.9940  179.8010  136.9930 C   0  0  0  0  0  0  0  0  0  0  0  0
  181.0900  180.6350  139.0980 O   0  0  0  0  0  0  0  0  0  0  0  0
  180.3340  182.2440  135.8430 C   0  0  0  0  0  3  0  0  0  0  0  0
  181.3480  178.6330  137.8410 C   0  0  0  0  0  2  0  0  0  0  0  0
  180.8010  179.8590  135.6090 C   0  0  0  0  0  0  0  0  0  0  0  0
  181.3920  179.2490  139.2580 C   0  0  1  0  0  3  0  0  0  0  0  0
  180.9820  178.4370  134.5980 Cl  0  0  0  0  0  0  0  0  0  0  0  0
  1 38  1  6  0  0  0
  2  1  1  6  0  0  0
  2  3  1  0  0  0  0
  2  4  1  0  0  0  0
  3  4  1  0  0  0  0
  3  5  1  1  0  0  0
  5  6  1  0  0  0  0
  6  7  1  0  0  0  0
  7  8  1  0  0  0  0
  8  9  1  0  0  0  0
  9 10  1  0  0  0  0
 10 11  1  6  0  0  0
 13 12  1  6  0  0  0
 13 10  1  0  0  0  0
 13 14  1  0  0  0  0
 16 15  1  6  0  0  0
 16  1  1  0  0  0  0
 17 16  1  0  0  0  0
 18 24  1  1  0  0  0
 18 19  1  0  0  0  0
 19 21  1  0  0  0  0
 20 18  1  0  0  0  0
 20 23  1  0  0  0  0
 21 17  1  0  0  0  0
 22 23  2  0  0  0  0
 23 21  1  0  0  0  0
 24 25  2  0  0  0  0
 27 25  1  0  0  0  0
 27 28  2  0  0  0  0
 28 26  2  0  0  0  0
 29 26  1  1  0  0  0
 29 34  1  0  0  0  0
 30 33  1  0  0  0  0
 33 29  1  0  0  0  0
 33 32  1  0  0  0  0
 33 31  1  0  0  0  0
 34 35  1  0  0  0  0
 35 37  1  0  0  0  0
 37 36  1  0  0  0  0
 38 39  1  0  0  0  0
 41 39  1  0  0  0  0
 41 40  1  0  0  0  0
 42 40  1  0  0  0  0
 43 41  2  0  0  0  0
 44 43  1  0  0  0  0
 44 45  2  0  0  0  0
 45 42  1  0  0  0  0
 46 48  1  0  0  0  0
 47 53  2  0  0  0  0
 47 51  1  0  0  0  0
 48 50  1  0  0  0  0
 49 48  2  0  0  0  0
 49 52  1  0  0  0  0
 50 54  1  0  0  0  0
 51 46  2  0  0  0  0
 52 54  1  0  0  0  0
 53 49  1  0  0  0  0
 54 45  1  6  0  0  0
 55 53  1  0  0  0  0
M  END
>  <MODEL>
4

>  <REMARK>
 VINA RESULT:      -6.2      1.718      3.224
  Name = 
  22 active torsions:
  status: ('A' for Active; 'I' for Inactive)
    1  A    between atoms: C_2  and  C_22
    2  A    between atoms: C_3  and  O_18
    3  A    between atoms: C_3  and  C_25
    4  A    between atoms: C_3  and  C_53
    5  A    between atoms: C_4  and  C_7
    6  A    between atoms: C_5  and  N_16
    7  A    between atoms: C_5  and  C_53
    8  A    between atoms: C_11  and  C_14
    9  A    between atoms: C_12  and  C_17
   10  A    between atoms: C_12  and  C_45
   11  A    between atoms: C_14  and  O_18
   12  A    between atoms: C_17  and  C_26
   13  A    between atoms: C_19  and  C_38
   14  A    between atoms: C_22  and  C_48
   15  A    between atoms: C_22  and  C_54
   16  A    between atoms: C_26  and  O_31
   17  A    between atoms: O_31  and  C_44
   18  A    between atoms: C_33  and  C_39
   19  A    between atoms: C_35  and  C_52
   20  A    between atoms: C_39  and  C_44
   21  A    between atoms: C_40  and  C_41
   22  A    between atoms: C_40  and  C_54
                            x       y       z     vdW  Elec       q    Type
                         _______ _______ _______ _____ _____    ______ ____

>  <TORSDO>
F 22

$$$$
=
 OpenBabel10222416013D

 55 59  0  0  1  0  0  0  0  0999 V2000
  188.2760  177.7840  140.9940 C   0  0  2  0  0  3  0  0  0  0  0  0
  188.7250  177.9470  142.4650 C   0  0  2  0  0  3  0  0  0  0  0  0
  189.9330  177.1340  142.7580 C   0  0  2  0  0  3  0  0  0  0  0  0
  188.6520  176.7400  143.1910 O   0  0  0  0  0  0  0  0  0  0  0  0
  190.7020  177.7690  143.9080 C   0  0  0  0  0  2  0  0  0  0  0  0
  191.2760  176.7130  144.8400 C   0  0  0  0  0  2  0  0  0  0  0  0
  191.2520  177.1740  146.1620 O   0  0  0  0  0  0  0  0  0  0  0  0
  189.9420  177.6200  146.3430 C   0  0  0  0  0  2  0  0  0  0  0  0
  189.2140  176.7240  147.3340 C   0  0  0  0  0  2  0  0  0  0  0  0
  187.8630  177.3100  147.7360 C   0  0  1  0  0  3  0  0  0  0  0  0
  188.0280  178.1840  148.8150 O   0  0  0  0  0  1  0  0  0  0  0  0
  186.1510  179.0400  147.0490 C   0  0  0  0  0  1  0  0  0  0  0  0
  187.1740  178.0200  146.5720 C   0  0  2  0  0  3  0  0  0  0  0  0
  186.5460  177.0850  145.7480 O   0  0  0  0  0  1  0  0  0  0  0  0
  189.4380  176.4290  139.3890 O   0  0  0  0  0  1  0  0  0  0  0  0
  189.4160  177.6970  139.9660 C   0  0  1  0  0  3  0  0  0  0  0  0
  189.2440  178.7400  138.8720 C   0  0  0  0  0  2  0  0  0  0  0  0
  187.1040  178.0010  135.8510 C   0  0  1  0  0  3  0  0  0  0  0  0
  187.2220  178.4930  137.3130 C   0  0  0  0  0  2  0  0  0  0  0  0
  188.3750  177.3700  135.5090 N   0  0  0  0  0  2  0  0  0  0  0  0
  188.5800  178.1670  137.7170 N   0  0  0  0  0  0  0  0  0  0  0  0
  190.4200  177.1680  136.6450 O   0  0  0  0  0  0  0  0  0  0  0  0
  189.2180  177.5350  136.6290 C   0  0  0  0  0  0  0  0  0  0  0  0
  185.9680  177.0470  135.6670 C   0  0  0  0  0  3  0  0  0  0  0  0
  184.7300  177.3230  136.0660 C   0  0  0  0  0  3  0  0  0  0  0  0
  182.6850  174.9630  137.8280 C   0  0  0  0  0  3  0  0  0  0  0  0
  183.6810  176.3380  135.8520 C   0  0  0  0  0  3  0  0  0  0  0  0
  183.1980  175.6530  136.8480 C   0  0  0  0  0  0  0  0  0  0  0  0
  181.3700  174.2330  137.6970 C   0  0  1  0  0  3  0  0  0  0  0  0
  179.6970  175.9580  137.6090 O   0  0  0  0  0  1  0  0  0  0  0  0
  180.5290  175.4450  139.7730 C   0  0  0  0  0  1  0  0  0  0  0  0
  179.1400  173.9680  138.5430 O   0  0  0  0  0  1  0  0  0  0  0  0
  180.1650  174.9030  138.3970 C   0  0  0  0  0  0  0  0  0  0  0  0
  181.0980  173.6830  136.2890 C   0  0  0  0  0  2  0  0  0  0  0  0
  182.0360  172.5500  135.8980 C   0  0  0  0  0  2  0  0  0  0  0  0
  182.0180  170.1300  135.3920 C   0  0  0  0  0  1  0  0  0  0  0  0
  181.3990  171.2200  136.2440 C   0  0  0  0  0  2  0  0  0  0  0  0
  187.3770  178.8070  140.6530 O   0  0  0  0  0  0  0  0  0  0  0  0
  186.3730  178.7640  141.6260 C   0  0  0  0  0  2  0  0  0  0  0  0
  183.8590  178.1500  141.7150 C   0  0  0  0  0  2  0  0  0  0  0  0
  185.0320  178.7360  140.9770 C   0  0  0  0  0  0  0  0  0  0  0  0
  182.5430  178.8030  141.2720 C   0  0  0  0  0  2  0  0  0  0  0  0
  184.8980  179.1200  139.7030 C   0  0  0  0  0  3  0  0  0  0  0  0
  183.5750  179.1150  139.0520 C   0  0  0  0  0  3  0  0  0  0  0  0
  182.4630  178.9150  139.7680 C   0  0  0  0  0  0  0  0  0  0  0  0
  179.2390  182.0000  138.5560 C   0  0  0  0  0  3  0  0  0  0  0  0
  179.5550  182.2500  136.1470 C   0  0  0  0  0  3  0  0  0  0  0  0
  180.0120  180.8410  138.4880 C   0  0  0  0  0  0  0  0  0  0  0  0
  180.5440  180.3910  137.3130 C   0  0  0  0  0  0  0  0  0  0  0  0
  180.3410  180.0150  139.5390 O   0  0  0  0  0  0  0  0  0  0  0  0
  179.0100  182.7080  137.3650 C   0  0  0  0  0  3  0  0  0  0  0  0
  181.3160  179.1440  137.5520 C   0  0  0  0  0  2  0  0  0  0  0  0
  180.3310  181.0800  136.1150 C   0  0  0  0  0  0  0  0  0  0  0  0
  181.1410  178.9270  139.0720 C   0  0  1  0  0  3  0  0  0  0  0  0
  181.0200  180.5210  134.6010 Cl  0  0  0  0  0  0  0  0  0  0  0  0
  1 38  1  6  0  0  0
  2  1  1  6  0  0  0
  2  3  1  0  0  0  0
  2  4  1  0  0  0  0
  3  4  1  0  0  0  0
  3  5  1  1  0  0  0
  5  6  1  0  0  0  0
  6  7  1  0  0  0  0
  7  8  1  0  0  0  0
  8  9  1  0  0  0  0
  9 10  1  0  0  0  0
 10 11  1  1  0  0  0
 13 12  1  1  0  0  0
 13 10  1  0  0  0  0
 14 13  1  0  0  0  0
 16 15  1  6  0  0  0
 16  1  1  0  0  0  0
 17 16  1  0  0  0  0
 18 24  1  1  0  0  0
 18 19  1  0  0  0  0
 19 21  1  0  0  0  0
 20 18  1  0  0  0  0
 20 23  1  0  0  0  0
 21 17  1  0  0  0  0
 23 22  2  0  0  0  0
 23 21  1  0  0  0  0
 24 25  2  0  0  0  0
 27 25  1  0  0  0  0
 27 28  2  0  0  0  0
 28 26  2  0  0  0  0
 29 34  1  6  0  0  0
 29 26  1  0  0  0  0
 29 33  1  0  0  0  0
 30 33  1  0  0  0  0
 33 32  1  0  0  0  0
 33 31  1  0  0  0  0
 35 37  1  0  0  0  0
 35 34  1  0  0  0  0
 36 37  1  0  0  0  0
 38 39  1  0  0  0  0
 41 39  1  0  0  0  0
 41 40  1  0  0  0  0
 42 40  1  0  0  0  0
 43 41  2  0  0  0  0
 44 43  1  0  0  0  0
 44 45  2  0  0  0  0
 45 42  1  0  0  0  0
 47 51  1  0  0  0  0
 48 46  1  0  0  0  0
 48 50  1  0  0  0  0
 49 52  1  0  0  0  0
 49 48  2  0  0  0  0
 51 46  2  0  0  0  0
 52 54  1  0  0  0  0
 53 47  2  0  0  0  0
 53 49  1  0  0  0  0
 54 50  1  0  0  0  0
 54 45  1  1  0  0  0
 55 53  1  0  0  0  0
M  END
>  <MODEL>
5

>  <REMARK>
 VINA RESULT:      -6.2      1.734      3.525
  Name = 
  22 active torsions:
  status: ('A' for Active; 'I' for Inactive)
    1  A    between atoms: C_2  and  C_22
    2  A    between atoms: C_3  and  O_18
    3  A    between atoms: C_3  and  C_25
    4  A    between atoms: C_3  and  C_53
    5  A    between atoms: C_4  and  C_7
    6  A    between atoms: C_5  and  N_16
    7  A    between atoms: C_5  and  C_53
    8  A    between atoms: C_11  and  C_14
    9  A    between atoms: C_12  and  C_17
   10  A    between atoms: C_12  and  C_45
   11  A    between atoms: C_14  and  O_18
   12  A    between atoms: C_17  and  C_26
   13  A    between atoms: C_19  and  C_38
   14  A    between atoms: C_22  and  C_48
   15  A    between atoms: C_22  and  C_54
   16  A    between atoms: C_26  and  O_31
   17  A    between atoms: O_31  and  C_44
   18  A    between atoms: C_33  and  C_39
   19  A    between atoms: C_35  and  C_52
   20  A    between atoms: C_39  and  C_44
   21  A    between atoms: C_40  and  C_41
   22  A    between atoms: C_40  and  C_54
                            x       y       z     vdW  Elec       q    Type
                         _______ _______ _______ _____ _____    ______ ____

>  <TORSDO>
F 22

$$$$
=
 OpenBabel10222416013D

 55 59  0  0  1  0  0  0  0  0999 V2000
  190.9670  177.1800  140.2090 C   0  0  2  0  0  3  0  0  0  0  0  0
  191.4850  177.5870  141.6070 C   0  0  2  0  0  3  0  0  0  0  0  0
  190.8720  176.7590  142.6780 C   0  0  2  0  0  3  0  0  0  0  0  0
  190.4630  178.0870  142.4400 O   0  0  0  0  0  0  0  0  0  0  0  0
  191.8090  176.7060  143.8750 C   0  0  0  0  0  2  0  0  0  0  0  0
  191.0620  176.3350  145.1470 C   0  0  0  0  0  2  0  0  0  0  0  0
  191.5220  177.1110  146.2190 O   0  0  0  0  0  0  0  0  0  0  0  0
  190.3890  177.3020  147.0110 C   0  0  0  0  0  2  0  0  0  0  0  0
  189.2100  177.7260  146.1480 C   0  0  0  0  0  2  0  0  0  0  0  0
  187.8800  177.2850  146.7560 C   0  0  1  0  0  3  0  0  0  0  0  0
  187.6800  177.9330  147.9770 O   0  0  0  0  0  1  0  0  0  0  0  0
  187.0310  177.1630  144.3770 C   0  0  0  0  0  1  0  0  0  0  0  0
  186.7040  177.5390  145.8150 C   0  0  2  0  0  3  0  0  0  0  0  0
  186.3320  178.8830  145.8690 O   0  0  0  0  0  1  0  0  0  0  0  0
  193.2710  177.5090  139.6180 O   0  0  0  0  0  1  0  0  0  0  0  0
  192.0220  177.1890  139.0900 C   0  0  1  0  0  3  0  0  0  0  0  0
  192.1030  175.8320  138.4070 C   0  0  0  0  0  2  0  0  0  0  0  0
  190.3160  176.7660  135.2150 C   0  0  1  0  0  3  0  0  0  0  0  0
  190.3430  176.7120  136.7610 C   0  0  0  0  0  2  0  0  0  0  0  0
  191.4070  175.9220  134.7390 N   0  0  0  0  0  2  0  0  0  0  0  0
  191.4880  175.8810  137.0940 N   0  0  0  0  0  0  0  0  0  0  0  0
  193.1320  174.7640  135.8350 O   0  0  0  0  0  0  0  0  0  0  0  0
  192.0880  175.4630  135.8880 C   0  0  0  0  0  0  0  0  0  0  0  0
  189.0070  176.3100  134.6580 C   0  0  0  0  0  3  0  0  0  0  0  0
  187.9830  175.9580  135.4310 C   0  0  0  0  0  3  0  0  0  0  0  0
  184.9260  174.2310  136.1580 C   0  0  0  0  0  3  0  0  0  0  0  0
  186.7430  175.5220  134.8090 C   0  0  0  0  0  3  0  0  0  0  0  0
  185.8480  174.8710  135.4940 C   0  0  0  0  0  0  0  0  0  0  0  0
  183.5090  174.1070  135.6540 C   0  0  1  0  0  3  0  0  0  0  0  0
  183.6310  171.9210  134.6580 O   0  0  0  0  0  1  0  0  0  0  0  0
  181.4560  172.6470  135.2790 C   0  0  0  0  0  1  0  0  0  0  0  0
  183.1240  172.0690  136.8630 O   0  0  0  0  0  1  0  0  0  0  0  0
  182.9410  172.6690  135.6170 C   0  0  0  0  0  0  0  0  0  0  0  0
  182.5560  175.1820  136.1960 C   0  0  0  0  0  2  0  0  0  0  0  0
  183.0700  175.8550  137.4600 C   0  0  0  0  0  2  0  0  0  0  0  0
  181.0390  174.7330  138.3140 C   0  0  0  0  0  1  0  0  0  0  0  0
  182.4310  175.2140  138.6740 C   0  0  0  0  0  2  0  0  0  0  0  0
  189.8640  177.9740  139.8580 O   0  0  0  0  0  0  0  0  0  0  0  0
  188.8210  177.0770  139.6060 C   0  0  0  0  0  2  0  0  0  0  0  0
  186.9020  178.1520  138.2410 C   0  0  0  0  0  2  0  0  0  0  0  0
  187.5200  177.8030  139.5680 C   0  0  0  0  0  0  0  0  0  0  0  0
  185.3720  178.2200  138.3440 C   0  0  0  0  0  2  0  0  0  0  0  0
  186.9670  178.2460  140.7020 C   0  0  0  0  0  3  0  0  0  0  0  0
  185.6730  178.9500  140.6820 C   0  0  0  0  0  3  0  0  0  0  0  0
  184.9350  178.9910  139.5670 C   0  0  0  0  0  0  0  0  0  0  0  0
  180.9520  178.9570  137.2200 C   0  0  0  0  0  3  0  0  0  0  0  0
  179.4000  177.8300  138.7310 C   0  0  0  0  0  3  0  0  0  0  0  0
  181.8150  179.1200  138.3040 C   0  0  0  0  0  0  0  0  0  0  0  0
  181.5030  178.6630  139.5530 C   0  0  0  0  0  0  0  0  0  0  0  0
  183.0470  179.7330  138.2850 O   0  0  0  0  0  0  0  0  0  0  0  0
  179.7290  178.3050  137.4440 C   0  0  0  0  0  3  0  0  0  0  0  0
  182.6080  178.9770  140.4960 C   0  0  0  0  0  2  0  0  0  0  0  0
  180.2930  178.0090  139.8010 C   0  0  0  0  0  0  0  0  0  0  0  0
  183.6250  179.7090  139.5910 C   0  0  1  0  0  3  0  0  0  0  0  0
  179.8870  177.4040  141.3970 Cl  0  0  0  0  0  0  0  0  0  0  0  0
  1 38  1  6  0  0  0
  2  1  1  6  0  0  0
  2  4  1  0  0  0  0
  2  3  1  0  0  0  0
  3  5  1  1  0  0  0
  4  3  1  0  0  0  0
  5  6  1  0  0  0  0
  6  7  1  0  0  0  0
  7  8  1  0  0  0  0
  9 10  1  0  0  0  0
  9  8  1  0  0  0  0
 10 11  1  1  0  0  0
 13 12  1  6  0  0  0
 13 14  1  0  0  0  0
 13 10  1  0  0  0  0
 16 15  1  1  0  0  0
 16  1  1  0  0  0  0
 17 16  1  0  0  0  0
 18 24  1  6  0  0  0
 18 19  1  0  0  0  0
 19 21  1  0  0  0  0
 20 18  1  0  0  0  0
 20 23  1  0  0  0  0
 21 17  1  0  0  0  0
 22 23  2  0  0  0  0
 23 21  1  0  0  0  0
 24 25  2  0  0  0  0
 27 25  1  0  0  0  0
 27 28  2  0  0  0  0
 28 26  2  0  0  0  0
 29 26  1  1  0  0  0
 29 34  1  0  0  0  0
 30 33  1  0  0  0  0
 31 33  1  0  0  0  0
 33 29  1  0  0  0  0
 33 32  1  0  0  0  0
 34 35  1  0  0  0  0
 35 37  1  0  0  0  0
 36 37  1  0  0  0  0
 39 38  1  0  0  0  0
 40 42  1  0  0  0  0
 40 41  1  0  0  0  0
 41 39  1  0  0  0  0
 41 43  2  0  0  0  0
 42 45  1  0  0  0  0
 44 43  1  0  0  0  0
 45 44  2  0  0  0  0
 46 51  2  0  0  0  0
 46 48  1  0  0  0  0
 47 53  2  0  0  0  0
 48 49  2  0  0  0  0
 49 53  1  0  0  0  0
 49 52  1  0  0  0  0
 50 48  1  0  0  0  0
 50 54  1  0  0  0  0
 51 47  1  0  0  0  0
 53 55  1  0  0  0  0
 54 45  1  6  0  0  0
 54 52  1  0  0  0  0
M  END
>  <MODEL>
6

>  <REMARK>
 VINA RESULT:      -5.9      2.603      4.597
  Name = 
  22 active torsions:
  status: ('A' for Active; 'I' for Inactive)
    1  A    between atoms: C_2  and  C_22
    2  A    between atoms: C_3  and  O_18
    3  A    between atoms: C_3  and  C_25
    4  A    between atoms: C_3  and  C_53
    5  A    between atoms: C_4  and  C_7
    6  A    between atoms: C_5  and  N_16
    7  A    between atoms: C_5  and  C_53
    8  A    between atoms: C_11  and  C_14
    9  A    between atoms: C_12  and  C_17
   10  A    between atoms: C_12  and  C_45
   11  A    between atoms: C_14  and  O_18
   12  A    between atoms: C_17  and  C_26
   13  A    between atoms: C_19  and  C_38
   14  A    between atoms: C_22  and  C_48
   15  A    between atoms: C_22  and  C_54
   16  A    between atoms: C_26  and  O_31
   17  A    between atoms: O_31  and  C_44
   18  A    between atoms: C_33  and  C_39
   19  A    between atoms: C_35  and  C_52
   20  A    between atoms: C_39  and  C_44
   21  A    between atoms: C_40  and  C_41
   22  A    between atoms: C_40  and  C_54
                            x       y       z     vdW  Elec       q    Type
                         _______ _______ _______ _____ _____    ______ ____

>  <TORSDO>
F 22

$$$$
=
 OpenBabel10222416013D

 55 59  0  0  1  0  0  0  0  0999 V2000
  188.3240  178.5350  141.5810 C   0  0  2  0  0  3  0  0  0  0  0  0
  189.4780  177.5540  141.8900 C   0  0  2  0  0  3  0  0  0  0  0  0
  190.6370  178.2520  142.5020 C   0  0  2  0  0  3  0  0  0  0  0  0
  190.6460  177.8420  141.1540 O   0  0  0  0  0  0  0  0  0  0  0  0
  191.4270  177.2690  143.3540 C   0  0  0  0  0  2  0  0  0  0  0  0
  191.8740  177.9040  144.6610 C   0  0  0  0  0  2  0  0  0  0  0  0
  191.5110  177.0900  145.7410 O   0  0  0  0  0  0  0  0  0  0  0  0
  190.1860  176.7420  145.4750 C   0  0  0  0  0  2  0  0  0  0  0  0
  189.2430  177.8040  146.0210 C   0  0  0  0  0  2  0  0  0  0  0  0
  188.6620  177.3990  147.3730 C   0  0  1  0  0  3  0  0  0  0  0  0
  189.4350  177.9410  148.4030 O   0  0  0  0  0  1  0  0  0  0  0  0
  186.4810  177.8700  146.1820 C   0  0  0  0  0  1  0  0  0  0  0  0
  187.2010  177.8200  147.5220 C   0  0  2  0  0  3  0  0  0  0  0  0
  187.1250  179.0720  148.1340 O   0  0  0  0  0  1  0  0  0  0  0  0
  187.0420  177.0220  142.9340 O   0  0  0  0  0  1  0  0  0  0  0  0
  186.9260  178.0630  142.0160 C   0  0  1  0  0  3  0  0  0  0  0  0
  186.1390  179.2010  142.6480 C   0  0  0  0  0  2  0  0  0  0  0  0
  182.7740  178.3830  141.1460 C   0  0  1  0  0  3  0  0  0  0  0  0
  184.2910  178.6280  140.9650 C   0  0  0  0  0  2  0  0  0  0  0  0
  182.4280  178.8260  142.4930 N   0  0  0  0  0  2  0  0  0  0  0  0
  184.7480  179.1510  142.2420 N   0  0  0  0  0  0  0  0  0  0  0  0
  183.7070  179.6010  144.3030 O   0  0  0  0  0  0  0  0  0  0  0  0
  183.6350  179.2280  143.1040 C   0  0  0  0  0  0  0  0  0  0  0  0
  181.9600  179.1030  140.1210 C   0  0  0  0  0  3  0  0  0  0  0  0
  180.6330  179.1660  140.1750 C   0  0  0  0  0  3  0  0  0  0  0  0
  180.9680  181.9430  137.9320 C   0  0  0  0  0  3  0  0  0  0  0  0
  179.9150  179.8860  139.1350 C   0  0  0  0  0  3  0  0  0  0  0  0
  180.4510  180.9170  138.5480 C   0  0  0  0  0  0  0  0  0  0  0  0
  180.4190  182.4580  136.6240 C   0  0  1  0  0  3  0  0  0  0  0  0
  180.7940  184.2760  135.0940 O   0  0  0  0  0  1  0  0  0  0  0  0
  181.5570  184.6300  137.3150 C   0  0  0  0  0  1  0  0  0  0  0  0
  179.2580  184.5560  136.7370 O   0  0  0  0  0  1  0  0  0  0  0  0
  180.4960  183.9900  136.4290 C   0  0  0  0  0  0  0  0  0  0  0  0
  180.8140  181.6140  135.4030 C   0  0  0  0  0  2  0  0  0  0  0  0
  179.7340  180.6270  134.9850 C   0  0  0  0  0  2  0  0  0  0  0  0
  181.1620  178.7680  135.7740 C   0  0  0  0  0  1  0  0  0  0  0  0
  180.3720  179.3090  134.5990 C   0  0  0  0  0  2  0  0  0  0  0  0
  188.3330  178.8700  140.2180 O   0  0  0  0  0  0  0  0  0  0  0  0
  187.5770  177.8780  139.5830 C   0  0  0  0  0  2  0  0  0  0  0  0
  189.4880  178.0980  137.8510 C   0  0  0  0  0  2  0  0  0  0  0  0
  188.3310  177.3250  138.4230 C   0  0  0  0  0  0  0  0  0  0  0  0
  190.5230  177.1580  137.2170 C   0  0  0  0  0  2  0  0  0  0  0  0
  187.9070  176.2100  137.8190 C   0  0  0  0  0  3  0  0  0  0  0  0
  188.6510  175.6410  136.6810 C   0  0  0  0  0  3  0  0  0  0  0  0
  189.8600  176.1110  136.3540 C   0  0  0  0  0  0  0  0  0  0  0  0
  193.7010  173.6440  135.6200 C   0  0  0  0  0  3  0  0  0  0  0  0
  192.8670  171.3890  135.1920 C   0  0  0  0  0  3  0  0  0  0  0  0
  192.4030  174.1110  135.4120 C   0  0  0  0  0  0  0  0  0  0  0  0
  191.3690  173.2710  135.1100 C   0  0  0  0  0  0  0  0  0  0  0  0
  191.9850  175.4210  135.4760 O   0  0  0  0  0  0  0  0  0  0  0  0
  193.9290  172.2630  135.5040 C   0  0  0  0  0  3  0  0  0  0  0  0
  190.1140  174.0510  134.9500 C   0  0  0  0  0  2  0  0  0  0  0  0
  191.5710  171.8930  134.9920 C   0  0  0  0  0  0  0  0  0  0  0  0
  190.5860  175.5010  135.1990 C   0  0  1  0  0  3  0  0  0  0  0  0
  190.2490  170.8010  134.6190 Cl  0  0  0  0  0  0  0  0  0  0  0  0
  1 38  1  6  0  0  0
  1 16  1  0  0  0  0
  2  1  1  6  0  0  0
  2  3  1  0  0  0  0
  3  5  1  1  0  0  0
  4  2  1  0  0  0  0
  4  3  1  0  0  0  0
  5  6  1  0  0  0  0
  6  7  1  0  0  0  0
  8  7  1  0  0  0  0
  8  9  1  0  0  0  0
  9 10  1  0  0  0  0
 10 13  1  0  0  0  0
 10 11  1  1  0  0  0
 13 12  1  6  0  0  0
 13 14  1  0  0  0  0
 16 17  1  0  0  0  0
 16 15  1  1  0  0  0
 18 24  1  6  0  0  0
 18 20  1  0  0  0  0
 19 18  1  0  0  0  0
 19 21  1  0  0  0  0
 20 23  1  0  0  0  0
 21 17  1  0  0  0  0
 21 23  1  0  0  0  0
 23 22  2  0  0  0  0
 24 25  2  0  0  0  0
 26 28  2  0  0  0  0
 27 25  1  0  0  0  0
 28 27  2  0  0  0  0
 29 34  1  6  0  0  0
 29 26  1  0  0  0  0
 30 33  1  0  0  0  0
 33 29  1  0  0  0  0
 33 32  1  0  0  0  0
 33 31  1  0  0  0  0
 35 34  1  0  0  0  0
 37 35  1  0  0  0  0
 37 36  1  0  0  0  0
 39 38  1  0  0  0  0
 40 41  1  0  0  0  0
 41 39  1  0  0  0  0
 42 40  1  0  0  0  0
 43 41  2  0  0  0  0
 44 43  1  0  0  0  0
 45 44  2  0  0  0  0
 45 42  1  0  0  0  0
 47 51  2  0  0  0  0
 48 50  1  0  0  0  0
 48 46  2  0  0  0  0
 49 48  1  0  0  0  0
 51 46  1  0  0  0  0
 52 49  1  0  0  0  0
 52 54  1  0  0  0  0
 53 49  2  0  0  0  0
 53 47  1  0  0  0  0
 54 50  1  0  0  0  0
 54 45  1  1  0  0  0
 55 53  1  0  0  0  0
M  END
>  <MODEL>
7

>  <REMARK>
 VINA RESULT:      -5.9      3.860      8.387
  Name = 
  22 active torsions:
  status: ('A' for Active; 'I' for Inactive)
    1  A    between atoms: C_2  and  C_22
    2  A    between atoms: C_3  and  O_18
    3  A    between atoms: C_3  and  C_25
    4  A    between atoms: C_3  and  C_53
    5  A    between atoms: C_4  and  C_7
    6  A    between atoms: C_5  and  N_16
    7  A    between atoms: C_5  and  C_53
    8  A    between atoms: C_11  and  C_14
    9  A    between atoms: C_12  and  C_17
   10  A    between atoms: C_12  and  C_45
   11  A    between atoms: C_14  and  O_18
   12  A    between atoms: C_17  and  C_26
   13  A    between atoms: C_19  and  C_38
   14  A    between atoms: C_22  and  C_48
   15  A    between atoms: C_22  and  C_54
   16  A    between atoms: C_26  and  O_31
   17  A    between atoms: O_31  and  C_44
   18  A    between atoms: C_33  and  C_39
   19  A    between atoms: C_35  and  C_52
   20  A    between atoms: C_39  and  C_44
   21  A    between atoms: C_40  and  C_41
   22  A    between atoms: C_40  and  C_54
                            x       y       z     vdW  Elec       q    Type
                         _______ _______ _______ _____ _____    ______ ____

>  <TORSDO>
F 22

$$$$
=
 OpenBabel10222416013D

 55 59  0  0  1  0  0  0  0  0999 V2000
  189.4890  177.0560  141.6940 C   0  0  2  0  0  3  0  0  0  0  0  0
  190.3400  176.3170  142.7510 C   0  0  2  0  0  3  0  0  0  0  0  0
  190.5640  177.1580  143.9550 C   0  0  2  0  0  3  0  0  0  0  0  0
  191.5750  176.9540  142.9950 O   0  0  0  0  0  0  0  0  0  0  0  0
  190.7990  176.2610  145.1620 C   0  0  0  0  0  2  0  0  0  0  0  0
  190.7250  177.0490  146.4600 C   0  0  0  0  0  2  0  0  0  0  0  0
  189.7400  178.0400  146.3670 O   0  0  0  0  0  0  0  0  0  0  0  0
  189.0800  177.9820  147.5950 C   0  0  0  0  0  2  0  0  0  0  0  0
  187.7150  177.3300  147.4270 C   0  0  0  0  0  2  0  0  0  0  0  0
  186.8970  178.0120  146.3330 C   0  0  1  0  0  3  0  0  0  0  0  0
  186.7280  177.1390  145.2550 O   0  0  0  0  0  1  0  0  0  0  0  0
  184.5210  178.6300  145.7260 C   0  0  0  0  0  1  0  0  0  0  0  0
  185.5430  178.4990  146.8450 C   0  0  2  0  0  3  0  0  0  0  0  0
  185.6900  179.7310  147.4830 O   0  0  0  0  0  1  0  0  0  0  0  0
  191.5160  177.9810  140.7970 O   0  0  0  0  0  1  0  0  0  0  0  0
  190.2520  177.5150  140.4400 C   0  0  1  0  0  3  0  0  0  0  0  0
  190.4050  176.3720  139.4470 C   0  0  0  0  0  2  0  0  0  0  0  0
  188.8580  178.0730  136.4530 C   0  0  1  0  0  3  0  0  0  0  0  0
  188.8640  177.7990  137.9770 C   0  0  0  0  0  2  0  0  0  0  0  0
  189.7660  177.1070  135.8430 N   0  0  0  0  0  2  0  0  0  0  0  0
  189.8210  176.7230  138.1670 N   0  0  0  0  0  0  0  0  0  0  0  0
  191.2220  175.4930  136.7320 O   0  0  0  0  0  0  0  0  0  0  0  0
  190.3350  176.3680  136.9020 C   0  0  0  0  0  0  0  0  0  0  0  0
  187.4880  177.9630  135.8660 C   0  0  0  0  0  3  0  0  0  0  0  0
  186.7560  176.8570  135.9590 C   0  0  0  0  0  3  0  0  0  0  0  0
  183.5310  175.3290  136.3180 C   0  0  0  0  0  3  0  0  0  0  0  0
  185.4320  176.8310  135.3570 C   0  0  0  0  0  3  0  0  0  0  0  0
  184.4940  176.0700  135.8440 C   0  0  0  0  0  0  0  0  0  0  0  0
  182.0840  175.5640  135.9600 C   0  0  1  0  0  3  0  0  0  0  0  0
  179.7990  175.5700  136.7110 O   0  0  0  0  0  1  0  0  0  0  0  0
  181.4380  175.3020  138.4100 C   0  0  0  0  0  1  0  0  0  0  0  0
  180.9560  173.6220  136.8060 O   0  0  0  0  0  1  0  0  0  0  0  0
  181.0520  175.0050  136.9660 C   0  0  0  0  0  0  0  0  0  0  0  0
  181.7920  176.9740  135.4250 C   0  0  0  0  0  2  0  0  0  0  0  0
  182.0450  178.0670  136.4540 C   0  0  0  0  0  2  0  0  0  0  0  0
  179.7670  178.8220  135.8570 C   0  0  0  0  0  1  0  0  0  0  0  0
  181.1870  179.2730  136.1350 C   0  0  0  0  0  2  0  0  0  0  0  0
  188.8190  178.1370  142.2890 O   0  0  0  0  0  0  0  0  0  0  0  0
  188.3010  178.8870  141.2280 C   0  0  0  0  0  2  0  0  0  0  0  0
  186.0030  178.3900  142.3120 C   0  0  0  0  0  2  0  0  0  0  0  0
  186.8400  178.6290  141.0840 C   0  0  0  0  0  0  0  0  0  0  0  0
  184.5530  178.8380  142.0890 C   0  0  0  0  0  2  0  0  0  0  0  0
  186.3010  178.4910  139.8690 C   0  0  0  0  0  3  0  0  0  0  0  0
  184.8550  178.2530  139.7100 C   0  0  0  0  0  3  0  0  0  0  0  0
  184.0270  178.3610  140.7550 C   0  0  0  0  0  0  0  0  0  0  0  0
  180.0380  179.4600  142.8180 C   0  0  0  0  0  3  0  0  0  0  0  0
  179.0920  181.1820  141.3670 C   0  0  0  0  0  3  0  0  0  0  0  0
  180.9130  179.1350  141.7810 C   0  0  0  0  0  0  0  0  0  0  0  0
  180.8960  179.7940  140.5840 C   0  0  0  0  0  0  0  0  0  0  0  0
  181.8770  178.1530  141.8020 O   0  0  0  0  0  0  0  0  0  0  0  0
  179.1160  180.4970  142.6000 C   0  0  0  0  0  3  0  0  0  0  0  0
  181.9370  179.2330  139.6840 C   0  0  0  0  0  2  0  0  0  0  0  0
  179.9890  180.8300  140.3450 C   0  0  0  0  0  0  0  0  0  0  0  0
  182.5670  178.1200  140.5510 C   0  0  1  0  0  3  0  0  0  0  0  0
  179.9660  181.6940  138.8170 Cl  0  0  0  0  0  0  0  0  0  0  0  0
  1 38  1  1  0  0  0
  2  1  1  6  0  0  0
  2  4  1  0  0  0  0
  2  3  1  0  0  0  0
  3  5  1  1  0  0  0
  4  3  1  0  0  0  0
  5  6  1  0  0  0  0
  7  6  1  0  0  0  0
  7  8  1  0  0  0  0
  9  8  1  0  0  0  0
 10 11  1  6  0  0  0
 10 13  1  0  0  0  0
 10  9  1  0  0  0  0
 13 12  1  6  0  0  0
 13 14  1  0  0  0  0
 16 15  1  1  0  0  0
 16  1  1  0  0  0  0
 17 16  1  0  0  0  0
 18 24  1  6  0  0  0
 18 19  1  0  0  0  0
 19 21  1  0  0  0  0
 20 18  1  0  0  0  0
 20 23  1  0  0  0  0
 21 17  1  0  0  0  0
 22 23  2  0  0  0  0
 23 21  1  0  0  0  0
 24 25  2  0  0  0  0
 27 28  2  0  0  0  0
 27 25  1  0  0  0  0
 28 26  2  0  0  0  0
 29 34  1  1  0  0  0
 29 26  1  0  0  0  0
 29 33  1  0  0  0  0
 30 33  1  0  0  0  0
 32 33  1  0  0  0  0
 33 31  1  0  0  0  0
 34 35  1  0  0  0  0
 36 37  1  0  0  0  0
 37 35  1  0  0  0  0
 39 38  1  0  0  0  0
 41 39  1  0  0  0  0
 41 40  1  0  0  0  0
 42 40  1  0  0  0  0
 43 41  2  0  0  0  0
 44 43  1  0  0  0  0
 44 45  2  0  0  0  0
 45 42  1  0  0  0  0
 47 51  2  0  0  0  0
 48 50  1  0  0  0  0
 48 46  2  0  0  0  0
 49 48  1  0  0  0  0
 51 46  1  0  0  0  0
 52 54  1  0  0  0  0
 52 49  1  0  0  0  0
 53 49  2  0  0  0  0
 53 47  1  0  0  0  0
 54 45  1  1  0  0  0
 54 50  1  0  0  0  0
 55 53  1  0  0  0  0
M  END
>  <MODEL>
8

>  <REMARK>
 VINA RESULT:      -5.8      2.052      4.344
  Name = 
  22 active torsions:
  status: ('A' for Active; 'I' for Inactive)
    1  A    between atoms: C_2  and  C_22
    2  A    between atoms: C_3  and  O_18
    3  A    between atoms: C_3  and  C_25
    4  A    between atoms: C_3  and  C_53
    5  A    between atoms: C_4  and  C_7
    6  A    between atoms: C_5  and  N_16
    7  A    between atoms: C_5  and  C_53
    8  A    between atoms: C_11  and  C_14
    9  A    between atoms: C_12  and  C_17
   10  A    between atoms: C_12  and  C_45
   11  A    between atoms: C_14  and  O_18
   12  A    between atoms: C_17  and  C_26
   13  A    between atoms: C_19  and  C_38
   14  A    between atoms: C_22  and  C_48
   15  A    between atoms: C_22  and  C_54
   16  A    between atoms: C_26  and  O_31
   17  A    between atoms: O_31  and  C_44
   18  A    between atoms: C_33  and  C_39
   19  A    between atoms: C_35  and  C_52
   20  A    between atoms: C_39  and  C_44
   21  A    between atoms: C_40  and  C_41
   22  A    between atoms: C_40  and  C_54
                            x       y       z     vdW  Elec       q    Type
                         _______ _______ _______ _____ _____    ______ ____

>  <TORSDO>
F 22

$$$$
=
 OpenBabel10222416013D

 55 59  0  0  1  0  0  0  0  0999 V2000
  190.1010  177.2090  138.6460 C   0  0  2  0  0  3  0  0  0  0  0  0
  191.1150  176.0460  138.5440 C   0  0  2  0  0  3  0  0  0  0  0  0
  191.3750  175.6750  137.1290 C   0  0  2  0  0  3  0  0  0  0  0  0
  190.5550  174.8890  137.9630 O   0  0  0  0  0  0  0  0  0  0  0  0
  192.7580  175.0510  137.0170 C   0  0  0  0  0  2  0  0  0  0  0  0
  193.6920  175.9200  136.1890 C   0  0  0  0  0  2  0  0  0  0  0  0
  194.9680  175.9430  136.7670 O   0  0  0  0  0  0  0  0  0  0  0  0
  195.4400  174.6400  136.6000 C   0  0  0  0  0  2  0  0  0  0  0  0
  196.3710  174.2690  137.7460 C   0  0  0  0  0  2  0  0  0  0  0  0
  197.5230  173.3870  137.2710 C   0  0  1  0  0  3  0  0  0  0  0  0
  198.6900  173.7180  137.9650 O   0  0  0  0  0  1  0  0  0  0  0  0
  196.9370  171.2300  136.0880 C   0  0  0  0  0  1  0  0  0  0  0  0
  197.2120  171.8990  137.4260 C   0  0  2  0  0  3  0  0  0  0  0  0
  196.1080  171.7280  138.2640 O   0  0  0  0  0  1  0  0  0  0  0  0
  188.8920  178.5270  140.2490 O   0  0  0  0  0  1  0  0  0  0  0  0
  190.1530  178.0110  139.9580 C   0  0  1  0  0  3  0  0  0  0  0  0
  190.6130  177.1360  141.1140 C   0  0  0  0  0  2  0  0  0  0  0  0
  188.3500  176.7660  144.1130 C   0  0  1  0  0  3  0  0  0  0  0  0
  188.6800  176.4210  142.6410 C   0  0  0  0  0  2  0  0  0  0  0  0
  189.2110  177.8820  144.4930 N   0  0  0  0  0  2  0  0  0  0  0  0
  189.7580  177.3230  142.2710 N   0  0  0  0  0  0  0  0  0  0  0  0
  190.9650  178.9960  143.4000 O   0  0  0  0  0  0  0  0  0  0  0  0
  190.0470  178.1380  143.3850 C   0  0  0  0  0  0  0  0  0  0  0  0
  186.9090  177.1170  144.3000 C   0  0  0  0  0  3  0  0  0  0  0  0
  186.2460  177.8950  143.4490 C   0  0  0  0  0  3  0  0  0  0  0  0
  183.1850  178.6950  141.7610 C   0  0  0  0  0  3  0  0  0  0  0  0
  184.8440  178.1900  143.7050 C   0  0  0  0  0  3  0  0  0  0  0  0
  184.0290  178.4480  142.7240 C   0  0  0  0  0  0  0  0  0  0  0  0
  181.6910  178.6290  141.9630 C   0  0  1  0  0  3  0  0  0  0  0  0
  182.2250  179.8450  143.9680 O   0  0  0  0  0  1  0  0  0  0  0  0
  180.2530  178.5240  144.0630 C   0  0  0  0  0  1  0  0  0  0  0  0
  180.4200  180.5010  142.7640 O   0  0  0  0  0  1  0  0  0  0  0  0
  181.1520  179.3940  143.1940 C   0  0  0  0  0  0  0  0  0  0  0  0
  180.8770  178.7950  140.6710 C   0  0  0  0  0  2  0  0  0  0  0  0
  181.6270  179.5540  139.5860 C   0  0  0  0  0  2  0  0  0  0  0  0
  181.1710  180.4600  137.3300 C   0  0  0  0  0  1  0  0  0  0  0  0
  180.6440  180.3440  138.7470 C   0  0  0  0  0  2  0  0  0  0  0  0
  188.8020  176.7340  138.4070 O   0  0  0  0  0  0  0  0  0  0  0  0
  188.2990  177.5270  137.3700 C   0  0  0  0  0  2  0  0  0  0  0  0
  185.8890  177.7240  138.2950 C   0  0  0  0  0  2  0  0  0  0  0  0
  186.8360  177.2900  137.2090 C   0  0  0  0  0  0  0  0  0  0  0  0
  184.5060  178.0610  137.7210 C   0  0  0  0  0  2  0  0  0  0  0  0
  186.3820  176.5910  136.1640 C   0  0  0  0  0  3  0  0  0  0  0  0
  184.9370  176.3640  135.9820 C   0  0  0  0  0  3  0  0  0  0  0  0
  184.0440  177.0080  136.7420 C   0  0  0  0  0  0  0  0  0  0  0  0
  181.2230  173.3850  136.2030 C   0  0  0  0  0  3  0  0  0  0  0  0
  180.0550  173.2380  138.3430 C   0  0  0  0  0  3  0  0  0  0  0  0
  181.6240  174.6710  136.5650 C   0  0  0  0  0  0  0  0  0  0  0  0
  181.2690  175.2330  137.7580 C   0  0  0  0  0  0  0  0  0  0  0  0
  182.3970  175.5290  135.8150 O   0  0  0  0  0  0  0  0  0  0  0  0
  180.4260  172.6660  137.1080 C   0  0  0  0  0  3  0  0  0  0  0  0
  181.8410  176.6000  137.8640 C   0  0  0  0  0  2  0  0  0  0  0  0
  180.4780  174.5350  138.6770 C   0  0  0  0  0  0  0  0  0  0  0  0
  182.5880  176.7560  136.5200 C   0  0  1  0  0  3  0  0  0  0  0  0
  180.0280  175.2390  140.2200 Cl  0  0  0  0  0  0  0  0  0  0  0  0
  1 38  1  1  0  0  0
  1 16  1  0  0  0  0
  2  1  1  6  0  0  0
  3  5  1  1  0  0  0
  3  4  1  0  0  0  0
  3  2  1  0  0  0  0
  4  2  1  0  0  0  0
  6  7  1  0  0  0  0
  6  5  1  0  0  0  0
  8  7  1  0  0  0  0
  8  9  1  0  0  0  0
 10 13  1  0  0  0  0
 10  9  1  0  0  0  0
 10 11  1  1  0  0  0
 13 12  1  6  0  0  0
 13 14  1  0  0  0  0
 16 15  1  1  0  0  0
 16 17  1  0  0  0  0
 17 21  1  0  0  0  0
 18 24  1  6  0  0  0
 18 20  1  0  0  0  0
 19 18  1  0  0  0  0
 21 19  1  0  0  0  0
 21 23  1  0  0  0  0
 23 22  2  0  0  0  0
 23 20  1  0  0  0  0
 25 27  1  0  0  0  0
 25 24  2  0  0  0  0
 26 29  1  0  0  0  0
 26 28  2  0  0  0  0
 28 27  2  0  0  0  0
 29 34  1  6  0  0  0
 29 33  1  0  0  0  0
 32 33  1  0  0  0  0
 33 30  1  0  0  0  0
 33 31  1  0  0  0  0
 35 34  1  0  0  0  0
 36 37  1  0  0  0  0
 37 35  1  0  0  0  0
 39 38  1  0  0  0  0
 41 39  1  0  0  0  0
 41 40  1  0  0  0  0
 42 40  1  0  0  0  0
 43 41  2  0  0  0  0
 44 43  1  0  0  0  0
 44 45  2  0  0  0  0
 45 42  1  0  0  0  0
 46 48  2  0  0  0  0
 46 51  1  0  0  0  0
 47 53  1  0  0  0  0
 48 49  1  0  0  0  0
 49 52  1  0  0  0  0
 49 53  2  0  0  0  0
 50 54  1  0  0  0  0
 50 48  1  0  0  0  0
 51 47  2  0  0  0  0
 53 55  1  0  0  0  0
 54 45  1  1  0  0  0
 54 52  1  0  0  0  0
M  END
>  <MODEL>
9

>  <REMARK>
 VINA RESULT:      -5.6      4.142      7.752
  Name = 
  22 active torsions:
  status: ('A' for Active; 'I' for Inactive)
    1  A    between atoms: C_2  and  C_22
    2  A    between atoms: C_3  and  O_18
    3  A    between atoms: C_3  and  C_25
    4  A    between atoms: C_3  and  C_53
    5  A    between atoms: C_4  and  C_7
    6  A    between atoms: C_5  and  N_16
    7  A    between atoms: C_5  and  C_53
    8  A    between atoms: C_11  and  C_14
    9  A    between atoms: C_12  and  C_17
   10  A    between atoms: C_12  and  C_45
   11  A    between atoms: C_14  and  O_18
   12  A    between atoms: C_17  and  C_26
   13  A    between atoms: C_19  and  C_38
   14  A    between atoms: C_22  and  C_48
   15  A    between atoms: C_22  and  C_54
   16  A    between atoms: C_26  and  O_31
   17  A    between atoms: O_31  and  C_44
   18  A    between atoms: C_33  and  C_39
   19  A    between atoms: C_35  and  C_52
   20  A    between atoms: C_39  and  C_44
   21  A    between atoms: C_40  and  C_41
   22  A    between atoms: C_40  and  C_54
                            x       y       z     vdW  Elec       q    Type
                         _______ _______ _______ _____ _____    ______ ____

>  <TORSDO>
F 22

$$$$
