=
 OpenBabel10222420473D

 39 45  0  0  1  0  0  0  0  0999 V2000
  183.4830  178.3690  142.1170 C   0  0  2  0  0  3  0  0  0  0  0  0
  190.8360  176.3120  143.4320 O   0  0  0  0  0  0  0  0  0  0  0  0
  190.0330  176.7760  144.3520 C   0  0  0  0  0  0  0  0  0  0  0  0
  187.7900  177.5340  144.6040 C   0  0  0  0  0  0  0  0  0  0  0  0
  185.7170  177.8770  143.2130 C   0  0  0  0  0  3  0  0  0  0  0  0
  189.2730  177.5220  146.5330 C   0  0  0  0  0  3  0  0  0  0  0  0
  185.9970  178.3180  145.5860 C   0  0  0  0  0  0  0  0  0  0  0  0
  188.8060  177.0290  143.8030 C   0  0  0  0  0  0  0  0  0  0  0  0
  184.3820  178.3200  143.3190 C   0  0  0  0  0  0  0  0  0  0  0  0
  186.4900  177.8880  144.3700 C   0  0  0  0  0  0  0  0  0  0  0  0
  188.0200  177.7720  145.9480 C   0  0  1  0  0  3  0  0  0  0  0  0
  183.8760  178.7580  144.5640 C   0  0  0  0  0  3  0  0  0  0  0  0
  184.6840  178.7610  145.7150 C   0  0  0  0  0  3  0  0  0  0  0  0
  190.1660  176.2550  142.2920 C   0  0  0  0  0  3  0  0  0  0  0  0
  186.9230  178.2570  146.5730 N   0  0  0  0  0  0  0  0  0  0  0  0
  190.3110  177.0130  145.7140 C   0  0  0  0  0  0  0  0  0  0  0  0
  188.8520  176.7020  142.4670 C   0  0  0  0  0  3  0  0  0  0  0  0
  191.6570  176.7260  146.2930 C   0  0  0  0  0  2  0  0  0  0  0  0
  192.7910  175.7390  148.2810 C   0  0  0  0  0  1  0  0  0  0  0  0
  191.5700  175.6740  147.3870 C   0  0  0  0  0  2  0  0  0  0  0  0
  185.9880  178.7580  139.7760 O   0  0  0  0  0  0  0  0  0  0  0  0
  185.5800  179.2790  141.0250 C   0  0  0  0  0  2  0  0  0  0  0  0
  184.0410  179.2750  141.0120 C   0  0  1  0  0  3  0  0  0  0  0  0
  185.0200  177.9420  137.7540 C   0  0  0  0  0  3  0  0  0  0  0  0
  184.9090  178.4600  138.9750 C   0  0  0  0  0  0  0  0  0  0  0  0
  183.6220  178.7620  139.6310 C   0  0  2  0  0  3  0  0  0  0  0  0
  182.7660  180.0610  138.7630 Cl  0  0  0  0  0  0  0  0  0  0  0  0
  187.5340  175.6600  136.0630 O   0  0  0  0  0  0  0  0  0  0  0  0
  186.1900  177.4250  135.7020 C   0  0  0  0  0  2  0  0  0  0  0  0
  186.3440  176.2050  136.6220 C   0  0  2  0  0  0  0  0  0  0  0  0
  186.3470  177.6500  137.1420 C   0  0  2  0  0  3  0  0  0  0  0  0
  187.5350  175.7880  137.4320 C   0  0  0  0  0  2  0  0  0  0  0  0
  181.8050  178.8980  142.6140 S   0  0  0  0  0  0  0  0  0  0  0  0
  180.9940  177.8920  141.3390 C   0  0  0  0  0  2  0  0  0  0  0  0
  179.6870  177.4520  141.8130 N   0  0  0  0  0  2  0  0  0  0  0  0
  179.1870  176.3750  140.9580 C   0  0  1  0  0  3  0  0  0  0  0  0
  180.0610  176.1520  139.8920 O   0  0  0  0  0  1  0  0  0  0  0  0
  179.2560  174.1710  140.7770 C   0  0  0  0  0  1  0  0  0  0  0  0
  179.0020  175.1970  141.6860 O   0  0  0  0  0  0  0  0  0  0  0  0
  1 33  1  1  0  0  0
  1  9  1  0  0  0  0
  2  3  1  0  0  0  0
  3 16  1  0  0  0  0
  4 11  1  0  0  0  0
  5  9  2  0  0  0  0
  5 10  1  0  0  0  0
  7 13  1  0  0  0  0
  7 15  2  0  0  0  0
  8  3  2  0  0  0  0
  8  4  1  0  0  0  0
  9 12  1  0  0  0  0
 10  4  2  0  0  0  0
 10  7  1  0  0  0  0
 11  6  1  6  0  0  0
 11 15  1  0  0  0  0
 12 13  2  0  0  0  0
 14 17  2  0  0  0  0
 14  2  1  0  0  0  0
 16 18  1  0  0  0  0
 16  6  2  0  0  0  0
 17  8  1  0  0  0  0
 18 20  1  0  0  0  0
 20 19  1  0  0  0  0
 21 22  1  0  0  0  0
 23 22  1  0  0  0  0
 23  1  1  1  0  0  0
 24 25  2  0  0  0  0
 25 26  1  0  0  0  0
 25 21  1  0  0  0  0
 26 27  1  6  0  0  0
 26 23  1  0  0  0  0
 28 30  1  0  0  0  0
 28 32  1  0  0  0  0
 29 31  1  0  0  0  0
 30 29  1  1  0  0  0
 30 31  1  0  0  0  0
 30 32  1  0  0  0  0
 31 24  1  1  0  0  0
 34 35  1  0  0  0  0
 34 33  1  0  0  0  0
 36 37  1  6  0  0  0
 36 39  1  0  0  0  0
 36 35  1  0  0  0  0
 38 39  1  0  0  0  0
M  END
>  <MODEL>
1

>  <REMARK>
 VINA RESULT:      -9.7      0.000      0.000
  Name = 
  10 active torsions:
  status: ('A' for Active; 'I' for Inactive)
    1  A    between atoms: S_6  and  C_8
    2  A    between atoms: S_6  and  C_20
    3  A    between atoms: C_8  and  N_18
    4  A    between atoms: C_13  and  C_20
    5  A    between atoms: C_14  and  N_18
    6  A    between atoms: C_14  and  O_33
    7  A    between atoms: C_17  and  C_21
    8  A    between atoms: C_19  and  C_37
    9  A    between atoms: C_19  and  C_39
   10  A    between atoms: C_20  and  C_26
                            x       y       z     vdW  Elec       q    Type
                         _______ _______ _______ _____ _____    ______ ____

>  <TORSDO>
F 10

$$$$
=
 OpenBabel10222420473D

 39 45  0  0  1  0  0  0  0  0999 V2000
  189.8110  177.3730  143.5490 C   0  0  2  0  0  3  0  0  0  0  0  0
  182.7380  178.8790  140.7700 O   0  0  0  0  0  0  0  0  0  0  0  0
  183.0220  178.8110  142.0430 C   0  0  0  0  0  0  0  0  0  0  0  0
  184.8800  178.4260  143.4820 C   0  0  0  0  0  0  0  0  0  0  0  0
  187.3430  177.9160  143.3320 C   0  0  0  0  0  3  0  0  0  0  0  0
  182.6880  178.8540  144.4480 C   0  0  0  0  0  3  0  0  0  0  0  0
  186.0070  178.1870  145.3430 C   0  0  0  0  0  0  0  0  0  0  0  0
  184.3550  178.5450  142.2020 C   0  0  0  0  0  0  0  0  0  0  0  0
  188.4700  177.6810  144.1490 C   0  0  0  0  0  0  0  0  0  0  0  0
  186.1320  178.1690  143.9690 C   0  0  0  0  0  0  0  0  0  0  0  0
  184.0600  178.5820  144.5860 C   0  0  1  0  0  3  0  0  0  0  0  0
  188.3430  177.7020  145.5560 C   0  0  0  0  0  3  0  0  0  0  0  0
  187.1040  177.9570  146.1690 C   0  0  0  0  0  3  0  0  0  0  0  0
  183.8520  178.6630  140.0890 C   0  0  0  0  0  3  0  0  0  0  0  0
  184.7390  178.4390  145.7470 N   0  0  0  0  0  0  0  0  0  0  0  0
  182.1510  178.9680  143.1410 C   0  0  0  0  0  0  0  0  0  0  0  0
  184.9280  178.4430  140.9550 C   0  0  0  0  0  3  0  0  0  0  0  0
  180.7000  179.2620  142.9460 C   0  0  0  0  0  2  0  0  0  0  0  0
  178.9310  179.2840  144.7010 C   0  0  0  0  0  1  0  0  0  0  0  0
  179.8390  178.4080  143.8630 C   0  0  0  0  0  2  0  0  0  0  0  0
  191.7370  177.5000  140.6890 O   0  0  0  0  0  0  0  0  0  0  0  0
  191.5240  178.2200  141.8860 C   0  0  0  0  0  2  0  0  0  0  0  0
  190.0260  178.0870  142.2090 C   0  0  1  0  0  3  0  0  0  0  0  0
  190.4950  176.2280  139.0990 C   0  0  0  0  0  3  0  0  0  0  0  0
  190.5660  176.9640  140.2060 C   0  0  0  0  0  0  0  0  0  0  0  0
  189.4070  177.2810  141.0630 C   0  0  2  0  0  3  0  0  0  0  0  0
  188.2450  178.3100  140.1890 Cl  0  0  0  0  0  0  0  0  0  0  0  0
  192.2450  174.7210  136.0900 O   0  0  0  0  0  0  0  0  0  0  0  0
  191.6330  176.6770  137.0140 C   0  0  0  0  0  2  0  0  0  0  0  0
  191.2600  175.1880  137.0050 C   0  0  2  0  0  0  0  0  0  0  0  0
  191.7000  175.9320  138.2750 C   0  0  2  0  0  3  0  0  0  0  0  0
  192.1410  173.9990  137.2550 C   0  0  0  0  0  2  0  0  0  0  0  0
  190.0130  175.5640  143.3690 S   0  0  0  0  0  0  0  0  0  0  0  0
  191.6480  175.5600  144.1590 C   0  0  0  0  0  2  0  0  0  0  0  0
  191.6970  176.5820  145.1990 N   0  0  0  0  0  2  0  0  0  0  0  0
  191.7070  175.9460  146.5170 C   0  0  1  0  0  3  0  0  0  0  0  0
  192.5170  174.8080  146.5050 O   0  0  0  0  0  1  0  0  0  0  0  0
  192.8200  176.0450  148.4260 C   0  0  0  0  0  1  0  0  0  0  0  0
  192.1390  176.8370  147.5030 O   0  0  0  0  0  0  0  0  0  0  0  0
  1 33  1  6  0  0  0
  1  9  1  0  0  0  0
  2  3  1  0  0  0  0
  3  8  2  0  0  0  0
  3 16  1  0  0  0  0
  4 10  2  0  0  0  0
  4 11  1  0  0  0  0
  5 10  1  0  0  0  0
  5  9  2  0  0  0  0
  7 15  2  0  0  0  0
  7 13  1  0  0  0  0
  8  4  1  0  0  0  0
  9 12  1  0  0  0  0
 10  7  1  0  0  0  0
 11  6  1  6  0  0  0
 11 15  1  0  0  0  0
 12 13  2  0  0  0  0
 14  2  1  0  0  0  0
 14 17  2  0  0  0  0
 16  6  2  0  0  0  0
 17  8  1  0  0  0  0
 18 16  1  0  0  0  0
 18 20  1  0  0  0  0
 20 19  1  0  0  0  0
 21 22  1  0  0  0  0
 22 23  1  0  0  0  0
 23  1  1  1  0  0  0
 24 25  2  0  0  0  0
 25 21  1  0  0  0  0
 25 26  1  0  0  0  0
 26 27  1  6  0  0  0
 26 23  1  0  0  0  0
 28 30  1  0  0  0  0
 28 32  1  0  0  0  0
 29 31  1  0  0  0  0
 30 29  1  6  0  0  0
 30 32  1  0  0  0  0
 30 31  1  0  0  0  0
 31 24  1  1  0  0  0
 33 34  1  0  0  0  0
 34 35  1  0  0  0  0
 35 36  1  0  0  0  0
 36 37  1  6  0  0  0
 36 39  1  0  0  0  0
 39 38  1  0  0  0  0
M  END
>  <MODEL>
2

>  <REMARK>
 VINA RESULT:      -9.5      3.218      8.162
  Name = 
  10 active torsions:
  status: ('A' for Active; 'I' for Inactive)
    1  A    between atoms: S_6  and  C_8
    2  A    between atoms: S_6  and  C_20
    3  A    between atoms: C_8  and  N_18
    4  A    between atoms: C_13  and  C_20
    5  A    between atoms: C_14  and  N_18
    6  A    between atoms: C_14  and  O_33
    7  A    between atoms: C_17  and  C_21
    8  A    between atoms: C_19  and  C_37
    9  A    between atoms: C_19  and  C_39
   10  A    between atoms: C_20  and  C_26
                            x       y       z     vdW  Elec       q    Type
                         _______ _______ _______ _____ _____    ______ ____

>  <TORSDO>
F 10

$$$$
=
 OpenBabel10222420473D

 39 45  0  0  1  0  0  0  0  0999 V2000
  182.5930  178.5120  140.1370 C   0  0  2  0  0  3  0  0  0  0  0  0
  188.8300  177.4780  144.6160 O   0  0  0  0  0  0  0  0  0  0  0  0
  187.6560  177.8280  145.0700 C   0  0  0  0  0  0  0  0  0  0  0  0
  185.4530  178.2730  144.2840 C   0  0  0  0  0  0  0  0  0  0  0  0
  184.1680  178.3300  142.1160 C   0  0  0  0  0  3  0  0  0  0  0  0
  185.9360  178.4640  146.6610 C   0  0  0  0  0  3  0  0  0  0  0  0
  183.3300  178.8050  144.3470 C   0  0  0  0  0  0  0  0  0  0  0  0
  186.7690  177.9110  144.0310 C   0  0  0  0  0  0  0  0  0  0  0  0
  182.8760  178.5860  141.6090 C   0  0  0  0  0  0  0  0  0  0  0  0
  184.3520  178.4460  143.4910 C   0  0  0  0  0  0  0  0  0  0  0  0
  185.0430  178.5410  145.5780 C   0  0  1  0  0  3  0  0  0  0  0  0
  181.8300  178.9510  142.4850 C   0  0  0  0  0  3  0  0  0  0  0  0
  182.0480  179.0640  143.8700 C   0  0  0  0  0  3  0  0  0  0  0  0
  188.7350  177.3290  143.3040 C   0  0  0  0  0  3  0  0  0  0  0  0
  183.7320  178.8710  145.6390 N   0  0  0  0  0  0  0  0  0  0  0  0
  187.2810  178.1010  146.4020 C   0  0  0  0  0  0  0  0  0  0  0  0
  187.4330  177.5930  142.8680 C   0  0  0  0  0  3  0  0  0  0  0  0
  188.2640  178.0000  147.5210 C   0  0  0  0  0  2  0  0  0  0  0  0
  190.4450  176.8000  147.3870 C   0  0  0  0  0  1  0  0  0  0  0  0
  188.9450  176.6410  147.5320 C   0  0  0  0  0  2  0  0  0  0  0  0
  180.4240  177.1670  137.8140 O   0  0  0  0  0  0  0  0  0  0  0  0
  180.7780  178.4170  138.3720 C   0  0  0  0  0  2  0  0  0  0  0  0
  181.1320  178.1470  139.8450 C   0  0  1  0  0  3  0  0  0  0  0  0
  180.2060  174.8870  138.4800 C   0  0  0  0  0  3  0  0  0  0  0  0
  180.4790  176.1610  138.7510 C   0  0  0  0  0  0  0  0  0  0  0  0
  180.8910  176.6530  140.0810 C   0  0  2  0  0  3  0  0  0  0  0  0
  179.5700  176.4540  141.2590 Cl  0  0  0  0  0  0  0  0  0  0  0  0
  180.5850  172.7540  135.3660 O   0  0  0  0  0  0  0  0  0  0  0  0
  179.2860  173.0720  137.1730 C   0  0  0  0  0  2  0  0  0  0  0  0
  180.7220  173.2970  136.6750 C   0  0  2  0  0  0  0  0  0  0  0  0
  179.8010  174.4440  137.1160 C   0  0  2  0  0  3  0  0  0  0  0  0
  181.1820  173.9910  135.4270 C   0  0  0  0  0  2  0  0  0  0  0  0
  183.7370  177.3280  139.3410 S   0  0  0  0  0  0  0  0  0  0  0  0
  184.6030  178.6250  138.4120 C   0  0  0  0  0  2  0  0  0  0  0  0
  186.0150  178.6340  138.7760 N   0  0  0  0  0  2  0  0  0  0  0  0
  186.8200  178.1650  137.6480 C   0  0  1  0  0  3  0  0  0  0  0  0
  187.6260  179.1960  137.1600 O   0  0  0  0  0  1  0  0  0  0  0  0
  188.4140  177.5340  139.0460 C   0  0  0  0  0  1  0  0  0  0  0  0
  187.6060  177.0670  138.0100 O   0  0  0  0  0  0  0  0  0  0  0  0
  1 33  1  1  0  0  0
  1  9  1  0  0  0  0
  2  3  1  0  0  0  0
  3 16  1  0  0  0  0
  4 11  1  0  0  0  0
  5 10  1  0  0  0  0
  7 15  2  0  0  0  0
  8  4  1  0  0  0  0
  8  3  2  0  0  0  0
  9  5  2  0  0  0  0
  9 12  1  0  0  0  0
 10  4  2  0  0  0  0
 10  7  1  0  0  0  0
 11 15  1  0  0  0  0
 11  6  1  6  0  0  0
 12 13  2  0  0  0  0
 13  7  1  0  0  0  0
 14  2  1  0  0  0  0
 16  6  2  0  0  0  0
 16 18  1  0  0  0  0
 17 14  2  0  0  0  0
 17  8  1  0  0  0  0
 18 20  1  0  0  0  0
 19 20  1  0  0  0  0
 21 22  1  0  0  0  0
 21 25  1  0  0  0  0
 22 23  1  0  0  0  0
 23 26  1  0  0  0  0
 23  1  1  6  0  0  0
 24 25  2  0  0  0  0
 25 26  1  0  0  0  0
 26 27  1  1  0  0  0
 28 32  1  0  0  0  0
 28 30  1  0  0  0  0
 30 32  1  1  0  0  0
 30 31  1  0  0  0  0
 30 29  1  0  0  0  0
 31 29  1  0  0  0  0
 31 24  1  1  0  0  0
 34 35  1  0  0  0  0
 34 33  1  0  0  0  0
 36 37  1  1  0  0  0
 36 39  1  0  0  0  0
 36 35  1  0  0  0  0
 39 38  1  0  0  0  0
M  END
>  <MODEL>
3

>  <REMARK>
 VINA RESULT:      -9.5      2.810      5.125
  Name = 
  10 active torsions:
  status: ('A' for Active; 'I' for Inactive)
    1  A    between atoms: S_6  and  C_8
    2  A    between atoms: S_6  and  C_20
    3  A    between atoms: C_8  and  N_18
    4  A    between atoms: C_13  and  C_20
    5  A    between atoms: C_14  and  N_18
    6  A    between atoms: C_14  and  O_33
    7  A    between atoms: C_17  and  C_21
    8  A    between atoms: C_19  and  C_37
    9  A    between atoms: C_19  and  C_39
   10  A    between atoms: C_20  and  C_26
                            x       y       z     vdW  Elec       q    Type
                         _______ _______ _______ _____ _____    ______ ____

>  <TORSDO>
F 10

$$$$
=
 OpenBabel10222420473D

 39 45  0  0  1  0  0  0  0  0999 V2000
  183.0070  178.7880  141.1100 C   0  0  2  0  0  3  0  0  0  0  0  0
  189.7500  177.2030  144.5810 O   0  0  0  0  0  0  0  0  0  0  0  0
  188.6580  177.5270  145.2220 C   0  0  0  0  0  0  0  0  0  0  0  0
  186.3850  178.0870  144.7880 C   0  0  0  0  0  0  0  0  0  0  0  0
  184.8250  178.3820  142.8310 C   0  0  0  0  0  3  0  0  0  0  0  0
  187.1870  178.0310  147.0850 C   0  0  0  0  0  3  0  0  0  0  0  0
  184.3070  178.6470  145.1900 C   0  0  0  0  0  0  0  0  0  0  0  0
  187.6440  177.7280  144.3260 C   0  0  0  0  0  0  0  0  0  0  0  0
  183.4860  178.7110  142.5310 C   0  0  0  0  0  0  0  0  0  0  0  0
  185.1940  178.3570  144.1730 C   0  0  0  0  0  0  0  0  0  0  0  0
  186.1600  178.2310  146.1460 C   0  0  1  0  0  3  0  0  0  0  0  0
  182.5770  179.0050  143.5720 C   0  0  0  0  0  3  0  0  0  0  0  0
  182.9820  178.9760  144.9180 C   0  0  0  0  0  3  0  0  0  0  0  0
  189.4770  177.1880  143.2860 C   0  0  0  0  0  3  0  0  0  0  0  0
  184.8800  178.5770  146.4160 N   0  0  0  0  0  0  0  0  0  0  0  0
  188.4730  177.6720  146.6120 C   0  0  0  0  0  0  0  0  0  0  0  0
  188.1370  177.5170  143.0580 C   0  0  0  0  0  3  0  0  0  0  0  0
  189.5930  177.4430  147.5730 C   0  0  0  0  0  2  0  0  0  0  0  0
  191.7300  176.1980  147.2640 C   0  0  0  0  0  1  0  0  0  0  0  0
  190.2240  176.0760  147.3640 C   0  0  0  0  0  2  0  0  0  0  0  0
  180.1690  179.6050  139.3260 O   0  0  0  0  0  0  0  0  0  0  0  0
  180.7880  179.8830  140.5650 C   0  0  0  0  0  2  0  0  0  0  0  0
  181.4910  178.5840  140.9980 C   0  0  1  0  0  3  0  0  0  0  0  0
  179.8960  177.7850  137.8090 C   0  0  0  0  0  3  0  0  0  0  0  0
  180.3640  178.2980  138.9440 C   0  0  0  0  0  0  0  0  0  0  0  0
  181.1660  177.5400  139.9250 C   0  0  2  0  0  3  0  0  0  0  0  0
  180.1930  176.2380  140.6560 Cl  0  0  0  0  0  0  0  0  0  0  0  0
  179.4760  179.8200  134.6360 O   0  0  0  0  0  0  0  0  0  0  0  0
  178.9310  177.8610  135.5930 C   0  0  0  0  0  2  0  0  0  0  0  0
  179.9900  178.9710  135.6560 C   0  0  2  0  0  0  0  0  0  0  0  0
  179.0990  178.5980  136.8490 C   0  0  2  0  0  3  0  0  0  0  0  0
  179.7900  180.4490  135.8180 C   0  0  0  0  0  2  0  0  0  0  0  0
  183.9110  177.5780  140.0800 S   0  0  0  0  0  0  0  0  0  0  0  0
  184.8270  178.8640  139.1840 C   0  0  0  0  0  2  0  0  0  0  0  0
  186.2610  178.6280  139.3090 N   0  0  0  0  0  2  0  0  0  0  0  0
  186.7740  178.0310  138.0760 C   0  0  1  0  0  3  0  0  0  0  0  0
  186.9900  179.0160  137.1100 O   0  0  0  0  0  1  0  0  0  0  0  0
  188.5120  177.9200  139.4400 C   0  0  0  0  0  1  0  0  0  0  0  0
  187.9530  177.3190  138.3130 O   0  0  0  0  0  0  0  0  0  0  0  0
  1 33  1  6  0  0  0
  1  9  1  0  0  0  0
  2  3  1  0  0  0  0
  3 16  1  0  0  0  0
  4 11  1  0  0  0  0
  5 10  1  0  0  0  0
  7 15  2  0  0  0  0
  8  4  1  0  0  0  0
  8  3  2  0  0  0  0
  9  5  2  0  0  0  0
  9 12  1  0  0  0  0
 10  4  2  0  0  0  0
 10  7  1  0  0  0  0
 11 15  1  0  0  0  0
 11  6  1  6  0  0  0
 12 13  2  0  0  0  0
 13  7  1  0  0  0  0
 14  2  1  0  0  0  0
 16  6  2  0  0  0  0
 16 18  1  0  0  0  0
 17 14  2  0  0  0  0
 17  8  1  0  0  0  0
 19 20  1  0  0  0  0
 20 18  1  0  0  0  0
 21 22  1  0  0  0  0
 22 23  1  0  0  0  0
 23  1  1  6  0  0  0
 24 25  2  0  0  0  0
 25 21  1  0  0  0  0
 25 26  1  0  0  0  0
 26 27  1  1  0  0  0
 26 23  1  0  0  0  0
 28 30  1  0  0  0  0
 28 32  1  0  0  0  0
 29 31  1  0  0  0  0
 30 29  1  6  0  0  0
 30 32  1  0  0  0  0
 30 31  1  0  0  0  0
 31 24  1  1  0  0  0
 34 35  1  0  0  0  0
 34 33  1  0  0  0  0
 36 37  1  6  0  0  0
 36 39  1  0  0  0  0
 36 35  1  0  0  0  0
 39 38  1  0  0  0  0
M  END
>  <MODEL>
4

>  <REMARK>
 VINA RESULT:      -9.5      2.928      4.912
  Name = 
  10 active torsions:
  status: ('A' for Active; 'I' for Inactive)
    1  A    between atoms: S_6  and  C_8
    2  A    between atoms: S_6  and  C_20
    3  A    between atoms: C_8  and  N_18
    4  A    between atoms: C_13  and  C_20
    5  A    between atoms: C_14  and  N_18
    6  A    between atoms: C_14  and  O_33
    7  A    between atoms: C_17  and  C_21
    8  A    between atoms: C_19  and  C_37
    9  A    between atoms: C_19  and  C_39
   10  A    between atoms: C_20  and  C_26
                            x       y       z     vdW  Elec       q    Type
                         _______ _______ _______ _____ _____    ______ ____

>  <TORSDO>
F 10

$$$$
=
 OpenBabel10222420473D

 39 45  0  0  1  0  0  0  0  0999 V2000
  182.4120  178.4540  140.1460 C   0  0  2  0  0  3  0  0  0  0  0  0
  188.7120  177.4870  144.5500 O   0  0  0  0  0  0  0  0  0  0  0  0
  187.5530  177.8730  145.0100 C   0  0  0  0  0  0  0  0  0  0  0  0
  185.3430  178.3250  144.2470 C   0  0  0  0  0  0  0  0  0  0  0  0
  184.0200  178.3210  142.1020 C   0  0  0  0  0  3  0  0  0  0  0  0
  185.8730  178.5980  146.6060 C   0  0  0  0  0  3  0  0  0  0  0  0
  183.2310  178.8950  144.3280 C   0  0  0  0  0  0  0  0  0  0  0  0
  186.6480  177.9320  143.9850 C   0  0  0  0  0  0  0  0  0  0  0  0
  182.7230  178.5800  141.6090 C   0  0  0  0  0  0  0  0  0  0  0  0
  184.2310  178.4860  143.4680 C   0  0  0  0  0  0  0  0  0  0  0  0
  184.9610  178.6480  145.5380 C   0  0  1  0  0  3  0  0  0  0  0  0
  181.6990  178.9950  142.4890 C   0  0  0  0  0  3  0  0  0  0  0  0
  181.9450  179.1570  143.8630 C   0  0  0  0  0  3  0  0  0  0  0  0
  188.5910  177.2900  143.2460 C   0  0  0  0  0  3  0  0  0  0  0  0
  183.6580  179.0020  145.6090 N   0  0  0  0  0  0  0  0  0  0  0  0
  187.2070  178.2030  146.3370 C   0  0  0  0  0  0  0  0  0  0  0  0
  187.2860  177.5590  142.8240 C   0  0  0  0  0  3  0  0  0  0  0  0
  188.2090  178.1290  147.4420 C   0  0  0  0  0  2  0  0  0  0  0  0
  190.2870  176.7560  147.3440 C   0  0  0  0  0  1  0  0  0  0  0  0
  188.7890  176.7280  147.5640 C   0  0  0  0  0  2  0  0  0  0  0  0
  180.4660  181.2170  139.4520 O   0  0  0  0  0  0  0  0  0  0  0  0
  180.7010  180.2900  140.4920 C   0  0  0  0  0  2  0  0  0  0  0  0
  180.9970  178.9430  139.8090 C   0  0  1  0  0  3  0  0  0  0  0  0
  180.3770  181.2780  137.0690 C   0  0  0  0  0  3  0  0  0  0  0  0
  180.5440  180.6210  138.2140 C   0  0  0  0  0  0  0  0  0  0  0  0
  180.8520  179.1800  138.3030 C   0  0  2  0  0  3  0  0  0  0  0  0
  179.4900  178.2100  137.6890 Cl  0  0  0  0  0  0  0  0  0  0  0  0
  181.0820  184.8550  136.0210 O   0  0  0  0  0  0  0  0  0  0  0  0
  179.6790  183.1320  135.6820 C   0  0  0  0  0  2  0  0  0  0  0  0
  181.1110  183.4370  136.1460 C   0  0  2  0  0  0  0  0  0  0  0  0
  180.0750  182.7370  137.0370 C   0  0  2  0  0  3  0  0  0  0  0  0
  181.5660  184.3830  137.2180 C   0  0  0  0  0  2  0  0  0  0  0  0
  182.6550  176.7240  139.6030 S   0  0  0  0  0  0  0  0  0  0  0  0
  183.7800  177.1920  138.2570 C   0  0  0  0  0  2  0  0  0  0  0  0
  184.4490  178.4460  138.5860 N   0  0  0  0  0  2  0  0  0  0  0  0
  185.8510  178.3820  138.1710 C   0  0  1  0  0  3  0  0  0  0  0  0
  186.6940  178.6280  139.2570 O   0  0  0  0  0  1  0  0  0  0  0  0
  187.5440  177.0890  137.5750 C   0  0  0  0  0  1  0  0  0  0  0  0
  186.1510  177.1440  137.5960 O   0  0  0  0  0  0  0  0  0  0  0  0
  1 33  1  1  0  0  0
  1  9  1  0  0  0  0
  2  3  1  0  0  0  0
  3 16  1  0  0  0  0
  4 11  1  0  0  0  0
  5 10  1  0  0  0  0
  7 15  2  0  0  0  0
  8  4  1  0  0  0  0
  8  3  2  0  0  0  0
  9  5  2  0  0  0  0
  9 12  1  0  0  0  0
 10  4  2  0  0  0  0
 10  7  1  0  0  0  0
 11 15  1  0  0  0  0
 11  6  1  6  0  0  0
 12 13  2  0  0  0  0
 13  7  1  0  0  0  0
 14  2  1  0  0  0  0
 16  6  2  0  0  0  0
 16 18  1  0  0  0  0
 17 14  2  0  0  0  0
 17  8  1  0  0  0  0
 18 20  1  0  0  0  0
 19 20  1  0  0  0  0
 21 22  1  0  0  0  0
 23  1  1  6  0  0  0
 23 22  1  0  0  0  0
 24 25  2  0  0  0  0
 25 26  1  0  0  0  0
 25 21  1  0  0  0  0
 26 27  1  1  0  0  0
 26 23  1  0  0  0  0
 28 30  1  0  0  0  0
 28 32  1  0  0  0  0
 29 31  1  0  0  0  0
 30 29  1  6  0  0  0
 30 31  1  0  0  0  0
 30 32  1  0  0  0  0
 31 24  1  6  0  0  0
 34 35  1  0  0  0  0
 34 33  1  0  0  0  0
 36 35  1  0  0  0  0
 36 37  1  1  0  0  0
 38 39  1  0  0  0  0
 39 36  1  0  0  0  0
M  END
>  <MODEL>
5

>  <REMARK>
 VINA RESULT:      -9.3      3.386      5.330
  Name = 
  10 active torsions:
  status: ('A' for Active; 'I' for Inactive)
    1  A    between atoms: S_6  and  C_8
    2  A    between atoms: S_6  and  C_20
    3  A    between atoms: C_8  and  N_18
    4  A    between atoms: C_13  and  C_20
    5  A    between atoms: C_14  and  N_18
    6  A    between atoms: C_14  and  O_33
    7  A    between atoms: C_17  and  C_21
    8  A    between atoms: C_19  and  C_37
    9  A    between atoms: C_19  and  C_39
   10  A    between atoms: C_20  and  C_26
                            x       y       z     vdW  Elec       q    Type
                         _______ _______ _______ _____ _____    ______ ____

>  <TORSDO>
F 10

$$$$
=
 OpenBabel10222420473D

 39 45  0  0  1  0  0  0  0  0999 V2000
  188.6360  177.9900  145.4050 C   0  0  2  0  0  3  0  0  0  0  0  0
  183.3530  178.9110  139.8140 O   0  0  0  0  0  0  0  0  0  0  0  0
  183.0710  178.9040  141.0890 C   0  0  0  0  0  0  0  0  0  0  0  0
  184.1570  178.6960  143.1980 C   0  0  0  0  0  0  0  0  0  0  0  0
  186.4720  178.3530  144.1340 C   0  0  0  0  0  3  0  0  0  0  0  0
  181.7440  179.0020  143.1200 C   0  0  0  0  0  3  0  0  0  0  0  0
  184.3950  178.5960  145.3720 C   0  0  0  0  0  0  0  0  0  0  0  0
  184.2210  178.7370  141.8120 C   0  0  1  0  0  3  0  0  0  0  0  0
  187.1540  178.2240  145.3630 C   0  0  0  0  0  0  0  0  0  0  0  0
  185.0940  178.5420  144.1830 C   0  0  0  0  0  0  0  0  0  0  0  0
  182.9390  178.8310  143.8410 C   0  0  0  0  0  0  0  0  0  0  0  0
  186.4400  178.2820  146.5800 C   0  0  0  0  0  3  0  0  0  0  0  0
  185.0470  178.4700  146.5960 C   0  0  0  0  0  3  0  0  0  0  0  0
  184.6600  178.7510  139.6810 C   0  0  0  0  0  3  0  0  0  0  0  0
  183.0650  178.7730  145.1870 N   0  0  0  0  0  0  0  0  0  0  0  0
  181.8090  179.0370  141.7050 C   0  0  0  0  0  0  0  0  0  0  0  0
  185.2740  178.6340  140.9320 C   0  0  0  0  0  3  0  0  0  0  0  0
  180.5670  179.2230  140.8980 C   0  0  0  0  0  2  0  0  0  0  0  0
  180.0120  176.8410  140.4170 C   0  0  0  0  0  1  0  0  0  0  0  0
  179.5780  178.0950  141.1460 C   0  0  0  0  0  2  0  0  0  0  0  0
  188.1010  176.7340  142.2360 O   0  0  0  0  0  0  0  0  0  0  0  0
  187.8890  176.3880  143.5900 C   0  0  0  0  0  2  0  0  0  0  0  0
  189.0900  176.9510  144.3720 C   0  0  1  0  0  3  0  0  0  0  0  0
  189.7160  177.8590  140.8890 C   0  0  0  0  0  3  0  0  0  0  0  0
  189.2880  177.4090  142.0660 C   0  0  0  0  0  0  0  0  0  0  0  0
  190.0180  177.5910  143.3360 C   0  0  2  0  0  3  0  0  0  0  0  0
  191.5600  176.6970  143.3050 Cl  0  0  0  0  0  0  0  0  0  0  0  0
  189.3220  177.8170  137.1160 O   0  0  0  0  0  0  0  0  0  0  0  0
  189.4450  176.4810  138.9200 C   0  0  0  0  0  2  0  0  0  0  0  0
  189.8590  177.8770  138.4330 C   0  0  2  0  0  0  0  0  0  0  0  0
  188.9340  177.6530  139.6380 C   0  0  2  0  0  3  0  0  0  0  0  0
  189.0030  178.9500  137.8270 C   0  0  0  0  0  2  0  0  0  0  0  0
  189.1420  177.5010  147.0930 S   0  0  0  0  0  0  0  0  0  0  0  0
  190.8460  177.1280  146.5900 C   0  0  0  0  0  2  0  0  0  0  0  0
  191.6800  176.9370  147.7710 N   0  0  0  0  0  2  0  0  0  0  0  0
  192.3200  175.6220  147.7180 C   0  0  1  0  0  3  0  0  0  0  0  0
  192.4300  175.1850  146.3970 O   0  0  0  0  0  1  0  0  0  0  0  0
  193.4060  176.4280  149.4690 C   0  0  0  0  0  1  0  0  0  0  0  0
  193.5780  175.6490  148.3260 O   0  0  0  0  0  0  0  0  0  0  0  0
  1 33  1  1  0  0  0
  2  3  1  0  0  0  0
  3 16  2  0  0  0  0
  3  8  1  0  0  0  0
  4 11  1  0  0  0  0
  4 10  2  0  0  0  0
  5 10  1  0  0  0  0
  5  9  2  0  0  0  0
  6 11  2  0  0  0  0
  7 13  1  0  0  0  0
  8 17  1  6  0  0  0
  8  4  1  0  0  0  0
  9  1  1  0  0  0  0
  9 12  1  0  0  0  0
 10  7  1  0  0  0  0
 11 15  1  0  0  0  0
 12 13  2  0  0  0  0
 14  2  1  0  0  0  0
 14 17  2  0  0  0  0
 15  7  2  0  0  0  0
 16  6  1  0  0  0  0
 18 20  1  0  0  0  0
 18 16  1  0  0  0  0
 19 20  1  0  0  0  0
 21 22  1  0  0  0  0
 22 23  1  0  0  0  0
 23  1  1  1  0  0  0
 24 25  2  0  0  0  0
 25 21  1  0  0  0  0
 25 26  1  0  0  0  0
 26 27  1  6  0  0  0
 26 23  1  0  0  0  0
 28 32  1  0  0  0  0
 28 30  1  0  0  0  0
 29 31  1  0  0  0  0
 30 32  1  1  0  0  0
 30 29  1  0  0  0  0
 30 31  1  0  0  0  0
 31 24  1  1  0  0  0
 34 33  1  0  0  0  0
 34 35  1  0  0  0  0
 36 37  1  6  0  0  0
 36 35  1  0  0  0  0
 36 39  1  0  0  0  0
 39 38  1  0  0  0  0
M  END
>  <MODEL>
6

>  <REMARK>
 VINA RESULT:      -9.2      3.152      8.489
  Name = 
  10 active torsions:
  status: ('A' for Active; 'I' for Inactive)
    1  A    between atoms: S_6  and  C_8
    2  A    between atoms: S_6  and  C_20
    3  A    between atoms: C_8  and  N_18
    4  A    between atoms: C_13  and  C_20
    5  A    between atoms: C_14  and  N_18
    6  A    between atoms: C_14  and  O_33
    7  A    between atoms: C_17  and  C_21
    8  A    between atoms: C_19  and  C_37
    9  A    between atoms: C_19  and  C_39
   10  A    between atoms: C_20  and  C_26
                            x       y       z     vdW  Elec       q    Type
                         _______ _______ _______ _____ _____    ______ ____

>  <TORSDO>
F 10

$$$$
=
 OpenBabel10222420473D

 39 45  0  0  1  0  0  0  0  0999 V2000
  182.8660  178.2260  141.4410 C   0  0  2  0  0  3  0  0  0  0  0  0
  190.1330  176.7370  143.6760 O   0  0  0  0  0  0  0  0  0  0  0  0
  189.2150  177.2300  144.4630 C   0  0  0  0  0  0  0  0  0  0  0  0
  186.9220  177.8710  144.4160 C   0  0  0  0  0  0  0  0  0  0  0  0
  184.9930  177.9660  142.7970 C   0  0  0  0  0  3  0  0  0  0  0  0
  188.1910  178.1160  146.4780 C   0  0  0  0  0  3  0  0  0  0  0  0
  184.9970  178.6280  145.1350 C   0  0  0  0  0  0  0  0  0  0  0  0
  188.0410  177.3600  143.7730 C   0  0  0  0  0  0  0  0  0  0  0  0
  183.6330  178.3360  142.7270 C   0  0  0  0  0  0  0  0  0  0  0  0
  185.6370  178.1240  144.0210 C   0  0  0  0  0  0  0  0  0  0  0  0
  186.9950  178.2390  145.7490 C   0  0  1  0  0  3  0  0  0  0  0  0
  182.9770  178.8490  143.8680 C   0  0  0  0  0  3  0  0  0  0  0  0
  183.6570  179.0010  145.0890 C   0  0  0  0  0  3  0  0  0  0  0  0
  189.5900  176.5410  142.4840 C   0  0  0  0  0  3  0  0  0  0  0  0
  185.8150  178.7090  146.2130 N   0  0  0  0  0  0  0  0  0  0  0  0
  189.3340  177.6010  145.8190 C   0  0  0  0  0  0  0  0  0  0  0  0
  188.2450  176.9220  142.4840 C   0  0  0  0  0  3  0  0  0  0  0  0
  190.6240  177.4470  146.5550 C   0  0  0  0  0  2  0  0  0  0  0  0
  192.0720  175.6280  147.4530 C   0  0  0  0  0  1  0  0  0  0  0  0
  190.6530  176.1480  147.3440 C   0  0  0  0  0  2  0  0  0  0  0  0
  185.7020  178.7910  139.5590 O   0  0  0  0  0  0  0  0  0  0  0  0
  184.9640  179.3780  140.6120 C   0  0  0  0  0  2  0  0  0  0  0  0
  183.4830  179.0740  140.3220 C   0  0  1  0  0  3  0  0  0  0  0  0
  185.3220  177.5530  137.5560 C   0  0  0  0  0  3  0  0  0  0  0  0
  184.8770  178.1900  138.6360 C   0  0  0  0  0  0  0  0  0  0  0  0
  183.4500  178.3180  138.9910 C   0  0  2  0  0  3  0  0  0  0  0  0
  182.5900  179.3050  137.7820 Cl  0  0  0  0  0  0  0  0  0  0  0  0
  188.2500  176.9410  135.2240 O   0  0  0  0  0  0  0  0  0  0  0  0
  187.1790  178.5500  136.3700 C   0  0  0  0  0  2  0  0  0  0  0  0
  186.9470  177.1650  135.7500 C   0  0  2  0  0  0  0  0  0  0  0  0
  186.7760  177.4480  137.2500 C   0  0  2  0  0  3  0  0  0  0  0  0
  187.7300  175.9020  135.9580 C   0  0  0  0  0  2  0  0  0  0  0  0
  181.1160  178.6780  141.7180 S   0  0  0  0  0  0  0  0  0  0  0  0
  180.4890  177.1530  140.9590 C   0  0  0  0  0  2  0  0  0  0  0  0
  180.0340  177.4270  139.6010 N   0  0  0  0  0  2  0  0  0  0  0  0
  180.2550  176.2520  138.7580 C   0  0  1  0  0  3  0  0  0  0  0  0
  180.3730  176.6280  137.4180 O   0  0  0  0  0  1  0  0  0  0  0  0
  181.9690  175.0900  137.9800 C   0  0  0  0  0  1  0  0  0  0  0  0
  181.3900  175.5460  139.1640 O   0  0  0  0  0  0  0  0  0  0  0  0
  1 33  1  1  0  0  0
  1  9  1  0  0  0  0
  2  3  1  0  0  0  0
  3 16  1  0  0  0  0
  4 11  1  0  0  0  0
  5 10  1  0  0  0  0
  7 15  2  0  0  0  0
  8  4  1  0  0  0  0
  8  3  2  0  0  0  0
  9  5  2  0  0  0  0
  9 12  1  0  0  0  0
 10  4  2  0  0  0  0
 10  7  1  0  0  0  0
 11 15  1  0  0  0  0
 11  6  1  6  0  0  0
 12 13  2  0  0  0  0
 13  7  1  0  0  0  0
 14 17  2  0  0  0  0
 14  2  1  0  0  0  0
 16  6  2  0  0  0  0
 16 18  1  0  0  0  0
 17  8  1  0  0  0  0
 18 20  1  0  0  0  0
 20 19  1  0  0  0  0
 21 22  1  0  0  0  0
 23 22  1  0  0  0  0
 23  1  1  1  0  0  0
 24 25  2  0  0  0  0
 25 26  1  0  0  0  0
 25 21  1  0  0  0  0
 26 27  1  6  0  0  0
 26 23  1  0  0  0  0
 28 30  1  0  0  0  0
 28 32  1  0  0  0  0
 29 31  1  0  0  0  0
 30 32  1  6  0  0  0
 30 29  1  0  0  0  0
 30 31  1  0  0  0  0
 31 24  1  6  0  0  0
 34 33  1  0  0  0  0
 35 34  1  0  0  0  0
 36 37  1  6  0  0  0
 36 39  1  0  0  0  0
 36 35  1  0  0  0  0
 38 39  1  0  0  0  0
M  END
>  <MODEL>
7

>  <REMARK>
 VINA RESULT:      -9.0      1.283      1.462
  Name = 
  10 active torsions:
  status: ('A' for Active; 'I' for Inactive)
    1  A    between atoms: S_6  and  C_8
    2  A    between atoms: S_6  and  C_20
    3  A    between atoms: C_8  and  N_18
    4  A    between atoms: C_13  and  C_20
    5  A    between atoms: C_14  and  N_18
    6  A    between atoms: C_14  and  O_33
    7  A    between atoms: C_17  and  C_21
    8  A    between atoms: C_19  and  C_37
    9  A    between atoms: C_19  and  C_39
   10  A    between atoms: C_20  and  C_26
                            x       y       z     vdW  Elec       q    Type
                         _______ _______ _______ _____ _____    ______ ____

>  <TORSDO>
F 10

$$$$
=
 OpenBabel10222420473D

 39 45  0  0  1  0  0  0  0  0999 V2000
  182.7050  177.9660  140.7410 C   0  0  2  0  0  3  0  0  0  0  0  0
  189.3100  176.7470  144.6030 O   0  0  0  0  0  0  0  0  0  0  0  0
  188.2670  177.3460  145.1130 C   0  0  0  0  0  0  0  0  0  0  0  0
  186.0540  177.9880  144.5110 C   0  0  0  0  0  0  0  0  0  0  0  0
  184.5010  177.8780  142.5300 C   0  0  0  0  0  3  0  0  0  0  0  0
  186.8830  178.4980  146.7420 C   0  0  0  0  0  3  0  0  0  0  0  0
  184.0500  178.8450  144.7130 C   0  0  0  0  0  0  0  0  0  0  0  0
  187.2630  177.3890  144.1840 C   0  0  0  0  0  0  0  0  0  0  0  0
  183.1960  178.2430  142.1330 C   0  0  0  0  0  0  0  0  0  0  0  0
  184.8870  178.1930  143.8300 C   0  0  0  0  0  0  0  0  0  0  0  0
  185.8660  178.5290  145.7710 C   0  0  1  0  0  3  0  0  0  0  0  0
  182.3390  178.9070  143.0380 C   0  0  0  0  0  3  0  0  0  0  0  0
  182.7600  179.2160  144.3430 C   0  0  0  0  0  3  0  0  0  0  0  0
  189.0150  176.3970  143.3610 C   0  0  0  0  0  3  0  0  0  0  0  0
  184.6320  179.0630  145.9160 N   0  0  0  0  0  0  0  0  0  0  0  0
  188.1190  177.8930  146.4050 C   0  0  0  0  0  0  0  0  0  0  0  0
  187.7120  176.7820  143.0330 C   0  0  0  0  0  3  0  0  0  0  0  0
  189.2260  177.8310  147.4050 C   0  0  0  0  0  2  0  0  0  0  0  0
  191.4440  176.6950  147.4340 C   0  0  0  0  0  1  0  0  0  0  0  0
  189.9460  176.4930  147.3440 C   0  0  0  0  0  2  0  0  0  0  0  0
  185.7470  178.8640  139.3840 O   0  0  0  0  0  0  0  0  0  0  0  0
  184.7420  179.3830  140.2300 C   0  0  0  0  0  2  0  0  0  0  0  0
  183.4040  178.8420  139.6940 C   0  0  1  0  0  3  0  0  0  0  0  0
  185.9470  177.4830  137.4490 C   0  0  0  0  0  3  0  0  0  0  0  0
  185.2120  178.0980  138.3730 C   0  0  0  0  0  0  0  0  0  0  0  0
  183.7400  178.0230  138.4440 C   0  0  2  0  0  3  0  0  0  0  0  0
  183.0040  178.8040  137.0220 Cl  0  0  0  0  0  0  0  0  0  0  0  0
  189.3900  176.4720  136.2210 O   0  0  0  0  0  0  0  0  0  0  0  0
  187.8750  178.1300  136.1410 C   0  0  0  0  0  2  0  0  0  0  0  0
  187.9820  176.6160  136.3740 C   0  0  2  0  0  0  0  0  0  0  0  0
  187.4330  177.5860  137.4290 C   0  0  2  0  0  3  0  0  0  0  0  0
  188.8590  175.8760  137.3400 C   0  0  0  0  0  2  0  0  0  0  0  0
  180.8900  178.1790  140.6680 S   0  0  0  0  0  0  0  0  0  0  0  0
  181.0060  179.8230  139.9070 C   0  0  0  0  0  2  0  0  0  0  0  0
  180.1010  179.9050  138.7670 N   0  0  0  0  0  2  0  0  0  0  0  0
  180.3250  181.1580  138.0450 C   0  0  1  0  0  3  0  0  0  0  0  0
  181.5280  181.7440  138.4470 O   0  0  0  0  0  1  0  0  0  0  0  0
  179.2220  180.1330  136.4240 C   0  0  0  0  0  1  0  0  0  0  0  0
  180.3260  180.9510  136.6630 O   0  0  0  0  0  0  0  0  0  0  0  0
  1 33  1  1  0  0  0
  1  9  1  0  0  0  0
  2  3  1  0  0  0  0
  3 16  1  0  0  0  0
  4 11  1  0  0  0  0
  5 10  1  0  0  0  0
  7 15  2  0  0  0  0
  8  4  1  0  0  0  0
  8  3  2  0  0  0  0
  9  5  2  0  0  0  0
  9 12  1  0  0  0  0
 10  4  2  0  0  0  0
 10  7  1  0  0  0  0
 11 15  1  0  0  0  0
 11  6  1  6  0  0  0
 12 13  2  0  0  0  0
 13  7  1  0  0  0  0
 14  2  1  0  0  0  0
 16  6  2  0  0  0  0
 16 18  1  0  0  0  0
 17 14  2  0  0  0  0
 17  8  1  0  0  0  0
 20 18  1  0  0  0  0
 20 19  1  0  0  0  0
 21 22  1  0  0  0  0
 23 22  1  0  0  0  0
 23  1  1  1  0  0  0
 24 25  2  0  0  0  0
 25 26  1  0  0  0  0
 25 21  1  0  0  0  0
 26 27  1  6  0  0  0
 26 23  1  0  0  0  0
 28 30  1  0  0  0  0
 28 32  1  0  0  0  0
 29 31  1  0  0  0  0
 30 29  1  6  0  0  0
 30 32  1  0  0  0  0
 30 31  1  0  0  0  0
 31 24  1  6  0  0  0
 34 33  1  0  0  0  0
 35 34  1  0  0  0  0
 36 37  1  1  0  0  0
 36 35  1  0  0  0  0
 38 39  1  0  0  0  0
 39 36  1  0  0  0  0
M  END
>  <MODEL>
8

>  <REMARK>
 VINA RESULT:      -8.8      2.316      2.856
  Name = 
  10 active torsions:
  status: ('A' for Active; 'I' for Inactive)
    1  A    between atoms: S_6  and  C_8
    2  A    between atoms: S_6  and  C_20
    3  A    between atoms: C_8  and  N_18
    4  A    between atoms: C_13  and  C_20
    5  A    between atoms: C_14  and  N_18
    6  A    between atoms: C_14  and  O_33
    7  A    between atoms: C_17  and  C_21
    8  A    between atoms: C_19  and  C_37
    9  A    between atoms: C_19  and  C_39
   10  A    between atoms: C_20  and  C_26
                            x       y       z     vdW  Elec       q    Type
                         _______ _______ _______ _____ _____    ______ ____

>  <TORSDO>
F 10

$$$$
=
 OpenBabel10222420473D

 39 45  0  0  1  0  0  0  0  0999 V2000
  182.4700  177.8340  140.0910 C   0  0  2  0  0  3  0  0  0  0  0  0
  188.7760  177.1660  144.5420 O   0  0  0  0  0  0  0  0  0  0  0  0
  187.6480  177.6830  144.9490 C   0  0  0  0  0  0  0  0  0  0  0  0
  185.4550  178.1450  144.1440 C   0  0  0  0  0  0  0  0  0  0  0  0
  184.0990  177.8990  142.0340 C   0  0  0  0  0  3  0  0  0  0  0  0
  186.0380  178.7320  146.4320 C   0  0  0  0  0  3  0  0  0  0  0  0
  183.3800  178.8410  144.1550 C   0  0  0  0  0  0  0  0  0  0  0  0
  186.7320  177.6420  143.9340 C   0  0  0  0  0  0  0  0  0  0  0  0
  182.8110  178.1570  141.5170 C   0  0  0  0  0  0  0  0  0  0  0  0
  184.3410  178.2530  143.3580 C   0  0  0  0  0  0  0  0  0  0  0  0
  185.1130  178.6770  145.3750 C   0  0  1  0  0  3  0  0  0  0  0  0
  181.8260  178.7570  142.3330 C   0  0  0  0  0  3  0  0  0  0  0  0
  182.1030  179.1060  143.6670 C   0  0  0  0  0  3  0  0  0  0  0  0
  188.6230  176.7860  143.2830 C   0  0  0  0  0  3  0  0  0  0  0  0
  183.8330  179.1130  145.4020 N   0  0  0  0  0  0  0  0  0  0  0  0
  187.3430  178.2250  146.2150 C   0  0  0  0  0  0  0  0  0  0  0  0
  187.3280  177.0650  142.8350 C   0  0  0  0  0  3  0  0  0  0  0  0
  188.3570  178.2570  147.3100 C   0  0  0  0  0  2  0  0  0  0  0  0
  190.3400  176.7480  147.3510 C   0  0  0  0  0  1  0  0  0  0  0  0
  188.8570  176.8590  147.6360 C   0  0  0  0  0  2  0  0  0  0  0  0
  185.5330  179.3290  139.5550 O   0  0  0  0  0  0  0  0  0  0  0  0
  184.1890  179.6750  139.8210 C   0  0  0  0  0  2  0  0  0  0  0  0
  183.3230  178.6300  139.0960 C   0  0  1  0  0  3  0  0  0  0  0  0
  186.7730  177.6890  138.3460 C   0  0  0  0  0  3  0  0  0  0  0  0
  185.6200  178.2270  138.7350 C   0  0  0  0  0  0  0  0  0  0  0  0
  184.2920  177.7040  138.3550 C   0  0  2  0  0  3  0  0  0  0  0  0
  184.0320  177.8720  136.6010 Cl  0  0  0  0  0  0  0  0  0  0  0  0
  190.5450  177.5590  138.7210 O   0  0  0  0  0  0  0  0  0  0  0  0
  188.8910  178.5690  137.5820 C   0  0  0  0  0  2  0  0  0  0  0  0
  189.1980  177.2780  138.3560 C   0  0  2  0  0  0  0  0  0  0  0  0
  188.0850  178.2540  138.7660 C   0  0  2  0  0  3  0  0  0  0  0  0
  189.7380  177.1260  139.7470 C   0  0  0  0  0  2  0  0  0  0  0  0
  180.6860  178.1150  139.7990 S   0  0  0  0  0  0  0  0  0  0  0  0
  180.3580  176.3620  139.4560 C   0  0  0  0  0  2  0  0  0  0  0  0
  180.4960  176.1040  138.0270 N   0  0  0  0  0  2  0  0  0  0  0  0
  181.4180  174.9890  137.8120 C   0  0  1  0  0  3  0  0  0  0  0  0
  180.7410  173.7710  137.9010 O   0  0  0  0  0  1  0  0  0  0  0  0
  182.2790  173.7800  136.1710 C   0  0  0  0  0  1  0  0  0  0  0  0
  182.0590  175.0960  136.5750 O   0  0  0  0  0  0  0  0  0  0  0  0
  1 33  1  6  0  0  0
  1  9  1  0  0  0  0
  2  3  1  0  0  0  0
  3 16  1  0  0  0  0
  4 11  1  0  0  0  0
  5 10  1  0  0  0  0
  7 15  2  0  0  0  0
  8  4  1  0  0  0  0
  8  3  2  0  0  0  0
  9  5  2  0  0  0  0
  9 12  1  0  0  0  0
 10  4  2  0  0  0  0
 10  7  1  0  0  0  0
 11 15  1  0  0  0  0
 11  6  1  6  0  0  0
 12 13  2  0  0  0  0
 13  7  1  0  0  0  0
 14  2  1  0  0  0  0
 16  6  2  0  0  0  0
 16 18  1  0  0  0  0
 17 14  2  0  0  0  0
 17  8  1  0  0  0  0
 18 20  1  0  0  0  0
 19 20  1  0  0  0  0
 21 22  1  0  0  0  0
 23 22  1  0  0  0  0
 23  1  1  1  0  0  0
 24 25  2  0  0  0  0
 25 21  1  0  0  0  0
 26 27  1  6  0  0  0
 26 25  1  0  0  0  0
 26 23  1  0  0  0  0
 28 32  1  0  0  0  0
 29 31  1  0  0  0  0
 30 29  1  6  0  0  0
 30 28  1  0  0  0  0
 30 31  1  0  0  0  0
 30 32  1  0  0  0  0
 31 24  1  6  0  0  0
 34 33  1  0  0  0  0
 35 34  1  0  0  0  0
 36 37  1  6  0  0  0
 36 35  1  0  0  0  0
 38 39  1  0  0  0  0
 39 36  1  0  0  0  0
M  END
>  <MODEL>
9

>  <REMARK>
 VINA RESULT:      -8.8      2.250      3.081
  Name = 
  10 active torsions:
  status: ('A' for Active; 'I' for Inactive)
    1  A    between atoms: S_6  and  C_8
    2  A    between atoms: S_6  and  C_20
    3  A    between atoms: C_8  and  N_18
    4  A    between atoms: C_13  and  C_20
    5  A    between atoms: C_14  and  N_18
    6  A    between atoms: C_14  and  O_33
    7  A    between atoms: C_17  and  C_21
    8  A    between atoms: C_19  and  C_37
    9  A    between atoms: C_19  and  C_39
   10  A    between atoms: C_20  and  C_26
                            x       y       z     vdW  Elec       q    Type
                         _______ _______ _______ _____ _____    ______ ____

>  <TORSDO>
F 10

$$$$
