=
 OpenBabel10222417173D

 46 53  0  0  1  0  0  0  0  0999 V2000
  191.4740  176.9070  141.9190 C   0  0  0  0  0  3  0  0  0  0  0  0
  187.6710  178.0680  143.6910 C   0  0  0  0  0  3  0  0  0  0  0  0
  188.1270  178.1860  140.8160 O   0  0  0  0  0  1  0  0  0  0  0  0
  189.1330  177.7590  141.6790 C   0  0  0  0  0  0  0  0  0  0  0  0
  189.6450  177.0850  146.6470 C   0  0  0  0  0  0  0  0  0  0  0  0
  187.8930  177.8780  145.0550 C   0  0  0  0  0  0  0  0  0  0  0  0
  186.8810  178.0260  146.1550 C   0  0  1  0  0  3  0  0  0  0  0  0
  190.8710  176.7070  146.8900 C   0  0  0  0  0  0  0  0  0  0  0  0
  188.8570  177.7280  143.0570 C   0  0  0  0  0  0  0  0  0  0  0  0
  192.0350  176.3490  147.1200 O   0  0  0  0  0  0  0  0  0  0  0  0
  187.5890  178.2330  147.5070 C   0  0  0  0  0  2  0  0  0  0  0  0
  189.7930  177.3080  144.0690 C   0  0  0  0  0  0  0  0  0  0  0  0
  190.3920  177.3740  141.1380 C   0  0  0  0  0  0  0  0  0  0  0  0
  188.6450  177.1460  147.7690 C   0  0  0  0  0  2  0  0  0  0  0  0
  191.3240  176.7940  143.6080 S   0  0  0  0  0  0  0  0  0  0  0  0
  189.1690  177.3980  145.2880 C   0  0  0  0  0  0  0  0  0  0  0  0
  189.2960  176.4970  138.0500 C   0  0  0  0  0  0  0  0  0  0  0  0
  190.5160  175.7160  138.1410 C   0  0  0  0  0  0  0  0  0  0  0  0
  190.5800  177.4800  139.6520 C   0  0  1  0  0  3  0  0  0  0  0  0
  191.2750  176.2660  139.0820 C   0  0  0  0  0  3  0  0  0  0  0  0
  189.3290  177.5220  138.9720 O   0  0  0  0  0  0  0  0  0  0  0  0
  188.3220  176.2790  137.2760 O   0  0  0  0  0  0  0  0  0  0  0  0
  193.3950  174.9830  137.4850 C   0  0  0  0  0  3  0  0  0  0  0  0
  193.1760  175.5340  134.7270 C   0  0  0  0  0  2  0  0  0  0  0  0
  190.1120  174.4220  136.0980 N   0  0  0  0  0  0  0  0  0  0  0  0
  192.2870  174.6470  136.8170 C   0  0  0  0  0  0  0  0  0  0  0  0
  190.8980  174.6780  134.9910 O   0  0  0  0  0  0  0  0  0  0  0  0
  194.4850  175.5180  135.4030 N   0  0  0  0  0  0  0  0  0  0  0  0
  190.9230  174.5180  137.3180 C   0  0  1  0  0  3  0  0  0  0  0  0
  194.5960  175.3020  136.6850 C   0  0  0  0  0  3  0  0  0  0  0  0
  192.2470  174.4950  135.3660 C   0  0  1  0  0  3  0  0  0  0  0  0
  188.4280  172.8700  136.9180 C   0  0  0  0  0  1  0  0  0  0  0  0
  189.6160  173.0540  135.9940 C   0  0  0  0  0  2  0  0  0  0  0  0
  186.0140  179.1250  145.8830 O   0  0  0  0  0  0  0  0  0  0  0  0
  183.6680  178.7180  145.5240 C   0  0  0  0  0  3  0  0  0  0  0  0
  184.9270  179.0390  145.0080 C   0  0  0  0  0  0  0  0  0  0  0  0
  183.9580  179.1960  142.7860 C   0  0  0  0  0  3  0  0  0  0  0  0
  182.6920  178.8810  143.3010 C   0  0  0  0  0  0  0  0  0  0  0  0
  182.5570  178.6400  144.6770 C   0  0  0  0  0  3  0  0  0  0  0  0
  185.0680  179.2770  143.6320 C   0  0  0  0  0  3  0  0  0  0  0  0
  179.8010  176.9930  140.2550 C   0  0  0  0  0  1  0  0  0  0  0  0
  179.3400  179.0260  141.6080 C   0  0  0  0  0  2  0  0  0  0  0  0
  180.2120  178.4350  140.5070 C   0  0  1  0  0  3  0  0  0  0  0  0
  181.6400  178.4720  141.0220 C   0  0  0  0  0  2  0  0  0  0  0  0
  181.5500  178.8080  142.4310 N   0  0  0  0  0  0  0  0  0  0  0  0
  180.1940  179.0830  142.8630 C   0  0  0  0  0  2  0  0  0  0  0  0
  1 15  1  0  0  0  0
  2  6  2  0  0  0  0
  3  4  1  0  0  0  0
  4  9  2  0  0  0  0
  5  8  2  0  0  0  0
  5 14  1  0  0  0  0
  6 16  1  0  0  0  0
  6  7  1  0  0  0  0
  7 34  1  6  0  0  0
  7 11  1  0  0  0  0
  8 10  2  0  0  0  0
  9  2  1  0  0  0  0
  9 12  1  0  0  0  0
 11 14  1  0  0  0  0
 12 16  2  0  0  0  0
 13  4  1  0  0  0  0
 13  1  2  0  0  0  0
 15 12  1  0  0  0  0
 16  5  1  0  0  0  0
 17 18  1  0  0  0  0
 17 21  1  0  0  0  0
 18 20  2  0  0  0  0
 19 13  1  1  0  0  0
 20 19  1  0  0  0  0
 21 19  1  0  0  0  0
 22 17  2  0  0  0  0
 24 28  1  0  0  0  0
 25 29  1  0  0  0  0
 26 29  1  0  0  0  0
 26 23  2  0  0  0  0
 27 31  1  0  0  0  0
 27 25  1  0  0  0  0
 28 30  2  0  0  0  0
 29 18  1  6  0  0  0
 30 23  1  0  0  0  0
 31 24  1  6  0  0  0
 31 26  1  0  0  0  0
 33 25  1  0  0  0  0
 33 32  1  0  0  0  0
 36 35  1  0  0  0  0
 36 34  1  0  0  0  0
 37 38  2  0  0  0  0
 37 40  1  0  0  0  0
 38 39  1  0  0  0  0
 39 35  2  0  0  0  0
 40 36  2  0  0  0  0
 42 46  1  0  0  0  0
 43 41  1  1  0  0  0
 43 44  1  0  0  0  0
 43 42  1  0  0  0  0
 44 45  1  0  0  0  0
 45 46  1  0  0  0  0
 45 38  1  0  0  0  0
M  END
>  <MODEL>
1

>  <REMARK>
 VINA RESULT:     -11.5      0.000      0.000
  Name = 
  6 active torsions:
  status: ('A' for Active; 'I' for Inactive)
    1  A    between atoms: C_14  and  O_18
    2  A    between atoms: C_16  and  N_27
    3  A    between atoms: C_17  and  O_18
    4  A    between atoms: C_24  and  N_37
    5  A    between atoms: C_26  and  C_38
    6  A    between atoms: C_30  and  C_39
                            x       y       z     vdW  Elec       q    Type
                         _______ _______ _______ _____ _____    ______ ____

>  <TORSDO>
F 6

$$$$
=
 OpenBabel10222417173D

 46 53  0  0  1  0  0  0  0  0999 V2000
  191.5260  176.7410  142.0570 C   0  0  0  0  0  3  0  0  0  0  0  0
  187.5080  178.0330  143.1230 C   0  0  0  0  0  3  0  0  0  0  0  0
  188.4290  177.9960  140.3590 O   0  0  0  0  0  1  0  0  0  0  0  0
  189.2720  177.6040  141.3960 C   0  0  0  0  0  0  0  0  0  0  0  0
  188.9550  177.1850  146.4080 C   0  0  0  0  0  0  0  0  0  0  0  0
  187.5010  177.9130  144.5130 C   0  0  0  0  0  0  0  0  0  0  0  0
  186.3260  178.1290  145.4230 C   0  0  1  0  0  3  0  0  0  0  0  0
  190.1180  176.8070  146.8660 C   0  0  0  0  0  0  0  0  0  0  0  0
  188.7750  177.6480  142.7100 C   0  0  0  0  0  0  0  0  0  0  0  0
  191.2210  176.4500  147.3020 O   0  0  0  0  0  0  0  0  0  0  0  0
  186.8090  178.3980  146.8610 C   0  0  0  0  0  2  0  0  0  0  0  0
  189.5260  177.2710  143.8800 C   0  0  0  0  0  0  0  0  0  0  0  0
  190.5950  177.1780  141.0880 C   0  0  0  0  0  0  0  0  0  0  0  0
  187.7870  177.3150  147.3460 C   0  0  0  0  0  2  0  0  0  0  0  0
  191.1010  176.7180  143.7030 S   0  0  0  0  0  0  0  0  0  0  0  0
  188.7130  177.4320  144.9750 C   0  0  0  0  0  0  0  0  0  0  0  0
  191.5810  175.4070  138.3680 C   0  0  0  0  0  0  0  0  0  0  0  0
  192.8270  176.0500  138.7430 C   0  0  0  0  0  0  0  0  0  0  0  0
  191.0240  177.2040  139.6490 C   0  0  1  0  0  3  0  0  0  0  0  0
  192.5240  177.0960  139.5040 C   0  0  0  0  0  3  0  0  0  0  0  0
  190.5190  176.0790  138.9360 O   0  0  0  0  0  0  0  0  0  0  0  0
  191.4570  174.3710  137.6550 O   0  0  0  0  0  0  0  0  0  0  0  0
  193.8100  175.9090  135.8670 C   0  0  0  0  0  3  0  0  0  0  0  0
  194.1370  173.1070  135.8480 C   0  0  0  0  0  2  0  0  0  0  0  0
  194.6790  174.4770  139.0630 N   0  0  0  0  0  0  0  0  0  0  0  0
  194.3050  175.2810  136.9380 C   0  0  0  0  0  0  0  0  0  0  0  0
  194.8030  173.4190  138.1820 O   0  0  0  0  0  0  0  0  0  0  0  0
  193.9800  173.8680  134.5960 N   0  0  0  0  0  0  0  0  0  0  0  0
  194.2320  175.6760  138.3410 C   0  0  1  0  0  3  0  0  0  0  0  0
  193.7900  175.1590  134.5940 C   0  0  0  0  0  3  0  0  0  0  0  0
  194.8990  173.9490  136.8780 C   0  0  1  0  0  3  0  0  0  0  0  0
  195.8790  175.8120  140.7050 C   0  0  0  0  0  1  0  0  0  0  0  0
  195.9970  174.7560  139.6240 C   0  0  0  0  0  2  0  0  0  0  0  0
  185.5370  179.2210  144.9580 O   0  0  0  0  0  0  0  0  0  0  0  0
  183.1570  178.9160  144.7480 C   0  0  0  0  0  3  0  0  0  0  0  0
  184.4110  179.0560  144.1460 C   0  0  0  0  0  0  0  0  0  0  0  0
  183.3640  178.8840  141.9610 C   0  0  0  0  0  3  0  0  0  0  0  0
  182.1030  178.7500  142.5600 C   0  0  0  0  0  0  0  0  0  0  0  0
  182.0100  178.7650  143.9610 C   0  0  0  0  0  3  0  0  0  0  0  0
  184.5100  179.0380  142.7460 C   0  0  0  0  0  3  0  0  0  0  0  0
  179.3820  179.3390  138.8930 C   0  0  0  0  0  1  0  0  0  0  0  0
  179.0510  177.6360  140.6720 C   0  0  0  0  0  2  0  0  0  0  0  0
  179.0700  179.1290  140.3660 C   0  0  1  0  0  3  0  0  0  0  0  0
  180.1830  179.7260  141.2090 C   0  0  0  0  0  2  0  0  0  0  0  0
  180.9240  178.6030  141.7510 N   0  0  0  0  0  0  0  0  0  0  0  0
  180.3410  177.3210  141.4090 C   0  0  0  0  0  2  0  0  0  0  0  0
  1 15  1  0  0  0  0
  2  6  2  0  0  0  0
  3  4  1  0  0  0  0
  4  9  2  0  0  0  0
  5  8  2  0  0  0  0
  5 14  1  0  0  0  0
  6 16  1  0  0  0  0
  6  7  1  0  0  0  0
  7 34  1  6  0  0  0
  7 11  1  0  0  0  0
  8 10  2  0  0  0  0
  9  2  1  0  0  0  0
  9 12  1  0  0  0  0
 11 14  1  0  0  0  0
 12 16  2  0  0  0  0
 13  4  1  0  0  0  0
 13  1  2  0  0  0  0
 15 12  1  0  0  0  0
 16  5  1  0  0  0  0
 17 18  1  0  0  0  0
 17 21  1  0  0  0  0
 18 20  2  0  0  0  0
 19 13  1  1  0  0  0
 20 19  1  0  0  0  0
 21 19  1  0  0  0  0
 22 17  2  0  0  0  0
 23 26  2  0  0  0  0
 25 33  1  0  0  0  0
 26 29  1  0  0  0  0
 27 25  1  0  0  0  0
 28 24  1  0  0  0  0
 29 18  1  1  0  0  0
 29 25  1  0  0  0  0
 30 28  2  0  0  0  0
 30 23  1  0  0  0  0
 31 24  1  6  0  0  0
 31 26  1  0  0  0  0
 31 27  1  0  0  0  0
 33 32  1  0  0  0  0
 36 35  1  0  0  0  0
 36 34  1  0  0  0  0
 37 38  2  0  0  0  0
 37 40  1  0  0  0  0
 38 39  1  0  0  0  0
 39 35  2  0  0  0  0
 40 36  2  0  0  0  0
 42 46  1  0  0  0  0
 43 41  1  6  0  0  0
 43 42  1  0  0  0  0
 43 44  1  0  0  0  0
 44 45  1  0  0  0  0
 45 38  1  0  0  0  0
 46 45  1  0  0  0  0
M  END
>  <MODEL>
2

>  <REMARK>
 VINA RESULT:     -11.5      1.649      2.587
  Name = 
  6 active torsions:
  status: ('A' for Active; 'I' for Inactive)
    1  A    between atoms: C_14  and  O_18
    2  A    between atoms: C_16  and  N_27
    3  A    between atoms: C_17  and  O_18
    4  A    between atoms: C_24  and  N_37
    5  A    between atoms: C_26  and  C_38
    6  A    between atoms: C_30  and  C_39
                            x       y       z     vdW  Elec       q    Type
                         _______ _______ _______ _____ _____    ______ ____

>  <TORSDO>
F 6

$$$$
=
 OpenBabel10222417173D

 46 53  0  0  1  0  0  0  0  0999 V2000
  184.1670  178.7810  142.1400 C   0  0  0  0  0  3  0  0  0  0  0  0
  188.2990  178.0290  143.2840 C   0  0  0  0  0  3  0  0  0  0  0  0
  187.5120  178.3690  140.4990 O   0  0  0  0  0  1  0  0  0  0  0  0
  186.5660  178.4340  141.5190 C   0  0  0  0  0  0  0  0  0  0  0  0
  186.5780  178.0610  146.5450 C   0  0  0  0  0  0  0  0  0  0  0  0
  188.2220  177.9160  144.6710 C   0  0  0  0  0  0  0  0  0  0  0  0
  189.3740  177.7540  145.6210 C   0  0  1  0  0  3  0  0  0  0  0  0
  185.3460  178.1550  146.9690 C   0  0  0  0  0  0  0  0  0  0  0  0
  187.0040  178.2570  142.8430 C   0  0  0  0  0  0  0  0  0  0  0  0
  184.1780  178.2440  147.3730 O   0  0  0  0  0  0  0  0  0  0  0  0
  188.8830  177.1710  146.9600 C   0  0  0  0  0  2  0  0  0  0  0  0
  186.1460  178.3020  144.0000 C   0  0  0  0  0  0  0  0  0  0  0  0
  185.2040  178.6760  141.1850 C   0  0  0  0  0  0  0  0  0  0  0  0
  187.7070  177.9770  147.5350 C   0  0  0  0  0  2  0  0  0  0  0  0
  184.5060  178.6020  143.7960 S   0  0  0  0  0  0  0  0  0  0  0  0
  186.9240  178.1010  145.1130 C   0  0  0  0  0  0  0  0  0  0  0  0
  183.1620  180.0690  138.8620 C   0  0  0  0  0  0  0  0  0  0  0  0
  182.7150  178.6890  138.8290 C   0  0  0  0  0  0  0  0  0  0  0  0
  184.8520  178.8170  139.7320 C   0  0  1  0  0  3  0  0  0  0  0  0
  183.6830  177.9410  139.3460 C   0  0  0  0  0  3  0  0  0  0  0  0
  184.4170  180.1390  139.4290 O   0  0  0  0  0  0  0  0  0  0  0  0
  182.5110  181.0770  138.4680 O   0  0  0  0  0  0  0  0  0  0  0  0
  180.0910  178.6230  140.3680 C   0  0  0  0  0  3  0  0  0  0  0  0
  180.0120  175.8140  140.6140 C   0  0  0  0  0  2  0  0  0  0  0  0
  181.6380  176.8320  137.6440 N   0  0  0  0  0  0  0  0  0  0  0  0
  180.4660  177.8460  139.3470 C   0  0  0  0  0  0  0  0  0  0  0  0
  181.0320  175.8390  138.3900 O   0  0  0  0  0  0  0  0  0  0  0  0
  179.2550  176.6840  141.5310 N   0  0  0  0  0  0  0  0  0  0  0  0
  181.4210  178.1370  138.2830 C   0  0  1  0  0  3  0  0  0  0  0  0
  179.3140  177.9850  141.4520 C   0  0  0  0  0  3  0  0  0  0  0  0
  180.0670  176.4480  139.2190 C   0  0  1  0  0  3  0  0  0  0  0  0
  181.7470  177.8250  135.4260 C   0  0  0  0  0  1  0  0  0  0  0  0
  181.0030  176.8640  136.3300 C   0  0  0  0  0  2  0  0  0  0  0  0
  190.3660  176.9030  145.0510 O   0  0  0  0  0  0  0  0  0  0  0  0
  189.9750  175.9210  142.8870 C   0  0  0  0  0  3  0  0  0  0  0  0
  190.6380  176.8620  143.6800 C   0  0  0  0  0  0  0  0  0  0  0  0
  191.7890  177.6900  141.7080 C   0  0  0  0  0  3  0  0  0  0  0  0
  191.1200  176.7520  140.9070 C   0  0  0  0  0  0  0  0  0  0  0  0
  190.2130  175.8660  141.5100 C   0  0  0  0  0  3  0  0  0  0  0  0
  191.5490  177.7470  143.0830 C   0  0  0  0  0  3  0  0  0  0  0  0
  192.9480  175.2060  136.9740 C   0  0  0  0  0  1  0  0  0  0  0  0
  190.9930  176.7300  137.1520 C   0  0  0  0  0  2  0  0  0  0  0  0
  192.4890  176.5890  137.4060 C   0  0  1  0  0  3  0  0  0  0  0  0
  192.6870  176.7440  138.9040 C   0  0  0  0  0  2  0  0  0  0  0  0
  191.3600  176.7010  139.4910 N   0  0  0  0  0  0  0  0  0  0  0  0
  190.3050  176.6210  138.5010 C   0  0  0  0  0  2  0  0  0  0  0  0
  1 15  1  0  0  0  0
  2  6  2  0  0  0  0
  3  4  1  0  0  0  0
  4  9  2  0  0  0  0
  5  8  2  0  0  0  0
  5 14  1  0  0  0  0
  6 16  1  0  0  0  0
  6  7  1  0  0  0  0
  7 34  1  6  0  0  0
  7 11  1  0  0  0  0
  8 10  2  0  0  0  0
  9  2  1  0  0  0  0
  9 12  1  0  0  0  0
 11 14  1  0  0  0  0
 12 16  2  0  0  0  0
 13  4  1  0  0  0  0
 13  1  2  0  0  0  0
 15 12  1  0  0  0  0
 16  5  1  0  0  0  0
 17 21  1  0  0  0  0
 18 17  1  0  0  0  0
 18 20  2  0  0  0  0
 19 13  1  1  0  0  0
 20 19  1  0  0  0  0
 21 19  1  0  0  0  0
 22 17  2  0  0  0  0
 23 30  1  0  0  0  0
 24 28  1  0  0  0  0
 25 29  1  0  0  0  0
 25 27  1  0  0  0  0
 26 23  2  0  0  0  0
 27 31  1  0  0  0  0
 29 18  1  1  0  0  0
 29 26  1  0  0  0  0
 30 28  2  0  0  0  0
 31 26  1  0  0  0  0
 31 24  1  1  0  0  0
 32 33  1  0  0  0  0
 33 25  1  0  0  0  0
 35 36  1  0  0  0  0
 36 34  1  0  0  0  0
 37 40  1  0  0  0  0
 38 39  1  0  0  0  0
 38 37  2  0  0  0  0
 39 35  2  0  0  0  0
 40 36  2  0  0  0  0
 42 43  1  0  0  0  0
 42 46  1  0  0  0  0
 43 41  1  1  0  0  0
 43 44  1  0  0  0  0
 44 45  1  0  0  0  0
 45 38  1  0  0  0  0
 46 45  1  0  0  0  0
M  END
>  <MODEL>
3

>  <REMARK>
 VINA RESULT:     -10.7      2.836      8.815
  Name = 
  6 active torsions:
  status: ('A' for Active; 'I' for Inactive)
    1  A    between atoms: C_14  and  O_18
    2  A    between atoms: C_16  and  N_27
    3  A    between atoms: C_17  and  O_18
    4  A    between atoms: C_24  and  N_37
    5  A    between atoms: C_26  and  C_38
    6  A    between atoms: C_30  and  C_39
                            x       y       z     vdW  Elec       q    Type
                         _______ _______ _______ _____ _____    ______ ____

>  <TORSDO>
F 6

$$$$
=
 OpenBabel10222417173D

 46 53  0  0  1  0  0  0  0  0999 V2000
  186.2310  178.4220  138.9950 C   0  0  0  0  0  3  0  0  0  0  0  0
  185.5080  178.8690  143.2630 C   0  0  0  0  0  3  0  0  0  0  0  0
  188.2020  178.6430  142.1750 O   0  0  0  0  0  1  0  0  0  0  0  0
  187.0900  178.6020  141.3370 C   0  0  0  0  0  0  0  0  0  0  0  0
  182.0890  178.8940  141.8850 C   0  0  0  0  0  0  0  0  0  0  0  0
  184.1170  178.9200  143.3400 C   0  0  0  0  0  0  0  0  0  0  0  0
  183.2980  179.1710  144.5740 C   0  0  1  0  0  3  0  0  0  0  0  0
  181.5340  178.7340  140.7130 C   0  0  0  0  0  0  0  0  0  0  0  0
  185.8150  178.7110  141.9210 C   0  0  0  0  0  0  0  0  0  0  0  0
  181.0070  178.5820  139.6020 O   0  0  0  0  0  0  0  0  0  0  0  0
  181.8580  178.6630  144.3700 C   0  0  0  0  0  2  0  0  0  0  0  0
  184.5770  178.6900  141.1840 C   0  0  0  0  0  0  0  0  0  0  0  0
  187.2850  178.4540  139.9360 C   0  0  0  0  0  0  0  0  0  0  0  0
  181.2350  179.2200  143.0790 C   0  0  0  0  0  2  0  0  0  0  0  0
  184.6160  178.5470  139.5120 S   0  0  0  0  0  0  0  0  0  0  0  0
  183.5480  178.8340  142.0820 C   0  0  0  0  0  0  0  0  0  0  0  0
  189.3310  177.8280  137.3030 C   0  0  0  0  0  0  0  0  0  0  0  0
  189.4940  176.6090  138.0740 C   0  0  0  0  0  0  0  0  0  0  0  0
  188.6930  178.3160  139.4330 C   0  0  1  0  0  3  0  0  0  0  0  0
  189.1140  176.8690  139.3200 C   0  0  0  0  0  3  0  0  0  0  0  0
  188.8240  178.8250  138.1100 O   0  0  0  0  0  0  0  0  0  0  0  0
  189.5770  177.9750  136.0730 O   0  0  0  0  0  0  0  0  0  0  0  0
  192.4480  175.9890  137.6870 C   0  0  0  0  0  3  0  0  0  0  0  0
  192.2920  175.7550  134.8800 C   0  0  0  0  0  2  0  0  0  0  0  0
  189.2790  174.7820  136.4540 N   0  0  0  0  0  0  0  0  0  0  0  0
  191.3980  175.3870  137.1180 C   0  0  0  0  0  0  0  0  0  0  0  0
  190.0840  174.8000  135.3310 O   0  0  0  0  0  0  0  0  0  0  0  0
  193.5710  176.0400  135.5540 N   0  0  0  0  0  0  0  0  0  0  0  0
  190.0310  175.2760  137.6150 C   0  0  1  0  0  3  0  0  0  0  0  0
  193.6490  176.1880  136.8480 C   0  0  0  0  0  3  0  0  0  0  0  0
  191.4270  174.8470  135.7620 C   0  0  1  0  0  3  0  0  0  0  0  0
  187.3950  173.2930  136.8440 C   0  0  0  0  0  1  0  0  0  0  0  0
  188.9020  173.3970  136.7190 C   0  0  0  0  0  2  0  0  0  0  0  0
  183.8900  178.5270  145.6980 O   0  0  0  0  0  0  0  0  0  0  0  0
  186.0880  179.0200  146.5520 C   0  0  0  0  0  3  0  0  0  0  0  0
  185.2520  178.2180  145.7690 C   0  0  0  0  0  0  0  0  0  0  0  0
  187.1580  176.8300  145.1850 C   0  0  0  0  0  3  0  0  0  0  0  0
  187.9990  177.6270  145.9750 C   0  0  0  0  0  0  0  0  0  0  0  0
  187.4520  178.7270  146.6550 C   0  0  0  0  0  3  0  0  0  0  0  0
  185.7940  177.1200  145.0840 C   0  0  0  0  0  3  0  0  0  0  0  0
  191.7280  175.2930  147.3310 C   0  0  0  0  0  1  0  0  0  0  0  0
  191.6750  176.9970  145.5230 C   0  0  0  0  0  2  0  0  0  0  0  0
  191.5080  176.7640  147.0200 C   0  0  1  0  0  3  0  0  0  0  0  0
  190.0780  177.1450  147.3570 C   0  0  0  0  0  2  0  0  0  0  0  0
  189.3990  177.3210  146.0870 N   0  0  0  0  0  0  0  0  0  0  0  0
  190.2820  177.1760  144.9470 C   0  0  0  0  0  2  0  0  0  0  0  0
  1 15  1  0  0  0  0
  1 13  2  0  0  0  0
  2  6  2  0  0  0  0
  4  9  2  0  0  0  0
  4  3  1  0  0  0  0
  5 16  1  0  0  0  0
  5 14  1  0  0  0  0
  6  7  1  0  0  0  0
  7 34  1  1  0  0  0
  8  5  2  0  0  0  0
  9  2  1  0  0  0  0
 10  8  2  0  0  0  0
 11  7  1  0  0  0  0
 12  9  1  0  0  0  0
 12 16  2  0  0  0  0
 13  4  1  0  0  0  0
 14 11  1  0  0  0  0
 15 12  1  0  0  0  0
 16  6  1  0  0  0  0
 17 18  1  0  0  0  0
 17 21  1  0  0  0  0
 18 20  2  0  0  0  0
 19 13  1  6  0  0  0
 20 19  1  0  0  0  0
 21 19  1  0  0  0  0
 22 17  2  0  0  0  0
 24 28  1  0  0  0  0
 25 33  1  0  0  0  0
 25 29  1  0  0  0  0
 26 29  1  0  0  0  0
 26 23  2  0  0  0  0
 27 31  1  0  0  0  0
 27 25  1  0  0  0  0
 28 30  2  0  0  0  0
 29 18  1  6  0  0  0
 30 23  1  0  0  0  0
 31 24  1  6  0  0  0
 31 26  1  0  0  0  0
 33 32  1  0  0  0  0
 34 36  1  0  0  0  0
 35 39  1  0  0  0  0
 36 35  2  0  0  0  0
 37 38  1  0  0  0  0
 38 45  1  0  0  0  0
 38 39  2  0  0  0  0
 40 37  2  0  0  0  0
 40 36  1  0  0  0  0
 42 43  1  0  0  0  0
 43 41  1  6  0  0  0
 43 44  1  0  0  0  0
 45 44  1  0  0  0  0
 46 42  1  0  0  0  0
 46 45  1  0  0  0  0
M  END
>  <MODEL>
4

>  <REMARK>
 VINA RESULT:     -10.6      2.495      6.182
  Name = 
  6 active torsions:
  status: ('A' for Active; 'I' for Inactive)
    1  A    between atoms: C_14  and  O_18
    2  A    between atoms: C_16  and  N_27
    3  A    between atoms: C_17  and  O_18
    4  A    between atoms: C_24  and  N_37
    5  A    between atoms: C_26  and  C_38
    6  A    between atoms: C_30  and  C_39
                            x       y       z     vdW  Elec       q    Type
                         _______ _______ _______ _____ _____    ______ ____

>  <TORSDO>
F 6

$$$$
=
 OpenBabel10222417173D

 46 53  0  0  1  0  0  0  0  0999 V2000
  186.2170  178.2710  138.9530 C   0  0  0  0  0  3  0  0  0  0  0  0
  185.5200  178.8190  143.2150 C   0  0  0  0  0  3  0  0  0  0  0  0
  188.2050  178.5350  142.1200 O   0  0  0  0  0  1  0  0  0  0  0  0
  187.0890  178.4910  141.2880 C   0  0  0  0  0  0  0  0  0  0  0  0
  182.0950  178.8590  141.8500 C   0  0  0  0  0  0  0  0  0  0  0  0
  184.1300  178.8900  143.2950 C   0  0  0  0  0  0  0  0  0  0  0  0
  183.3190  179.1790  144.5270 C   0  0  1  0  0  3  0  0  0  0  0  0
  181.5330  178.6810  140.6840 C   0  0  0  0  0  0  0  0  0  0  0  0
  185.8190  178.6280  141.8740 C   0  0  0  0  0  0  0  0  0  0  0  0
  180.9990  178.5120  139.5790 O   0  0  0  0  0  0  0  0  0  0  0  0
  181.8720  178.6850  144.3400 C   0  0  0  0  0  2  0  0  0  0  0  0
  184.5760  178.6080  141.1440 C   0  0  0  0  0  0  0  0  0  0  0  0
  187.2760  178.3100  139.8890 C   0  0  0  0  0  0  0  0  0  0  0  0
  181.2500  179.2220  143.0400 C   0  0  0  0  0  2  0  0  0  0  0  0
  184.6070  178.4280  139.4740 S   0  0  0  0  0  0  0  0  0  0  0  0
  183.5530  178.7840  142.0430 C   0  0  0  0  0  0  0  0  0  0  0  0
  189.3610  178.2380  137.2140 C   0  0  0  0  0  0  0  0  0  0  0  0
  189.3320  176.8340  137.5780 C   0  0  0  0  0  0  0  0  0  0  0  0
  188.6800  178.1420  139.3840 C   0  0  1  0  0  3  0  0  0  0  0  0
  188.9230  176.7550  138.8390 C   0  0  0  0  0  3  0  0  0  0  0  0
  188.9410  179.0050  138.2810 O   0  0  0  0  0  0  0  0  0  0  0  0
  189.6860  178.7150  136.0910 O   0  0  0  0  0  0  0  0  0  0  0  0
  187.5830  175.6160  135.4060 C   0  0  0  0  0  3  0  0  0  0  0  0
  187.0970  173.2080  136.7930 C   0  0  0  0  0  2  0  0  0  0  0  0
  190.2650  174.5670  137.5800 N   0  0  0  0  0  0  0  0  0  0  0  0
  188.5630  175.0280  136.1010 C   0  0  0  0  0  0  0  0  0  0  0  0
  189.3910  173.4960  137.5940 O   0  0  0  0  0  0  0  0  0  0  0  0
  186.1970  173.6690  135.7210 N   0  0  0  0  0  0  0  0  0  0  0  0
  189.7220  175.6420  136.7390 C   0  0  1  0  0  3  0  0  0  0  0  0
  186.3900  174.8000  135.0990 C   0  0  0  0  0  3  0  0  0  0  0  0
  188.5390  173.6180  136.4750 C   0  0  1  0  0  3  0  0  0  0  0  0
  192.6730  174.9130  137.5670 C   0  0  0  0  0  1  0  0  0  0  0  0
  191.5200  174.1200  136.9840 C   0  0  0  0  0  2  0  0  0  0  0  0
  183.9080  178.5510  145.6630 O   0  0  0  0  0  0  0  0  0  0  0  0
  186.0970  179.0040  146.5590 C   0  0  0  0  0  3  0  0  0  0  0  0
  185.2680  178.2340  145.7380 C   0  0  0  0  0  0  0  0  0  0  0  0
  187.1750  176.8600  145.1260 C   0  0  0  0  0  3  0  0  0  0  0  0
  188.0090  177.6250  145.9540 C   0  0  0  0  0  0  0  0  0  0  0  0
  187.4590  178.7010  146.6680 C   0  0  0  0  0  3  0  0  0  0  0  0
  185.8140  177.1590  145.0200 C   0  0  0  0  0  3  0  0  0  0  0  0
  191.7200  175.2830  147.3500 C   0  0  0  0  0  1  0  0  0  0  0  0
  191.6810  176.9560  145.5130 C   0  0  0  0  0  2  0  0  0  0  0  0
  191.5120  176.7510  147.0140 C   0  0  1  0  0  3  0  0  0  0  0  0
  190.0850  177.1490  147.3440 C   0  0  0  0  0  2  0  0  0  0  0  0
  189.4070  177.3090  146.0710 N   0  0  0  0  0  0  0  0  0  0  0  0
  190.2890  177.1370  144.9340 C   0  0  0  0  0  2  0  0  0  0  0  0
  1 15  1  0  0  0  0
  1 13  2  0  0  0  0
  2  6  2  0  0  0  0
  4  9  2  0  0  0  0
  4  3  1  0  0  0  0
  5 16  1  0  0  0  0
  5 14  1  0  0  0  0
  6  7  1  0  0  0  0
  7 34  1  1  0  0  0
  8  5  2  0  0  0  0
  9  2  1  0  0  0  0
 10  8  2  0  0  0  0
 11  7  1  0  0  0  0
 12  9  1  0  0  0  0
 12 16  2  0  0  0  0
 13  4  1  0  0  0  0
 14 11  1  0  0  0  0
 15 12  1  0  0  0  0
 16  6  1  0  0  0  0
 17 18  1  0  0  0  0
 17 21  1  0  0  0  0
 18 20  2  0  0  0  0
 19 13  1  6  0  0  0
 20 19  1  0  0  0  0
 21 19  1  0  0  0  0
 22 17  2  0  0  0  0
 23 26  2  0  0  0  0
 25 27  1  0  0  0  0
 26 31  1  0  0  0  0
 26 29  1  0  0  0  0
 28 24  1  0  0  0  0
 29 18  1  1  0  0  0
 29 25  1  0  0  0  0
 30 23  1  0  0  0  0
 30 28  2  0  0  0  0
 31 24  1  1  0  0  0
 31 27  1  0  0  0  0
 33 32  1  0  0  0  0
 33 25  1  0  0  0  0
 34 36  1  0  0  0  0
 35 39  1  0  0  0  0
 36 35  2  0  0  0  0
 37 38  1  0  0  0  0
 38 45  1  0  0  0  0
 38 39  2  0  0  0  0
 40 37  2  0  0  0  0
 40 36  1  0  0  0  0
 42 43  1  0  0  0  0
 43 44  1  0  0  0  0
 43 41  1  6  0  0  0
 45 44  1  0  0  0  0
 46 42  1  0  0  0  0
 46 45  1  0  0  0  0
M  END
>  <MODEL>
5

>  <REMARK>
 VINA RESULT:     -10.5      2.713      6.680
  Name = 
  6 active torsions:
  status: ('A' for Active; 'I' for Inactive)
    1  A    between atoms: C_14  and  O_18
    2  A    between atoms: C_16  and  N_27
    3  A    between atoms: C_17  and  O_18
    4  A    between atoms: C_24  and  N_37
    5  A    between atoms: C_26  and  C_38
    6  A    between atoms: C_30  and  C_39
                            x       y       z     vdW  Elec       q    Type
                         _______ _______ _______ _____ _____    ______ ____

>  <TORSDO>
F 6

$$$$
=
 OpenBabel10222417173D

 46 53  0  0  1  0  0  0  0  0999 V2000
  184.2180  178.6300  145.3850 C   0  0  0  0  0  3  0  0  0  0  0  0
  186.9910  178.2510  142.0510 C   0  0  0  0  0  3  0  0  0  0  0  0
  184.2550  179.1810  141.6770 O   0  0  0  0  0  1  0  0  0  0  0  0
  184.7210  178.8310  142.9420 C   0  0  0  0  0  0  0  0  0  0  0  0
  189.0520  177.1650  144.9100 C   0  0  0  0  0  0  0  0  0  0  0  0
  188.1480  177.7690  142.6620 C   0  0  0  0  0  0  0  0  0  0  0  0
  189.4790  177.5440  142.0040 C   0  0  1  0  0  3  0  0  0  0  0  0
  188.8720  176.9540  146.1860 C   0  0  0  0  0  0  0  0  0  0  0  0
  186.0490  178.3840  143.0600 C   0  0  0  0  0  0  0  0  0  0  0  0
  188.7030  176.7530  147.3970 O   0  0  0  0  0  0  0  0  0  0  0  0
  190.3260  176.5640  142.8380 C   0  0  0  0  0  2  0  0  0  0  0  0
  186.6710  177.9920  144.2990 C   0  0  0  0  0  0  0  0  0  0  0  0
  183.8440  178.9390  144.0570 C   0  0  0  0  0  0  0  0  0  0  0  0
  190.4200  177.0000  144.3090 C   0  0  0  0  0  2  0  0  0  0  0  0
  185.7900  178.0790  145.7260 S   0  0  0  0  0  0  0  0  0  0  0  0
  187.9680  177.6300  144.0270 C   0  0  0  0  0  0  0  0  0  0  0  0
  180.6440  178.0780  143.3310 C   0  0  0  0  0  0  0  0  0  0  0  0
  181.0590  178.6780  142.0760 C   0  0  0  0  0  0  0  0  0  0  0  0
  182.4370  179.3980  143.8020 C   0  0  1  0  0  3  0  0  0  0  0  0
  182.1150  179.4430  142.3270 C   0  0  0  0  0  3  0  0  0  0  0  0
  181.4870  178.4860  144.3430 O   0  0  0  0  0  0  0  0  0  0  0  0
  179.6810  177.2780  143.4970 O   0  0  0  0  0  0  0  0  0  0  0  0
  181.7620  176.4910  140.0800 C   0  0  0  0  0  3  0  0  0  0  0  0
  182.9720  178.2280  138.2160 C   0  0  0  0  0  2  0  0  0  0  0  0
  180.3810  179.8240  140.0180 N   0  0  0  0  0  0  0  0  0  0  0  0
  181.2280  177.6910  139.8330 C   0  0  0  0  0  0  0  0  0  0  0  0
  181.2450  179.8040  138.9390 O   0  0  0  0  0  0  0  0  0  0  0  0
  183.2780  176.7870  138.2300 N   0  0  0  0  0  0  0  0  0  0  0  0
  180.4250  178.5320  140.7150 C   0  0  1  0  0  3  0  0  0  0  0  0
  182.7540  175.9800  139.1110 C   0  0  0  0  0  3  0  0  0  0  0  0
  181.5110  178.4550  138.6220 C   0  0  1  0  0  3  0  0  0  0  0  0
  178.9360  181.3410  138.7820 C   0  0  0  0  0  1  0  0  0  0  0  0
  179.0260  180.0150  139.5100 C   0  0  0  0  0  2  0  0  0  0  0  0
  189.2970  177.0350  140.6850 O   0  0  0  0  0  0  0  0  0  0  0  0
  190.1230  176.0020  138.6720 C   0  0  0  0  0  3  0  0  0  0  0  0
  190.3620  176.7610  139.8210 C   0  0  0  0  0  0  0  0  0  0  0  0
  192.6990  176.9560  139.1870 C   0  0  0  0  0  3  0  0  0  0  0  0
  192.4620  176.2010  138.0290 C   0  0  0  0  0  0  0  0  0  0  0  0
  191.1650  175.7240  137.7810 C   0  0  0  0  0  3  0  0  0  0  0  0
  191.6580  177.2370  140.0760 C   0  0  0  0  0  3  0  0  0  0  0  0
  195.7690  177.1450  134.9680 C   0  0  0  0  0  1  0  0  0  0  0  0
  195.4890  174.9850  136.1650 C   0  0  0  0  0  2  0  0  0  0  0  0
  194.8670  175.9350  135.1480 C   0  0  1  0  0  3  0  0  0  0  0  0
  193.5370  176.3770  135.7310 C   0  0  0  0  0  2  0  0  0  0  0  0
  193.5310  175.9220  137.1090 N   0  0  0  0  0  0  0  0  0  0  0  0
  194.7030  175.1430  137.4540 C   0  0  0  0  0  2  0  0  0  0  0  0
  1 15  1  0  0  0  0
  2  6  2  0  0  0  0
  2  9  1  0  0  0  0
  3  4  1  0  0  0  0
  4  9  2  0  0  0  0
  4 13  1  0  0  0  0
  5  8  2  0  0  0  0
  6 16  1  0  0  0  0
  7 34  1  6  0  0  0
  7  6  1  0  0  0  0
  7 11  1  0  0  0  0
  8 10  2  0  0  0  0
  9 12  1  0  0  0  0
 11 14  1  0  0  0  0
 12 15  1  0  0  0  0
 13  1  2  0  0  0  0
 14  5  1  0  0  0  0
 16 12  2  0  0  0  0
 16  5  1  0  0  0  0
 17 22  2  0  0  0  0
 17 21  1  0  0  0  0
 18 20  2  0  0  0  0
 18 17  1  0  0  0  0
 19 13  1  6  0  0  0
 19 21  1  0  0  0  0
 20 19  1  0  0  0  0
 24 28  1  0  0  0  0
 25 29  1  0  0  0  0
 26 23  2  0  0  0  0
 26 29  1  0  0  0  0
 27 25  1  0  0  0  0
 28 30  2  0  0  0  0
 29 18  1  1  0  0  0
 30 23  1  0  0  0  0
 31 24  1  1  0  0  0
 31 27  1  0  0  0  0
 31 26  1  0  0  0  0
 32 33  1  0  0  0  0
 33 25  1  0  0  0  0
 35 36  1  0  0  0  0
 36 40  2  0  0  0  0
 36 34  1  0  0  0  0
 37 40  1  0  0  0  0
 38 37  2  0  0  0  0
 39 38  1  0  0  0  0
 39 35  2  0  0  0  0
 42 46  1  0  0  0  0
 43 41  1  1  0  0  0
 43 44  1  0  0  0  0
 43 42  1  0  0  0  0
 44 45  1  0  0  0  0
 45 46  1  0  0  0  0
 45 38  1  0  0  0  0
M  END
>  <MODEL>
6

>  <REMARK>
 VINA RESULT:     -10.5      2.649      9.979
  Name = 
  6 active torsions:
  status: ('A' for Active; 'I' for Inactive)
    1  A    between atoms: C_14  and  O_18
    2  A    between atoms: C_16  and  N_27
    3  A    between atoms: C_17  and  O_18
    4  A    between atoms: C_24  and  N_37
    5  A    between atoms: C_26  and  C_38
    6  A    between atoms: C_30  and  C_39
                            x       y       z     vdW  Elec       q    Type
                         _______ _______ _______ _____ _____    ______ ____

>  <TORSDO>
F 6

$$$$
=
 OpenBabel10222417173D

 46 53  0  0  1  0  0  0  0  0999 V2000
  185.2930  178.6150  137.9890 C   0  0  0  0  0  3  0  0  0  0  0  0
  188.7510  177.5070  140.3890 C   0  0  0  0  0  3  0  0  0  0  0  0
  186.2680  178.4280  141.6040 O   0  0  0  0  0  1  0  0  0  0  0  0
  186.3920  178.3350  140.2200 C   0  0  0  0  0  0  0  0  0  0  0  0
  189.9640  176.9290  136.9560 C   0  0  0  0  0  0  0  0  0  0  0  0
  189.6970  177.1540  139.4270 C   0  0  0  0  0  0  0  0  0  0  0  0
  191.0640  176.5860  139.6840 C   0  0  1  0  0  3  0  0  0  0  0  0
  189.5120  177.1100  135.7440 C   0  0  0  0  0  0  0  0  0  0  0  0
  187.6160  177.8890  139.6910 C   0  0  0  0  0  0  0  0  0  0  0  0
  189.0840  177.2820  134.5940 O   0  0  0  0  0  0  0  0  0  0  0  0
  191.9680  176.8000  138.4550 C   0  0  0  0  0  2  0  0  0  0  0  0
  187.8910  177.7380  138.2850 C   0  0  0  0  0  0  0  0  0  0  0  0
  185.2840  178.6910  139.4010 C   0  0  0  0  0  0  0  0  0  0  0  0
  191.3080  176.2870  137.1650 C   0  0  0  0  0  2  0  0  0  0  0  0
  186.6860  178.0900  137.1690 S   0  0  0  0  0  0  0  0  0  0  0  0
  189.1750  177.2710  138.1520 C   0  0  0  0  0  0  0  0  0  0  0  0
  182.0430  178.0980  140.2070 C   0  0  0  0  0  0  0  0  0  0  0  0
  181.8900  179.1270  139.1960 C   0  0  0  0  0  0  0  0  0  0  0  0
  184.0380  179.1850  140.0800 C   0  0  1  0  0  3  0  0  0  0  0  0
  183.0510  179.7660  139.0960 C   0  0  0  0  0  3  0  0  0  0  0  0
  183.3300  178.1180  140.7020 O   0  0  0  0  0  0  0  0  0  0  0  0
  181.1600  177.2740  140.5770 O   0  0  0  0  0  0  0  0  0  0  0  0
  180.6820  177.3730  137.0220 C   0  0  0  0  0  3  0  0  0  0  0  0
  181.3220  179.1200  134.9020 C   0  0  0  0  0  2  0  0  0  0  0  0
  180.7300  180.8680  137.9180 N   0  0  0  0  0  0  0  0  0  0  0  0
  180.5580  178.6960  137.1770 C   0  0  0  0  0  0  0  0  0  0  0  0
  180.8690  180.8780  136.5430 O   0  0  0  0  0  0  0  0  0  0  0  0
  181.0640  177.6900  134.6630 N   0  0  0  0  0  0  0  0  0  0  0  0
  180.6580  179.4830  138.4010 C   0  0  1  0  0  3  0  0  0  0  0  0
  180.8050  176.8640  135.6400 C   0  0  0  0  0  3  0  0  0  0  0  0
  180.4470  179.6230  136.0560 C   0  0  1  0  0  3  0  0  0  0  0  0
  179.6150  183.0250  138.0680 C   0  0  0  0  0  1  0  0  0  0  0  0
  179.4710  181.5270  138.2510 C   0  0  0  0  0  2  0  0  0  0  0  0
  191.6450  177.1980  140.8320 O   0  0  0  0  0  0  0  0  0  0  0  0
  190.9520  178.4530  142.7680 C   0  0  0  0  0  3  0  0  0  0  0  0
  191.0090  177.2390  142.0770 C   0  0  0  0  0  0  0  0  0  0  0  0
  189.7800  176.1730  143.8800 C   0  0  0  0  0  3  0  0  0  0  0  0
  189.7150  177.3900  144.5740 C   0  0  0  0  0  0  0  0  0  0  0  0
  190.3080  178.5300  144.0080 C   0  0  0  0  0  3  0  0  0  0  0  0
  190.4200  176.0970  142.6400 C   0  0  0  0  0  3  0  0  0  0  0  0
  189.0860  178.6540  148.9570 C   0  0  0  0  0  1  0  0  0  0  0  0
  187.3410  177.6950  147.4710 C   0  0  0  0  0  2  0  0  0  0  0  0
  188.6580  177.4160  148.1850 C   0  0  1  0  0  3  0  0  0  0  0  0
  189.6790  177.1160  147.1020 C   0  0  0  0  0  2  0  0  0  0  0  0
  189.0470  177.4700  145.8440 N   0  0  0  0  0  0  0  0  0  0  0  0
  187.6690  177.8910  146.0020 C   0  0  0  0  0  2  0  0  0  0  0  0
  1 13  2  0  0  0  0
  4  3  1  0  0  0  0
  5 14  1  0  0  0  0
  5 16  1  0  0  0  0
  6  7  1  0  0  0  0
  6  2  2  0  0  0  0
  7 34  1  1  0  0  0
  8  5  2  0  0  0  0
  9  4  2  0  0  0  0
  9  2  1  0  0  0  0
 10  8  2  0  0  0  0
 11  7  1  0  0  0  0
 12  9  1  0  0  0  0
 13  4  1  0  0  0  0
 14 11  1  0  0  0  0
 15  1  1  0  0  0  0
 15 12  1  0  0  0  0
 16 12  2  0  0  0  0
 16  6  1  0  0  0  0
 17 22  2  0  0  0  0
 17 21  1  0  0  0  0
 18 17  1  0  0  0  0
 19 13  1  6  0  0  0
 19 21  1  0  0  0  0
 20 18  2  0  0  0  0
 20 19  1  0  0  0  0
 23 26  2  0  0  0  0
 25 33  1  0  0  0  0
 25 29  1  0  0  0  0
 26 29  1  0  0  0  0
 27 25  1  0  0  0  0
 28 24  1  0  0  0  0
 28 30  2  0  0  0  0
 29 18  1  6  0  0  0
 30 23  1  0  0  0  0
 31 24  1  6  0  0  0
 31 27  1  0  0  0  0
 31 26  1  0  0  0  0
 32 33  1  0  0  0  0
 34 36  1  0  0  0  0
 35 39  1  0  0  0  0
 36 40  1  0  0  0  0
 36 35  2  0  0  0  0
 37 38  1  0  0  0  0
 38 45  1  0  0  0  0
 39 38  2  0  0  0  0
 40 37  2  0  0  0  0
 42 43  1  0  0  0  0
 43 41  1  6  0  0  0
 44 43  1  0  0  0  0
 45 46  1  0  0  0  0
 45 44  1  0  0  0  0
 46 42  1  0  0  0  0
M  END
>  <MODEL>
7

>  <REMARK>
 VINA RESULT:     -10.4      3.739      9.503
  Name = 
  6 active torsions:
  status: ('A' for Active; 'I' for Inactive)
    1  A    between atoms: C_14  and  O_18
    2  A    between atoms: C_16  and  N_27
    3  A    between atoms: C_17  and  O_18
    4  A    between atoms: C_24  and  N_37
    5  A    between atoms: C_26  and  C_38
    6  A    between atoms: C_30  and  C_39
                            x       y       z     vdW  Elec       q    Type
                         _______ _______ _______ _____ _____    ______ ____

>  <TORSDO>
F 6

$$$$
=
 OpenBabel10222417173D

 46 53  0  0  1  0  0  0  0  0999 V2000
  189.9230  174.4080  136.8830 C   0  0  0  0  0  3  0  0  0  0  0  0
  187.2970  177.7920  137.6540 C   0  0  0  0  0  3  0  0  0  0  0  0
  190.1950  178.0810  137.5790 O   0  0  0  0  0  1  0  0  0  0  0  0
  189.5980  176.8400  137.3750 C   0  0  0  0  0  0  0  0  0  0  0  0
  184.8990  175.0240  137.2220 C   0  0  0  0  0  0  0  0  0  0  0  0
  186.0280  177.2150  137.6190 C   0  0  0  0  0  0  0  0  0  0  0  0
  184.7140  177.9370  137.7210 C   0  0  1  0  0  3  0  0  0  0  0  0
  184.9600  173.7320  137.0420 C   0  0  0  0  0  0  0  0  0  0  0  0
  188.1950  176.7610  137.4290 C   0  0  0  0  0  0  0  0  0  0  0  0
  185.0170  172.5060  136.8710 O   0  0  0  0  0  0  0  0  0  0  0  0
  183.6010  176.9600  138.1440 C   0  0  0  0  0  2  0  0  0  0  0  0
  187.4380  175.5500  137.2340 C   0  0  0  0  0  0  0  0  0  0  0  0
  190.4230  175.7080  137.1230 C   0  0  0  0  0  0  0  0  0  0  0  0
  183.5630  175.7150  137.2420 C   0  0  0  0  0  2  0  0  0  0  0  0
  188.2480  174.1180  136.9000 S   0  0  0  0  0  0  0  0  0  0  0  0
  186.1050  175.8620  137.3440 C   0  0  0  0  0  0  0  0  0  0  0  0
  193.4040  174.9850  135.6750 C   0  0  0  0  0  0  0  0  0  0  0  0
  193.5140  174.2400  136.9150 C   0  0  0  0  0  0  0  0  0  0  0  0
  191.9110  175.9100  137.1220 C   0  0  1  0  0  3  0  0  0  0  0  0
  192.6390  174.7570  137.7710 C   0  0  0  0  0  3  0  0  0  0  0  0
  192.4280  175.9520  135.7960 O   0  0  0  0  0  0  0  0  0  0  0  0
  194.0660  174.7820  134.6180 O   0  0  0  0  0  0  0  0  0  0  0  0
  195.5710  174.3200  139.1560 C   0  0  0  0  0  3  0  0  0  0  0  0
  197.8110  174.3400  137.4430 C   0  0  0  0  0  2  0  0  0  0  0  0
  195.0880  172.5820  136.0320 N   0  0  0  0  0  0  0  0  0  0  0  0
  195.5830  173.5640  138.0530 C   0  0  0  0  0  0  0  0  0  0  0  0
  196.4350  172.8870  136.0340 O   0  0  0  0  0  0  0  0  0  0  0  0
  197.9050  174.8270  138.8300 N   0  0  0  0  0  0  0  0  0  0  0  0
  194.4550  173.1090  137.2470 C   0  0  1  0  0  3  0  0  0  0  0  0
  196.8670  174.8590  139.6200 C   0  0  0  0  0  3  0  0  0  0  0  0
  196.8100  173.1820  137.3620 C   0  0  1  0  0  3  0  0  0  0  0  0
  193.4870  170.7510  135.9660 C   0  0  0  0  0  1  0  0  0  0  0  0
  194.9520  171.1290  136.0480 C   0  0  0  0  0  2  0  0  0  0  0  0
  184.8100  179.0050  138.6600 O   0  0  0  0  0  0  0  0  0  0  0  0
  186.2920  178.8270  140.5510 C   0  0  0  0  0  3  0  0  0  0  0  0
  184.9950  178.8000  140.0310 C   0  0  0  0  0  0  0  0  0  0  0  0
  184.1260  178.3910  142.2620 C   0  0  0  0  0  3  0  0  0  0  0  0
  185.4250  178.4240  142.7890 C   0  0  0  0  0  0  0  0  0  0  0  0
  186.5070  178.6410  141.9210 C   0  0  0  0  0  3  0  0  0  0  0  0
  183.9100  178.5800  140.8940 C   0  0  0  0  0  3  0  0  0  0  0  0
  187.8570  177.9650  146.6720 C   0  0  0  0  0  1  0  0  0  0  0  0
  185.4200  178.4350  146.5470 C   0  0  0  0  0  2  0  0  0  0  0  0
  186.5070  177.4100  146.2470 C   0  0  1  0  0  3  0  0  0  0  0  0
  186.4960  177.1990  144.7430 C   0  0  0  0  0  2  0  0  0  0  0  0
  185.6450  178.2400  144.1980 N   0  0  0  0  0  0  0  0  0  0  0  0
  185.0260  179.0590  145.2200 C   0  0  0  0  0  2  0  0  0  0  0  0
  1 15  1  0  0  0  0
  1 13  2  0  0  0  0
  4  9  2  0  0  0  0
  4  3  1  0  0  0  0
  5 14  1  0  0  0  0
  5 16  1  0  0  0  0
  6  2  2  0  0  0  0
  6  7  1  0  0  0  0
  7 11  1  0  0  0  0
  7 34  1  1  0  0  0
  8  5  2  0  0  0  0
  9  2  1  0  0  0  0
 10  8  2  0  0  0  0
 12 16  2  0  0  0  0
 12  9  1  0  0  0  0
 13  4  1  0  0  0  0
 14 11  1  0  0  0  0
 15 12  1  0  0  0  0
 16  6  1  0  0  0  0
 17 21  1  0  0  0  0
 17 18  1  0  0  0  0
 18 20  2  0  0  0  0
 19 13  1  6  0  0  0
 19 20  1  0  0  0  0
 21 19  1  0  0  0  0
 22 17  2  0  0  0  0
 23 30  1  0  0  0  0
 24 28  1  0  0  0  0
 25 27  1  0  0  0  0
 25 33  1  0  0  0  0
 25 29  1  0  0  0  0
 26 23  2  0  0  0  0
 27 31  1  0  0  0  0
 28 30  2  0  0  0  0
 29 18  1  6  0  0  0
 29 26  1  0  0  0  0
 31 24  1  6  0  0  0
 31 26  1  0  0  0  0
 32 33  1  0  0  0  0
 34 36  1  0  0  0  0
 35 39  1  0  0  0  0
 36 35  2  0  0  0  0
 36 40  1  0  0  0  0
 37 38  1  0  0  0  0
 38 45  1  0  0  0  0
 39 38  2  0  0  0  0
 40 37  2  0  0  0  0
 43 42  1  0  0  0  0
 43 41  1  6  0  0  0
 44 43  1  0  0  0  0
 45 44  1  0  0  0  0
 45 46  1  0  0  0  0
 46 42  1  0  0  0  0
M  END
>  <MODEL>
8

>  <REMARK>
 VINA RESULT:     -10.2      3.333      6.611
  Name = 
  6 active torsions:
  status: ('A' for Active; 'I' for Inactive)
    1  A    between atoms: C_14  and  O_18
    2  A    between atoms: C_16  and  N_27
    3  A    between atoms: C_17  and  O_18
    4  A    between atoms: C_24  and  N_37
    5  A    between atoms: C_26  and  C_38
    6  A    between atoms: C_30  and  C_39
                            x       y       z     vdW  Elec       q    Type
                         _______ _______ _______ _____ _____    ______ ____

>  <TORSDO>
F 6

$$$$
=
 OpenBabel10222417173D

 46 53  0  0  1  0  0  0  0  0999 V2000
  185.1010  177.8800  146.5580 C   0  0  0  0  0  3  0  0  0  0  0  0
  186.5390  177.9470  142.4500 C   0  0  0  0  0  3  0  0  0  0  0  0
  188.2760  177.2260  144.6750 O   0  0  0  0  0  1  0  0  0  0  0  0
  186.9450  177.5730  144.8950 C   0  0  0  0  0  0  0  0  0  0  0  0
  183.0100  178.9440  142.0610 C   0  0  0  0  0  0  0  0  0  0  0  0
  185.4130  178.3520  141.7340 C   0  0  0  0  0  0  0  0  0  0  0  0
  185.2930  178.4530  140.2400 C   0  0  1  0  0  3  0  0  0  0  0  0
  182.0020  179.2030  142.8500 C   0  0  0  0  0  0  0  0  0  0  0  0
  186.1570  177.9170  143.7830 C   0  0  0  0  0  0  0  0  0  0  0  0
  181.0450  179.4500  143.5980 O   0  0  0  0  0  0  0  0  0  0  0  0
  184.1270  179.3860  139.8610 C   0  0  0  0  0  2  0  0  0  0  0  0
  184.7670  178.2920  143.8520 C   0  0  0  0  0  0  0  0  0  0  0  0
  186.4380  177.5650  146.2250 C   0  0  0  0  0  0  0  0  0  0  0  0
  182.8220  178.9840  140.5690 C   0  0  0  0  0  2  0  0  0  0  0  0
  183.9950  178.3140  145.3430 S   0  0  0  0  0  0  0  0  0  0  0  0
  184.3310  178.5420  142.5740 C   0  0  0  0  0  0  0  0  0  0  0  0
  189.1440  178.4580  148.0660 C   0  0  0  0  0  0  0  0  0  0  0  0
  189.7010  177.3870  147.2600 C   0  0  0  0  0  0  0  0  0  0  0  0
  187.3850  177.2120  147.3360 C   0  0  1  0  0  3  0  0  0  0  0  0
  188.6880  176.6540  146.8120 C   0  0  0  0  0  3  0  0  0  0  0  0
  187.7680  178.3650  148.0780 O   0  0  0  0  0  0  0  0  0  0  0  0
  189.7920  179.3690  148.6540 O   0  0  0  0  0  0  0  0  0  0  0  0
  191.1810  178.2430  144.7430 C   0  0  0  0  0  3  0  0  0  0  0  0
  191.4840  175.6290  143.7260 C   0  0  0  0  0  2  0  0  0  0  0  0
  191.4550  175.6740  147.2620 N   0  0  0  0  0  0  0  0  0  0  0  0
  191.4720  177.2290  145.5650 C   0  0  0  0  0  0  0  0  0  0  0  0
  191.7250  175.0080  146.0810 O   0  0  0  0  0  0  0  0  0  0  0  0
  191.5600  176.8070  142.8440 N   0  0  0  0  0  0  0  0  0  0  0  0
  191.1520  177.0840  146.9810 C   0  0  1  0  0  3  0  0  0  0  0  0
  191.3830  178.0180  143.2960 C   0  0  0  0  0  3  0  0  0  0  0  0
  192.0570  175.9740  145.1060 C   0  0  1  0  0  3  0  0  0  0  0  0
  192.6660  176.8130  149.0370 C   0  0  0  0  0  1  0  0  0  0  0  0
  192.6540  175.6280  148.0930 C   0  0  0  0  0  2  0  0  0  0  0  0
  186.5100  178.9380  139.6790 O   0  0  0  0  0  0  0  0  0  0  0  0
  188.7370  178.0220  139.6800 C   0  0  0  0  0  3  0  0  0  0  0  0
  187.4690  178.1010  139.0990 C   0  0  0  0  0  0  0  0  0  0  0  0
  188.1580  176.4960  137.4110 C   0  0  0  0  0  3  0  0  0  0  0  0
  189.4300  176.4090  137.9940 C   0  0  0  0  0  0  0  0  0  0  0  0
  189.7120  177.1810  139.1320 C   0  0  0  0  0  3  0  0  0  0  0  0
  187.1820  177.3340  137.9590 C   0  0  0  0  0  3  0  0  0  0  0  0
  193.5580  174.4090  137.5900 C   0  0  0  0  0  1  0  0  0  0  0  0
  191.4680  173.6310  136.4930 C   0  0  0  0  0  2  0  0  0  0  0  0
  192.4930  174.7580  136.5630 C   0  0  1  0  0  3  0  0  0  0  0  0
  191.7400  175.9960  137.0130 C   0  0  0  0  0  2  0  0  0  0  0  0
  190.4290  175.5390  137.4360 N   0  0  0  0  0  0  0  0  0  0  0  0
  190.2260  174.1210  137.2170 C   0  0  0  0  0  2  0  0  0  0  0  0
  2  9  1  0  0  0  0
  3  4  1  0  0  0  0
  4 13  1  0  0  0  0
  5 16  1  0  0  0  0
  5  8  2  0  0  0  0
  6  2  2  0  0  0  0
  6 16  1  0  0  0  0
  7 34  1  1  0  0  0
  7  6  1  0  0  0  0
  8 10  2  0  0  0  0
  9 12  1  0  0  0  0
  9  4  2  0  0  0  0
 11  7  1  0  0  0  0
 11 14  1  0  0  0  0
 12 15  1  0  0  0  0
 13  1  2  0  0  0  0
 14  5  1  0  0  0  0
 15  1  1  0  0  0  0
 16 12  2  0  0  0  0
 17 21  1  0  0  0  0
 17 22  2  0  0  0  0
 18 17  1  0  0  0  0
 19 13  1  6  0  0  0
 19 21  1  0  0  0  0
 20 18  2  0  0  0  0
 20 19  1  0  0  0  0
 23 26  2  0  0  0  0
 25 33  1  0  0  0  0
 26 29  1  0  0  0  0
 27 25  1  0  0  0  0
 28 30  2  0  0  0  0
 28 24  1  0  0  0  0
 29 18  1  6  0  0  0
 29 25  1  0  0  0  0
 30 23  1  0  0  0  0
 31 24  1  6  0  0  0
 31 26  1  0  0  0  0
 31 27  1  0  0  0  0
 33 32  1  0  0  0  0
 36 34  1  0  0  0  0
 36 35  2  0  0  0  0
 37 40  2  0  0  0  0
 37 38  1  0  0  0  0
 38 39  2  0  0  0  0
 39 35  1  0  0  0  0
 40 36  1  0  0  0  0
 42 43  1  0  0  0  0
 42 46  1  0  0  0  0
 43 44  1  0  0  0  0
 43 41  1  1  0  0  0
 44 45  1  0  0  0  0
 45 38  1  0  0  0  0
 46 45  1  0  0  0  0
M  END
>  <MODEL>
9

>  <REMARK>
 VINA RESULT:     -10.1      3.001      9.185
  Name = 
  6 active torsions:
  status: ('A' for Active; 'I' for Inactive)
    1  A    between atoms: C_14  and  O_18
    2  A    between atoms: C_16  and  N_27
    3  A    between atoms: C_17  and  O_18
    4  A    between atoms: C_24  and  N_37
    5  A    between atoms: C_26  and  C_38
    6  A    between atoms: C_30  and  C_39
                            x       y       z     vdW  Elec       q    Type
                         _______ _______ _______ _____ _____    ______ ____

>  <TORSDO>
F 6

$$$$
