=
 OpenBabel10222416093D

 26 29  0  0  0  0  0  0  0  0999 V2000
  187.5400  178.2550  147.9710 C   0  0  0  0  0  3  0  0  0  0  0  0
  188.2990  177.2470  145.3330 C   0  0  0  0  0  0  0  0  0  0  0  0
  183.6810  179.0610  145.3390 C   0  0  0  0  0  3  0  0  0  0  0  0
  186.6430  178.2300  146.9900 C   0  0  0  0  0  0  0  0  0  0  0  0
  189.2160  177.2540  146.3110 C   0  0  0  0  0  3  0  0  0  0  0  0
  185.3210  178.7500  147.0400 N   0  0  0  0  0  0  0  0  0  0  0  0
  185.6230  177.9690  143.5860 C   0  0  0  0  0  3  0  0  0  0  0  0
  186.9600  177.7900  145.6540 C   0  0  0  0  0  0  0  0  0  0  0  0
  183.4080  178.9240  143.9680 C   0  0  0  0  0  0  0  0  0  0  0  0
  185.8740  178.0920  144.9510 C   0  0  0  0  0  0  0  0  0  0  0  0
  188.9580  177.7830  147.7150 C   0  0  0  0  0  2  0  0  0  0  0  0
  184.9250  178.6430  145.8100 C   0  0  0  0  0  0  0  0  0  0  0  0
  184.3750  178.3870  143.0970 C   0  0  0  0  0  3  0  0  0  0  0  0
  182.1770  179.3260  143.4680 O   0  0  0  0  0  1  0  0  0  0  0  0
  188.6500  176.6680  144.0740 N   0  0  0  0  0  2  0  0  0  0  0  0
  188.1880  177.7810  139.1200 C   0  0  0  0  0  1  0  0  0  0  0  0
  190.6090  177.5610  139.5260 N   0  0  0  0  0  0  0  0  0  0  0  0
  189.1330  177.2520  141.3340 N   0  0  0  0  0  0  0  0  0  0  0  0
  189.3440  177.5250  140.0200 C   0  0  0  0  0  0  0  0  0  0  0  0
  189.9470  176.7200  143.5500 N   0  0  0  0  0  2  0  0  0  0  0  0
  191.6790  177.3320  140.3330 C   0  0  0  0  0  0  0  0  0  0  0  0
  191.4810  177.0450  141.6840 C   0  0  0  0  0  3  0  0  0  0  0  0
  190.1760  177.0120  142.1730 C   0  0  0  0  0  0  0  0  0  0  0  0
  193.0580  177.3550  139.7680 C   0  0  0  0  0  2  0  0  0  0  0  0
  193.0930  176.7080  138.3930 C   0  0  0  0  0  2  0  0  0  0  0  0
  194.1470  175.7110  138.3360 N   0  0  0  0  0  1  0  0  0  0  0  0
  2  8  1  0  0  0  0
  2  5  2  0  0  0  0
  3 12  1  0  0  0  0
  4  6  1  0  0  0  0
  4  1  2  0  0  0  0
  5 11  1  0  0  0  0
  7 10  1  0  0  0  0
  8  4  1  0  0  0  0
  9  3  2  0  0  0  0
 10  8  2  0  0  0  0
 10 12  1  0  0  0  0
 11  1  1  0  0  0  0
 12  6  2  0  0  0  0
 13  7  2  0  0  0  0
 13  9  1  0  0  0  0
 14  9  1  0  0  0  0
 15  2  1  0  0  0  0
 16 19  1  0  0  0  0
 17 19  2  0  0  0  0
 17 21  1  0  0  0  0
 18 23  2  0  0  0  0
 19 18  1  0  0  0  0
 20 15  1  0  0  0  0
 21 22  2  0  0  0  0
 22 23  1  0  0  0  0
 23 20  1  0  0  0  0
 24 21  1  0  0  0  0
 25 24  1  0  0  0  0
 26 25  1  0  0  0  0
M  END
>  <MODEL>
1

>  <REMARK>
 VINA RESULT:     -10.0      0.000      0.000
  Name = 
  4 active torsions:
  status: ('A' for Active; 'I' for Inactive)
    1  A    between atoms: C_2  and  N_4
    2  A    between atoms: N_4  and  N_10
    3  A    between atoms: C_13  and  C_23
    4  A    between atoms: C_17  and  C_23
                            x       y       z     vdW  Elec       q    Type
                         _______ _______ _______ _____ _____    ______ ____

>  <TORSDO>
F 4

$$$$
=
 OpenBabel10222416093D

 26 29  0  0  0  0  0  0  0  0999 V2000
  190.5920  177.0310  146.8490 C   0  0  0  0  0  3  0  0  0  0  0  0
  189.9240  176.5980  144.0350 C   0  0  0  0  0  0  0  0  0  0  0  0
  186.0530  178.3730  146.5810 C   0  0  0  0  0  3  0  0  0  0  0  0
  189.3430  177.2120  146.4300 C   0  0  0  0  0  0  0  0  0  0  0  0
  191.1870  176.3990  144.4380 C   0  0  0  0  0  3  0  0  0  0  0  0
  188.2580  177.7120  147.2010 N   0  0  0  0  0  2  0  0  0  0  0  0
  186.8300  177.6710  143.9460 C   0  0  0  0  0  3  0  0  0  0  0  0
  188.9530  177.0620  145.0510 C   0  0  0  0  0  0  0  0  0  0  0  0
  185.1590  178.5250  145.5090 C   0  0  0  0  0  0  0  0  0  0  0  0
  187.7010  177.5050  145.0220 C   0  0  0  0  0  0  0  0  0  0  0  0
  191.6700  176.6230  145.8650 C   0  0  0  0  0  3  0  0  0  0  0  0
  187.3240  177.8640  146.3140 C   0  0  0  0  0  0  0  0  0  0  0  0
  185.5470  178.1820  144.2000 C   0  0  0  0  0  3  0  0  0  0  0  0
  183.8850  179.0240  145.7410 O   0  0  0  0  0  1  0  0  0  0  0  0
  189.5860  176.2950  142.6790 N   0  0  0  0  0  2  0  0  0  0  0  0
  191.6720  175.2830  138.1390 C   0  0  0  0  0  1  0  0  0  0  0  0
  190.2480  177.2640  137.7870 N   0  0  0  0  0  0  0  0  0  0  0  0
  190.3460  176.3180  139.9400 N   0  0  0  0  0  0  0  0  0  0  0  0
  190.7270  176.3180  138.6360 C   0  0  0  0  0  0  0  0  0  0  0  0
  189.0940  177.2550  141.7870 N   0  0  0  0  0  2  0  0  0  0  0  0
  189.3810  178.2160  138.2220 C   0  0  0  0  0  0  0  0  0  0  0  0
  188.9830  178.2360  139.5590 C   0  0  0  0  0  3  0  0  0  0  0  0
  189.4850  177.2570  140.4160 C   0  0  0  0  0  0  0  0  0  0  0  0
  188.8830  179.2580  137.2780 C   0  0  0  0  0  2  0  0  0  0  0  0
  187.6550  178.7680  136.5270 C   0  0  0  0  0  2  0  0  0  0  0  0
  186.5080  178.7250  137.4180 N   0  0  0  0  0  1  0  0  0  0  0  0
  2  5  2  0  0  0  0
  2  8  1  0  0  0  0
  4  1  1  0  0  0  0
  4  6  1  0  0  0  0
  5 11  1  0  0  0  0
  7 13  2  0  0  0  0
  7 10  1  0  0  0  0
  8  4  2  0  0  0  0
  9 14  1  0  0  0  0
  9  3  2  0  0  0  0
 10  8  1  0  0  0  0
 10 12  2  0  0  0  0
 11  1  2  0  0  0  0
 12  3  1  0  0  0  0
 12  6  1  0  0  0  0
 13  9  1  0  0  0  0
 15  2  1  0  0  0  0
 16 19  1  0  0  0  0
 17 21  1  0  0  0  0
 17 19  2  0  0  0  0
 18 23  2  0  0  0  0
 19 18  1  0  0  0  0
 20 15  1  0  0  0  0
 21 22  2  0  0  0  0
 22 23  1  0  0  0  0
 23 20  1  0  0  0  0
 24 21  1  0  0  0  0
 25 24  1  0  0  0  0
 25 26  1  0  0  0  0
M  END
>  <MODEL>
2

>  <REMARK>
 VINA RESULT:      -9.7      1.930      3.367
  Name = 
  4 active torsions:
  status: ('A' for Active; 'I' for Inactive)
    1  A    between atoms: C_2  and  N_4
    2  A    between atoms: N_4  and  N_10
    3  A    between atoms: C_13  and  C_23
    4  A    between atoms: C_17  and  C_23
                            x       y       z     vdW  Elec       q    Type
                         _______ _______ _______ _____ _____    ______ ____

>  <TORSDO>
F 4

$$$$
=
 OpenBabel10222416093D

 26 29  0  0  0  0  0  0  0  0999 V2000
  190.3410  176.9800  146.8380 C   0  0  0  0  0  3  0  0  0  0  0  0
  189.7110  176.8810  143.9840 C   0  0  0  0  0  0  0  0  0  0  0  0
  185.8000  178.3320  146.6690 C   0  0  0  0  0  3  0  0  0  0  0  0
  189.0970  177.2060  146.4270 C   0  0  0  0  0  0  0  0  0  0  0  0
  190.9700  176.6390  144.3780 C   0  0  0  0  0  3  0  0  0  0  0  0
  187.9990  177.6080  147.2370 N   0  0  0  0  0  2  0  0  0  0  0  0
  186.6140  177.9480  143.9810 C   0  0  0  0  0  3  0  0  0  0  0  0
  188.7250  177.2190  145.0340 C   0  0  0  0  0  0  0  0  0  0  0  0
  184.9190  178.6070  145.6110 C   0  0  0  0  0  0  0  0  0  0  0  0
  187.4720  177.6590  145.0410 C   0  0  0  0  0  0  0  0  0  0  0  0
  191.4340  176.6940  145.8270 C   0  0  0  0  0  3  0  0  0  0  0  0
  187.0770  177.8610  146.3620 C   0  0  0  0  0  0  0  0  0  0  0  0
  185.3260  178.4230  144.2760 C   0  0  0  0  0  3  0  0  0  0  0  0
  183.6400  179.0720  145.8830 O   0  0  0  0  0  1  0  0  0  0  0  0
  189.3930  176.7390  142.5980 N   0  0  0  0  0  0  0  0  0  0  0  0
  187.3190  178.0080  138.1160 C   0  0  0  0  0  1  0  0  0  0  0  0
  189.5870  177.1960  137.5910 N   0  0  0  0  0  0  0  0  0  0  0  0
  188.8980  177.2300  139.8420 N   0  0  0  0  0  0  0  0  0  0  0  0
  188.6400  177.4630  138.5280 C   0  0  0  0  0  0  0  0  0  0  0  0
  190.3590  176.4810  141.6190 N   0  0  0  0  0  0  0  0  0  0  0  0
  190.8010  176.7000  137.9480 C   0  0  0  0  0  0  0  0  0  0  0  0
  191.0820  176.4490  139.2910 C   0  0  0  0  0  3  0  0  0  0  0  0
  190.0980  176.7290  140.2400 C   0  0  0  0  0  0  0  0  0  0  0  0
  191.8190  176.3950  136.9020 C   0  0  0  0  0  2  0  0  0  0  0  0
  193.1840  176.1540  137.5260 C   0  0  0  0  0  2  0  0  0  0  0  0
  194.2270  176.6850  136.6660 N   0  0  0  0  0  1  0  0  0  0  0  0
  2  5  2  0  0  0  0
  2  8  1  0  0  0  0
  4  1  1  0  0  0  0
  4  6  1  0  0  0  0
  5 11  1  0  0  0  0
  7 13  2  0  0  0  0
  7 10  1  0  0  0  0
  8 10  1  0  0  0  0
  8  4  2  0  0  0  0
  9 14  1  0  0  0  0
  9  3  2  0  0  0  0
 10 12  2  0  0  0  0
 11  1  2  0  0  0  0
 12  3  1  0  0  0  0
 12  6  1  0  0  0  0
 13  9  1  0  0  0  0
 15  2  1  0  0  0  0
 16 19  1  0  0  0  0
 17 21  1  0  0  0  0
 17 19  2  0  0  0  0
 18 23  2  0  0  0  0
 19 18  1  0  0  0  0
 20 15  2  0  0  0  0
 21 22  2  0  0  0  0
 22 23  1  0  0  0  0
 23 20  1  0  0  0  0
 24 25  1  0  0  0  0
 24 21  1  0  0  0  0
 26 25  1  0  0  0  0
M  END
>  <MODEL>
3

>  <REMARK>
 VINA RESULT:      -9.6      1.615      2.278
  Name = 
  4 active torsions:
  status: ('A' for Active; 'I' for Inactive)
    1  A    between atoms: C_2  and  N_4
    2  A    between atoms: N_4  and  N_10
    3  A    between atoms: C_13  and  C_23
    4  A    between atoms: C_17  and  C_23
                            x       y       z     vdW  Elec       q    Type
                         _______ _______ _______ _____ _____    ______ ____

>  <TORSDO>
F 4

$$$$
=
 OpenBabel10222416093D

 26 29  0  0  0  0  0  0  0  0999 V2000
  187.5620  178.2680  147.9430 C   0  0  0  0  0  3  0  0  0  0  0  0
  188.3650  177.3730  145.2770 C   0  0  0  0  0  0  0  0  0  0  0  0
  183.6680  178.9710  145.3310 C   0  0  0  0  0  3  0  0  0  0  0  0
  186.6670  178.2290  146.9600 C   0  0  0  0  0  0  0  0  0  0  0  0
  189.2810  177.3930  146.2560 C   0  0  0  0  0  3  0  0  0  0  0  0
  185.3220  178.6870  147.0240 N   0  0  0  0  0  0  0  0  0  0  0  0
  185.6580  178.0200  143.5490 C   0  0  0  0  0  3  0  0  0  0  0  0
  187.0020  177.8440  145.6130 C   0  0  0  0  0  0  0  0  0  0  0  0
  183.4010  178.8610  143.9570 C   0  0  0  0  0  0  0  0  0  0  0  0
  185.9030  178.1150  144.9180 C   0  0  0  0  0  0  0  0  0  0  0  0
  189.0000  177.8700  147.6750 C   0  0  0  0  0  2  0  0  0  0  0  0
  184.9310  178.5970  145.7920 C   0  0  0  0  0  0  0  0  0  0  0  0
  184.3920  178.3940  143.0710 C   0  0  0  0  0  3  0  0  0  0  0  0
  182.1530  179.2210  143.4670 O   0  0  0  0  0  1  0  0  0  0  0  0
  188.7420  176.8470  144.0020 N   0  0  0  0  0  2  0  0  0  0  0  0
  192.4810  177.1860  140.5540 C   0  0  0  0  0  1  0  0  0  0  0  0
  190.4240  177.8420  139.3660 N   0  0  0  0  0  0  0  0  0  0  0  0
  190.2680  177.2380  141.6360 N   0  0  0  0  0  0  0  0  0  0  0  0
  191.0150  177.4280  140.5170 C   0  0  0  0  0  0  0  0  0  0  0  0
  188.1490  177.2620  142.8040 N   0  0  0  0  0  2  0  0  0  0  0  0
  189.0840  178.0660  139.3120 C   0  0  0  0  0  0  0  0  0  0  0  0
  188.3020  177.8820  140.4520 C   0  0  0  0  0  3  0  0  0  0  0  0
  188.9260  177.4570  141.6250 C   0  0  0  0  0  0  0  0  0  0  0  0
  188.4590  178.5400  138.0450 C   0  0  0  0  0  2  0  0  0  0  0  0
  187.1910  177.7580  137.7400 C   0  0  0  0  0  2  0  0  0  0  0  0
  186.0260  178.6090  137.9100 N   0  0  0  0  0  1  0  0  0  0  0  0
  2  8  1  0  0  0  0
  2  5  2  0  0  0  0
  3 12  1  0  0  0  0
  4  6  1  0  0  0  0
  4  1  2  0  0  0  0
  5 11  1  0  0  0  0
  7 10  1  0  0  0  0
  8  4  1  0  0  0  0
  9  3  2  0  0  0  0
 10  8  2  0  0  0  0
 10 12  1  0  0  0  0
 11  1  1  0  0  0  0
 12  6  2  0  0  0  0
 13  7  2  0  0  0  0
 13  9  1  0  0  0  0
 14  9  1  0  0  0  0
 15  2  1  0  0  0  0
 17 19  2  0  0  0  0
 19 16  1  0  0  0  0
 19 18  1  0  0  0  0
 20 15  1  0  0  0  0
 21 17  1  0  0  0  0
 21 22  2  0  0  0  0
 22 23  1  0  0  0  0
 23 18  2  0  0  0  0
 23 20  1  0  0  0  0
 24 21  1  0  0  0  0
 25 26  1  0  0  0  0
 25 24  1  0  0  0  0
M  END
>  <MODEL>
4

>  <REMARK>
 VINA RESULT:      -9.2      1.198      2.695
  Name = 
  4 active torsions:
  status: ('A' for Active; 'I' for Inactive)
    1  A    between atoms: C_2  and  N_4
    2  A    between atoms: N_4  and  N_10
    3  A    between atoms: C_13  and  C_23
    4  A    between atoms: C_17  and  C_23
                            x       y       z     vdW  Elec       q    Type
                         _______ _______ _______ _____ _____    ______ ____

>  <TORSDO>
F 4

$$$$
=
 OpenBabel10222416093D

 26 29  0  0  1  0  0  0  0  0999 V2000
  185.8580  177.7950  145.2340 C   0  0  0  0  0  3  0  0  0  0  0  0
  187.8270  178.1250  143.0990 C   0  0  0  0  0  0  0  0  0  0  0  0
  189.9780  176.8740  147.3910 C   0  0  0  0  0  3  0  0  0  0  0  0
  187.1550  177.7090  145.5120 C   0  0  0  0  0  0  0  0  0  0  0  0
  186.5250  178.2270  142.7980 C   0  0  0  0  0  3  0  0  0  0  0  0
  187.7300  177.3590  146.7650 N   0  0  0  0  0  0  0  0  0  0  0  0
  190.5970  177.3450  144.6650 C   0  0  0  0  0  3  0  0  0  0  0  0
  188.1780  177.8140  144.5020 C   0  0  0  0  0  0  0  0  0  0  0  0
  191.2970  176.7440  146.9260 C   0  0  2  0  0  3  0  0  0  0  0  0
  189.2960  177.4900  145.1430 C   0  0  0  0  0  0  0  0  0  0  0  0
  185.4020  178.0420  143.8100 C   0  0  0  0  0  3  0  0  0  0  0  0
  188.9890  177.2440  146.4800 C   0  0  0  0  0  0  0  0  0  0  0  0
  191.6030  176.9730  145.5710 C   0  0  0  0  0  3  0  0  0  0  0  0
  192.3050  176.3820  147.8080 O   0  0  0  0  0  1  0  0  0  0  0  0
  188.7860  178.3790  142.0680 N   0  0  0  0  0  2  0  0  0  0  0  0
  188.9060  179.1500  137.0300 C   0  0  0  0  0  1  0  0  0  0  0  0
  190.3080  177.1630  137.4290 N   0  0  0  0  0  0  0  0  0  0  0  0
  189.2960  178.2150  139.2770 N   0  0  0  0  0  0  0  0  0  0  0  0
  189.5220  178.1480  137.9380 C   0  0  0  0  0  0  0  0  0  0  0  0
  189.6010  177.3780  141.5260 N   0  0  0  0  0  2  0  0  0  0  0  0
  190.8820  176.2380  138.2440 C   0  0  0  0  0  0  0  0  0  0  0  0
  190.6570  176.2880  139.6200 C   0  0  0  0  0  3  0  0  0  0  0  0
  189.8470  177.3060  140.1240 C   0  0  0  0  0  0  0  0  0  0  0  0
  191.7240  175.1540  137.6630 C   0  0  0  0  0  2  0  0  0  0  0  0
  193.0380  175.7090  137.1380 C   0  0  0  0  0  2  0  0  0  0  0  0
  193.9900  175.8540  138.2250 N   0  0  0  0  0  1  0  0  0  0  0  0
  1  4  1  0  0  0  0
  2  8  1  0  0  0  0
  4  6  2  0  0  0  0
  5  2  2  0  0  0  0
  5 11  1  0  0  0  0
  7 10  1  0  0  0  0
  7 13  2  0  0  0  0
  8 10  2  0  0  0  0
  8  4  1  0  0  0  0
  9  3  1  0  0  0  0
  9 14  1  6  0  0  0
 10 12  1  0  0  0  0
 11  1  2  0  0  0  0
 12  6  1  0  0  0  0
 12  3  2  0  0  0  0
 13  9  1  0  0  0  0
 15  2  1  0  0  0  0
 16 19  1  0  0  0  0
 17 19  2  0  0  0  0
 17 21  1  0  0  0  0
 18 23  2  0  0  0  0
 19 18  1  0  0  0  0
 20 15  1  0  0  0  0
 21 22  2  0  0  0  0
 22 23  1  0  0  0  0
 23 20  1  0  0  0  0
 24 21  1  0  0  0  0
 25 24  1  0  0  0  0
 25 26  1  0  0  0  0
M  END
>  <MODEL>
5

>  <REMARK>
 VINA RESULT:      -9.1      2.797      4.443
  Name = 
  4 active torsions:
  status: ('A' for Active; 'I' for Inactive)
    1  A    between atoms: C_2  and  N_4
    2  A    between atoms: N_4  and  N_10
    3  A    between atoms: C_13  and  C_23
    4  A    between atoms: C_17  and  C_23
                            x       y       z     vdW  Elec       q    Type
                         _______ _______ _______ _____ _____    ______ ____

>  <TORSDO>
F 4

$$$$
=
 OpenBabel10222416093D

 26 29  0  0  1  0  0  0  0  0999 V2000
  186.0110  177.9780  145.8770 C   0  0  0  0  0  3  0  0  0  0  0  0
  187.5940  177.7620  143.4280 C   0  0  0  0  0  0  0  0  0  0  0  0
  190.3350  176.8520  147.4630 C   0  0  0  0  0  3  0  0  0  0  0  0
  187.3220  177.7690  145.9530 C   0  0  0  0  0  0  0  0  0  0  0  0
  186.2760  177.9850  143.3280 C   0  0  0  0  0  3  0  0  0  0  0  0
  188.0710  177.5250  147.1370 N   0  0  0  0  0  0  0  0  0  0  0  0
  190.5050  176.8630  144.6330 C   0  0  0  0  0  3  0  0  0  0  0  0
  188.1550  177.6050  144.7880 C   0  0  0  0  0  0  0  0  0  0  0  0
  191.5300  176.4960  146.8190 C   0  0  2  0  0  3  0  0  0  0  0  0
  189.3300  177.2350  145.2840 C   0  0  0  0  0  0  0  0  0  0  0  0
  185.3370  178.0820  144.5230 C   0  0  0  0  0  3  0  0  0  0  0  0
  189.2420  177.2150  146.6750 C   0  0  0  0  0  0  0  0  0  0  0  0
  191.6130  176.4960  145.4130 C   0  0  0  0  0  3  0  0  0  0  0  0
  192.6370  176.1340  147.5740 O   0  0  0  0  0  1  0  0  0  0  0  0
  188.3750  177.7500  142.2300 N   0  0  0  0  0  0  0  0  0  0  0  0
  191.9320  176.5220  138.7920 C   0  0  0  0  0  1  0  0  0  0  0  0
  190.0300  177.3980  137.4920 N   0  0  0  0  0  0  0  0  0  0  0  0
  189.8420  177.3030  139.8370 N   0  0  0  0  0  0  0  0  0  0  0  0
  190.5610  177.0900  138.7040 C   0  0  0  0  0  0  0  0  0  0  0  0
  187.8400  178.0510  140.9720 N   0  0  0  0  0  0  0  0  0  0  0  0
  188.7770  177.9160  137.3920 C   0  0  0  0  0  0  0  0  0  0  0  0
  188.0260  178.1460  138.5440 C   0  0  0  0  0  3  0  0  0  0  0  0
  188.5870  177.8240  139.7790 C   0  0  0  0  0  0  0  0  0  0  0  0
  188.2200  178.2660  136.0540 C   0  0  0  0  0  2  0  0  0  0  0  0
  186.9020  177.5500  135.8090 C   0  0  0  0  0  2  0  0  0  0  0  0
  187.1330  176.1270  135.6250 N   0  0  0  0  0  1  0  0  0  0  0  0
  1  4  1  0  0  0  0
  2  8  1  0  0  0  0
  4  6  2  0  0  0  0
  5  2  2  0  0  0  0
  5 11  1  0  0  0  0
  7 10  1  0  0  0  0
  7 13  2  0  0  0  0
  8 10  2  0  0  0  0
  8  4  1  0  0  0  0
  9  3  1  0  0  0  0
  9 14  1  6  0  0  0
 10 12  1  0  0  0  0
 11  1  2  0  0  0  0
 12  6  1  0  0  0  0
 12  3  2  0  0  0  0
 13  9  1  0  0  0  0
 15  2  1  0  0  0  0
 17 19  2  0  0  0  0
 19 16  1  0  0  0  0
 19 18  1  0  0  0  0
 20 15  2  0  0  0  0
 21 17  1  0  0  0  0
 21 22  2  0  0  0  0
 22 23  1  0  0  0  0
 23 18  2  0  0  0  0
 23 20  1  0  0  0  0
 24 21  1  0  0  0  0
 25 24  1  0  0  0  0
 26 25  1  0  0  0  0
M  END
>  <MODEL>
6

>  <REMARK>
 VINA RESULT:      -9.0      3.065      5.156
  Name = 
  4 active torsions:
  status: ('A' for Active; 'I' for Inactive)
    1  A    between atoms: C_2  and  N_4
    2  A    between atoms: N_4  and  N_10
    3  A    between atoms: C_13  and  C_23
    4  A    between atoms: C_17  and  C_23
                            x       y       z     vdW  Elec       q    Type
                         _______ _______ _______ _____ _____    ______ ____

>  <TORSDO>
F 4

$$$$
=
 OpenBabel10222416093D

 26 29  0  0  0  0  0  0  0  0999 V2000
  189.4310  177.2370  147.4290 C   0  0  0  0  0  3  0  0  0  0  0  0
  187.3560  177.9460  145.4940 C   0  0  0  0  0  0  0  0  0  0  0  0
  191.7510  177.2650  143.2950 C   0  0  0  0  0  3  0  0  0  0  0  0
  189.7550  177.4370  146.1550 C   0  0  0  0  0  0  0  0  0  0  0  0
  187.0090  177.7590  146.7750 C   0  0  0  0  0  3  0  0  0  0  0  0
  191.0360  177.2420  145.5680 N   0  0  0  0  0  0  0  0  0  0  0  0
  189.0370  177.8100  142.6850 C   0  0  0  0  0  3  0  0  0  0  0  0
  188.7790  177.7430  145.1400 C   0  0  0  0  0  0  0  0  0  0  0  0
  191.3360  177.4150  141.9620 C   0  0  0  0  0  0  0  0  0  0  0  0
  189.4660  177.6800  144.0050 C   0  0  0  0  0  0  0  0  0  0  0  0
  187.9860  177.3540  147.8710 C   0  0  0  0  0  2  0  0  0  0  0  0
  190.7970  177.3970  144.3040 C   0  0  0  0  0  0  0  0  0  0  0  0
  189.9860  177.6800  141.6590 C   0  0  0  0  0  3  0  0  0  0  0  0
  192.2620  177.2940  140.9350 O   0  0  0  0  0  1  0  0  0  0  0  0
  186.3530  178.3820  144.5730 N   0  0  0  0  0  0  0  0  0  0  0  0
  183.6800  178.4320  140.2330 C   0  0  0  0  0  1  0  0  0  0  0  0
  182.0200  178.6930  142.0350 N   0  0  0  0  0  0  0  0  0  0  0  0
  184.2910  178.4830  142.6200 N   0  0  0  0  0  0  0  0  0  0  0  0
  183.3200  178.5380  141.6710 C   0  0  0  0  0  0  0  0  0  0  0  0
  185.0080  178.5300  144.9300 N   0  0  0  0  0  0  0  0  0  0  0  0
  181.6700  178.7890  143.3460 C   0  0  0  0  0  0  0  0  0  0  0  0
  182.6540  178.7410  144.3330 C   0  0  0  0  0  3  0  0  0  0  0  0
  183.9830  178.5820  143.9400 C   0  0  0  0  0  0  0  0  0  0  0  0
  180.2410  178.9790  143.7230 C   0  0  0  0  0  2  0  0  0  0  0  0
  179.4410  179.5430  142.5600 C   0  0  0  0  0  2  0  0  0  0  0  0
  179.7140  180.9620  142.4070 N   0  0  0  0  0  1  0  0  0  0  0  0
  1 11  1  0  0  0  0
  2  5  2  0  0  0  0
  3 12  1  0  0  0  0
  4  1  2  0  0  0  0
  5 11  1  0  0  0  0
  6  4  1  0  0  0  0
  7 10  1  0  0  0  0
  8  2  1  0  0  0  0
  8  4  1  0  0  0  0
  9  3  2  0  0  0  0
 10 12  1  0  0  0  0
 10  8  2  0  0  0  0
 12  6  2  0  0  0  0
 13  9  1  0  0  0  0
 13  7  2  0  0  0  0
 14  9  1  0  0  0  0
 15 20  2  0  0  0  0
 15  2  1  0  0  0  0
 16 19  1  0  0  0  0
 17 21  1  0  0  0  0
 18 23  2  0  0  0  0
 19 17  2  0  0  0  0
 19 18  1  0  0  0  0
 21 24  1  0  0  0  0
 21 22  2  0  0  0  0
 23 22  1  0  0  0  0
 23 20  1  0  0  0  0
 25 24  1  0  0  0  0
 26 25  1  0  0  0  0
M  END
>  <MODEL>
7

>  <REMARK>
 VINA RESULT:      -8.9      3.445      7.634
  Name = 
  4 active torsions:
  status: ('A' for Active; 'I' for Inactive)
    1  A    between atoms: C_2  and  N_4
    2  A    between atoms: N_4  and  N_10
    3  A    between atoms: C_13  and  C_23
    4  A    between atoms: C_17  and  C_23
                            x       y       z     vdW  Elec       q    Type
                         _______ _______ _______ _____ _____    ______ ____

>  <TORSDO>
F 4

$$$$
=
 OpenBabel10222416093D

 26 29  0  0  0  0  0  0  0  0999 V2000
  189.1350  177.7340  147.8790 C   0  0  0  0  0  3  0  0  0  0  0  0
  186.7640  178.1800  146.2270 C   0  0  0  0  0  0  0  0  0  0  0  0
  190.6330  176.6810  143.5060 C   0  0  0  0  0  3  0  0  0  0  0  0
  189.2220  177.6290  146.5570 C   0  0  0  0  0  0  0  0  0  0  0  0
  186.6570  178.3030  147.5580 C   0  0  0  0  0  3  0  0  0  0  0  0
  190.3590  177.2070  145.8150 N   0  0  0  0  0  0  0  0  0  0  0  0
  187.8770  177.3050  143.2730 C   0  0  0  0  0  3  0  0  0  0  0  0
  188.0850  177.7890  145.6850 C   0  0  0  0  0  0  0  0  0  0  0  0
  189.9800  176.5740  142.2680 C   0  0  0  0  0  0  0  0  0  0  0  0
  188.5420  177.4260  144.4920 C   0  0  0  0  0  0  0  0  0  0  0  0
  187.8060  178.0630  148.5290 C   0  0  0  0  0  2  0  0  0  0  0  0
  189.8920  177.1050  144.6100 C   0  0  0  0  0  0  0  0  0  0  0  0
  188.6090  176.8790  142.1530 C   0  0  0  0  0  3  0  0  0  0  0  0
  190.6880  176.1590  141.1490 O   0  0  0  0  0  1  0  0  0  0  0  0
  185.6240  178.4900  145.4210 N   0  0  0  0  0  0  0  0  0  0  0  0
  180.7930  179.1010  143.9150 C   0  0  0  0  0  1  0  0  0  0  0  0
  182.0750  178.6500  141.8590 N   0  0  0  0  0  0  0  0  0  0  0  0
  183.2270  178.7120  143.9120 N   0  0  0  0  0  0  0  0  0  0  0  0
  182.0680  178.8140  143.2070 C   0  0  0  0  0  0  0  0  0  0  0  0
  185.6130  178.3350  144.0300 N   0  0  0  0  0  0  0  0  0  0  0  0
  183.2320  178.3880  141.1940 C   0  0  0  0  0  0  0  0  0  0  0  0
  184.4300  178.2750  141.9010 C   0  0  0  0  0  3  0  0  0  0  0  0
  184.4030  178.4460  143.2850 C   0  0  0  0  0  0  0  0  0  0  0  0
  183.2150  178.1920  139.7170 C   0  0  0  0  0  2  0  0  0  0  0  0
  184.4120  178.8640  139.0650 C   0  0  0  0  0  2  0  0  0  0  0  0
  184.2090  180.3010  139.0080 N   0  0  0  0  0  1  0  0  0  0  0  0
  1 11  1  0  0  0  0
  2  5  2  0  0  0  0
  3 12  1  0  0  0  0
  4  1  2  0  0  0  0
  5 11  1  0  0  0  0
  6  4  1  0  0  0  0
  7 10  1  0  0  0  0
  8  2  1  0  0  0  0
  8  4  1  0  0  0  0
  9  3  2  0  0  0  0
 10 12  1  0  0  0  0
 10  8  2  0  0  0  0
 12  6  2  0  0  0  0
 13  9  1  0  0  0  0
 13  7  2  0  0  0  0
 14  9  1  0  0  0  0
 15  2  1  0  0  0  0
 17 19  2  0  0  0  0
 19 18  1  0  0  0  0
 19 16  1  0  0  0  0
 20 15  2  0  0  0  0
 21 17  1  0  0  0  0
 21 22  2  0  0  0  0
 22 23  1  0  0  0  0
 23 18  2  0  0  0  0
 23 20  1  0  0  0  0
 24 21  1  0  0  0  0
 25 24  1  0  0  0  0
 26 25  1  0  0  0  0
M  END
>  <MODEL>
8

>  <REMARK>
 VINA RESULT:      -8.5      3.505      6.440
  Name = 
  4 active torsions:
  status: ('A' for Active; 'I' for Inactive)
    1  A    between atoms: C_2  and  N_4
    2  A    between atoms: N_4  and  N_10
    3  A    between atoms: C_13  and  C_23
    4  A    between atoms: C_17  and  C_23
                            x       y       z     vdW  Elec       q    Type
                         _______ _______ _______ _____ _____    ______ ____

>  <TORSDO>
F 4

$$$$
=
 OpenBabel10222416093D

 26 29  0  0  1  0  0  0  0  0999 V2000
  182.2170  178.6830  140.2650 C   0  0  0  0  0  3  0  0  0  0  0  0
  185.1410  178.6730  140.2380 C   0  0  0  0  0  0  0  0  0  0  0  0
  183.3560  178.7970  144.8660 C   0  0  0  0  0  3  0  0  0  0  0  0
  182.8890  178.8130  141.4050 C   0  0  0  0  0  0  0  0  0  0  0  0
  184.4830  178.5530  139.0760 C   0  0  0  0  0  3  0  0  0  0  0  0
  182.3340  178.8580  142.7130 N   0  0  0  0  0  0  0  0  0  0  0  0
  185.8040  178.6250  143.4460 C   0  0  0  0  0  3  0  0  0  0  0  0
  184.3290  178.7700  141.4720 C   0  0  0  0  0  0  0  0  0  0  0  0
  184.5750  178.6980  145.5550 C   0  0  2  0  0  3  0  0  0  0  0  0
  184.5890  178.7430  142.7740 C   0  0  0  0  0  0  0  0  0  0  0  0
  182.9650  178.5090  138.9590 C   0  0  0  0  0  3  0  0  0  0  0  0
  183.3850  178.8130  143.4710 C   0  0  0  0  0  0  0  0  0  0  0  0
  185.7900  178.6070  144.8500 C   0  0  0  0  0  3  0  0  0  0  0  0
  184.5820  178.6840  146.9430 O   0  0  0  0  0  1  0  0  0  0  0  0
  186.5680  178.7610  140.2070 N   0  0  0  0  0  2  0  0  0  0  0  0
  191.0010  177.1540  142.1450 C   0  0  0  0  0  1  0  0  0  0  0  0
  191.1650  176.7770  139.7150 N   0  0  0  0  0  0  0  0  0  0  0  0
  189.1810  177.7060  140.5770 N   0  0  0  0  0  0  0  0  0  0  0  0
  190.4330  177.2130  140.7730 C   0  0  0  0  0  0  0  0  0  0  0  0
  187.3340  178.2960  139.1310 N   0  0  0  0  0  2  0  0  0  0  0  0
  190.6620  176.8200  138.4530 C   0  0  0  0  0  0  0  0  0  0  0  0
  189.3820  177.3290  138.2320 C   0  0  0  0  0  3  0  0  0  0  0  0
  188.6440  177.7720  139.3300 C   0  0  0  0  0  0  0  0  0  0  0  0
  191.4900  176.3560  137.3030 C   0  0  0  0  0  2  0  0  0  0  0  0
  191.9400  174.9170  137.5040 C   0  0  0  0  0  2  0  0  0  0  0  0
  190.7860  174.0380  137.5740 N   0  0  0  0  0  1  0  0  0  0  0  0
  1  4  1  0  0  0  0
  2  8  1  0  0  0  0
  3  9  1  0  0  0  0
  4  8  1  0  0  0  0
  4  6  2  0  0  0  0
  5  2  2  0  0  0  0
  6 12  1  0  0  0  0
  7 13  2  0  0  0  0
  8 10  2  0  0  0  0
  9 14  1  6  0  0  0
 10  7  1  0  0  0  0
 10 12  1  0  0  0  0
 11  5  1  0  0  0  0
 11  1  2  0  0  0  0
 12  3  2  0  0  0  0
 13  9  1  0  0  0  0
 15  2  1  0  0  0  0
 17 19  2  0  0  0  0
 18 19  1  0  0  0  0
 19 16  1  0  0  0  0
 20 23  1  0  0  0  0
 20 15  1  0  0  0  0
 21 17  1  0  0  0  0
 22 21  2  0  0  0  0
 22 23  1  0  0  0  0
 23 18  2  0  0  0  0
 24 25  1  0  0  0  0
 24 21  1  0  0  0  0
 25 26  1  0  0  0  0
M  END
>  <MODEL>
9

>  <REMARK>
 VINA RESULT:      -8.3      2.522      4.773
  Name = 
  4 active torsions:
  status: ('A' for Active; 'I' for Inactive)
    1  A    between atoms: C_2  and  N_4
    2  A    between atoms: N_4  and  N_10
    3  A    between atoms: C_13  and  C_23
    4  A    between atoms: C_17  and  C_23
                            x       y       z     vdW  Elec       q    Type
                         _______ _______ _______ _____ _____    ______ ____

>  <TORSDO>
F 4

$$$$
