=
 OpenBabel10222416503D

 53 59  0  0  1  0  0  0  0  0999 V2000
  190.3410  175.7180  138.3620 C   0  0  1  0  0  3  0  0  0  0  0  0
  185.9460  178.1970  138.0870 C   0  0  0  0  0  2  0  0  0  0  0  0
  190.7510  177.1880  138.2560 C   0  0  1  0  0  3  0  0  0  0  0  0
  189.0260  177.0540  136.4340 C   0  0  2  0  0  3  0  0  0  0  0  0
  187.4570  178.2330  137.9540 C   0  0  2  0  0  3  0  0  0  0  0  0
  185.5670  179.0950  141.2900 C   0  0  0  0  0  2  0  0  0  0  0  0
  187.8680  178.0500  136.4900 C   0  0  0  0  0  2  0  0  0  0  0  0
  188.2210  177.2440  140.2440 C   0  0  0  0  0  2  0  0  0  0  0  0
  185.5280  179.2470  138.9090 O   0  0  0  0  0  0  0  0  0  0  0  0
  188.5860  175.8980  135.7880 O   0  0  0  0  0  1  0  0  0  0  0  0
  184.8980  178.6400  139.9980 C   0  0  2  0  0  3  0  0  0  0  0  0
  187.8090  178.5090  140.6750 O   0  0  0  0  0  0  0  0  0  0  0  0
  188.0960  177.0860  138.7210 C   0  0  2  0  0  3  0  0  0  0  0  0
  189.3270  176.7540  137.8900 C   0  0  1  0  0  0  0  0  0  0  0  0
  186.7950  178.2510  141.5980 C   0  0  0  0  0  2  0  0  0  0  0  0
  190.9510  177.7450  139.6220 C   0  0  0  0  0  3  0  0  0  0  0  0
  191.7380  177.1240  140.4870 C   0  0  0  0  0  3  0  0  0  0  0  0
  191.9390  177.6870  141.8160 C   0  0  0  0  0  3  0  0  0  0  0  0
  191.2340  177.2360  142.8410 C   0  0  0  0  0  3  0  0  0  0  0  0
  191.4480  177.8070  144.1970 C   0  0  0  0  0  2  0  0  0  0  0  0
  190.2220  178.5950  144.6150 C   0  0  0  0  0  2  0  0  0  0  0  0
  187.8700  177.8080  145.1980 C   0  0  0  0  0  2  0  0  0  0  0  0
  188.6680  176.7100  144.8040 O   0  0  0  0  0  0  0  0  0  0  0  0
  189.3110  177.7510  145.4900 C   0  0  1  0  0  0  0  0  0  0  0  0
  189.2790  178.5510  148.2400 O   0  0  0  0  0  1  0  0  0  0  0  0
  189.7790  177.3190  147.1960 P   0  0  0  0  0  0  0  0  0  0  0  0
  189.1210  176.0200  147.6030 O   0  0  0  0  0  1  0  0  0  0  0  0
  191.4590  177.1470  147.2970 O   0  0  0  0  0  0  0  0  0  0  0  0
  190.9630  174.9300  137.2180 C   0  0  0  0  0  2  0  0  0  0  0  0
  193.4160  175.1080  136.6150 C   0  0  0  0  0  0  0  0  0  0  0  0
  193.1330  175.7090  135.5420 O   0  0  0  0  0  0  0  0  0  0  0  0
  192.3690  174.6740  137.4890 N   0  0  0  0  0  2  0  0  0  0  0  0
  194.8240  174.8460  136.9620 C   0  0  0  0  0  0  0  0  0  0  0  0
  199.1800  174.0490  138.0400 Cl  0  0  0  0  0  0  0  0  0  0  0  0
  196.4920  174.0220  138.5290 C   0  0  0  0  0  3  0  0  0  0  0  0
  197.5060  174.3560  137.6270 C   0  0  0  0  0  0  0  0  0  0  0  0
  195.1540  174.2650  138.1970 C   0  0  0  0  0  3  0  0  0  0  0  0
  197.1860  174.9380  136.3980 C   0  0  0  0  0  3  0  0  0  0  0  0
  195.8500  175.1850  136.0670 C   0  0  0  0  0  3  0  0  0  0  0  0
  183.4340  179.0430  140.0090 C   0  0  0  0  0  2  0  0  0  0  0  0
  182.7550  178.3600  141.0210 O   0  0  0  0  0  0  0  0  0  0  0  0
  181.2380  179.1720  143.1160 C   0  0  0  0  0  1  0  0  0  0  0  0
  179.2850  178.1060  141.9530 C   0  0  0  0  0  1  0  0  0  0  0  0
  179.5780  181.2680  141.3070 O   0  0  0  0  0  0  0  0  0  0  0  0
  180.5360  178.9500  141.7800 C   0  0  0  0  0  0  0  0  0  0  0  0
  180.2330  180.2620  141.0820 C   0  0  0  0  0  0  0  0  0  0  0  0
  181.4050  178.4320  140.6600 C   0  0  1  0  0  3  0  0  0  0  0  0
  181.1410  179.7400  139.9710 C   0  0  1  0  0  3  0  0  0  0  0  0
  180.4370  179.5420  138.6140 C   0  0  0  0  0  0  0  0  0  0  0  0
  180.8200  178.2470  137.9260 C   0  0  0  0  0  2  0  0  0  0  0  0
  180.9900  180.3400  137.4460 C   0  0  0  0  0  2  0  0  0  0  0  0
  181.3630  179.0410  136.7500 C   0  0  0  0  0  2  0  0  0  0  0  0
  179.0630  179.6670  138.7120 F   0  0  0  0  0  0  0  0  0  0  0  0
  1 29  1  6  0  0  0
  2  9  1  0  0  0  0
  3  1  1  0  0  0  0
  3 16  1  1  0  0  0
  4 10  1  6  0  0  0
  4  7  1  0  0  0  0
  4 14  1  0  0  0  0
  5  7  1  6  0  0  0
  5  2  1  0  0  0  0
  5 13  1  0  0  0  0
  6 15  1  0  0  0  0
  8 12  1  0  0  0  0
  9 11  1  0  0  0  0
 11 40  1  1  0  0  0
 11  6  1  0  0  0  0
 12 15  1  0  0  0  0
 13  8  1  1  0  0  0
 14  3  1  0  0  0  0
 14  1  1  0  0  0  0
 14 13  1  0  0  0  0
 16 17  2  0  0  0  0
 17 18  1  0  0  0  0
 18 19  2  0  0  0  0
 19 20  1  0  0  0  0
 20 21  1  0  0  0  0
 21 24  1  0  0  0  0
 22 24  1  0  0  0  0
 23 22  1  0  0  0  0
 23 24  1  0  0  0  0
 24 26  1  0  0  0  0
 26 28  2  0  0  0  0
 26 27  1  0  0  0  0
 26 25  1  0  0  0  0
 29 32  1  0  0  0  0
 30 33  1  0  0  0  0
 30 32  1  0  0  0  0
 31 30  2  0  0  0  0
 33 37  1  0  0  0  0
 36 34  1  0  0  0  0
 36 35  1  0  0  0  0
 37 35  2  0  0  0  0
 38 36  2  0  0  0  0
 39 38  1  0  0  0  0
 39 33  2  0  0  0  0
 40 41  1  0  0  0  0
 45 43  1  0  0  0  0
 45 42  1  0  0  0  0
 46 44  2  0  0  0  0
 46 45  1  0  0  0  0
 47 41  1  0  0  0  0
 47 45  1  0  0  0  0
 48 47  1  0  0  0  0
 48 46  1  0  0  0  0
 49 53  1  0  0  0  0
 49 48  1  0  0  0  0
 50 49  1  0  0  0  0
 51 49  1  0  0  0  0
 52 51  1  0  0  0  0
 52 50  1  0  0  0  0
M  END
>  <MODEL>
1

>  <REMARK>
 VINA RESULT:      -8.3      0.000      0.000
  Name = 
  13 active torsions:
  status: ('A' for Active; 'I' for Inactive)
    1  A    between atoms: C_3  and  C_17
    2  A    between atoms: C_4  and  C_10
    3  A    between atoms: C_5  and  C_26
    4  A    between atoms: C_6  and  C_53
    5  A    between atoms: P_8  and  C_48
    6  A    between atoms: C_14  and  C_33
    7  A    between atoms: C_18  and  C_50
    8  A    between atoms: C_26  and  N_43
    9  A    between atoms: C_30  and  C_37
   10  A    between atoms: C_30  and  O_52
   11  A    between atoms: C_47  and  C_48
   12  A    between atoms: C_47  and  C_50
   13  A    between atoms: C_49  and  O_52
                            x       y       z     vdW  Elec       q    Type
                         _______ _______ _______ _____ _____    ______ ____

>  <TORSDO>
F 13

$$$$
=
 OpenBabel10222416503D

 53 59  0  0  1  0  0  0  0  0999 V2000
  190.2360  175.7570  138.3940 C   0  0  1  0  0  3  0  0  0  0  0  0
  185.8420  178.2330  138.0810 C   0  0  0  0  0  2  0  0  0  0  0  0
  190.6460  177.2270  138.2850 C   0  0  1  0  0  3  0  0  0  0  0  0
  188.9330  177.0870  136.4530 C   0  0  2  0  0  3  0  0  0  0  0  0
  187.3540  178.2690  137.9580 C   0  0  2  0  0  3  0  0  0  0  0  0
  185.4410  179.1410  141.2790 C   0  0  0  0  0  2  0  0  0  0  0  0
  187.7740  178.0820  136.4980 C   0  0  0  0  0  2  0  0  0  0  0  0
  188.1030  177.2880  140.2560 C   0  0  0  0  0  2  0  0  0  0  0  0
  185.4180  179.2860  138.8970 O   0  0  0  0  0  0  0  0  0  0  0  0
  188.4980  175.9280  135.8070 O   0  0  0  0  0  1  0  0  0  0  0  0
  184.7810  178.6820  139.9840 C   0  0  2  0  0  3  0  0  0  0  0  0
  187.6870  178.5550  140.6800 O   0  0  0  0  0  0  0  0  0  0  0  0
  187.9880  177.1250  138.7330 C   0  0  2  0  0  3  0  0  0  0  0  0
  189.2250  176.7910  137.9110 C   0  0  1  0  0  0  0  0  0  0  0  0
  186.6670  178.2990  141.5980 C   0  0  0  0  0  2  0  0  0  0  0  0
  190.8370  177.7890  139.6510 C   0  0  0  0  0  3  0  0  0  0  0  0
  191.5550  177.1310  140.5480 C   0  0  0  0  0  3  0  0  0  0  0  0
  191.7480  177.6980  141.8770 C   0  0  0  0  0  3  0  0  0  0  0  0
  191.3550  177.0270  142.9480 C   0  0  0  0  0  3  0  0  0  0  0  0
  191.5620  177.6050  144.3020 C   0  0  0  0  0  2  0  0  0  0  0  0
  190.3870  178.4940  144.6580 C   0  0  0  0  0  2  0  0  0  0  0  0
  187.9610  177.8860  145.1420 C   0  0  0  0  0  2  0  0  0  0  0  0
  188.7000  176.7250  144.8190 O   0  0  0  0  0  0  0  0  0  0  0  0
  189.3790  177.7400  145.5090 C   0  0  1  0  0  0  0  0  0  0  0  0
  189.1860  178.5830  148.2390 O   0  0  0  0  0  1  0  0  0  0  0  0
  189.7330  177.3280  147.2470 P   0  0  0  0  0  0  0  0  0  0  0  0
  189.0320  176.0450  147.6310 O   0  0  0  0  0  1  0  0  0  0  0  0
  191.4000  177.1360  147.4560 O   0  0  0  0  0  0  0  0  0  0  0  0
  190.8660  174.9650  137.2560 C   0  0  0  0  0  2  0  0  0  0  0  0
  193.3250  175.1850  136.6960 C   0  0  0  0  0  0  0  0  0  0  0  0
  193.0530  175.8250  135.6420 O   0  0  0  0  0  0  0  0  0  0  0  0
  192.2700  174.7110  137.5370 N   0  0  0  0  0  2  0  0  0  0  0  0
  194.7300  174.9220  137.0530 C   0  0  0  0  0  0  0  0  0  0  0  0
  199.0780  174.1190  138.1610 Cl  0  0  0  0  0  0  0  0  0  0  0  0
  196.3980  174.2220  138.6800 C   0  0  0  0  0  3  0  0  0  0  0  0
  197.4080  174.4290  137.7360 C   0  0  0  0  0  0  0  0  0  0  0  0
  195.0620  174.4670  138.3390 C   0  0  0  0  0  3  0  0  0  0  0  0
  197.0860  174.8850  136.4550 C   0  0  0  0  0  3  0  0  0  0  0  0
  195.7530  175.1330  136.1150 C   0  0  0  0  0  3  0  0  0  0  0  0
  183.3160  179.0840  139.9830 C   0  0  0  0  0  2  0  0  0  0  0  0
  182.9330  179.4990  138.7060 O   0  0  0  0  0  0  0  0  0  0  0  0
  181.0870  180.7270  137.1460 C   0  0  0  0  0  1  0  0  0  0  0  0
  179.4950  178.9050  137.8120 C   0  0  0  0  0  1  0  0  0  0  0  0
  181.0300  178.2960  135.0240 O   0  0  0  0  0  0  0  0  0  0  0  0
  180.9180  179.2320  137.3950 C   0  0  0  0  0  0  0  0  0  0  0  0
  181.3530  178.4120  136.1950 C   0  0  0  0  0  0  0  0  0  0  0  0
  181.9280  178.6030  138.3250 C   0  0  1  0  0  3  0  0  0  0  0  0
  182.3910  177.8080  137.1380 C   0  0  1  0  0  3  0  0  0  0  0  0
  182.2350  176.2920  137.3680 C   0  0  0  0  0  0  0  0  0  0  0  0
  183.0260  175.7830  138.5560 C   0  0  0  0  0  2  0  0  0  0  0  0
  183.0260  175.3860  136.4390 C   0  0  0  0  0  2  0  0  0  0  0  0
  183.8110  174.8670  137.6320 C   0  0  0  0  0  2  0  0  0  0  0  0
  180.9100  175.9060  137.4490 F   0  0  0  0  0  0  0  0  0  0  0  0
  1 29  1  6  0  0  0
  2  9  1  0  0  0  0
  3  1  1  0  0  0  0
  3 16  1  1  0  0  0
  4 10  1  6  0  0  0
  4  7  1  0  0  0  0
  4 14  1  0  0  0  0
  5  7  1  6  0  0  0
  5  2  1  0  0  0  0
  5 13  1  0  0  0  0
  6 15  1  0  0  0  0
  8 12  1  0  0  0  0
  9 11  1  0  0  0  0
 11 40  1  1  0  0  0
 11  6  1  0  0  0  0
 12 15  1  0  0  0  0
 13  8  1  1  0  0  0
 14  3  1  0  0  0  0
 14  1  1  0  0  0  0
 14 13  1  0  0  0  0
 16 17  2  0  0  0  0
 17 18  1  0  0  0  0
 18 19  2  0  0  0  0
 19 20  1  0  0  0  0
 20 21  1  0  0  0  0
 21 24  1  0  0  0  0
 22 24  1  0  0  0  0
 23 22  1  0  0  0  0
 23 24  1  0  0  0  0
 24 26  1  0  0  0  0
 26 28  2  0  0  0  0
 26 27  1  0  0  0  0
 26 25  1  0  0  0  0
 29 32  1  0  0  0  0
 30 33  1  0  0  0  0
 30 32  1  0  0  0  0
 31 30  2  0  0  0  0
 33 37  1  0  0  0  0
 36 34  1  0  0  0  0
 36 35  1  0  0  0  0
 37 35  2  0  0  0  0
 38 36  2  0  0  0  0
 39 38  1  0  0  0  0
 39 33  2  0  0  0  0
 41 40  1  0  0  0  0
 42 45  1  0  0  0  0
 44 46  2  0  0  0  0
 45 43  1  0  0  0  0
 45 47  1  0  0  0  0
 46 48  1  0  0  0  0
 46 45  1  0  0  0  0
 47 41  1  0  0  0  0
 48 49  1  0  0  0  0
 48 47  1  0  0  0  0
 49 53  1  0  0  0  0
 49 50  1  0  0  0  0
 51 49  1  0  0  0  0
 51 52  1  0  0  0  0
 52 50  1  0  0  0  0
M  END
>  <MODEL>
2

>  <REMARK>
 VINA RESULT:      -8.3      1.501      2.301
  Name = 
  13 active torsions:
  status: ('A' for Active; 'I' for Inactive)
    1  A    between atoms: C_3  and  C_17
    2  A    between atoms: C_4  and  C_10
    3  A    between atoms: C_5  and  C_26
    4  A    between atoms: C_6  and  C_53
    5  A    between atoms: P_8  and  C_48
    6  A    between atoms: C_14  and  C_33
    7  A    between atoms: C_18  and  C_50
    8  A    between atoms: C_26  and  N_43
    9  A    between atoms: C_30  and  C_37
   10  A    between atoms: C_30  and  O_52
   11  A    between atoms: C_47  and  C_48
   12  A    between atoms: C_47  and  C_50
   13  A    between atoms: C_49  and  O_52
                            x       y       z     vdW  Elec       q    Type
                         _______ _______ _______ _____ _____    ______ ____

>  <TORSDO>
F 13

$$$$
=
 OpenBabel10222416503D

 53 59  0  0  1  0  0  0  0  0999 V2000
  190.2540  175.7060  138.3310 C   0  0  1  0  0  3  0  0  0  0  0  0
  185.9170  178.2730  137.9580 C   0  0  0  0  0  2  0  0  0  0  0  0
  190.6960  177.1670  138.2310 C   0  0  1  0  0  3  0  0  0  0  0  0
  189.0070  177.0660  136.3730 C   0  0  2  0  0  3  0  0  0  0  0  0
  187.4310  178.2780  137.8580 C   0  0  2  0  0  3  0  0  0  0  0  0
  185.4880  179.1840  141.1520 C   0  0  0  0  0  2  0  0  0  0  0  0
  187.8690  178.0850  136.4030 C   0  0  0  0  0  2  0  0  0  0  0  0
  188.1260  177.2780  140.1640 C   0  0  0  0  0  2  0  0  0  0  0  0
  185.5030  179.3330  138.7700 O   0  0  0  0  0  0  0  0  0  0  0  0
  188.5580  175.9180  135.7190 O   0  0  0  0  0  1  0  0  0  0  0  0
  184.8380  178.7400  139.8460 C   0  0  2  0  0  3  0  0  0  0  0  0
  187.7300  178.5520  140.5850 O   0  0  0  0  0  0  0  0  0  0  0  0
  188.0300  177.1200  138.6400 C   0  0  2  0  0  3  0  0  0  0  0  0
  189.2720  176.7620  137.8350 C   0  0  1  0  0  0  0  0  0  0  0  0
  186.6910  178.3160  141.4870 C   0  0  0  0  0  2  0  0  0  0  0  0
  190.8780  177.7230  139.6000 C   0  0  0  0  0  3  0  0  0  0  0  0
  191.5950  177.0640  140.4980 C   0  0  0  0  0  3  0  0  0  0  0  0
  191.7800  177.6250  141.8300 C   0  0  0  0  0  3  0  0  0  0  0  0
  191.3530  176.9630  142.8930 C   0  0  0  0  0  3  0  0  0  0  0  0
  191.5520  177.5340  144.2510 C   0  0  0  0  0  2  0  0  0  0  0  0
  190.3780  178.4280  144.6010 C   0  0  0  0  0  2  0  0  0  0  0  0
  187.9560  177.8080  145.0900 C   0  0  0  0  0  2  0  0  0  0  0  0
  188.7090  176.6460  144.8010 O   0  0  0  0  0  0  0  0  0  0  0  0
  189.3740  177.6860  145.4660 C   0  0  1  0  0  0  0  0  0  0  0  0
  189.1310  178.5850  148.1750 O   0  0  0  0  0  1  0  0  0  0  0  0
  189.7240  177.3250  147.2160 P   0  0  0  0  0  0  0  0  0  0  0  0
  189.0570  176.0300  147.6240 O   0  0  0  0  0  1  0  0  0  0  0  0
  191.3940  177.1860  147.4440 O   0  0  0  0  0  0  0  0  0  0  0  0
  190.8840  174.9040  137.2010 C   0  0  0  0  0  2  0  0  0  0  0  0
  193.3420  175.1560  136.6450 C   0  0  0  0  0  0  0  0  0  0  0  0
  193.0630  175.8050  135.5980 O   0  0  0  0  0  0  0  0  0  0  0  0
  192.2900  174.6610  137.4800 N   0  0  0  0  0  2  0  0  0  0  0  0
  194.7490  174.9030  137.0000 C   0  0  0  0  0  0  0  0  0  0  0  0
  199.1040  174.1340  138.1020 Cl  0  0  0  0  0  0  0  0  0  0  0  0
  196.4120  174.0720  138.5670 C   0  0  0  0  0  3  0  0  0  0  0  0
  197.4310  174.4300  137.6800 C   0  0  0  0  0  0  0  0  0  0  0  0
  195.0750  174.3070  138.2280 C   0  0  0  0  0  3  0  0  0  0  0  0
  197.1150  175.0280  136.4560 C   0  0  0  0  0  3  0  0  0  0  0  0
  195.7790  175.2660  136.1180 C   0  0  0  0  0  3  0  0  0  0  0  0
  183.3820  179.1730  139.8250 C   0  0  0  0  0  2  0  0  0  0  0  0
  182.5850  178.1520  139.3000 O   0  0  0  0  0  0  0  0  0  0  0  0
  182.1180  176.0000  137.7200 C   0  0  0  0  0  1  0  0  0  0  0  0
  182.7210  177.4590  135.7690 C   0  0  0  0  0  1  0  0  0  0  0  0
  179.5340  177.3660  136.3500 O   0  0  0  0  0  0  0  0  0  0  0  0
  181.9770  177.3810  137.0900 C   0  0  0  0  0  0  0  0  0  0  0  0
  180.5210  177.7810  136.9380 C   0  0  0  0  0  0  0  0  0  0  0  0
  182.3130  178.5490  137.9860 C   0  0  1  0  0  3  0  0  0  0  0  0
  180.8670  178.9380  137.8710 C   0  0  1  0  0  3  0  0  0  0  0  0
  180.6980  180.3350  137.2420 C   0  0  0  0  0  0  0  0  0  0  0  0
  181.3610  181.4360  138.0460 C   0  0  0  0  0  2  0  0  0  0  0  0
  179.3440  180.9980  137.4290 C   0  0  0  0  0  2  0  0  0  0  0  0
  180.0100  182.1090  138.2240 C   0  0  0  0  0  2  0  0  0  0  0  0
  181.1040  180.3690  135.9200 F   0  0  0  0  0  0  0  0  0  0  0  0
  1 29  1  6  0  0  0
  2  9  1  0  0  0  0
  3  1  1  0  0  0  0
  3 16  1  1  0  0  0
  4 10  1  6  0  0  0
  4  7  1  0  0  0  0
  4 14  1  0  0  0  0
  5  7  1  6  0  0  0
  5  2  1  0  0  0  0
  5 13  1  0  0  0  0
  6 15  1  0  0  0  0
  8 12  1  0  0  0  0
  9 11  1  0  0  0  0
 11 40  1  1  0  0  0
 11  6  1  0  0  0  0
 12 15  1  0  0  0  0
 13  8  1  1  0  0  0
 14  3  1  0  0  0  0
 14  1  1  0  0  0  0
 14 13  1  0  0  0  0
 16 17  2  0  0  0  0
 17 18  1  0  0  0  0
 18 19  2  0  0  0  0
 19 20  1  0  0  0  0
 20 21  1  0  0  0  0
 21 24  1  0  0  0  0
 22 24  1  0  0  0  0
 23 22  1  0  0  0  0
 23 24  1  0  0  0  0
 24 26  1  0  0  0  0
 26 28  2  0  0  0  0
 26 27  1  0  0  0  0
 26 25  1  0  0  0  0
 29 32  1  0  0  0  0
 30 33  1  0  0  0  0
 30 32  1  0  0  0  0
 31 30  2  0  0  0  0
 33 37  1  0  0  0  0
 36 34  1  0  0  0  0
 36 35  1  0  0  0  0
 37 35  2  0  0  0  0
 38 36  2  0  0  0  0
 39 38  1  0  0  0  0
 39 33  2  0  0  0  0
 41 40  1  0  0  0  0
 43 45  1  0  0  0  0
 44 46  2  0  0  0  0
 45 42  1  0  0  0  0
 45 47  1  0  0  0  0
 46 45  1  0  0  0  0
 46 48  1  0  0  0  0
 47 41  1  0  0  0  0
 48 47  1  0  0  0  0
 49 51  1  0  0  0  0
 49 48  1  0  0  0  0
 49 50  1  0  0  0  0
 50 52  1  0  0  0  0
 51 52  1  0  0  0  0
 53 49  1  0  0  0  0
M  END
>  <MODEL>
3

>  <REMARK>
 VINA RESULT:      -8.1      1.450      2.124
  Name = 
  13 active torsions:
  status: ('A' for Active; 'I' for Inactive)
    1  A    between atoms: C_3  and  C_17
    2  A    between atoms: C_4  and  C_10
    3  A    between atoms: C_5  and  C_26
    4  A    between atoms: C_6  and  C_53
    5  A    between atoms: P_8  and  C_48
    6  A    between atoms: C_14  and  C_33
    7  A    between atoms: C_18  and  C_50
    8  A    between atoms: C_26  and  N_43
    9  A    between atoms: C_30  and  C_37
   10  A    between atoms: C_30  and  O_52
   11  A    between atoms: C_47  and  C_48
   12  A    between atoms: C_47  and  C_50
   13  A    between atoms: C_49  and  O_52
                            x       y       z     vdW  Elec       q    Type
                         _______ _______ _______ _____ _____    ______ ____

>  <TORSDO>
F 13

$$$$
=
 OpenBabel10222416503D

 53 59  0  0  1  0  0  0  0  0999 V2000
  190.2470  175.7340  138.2150 C   0  0  1  0  0  3  0  0  0  0  0  0
  185.8460  178.2170  138.1530 C   0  0  0  0  0  2  0  0  0  0  0  0
  190.6530  177.2040  138.0960 C   0  0  1  0  0  3  0  0  0  0  0  0
  188.8450  177.0790  136.3550 C   0  0  2  0  0  3  0  0  0  0  0  0
  187.3490  178.2520  137.9510 C   0  0  2  0  0  3  0  0  0  0  0  0
  185.6160  179.1020  141.3740 C   0  0  0  0  0  2  0  0  0  0  0  0
  187.6920  178.0750  136.4690 C   0  0  0  0  0  2  0  0  0  0  0  0
  188.2170  177.2530  140.1980 C   0  0  0  0  0  2  0  0  0  0  0  0
  185.4670  179.2640  138.9970 O   0  0  0  0  0  0  0  0  0  0  0  0
  188.3750  175.9260  135.7250 O   0  0  0  0  0  1  0  0  0  0  0  0
  184.8880  178.6520  140.1120 C   0  0  2  0  0  3  0  0  0  0  0  0
  187.8260  178.5170  140.6530 O   0  0  0  0  0  0  0  0  0  0  0  0
  188.0220  177.1020  138.6830 C   0  0  2  0  0  3  0  0  0  0  0  0
  189.2140  176.7730  137.7940 C   0  0  1  0  0  0  0  0  0  0  0  0
  186.8560  178.2560  141.6210 C   0  0  0  0  0  2  0  0  0  0  0  0
  190.9160  177.7560  139.4530 C   0  0  0  0  0  3  0  0  0  0  0  0
  191.6770  177.0890  140.3080 C   0  0  0  0  0  3  0  0  0  0  0  0
  191.9410  177.6470  141.6290 C   0  0  0  0  0  3  0  0  0  0  0  0
  191.3000  177.1770  142.6870 C   0  0  0  0  0  3  0  0  0  0  0  0
  191.5790  177.7420  144.0330 C   0  0  0  0  0  2  0  0  0  0  0  0
  190.3810  178.5430  144.5040 C   0  0  0  0  0  2  0  0  0  0  0  0
  188.0290  177.7090  145.0140 C   0  0  0  0  0  2  0  0  0  0  0  0
  188.8650  176.6260  144.6590 O   0  0  0  0  0  0  0  0  0  0  0  0
  189.4600  177.6870  145.3560 C   0  0  1  0  0  0  0  0  0  0  0  0
  189.4100  178.5620  148.0830 O   0  0  0  0  0  1  0  0  0  0  0  0
  189.8790  177.2820  147.0810 P   0  0  0  0  0  0  0  0  0  0  0  0
  189.1600  176.0230  147.5090 O   0  0  0  0  0  1  0  0  0  0  0  0
  191.5470  177.0450  147.2200 O   0  0  0  0  0  0  0  0  0  0  0  0
  190.8150  174.9500  137.0400 C   0  0  0  0  0  2  0  0  0  0  0  0
  193.2890  175.1700  136.5460 C   0  0  0  0  0  0  0  0  0  0  0  0
  193.0540  175.9780  135.6050 O   0  0  0  0  0  0  0  0  0  0  0  0
  192.2050  174.6050  137.2910 N   0  0  0  0  0  2  0  0  0  0  0  0
  194.6780  174.8030  136.8700 C   0  0  0  0  0  0  0  0  0  0  0  0
  198.9770  173.6590  137.8670 Cl  0  0  0  0  0  0  0  0  0  0  0  0
  197.0630  174.9710  136.4230 C   0  0  0  0  0  3  0  0  0  0  0  0
  197.3250  174.0980  137.4830 C   0  0  0  0  0  0  0  0  0  0  0  0
  195.7440  175.3240  136.1190 C   0  0  0  0  0  3  0  0  0  0  0  0
  196.2710  173.5720  138.2340 C   0  0  0  0  0  3  0  0  0  0  0  0
  194.9520  173.9220  137.9280 C   0  0  0  0  0  3  0  0  0  0  0  0
  183.4260  179.0560  140.1910 C   0  0  0  0  0  2  0  0  0  0  0  0
  183.0550  179.7490  139.0370 O   0  0  0  0  0  0  0  0  0  0  0  0
  181.6140  178.8860  136.9090 C   0  0  0  0  0  1  0  0  0  0  0  0
  179.8530  180.5410  137.5900 C   0  0  0  0  0  1  0  0  0  0  0  0
  179.3380  177.5710  138.7830 O   0  0  0  0  0  0  0  0  0  0  0  0
  180.8490  179.5030  138.0760 C   0  0  0  0  0  0  0  0  0  0  0  0
  180.1810  178.4410  138.9300 C   0  0  0  0  0  0  0  0  0  0  0  0
  181.6950  180.0320  139.2090 C   0  0  1  0  0  3  0  0  0  0  0  0
  181.0660  178.9660  140.0580 C   0  0  1  0  0  3  0  0  0  0  0  0
  180.2920  179.5640  141.2500 C   0  0  0  0  0  0  0  0  0  0  0  0
  181.0310  179.4380  142.5660 C   0  0  0  0  0  2  0  0  0  0  0  0
  179.1490  178.7270  141.7980 C   0  0  0  0  0  2  0  0  0  0  0  0
  179.8840  178.6110  143.1230 C   0  0  0  0  0  2  0  0  0  0  0  0
  179.9030  180.8710  141.0200 F   0  0  0  0  0  0  0  0  0  0  0  0
  1 29  1  6  0  0  0
  2  9  1  0  0  0  0
  3  1  1  0  0  0  0
  3 16  1  1  0  0  0
  4 10  1  1  0  0  0
  4  7  1  0  0  0  0
  4 14  1  0  0  0  0
  5  7  1  6  0  0  0
  5  2  1  0  0  0  0
  5 13  1  0  0  0  0
  6 15  1  0  0  0  0
  8 12  1  0  0  0  0
  9 11  1  0  0  0  0
 11 40  1  1  0  0  0
 11  6  1  0  0  0  0
 12 15  1  0  0  0  0
 13  8  1  1  0  0  0
 14  3  1  0  0  0  0
 14  1  1  0  0  0  0
 14 13  1  0  0  0  0
 16 17  2  0  0  0  0
 17 18  1  0  0  0  0
 18 19  2  0  0  0  0
 19 20  1  0  0  0  0
 20 21  1  0  0  0  0
 21 24  1  0  0  0  0
 22 24  1  0  0  0  0
 23 22  1  0  0  0  0
 23 24  1  0  0  0  0
 24 26  1  0  0  0  0
 26 28  2  0  0  0  0
 26 27  1  0  0  0  0
 26 25  1  0  0  0  0
 29 32  1  0  0  0  0
 30 33  1  0  0  0  0
 30 32  1  0  0  0  0
 31 30  2  0  0  0  0
 33 39  1  0  0  0  0
 35 36  2  0  0  0  0
 36 34  1  0  0  0  0
 36 38  1  0  0  0  0
 37 35  1  0  0  0  0
 37 33  2  0  0  0  0
 39 38  2  0  0  0  0
 41 47  1  0  0  0  0
 41 40  1  0  0  0  0
 42 45  1  0  0  0  0
 43 45  1  0  0  0  0
 44 46  2  0  0  0  0
 45 46  1  0  0  0  0
 45 47  1  0  0  0  0
 46 48  1  0  0  0  0
 47 48  1  0  0  0  0
 48 49  1  0  0  0  0
 49 51  1  0  0  0  0
 49 50  1  0  0  0  0
 50 52  1  0  0  0  0
 51 52  1  0  0  0  0
 53 49  1  0  0  0  0
M  END
>  <MODEL>
4

>  <REMARK>
 VINA RESULT:      -8.0      0.886      2.162
  Name = 
  13 active torsions:
  status: ('A' for Active; 'I' for Inactive)
    1  A    between atoms: C_3  and  C_17
    2  A    between atoms: C_4  and  C_10
    3  A    between atoms: C_5  and  C_26
    4  A    between atoms: C_6  and  C_53
    5  A    between atoms: P_8  and  C_48
    6  A    between atoms: C_14  and  C_33
    7  A    between atoms: C_18  and  C_50
    8  A    between atoms: C_26  and  N_43
    9  A    between atoms: C_30  and  C_37
   10  A    between atoms: C_30  and  O_52
   11  A    between atoms: C_47  and  C_48
   12  A    between atoms: C_47  and  C_50
   13  A    between atoms: C_49  and  O_52
                            x       y       z     vdW  Elec       q    Type
                         _______ _______ _______ _____ _____    ______ ____

>  <TORSDO>
F 13

$$$$
=
 OpenBabel10222416503D

 53 59  0  0  1  0  0  0  0  0999 V2000
  185.7770  177.5260  138.1580 C   0  0  1  0  0  3  0  0  0  0  0  0
  190.0570  175.8120  136.0890 C   0  0  0  0  0  2  0  0  0  0  0  0
  185.5050  177.5720  136.6540 C   0  0  1  0  0  3  0  0  0  0  0  0
  187.7840  178.6270  136.7460 C   0  0  2  0  0  3  0  0  0  0  0  0
  188.7120  176.4870  135.8970 C   0  0  2  0  0  3  0  0  0  0  0  0
  189.2360  172.6040  135.5940 C   0  0  0  0  0  2  0  0  0  0  0  0
  188.8780  178.0100  135.8760 C   0  0  0  0  0  2  0  0  0  0  0  0
  187.0940  174.8030  137.0580 C   0  0  0  0  0  2  0  0  0  0  0  0
  190.1800  174.7570  135.1810 O   0  0  0  0  0  0  0  0  0  0  0  0
  188.3830  179.2190  137.8590 O   0  0  0  0  0  1  0  0  0  0  0  0
  190.3230  173.6070  135.9630 C   0  0  2  0  0  3  0  0  0  0  0  0
  187.3700  174.0790  135.8930 O   0  0  0  0  0  0  0  0  0  0  0  0
  187.7790  176.1780  137.0570 C   0  0  2  0  0  3  0  0  0  0  0  0
  186.9400  177.4420  137.1760 C   0  0  1  0  0  0  0  0  0  0  0  0
  187.9460  172.8920  136.3470 C   0  0  0  0  0  2  0  0  0  0  0  0
  184.8290  176.3130  136.2360 C   0  0  0  0  0  3  0  0  0  0  0  0
  183.7080  176.3610  135.5320 C   0  0  0  0  0  3  0  0  0  0  0  0
  183.0640  175.1230  135.1130 C   0  0  0  0  0  3  0  0  0  0  0  0
  183.3590  173.9840  135.7190 C   0  0  0  0  0  3  0  0  0  0  0  0
  182.6920  172.7240  135.2960 C   0  0  0  0  0  2  0  0  0  0  0  0
  182.1960  171.9780  136.5180 C   0  0  0  0  0  2  0  0  0  0  0  0
  179.7750  171.5060  135.8850 C   0  0  0  0  0  2  0  0  0  0  0  0
  180.0110  171.1240  137.2250 O   0  0  0  0  0  0  0  0  0  0  0  0
  180.7160  172.2380  136.7460 C   0  0  1  0  0  0  0  0  0  0  0  0
  179.6910  174.8480  136.1630 O   0  0  0  0  0  0  0  0  0  0  0  0
  180.1320  173.8200  137.4310 P   0  0  0  0  0  0  0  0  0  0  0  0
  178.9360  173.5900  138.3270 O   0  0  0  0  0  1  0  0  0  0  0  0
  181.3700  174.5410  138.3310 O   0  0  0  0  0  1  0  0  0  0  0  0
  185.6000  178.9170  138.7520 C   0  0  0  0  0  2  0  0  0  0  0  0
  184.7560  178.5800  141.1160 C   0  0  0  0  0  0  0  0  0  0  0  0
  183.5850  178.3690  140.6940 O   0  0  0  0  0  0  0  0  0  0  0  0
  185.8070  178.8790  140.1920 N   0  0  0  0  0  2  0  0  0  0  0  0
  185.0370  178.5250  142.5610 C   0  0  0  0  0  0  0  0  0  0  0  0
  185.8990  178.3450  147.0340 Cl  0  0  0  0  0  0  0  0  0  0  0  0
  186.4850  177.8790  144.4060 C   0  0  0  0  0  3  0  0  0  0  0  0
  185.5680  178.4120  145.3150 C   0  0  0  0  0  0  0  0  0  0  0  0
  186.2210  177.9360  143.0330 C   0  0  0  0  0  3  0  0  0  0  0  0
  184.3850  178.9970  144.8550 C   0  0  0  0  0  3  0  0  0  0  0  0
  184.1190  179.0510  143.4830 C   0  0  0  0  0  3  0  0  0  0  0  0
  191.6910  173.0010  135.7040 C   0  0  0  0  0  2  0  0  0  0  0  0
  192.5440  173.2650  136.7770 O   0  0  0  0  0  0  0  0  0  0  0  0
  193.1630  175.6210  137.9670 C   0  0  0  0  0  1  0  0  0  0  0  0
  194.4230  176.2030  135.8760 C   0  0  0  0  0  1  0  0  0  0  0  0
  196.2990  174.8810  138.1640 O   0  0  0  0  0  0  0  0  0  0  0  0
  194.1040  175.1100  136.8810 C   0  0  0  0  0  0  0  0  0  0  0  0
  195.3650  174.5070  137.4720 C   0  0  0  0  0  0  0  0  0  0  0  0
  193.6860  173.8310  136.1980 C   0  0  1  0  0  3  0  0  0  0  0  0
  194.9130  173.2120  136.8020 C   0  0  1  0  0  3  0  0  0  0  0  0
  195.8780  172.6820  135.7240 C   0  0  0  0  0  0  0  0  0  0  0  0
  195.3830  171.4200  135.0470 C   0  0  0  0  0  2  0  0  0  0  0  0
  197.1080  171.9440  136.2260 C   0  0  0  0  0  2  0  0  0  0  0  0
  196.6180  170.6820  135.5360 C   0  0  0  0  0  2  0  0  0  0  0  0
  196.2090  173.6500  134.7930 F   0  0  0  0  0  0  0  0  0  0  0  0
  1 29  1  1  0  0  0
  3 16  1  6  0  0  0
  3 14  1  0  0  0  0
  3  1  1  0  0  0  0
  4 14  1  0  0  0  0
  4 10  1  1  0  0  0
  5  7  1  1  0  0  0
  5  2  1  0  0  0  0
  5 13  1  0  0  0  0
  6 11  1  0  0  0  0
  6 15  1  0  0  0  0
  7  4  1  0  0  0  0
  9 11  1  0  0  0  0
  9  2  1  0  0  0  0
 11 40  1  6  0  0  0
 12 15  1  0  0  0  0
 12  8  1  0  0  0  0
 13  8  1  6  0  0  0
 13 14  1  0  0  0  0
 14  1  1  0  0  0  0
 17 16  2  0  0  0  0
 18 17  1  0  0  0  0
 18 19  2  0  0  0  0
 20 19  1  0  0  0  0
 20 21  1  0  0  0  0
 21 24  1  0  0  0  0
 22 24  1  0  0  0  0
 22 23  1  0  0  0  0
 24 23  1  0  0  0  0
 24 26  1  0  0  0  0
 25 26  2  0  0  0  0
 26 27  1  0  0  0  0
 26 28  1  0  0  0  0
 29 32  1  0  0  0  0
 30 33  1  0  0  0  0
 31 30  2  0  0  0  0
 32 30  1  0  0  0  0
 33 37  2  0  0  0  0
 33 39  1  0  0  0  0
 35 36  2  0  0  0  0
 36 34  1  0  0  0  0
 37 35  1  0  0  0  0
 38 36  1  0  0  0  0
 39 38  2  0  0  0  0
 40 41  1  0  0  0  0
 43 45  1  0  0  0  0
 45 46  1  0  0  0  0
 45 42  1  0  0  0  0
 46 44  2  0  0  0  0
 47 41  1  0  0  0  0
 47 48  1  0  0  0  0
 47 45  1  0  0  0  0
 48 46  1  0  0  0  0
 49 51  1  0  0  0  0
 49 48  1  0  0  0  0
 50 52  1  0  0  0  0
 50 49  1  0  0  0  0
 52 51  1  0  0  0  0
 53 49  1  0  0  0  0
M  END
>  <MODEL>
5

>  <REMARK>
 VINA RESULT:      -7.3      5.543     12.133
  Name = 
  13 active torsions:
  status: ('A' for Active; 'I' for Inactive)
    1  A    between atoms: C_3  and  C_17
    2  A    between atoms: C_4  and  C_10
    3  A    between atoms: C_5  and  C_26
    4  A    between atoms: C_6  and  C_53
    5  A    between atoms: P_8  and  C_48
    6  A    between atoms: C_14  and  C_33
    7  A    between atoms: C_18  and  C_50
    8  A    between atoms: C_26  and  N_43
    9  A    between atoms: C_30  and  C_37
   10  A    between atoms: C_30  and  O_52
   11  A    between atoms: C_47  and  C_48
   12  A    between atoms: C_47  and  C_50
   13  A    between atoms: C_49  and  O_52
                            x       y       z     vdW  Elec       q    Type
                         _______ _______ _______ _____ _____    ______ ____

>  <TORSDO>
F 13

$$$$
=
 OpenBabel10222416503D

 53 59  0  0  1  0  0  0  0  0999 V2000
  190.1750  175.8860  138.2780 C   0  0  1  0  0  3  0  0  0  0  0  0
  185.7980  178.3840  137.9010 C   0  0  0  0  0  2  0  0  0  0  0  0
  190.5860  177.3590  138.3120 C   0  0  1  0  0  3  0  0  0  0  0  0
  188.9850  177.3670  136.3750 C   0  0  2  0  0  3  0  0  0  0  0  0
  187.3140  178.4280  137.8730 C   0  0  2  0  0  3  0  0  0  0  0  0
  185.2040  179.0350  141.1320 C   0  0  0  0  0  2  0  0  0  0  0  0
  187.8220  178.3570  136.4290 C   0  0  0  0  0  2  0  0  0  0  0  0
  187.9290  177.2660  140.1260 C   0  0  0  0  0  2  0  0  0  0  0  0
  185.3230  179.3690  138.7710 O   0  0  0  0  0  0  0  0  0  0  0  0
  188.5940  176.2640  135.6140 O   0  0  0  0  0  1  0  0  0  0  0  0
  184.6240  178.6800  139.7670 C   0  0  2  0  0  3  0  0  0  0  0  0
  187.4840  178.4950  140.6230 O   0  0  0  0  0  0  0  0  0  0  0  0
  187.9050  177.2250  138.5900 C   0  0  2  0  0  3  0  0  0  0  0  0
  189.1910  176.9560  137.8200 C   0  0  1  0  0  0  0  0  0  0  0  0
  186.4120  178.1680  141.4550 C   0  0  0  0  0  2  0  0  0  0  0  0
  190.6920  177.8100  139.7270 C   0  0  0  0  0  3  0  0  0  0  0  0
  191.4500  177.1430  140.5840 C   0  0  0  0  0  3  0  0  0  0  0  0
  191.5590  177.6030  141.9620 C   0  0  0  0  0  3  0  0  0  0  0  0
  191.4170  176.7460  142.9610 C   0  0  0  0  0  3  0  0  0  0  0  0
  191.5390  177.2180  144.3650 C   0  0  0  0  0  2  0  0  0  0  0  0
  190.9780  176.1660  145.3030 C   0  0  0  0  0  2  0  0  0  0  0  0
  191.6830  176.1650  147.7510 C   0  0  0  0  0  2  0  0  0  0  0  0
  191.9330  177.4300  147.1720 O   0  0  0  0  0  0  0  0  0  0  0  0
  190.8130  176.7270  146.7050 C   0  0  1  0  0  0  0  0  0  0  0  0
  188.3050  176.2240  147.9940 O   0  0  0  0  0  1  0  0  0  0  0  0
  189.2280  177.4330  147.2570 P   0  0  0  0  0  0  0  0  0  0  0  0
  189.4720  178.5500  148.2470 O   0  0  0  0  0  1  0  0  0  0  0  0
  188.3850  178.0460  145.9240 O   0  0  0  0  0  0  0  0  0  0  0  0
  190.8740  175.1860  137.1210 C   0  0  0  0  0  2  0  0  0  0  0  0
  193.2760  174.8220  136.4050 C   0  0  0  0  0  0  0  0  0  0  0  0
  192.9320  174.7770  135.1910 O   0  0  0  0  0  0  0  0  0  0  0  0
  192.2860  175.0060  137.4220 N   0  0  0  0  0  2  0  0  0  0  0  0
  194.6950  174.6760  136.7730 C   0  0  0  0  0  0  0  0  0  0  0  0
  199.0850  174.2140  137.9080 Cl  0  0  0  0  0  0  0  0  0  0  0  0
  197.0520  174.9430  136.2350 C   0  0  0  0  0  3  0  0  0  0  0  0
  197.3980  174.3910  137.4710 C   0  0  0  0  0  0  0  0  0  0  0  0
  195.7040  175.0870  135.8880 C   0  0  0  0  0  3  0  0  0  0  0  0
  196.4000  173.9760  138.3570 C   0  0  0  0  0  3  0  0  0  0  0  0
  195.0540  174.1160  138.0080 C   0  0  0  0  0  3  0  0  0  0  0  0
  183.1600  179.0830  139.7110 C   0  0  0  0  0  2  0  0  0  0  0  0
  182.9820  180.1160  138.7870 O   0  0  0  0  0  0  0  0  0  0  0  0
  182.1820  182.6430  138.2220 C   0  0  0  0  0  1  0  0  0  0  0  0
  179.8840  181.9460  138.9500 C   0  0  0  0  0  1  0  0  0  0  0  0
  180.3410  181.6790  135.7530 O   0  0  0  0  0  0  0  0  0  0  0  0
  181.1270  181.5430  138.1770 C   0  0  0  0  0  0  0  0  0  0  0  0
  180.7960  181.1440  136.7510 C   0  0  0  0  0  0  0  0  0  0  0  0
  181.6010  180.1630  138.5660 C   0  0  1  0  0  3  0  0  0  0  0  0
  181.3080  179.7620  137.1480 C   0  0  1  0  0  3  0  0  0  0  0  0
  180.2480  178.6450  137.0770 C   0  0  0  0  0  0  0  0  0  0  0  0
  180.8110  177.2670  137.3620 C   0  0  0  0  0  2  0  0  0  0  0  0
  179.8330  178.1990  135.6840 C   0  0  0  0  0  2  0  0  0  0  0  0
  180.3860  176.8140  135.9760 C   0  0  0  0  0  2  0  0  0  0  0  0
  179.1500  178.9110  137.8750 F   0  0  0  0  0  0  0  0  0  0  0  0
  1 29  1  6  0  0  0
  1  3  1  0  0  0  0
  2  9  1  0  0  0  0
  3 16  1  1  0  0  0
  4 10  1  6  0  0  0
  4  7  1  0  0  0  0
  4 14  1  0  0  0  0
  5  7  1  6  0  0  0
  5  2  1  0  0  0  0
  5 13  1  0  0  0  0
  6 15  1  0  0  0  0
  8 12  1  0  0  0  0
  9 11  1  0  0  0  0
 11 40  1  1  0  0  0
 11  6  1  0  0  0  0
 12 15  1  0  0  0  0
 13  8  1  1  0  0  0
 14  1  1  0  0  0  0
 14  3  1  0  0  0  0
 14 13  1  0  0  0  0
 16 17  2  0  0  0  0
 17 18  1  0  0  0  0
 18 19  2  0  0  0  0
 19 20  1  0  0  0  0
 20 21  1  0  0  0  0
 21 24  1  0  0  0  0
 23 22  1  0  0  0  0
 24 23  1  0  0  0  0
 24 26  1  0  0  0  0
 24 22  1  0  0  0  0
 26 25  1  0  0  0  0
 26 27  1  0  0  0  0
 28 26  2  0  0  0  0
 29 32  1  0  0  0  0
 30 33  1  0  0  0  0
 30 32  1  0  0  0  0
 31 30  2  0  0  0  0
 33 39  1  0  0  0  0
 35 36  2  0  0  0  0
 36 34  1  0  0  0  0
 36 38  1  0  0  0  0
 37 35  1  0  0  0  0
 37 33  2  0  0  0  0
 39 38  2  0  0  0  0
 41 40  1  0  0  0  0
 44 46  2  0  0  0  0
 45 42  1  0  0  0  0
 45 47  1  0  0  0  0
 45 43  1  0  0  0  0
 46 48  1  0  0  0  0
 46 45  1  0  0  0  0
 47 41  1  0  0  0  0
 48 47  1  0  0  0  0
 49 48  1  0  0  0  0
 49 50  1  0  0  0  0
 49 53  1  0  0  0  0
 51 52  1  0  0  0  0
 51 49  1  0  0  0  0
 52 50  1  0  0  0  0
M  END
>  <MODEL>
6

>  <REMARK>
 VINA RESULT:      -7.2      1.531      2.312
  Name = 
  13 active torsions:
  status: ('A' for Active; 'I' for Inactive)
    1  A    between atoms: C_3  and  C_17
    2  A    between atoms: C_4  and  C_10
    3  A    between atoms: C_5  and  C_26
    4  A    between atoms: C_6  and  C_53
    5  A    between atoms: P_8  and  C_48
    6  A    between atoms: C_14  and  C_33
    7  A    between atoms: C_18  and  C_50
    8  A    between atoms: C_26  and  N_43
    9  A    between atoms: C_30  and  C_37
   10  A    between atoms: C_30  and  O_52
   11  A    between atoms: C_47  and  C_48
   12  A    between atoms: C_47  and  C_50
   13  A    between atoms: C_49  and  O_52
                            x       y       z     vdW  Elec       q    Type
                         _______ _______ _______ _____ _____    ______ ____

>  <TORSDO>
F 13

$$$$
=
 OpenBabel10222416503D

 53 59  0  0  1  0  0  0  0  0999 V2000
  188.1310  177.7430  136.8350 C   0  0  1  0  0  3  0  0  0  0  0  0
  191.3690  173.9530  136.0050 C   0  0  0  0  0  2  0  0  0  0  0  0
  187.9620  176.8380  138.0560 C   0  0  1  0  0  3  0  0  0  0  0  0
  187.8940  175.1390  136.2060 C   0  0  2  0  0  3  0  0  0  0  0  0
  190.2150  174.5080  136.8180 C   0  0  2  0  0  3  0  0  0  0  0  0
  193.9850  174.9970  137.8140 C   0  0  0  0  0  2  0  0  0  0  0  0
  188.8820  173.9760  136.2850 C   0  0  0  0  0  2  0  0  0  0  0  0
  191.1390  176.8380  137.5400 C   0  0  0  0  0  2  0  0  0  0  0  0
  192.3750  173.5110  136.8680 O   0  0  0  0  0  0  0  0  0  0  0  0
  187.6010  175.3820  134.8640 O   0  0  0  0  0  1  0  0  0  0  0  0
  193.4970  174.2840  136.5580 C   0  0  2  0  0  3  0  0  0  0  0  0
  191.8970  176.0260  138.3890 O   0  0  0  0  0  0  0  0  0  0  0  0
  190.1460  176.0220  136.6980 C   0  0  2  0  0  3  0  0  0  0  0  0
  188.6550  176.3120  136.7940 C   0  0  1  0  0  0  0  0  0  0  0  0
  193.2210  176.2940  138.0390 C   0  0  0  0  0  2  0  0  0  0  0  0
  188.8460  177.3190  139.1530 C   0  0  0  0  0  3  0  0  0  0  0  0
  188.3800  177.4220  140.3890 C   0  0  0  0  0  3  0  0  0  0  0  0
  189.2580  177.8780  141.4580 C   0  0  0  0  0  3  0  0  0  0  0  0
  190.4090  177.2630  141.6780 C   0  0  0  0  0  3  0  0  0  0  0  0
  191.3060  177.7370  142.7650 C   0  0  0  0  0  2  0  0  0  0  0  0
  191.6880  176.5680  143.6520 C   0  0  0  0  0  2  0  0  0  0  0  0
  191.8540  176.0460  146.1400 C   0  0  0  0  0  2  0  0  0  0  0  0
  192.0510  177.4280  145.9180 O   0  0  0  0  0  0  0  0  0  0  0  0
  191.1570  176.7660  145.0620 C   0  0  1  0  0  0  0  0  0  0  0  0
  189.1810  178.8390  145.0620 O   0  0  0  0  0  1  0  0  0  0  0  0
  189.4120  177.1910  145.3610 P   0  0  0  0  0  0  0  0  0  0  0  0
  188.5170  176.3860  144.4470 O   0  0  0  0  0  0  0  0  0  0  0  0
  189.0130  176.8520  146.9700 O   0  0  0  0  0  1  0  0  0  0  0  0
  186.7910  177.9070  136.1300 C   0  0  0  0  0  2  0  0  0  0  0  0
  184.4190  177.3200  136.7930 C   0  0  0  0  0  0  0  0  0  0  0  0
  184.1780  176.8820  135.6330 O   0  0  0  0  0  0  0  0  0  0  0  0
  185.7060  177.8650  137.0980 N   0  0  0  0  0  2  0  0  0  0  0  0
  183.3700  177.2770  137.8270 C   0  0  0  0  0  0  0  0  0  0  0  0
  180.1180  177.1460  141.0180 Cl  0  0  0  0  0  0  0  0  0  0  0  0
  181.9870  176.0130  139.3770 C   0  0  0  0  0  3  0  0  0  0  0  0
  181.3670  177.1960  139.7910 C   0  0  0  0  0  0  0  0  0  0  0  0
  182.9870  176.0540  138.3990 C   0  0  0  0  0  3  0  0  0  0  0  0
  181.7400  178.4170  139.2240 C   0  0  0  0  0  3  0  0  0  0  0  0
  182.7370  178.4580  138.2440 C   0  0  0  0  0  3  0  0  0  0  0  0
  194.5910  173.3740  136.0270 C   0  0  0  0  0  2  0  0  0  0  0  0
  195.1890  173.9470  134.9030 O   0  0  0  0  0  0  0  0  0  0  0  0
  196.3930  176.3410  135.3150 C   0  0  0  0  0  1  0  0  0  0  0  0
  198.5350  175.2450  134.6010 C   0  0  0  0  0  1  0  0  0  0  0  0
  198.1070  175.2290  137.8140 O   0  0  0  0  0  0  0  0  0  0  0  0
  197.2600  175.0900  135.4100 C   0  0  0  0  0  0  0  0  0  0  0  0
  197.5520  174.7210  136.8520 C   0  0  0  0  0  0  0  0  0  0  0  0
  196.5640  173.7850  135.1060 C   0  0  1  0  0  3  0  0  0  0  0  0
  196.8180  173.4190  136.5400 C   0  0  1  0  0  3  0  0  0  0  0  0
  197.6880  172.1520  136.6640 C   0  0  0  0  0  0  0  0  0  0  0  0
  197.5630  171.2240  135.4720 C   0  0  0  0  0  2  0  0  0  0  0  0
  197.1620  171.0620  137.5820 C   0  0  0  0  0  2  0  0  0  0  0  0
  197.0500  170.1270  136.3890 C   0  0  0  0  0  2  0  0  0  0  0  0
  199.0120  172.4480  136.9290 F   0  0  0  0  0  0  0  0  0  0  0  0
  1 29  1  6  0  0  0
  1  3  1  0  0  0  0
  2  9  1  0  0  0  0
  3 16  1  1  0  0  0
  4 10  1  6  0  0  0
  4  7  1  0  0  0  0
  4 14  1  0  0  0  0
  5  2  1  6  0  0  0
  6 15  1  0  0  0  0
  7  5  1  0  0  0  0
  8 12  1  0  0  0  0
 11 40  1  1  0  0  0
 11  9  1  0  0  0  0
 11  6  1  0  0  0  0
 13 14  1  0  0  0  0
 13  5  1  0  0  0  0
 13  8  1  1  0  0  0
 14  1  1  0  0  0  0
 14  3  1  0  0  0  0
 15 12  1  0  0  0  0
 16 17  2  0  0  0  0
 17 18  1  0  0  0  0
 18 19  2  0  0  0  0
 19 20  1  0  0  0  0
 20 21  1  0  0  0  0
 21 24  1  0  0  0  0
 23 22  1  0  0  0  0
 24 26  1  0  0  0  0
 24 23  1  0  0  0  0
 24 22  1  0  0  0  0
 25 26  1  0  0  0  0
 26 28  1  0  0  0  0
 27 26  2  0  0  0  0
 29 32  1  0  0  0  0
 30 32  1  0  0  0  0
 30 33  1  0  0  0  0
 31 30  2  0  0  0  0
 33 39  2  0  0  0  0
 33 37  1  0  0  0  0
 35 36  1  0  0  0  0
 36 34  1  0  0  0  0
 37 35  2  0  0  0  0
 38 36  2  0  0  0  0
 39 38  1  0  0  0  0
 41 47  1  0  0  0  0
 41 40  1  0  0  0  0
 42 45  1  0  0  0  0
 43 45  1  0  0  0  0
 45 46  1  0  0  0  0
 46 44  2  0  0  0  0
 47 45  1  0  0  0  0
 47 48  1  0  0  0  0
 48 49  1  0  0  0  0
 48 46  1  0  0  0  0
 49 53  1  0  0  0  0
 49 51  1  0  0  0  0
 50 52  1  0  0  0  0
 50 49  1  0  0  0  0
 52 51  1  0  0  0  0
M  END
>  <MODEL>
7

>  <REMARK>
 VINA RESULT:      -7.0      4.767     11.547
  Name = 
  13 active torsions:
  status: ('A' for Active; 'I' for Inactive)
    1  A    between atoms: C_3  and  C_17
    2  A    between atoms: C_4  and  C_10
    3  A    between atoms: C_5  and  C_26
    4  A    between atoms: C_6  and  C_53
    5  A    between atoms: P_8  and  C_48
    6  A    between atoms: C_14  and  C_33
    7  A    between atoms: C_18  and  C_50
    8  A    between atoms: C_26  and  N_43
    9  A    between atoms: C_30  and  C_37
   10  A    between atoms: C_30  and  O_52
   11  A    between atoms: C_47  and  C_48
   12  A    between atoms: C_47  and  C_50
   13  A    between atoms: C_49  and  O_52
                            x       y       z     vdW  Elec       q    Type
                         _______ _______ _______ _____ _____    ______ ____

>  <TORSDO>
F 13

$$$$
=
 OpenBabel10222416503D

 53 59  0  0  1  0  0  0  0  0999 V2000
  188.0110  176.6400  137.9550 C   0  0  1  0  0  3  0  0  0  0  0  0
  188.4750  177.9870  142.8030 C   0  0  0  0  0  2  0  0  0  0  0  0
  188.7900  177.9550  137.9000 C   0  0  1  0  0  3  0  0  0  0  0  0
  186.9550  178.5670  139.5050 C   0  0  2  0  0  3  0  0  0  0  0  0
  188.6140  178.3660  141.3400 C   0  0  2  0  0  3  0  0  0  0  0  0
  191.5450  176.8220  143.4540 C   0  0  0  0  0  2  0  0  0  0  0  0
  187.3710  179.1250  140.8660 C   0  0  0  0  0  2  0  0  0  0  0  0
  190.0730  176.4120  140.4160 C   0  0  0  0  0  2  0  0  0  0  0  0
  189.6630  178.2880  143.4750 O   0  0  0  0  0  0  0  0  0  0  0  0
  185.7240  177.9260  139.6450 O   0  0  0  0  0  1  0  0  0  0  0  0
  190.1310  177.0670  143.9680 C   0  0  2  0  0  3  0  0  0  0  0  0
  191.0580  177.1090  141.1240 O   0  0  0  0  0  0  0  0  0  0  0  0
  188.7140  177.1260  140.4660 C   0  0  2  0  0  3  0  0  0  0  0  0
  188.0350  177.5560  139.1730 C   0  0  1  0  0  0  0  0  0  0  0  0
  191.5230  176.1920  142.0690 C   0  0  0  0  0  2  0  0  0  0  0  0
  190.2490  177.6640  137.8680 C   0  0  0  0  0  3  0  0  0  0  0  0
  190.7190  176.6930  137.0990 C   0  0  0  0  0  3  0  0  0  0  0  0
  192.1510  176.4280  137.0630 C   0  0  0  0  0  3  0  0  0  0  0  0
  192.6690  175.7180  136.0730 C   0  0  0  0  0  3  0  0  0  0  0  0
  194.1320  175.4570  136.0350 C   0  0  0  0  0  2  0  0  0  0  0  0
  194.6740  175.4050  137.4500 C   0  0  0  0  0  2  0  0  0  0  0  0
  195.5130  173.2400  138.4980 C   0  0  0  0  0  2  0  0  0  0  0  0
  195.3910  173.0890  137.0980 O   0  0  0  0  0  0  0  0  0  0  0  0
  195.7660  174.3550  137.5720 C   0  0  1  0  0  0  0  0  0  0  0  0
  197.5870  175.9870  136.0800 O   0  0  0  0  0  0  0  0  0  0  0  0
  197.5100  174.7670  137.2490 P   0  0  0  0  0  0  0  0  0  0  0  0
  198.1740  175.2490  138.5190 O   0  0  0  0  0  1  0  0  0  0  0  0
  198.3210  173.3960  136.6820 O   0  0  0  0  0  1  0  0  0  0  0  0
  186.7320  176.7690  137.1390 C   0  0  0  0  0  2  0  0  0  0  0  0
  184.8140  175.1150  137.1420 C   0  0  0  0  0  0  0  0  0  0  0  0
  184.0510  175.9640  137.6810 O   0  0  0  0  0  0  0  0  0  0  0  0
  186.1760  175.4530  136.8630 N   0  0  0  0  0  2  0  0  0  0  0  0
  184.3030  173.7740  136.8090 C   0  0  0  0  0  0  0  0  0  0  0  0
  182.7190  169.6290  135.7660 Cl  0  0  0  0  0  0  0  0  0  0  0  0
  184.6980  171.4860  136.0850 C   0  0  0  0  0  3  0  0  0  0  0  0
  183.3280  171.2220  136.1650 C   0  0  0  0  0  0  0  0  0  0  0  0
  185.1840  172.7580  136.4070 C   0  0  0  0  0  3  0  0  0  0  0  0
  182.4430  172.2280  136.5610 C   0  0  0  0  0  3  0  0  0  0  0  0
  182.9280  173.5010  136.8790 C   0  0  0  0  0  3  0  0  0  0  0  0
  190.1380  177.1190  145.4860 C   0  0  0  0  0  2  0  0  0  0  0  0
  189.4140  178.2260  145.9320 O   0  0  0  0  0  0  0  0  0  0  0  0
  189.1890  178.6350  148.6030 C   0  0  0  0  0  1  0  0  0  0  0  0
  187.5630  176.7230  148.6320 C   0  0  0  0  0  1  0  0  0  0  0  0
  186.1230  179.6130  148.3560 O   0  0  0  0  0  0  0  0  0  0  0  0
  188.0170  177.9680  147.8900 C   0  0  0  0  0  0  0  0  0  0  0  0
  186.8720  178.9370  147.6680 C   0  0  0  0  0  0  0  0  0  0  0  0
  188.2130  177.6960  146.4180 C   0  0  1  0  0  3  0  0  0  0  0  0
  187.1010  178.6790  146.1810 C   0  0  1  0  0  3  0  0  0  0  0  0
  185.9070  178.0290  145.4560 C   0  0  0  0  0  0  0  0  0  0  0  0
  185.4820  178.7820  144.2110 C   0  0  0  0  0  2  0  0  0  0  0  0
  184.5380  178.2580  146.0750 C   0  0  0  0  0  2  0  0  0  0  0  0
  184.1080  179.0020  144.8220 C   0  0  0  0  0  2  0  0  0  0  0  0
  186.1240  176.6910  145.1800 F   0  0  0  0  0  0  0  0  0  0  0  0
  1 29  1  6  0  0  0
  1 14  1  0  0  0  0
  2  9  1  0  0  0  0
  3 16  1  1  0  0  0
  3  1  1  0  0  0  0
  3 14  1  0  0  0  0
  4 10  1  1  0  0  0
  4  7  1  0  0  0  0
  5  7  1  6  0  0  0
  5  2  1  0  0  0  0
  6 11  1  0  0  0  0
  8 12  1  0  0  0  0
  9 11  1  0  0  0  0
 11 40  1  1  0  0  0
 12 15  1  0  0  0  0
 13  8  1  6  0  0  0
 13  5  1  0  0  0  0
 14  4  1  0  0  0  0
 14 13  1  0  0  0  0
 15  6  1  0  0  0  0
 17 16  2  0  0  0  0
 18 17  1  0  0  0  0
 19 18  2  0  0  0  0
 20 19  1  0  0  0  0
 20 21  1  0  0  0  0
 21 24  1  0  0  0  0
 23 24  1  0  0  0  0
 23 22  1  0  0  0  0
 24 22  1  0  0  0  0
 25 26  2  0  0  0  0
 26 24  1  0  0  0  0
 26 27  1  0  0  0  0
 28 26  1  0  0  0  0
 30 31  2  0  0  0  0
 32 29  1  0  0  0  0
 32 30  1  0  0  0  0
 33 39  1  0  0  0  0
 33 30  1  0  0  0  0
 34 36  1  0  0  0  0
 35 36  2  0  0  0  0
 35 37  1  0  0  0  0
 36 38  1  0  0  0  0
 37 33  2  0  0  0  0
 38 39  2  0  0  0  0
 40 41  1  0  0  0  0
 41 47  1  0  0  0  0
 45 42  1  0  0  0  0
 45 43  1  0  0  0  0
 46 45  1  0  0  0  0
 46 44  2  0  0  0  0
 47 45  1  0  0  0  0
 48 47  1  0  0  0  0
 48 46  1  0  0  0  0
 49 51  1  0  0  0  0
 49 48  1  0  0  0  0
 50 52  1  0  0  0  0
 50 49  1  0  0  0  0
 52 51  1  0  0  0  0
 53 49  1  0  0  0  0
M  END
>  <MODEL>
8

>  <REMARK>
 VINA RESULT:      -6.9      4.586      9.032
  Name = 
  13 active torsions:
  status: ('A' for Active; 'I' for Inactive)
    1  A    between atoms: C_3  and  C_17
    2  A    between atoms: C_4  and  C_10
    3  A    between atoms: C_5  and  C_26
    4  A    between atoms: C_6  and  C_53
    5  A    between atoms: P_8  and  C_48
    6  A    between atoms: C_14  and  C_33
    7  A    between atoms: C_18  and  C_50
    8  A    between atoms: C_26  and  N_43
    9  A    between atoms: C_30  and  C_37
   10  A    between atoms: C_30  and  O_52
   11  A    between atoms: C_47  and  C_48
   12  A    between atoms: C_47  and  C_50
   13  A    between atoms: C_49  and  O_52
                            x       y       z     vdW  Elec       q    Type
                         _______ _______ _______ _____ _____    ______ ____

>  <TORSDO>
F 13

$$$$
=
 OpenBabel10222416503D

 53 59  0  0  1  0  0  0  0  0999 V2000
  188.0540  175.6610  135.6490 C   0  0  1  0  0  3  0  0  0  0  0  0
  187.5420  178.1530  140.0150 C   0  0  0  0  0  2  0  0  0  0  0  0
  188.8320  176.9600  135.4270 C   0  0  1  0  0  3  0  0  0  0  0  0
  186.7150  177.8540  136.4450 C   0  0  2  0  0  3  0  0  0  0  0  0
  187.9720  178.1760  138.5600 C   0  0  2  0  0  3  0  0  0  0  0  0
  190.4180  177.3210  141.5160 C   0  0  0  0  0  2  0  0  0  0  0  0
  186.8520  178.7400  137.6820 C   0  0  0  0  0  2  0  0  0  0  0  0
  189.5820  176.1260  138.4430 C   0  0  0  0  0  2  0  0  0  0  0  0
  188.5730  178.6610  140.8110 O   0  0  0  0  0  0  0  0  0  0  0  0
  185.4790  177.2080  136.4950 O   0  0  0  0  0  1  0  0  0  0  0  0
  188.9300  177.6170  141.6690 C   0  0  2  0  0  3  0  0  0  0  0  0
  190.4060  177.0180  139.1380 O   0  0  0  0  0  0  0  0  0  0  0  0
  188.2420  176.7680  138.0530 C   0  0  2  0  0  3  0  0  0  0  0  0
  187.8370  176.8430  136.5870 C   0  0  1  0  0  0  0  0  0  0  0  0
  190.6710  176.3780  140.3490 C   0  0  0  0  0  2  0  0  0  0  0  0
  190.2670  176.7380  135.7510 C   0  0  0  0  0  3  0  0  0  0  0  0
  190.9810  175.8650  135.0560 C   0  0  0  0  0  3  0  0  0  0  0  0
  192.3900  175.6680  135.3710 C   0  0  0  0  0  3  0  0  0  0  0  0
  192.8220  175.8390  136.6100 C   0  0  0  0  0  3  0  0  0  0  0  0
  194.2590  175.6270  136.9290 C   0  0  0  0  0  2  0  0  0  0  0  0
  194.5170  174.1490  137.1450 C   0  0  0  0  0  2  0  0  0  0  0  0
  196.0360  172.3950  136.0950 C   0  0  0  0  0  2  0  0  0  0  0  0
  195.9280  173.5190  135.2440 O   0  0  0  0  0  0  0  0  0  0  0  0
  195.8900  173.7600  136.6260 C   0  0  1  0  0  0  0  0  0  0  0  0
  197.1990  174.8780  138.9150 O   0  0  0  0  0  1  0  0  0  0  0  0
  197.4000  174.5490  137.2690 P   0  0  0  0  0  0  0  0  0  0  0  0
  198.5870  173.6310  137.0830 O   0  0  0  0  0  1  0  0  0  0  0  0
  197.6810  175.9960  136.4400 O   0  0  0  0  0  0  0  0  0  0  0  0
  186.9640  175.5320  134.5940 C   0  0  0  0  0  2  0  0  0  0  0  0
  185.5670  173.5640  135.3600 C   0  0  0  0  0  0  0  0  0  0  0  0
  186.4510  172.7520  134.9680 O   0  0  0  0  0  0  0  0  0  0  0  0
  185.7580  174.9710  135.1820 N   0  0  0  0  0  2  0  0  0  0  0  0
  184.3360  173.0600  135.9940 C   0  0  0  0  0  0  0  0  0  0  0  0
  180.5200  171.5030  137.9420 Cl  0  0  0  0  0  0  0  0  0  0  0  0
  182.8960  171.2040  136.6260 C   0  0  0  0  0  3  0  0  0  0  0  0
  181.9860  172.1000  137.1920 C   0  0  0  0  0  0  0  0  0  0  0  0
  184.0690  171.6820  136.0310 C   0  0  0  0  0  3  0  0  0  0  0  0
  182.2420  173.4740  137.1570 C   0  0  0  0  0  3  0  0  0  0  0  0
  183.4110  173.9520  136.5580 C   0  0  0  0  0  3  0  0  0  0  0  0
  188.6330  178.0320  143.1000 C   0  0  0  0  0  2  0  0  0  0  0  0
  187.3490  177.6190  143.4630 O   0  0  0  0  0  0  0  0  0  0  0  0
  184.7130  178.2530  143.4640 C   0  0  0  0  0  1  0  0  0  0  0  0
  185.3050  180.1780  144.9620 C   0  0  0  0  0  1  0  0  0  0  0  0
  184.3800  177.5350  146.5940 O   0  0  0  0  0  0  0  0  0  0  0  0
  185.5500  178.7110  144.6540 C   0  0  0  0  0  0  0  0  0  0  0  0
  185.3170  177.8370  145.8720 C   0  0  0  0  0  0  0  0  0  0  0  0
  187.0250  178.3980  144.5790 C   0  0  1  0  0  3  0  0  0  0  0  0
  186.8030  177.5030  145.7650 C   0  0  1  0  0  3  0  0  0  0  0  0
  187.6440  177.9430  146.9800 C   0  0  0  0  0  0  0  0  0  0  0  0
  189.1020  178.1800  146.6430 C   0  0  0  0  0  2  0  0  0  0  0  0
  188.0360  176.8480  147.9580 C   0  0  0  0  0  2  0  0  0  0  0  0
  189.4990  177.0950  147.6300 C   0  0  0  0  0  2  0  0  0  0  0  0
  187.0970  179.0350  147.6290 F   0  0  0  0  0  0  0  0  0  0  0  0
  1 29  1  6  0  0  0
  1 14  1  0  0  0  0
  2  9  1  0  0  0  0
  3  1  1  0  0  0  0
  3 16  1  1  0  0  0
  3 14  1  0  0  0  0
  4 10  1  1  0  0  0
  4 14  1  0  0  0  0
  4  7  1  0  0  0  0
  5  7  1  6  0  0  0
  5  2  1  0  0  0  0
  6 11  1  0  0  0  0
  8 12  1  0  0  0  0
  9 11  1  0  0  0  0
 11 40  1  1  0  0  0
 12 15  1  0  0  0  0
 13  8  1  6  0  0  0
 13  5  1  0  0  0  0
 14 13  1  0  0  0  0
 15  6  1  0  0  0  0
 17 18  1  0  0  0  0
 17 16  2  0  0  0  0
 18 19  2  0  0  0  0
 19 20  1  0  0  0  0
 20 21  1  0  0  0  0
 22 24  1  0  0  0  0
 23 22  1  0  0  0  0
 23 24  1  0  0  0  0
 24 21  1  0  0  0  0
 24 26  1  0  0  0  0
 26 25  1  0  0  0  0
 27 26  1  0  0  0  0
 28 26  2  0  0  0  0
 29 32  1  0  0  0  0
 30 33  1  0  0  0  0
 31 30  2  0  0  0  0
 32 30  1  0  0  0  0
 33 37  2  0  0  0  0
 33 39  1  0  0  0  0
 35 36  2  0  0  0  0
 36 34  1  0  0  0  0
 37 35  1  0  0  0  0
 38 36  1  0  0  0  0
 39 38  2  0  0  0  0
 40 41  1  0  0  0  0
 41 47  1  0  0  0  0
 42 45  1  0  0  0  0
 45 43  1  0  0  0  0
 45 46  1  0  0  0  0
 46 44  2  0  0  0  0
 47 45  1  0  0  0  0
 47 48  1  0  0  0  0
 48 46  1  0  0  0  0
 48 49  1  0  0  0  0
 49 53  1  0  0  0  0
 49 51  1  0  0  0  0
 50 49  1  0  0  0  0
 50 52  1  0  0  0  0
 52 51  1  0  0  0  0
M  END
>  <MODEL>
9

>  <REMARK>
 VINA RESULT:      -6.7      4.935      9.118
  Name = 
  13 active torsions:
  status: ('A' for Active; 'I' for Inactive)
    1  A    between atoms: C_3  and  C_17
    2  A    between atoms: C_4  and  C_10
    3  A    between atoms: C_5  and  C_26
    4  A    between atoms: C_6  and  C_53
    5  A    between atoms: P_8  and  C_48
    6  A    between atoms: C_14  and  C_33
    7  A    between atoms: C_18  and  C_50
    8  A    between atoms: C_26  and  N_43
    9  A    between atoms: C_30  and  C_37
   10  A    between atoms: C_30  and  O_52
   11  A    between atoms: C_47  and  C_48
   12  A    between atoms: C_47  and  C_50
   13  A    between atoms: C_49  and  O_52
                            x       y       z     vdW  Elec       q    Type
                         _______ _______ _______ _____ _____    ______ ____

>  <TORSDO>
F 13

$$$$
