=
 OpenBabel10222420473D

 39 44  0  0  1  0  0  0  0  0999 V2000
  186.6340  178.0250  144.5830 C   0  0  0  0  0  3  0  0  0  0  0  0
  184.1210  178.6780  143.6160 C   0  0  0  0  0  0  0  0  0  0  0  0
  184.8720  178.4160  141.3240 C   0  0  0  0  0  3  0  0  0  0  0  0
  185.5810  178.3170  145.4490 C   0  0  0  0  0  0  0  0  0  0  0  0
  182.8380  178.9860  143.1550 C   0  0  0  0  0  3  0  0  0  0  0  0
  182.5640  179.0140  141.7850 C   0  0  0  0  0  0  0  0  0  0  0  0
  186.4480  178.0690  143.1950 C   0  0  0  0  0  0  0  0  0  0  0  0
  184.3570  178.6320  144.9510 N   0  0  0  0  0  0  0  0  0  0  0  0
  183.5870  178.7270  140.8710 C   0  0  0  0  0  3  0  0  0  0  0  0
  185.1610  178.3950  142.6960 C   0  0  0  0  0  0  0  0  0  0  0  0
  189.8620  177.1760  140.7050 C   0  0  0  0  0  0  0  0  0  0  0  0
  187.8170  178.4350  141.1130 C   0  0  0  0  0  3  0  0  0  0  0  0
  189.0710  178.8850  139.0880 N   0  0  0  0  0  1  0  0  0  0  0  0
  189.6560  176.5100  141.9220 C   0  0  0  0  0  3  0  0  0  0  0  0
  188.9220  178.1560  140.3040 C   0  0  0  0  0  0  0  0  0  0  0  0
  187.6100  177.7580  142.3210 C   0  0  0  0  0  0  0  0  0  0  0  0
  188.5490  176.7980  142.7220 C   0  0  0  0  0  3  0  0  0  0  0  0
  190.9980  175.8210  138.8840 N   0  0  0  0  0  1  0  0  0  0  0  0
  192.1570  177.3900  140.1190 O   0  0  0  0  0  0  0  0  0  0  0  0
  191.0570  176.8150  139.9020 C   0  0  0  0  0  0  0  0  0  0  0  0
  181.2690  179.3210  141.3620 O   0  0  0  0  0  0  0  0  0  0  0  0
  180.2070  179.6040  142.2710 C   0  0  2  0  0  3  0  0  0  0  0  0
  178.9310  179.1030  141.8270 C   0  0  1  0  0  3  0  0  0  0  0  0
  179.2330  180.5890  141.6180 C   0  0  0  0  0  0  0  0  0  0  0  0
  178.9400  181.7000  141.2090 O   0  0  0  0  0  0  0  0  0  0  0  0
  179.1590  176.3770  139.2180 O   0  0  0  0  0  0  0  0  0  0  0  0
  179.0950  176.9870  140.4620 C   0  0  0  0  0  0  0  0  0  0  0  0
  179.0050  178.4090  140.5480 N   0  0  0  0  0  2  0  0  0  0  0  0
  179.1150  176.2810  141.5050 O   0  0  0  0  0  1  0  0  0  0  0  0
  185.7860  178.2350  146.9240 C   0  0  0  0  0  2  0  0  0  0  0  0
  187.2270  178.0190  147.2370 C   0  0  0  0  0  0  0  0  0  0  0  0
  187.7380  178.3970  148.4840 C   0  0  0  0  0  3  0  0  0  0  0  0
  189.4410  177.2940  146.5490 C   0  0  0  0  0  0  0  0  0  0  0  0
  189.0930  178.2090  148.7700 C   0  0  0  0  0  3  0  0  0  0  0  0
  188.0770  177.4650  146.2740 C   0  0  0  0  0  3  0  0  0  0  0  0
  189.9410  177.6550  147.8080 C   0  0  0  0  0  3  0  0  0  0  0  0
  190.3470  176.6650  145.5360 C   0  0  2  0  0  3  0  0  0  0  0  0
  191.7400  176.7300  145.9760 C   0  0  0  0  0  2  0  0  0  0  0  0
  191.2510  177.6810  144.9690 N   0  0  0  0  0  2  0  0  0  0  0  0
  1  4  1  0  0  0  0
  2  8  1  0  0  0  0
  3 10  1  0  0  0  0
  4 30  1  0  0  0  0
  5  2  1  0  0  0  0
  6  5  2  0  0  0  0
  7  1  2  0  0  0  0
  8  4  2  0  0  0  0
  9  3  2  0  0  0  0
  9  6  1  0  0  0  0
 10  7  1  0  0  0  0
 10  2  2  0  0  0  0
 11 14  1  0  0  0  0
 12 16  2  0  0  0  0
 13 15  1  0  0  0  0
 14 17  2  0  0  0  0
 15 11  2  0  0  0  0
 15 12  1  0  0  0  0
 16 17  1  0  0  0  0
 16  7  1  0  0  0  0
 18 20  1  0  0  0  0
 20 19  2  0  0  0  0
 20 11  1  0  0  0  0
 21  6  1  0  0  0  0
 22 21  1  6  0  0  0
 23 28  1  6  0  0  0
 23 22  1  0  0  0  0
 24 23  1  0  0  0  0
 24 22  1  0  0  0  0
 25 24  2  0  0  0  0
 26 27  2  0  0  0  0
 27 28  1  0  0  0  0
 27 29  1  0  0  0  0
 30 31  1  0  0  0  0
 31 32  1  0  0  0  0
 32 34  2  0  0  0  0
 33 36  2  0  0  0  0
 35 33  1  0  0  0  0
 35 31  2  0  0  0  0
 36 34  1  0  0  0  0
 37 38  1  0  0  0  0
 37 33  1  1  0  0  0
 39 37  1  0  0  0  0
 39 38  1  0  0  0  0
M  END
>  <MODEL>
1

>  <REMARK>
 VINA RESULT:     -10.9      0.000      0.000
  Name = 
  8 active torsions:
  status: ('A' for Active; 'I' for Inactive)
    1  A    between atoms: C_3  and  C_37
    2  A    between atoms: O_5  and  C_7
    3  A    between atoms: O_5  and  C_30
    4  A    between atoms: C_6  and  C_8
    5  A    between atoms: C_11  and  N_25
    6  A    between atoms: C_16  and  C_19
    7  A    between atoms: C_24  and  C_37
    8  A    between atoms: C_29  and  C_31
                            x       y       z     vdW  Elec       q    Type
                         _______ _______ _______ _____ _____    ______ ____

>  <TORSDO>
F 8

$$$$
=
 OpenBabel10222420473D

 39 44  0  0  1  0  0  0  0  0999 V2000
  189.4470  178.2740  143.0150 C   0  0  0  0  0  3  0  0  0  0  0  0
  190.8870  177.3220  140.8470 C   0  0  0  0  0  0  0  0  0  0  0  0
  188.8780  177.2050  139.4910 C   0  0  0  0  0  3  0  0  0  0  0  0
  190.8270  178.0870  143.0900 C   0  0  0  0  0  0  0  0  0  0  0  0
  191.6400  176.8670  139.7610 C   0  0  0  0  0  3  0  0  0  0  0  0
  191.0230  176.5760  138.5420 C   0  0  0  0  0  0  0  0  0  0  0  0
  188.7510  177.9690  141.8370 C   0  0  0  0  0  0  0  0  0  0  0  0
  191.5110  177.6220  142.0130 N   0  0  0  0  0  0  0  0  0  0  0  0
  189.6380  176.7480  138.4110 C   0  0  0  0  0  3  0  0  0  0  0  0
  189.4850  177.4890  140.7240 C   0  0  0  0  0  0  0  0  0  0  0  0
  184.4680  178.5190  141.7920 C   0  0  0  0  0  0  0  0  0  0  0  0
  186.6440  178.7960  140.7330 C   0  0  0  0  0  3  0  0  0  0  0  0
  184.6770  179.6080  139.5720 N   0  0  0  0  0  1  0  0  0  0  0  0
  185.1080  177.8910  142.8700 C   0  0  0  0  0  3  0  0  0  0  0  0
  185.2580  178.9740  140.7090 C   0  0  0  0  0  0  0  0  0  0  0  0
  187.2790  178.1790  141.8190 C   0  0  0  0  0  0  0  0  0  0  0  0
  186.4930  177.7190  142.8840 C   0  0  0  0  0  3  0  0  0  0  0  0
  182.1460  178.1300  140.8410 N   0  0  0  0  0  1  0  0  0  0  0  0
  182.4640  179.3060  142.8030 O   0  0  0  0  0  0  0  0  0  0  0  0
  182.9920  178.6750  141.8480 C   0  0  0  0  0  0  0  0  0  0  0  0
  191.8090  176.1290  137.4770 O   0  0  0  0  0  0  0  0  0  0  0  0
  191.7880  174.7790  137.0160 C   0  0  2  0  0  3  0  0  0  0  0  0
  193.0280  174.0810  137.2470 C   0  0  1  0  0  3  0  0  0  0  0  0
  192.7610  174.6310  135.8430 C   0  0  0  0  0  0  0  0  0  0  0  0
  193.0880  174.8320  134.6860 O   0  0  0  0  0  0  0  0  0  0  0  0
  196.0170  175.1730  139.2880 O   0  0  0  0  0  1  0  0  0  0  0  0
  195.0860  174.3400  138.6840 C   0  0  0  0  0  0  0  0  0  0  0  0
  194.0310  174.9070  137.9080 N   0  0  0  0  0  2  0  0  0  0  0  0
  195.1810  173.0930  138.8250 O   0  0  0  0  0  0  0  0  0  0  0  0
  191.5590  178.4460  144.3390 C   0  0  0  0  0  2  0  0  0  0  0  0
  191.0590  177.6350  145.4860 C   0  0  0  0  0  0  0  0  0  0  0  0
  191.9080  176.7250  146.1240 C   0  0  0  0  0  3  0  0  0  0  0  0
  189.2440  176.9760  146.9600 C   0  0  0  0  0  0  0  0  0  0  0  0
  191.4330  175.9530  147.1880 C   0  0  0  0  0  3  0  0  0  0  0  0
  189.7310  177.7630  145.9070 C   0  0  0  0  0  3  0  0  0  0  0  0
  190.1060  176.0810  147.6080 C   0  0  0  0  0  3  0  0  0  0  0  0
  187.8340  177.1370  147.4380 C   0  0  2  0  0  3  0  0  0  0  0  0
  187.1650  178.2220  146.7210 C   0  0  0  0  0  2  0  0  0  0  0  0
  187.6670  178.4530  148.0810 N   0  0  0  0  0  2  0  0  0  0  0  0
  1  4  1  0  0  0  0
  2  8  1  0  0  0  0
  3 10  2  0  0  0  0
  4 30  1  0  0  0  0
  5  2  2  0  0  0  0
  6  5  1  0  0  0  0
  7  1  2  0  0  0  0
  8  4  2  0  0  0  0
  9  6  2  0  0  0  0
  9  3  1  0  0  0  0
 10  2  1  0  0  0  0
 10  7  1  0  0  0  0
 11 20  1  0  0  0  0
 11 14  1  0  0  0  0
 12 16  2  0  0  0  0
 13 15  1  0  0  0  0
 14 17  2  0  0  0  0
 15 12  1  0  0  0  0
 15 11  2  0  0  0  0
 16  7  1  0  0  0  0
 16 17  1  0  0  0  0
 18 20  1  0  0  0  0
 20 19  2  0  0  0  0
 21  6  1  0  0  0  0
 22 23  1  0  0  0  0
 22 21  1  1  0  0  0
 23 28  1  1  0  0  0
 24 22  1  0  0  0  0
 24 23  1  0  0  0  0
 25 24  2  0  0  0  0
 27 29  2  0  0  0  0
 27 26  1  0  0  0  0
 28 27  1  0  0  0  0
 30 31  1  0  0  0  0
 31 35  2  0  0  0  0
 31 32  1  0  0  0  0
 32 34  2  0  0  0  0
 33 36  2  0  0  0  0
 34 36  1  0  0  0  0
 35 33  1  0  0  0  0
 37 33  1  6  0  0  0
 37 39  1  0  0  0  0
 38 37  1  0  0  0  0
 38 39  1  0  0  0  0
M  END
>  <MODEL>
2

>  <REMARK>
 VINA RESULT:     -10.5      2.712      8.974
  Name = 
  8 active torsions:
  status: ('A' for Active; 'I' for Inactive)
    1  A    between atoms: C_3  and  C_37
    2  A    between atoms: O_5  and  C_7
    3  A    between atoms: O_5  and  C_30
    4  A    between atoms: C_6  and  C_8
    5  A    between atoms: C_11  and  N_25
    6  A    between atoms: C_16  and  C_19
    7  A    between atoms: C_24  and  C_37
    8  A    between atoms: C_29  and  C_31
                            x       y       z     vdW  Elec       q    Type
                         _______ _______ _______ _____ _____    ______ ____

>  <TORSDO>
F 8

$$$$
=
 OpenBabel10222420473D

 39 44  0  0  1  0  0  0  0  0999 V2000
  188.9000  178.1020  141.0840 C   0  0  0  0  0  3  0  0  0  0  0  0
  186.1630  178.5320  141.0180 C   0  0  0  0  0  0  0  0  0  0  0  0
  185.9970  178.2170  143.4180 C   0  0  0  0  0  3  0  0  0  0  0  0
  188.2430  178.3870  139.8880 C   0  0  0  0  0  0  0  0  0  0  0  0
  184.7890  178.7760  140.9600 C   0  0  0  0  0  3  0  0  0  0  0  0
  184.0120  178.7410  142.1210 C   0  0  0  0  0  0  0  0  0  0  0  0
  188.1840  178.0120  142.2860 C   0  0  0  0  0  0  0  0  0  0  0  0
  186.9010  178.5960  139.8810 N   0  0  0  0  0  0  0  0  0  0  0  0
  184.6230  178.4610  143.3510 C   0  0  0  0  0  3  0  0  0  0  0  0
  186.7850  178.2390  142.2570 C   0  0  0  0  0  0  0  0  0  0  0  0
  190.3930  177.0420  145.8680 C   0  0  0  0  0  0  0  0  0  0  0  0
  188.2880  177.5740  144.7640 C   0  0  0  0  0  3  0  0  0  0  0  0
  188.2700  177.1470  147.1500 N   0  0  0  0  0  1  0  0  0  0  0  0
  191.0350  177.1530  144.6260 C   0  0  0  0  0  3  0  0  0  0  0  0
  188.9940  177.2560  145.9270 C   0  0  0  0  0  0  0  0  0  0  0  0
  188.9370  177.6950  143.5290 C   0  0  0  0  0  0  0  0  0  0  0  0
  190.3190  177.4710  143.4710 C   0  0  0  0  0  3  0  0  0  0  0  0
  191.8870  175.4560  147.1710 N   0  0  0  0  0  1  0  0  0  0  0  0
  191.3350  177.5430  147.9940 O   0  0  0  0  0  0  0  0  0  0  0  0
  191.2180  176.7080  147.0560 C   0  0  0  0  0  0  0  0  0  0  0  0
  182.6420  178.9960  142.0250 O   0  0  0  0  0  0  0  0  0  0  0  0
  181.7470  178.8300  143.1230 C   0  0  2  0  0  3  0  0  0  0  0  0
  180.4950  178.2230  142.7470 C   0  0  1  0  0  3  0  0  0  0  0  0
  180.5340  179.7430  142.9280 C   0  0  0  0  0  0  0  0  0  0  0  0
  180.0090  180.8440  142.9000 O   0  0  0  0  0  0  0  0  0  0  0  0
  179.6650  176.5160  139.4780 O   0  0  0  0  0  0  0  0  0  0  0  0
  179.7080  176.7670  140.8410 C   0  0  0  0  0  0  0  0  0  0  0  0
  180.4200  177.9060  141.3260 N   0  0  0  0  0  2  0  0  0  0  0  0
  179.1180  175.9920  141.6380 O   0  0  0  0  0  1  0  0  0  0  0  0
  189.0220  178.5100  138.6230 C   0  0  0  0  0  2  0  0  0  0  0  0
  189.3650  177.1600  138.0890 C   0  0  0  0  0  0  0  0  0  0  0  0
  188.3580  176.3260  137.5950 C   0  0  0  0  0  3  0  0  0  0  0  0
  191.0160  175.4350  137.6440 C   0  0  0  0  0  0  0  0  0  0  0  0
  188.6780  175.0550  137.1110 C   0  0  0  0  0  3  0  0  0  0  0  0
  190.6920  176.7170  138.1090 C   0  0  0  0  0  3  0  0  0  0  0  0
  190.0040  174.6120  137.1300 C   0  0  0  0  0  3  0  0  0  0  0  0
  192.4390  174.9710  137.6270 C   0  0  2  0  0  3  0  0  0  0  0  0
  193.3490  176.0810  137.9110 C   0  0  0  0  0  2  0  0  0  0  0  0
  193.1700  175.6240  136.5270 N   0  0  0  0  0  2  0  0  0  0  0  0
  1  7  1  0  0  0  0
  2 10  1  0  0  0  0
  4  1  2  0  0  0  0
  5  2  1  0  0  0  0
  5  6  2  0  0  0  0
  6  9  1  0  0  0  0
  7 16  1  0  0  0  0
  8  4  1  0  0  0  0
  8  2  2  0  0  0  0
  9  3  2  0  0  0  0
 10  7  2  0  0  0  0
 10  3  1  0  0  0  0
 11 15  1  0  0  0  0
 11 20  1  0  0  0  0
 12 15  2  0  0  0  0
 14 11  2  0  0  0  0
 15 13  1  0  0  0  0
 16 12  1  0  0  0  0
 17 16  2  0  0  0  0
 17 14  1  0  0  0  0
 20 18  1  0  0  0  0
 20 19  2  0  0  0  0
 21  6  1  0  0  0  0
 22 21  1  6  0  0  0
 23 28  1  6  0  0  0
 23 24  1  0  0  0  0
 23 22  1  0  0  0  0
 24 22  1  0  0  0  0
 25 24  2  0  0  0  0
 26 27  2  0  0  0  0
 27 28  1  0  0  0  0
 27 29  1  0  0  0  0
 30  4  1  0  0  0  0
 31 35  1  0  0  0  0
 31 30  1  0  0  0  0
 32 31  2  0  0  0  0
 33 35  2  0  0  0  0
 34 36  2  0  0  0  0
 34 32  1  0  0  0  0
 36 33  1  0  0  0  0
 37 33  1  6  0  0  0
 37 38  1  0  0  0  0
 39 37  1  0  0  0  0
 39 38  1  0  0  0  0
M  END
>  <MODEL>
3

>  <REMARK>
 VINA RESULT:     -10.4      2.358      6.060
  Name = 
  8 active torsions:
  status: ('A' for Active; 'I' for Inactive)
    1  A    between atoms: C_3  and  C_37
    2  A    between atoms: O_5  and  C_7
    3  A    between atoms: O_5  and  C_30
    4  A    between atoms: C_6  and  C_8
    5  A    between atoms: C_11  and  N_25
    6  A    between atoms: C_16  and  C_19
    7  A    between atoms: C_24  and  C_37
    8  A    between atoms: C_29  and  C_31
                            x       y       z     vdW  Elec       q    Type
                         _______ _______ _______ _____ _____    ______ ____

>  <TORSDO>
F 8

$$$$
=
 OpenBabel10222420473D

 39 44  0  0  1  0  0  0  0  0999 V2000
  188.8310  178.0710  141.1640 C   0  0  0  0  0  3  0  0  0  0  0  0
  186.0970  178.5050  141.0440 C   0  0  0  0  0  0  0  0  0  0  0  0
  185.8860  178.2120  143.4430 C   0  0  0  0  0  3  0  0  0  0  0  0
  188.1960  178.3470  139.9530 C   0  0  0  0  0  0  0  0  0  0  0  0
  184.7240  178.7520  140.9590 C   0  0  0  0  0  3  0  0  0  0  0  0
  183.9270  178.7280  142.1060 C   0  0  0  0  0  0  0  0  0  0  0  0
  188.0930  177.9920  142.3530 C   0  0  0  0  0  0  0  0  0  0  0  0
  186.8550  178.5580  139.9200 N   0  0  0  0  0  0  0  0  0  0  0  0
  184.5140  178.4580  143.3500 C   0  0  0  0  0  3  0  0  0  0  0  0
  186.6960  178.2220  142.2970 C   0  0  0  0  0  0  0  0  0  0  0  0
  190.2360  177.0510  145.9820 C   0  0  0  0  0  0  0  0  0  0  0  0
  188.1460  177.5330  144.8290 C   0  0  0  0  0  3  0  0  0  0  0  0
  188.0790  177.0800  147.2090 N   0  0  0  0  0  1  0  0  0  0  0  0
  190.9070  177.1940  144.7590 C   0  0  0  0  0  3  0  0  0  0  0  0
  188.8310  177.2230  146.0070 C   0  0  0  0  0  0  0  0  0  0  0  0
  188.8230  177.6860  143.6120 C   0  0  0  0  0  0  0  0  0  0  0  0
  190.2120  177.5020  143.5880 C   0  0  0  0  0  3  0  0  0  0  0  0
  191.9040  175.5980  147.2280 N   0  0  0  0  0  1  0  0  0  0  0  0
  190.9630  177.4650  148.2090 O   0  0  0  0  0  0  0  0  0  0  0  0
  191.0410  176.7300  147.1880 C   0  0  0  0  0  0  0  0  0  0  0  0
  182.5590  178.9850  141.9830 O   0  0  0  0  0  0  0  0  0  0  0  0
  181.6510  178.8710  143.0770 C   0  0  2  0  0  3  0  0  0  0  0  0
  180.3940  178.2690  142.7100 C   0  0  1  0  0  3  0  0  0  0  0  0
  180.4530  179.7930  142.8370 C   0  0  0  0  0  0  0  0  0  0  0  0
  179.9450  180.9000  142.7640 O   0  0  0  0  0  0  0  0  0  0  0  0
  179.6430  176.4120  139.5030 O   0  0  0  0  0  0  0  0  0  0  0  0
  179.6800  176.7100  140.8580 C   0  0  0  0  0  0  0  0  0  0  0  0
  180.3280  177.9020  141.3010 N   0  0  0  0  0  2  0  0  0  0  0  0
  179.1400  175.9280  141.6840 O   0  0  0  0  0  1  0  0  0  0  0  0
  188.9990  178.4570  138.7010 C   0  0  0  0  0  2  0  0  0  0  0  0
  189.3520  177.1030  138.1880 C   0  0  0  0  0  0  0  0  0  0  0  0
  190.6430  176.5970  138.3750 C   0  0  0  0  0  3  0  0  0  0  0  0
  188.7370  175.0890  136.9770 C   0  0  0  0  0  0  0  0  0  0  0  0
  190.9770  175.3340  137.8790 C   0  0  0  0  0  3  0  0  0  0  0  0
  188.4000  176.3470  137.4950 C   0  0  0  0  0  3  0  0  0  0  0  0
  190.0260  174.5800  137.1860 C   0  0  0  0  0  3  0  0  0  0  0  0
  187.7110  174.2610  136.2680 C   0  0  2  0  0  3  0  0  0  0  0  0
  186.3890  174.4520  136.8650 C   0  0  0  0  0  2  0  0  0  0  0  0
  187.1620  173.2450  137.1840 N   0  0  0  0  0  2  0  0  0  0  0  0
  1  7  1  0  0  0  0
  2 10  1  0  0  0  0
  4  1  2  0  0  0  0
  5  2  1  0  0  0  0
  5  6  2  0  0  0  0
  6  9  1  0  0  0  0
  7 16  1  0  0  0  0
  8  4  1  0  0  0  0
  8  2  2  0  0  0  0
  9  3  2  0  0  0  0
 10  7  2  0  0  0  0
 10  3  1  0  0  0  0
 11 15  1  0  0  0  0
 11 20  1  0  0  0  0
 12 15  2  0  0  0  0
 14 11  2  0  0  0  0
 15 13  1  0  0  0  0
 16 12  1  0  0  0  0
 17 16  2  0  0  0  0
 17 14  1  0  0  0  0
 20 18  1  0  0  0  0
 20 19  2  0  0  0  0
 21  6  1  0  0  0  0
 22 21  1  6  0  0  0
 23 28  1  6  0  0  0
 23 24  1  0  0  0  0
 23 22  1  0  0  0  0
 24 22  1  0  0  0  0
 25 24  2  0  0  0  0
 26 27  2  0  0  0  0
 27 28  1  0  0  0  0
 27 29  1  0  0  0  0
 30  4  1  0  0  0  0
 31 32  1  0  0  0  0
 31 30  1  0  0  0  0
 33 36  2  0  0  0  0
 33 35  1  0  0  0  0
 34 32  2  0  0  0  0
 35 31  2  0  0  0  0
 36 34  1  0  0  0  0
 37 38  1  0  0  0  0
 37 33  1  1  0  0  0
 37 39  1  0  0  0  0
 38 39  1  0  0  0  0
M  END
>  <MODEL>
4

>  <REMARK>
 VINA RESULT:     -10.2      2.663      6.241
  Name = 
  8 active torsions:
  status: ('A' for Active; 'I' for Inactive)
    1  A    between atoms: C_3  and  C_37
    2  A    between atoms: O_5  and  C_7
    3  A    between atoms: O_5  and  C_30
    4  A    between atoms: C_6  and  C_8
    5  A    between atoms: C_11  and  N_25
    6  A    between atoms: C_16  and  C_19
    7  A    between atoms: C_24  and  C_37
    8  A    between atoms: C_29  and  C_31
                            x       y       z     vdW  Elec       q    Type
                         _______ _______ _______ _____ _____    ______ ____

>  <TORSDO>
F 8

$$$$
=
 OpenBabel10222420473D

 39 44  0  0  1  0  0  0  0  0999 V2000
  185.9470  178.3340  144.7090 C   0  0  0  0  0  3  0  0  0  0  0  0
  186.1320  178.5360  141.9510 C   0  0  0  0  0  0  0  0  0  0  0  0
  188.4400  177.7890  141.9930 C   0  0  0  0  0  3  0  0  0  0  0  0
  184.8580  178.7430  143.9400 C   0  0  0  0  0  0  0  0  0  0  0  0
  186.1910  178.6230  140.5580 C   0  0  0  0  0  3  0  0  0  0  0  0
  187.3670  178.2990  139.8760 C   0  0  0  0  0  0  0  0  0  0  0  0
  187.1730  178.0270  144.1000 C   0  0  0  0  0  0  0  0  0  0  0  0
  184.9720  178.8320  142.5900 N   0  0  0  0  0  0  0  0  0  0  0  0
  188.4920  177.8800  140.5990 C   0  0  0  0  0  3  0  0  0  0  0  0
  187.2680  178.1220  142.6900 C   0  0  0  0  0  0  0  0  0  0  0  0
  190.4500  176.8590  146.6590 C   0  0  0  0  0  0  0  0  0  0  0  0
  189.5200  177.1760  144.4300 C   0  0  0  0  0  3  0  0  0  0  0  0
  191.7990  176.3740  144.6330 N   0  0  0  0  0  1  0  0  0  0  0  0
  189.2320  177.3030  147.1950 C   0  0  0  0  0  3  0  0  0  0  0  0
  190.5870  176.8000  145.2520 C   0  0  0  0  0  0  0  0  0  0  0  0
  188.3020  177.6060  144.9720 C   0  0  0  0  0  0  0  0  0  0  0  0
  188.1730  177.6750  146.3660 C   0  0  0  0  0  3  0  0  0  0  0  0
  191.9700  175.1220  147.7170 N   0  0  0  0  0  1  0  0  0  0  0  0
  192.0760  177.3480  148.3240 O   0  0  0  0  0  0  0  0  0  0  0  0
  191.5300  176.4720  147.6010 C   0  0  0  0  0  0  0  0  0  0  0  0
  187.3860  178.3920  138.4820 O   0  0  0  0  0  0  0  0  0  0  0  0
  186.8880  177.3610  137.6320 C   0  0  2  0  0  3  0  0  0  0  0  0
  187.9270  176.6540  136.9270 C   0  0  1  0  0  3  0  0  0  0  0  0
  187.1520  177.7370  136.1720 C   0  0  0  0  0  0  0  0  0  0  0  0
  186.9360  178.4120  135.1790 O   0  0  0  0  0  0  0  0  0  0  0  0
  191.5440  176.8020  138.0160 O   0  0  0  0  0  1  0  0  0  0  0  0
  190.2880  176.2830  137.7370 C   0  0  0  0  0  0  0  0  0  0  0  0
  189.2630  177.1440  137.2420 N   0  0  0  0  0  2  0  0  0  0  0  0
  190.0640  175.0580  137.9210 O   0  0  0  0  0  0  0  0  0  0  0  0
  183.5520  179.0350  144.5980 C   0  0  0  0  0  2  0  0  0  0  0  0
  182.4270  178.8000  143.6480 C   0  0  0  0  0  0  0  0  0  0  0  0
  181.1260  178.6260  144.1310 C   0  0  0  0  0  3  0  0  0  0  0  0
  181.6290  178.4660  141.3780 C   0  0  0  0  0  0  0  0  0  0  0  0
  180.0760  178.3890  143.2410 C   0  0  0  0  0  3  0  0  0  0  0  0
  182.6760  178.7250  142.2730 C   0  0  0  0  0  3  0  0  0  0  0  0
  180.3250  178.3140  141.8680 C   0  0  0  0  0  3  0  0  0  0  0  0
  181.8850  178.4230  139.9030 C   0  0  2  0  0  3  0  0  0  0  0  0
  182.8570  179.4460  139.5170 C   0  0  0  0  0  2  0  0  0  0  0  0
  181.4260  179.6750  139.2750 N   0  0  0  0  0  2  0  0  0  0  0  0
  2  8  2  0  0  0  0
  2 10  1  0  0  0  0
  3 10  1  0  0  0  0
  4 30  1  0  0  0  0
  4  1  2  0  0  0  0
  5  2  1  0  0  0  0
  6  5  2  0  0  0  0
  6  9  1  0  0  0  0
  7  1  1  0  0  0  0
  7 16  1  0  0  0  0
  8  4  1  0  0  0  0
  9  3  2  0  0  0  0
 10  7  2  0  0  0  0
 11 14  1  0  0  0  0
 11 20  1  0  0  0  0
 12 16  2  0  0  0  0
 12 15  1  0  0  0  0
 13 15  1  0  0  0  0
 15 11  2  0  0  0  0
 16 17  1  0  0  0  0
 17 14  2  0  0  0  0
 20 18  1  0  0  0  0
 20 19  2  0  0  0  0
 21  6  1  0  0  0  0
 22 21  1  1  0  0  0
 23 28  1  1  0  0  0
 23 22  1  0  0  0  0
 24 23  1  0  0  0  0
 24 22  1  0  0  0  0
 25 24  2  0  0  0  0
 27 29  2  0  0  0  0
 27 26  1  0  0  0  0
 28 27  1  0  0  0  0
 31 32  1  0  0  0  0
 31 30  1  0  0  0  0
 33 36  2  0  0  0  0
 33 35  1  0  0  0  0
 34 32  2  0  0  0  0
 35 31  2  0  0  0  0
 36 34  1  0  0  0  0
 37 33  1  1  0  0  0
 38 37  1  0  0  0  0
 39 38  1  0  0  0  0
 39 37  1  0  0  0  0
M  END
>  <MODEL>
5

>  <REMARK>
 VINA RESULT:     -10.0      3.145      7.716
  Name = 
  8 active torsions:
  status: ('A' for Active; 'I' for Inactive)
    1  A    between atoms: C_3  and  C_37
    2  A    between atoms: O_5  and  C_7
    3  A    between atoms: O_5  and  C_30
    4  A    between atoms: C_6  and  C_8
    5  A    between atoms: C_11  and  N_25
    6  A    between atoms: C_16  and  C_19
    7  A    between atoms: C_24  and  C_37
    8  A    between atoms: C_29  and  C_31
                            x       y       z     vdW  Elec       q    Type
                         _______ _______ _______ _____ _____    ______ ____

>  <TORSDO>
F 8

$$$$
=
 OpenBabel10222420473D

 39 44  0  0  1  0  0  0  0  0999 V2000
  186.4720  178.2320  144.3570 C   0  0  0  0  0  3  0  0  0  0  0  0
  184.0310  178.7430  143.1490 C   0  0  0  0  0  0  0  0  0  0  0  0
  184.9900  178.4240  140.9440 C   0  0  0  0  0  3  0  0  0  0  0  0
  185.3360  178.5140  145.1150 C   0  0  0  0  0  0  0  0  0  0  0  0
  182.7840  178.9810  142.5660 C   0  0  0  0  0  3  0  0  0  0  0  0
  182.6310  178.9450  141.1780 C   0  0  0  0  0  0  0  0  0  0  0  0
  186.4070  178.2150  142.9570 C   0  0  0  0  0  0  0  0  0  0  0  0
  184.1510  178.7590  144.5010 N   0  0  0  0  0  0  0  0  0  0  0  0
  183.7400  178.6640  140.3680 C   0  0  0  0  0  3  0  0  0  0  0  0
  185.1590  178.4680  142.3360 C   0  0  0  0  0  0  0  0  0  0  0  0
  189.9910  177.3380  140.7120 C   0  0  0  0  0  0  0  0  0  0  0  0
  188.5530  176.9360  142.6360 C   0  0  0  0  0  3  0  0  0  0  0  0
  190.5830  175.6310  142.4130 N   0  0  0  0  0  1  0  0  0  0  0  0
  189.0800  178.3110  140.2760 C   0  0  0  0  0  3  0  0  0  0  0  0
  189.7120  176.6430  141.9130 C   0  0  0  0  0  0  0  0  0  0  0  0
  187.6530  177.9170  142.2010 C   0  0  0  0  0  0  0  0  0  0  0  0
  187.9250  178.5950  141.0050 C   0  0  0  0  0  3  0  0  0  0  0  0
  192.4950  177.5030  140.3250 N   0  0  0  0  0  1  0  0  0  0  0  0
  191.0970  176.5140  138.7750 O   0  0  0  0  0  0  0  0  0  0  0  0
  191.2020  177.0940  139.8890 C   0  0  0  0  0  0  0  0  0  0  0  0
  181.3670  179.1820  140.6320 O   0  0  0  0  0  0  0  0  0  0  0  0
  180.6240  178.1780  139.9420 C   0  0  2  0  0  3  0  0  0  0  0  0
  179.3160  178.6210  139.5320 C   0  0  1  0  0  3  0  0  0  0  0  0
  179.4220  177.7640  140.7950 C   0  0  0  0  0  0  0  0  0  0  0  0
  178.9310  177.2080  141.7640 O   0  0  0  0  0  0  0  0  0  0  0  0
  178.9470  182.3820  139.4030 O   0  0  0  0  0  1  0  0  0  0  0  0
  179.2300  181.0860  138.9960 C   0  0  0  0  0  0  0  0  0  0  0  0
  179.0400  180.0030  139.9060 N   0  0  0  0  0  2  0  0  0  0  0  0
  179.6500  180.8770  137.8280 O   0  0  0  0  0  0  0  0  0  0  0  0
  185.4140  178.4980  146.6050 C   0  0  0  0  0  2  0  0  0  0  0  0
  186.8100  178.2230  147.0500 C   0  0  0  0  0  0  0  0  0  0  0  0
  187.2140  178.5690  148.3440 C   0  0  0  0  0  3  0  0  0  0  0  0
  189.0500  177.4180  146.5650 C   0  0  0  0  0  0  0  0  0  0  0  0
  188.5270  178.3270  148.7540 C   0  0  0  0  0  3  0  0  0  0  0  0
  187.7250  177.6440  146.1650 C   0  0  0  0  0  3  0  0  0  0  0  0
  189.4420  177.7480  147.8700 C   0  0  0  0  0  3  0  0  0  0  0  0
  190.0220  176.7640  145.6340 C   0  0  2  0  0  3  0  0  0  0  0  0
  191.3670  176.7560  146.2110 C   0  0  0  0  0  2  0  0  0  0  0  0
  191.0240  177.7450  145.1800 N   0  0  0  0  0  2  0  0  0  0  0  0
  1  4  1  0  0  0  0
  2  8  1  0  0  0  0
  3 10  1  0  0  0  0
  4 30  1  0  0  0  0
  5  2  1  0  0  0  0
  6  5  2  0  0  0  0
  7  1  2  0  0  0  0
  8  4  2  0  0  0  0
  9  3  2  0  0  0  0
  9  6  1  0  0  0  0
 10  7  1  0  0  0  0
 10  2  2  0  0  0  0
 11 15  1  0  0  0  0
 14 11  2  0  0  0  0
 14 17  1  0  0  0  0
 15 13  1  0  0  0  0
 15 12  2  0  0  0  0
 16 12  1  0  0  0  0
 16  7  1  0  0  0  0
 17 16  2  0  0  0  0
 19 20  2  0  0  0  0
 20 18  1  0  0  0  0
 20 11  1  0  0  0  0
 21  6  1  0  0  0  0
 22 21  1  1  0  0  0
 22 24  1  0  0  0  0
 23 28  1  1  0  0  0
 23 22  1  0  0  0  0
 23 24  1  0  0  0  0
 24 25  2  0  0  0  0
 27 26  1  0  0  0  0
 27 28  1  0  0  0  0
 29 27  2  0  0  0  0
 30 31  1  0  0  0  0
 31 32  1  0  0  0  0
 32 34  2  0  0  0  0
 33 36  2  0  0  0  0
 35 33  1  0  0  0  0
 35 31  2  0  0  0  0
 36 34  1  0  0  0  0
 37 38  1  0  0  0  0
 37 33  1  1  0  0  0
 39 37  1  0  0  0  0
 39 38  1  0  0  0  0
M  END
>  <MODEL>
6

>  <REMARK>
 VINA RESULT:     -10.0      1.275      2.258
  Name = 
  8 active torsions:
  status: ('A' for Active; 'I' for Inactive)
    1  A    between atoms: C_3  and  C_37
    2  A    between atoms: O_5  and  C_7
    3  A    between atoms: O_5  and  C_30
    4  A    between atoms: C_6  and  C_8
    5  A    between atoms: C_11  and  N_25
    6  A    between atoms: C_16  and  C_19
    7  A    between atoms: C_24  and  C_37
    8  A    between atoms: C_29  and  C_31
                            x       y       z     vdW  Elec       q    Type
                         _______ _______ _______ _____ _____    ______ ____

>  <TORSDO>
F 8

$$$$
=
 OpenBabel10222420473D

 39 44  0  0  1  0  0  0  0  0999 V2000
  188.9490  178.0870  141.3200 C   0  0  0  0  0  3  0  0  0  0  0  0
  186.2070  178.4890  141.3330 C   0  0  0  0  0  0  0  0  0  0  0  0
  186.1060  178.1230  143.7290 C   0  0  0  0  0  3  0  0  0  0  0  0
  188.2580  178.3890  140.1470 C   0  0  0  0  0  0  0  0  0  0  0  0
  184.8290  178.7200  141.3160 C   0  0  0  0  0  3  0  0  0  0  0  0
  184.0830  178.6530  142.4950 C   0  0  0  0  0  0  0  0  0  0  0  0
  188.2640  177.9640  142.5380 C   0  0  0  0  0  0  0  0  0  0  0  0
  186.9140  178.5840  140.1790 N   0  0  0  0  0  0  0  0  0  0  0  0
  184.7280  178.3540  143.7030 C   0  0  0  0  0  3  0  0  0  0  0  0
  186.8630  178.1770  142.5490 C   0  0  0  0  0  0  0  0  0  0  0  0
  190.5740  176.9440  146.0410 C   0  0  0  0  0  0  0  0  0  0  0  0
  188.4400  177.4970  145.0070 C   0  0  0  0  0  3  0  0  0  0  0  0
  188.4910  177.0420  147.3870 N   0  0  0  0  0  1  0  0  0  0  0  0
  191.1800  177.0670  144.7820 C   0  0  0  0  0  3  0  0  0  0  0  0
  189.1790  177.1630  146.1440 C   0  0  0  0  0  0  0  0  0  0  0  0
  189.0530  177.6310  143.7540 C   0  0  0  0  0  0  0  0  0  0  0  0
  190.4310  177.4010  143.6530 C   0  0  0  0  0  3  0  0  0  0  0  0
  192.0810  175.3280  147.2920 N   0  0  0  0  0  1  0  0  0  0  0  0
  191.5980  177.4240  148.1340 O   0  0  0  0  0  0  0  0  0  0  0  0
  191.4330  176.5930  147.2000 C   0  0  0  0  0  0  0  0  0  0  0  0
  182.7090  178.8960  142.4400 O   0  0  0  0  0  0  0  0  0  0  0  0
  182.0290  179.2110  141.2260 C   0  0  2  0  0  3  0  0  0  0  0  0
  180.6280  178.8750  141.2560 C   0  0  1  0  0  3  0  0  0  0  0  0
  181.5840  177.9150  140.5440 C   0  0  0  0  0  0  0  0  0  0  0  0
  181.8200  176.8850  139.9350 O   0  0  0  0  0  0  0  0  0  0  0  0
  179.0170  178.3960  144.6430 O   0  0  0  0  0  1  0  0  0  0  0  0
  179.3900  179.0020  143.4520 C   0  0  0  0  0  0  0  0  0  0  0  0
  180.2100  178.2910  142.5240 N   0  0  0  0  0  2  0  0  0  0  0  0
  179.0010  180.1720  143.1980 O   0  0  0  0  0  0  0  0  0  0  0  0
  189.0030  178.5470  138.8650 C   0  0  0  0  0  2  0  0  0  0  0  0
  188.2820  177.8580  137.7570 C   0  0  0  0  0  0  0  0  0  0  0  0
  187.6160  178.6080  136.7810 C   0  0  0  0  0  3  0  0  0  0  0  0
  187.5390  175.8070  136.6880 C   0  0  0  0  0  0  0  0  0  0  0  0
  186.9270  177.9610  135.7520 C   0  0  0  0  0  3  0  0  0  0  0  0
  188.2470  176.4610  137.7070 C   0  0  0  0  0  3  0  0  0  0  0  0
  186.8920  176.5650  135.7020 C   0  0  0  0  0  3  0  0  0  0  0  0
  187.5310  174.3120  136.6090 C   0  0  2  0  0  3  0  0  0  0  0  0
  187.1650  173.8670  135.2640 C   0  0  0  0  0  2  0  0  0  0  0  0
  186.1650  173.8290  136.3390 N   0  0  0  0  0  2  0  0  0  0  0  0
  1  7  1  0  0  0  0
  2 10  1  0  0  0  0
  4  8  1  0  0  0  0
  4  1  2  0  0  0  0
  5  2  1  0  0  0  0
  5  6  2  0  0  0  0
  6  9  1  0  0  0  0
  7 10  2  0  0  0  0
  7 16  1  0  0  0  0
  8  2  2  0  0  0  0
  9  3  2  0  0  0  0
 10  3  1  0  0  0  0
 11 15  1  0  0  0  0
 11 20  1  0  0  0  0
 12 15  2  0  0  0  0
 14 11  2  0  0  0  0
 15 13  1  0  0  0  0
 16 12  1  0  0  0  0
 17 16  2  0  0  0  0
 17 14  1  0  0  0  0
 20 18  1  0  0  0  0
 20 19  2  0  0  0  0
 21  6  1  0  0  0  0
 22 23  1  0  0  0  0
 22 21  1  1  0  0  0
 23 28  1  1  0  0  0
 24 22  1  0  0  0  0
 24 23  1  0  0  0  0
 25 24  2  0  0  0  0
 27 26  1  0  0  0  0
 28 27  1  0  0  0  0
 29 27  2  0  0  0  0
 30  4  1  0  0  0  0
 31 30  1  0  0  0  0
 32 31  2  0  0  0  0
 33 35  2  0  0  0  0
 34 32  1  0  0  0  0
 35 31  1  0  0  0  0
 36 34  2  0  0  0  0
 36 33  1  0  0  0  0
 37 33  1  6  0  0  0
 38 39  1  0  0  0  0
 38 37  1  0  0  0  0
 39 37  1  0  0  0  0
M  END
>  <MODEL>
7

>  <REMARK>
 VINA RESULT:      -9.9      3.102      6.755
  Name = 
  8 active torsions:
  status: ('A' for Active; 'I' for Inactive)
    1  A    between atoms: C_3  and  C_37
    2  A    between atoms: O_5  and  C_7
    3  A    between atoms: O_5  and  C_30
    4  A    between atoms: C_6  and  C_8
    5  A    between atoms: C_11  and  N_25
    6  A    between atoms: C_16  and  C_19
    7  A    between atoms: C_24  and  C_37
    8  A    between atoms: C_29  and  C_31
                            x       y       z     vdW  Elec       q    Type
                         _______ _______ _______ _____ _____    ______ ____

>  <TORSDO>
F 8

$$$$
=
 OpenBabel10222420473D

 39 44  0  0  1  0  0  0  0  0999 V2000
  187.7080  178.2670  142.4780 C   0  0  0  0  0  3  0  0  0  0  0  0
  188.9150  177.7780  140.0320 C   0  0  0  0  0  0  0  0  0  0  0  0
  190.8760  176.8510  141.1180 C   0  0  0  0  0  3  0  0  0  0  0  0
  187.0650  178.5780  141.2800 C   0  0  0  0  0  0  0  0  0  0  0  0
  189.4900  177.5190  138.7850 C   0  0  0  0  0  3  0  0  0  0  0  0
  190.7540  176.9320  138.6950 C   0  0  0  0  0  0  0  0  0  0  0  0
  188.9950  177.7100  142.4710 C   0  0  0  0  0  0  0  0  0  0  0  0
  187.6750  178.3270  140.0940 N   0  0  0  0  0  0  0  0  0  0  0  0
  191.4450  176.5970  139.8680 C   0  0  0  0  0  3  0  0  0  0  0  0
  189.6110  177.4510  141.2210 C   0  0  0  0  0  0  0  0  0  0  0  0
  190.8790  176.7840  146.2450 C   0  0  0  0  0  0  0  0  0  0  0  0
  188.8730  177.2500  144.9440 C   0  0  0  0  0  3  0  0  0  0  0  0
  188.6390  176.7960  147.3130 N   0  0  0  0  0  1  0  0  0  0  0  0
  191.6350  176.9320  145.0720 C   0  0  0  0  0  3  0  0  0  0  0  0
  189.4750  176.9450  146.1680 C   0  0  0  0  0  0  0  0  0  0  0  0
  189.6350  177.4090  143.7790 C   0  0  0  0  0  0  0  0  0  0  0  0
  191.0230  177.2360  143.8550 C   0  0  0  0  0  3  0  0  0  0  0  0
  191.8900  177.4740  148.4690 N   0  0  0  0  0  1  0  0  0  0  0  0
  191.9660  175.2850  147.7380 O   0  0  0  0  0  0  0  0  0  0  0  0
  191.5970  176.4680  147.5050 C   0  0  0  0  0  0  0  0  0  0  0  0
  191.2950  176.6830  137.4310 O   0  0  0  0  0  0  0  0  0  0  0  0
  191.0830  175.4600  136.7290 C   0  0  2  0  0  3  0  0  0  0  0  0
  191.9580  175.2970  135.5950 C   0  0  1  0  0  3  0  0  0  0  0  0
  190.5240  175.7670  135.3370 C   0  0  0  0  0  0  0  0  0  0  0  0
  189.6310  176.1390  134.5950 O   0  0  0  0  0  0  0  0  0  0  0  0
  195.0370  177.4880  135.7300 O   0  0  0  0  0  0  0  0  0  0  0  0
  194.2060  176.3960  135.9320 C   0  0  0  0  0  0  0  0  0  0  0  0
  192.8740  176.4180  135.4180 N   0  0  0  0  0  2  0  0  0  0  0  0
  194.6340  175.3940  136.5630 O   0  0  0  0  0  1  0  0  0  0  0  0
  185.6840  179.1420  141.3030 C   0  0  0  0  0  2  0  0  0  0  0  0
  185.0630  178.9440  142.6440 C   0  0  0  0  0  0  0  0  0  0  0  0
  183.6760  178.8140  142.7620 C   0  0  0  0  0  3  0  0  0  0  0  0
  185.2850  178.7680  145.0570 C   0  0  0  0  0  0  0  0  0  0  0  0
  183.0940  178.6460  144.0210 C   0  0  0  0  0  3  0  0  0  0  0  0
  185.8660  178.9160  143.7890 C   0  0  0  0  0  3  0  0  0  0  0  0
  183.8960  178.6180  145.1650 C   0  0  0  0  0  3  0  0  0  0  0  0
  186.1440  178.6990  146.2810 C   0  0  2  0  0  3  0  0  0  0  0  0
  185.3630  178.2590  147.4370 C   0  0  0  0  0  2  0  0  0  0  0  0
  185.6830  179.6830  147.2770 N   0  0  0  0  0  2  0  0  0  0  0  0
  2  8  2  0  0  0  0
  2 10  1  0  0  0  0
  3 10  1  0  0  0  0
  4 30  1  0  0  0  0
  4  1  2  0  0  0  0
  5  2  1  0  0  0  0
  6  5  2  0  0  0  0
  6  9  1  0  0  0  0
  7  1  1  0  0  0  0
  7 16  1  0  0  0  0
  8  4  1  0  0  0  0
  9  3  2  0  0  0  0
 10  7  2  0  0  0  0
 11 20  1  0  0  0  0
 12 15  2  0  0  0  0
 14 11  2  0  0  0  0
 15 11  1  0  0  0  0
 15 13  1  0  0  0  0
 16 17  2  0  0  0  0
 16 12  1  0  0  0  0
 17 14  1  0  0  0  0
 20 19  2  0  0  0  0
 20 18  1  0  0  0  0
 21  6  1  0  0  0  0
 22 21  1  1  0  0  0
 23 28  1  1  0  0  0
 23 22  1  0  0  0  0
 24 23  1  0  0  0  0
 24 22  1  0  0  0  0
 25 24  2  0  0  0  0
 26 27  2  0  0  0  0
 27 29  1  0  0  0  0
 28 27  1  0  0  0  0
 30 31  1  0  0  0  0
 31 32  2  0  0  0  0
 31 35  1  0  0  0  0
 32 34  1  0  0  0  0
 33 36  1  0  0  0  0
 34 36  2  0  0  0  0
 35 33  2  0  0  0  0
 37 33  1  6  0  0  0
 37 39  1  0  0  0  0
 37 38  1  0  0  0  0
 39 38  1  0  0  0  0
M  END
>  <MODEL>
8

>  <REMARK>
 VINA RESULT:      -9.7      4.687      8.814
  Name = 
  8 active torsions:
  status: ('A' for Active; 'I' for Inactive)
    1  A    between atoms: C_3  and  C_37
    2  A    between atoms: O_5  and  C_7
    3  A    between atoms: O_5  and  C_30
    4  A    between atoms: C_6  and  C_8
    5  A    between atoms: C_11  and  N_25
    6  A    between atoms: C_16  and  C_19
    7  A    between atoms: C_24  and  C_37
    8  A    between atoms: C_29  and  C_31
                            x       y       z     vdW  Elec       q    Type
                         _______ _______ _______ _____ _____    ______ ____

>  <TORSDO>
F 8

$$$$
=
 OpenBabel10222420473D

 39 44  0  0  1  0  0  0  0  0999 V2000
  188.6360  178.1560  140.8290 C   0  0  0  0  0  3  0  0  0  0  0  0
  185.9400  178.6290  140.3980 C   0  0  0  0  0  0  0  0  0  0  0  0
  185.4660  178.4300  142.7690 C   0  0  0  0  0  3  0  0  0  0  0  0
  188.1410  178.3960  139.5480 C   0  0  0  0  0  0  0  0  0  0  0  0
  184.5900  178.8950  140.1560 C   0  0  0  0  0  3  0  0  0  0  0  0
  183.6730  178.9270  141.2100 C   0  0  0  0  0  0  0  0  0  0  0  0
  187.7720  178.1340  141.9340 C   0  0  0  0  0  0  0  0  0  0  0  0
  186.8160  178.6280  139.3620 N   0  0  0  0  0  0  0  0  0  0  0  0
  184.1170  178.6940  142.5180 C   0  0  0  0  0  3  0  0  0  0  0  0
  186.3940  178.3840  141.7170 C   0  0  0  0  0  0  0  0  0  0  0  0
  189.4270  177.3880  145.8520 C   0  0  0  0  0  0  0  0  0  0  0  0
  189.7220  178.0450  143.5250 C   0  0  0  0  0  3  0  0  0  0  0  0
  191.6630  178.0160  144.9760 N   0  0  0  0  0  1  0  0  0  0  0  0
  188.0580  177.2210  145.5970 C   0  0  0  0  0  3  0  0  0  0  0  0
  190.2650  177.8100  144.7910 C   0  0  0  0  0  0  0  0  0  0  0  0
  188.3560  177.8630  143.2740 C   0  0  0  0  0  0  0  0  0  0  0  0
  187.5270  177.4590  144.3290 C   0  0  0  0  0  3  0  0  0  0  0  0
  189.5080  177.8920  148.3390 N   0  0  0  0  0  1  0  0  0  0  0  0
  190.7360  176.1670  147.4180 O   0  0  0  0  0  0  0  0  0  0  0  0
  189.9240  177.1110  147.2230 C   0  0  0  0  0  0  0  0  0  0  0  0
  182.3320  179.2020  140.9300 O   0  0  0  0  0  0  0  0  0  0  0  0
  181.3060  178.2150  141.0240 C   0  0  2  0  0  3  0  0  0  0  0  0
  179.9820  178.7540  140.8400 C   0  0  1  0  0  3  0  0  0  0  0  0
  180.4580  178.4860  142.2700 C   0  0  0  0  0  0  0  0  0  0  0  0
  180.3000  178.5090  143.4800 O   0  0  0  0  0  0  0  0  0  0  0  0
  179.8760  182.1050  139.0930 O   0  0  0  0  0  1  0  0  0  0  0  0
  179.8760  180.7290  139.2730 C   0  0  0  0  0  0  0  0  0  0  0  0
  179.9810  180.1900  140.5900 N   0  0  0  0  0  2  0  0  0  0  0  0
  179.7820  179.9690  138.2740 O   0  0  0  0  0  0  0  0  0  0  0  0
  189.0760  178.4470  138.3870 C   0  0  0  0  0  2  0  0  0  0  0  0
  189.4400  177.0680  137.9520 C   0  0  0  0  0  0  0  0  0  0  0  0
  188.4500  176.1920  137.4960 C   0  0  0  0  0  3  0  0  0  0  0  0
  191.1130  175.3320  137.6540 C   0  0  0  0  0  0  0  0  0  0  0  0
  188.7900  174.8940  137.1050 C   0  0  0  0  0  3  0  0  0  0  0  0
  190.7700  176.6390  138.0260 C   0  0  0  0  0  3  0  0  0  0  0  0
  190.1180  174.4670  137.1790 C   0  0  0  0  0  3  0  0  0  0  0  0
  192.5410  174.8820  137.6950 C   0  0  2  0  0  3  0  0  0  0  0  0
  193.4330  176.0120  137.9540 C   0  0  0  0  0  2  0  0  0  0  0  0
  193.2950  175.4950  136.5870 N   0  0  0  0  0  2  0  0  0  0  0  0
  1  7  1  0  0  0  0
  2 10  1  0  0  0  0
  4  1  2  0  0  0  0
  5  2  1  0  0  0  0
  5  6  2  0  0  0  0
  6  9  1  0  0  0  0
  7 16  1  0  0  0  0
  8  4  1  0  0  0  0
  8  2  2  0  0  0  0
  9  3  2  0  0  0  0
 10  7  2  0  0  0  0
 10  3  1  0  0  0  0
 11 20  1  0  0  0  0
 12 15  1  0  0  0  0
 14 11  1  0  0  0  0
 15 13  1  0  0  0  0
 15 11  2  0  0  0  0
 16 12  2  0  0  0  0
 16 17  1  0  0  0  0
 17 14  2  0  0  0  0
 20 19  2  0  0  0  0
 20 18  1  0  0  0  0
 21  6  1  0  0  0  0
 22 21  1  1  0  0  0
 22 24  1  0  0  0  0
 23 28  1  1  0  0  0
 23 22  1  0  0  0  0
 23 24  1  0  0  0  0
 24 25  2  0  0  0  0
 26 27  1  0  0  0  0
 27 28  1  0  0  0  0
 29 27  2  0  0  0  0
 30  4  1  0  0  0  0
 31 35  1  0  0  0  0
 31 30  1  0  0  0  0
 32 31  2  0  0  0  0
 33 35  2  0  0  0  0
 34 36  2  0  0  0  0
 34 32  1  0  0  0  0
 36 33  1  0  0  0  0
 37 33  1  6  0  0  0
 37 38  1  0  0  0  0
 39 37  1  0  0  0  0
 39 38  1  0  0  0  0
M  END
>  <MODEL>
9

>  <REMARK>
 VINA RESULT:      -9.6      2.441      6.255
  Name = 
  8 active torsions:
  status: ('A' for Active; 'I' for Inactive)
    1  A    between atoms: C_3  and  C_37
    2  A    between atoms: O_5  and  C_7
    3  A    between atoms: O_5  and  C_30
    4  A    between atoms: C_6  and  C_8
    5  A    between atoms: C_11  and  N_25
    6  A    between atoms: C_16  and  C_19
    7  A    between atoms: C_24  and  C_37
    8  A    between atoms: C_29  and  C_31
                            x       y       z     vdW  Elec       q    Type
                         _______ _______ _______ _____ _____    ______ ____

>  <TORSDO>
F 8

$$$$
