=
 OpenBabel10222419193D

 35 38  0  0  1  0  0  0  0  0999 V2000
  188.7940  177.3270  142.3260 C   0  0  2  0  0  0  0  0  0  0  0  0
  190.4820  177.2540  139.9420 C   0  0  0  0  0  3  0  0  0  0  0  0
  190.8870  176.5140  141.1870 C   0  0  0  0  0  2  0  0  0  0  0  0
  189.6680  176.1080  142.0150 C   0  0  0  0  0  2  0  0  0  0  0  0
  187.5600  176.8510  143.0740 C   0  0  0  0  0  1  0  0  0  0  0  0
  189.3600  177.9870  139.8690 C   0  0  0  0  0  0  0  0  0  0  0  0
  188.3320  177.9560  140.9890 C   0  0  2  0  0  3  0  0  0  0  0  0
  187.5610  179.1970  141.1400 N   0  0  0  0  0  2  0  0  0  0  0  0
  185.1380  178.7600  141.2650 C   0  0  0  0  0  0  0  0  0  0  0  0
  183.8080  178.6050  140.6440 C   0  0  0  0  0  3  0  0  0  0  0  0
  182.9060  178.3540  141.8440 C   0  0  0  0  0  3  0  0  0  0  0  0
  185.1570  178.6260  142.5450 N   0  0  0  0  0  0  0  0  0  0  0  0
  186.3140  179.0490  140.5110 N   0  0  0  0  0  2  0  0  0  0  0  0
  183.8320  178.3380  143.0600 C   0  0  1  0  0  3  0  0  0  0  0  0
  183.4250  179.4220  144.0450 C   0  0  0  0  0  2  0  0  0  0  0  0
  183.6070  178.9600  145.4840 C   0  0  0  0  0  2  0  0  0  0  0  0
  185.4630  179.4070  146.9200 O   0  0  0  0  0  1  0  0  0  0  0  0
  185.0670  178.6770  145.7990 C   0  0  0  0  0  2  0  0  0  0  0  0
  189.7150  178.5350  143.3690 S   0  0  0  0  0  0  0  0  0  0  0  0
  190.1960  177.0380  147.1080 N   0  0  0  0  0  2  0  0  0  0  0  0
  191.6720  177.1410  144.6850 C   0  0  0  0  0  2  0  0  0  0  0  0
  191.4100  176.2850  146.9900 C   0  0  0  0  0  0  0  0  0  0  0  0
  190.1620  177.3620  144.6870 C   0  0  1  0  0  3  0  0  0  0  0  0
  192.0920  176.2790  145.8430 C   0  0  0  0  0  3  0  0  0  0  0  0
  189.7430  177.9270  146.0410 C   0  0  0  0  0  2  0  0  0  0  0  0
  191.9340  175.2690  148.3150 Cl  0  0  0  0  0  0  0  0  0  0  0  0
  189.0230  178.6410  138.5640 C   0  0  0  0  0  2  0  0  0  0  0  0
  186.3670  176.1630  136.3630 C   0  0  0  0  0  0  0  0  0  0  0  0
  187.0270  178.3680  137.0820 C   0  0  0  0  0  3  0  0  0  0  0  0
  188.2520  176.4400  137.7440 N   0  0  0  0  0  0  0  0  0  0  0  0
  188.0910  177.7890  137.7710 C   0  0  0  0  0  0  0  0  0  0  0  0
  186.1570  177.5480  136.3680 C   0  0  0  0  0  3  0  0  0  0  0  0
  187.4180  175.6540  137.0590 N   0  0  0  0  0  0  0  0  0  0  0  0
  185.5250  175.2960  135.6630 O   0  0  0  0  0  0  0  0  0  0  0  0
  184.5810  174.4540  136.3100 C   0  0  0  0  0  1  0  0  0  0  0  0
  1  5  1  1  0  0  0
  1 19  1  0  0  0  0
  2  3  1  0  0  0  0
  3  4  1  0  0  0  0
  4  1  1  0  0  0  0
  6  2  2  0  0  0  0
  6  7  1  0  0  0  0
  7  8  1  1  0  0  0
  7  1  1  0  0  0  0
  9 12  2  0  0  0  0
 10  9  1  0  0  0  0
 10 11  2  0  0  0  0
 11 14  1  0  0  0  0
 12 14  1  0  0  0  0
 13  8  1  0  0  0  0
 13  9  1  0  0  0  0
 14 15  1  1  0  0  0
 15 16  1  0  0  0  0
 16 18  1  0  0  0  0
 18 17  1  0  0  0  0
 21 23  1  0  0  0  0
 21 24  1  0  0  0  0
 22 20  1  0  0  0  0
 22 26  1  0  0  0  0
 23 19  1  6  0  0  0
 23 25  1  0  0  0  0
 24 22  2  0  0  0  0
 25 20  1  0  0  0  0
 27  6  1  0  0  0  0
 28 32  1  0  0  0  0
 28 33  2  0  0  0  0
 29 31  1  0  0  0  0
 30 31  2  0  0  0  0
 31 27  1  0  0  0  0
 32 29  2  0  0  0  0
 33 30  1  0  0  0  0
 34 35  1  0  0  0  0
 34 28  1  0  0  0  0
M  END
>  <MODEL>
1

>  <REMARK>
 VINA RESULT:      -7.4      0.000      0.000
  Name = 
  10 active torsions:
  status: ('A' for Active; 'I' for Inactive)
    1  A    between atoms: C_1  and  O_15
    2  A    between atoms: C_3  and  S_24
    3  A    between atoms: N_6  and  N_27
    4  A    between atoms: N_6  and  C_34
    5  A    between atoms: C_8  and  C_14
    6  A    between atoms: C_8  and  C_30
    7  A    between atoms: C_13  and  S_24
    8  A    between atoms: C_14  and  C_26
    9  A    between atoms: C_22  and  C_28
   10  A    between atoms: C_28  and  C_31
                            x       y       z     vdW  Elec       q    Type
                         _______ _______ _______ _____ _____    ______ ____

>  <TORSDO>
F 10

$$$$
=
 OpenBabel10222419193D

 35 38  0  0  1  0  0  0  0  0999 V2000
  188.5170  177.1810  142.8700 C   0  0  2  0  0  0  0  0  0  0  0  0
  190.1000  177.1670  140.4140 C   0  0  0  0  0  3  0  0  0  0  0  0
  190.5770  176.4280  141.6340 C   0  0  0  0  0  2  0  0  0  0  0  0
  189.4060  175.9860  142.5110 C   0  0  0  0  0  2  0  0  0  0  0  0
  187.3290  176.6690  143.6670 C   0  0  0  0  0  1  0  0  0  0  0  0
  188.9590  177.8720  140.3960 C   0  0  0  0  0  0  0  0  0  0  0  0
  187.9810  177.8080  141.5600 C   0  0  2  0  0  3  0  0  0  0  0  0
  187.1870  179.0280  141.7550 N   0  0  0  0  0  2  0  0  0  0  0  0
  184.7690  178.8510  141.3120 C   0  0  0  0  0  0  0  0  0  0  0  0
  183.3940  178.4890  141.7090 C   0  0  0  0  0  3  0  0  0  0  0  0
  182.5880  178.8180  140.4600 C   0  0  0  0  0  3  0  0  0  0  0  0
  184.8810  179.3270  140.1210 N   0  0  0  0  0  0  0  0  0  0  0  0
  185.8930  178.6780  142.1730 N   0  0  0  0  0  2  0  0  0  0  0  0
  183.5910  179.3970  139.4630 C   0  0  1  0  0  3  0  0  0  0  0  0
  183.6200  178.5530  138.1980 C   0  0  0  0  0  2  0  0  0  0  0  0
  185.0140  178.0020  137.9330 C   0  0  0  0  0  2  0  0  0  0  0  0
  185.7680  177.4560  135.7320 O   0  0  0  0  0  1  0  0  0  0  0  0
  185.0070  176.9850  136.8030 C   0  0  0  0  0  2  0  0  0  0  0  0
  189.4530  178.4040  143.8810 S   0  0  0  0  0  0  0  0  0  0  0  0
  190.3040  176.8210  147.5180 N   0  0  0  0  0  2  0  0  0  0  0  0
  191.5760  177.0760  144.9930 C   0  0  0  0  0  2  0  0  0  0  0  0
  191.5410  176.1370  147.2810 C   0  0  0  0  0  0  0  0  0  0  0  0
  190.0610  177.2160  145.1200 C   0  0  1  0  0  3  0  0  0  0  0  0
  192.1290  176.2020  146.0840 C   0  0  0  0  0  3  0  0  0  0  0  0
  189.7230  177.7170  146.5210 C   0  0  0  0  0  2  0  0  0  0  0  0
  192.2190  175.1110  148.5240 Cl  0  0  0  0  0  0  0  0  0  0  0  0
  188.5480  178.5260  139.1130 C   0  0  0  0  0  2  0  0  0  0  0  0
  188.9720  175.8400  135.8510 C   0  0  0  0  0  0  0  0  0  0  0  0
  189.3450  178.0270  136.7950 C   0  0  0  0  0  3  0  0  0  0  0  0
  188.2450  176.3220  138.0360 N   0  0  0  0  0  0  0  0  0  0  0  0
  188.7230  177.5920  137.9630 C   0  0  0  0  0  0  0  0  0  0  0  0
  189.4740  177.1420  135.7280 C   0  0  0  0  0  3  0  0  0  0  0  0
  188.3680  175.4740  137.0130 N   0  0  0  0  0  0  0  0  0  0  0  0
  189.0750  174.9130  134.8110 O   0  0  0  0  0  0  0  0  0  0  0  0
  190.1200  173.9520  134.7390 C   0  0  0  0  0  1  0  0  0  0  0  0
  1  5  1  1  0  0  0
  1 19  1  0  0  0  0
  2  3  1  0  0  0  0
  3  4  1  0  0  0  0
  4  1  1  0  0  0  0
  6  2  2  0  0  0  0
  6  7  1  0  0  0  0
  7  8  1  1  0  0  0
  7  1  1  0  0  0  0
  8 13  1  0  0  0  0
  9 10  1  0  0  0  0
  9 13  1  0  0  0  0
 11 10  2  0  0  0  0
 12  9  2  0  0  0  0
 14 15  1  6  0  0  0
 14 12  1  0  0  0  0
 14 11  1  0  0  0  0
 16 15  1  0  0  0  0
 17 18  1  0  0  0  0
 18 16  1  0  0  0  0
 21 23  1  0  0  0  0
 21 24  1  0  0  0  0
 22 20  1  0  0  0  0
 22 26  1  0  0  0  0
 23 19  1  6  0  0  0
 23 25  1  0  0  0  0
 24 22  2  0  0  0  0
 25 20  1  0  0  0  0
 27  6  1  0  0  0  0
 28 33  2  0  0  0  0
 29 31  1  0  0  0  0
 31 30  2  0  0  0  0
 31 27  1  0  0  0  0
 32 28  1  0  0  0  0
 32 29  2  0  0  0  0
 33 30  1  0  0  0  0
 34 28  1  0  0  0  0
 35 34  1  0  0  0  0
M  END
>  <MODEL>
2

>  <REMARK>
 VINA RESULT:      -7.0      2.376      3.436
  Name = 
  10 active torsions:
  status: ('A' for Active; 'I' for Inactive)
    1  A    between atoms: C_1  and  O_15
    2  A    between atoms: C_3  and  S_24
    3  A    between atoms: N_6  and  N_27
    4  A    between atoms: N_6  and  C_34
    5  A    between atoms: C_8  and  C_14
    6  A    between atoms: C_8  and  C_30
    7  A    between atoms: C_13  and  S_24
    8  A    between atoms: C_14  and  C_26
    9  A    between atoms: C_22  and  C_28
   10  A    between atoms: C_28  and  C_31
                            x       y       z     vdW  Elec       q    Type
                         _______ _______ _______ _____ _____    ______ ____

>  <TORSDO>
F 10

$$$$
=
 OpenBabel10222419193D

 35 38  0  0  1  0  0  0  0  0999 V2000
  189.3260  176.2680  137.8750 C   0  0  2  0  0  0  0  0  0  0  0  0
  187.2740  178.2200  138.5970 C   0  0  0  0  0  3  0  0  0  0  0  0
  187.2350  177.5290  137.2610 C   0  0  0  0  0  2  0  0  0  0  0  0
  187.9010  176.1550  137.3250 C   0  0  0  0  0  2  0  0  0  0  0  0
  189.9040  174.8680  137.9950 C   0  0  0  0  0  1  0  0  0  0  0  0
  188.2440  177.9960  139.4980 C   0  0  0  0  0  0  0  0  0  0  0  0
  189.2590  176.8830  139.2940 C   0  0  2  0  0  3  0  0  0  0  0  0
  190.5700  177.1370  139.9040 N   0  0  0  0  0  2  0  0  0  0  0  0
  191.0220  176.5690  142.2600 C   0  0  0  0  0  0  0  0  0  0  0  0
  191.2710  175.5960  143.3410 C   0  0  0  0  0  3  0  0  0  0  0  0
  191.3850  176.4850  144.5710 C   0  0  0  0  0  3  0  0  0  0  0  0
  190.9990  177.8000  142.6340 N   0  0  0  0  0  0  0  0  0  0  0  0
  190.8120  176.1800  140.9040 N   0  0  0  0  0  2  0  0  0  0  0  0
  191.2390  177.9180  144.0590 C   0  0  1  0  0  3  0  0  0  0  0  0
  190.0480  178.5930  144.7210 C   0  0  0  0  0  2  0  0  0  0  0  0
  189.0450  177.5690  145.2320 C   0  0  0  0  0  2  0  0  0  0  0  0
  189.3650  176.7530  147.4550 O   0  0  0  0  0  1  0  0  0  0  0  0
  188.7530  177.7620  146.7110 C   0  0  0  0  0  2  0  0  0  0  0  0
  190.3790  177.2710  136.7440 S   0  0  0  0  0  0  0  0  0  0  0  0
  194.0980  175.7260  137.2300 N   0  0  0  0  0  2  0  0  0  0  0  0
  192.1390  175.8680  135.1810 C   0  0  0  0  0  2  0  0  0  0  0  0
  194.2880  174.9800  136.0210 C   0  0  0  0  0  0  0  0  0  0  0  0
  191.7540  176.0820  136.6420 C   0  0  1  0  0  3  0  0  0  0  0  0
  193.3550  174.9930  135.0660 C   0  0  0  0  0  3  0  0  0  0  0  0
  192.9610  176.6270  137.4000 C   0  0  0  0  0  2  0  0  0  0  0  0
  195.6910  173.9490  135.8480 Cl  0  0  0  0  0  0  0  0  0  0  0  0
  188.1590  178.6970  140.8190 C   0  0  0  0  0  2  0  0  0  0  0  0
  184.1490  178.6550  142.2170 C   0  0  0  0  0  0  0  0  0  0  0  0
  186.4480  177.9860  142.5000 C   0  0  0  0  0  3  0  0  0  0  0  0
  185.7750  179.3280  140.6550 N   0  0  0  0  0  0  0  0  0  0  0  0
  186.7600  178.6850  141.3350 C   0  0  0  0  0  0  0  0  0  0  0  0
  185.1300  177.9720  142.9480 C   0  0  0  0  0  3  0  0  0  0  0  0
  184.5110  179.3140  141.0840 N   0  0  0  0  0  0  0  0  0  0  0  0
  182.8120  178.6730  142.6220 O   0  0  0  0  0  0  0  0  0  0  0  0
  182.4110  179.0550  143.9310 C   0  0  0  0  0  1  0  0  0  0  0  0
  1  5  1  1  0  0  0
  1  7  1  0  0  0  0
  2  6  2  0  0  0  0
  3  4  1  0  0  0  0
  3  2  1  0  0  0  0
  4  1  1  0  0  0  0
  6 27  1  0  0  0  0
  7  6  1  0  0  0  0
  7  8  1  6  0  0  0
  8 13  1  0  0  0  0
  9 12  2  0  0  0  0
  9 10  1  0  0  0  0
 10 11  2  0  0  0  0
 12 14  1  0  0  0  0
 13  9  1  0  0  0  0
 14 11  1  0  0  0  0
 14 15  1  1  0  0  0
 15 16  1  0  0  0  0
 16 18  1  0  0  0  0
 18 17  1  0  0  0  0
 19  1  1  0  0  0  0
 20 25  1  0  0  0  0
 21 23  1  0  0  0  0
 22 20  1  0  0  0  0
 23 19  1  6  0  0  0
 23 25  1  0  0  0  0
 24 21  1  0  0  0  0
 24 22  2  0  0  0  0
 26 22  1  0  0  0  0
 27 31  1  0  0  0  0
 28 34  1  0  0  0  0
 28 32  1  0  0  0  0
 29 32  2  0  0  0  0
 30 33  1  0  0  0  0
 30 31  2  0  0  0  0
 31 29  1  0  0  0  0
 33 28  2  0  0  0  0
 34 35  1  0  0  0  0
M  END
>  <MODEL>
3

>  <REMARK>
 VINA RESULT:      -6.9      3.841      7.085
  Name = 
  10 active torsions:
  status: ('A' for Active; 'I' for Inactive)
    1  A    between atoms: C_1  and  O_15
    2  A    between atoms: C_3  and  S_24
    3  A    between atoms: N_6  and  N_27
    4  A    between atoms: N_6  and  C_34
    5  A    between atoms: C_8  and  C_14
    6  A    between atoms: C_8  and  C_30
    7  A    between atoms: C_13  and  S_24
    8  A    between atoms: C_14  and  C_26
    9  A    between atoms: C_22  and  C_28
   10  A    between atoms: C_28  and  C_31
                            x       y       z     vdW  Elec       q    Type
                         _______ _______ _______ _____ _____    ______ ____

>  <TORSDO>
F 10

$$$$
=
 OpenBabel10222419193D

 35 38  0  0  1  0  0  0  0  0999 V2000
  189.5000  177.7830  141.6200 C   0  0  2  0  0  0  0  0  0  0  0  0
  187.3720  178.1760  139.6570 C   0  0  0  0  0  3  0  0  0  0  0  0
  187.2020  178.6530  141.0730 C   0  0  0  0  0  2  0  0  0  0  0  0
  188.5490  178.9800  141.7170 C   0  0  0  0  0  2  0  0  0  0  0  0
  190.8440  178.1940  142.1970 C   0  0  0  0  0  1  0  0  0  0  0  0
  188.4770  177.5410  139.2360 C   0  0  0  0  0  0  0  0  0  0  0  0
  189.7050  177.4350  140.1260 C   0  0  2  0  0  3  0  0  0  0  0  0
  190.5250  176.2400  139.8910 N   0  0  0  0  0  2  0  0  0  0  0  0
  192.1020  175.7120  138.0720 C   0  0  0  0  0  0  0  0  0  0  0  0
  193.2560  176.0390  137.2120 C   0  0  0  0  0  3  0  0  0  0  0  0
  193.3250  174.8400  136.2760 C   0  0  0  0  0  3  0  0  0  0  0  0
  191.5410  174.5820  137.8180 N   0  0  0  0  0  0  0  0  0  0  0  0
  191.6330  176.5830  139.0980 N   0  0  0  0  0  2  0  0  0  0  0  0
  192.2120  173.8970  136.7310 C   0  0  1  0  0  3  0  0  0  0  0  0
  191.2280  173.6600  135.5960 C   0  0  0  0  0  2  0  0  0  0  0  0
  189.8050  173.9990  136.0170 C   0  0  0  0  0  2  0  0  0  0  0  0
  188.3740  172.4840  137.1850 O   0  0  0  0  0  1  0  0  0  0  0  0
  188.8920  172.7870  135.9260 C   0  0  0  0  0  2  0  0  0  0  0  0
  188.8370  176.3510  142.5710 S   0  0  0  0  0  0  0  0  0  0  0  0
  189.4130  177.2930  146.4750 N   0  0  0  0  0  2  0  0  0  0  0  0
  187.2290  177.0480  144.6770 C   0  0  0  0  0  2  0  0  0  0  0  0
  188.1070  177.7110  146.8920 C   0  0  0  0  0  0  0  0  0  0  0  0
  188.6520  177.2300  144.1550 C   0  0  1  0  0  3  0  0  0  0  0  0
  187.0760  177.6510  146.0460 C   0  0  0  0  0  3  0  0  0  0  0  0
  189.6340  176.6640  145.1750 C   0  0  0  0  0  2  0  0  0  0  0  0
  187.8860  178.4180  148.4770 Cl  0  0  0  0  0  0  0  0  0  0  0  0
  188.5670  177.1560  137.7910 C   0  0  0  0  0  2  0  0  0  0  0  0
  184.7780  175.8380  136.3980 C   0  0  0  0  0  0  0  0  0  0  0  0
  186.3950  177.6100  136.6350 C   0  0  0  0  0  3  0  0  0  0  0  0
  186.8320  175.4250  137.4670 N   0  0  0  0  0  0  0  0  0  0  0  0
  187.2400  176.7070  137.2790 C   0  0  0  0  0  0  0  0  0  0  0  0
  185.1520  177.1710  136.1880 C   0  0  0  0  0  3  0  0  0  0  0  0
  185.6400  175.0040  137.0380 N   0  0  0  0  0  0  0  0  0  0  0  0
  183.5420  175.3460  135.9690 O   0  0  0  0  0  0  0  0  0  0  0  0
  183.3560  174.7430  134.6950 C   0  0  0  0  0  1  0  0  0  0  0  0
  1  4  1  0  0  0  0
  1  5  1  1  0  0  0
  1 19  1  0  0  0  0
  2  3  1  0  0  0  0
  3  4  1  0  0  0  0
  6  2  2  0  0  0  0
  6  7  1  0  0  0  0
  7  8  1  1  0  0  0
  7  1  1  0  0  0  0
  9 13  1  0  0  0  0
 10  9  1  0  0  0  0
 11 14  1  0  0  0  0
 11 10  2  0  0  0  0
 12  9  2  0  0  0  0
 13  8  1  0  0  0  0
 14 15  1  6  0  0  0
 14 12  1  0  0  0  0
 15 16  1  0  0  0  0
 18 16  1  0  0  0  0
 18 17  1  0  0  0  0
 20 22  1  0  0  0  0
 21 24  1  0  0  0  0
 22 26  1  0  0  0  0
 23 19  1  6  0  0  0
 23 21  1  0  0  0  0
 23 25  1  0  0  0  0
 24 22  2  0  0  0  0
 25 20  1  0  0  0  0
 27  6  1  0  0  0  0
 28 33  2  0  0  0  0
 29 31  1  0  0  0  0
 31 30  2  0  0  0  0
 31 27  1  0  0  0  0
 32 28  1  0  0  0  0
 32 29  2  0  0  0  0
 33 30  1  0  0  0  0
 34 28  1  0  0  0  0
 35 34  1  0  0  0  0
M  END
>  <MODEL>
4

>  <REMARK>
 VINA RESULT:      -6.7      3.340      6.300
  Name = 
  10 active torsions:
  status: ('A' for Active; 'I' for Inactive)
    1  A    between atoms: C_1  and  O_15
    2  A    between atoms: C_3  and  S_24
    3  A    between atoms: N_6  and  N_27
    4  A    between atoms: N_6  and  C_34
    5  A    between atoms: C_8  and  C_14
    6  A    between atoms: C_8  and  C_30
    7  A    between atoms: C_13  and  S_24
    8  A    between atoms: C_14  and  C_26
    9  A    between atoms: C_22  and  C_28
   10  A    between atoms: C_28  and  C_31
                            x       y       z     vdW  Elec       q    Type
                         _______ _______ _______ _____ _____    ______ ____

>  <TORSDO>
F 10

$$$$
=
 OpenBabel10222419193D

 35 38  0  0  1  0  0  0  0  0999 V2000
  188.5940  177.5450  137.0010 C   0  0  2  0  0  0  0  0  0  0  0  0
  190.7250  175.5670  136.7100 C   0  0  0  0  0  3  0  0  0  0  0  0
  189.5120  175.5180  135.8220 C   0  0  0  0  0  2  0  0  0  0  0  0
  188.8970  176.9050  135.6420 C   0  0  0  0  0  2  0  0  0  0  0  0
  188.0660  178.9490  136.7610 C   0  0  0  0  0  1  0  0  0  0  0  0
  190.8790  176.4880  137.6740 C   0  0  0  0  0  0  0  0  0  0  0  0
  189.9150  177.6580  137.7990 C   0  0  2  0  0  3  0  0  0  0  0  0
  189.7540  178.1690  139.1660 N   0  0  0  0  0  2  0  0  0  0  0  0
  189.5390  177.1450  141.3970 C   0  0  0  0  0  0  0  0  0  0  0  0
  189.8610  176.0980  142.3880 C   0  0  0  0  0  3  0  0  0  0  0  0
  189.0100  176.4980  143.5850 C   0  0  0  0  0  3  0  0  0  0  0  0
  188.7120  178.0410  141.8070 N   0  0  0  0  0  0  0  0  0  0  0  0
  190.0910  177.1590  140.0820 N   0  0  0  0  0  2  0  0  0  0  0  0
  188.3060  177.7920  143.1760 C   0  0  1  0  0  3  0  0  0  0  0  0
  186.7970  177.6090  143.2330 C   0  0  0  0  0  2  0  0  0  0  0  0
  186.2580  177.8800  144.6300 C   0  0  0  0  0  2  0  0  0  0  0  0
  184.3000  178.3580  143.3480 O   0  0  0  0  0  1  0  0  0  0  0  0
  184.9100  178.5780  144.5830 C   0  0  0  0  0  2  0  0  0  0  0  0
  187.3280  176.5620  137.9100 S   0  0  0  0  0  0  0  0  0  0  0  0
  184.9360  179.4410  139.4730 N   0  0  0  0  0  2  0  0  0  0  0  0
  184.7000  177.2880  137.6380 C   0  0  0  0  0  2  0  0  0  0  0  0
  183.7270  179.2890  138.7180 C   0  0  0  0  0  0  0  0  0  0  0  0
  186.0670  177.8740  137.9800 C   0  0  1  0  0  3  0  0  0  0  0  0
  183.6150  178.3140  137.8130 C   0  0  0  0  0  3  0  0  0  0  0  0
  186.0190  178.4640  139.3860 C   0  0  0  0  0  2  0  0  0  0  0  0
  182.4400  180.4610  138.8920 Cl  0  0  0  0  0  0  0  0  0  0  0  0
  192.1500  176.4800  138.4660 C   0  0  0  0  0  2  0  0  0  0  0  0
  195.4340  175.1870  136.1050 C   0  0  0  0  0  0  0  0  0  0  0  0
  193.7520  174.6940  137.7600 C   0  0  0  0  0  3  0  0  0  0  0  0
  193.9080  176.8500  136.7680 N   0  0  0  0  0  0  0  0  0  0  0  0
  193.2900  176.0030  137.6320 C   0  0  0  0  0  0  0  0  0  0  0  0
  194.8340  174.2800  136.9870 C   0  0  0  0  0  3  0  0  0  0  0  0
  194.9450  176.4530  136.0270 N   0  0  0  0  0  0  0  0  0  0  0  0
  196.5210  174.8230  135.3060 O   0  0  0  0  0  0  0  0  0  0  0  0
  197.8400  175.3000  135.5400 C   0  0  0  0  0  1  0  0  0  0  0  0
  1  5  1  6  0  0  0
  1  7  1  0  0  0  0
  1 19  1  0  0  0  0
  2  6  2  0  0  0  0
  3  2  1  0  0  0  0
  4  3  1  0  0  0  0
  4  1  1  0  0  0  0
  6  7  1  0  0  0  0
  6 27  1  0  0  0  0
  7  8  1  1  0  0  0
  8 13  1  0  0  0  0
  9 12  2  0  0  0  0
  9 10  1  0  0  0  0
 10 11  2  0  0  0  0
 12 14  1  0  0  0  0
 13  9  1  0  0  0  0
 14 15  1  6  0  0  0
 14 11  1  0  0  0  0
 15 16  1  0  0  0  0
 17 18  1  0  0  0  0
 18 16  1  0  0  0  0
 21 24  1  0  0  0  0
 21 23  1  0  0  0  0
 22 26  1  0  0  0  0
 22 20  1  0  0  0  0
 23 19  1  1  0  0  0
 23 25  1  0  0  0  0
 24 22  2  0  0  0  0
 25 20  1  0  0  0  0
 28 32  1  0  0  0  0
 30 31  2  0  0  0  0
 31 29  1  0  0  0  0
 31 27  1  0  0  0  0
 32 29  2  0  0  0  0
 33 28  2  0  0  0  0
 33 30  1  0  0  0  0
 34 35  1  0  0  0  0
 34 28  1  0  0  0  0
M  END
>  <MODEL>
5

>  <REMARK>
 VINA RESULT:      -6.6      4.657      7.353
  Name = 
  10 active torsions:
  status: ('A' for Active; 'I' for Inactive)
    1  A    between atoms: C_1  and  O_15
    2  A    between atoms: C_3  and  S_24
    3  A    between atoms: N_6  and  N_27
    4  A    between atoms: N_6  and  C_34
    5  A    between atoms: C_8  and  C_14
    6  A    between atoms: C_8  and  C_30
    7  A    between atoms: C_13  and  S_24
    8  A    between atoms: C_14  and  C_26
    9  A    between atoms: C_22  and  C_28
   10  A    between atoms: C_28  and  C_31
                            x       y       z     vdW  Elec       q    Type
                         _______ _______ _______ _____ _____    ______ ____

>  <TORSDO>
F 10

$$$$
=
 OpenBabel10222419193D

 35 38  0  0  1  0  0  0  0  0999 V2000
  187.4560  175.8270  135.8190 C   0  0  2  0  0  0  0  0  0  0  0  0
  189.8930  177.2500  136.5780 C   0  0  0  0  0  3  0  0  0  0  0  0
  189.9310  176.1800  135.5230 C   0  0  0  0  0  2  0  0  0  0  0  0
  188.5860  176.0520  134.8090 C   0  0  0  0  0  2  0  0  0  0  0  0
  186.1390  175.7930  135.0620 C   0  0  0  0  0  1  0  0  0  0  0  0
  188.7660  177.5850  137.2270 C   0  0  0  0  0  0  0  0  0  0  0  0
  187.4190  177.0280  136.7930 C   0  0  2  0  0  3  0  0  0  0  0  0
  186.4390  176.8960  137.8780 N   0  0  0  0  0  2  0  0  0  0  0  0
  184.6240  178.2690  138.8260 C   0  0  0  0  0  0  0  0  0  0  0  0
  183.5710  179.2970  138.7110 C   0  0  0  0  0  3  0  0  0  0  0  0
  183.0310  179.3830  140.1310 C   0  0  0  0  0  3  0  0  0  0  0  0
  184.7570  177.7600  140.0000 N   0  0  0  0  0  0  0  0  0  0  0  0
  185.4410  177.8740  137.7260 N   0  0  0  0  0  2  0  0  0  0  0  0
  183.8060  178.3360  140.9310 C   0  0  1  0  0  3  0  0  0  0  0  0
  184.5550  179.0000  142.0760 C   0  0  0  0  0  2  0  0  0  0  0  0
  184.1970  178.3660  143.4130 C   0  0  0  0  0  2  0  0  0  0  0  0
  183.8080  179.0030  145.6820 O   0  0  0  0  0  1  0  0  0  0  0  0
  183.5680  179.3750  144.3590 C   0  0  0  0  0  2  0  0  0  0  0  0
  187.6920  174.2310  136.7080 S   0  0  0  0  0  0  0  0  0  0  0  0
  183.9930  172.6690  137.2850 N   0  0  0  0  0  2  0  0  0  0  0  0
  186.2330  172.1890  135.6080 C   0  0  0  0  0  2  0  0  0  0  0  0
  183.8800  171.7270  136.2110 C   0  0  0  0  0  0  0  0  0  0  0  0
  186.0580  173.5340  136.3090 C   0  0  1  0  0  3  0  0  0  0  0  0
  184.9050  171.5240  135.3800 C   0  0  0  0  0  3  0  0  0  0  0  0
  185.2610  173.3260  137.5930 C   0  0  0  0  0  2  0  0  0  0  0  0
  182.3520  170.9300  135.9110 Cl  0  0  0  0  0  0  0  0  0  0  0  0
  188.8270  178.7020  138.2230 C   0  0  0  0  0  2  0  0  0  0  0  0
  189.3320  177.1950  142.1610 C   0  0  0  0  0  0  0  0  0  0  0  0
  188.0920  178.5620  140.6100 C   0  0  0  0  0  3  0  0  0  0  0  0
  189.9990  177.3260  139.9090 N   0  0  0  0  0  0  0  0  0  0  0  0
  188.9770  178.1690  139.6080 C   0  0  0  0  0  0  0  0  0  0  0  0
  188.2680  178.0680  141.9000 C   0  0  0  0  0  3  0  0  0  0  0  0
  190.1680  176.8530  141.1460 N   0  0  0  0  0  0  0  0  0  0  0  0
  189.5540  176.6710  143.4370 O   0  0  0  0  0  0  0  0  0  0  0  0
  188.9640  177.2210  144.6070 C   0  0  0  0  0  1  0  0  0  0  0  0
  1  5  1  6  0  0  0
  1 19  1  0  0  0  0
  1  7  1  0  0  0  0
  2  6  2  0  0  0  0
  3  2  1  0  0  0  0
  4  3  1  0  0  0  0
  4  1  1  0  0  0  0
  6 27  1  0  0  0  0
  7  6  1  0  0  0  0
  7  8  1  1  0  0  0
  9 12  2  0  0  0  0
 10  9  1  0  0  0  0
 10 11  2  0  0  0  0
 11 14  1  0  0  0  0
 12 14  1  0  0  0  0
 13  8  1  0  0  0  0
 13  9  1  0  0  0  0
 14 15  1  1  0  0  0
 15 16  1  0  0  0  0
 16 18  1  0  0  0  0
 18 17  1  0  0  0  0
 20 25  1  0  0  0  0
 21 23  1  0  0  0  0
 22 20  1  0  0  0  0
 23 19  1  1  0  0  0
 23 25  1  0  0  0  0
 24 21  1  0  0  0  0
 24 22  2  0  0  0  0
 26 22  1  0  0  0  0
 27 31  1  0  0  0  0
 28 34  1  0  0  0  0
 29 32  2  0  0  0  0
 30 33  1  0  0  0  0
 31 30  2  0  0  0  0
 31 29  1  0  0  0  0
 32 28  1  0  0  0  0
 33 28  2  0  0  0  0
 34 35  1  0  0  0  0
M  END
>  <MODEL>
6

>  <REMARK>
 VINA RESULT:      -6.4      3.957      7.232
  Name = 
  10 active torsions:
  status: ('A' for Active; 'I' for Inactive)
    1  A    between atoms: C_1  and  O_15
    2  A    between atoms: C_3  and  S_24
    3  A    between atoms: N_6  and  N_27
    4  A    between atoms: N_6  and  C_34
    5  A    between atoms: C_8  and  C_14
    6  A    between atoms: C_8  and  C_30
    7  A    between atoms: C_13  and  S_24
    8  A    between atoms: C_14  and  C_26
    9  A    between atoms: C_22  and  C_28
   10  A    between atoms: C_28  and  C_31
                            x       y       z     vdW  Elec       q    Type
                         _______ _______ _______ _____ _____    ______ ____

>  <TORSDO>
F 10

$$$$
=
 OpenBabel10222419193D

 35 38  0  0  1  0  0  0  0  0999 V2000
  190.8970  175.6250  136.9870 C   0  0  2  0  0  0  0  0  0  0  0  0
  189.4500  177.4270  135.1980 C   0  0  0  0  0  3  0  0  0  0  0  0
  190.2420  176.2750  134.6440 C   0  0  0  0  0  2  0  0  0  0  0  0
  190.3370  175.1280  135.6510 C   0  0  0  0  0  2  0  0  0  0  0  0
  190.8880  174.4660  137.9690 C   0  0  0  0  0  1  0  0  0  0  0  0
  189.3860  177.6940  136.5120 C   0  0  0  0  0  0  0  0  0  0  0  0
  189.9590  176.7270  137.5360 C   0  0  2  0  0  3  0  0  0  0  0  0
  190.4320  177.3620  138.7730 N   0  0  0  0  0  2  0  0  0  0  0  0
  189.4330  177.0000  140.9960 C   0  0  0  0  0  0  0  0  0  0  0  0
  188.3280  177.1350  141.9670 C   0  0  0  0  0  3  0  0  0  0  0  0
  188.9050  176.4930  143.2200 C   0  0  0  0  0  3  0  0  0  0  0  0
  190.4790  176.4020  141.4470 N   0  0  0  0  0  0  0  0  0  0  0  0
  189.3560  177.5030  139.6640 N   0  0  0  0  0  2  0  0  0  0  0  0
  190.2950  175.9940  142.8270 C   0  0  1  0  0  3  0  0  0  0  0  0
  191.3540  176.6520  143.6960 C   0  0  0  0  0  2  0  0  0  0  0  0
  190.7230  177.4860  144.8030 C   0  0  0  0  0  2  0  0  0  0  0  0
  192.0430  175.9480  146.0680 O   0  0  0  0  0  1  0  0  0  0  0  0
  191.2620  177.0990  146.1700 C   0  0  0  0  0  2  0  0  0  0  0  0
  192.6220  176.2360  136.7770 S   0  0  0  0  0  0  0  0  0  0  0  0
  195.2960  173.6200  138.3480 N   0  0  0  0  0  2  0  0  0  0  0  0
  194.0290  174.0770  135.8480 C   0  0  0  0  0  2  0  0  0  0  0  0
  195.4530  172.6620  137.2930 C   0  0  0  0  0  0  0  0  0  0  0  0
  193.4430  174.6510  137.1350 C   0  0  1  0  0  3  0  0  0  0  0  0
  194.8260  172.8330  136.1270 C   0  0  0  0  0  3  0  0  0  0  0  0
  194.5680  174.8700  138.1410 C   0  0  0  0  0  2  0  0  0  0  0  0
  196.3730  171.2010  137.5760 Cl  0  0  0  0  0  0  0  0  0  0  0  0
  188.5250  178.8340  136.9630 C   0  0  0  0  0  2  0  0  0  0  0  0
  184.5530  177.5820  137.7900 C   0  0  0  0  0  0  0  0  0  0  0  0
  186.4270  177.6590  136.2760 C   0  0  0  0  0  3  0  0  0  0  0  0
  186.5400  178.6680  138.4260 N   0  0  0  0  0  0  0  0  0  0  0  0
  187.1360  178.3700  137.2420 C   0  0  0  0  0  0  0  0  0  0  0  0
  185.1220  177.2580  136.5530 C   0  0  0  0  0  3  0  0  0  0  0  0
  185.2900  178.2840  138.6920 N   0  0  0  0  0  0  0  0  0  0  0  0
  183.2480  177.2030  138.1190 O   0  0  0  0  0  0  0  0  0  0  0  0
  182.3280  178.0850  138.7480 C   0  0  0  0  0  1  0  0  0  0  0  0
  1  7  1  0  0  0  0
  1  5  1  1  0  0  0
  2  6  2  0  0  0  0
  3  2  1  0  0  0  0
  3  4  1  0  0  0  0
  4  1  1  0  0  0  0
  6 27  1  0  0  0  0
  6  7  1  0  0  0  0
  7  8  1  1  0  0  0
  8 13  1  0  0  0  0
  9 12  2  0  0  0  0
  9 10  1  0  0  0  0
 10 11  2  0  0  0  0
 12 14  1  0  0  0  0
 13  9  1  0  0  0  0
 14 11  1  0  0  0  0
 14 15  1  1  0  0  0
 15 16  1  0  0  0  0
 16 18  1  0  0  0  0
 17 18  1  0  0  0  0
 19  1  1  0  0  0  0
 21 24  1  0  0  0  0
 21 23  1  0  0  0  0
 22 26  1  0  0  0  0
 22 20  1  0  0  0  0
 23 19  1  6  0  0  0
 23 25  1  0  0  0  0
 24 22  2  0  0  0  0
 25 20  1  0  0  0  0
 27 31  1  0  0  0  0
 28 34  1  0  0  0  0
 28 33  2  0  0  0  0
 29 32  2  0  0  0  0
 29 31  1  0  0  0  0
 30 33  1  0  0  0  0
 31 30  2  0  0  0  0
 32 28  1  0  0  0  0
 34 35  1  0  0  0  0
M  END
>  <MODEL>
7

>  <REMARK>
 VINA RESULT:      -6.4      4.353      6.621
  Name = 
  10 active torsions:
  status: ('A' for Active; 'I' for Inactive)
    1  A    between atoms: C_1  and  O_15
    2  A    between atoms: C_3  and  S_24
    3  A    between atoms: N_6  and  N_27
    4  A    between atoms: N_6  and  C_34
    5  A    between atoms: C_8  and  C_14
    6  A    between atoms: C_8  and  C_30
    7  A    between atoms: C_13  and  S_24
    8  A    between atoms: C_14  and  C_26
    9  A    between atoms: C_22  and  C_28
   10  A    between atoms: C_28  and  C_31
                            x       y       z     vdW  Elec       q    Type
                         _______ _______ _______ _____ _____    ______ ____

>  <TORSDO>
F 10

$$$$
=
 OpenBabel10222419193D

 35 38  0  0  1  0  0  0  0  0999 V2000
  181.4100  178.4960  141.0760 C   0  0  2  0  0  0  0  0  0  0  0  0
  182.9100  178.8290  143.5620 C   0  0  0  0  0  3  0  0  0  0  0  0
  181.4200  178.6240  143.5910 C   0  0  0  0  0  2  0  0  0  0  0  0
  180.9440  177.8300  142.3750 C   0  0  0  0  0  2  0  0  0  0  0  0
  180.9820  177.6210  139.9100 C   0  0  0  0  0  1  0  0  0  0  0  0
  183.6090  178.8910  142.4180 C   0  0  0  0  0  0  0  0  0  0  0  0
  182.9560  178.5630  141.0840 C   0  0  2  0  0  3  0  0  0  0  0  0
  183.5360  179.2680  139.9340 N   0  0  0  0  0  2  0  0  0  0  0  0
  184.7890  178.0910  138.1680 C   0  0  0  0  0  0  0  0  0  0  0  0
  184.8630  177.1850  137.0050 C   0  0  0  0  0  3  0  0  0  0  0  0
  186.3550  177.1430  136.7080 C   0  0  0  0  0  3  0  0  0  0  0  0
  185.9200  178.5690  138.5540 N   0  0  0  0  0  0  0  0  0  0  0  0
  183.5630  178.4070  138.8250 N   0  0  0  0  0  2  0  0  0  0  0  0
  187.0030  178.0900  137.7180 C   0  0  1  0  0  3  0  0  0  0  0  0
  188.0090  177.3360  138.5740 C   0  0  0  0  0  2  0  0  0  0  0  0
  188.7440  178.2750  139.5210 C   0  0  0  0  0  2  0  0  0  0  0  0
  188.6200  178.9620  141.8050 O   0  0  0  0  0  1  0  0  0  0  0  0
  188.5830  177.8460  140.9690 C   0  0  0  0  0  2  0  0  0  0  0  0
  180.6530  180.1670  140.8980 S   0  0  0  0  0  0  0  0  0  0  0  0
  181.0550  181.4000  137.0540 N   0  0  0  0  0  2  0  0  0  0  0  0
  179.0650  180.1730  138.6660 C   0  0  0  0  0  2  0  0  0  0  0  0
  179.8560  180.9090  136.4410 C   0  0  0  0  0  0  0  0  0  0  0  0
  180.5340  180.1410  139.0820 C   0  0  1  0  0  3  0  0  0  0  0  0
  178.9310  180.2840  137.1720 C   0  0  0  0  0  3  0  0  0  0  0  0
  181.2420  181.3620  138.5030 C   0  0  0  0  0  2  0  0  0  0  0  0
  179.6600  181.0190  134.7060 Cl  0  0  0  0  0  0  0  0  0  0  0  0
  185.0960  179.0450  142.5030 C   0  0  0  0  0  2  0  0  0  0  0  0
  186.4150  178.1670  146.4430 C   0  0  0  0  0  0  0  0  0  0  0  0
  186.3470  177.5860  144.1040 C   0  0  0  0  0  3  0  0  0  0  0  0
  185.2580  179.5370  144.9190 N   0  0  0  0  0  0  0  0  0  0  0  0
  185.5840  178.7290  143.8760 C   0  0  0  0  0  0  0  0  0  0  0  0
  186.7690  177.3020  145.4000 C   0  0  0  0  0  3  0  0  0  0  0  0
  185.6640  179.2640  146.1620 N   0  0  0  0  0  0  0  0  0  0  0  0
  186.8130  177.9290  147.7610 O   0  0  0  0  0  0  0  0  0  0  0  0
  188.1310  178.1900  148.2240 C   0  0  0  0  0  1  0  0  0  0  0  0
  1  5  1  6  0  0  0
  1  7  1  0  0  0  0
  1  4  1  0  0  0  0
  2  3  1  0  0  0  0
  4  3  1  0  0  0  0
  6 27  1  0  0  0  0
  6  2  2  0  0  0  0
  7  8  1  6  0  0  0
  7  6  1  0  0  0  0
  9 12  2  0  0  0  0
  9 13  1  0  0  0  0
 10  9  1  0  0  0  0
 11 10  2  0  0  0  0
 11 14  1  0  0  0  0
 13  8  1  0  0  0  0
 14 12  1  0  0  0  0
 14 15  1  1  0  0  0
 15 16  1  0  0  0  0
 16 18  1  0  0  0  0
 18 17  1  0  0  0  0
 19  1  1  0  0  0  0
 20 25  1  0  0  0  0
 21 23  1  0  0  0  0
 22 20  1  0  0  0  0
 22 24  2  0  0  0  0
 23 19  1  1  0  0  0
 24 21  1  0  0  0  0
 25 23  1  0  0  0  0
 26 22  1  0  0  0  0
 27 31  1  0  0  0  0
 28 34  1  0  0  0  0
 29 32  2  0  0  0  0
 30 33  1  0  0  0  0
 31 29  1  0  0  0  0
 31 30  2  0  0  0  0
 32 28  1  0  0  0  0
 33 28  2  0  0  0  0
 34 35  1  0  0  0  0
M  END
>  <MODEL>
8

>  <REMARK>
 VINA RESULT:      -6.1      4.735      9.637
  Name = 
  10 active torsions:
  status: ('A' for Active; 'I' for Inactive)
    1  A    between atoms: C_1  and  O_15
    2  A    between atoms: C_3  and  S_24
    3  A    between atoms: N_6  and  N_27
    4  A    between atoms: N_6  and  C_34
    5  A    between atoms: C_8  and  C_14
    6  A    between atoms: C_8  and  C_30
    7  A    between atoms: C_13  and  S_24
    8  A    between atoms: C_14  and  C_26
    9  A    between atoms: C_22  and  C_28
   10  A    between atoms: C_28  and  C_31
                            x       y       z     vdW  Elec       q    Type
                         _______ _______ _______ _____ _____    ______ ____

>  <TORSDO>
F 10

$$$$
=
 OpenBabel10222419193D

 35 38  0  0  1  0  0  0  0  0999 V2000
  189.6700  175.4310  136.5500 C   0  0  2  0  0  0  0  0  0  0  0  0
  187.5560  176.9810  135.2570 C   0  0  0  0  0  3  0  0  0  0  0  0
  188.1170  175.7530  134.5940 C   0  0  0  0  0  2  0  0  0  0  0  0
  188.6520  174.7580  135.6230 C   0  0  0  0  0  2  0  0  0  0  0  0
  190.0990  174.4210  137.6000 C   0  0  0  0  0  1  0  0  0  0  0  0
  188.0010  177.4300  136.4410 C   0  0  0  0  0  0  0  0  0  0  0  0
  188.9740  176.6090  137.2730 C   0  0  2  0  0  3  0  0  0  0  0  0
  189.8660  177.4060  138.1250 N   0  0  0  0  0  2  0  0  0  0  0  0
  189.5000  177.1610  140.5500 C   0  0  0  0  0  0  0  0  0  0  0  0
  189.7060  176.4660  141.8360 C   0  0  0  0  0  3  0  0  0  0  0  0
  188.8520  177.2810  142.7970 C   0  0  0  0  0  3  0  0  0  0  0  0
  188.7350  178.1940  140.6100 N   0  0  0  0  0  0  0  0  0  0  0  0
  190.0930  176.7200  139.3300 N   0  0  0  0  0  2  0  0  0  0  0  0
  188.2670  178.4200  141.9640 C   0  0  1  0  0  3  0  0  0  0  0  0
  186.7470  178.3640  141.9910 C   0  0  0  0  0  2  0  0  0  0  0  0
  186.2330  177.9740  143.3700 C   0  0  0  0  0  2  0  0  0  0  0  0
  184.7670  178.7730  145.0790 O   0  0  0  0  0  1  0  0  0  0  0  0
  184.9240  178.6740  143.6960 C   0  0  0  0  0  2  0  0  0  0  0  0
  191.1440  175.9880  135.5950 S   0  0  0  0  0  0  0  0  0  0  0  0
  194.2640  175.7220  138.1730 N   0  0  0  0  0  2  0  0  0  0  0  0
  193.3320  174.3610  135.8620 C   0  0  0  0  0  2  0  0  0  0  0  0
  194.9050  174.5060  137.7650 C   0  0  0  0  0  0  0  0  0  0  0  0
  192.3880  175.2320  136.6880 C   0  0  1  0  0  3  0  0  0  0  0  0
  194.4510  173.8240  136.7110 C   0  0  0  0  0  3  0  0  0  0  0  0
  193.1960  176.3250  137.3790 C   0  0  0  0  0  2  0  0  0  0  0  0
  196.2110  173.8480  138.7250 Cl  0  0  0  0  0  0  0  0  0  0  0  0
  187.3360  178.6310  137.0390 C   0  0  0  0  0  2  0  0  0  0  0  0
  183.6480  177.6330  138.8930 C   0  0  0  0  0  0  0  0  0  0  0  0
  185.3360  177.1430  137.2430 C   0  0  0  0  0  3  0  0  0  0  0  0
  185.5440  179.0120  138.6990 N   0  0  0  0  0  0  0  0  0  0  0  0
  186.0480  178.2550  137.6890 C   0  0  0  0  0  0  0  0  0  0  0  0
  184.1240  176.8270  137.8520 C   0  0  0  0  0  3  0  0  0  0  0  0
  184.3830  178.7090  139.2820 N   0  0  0  0  0  0  0  0  0  0  0  0
  182.4390  177.3610  139.5380 O   0  0  0  0  0  0  0  0  0  0  0  0
  181.9320  178.1680  140.5920 C   0  0  0  0  0  1  0  0  0  0  0  0
  1  7  1  0  0  0  0
  1  5  1  1  0  0  0
  2  6  2  0  0  0  0
  3  2  1  0  0  0  0
  3  4  1  0  0  0  0
  4  1  1  0  0  0  0
  6 27  1  0  0  0  0
  6  7  1  0  0  0  0
  7  8  1  6  0  0  0
  8 13  1  0  0  0  0
  9 12  2  0  0  0  0
  9 10  1  0  0  0  0
 10 11  2  0  0  0  0
 12 14  1  0  0  0  0
 13  9  1  0  0  0  0
 14 15  1  6  0  0  0
 14 11  1  0  0  0  0
 15 16  1  0  0  0  0
 16 18  1  0  0  0  0
 18 17  1  0  0  0  0
 19  1  1  0  0  0  0
 21 23  1  0  0  0  0
 21 24  1  0  0  0  0
 22 20  1  0  0  0  0
 22 26  1  0  0  0  0
 23 19  1  6  0  0  0
 23 25  1  0  0  0  0
 24 22  2  0  0  0  0
 25 20  1  0  0  0  0
 27 31  1  0  0  0  0
 28 33  2  0  0  0  0
 28 34  1  0  0  0  0
 29 31  1  0  0  0  0
 29 32  2  0  0  0  0
 30 33  1  0  0  0  0
 31 30  2  0  0  0  0
 32 28  1  0  0  0  0
 34 35  1  0  0  0  0
M  END
>  <MODEL>
9

>  <REMARK>
 VINA RESULT:      -6.1      3.707      6.139
  Name = 
  10 active torsions:
  status: ('A' for Active; 'I' for Inactive)
    1  A    between atoms: C_1  and  O_15
    2  A    between atoms: C_3  and  S_24
    3  A    between atoms: N_6  and  N_27
    4  A    between atoms: N_6  and  C_34
    5  A    between atoms: C_8  and  C_14
    6  A    between atoms: C_8  and  C_30
    7  A    between atoms: C_13  and  S_24
    8  A    between atoms: C_14  and  C_26
    9  A    between atoms: C_22  and  C_28
   10  A    between atoms: C_28  and  C_31
                            x       y       z     vdW  Elec       q    Type
                         _______ _______ _______ _____ _____    ______ ____

>  <TORSDO>
F 10

$$$$
