=
 OpenBabel10222418093D

 25 28  0  0  1  0  0  0  0  0999 V2000
  188.1940  177.8880  145.8150 C   0  0  1  0  0  3  0  0  0  0  0  0
  189.9910  176.9950  144.2060 N   0  0  0  0  0  0  0  0  0  0  0  0
  188.6310  177.3670  144.4680 C   0  0  0  0  0  0  0  0  0  0  0  0
  191.7050  178.6950  144.6230 C   0  0  0  0  0  1  0  0  0  0  0  0
  192.0290  177.0270  147.2320 O   0  0  0  0  0  1  0  0  0  0  0  0
  191.1640  177.3330  145.0210 C   0  0  1  0  0  3  0  0  0  0  0  0
  190.9250  176.9590  141.9450 C   0  0  0  0  0  2  0  0  0  0  0  0
  188.6660  176.7070  142.2860 N   0  0  0  0  0  0  0  0  0  0  0  0
  190.2080  177.1370  140.6810 C   0  0  0  0  0  0  0  0  0  0  0  0
  190.7660  177.3450  139.5720 O   0  0  0  0  0  0  0  0  0  0  0  0
  189.7700  176.3240  146.8990 C   0  0  0  0  0  2  0  0  0  0  0  0
  187.8860  177.2350  143.3580 C   0  0  0  0  0  0  0  0  0  0  0  0
  189.9690  176.6820  142.8200 C   0  0  2  0  0  3  0  0  0  0  0  0
  186.8560  178.2860  145.8180 O   0  0  0  0  0  1  0  0  0  0  0  0
  190.8640  177.3290  146.5280 C   0  0  1  0  0  3  0  0  0  0  0  0
  188.7310  177.1150  140.8950 C   0  0  0  0  0  2  0  0  0  0  0  0
  188.4170  176.9090  146.8870 N   0  0  0  0  0  2  0  0  0  0  0  0
  186.5340  177.5640  143.2630 O   0  0  0  0  0  0  0  0  0  0  0  0
  186.0760  178.6250  142.4390 C   0  0  0  0  0  2  0  0  0  0  0  0
  183.7870  178.6020  141.4360 C   0  0  0  0  0  3  0  0  0  0  0  0
  181.8720  178.9140  142.7620 N   0  0  0  0  0  0  0  0  0  0  0  0
  184.0100  178.9700  143.8020 C   0  0  0  0  0  3  0  0  0  0  0  0
  182.4370  178.6920  141.5730 N   0  0  0  0  0  0  0  0  0  0  0  0
  182.6210  179.0550  143.8870 C   0  0  0  0  0  3  0  0  0  0  0  0
  184.5990  178.7490  142.5590 C   0  0  0  0  0  0  0  0  0  0  0  0
  1 14  1  6  0  0  0
  1 17  1  0  0  0  0
  2  3  1  0  0  0  0
  2  6  1  0  0  0  0
  3  1  1  0  0  0  0
  6  4  1  6  0  0  0
  6 15  1  0  0  0  0
  8 13  1  0  0  0  0
  8 12  1  0  0  0  0
  9 16  1  0  0  0  0
  9  7  1  0  0  0  0
 10  9  2  0  0  0  0
 12  3  2  0  0  0  0
 13  7  1  6  0  0  0
 13  2  1  0  0  0  0
 15 11  1  0  0  0  0
 15  5  1  1  0  0  0
 16  8  1  0  0  0  0
 17 11  1  0  0  0  0
 18 12  1  0  0  0  0
 19 25  1  0  0  0  0
 19 18  1  0  0  0  0
 20 23  2  0  0  0  0
 20 25  1  0  0  0  0
 21 24  2  0  0  0  0
 22 24  1  0  0  0  0
 23 21  1  0  0  0  0
 25 22  2  0  0  0  0
M  END
>  <MODEL>
1

>  <REMARK>
 VINA RESULT:      -7.8      0.000      0.000
  Name = 
  3 active torsions:
  status: ('A' for Active; 'I' for Inactive)
    1  A    between atoms: O_6  and  C_17
    2  A    between atoms: O_6  and  C_19
    3  A    between atoms: C_19  and  C_24
                            x       y       z     vdW  Elec       q    Type
                         _______ _______ _______ _____ _____    ______ ____

>  <TORSDO>
F 3

$$$$
=
 OpenBabel10222418093D

 25 28  0  0  1  0  0  0  0  0999 V2000
  190.1880  176.2070  144.1290 C   0  0  1  0  0  3  0  0  0  0  0  0
  188.9400  177.5990  145.8950 N   0  0  0  0  0  0  0  0  0  0  0  0
  189.0400  177.0860  144.5590 C   0  0  0  0  0  0  0  0  0  0  0  0
  188.9760  175.9600  147.7170 C   0  0  0  0  0  1  0  0  0  0  0  0
  191.9380  176.9100  147.8570 O   0  0  0  0  0  1  0  0  0  0  0  0
  189.6880  177.1350  147.0700 C   0  0  1  0  0  3  0  0  0  0  0  0
  186.8050  178.2790  146.8780 C   0  0  0  0  0  2  0  0  0  0  0  0
  187.1050  178.2910  144.5990 N   0  0  0  0  0  0  0  0  0  0  0  0
  185.5090  178.3900  146.2060 C   0  0  0  0  0  0  0  0  0  0  0  0
  184.4080  178.5130  146.8030 O   0  0  0  0  0  0  0  0  0  0  0  0
  191.7030  177.5320  145.5630 C   0  0  0  0  0  2  0  0  0  0  0  0
  187.9720  177.4550  143.8340 C   0  0  0  0  0  0  0  0  0  0  0  0
  187.6810  178.2580  145.8840 C   0  0  2  0  0  3  0  0  0  0  0  0
  190.0330  175.7380  142.8240 O   0  0  0  0  0  1  0  0  0  0  0  0
  191.1310  176.7280  146.7340 C   0  0  1  0  0  3  0  0  0  0  0  0
  185.6600  178.2640  144.7260 C   0  0  0  0  0  2  0  0  0  0  0  0
  191.4850  176.8860  144.2560 N   0  0  0  0  0  2  0  0  0  0  0  0
  187.7390  177.0770  142.5110 O   0  0  0  0  0  0  0  0  0  0  0  0
  188.2530  177.8190  141.4170 C   0  0  0  0  0  2  0  0  0  0  0  0
  187.2350  178.2380  139.1730 C   0  0  0  0  0  3  0  0  0  0  0  0
  185.0580  179.0980  138.9620 N   0  0  0  0  0  0  0  0  0  0  0  0
  185.9500  178.7500  141.1400 C   0  0  0  0  0  3  0  0  0  0  0  0
  186.1880  178.6490  138.4100 N   0  0  0  0  0  0  0  0  0  0  0  0
  184.9060  179.1600  140.3120 C   0  0  0  0  0  3  0  0  0  0  0  0
  187.1320  178.2910  140.5620 C   0  0  0  0  0  0  0  0  0  0  0  0
  1 14  1  6  0  0  0
  1 17  1  0  0  0  0
  1  3  1  0  0  0  0
  2  6  1  0  0  0  0
  3  2  1  0  0  0  0
  6  4  1  6  0  0  0
  8 16  1  0  0  0  0
  8 13  1  0  0  0  0
  9 10  2  0  0  0  0
  9  7  1  0  0  0  0
 11 15  1  0  0  0  0
 12  3  2  0  0  0  0
 12  8  1  0  0  0  0
 13  2  1  0  0  0  0
 13  7  1  1  0  0  0
 15  6  1  0  0  0  0
 15  5  1  1  0  0  0
 16  9  1  0  0  0  0
 17 11  1  0  0  0  0
 18 12  1  0  0  0  0
 19 18  1  0  0  0  0
 20 25  1  0  0  0  0
 21 24  2  0  0  0  0
 23 21  1  0  0  0  0
 23 20  2  0  0  0  0
 24 22  1  0  0  0  0
 25 22  2  0  0  0  0
 25 19  1  0  0  0  0
M  END
>  <MODEL>
2

>  <REMARK>
 VINA RESULT:      -7.8      2.171      4.259
  Name = 
  3 active torsions:
  status: ('A' for Active; 'I' for Inactive)
    1  A    between atoms: O_6  and  C_17
    2  A    between atoms: O_6  and  C_19
    3  A    between atoms: C_19  and  C_24
                            x       y       z     vdW  Elec       q    Type
                         _______ _______ _______ _____ _____    ______ ____

>  <TORSDO>
F 3

$$$$
=
 OpenBabel10222418093D

 25 28  0  0  1  0  0  0  0  0999 V2000
  185.5650  177.7600  144.3680 C   0  0  1  0  0  3  0  0  0  0  0  0
  185.4210  178.7400  141.9940 N   0  0  0  0  0  0  0  0  0  0  0  0
  186.1920  178.1590  143.0550 C   0  0  0  0  0  0  0  0  0  0  0  0
  183.4790  177.4660  141.2110 C   0  0  0  0  0  1  0  0  0  0  0  0
  182.0130  179.5150  143.0420 O   0  0  0  0  0  1  0  0  0  0  0  0
  183.9580  178.7450  141.8760 C   0  0  1  0  0  3  0  0  0  0  0  0
  186.1270  178.6320  139.6540 C   0  0  0  0  0  2  0  0  0  0  0  0
  187.6700  178.5020  141.3520 N   0  0  0  0  0  0  0  0  0  0  0  0
  187.4040  178.1470  139.1290 C   0  0  0  0  0  0  0  0  0  0  0  0
  187.6230  177.8940  137.9160 O   0  0  0  0  0  0  0  0  0  0  0  0
  184.0790  179.7280  144.2240 C   0  0  0  0  0  2  0  0  0  0  0  0
  187.4680  177.9930  142.6700 C   0  0  0  0  0  0  0  0  0  0  0  0
  186.3680  178.8450  140.9390 C   0  0  2  0  0  3  0  0  0  0  0  0
  186.4740  177.1220  145.2140 O   0  0  0  0  0  1  0  0  0  0  0  0
  183.2520  178.9040  143.2320 C   0  0  1  0  0  3  0  0  0  0  0  0
  188.3860  177.9220  140.2310 C   0  0  0  0  0  2  0  0  0  0  0  0
  184.9630  178.9040  145.0660 N   0  0  0  0  0  2  0  0  0  0  0  0
  188.4650  177.4050  143.4500 O   0  0  0  0  0  0  0  0  0  0  0  0
  189.6540  178.0980  143.7950 C   0  0  0  0  0  2  0  0  0  0  0  0
  191.4550  177.0370  145.1650 C   0  0  0  0  0  3  0  0  0  0  0  0
  191.1840  176.6840  147.4720 N   0  0  0  0  0  0  0  0  0  0  0  0
  189.4070  177.6840  146.2470 C   0  0  0  0  0  3  0  0  0  0  0  0
  191.9230  176.5980  146.3630 N   0  0  0  0  0  0  0  0  0  0  0  0
  189.9340  177.2170  147.4510 C   0  0  0  0  0  3  0  0  0  0  0  0
  190.1750  177.5840  145.0890 C   0  0  0  0  0  0  0  0  0  0  0  0
  1 17  1  0  0  0  0
  1 14  1  1  0  0  0
  2  3  1  0  0  0  0
  3  1  1  0  0  0  0
  6  4  1  1  0  0  0
  6  2  1  0  0  0  0
  6 15  1  0  0  0  0
  8 12  1  0  0  0  0
  9  7  1  0  0  0  0
  9 16  1  0  0  0  0
 10  9  2  0  0  0  0
 11 17  1  0  0  0  0
 12  3  2  0  0  0  0
 12 18  1  0  0  0  0
 13  7  1  6  0  0  0
 13  8  1  0  0  0  0
 13  2  1  0  0  0  0
 15  5  1  6  0  0  0
 15 11  1  0  0  0  0
 16  8  1  0  0  0  0
 18 19  1  0  0  0  0
 19 25  1  0  0  0  0
 20 23  1  0  0  0  0
 22 24  2  0  0  0  0
 23 21  2  0  0  0  0
 24 21  1  0  0  0  0
 25 20  2  0  0  0  0
 25 22  1  0  0  0  0
M  END
>  <MODEL>
3

>  <REMARK>
 VINA RESULT:      -7.7      2.202      6.365
  Name = 
  3 active torsions:
  status: ('A' for Active; 'I' for Inactive)
    1  A    between atoms: O_6  and  C_17
    2  A    between atoms: O_6  and  C_19
    3  A    between atoms: C_19  and  C_24
                            x       y       z     vdW  Elec       q    Type
                         _______ _______ _______ _____ _____    ______ ____

>  <TORSDO>
F 3

$$$$
=
 OpenBabel10222418093D

 25 28  0  0  1  0  0  0  0  0999 V2000
  187.6400  176.9010  143.2370 C   0  0  1  0  0  3  0  0  0  0  0  0
  190.0300  177.2450  144.1240 N   0  0  0  0  0  0  0  0  0  0  0  0
  188.6140  177.2000  144.3500 C   0  0  0  0  0  0  0  0  0  0  0  0
  191.0570  175.2530  143.1340 C   0  0  0  0  0  1  0  0  0  0  0  0
  190.8610  177.0210  140.5790 O   0  0  0  0  0  1  0  0  0  0  0  0
  190.7470  176.7280  142.9520 C   0  0  1  0  0  3  0  0  0  0  0  0
  191.6520  176.8890  145.9210 C   0  0  0  0  0  2  0  0  0  0  0  0
  189.5350  177.6540  146.3860 N   0  0  0  0  0  0  0  0  0  0  0  0
  191.3830  176.7660  147.3540 C   0  0  0  0  0  0  0  0  0  0  0  0
  192.2170  176.3510  148.2000 O   0  0  0  0  0  0  0  0  0  0  0  0
  189.0760  178.1690  141.6770 C   0  0  0  0  0  2  0  0  0  0  0  0
  188.3400  177.3990  145.6490 C   0  0  0  0  0  0  0  0  0  0  0  0
  190.5500  177.4380  145.4330 C   0  0  2  0  0  3  0  0  0  0  0  0
  186.3260  176.8040  143.6980 O   0  0  0  0  0  1  0  0  0  0  0  0
  189.9650  176.9220  141.6430 C   0  0  1  0  0  3  0  0  0  0  0  0
  189.9680  177.1280  147.6670 C   0  0  0  0  0  2  0  0  0  0  0  0
  187.7100  177.8930  142.1560 N   0  0  0  0  0  2  0  0  0  0  0  0
  187.0610  177.3650  146.2080 O   0  0  0  0  0  0  0  0  0  0  0  0
  186.4280  178.5330  146.7040 C   0  0  0  0  0  2  0  0  0  0  0  0
  185.6800  179.7530  144.6540 C   0  0  0  0  0  3  0  0  0  0  0  0
  183.4330  179.7230  143.9690 N   0  0  0  0  0  0  0  0  0  0  0  0
  184.0470  178.5490  145.9440 C   0  0  0  0  0  3  0  0  0  0  0  0
  184.6970  180.1130  143.7870 N   0  0  0  0  0  0  0  0  0  0  0  0
  183.0760  178.9470  145.0250 C   0  0  0  0  0  3  0  0  0  0  0  0
  185.3630  178.9650  145.7590 C   0  0  0  0  0  0  0  0  0  0  0  0
  1 14  1  1  0  0  0
  1  3  1  0  0  0  0
  2  3  1  0  0  0  0
  2 13  1  0  0  0  0
  3 12  2  0  0  0  0
  6  4  1  1  0  0  0
  6  2  1  0  0  0  0
  7  9  1  0  0  0  0
  8 16  1  0  0  0  0
  9 16  1  0  0  0  0
  9 10  2  0  0  0  0
 11 17  1  0  0  0  0
 12 18  1  0  0  0  0
 12  8  1  0  0  0  0
 13  7  1  1  0  0  0
 13  8  1  0  0  0  0
 15  5  1  6  0  0  0
 15 11  1  0  0  0  0
 15  6  1  0  0  0  0
 17  1  1  0  0  0  0
 18 19  1  0  0  0  0
 20 25  1  0  0  0  0
 21 24  2  0  0  0  0
 23 21  1  0  0  0  0
 23 20  2  0  0  0  0
 24 22  1  0  0  0  0
 25 22  2  0  0  0  0
 25 19  1  0  0  0  0
M  END
>  <MODEL>
4

>  <REMARK>
 VINA RESULT:      -7.5      1.585      4.267
  Name = 
  3 active torsions:
  status: ('A' for Active; 'I' for Inactive)
    1  A    between atoms: O_6  and  C_17
    2  A    between atoms: O_6  and  C_19
    3  A    between atoms: C_19  and  C_24
                            x       y       z     vdW  Elec       q    Type
                         _______ _______ _______ _____ _____    ______ ____

>  <TORSDO>
F 3

$$$$
=
 OpenBabel10222418093D

 25 28  0  0  1  0  0  0  0  0999 V2000
  185.6750  179.0990  141.7200 C   0  0  1  0  0  3  0  0  0  0  0  0
  186.0520  177.8730  143.9500 N   0  0  0  0  0  0  0  0  0  0  0  0
  186.5230  178.2720  142.6550 C   0  0  0  0  0  0  0  0  0  0  0  0
  185.3050  179.6560  145.4560 C   0  0  0  0  0  1  0  0  0  0  0  0
  182.5290  178.6840  144.4370 O   0  0  0  0  0  1  0  0  0  0  0  0
  184.8970  178.4230  144.6700 C   0  0  1  0  0  3  0  0  0  0  0  0
  187.5760  177.3030  145.7770 C   0  0  0  0  0  2  0  0  0  0  0  0
  188.2420  177.0990  143.5870 N   0  0  0  0  0  0  0  0  0  0  0  0
  189.0300  177.1530  145.7120 C   0  0  0  0  0  0  0  0  0  0  0  0
  189.7840  177.0930  146.7180 O   0  0  0  0  0  0  0  0  0  0  0  0
  183.6740  177.8780  142.5020 C   0  0  0  0  0  2  0  0  0  0  0  0
  187.7870  177.8580  142.4680 C   0  0  0  0  0  0  0  0  0  0  0  0
  187.1880  177.2300  144.5120 C   0  0  2  0  0  3  0  0  0  0  0  0
  186.3660  179.4600  140.5620 O   0  0  0  0  0  1  0  0  0  0  0  0
  183.7300  178.7820  143.7360 C   0  0  1  0  0  3  0  0  0  0  0  0
  189.5060  177.1550  144.2970 C   0  0  0  0  0  2  0  0  0  0  0  0
  184.4260  178.4170  141.3550 N   0  0  0  0  0  2  0  0  0  0  0  0
  188.5540  178.1280  141.3330 O   0  0  0  0  0  0  0  0  0  0  0  0
  189.3350  177.1280  140.7010 C   0  0  0  0  0  2  0  0  0  0  0  0
  189.7210  176.3540  138.3560 C   0  0  0  0  0  3  0  0  0  0  0  0
  189.4060  177.7960  136.5280 N   0  0  0  0  0  0  0  0  0  0  0  0
  189.0330  178.6280  138.7250 C   0  0  0  0  0  3  0  0  0  0  0  0
  189.7270  176.5970  137.0180 N   0  0  0  0  0  0  0  0  0  0  0  0
  189.0560  178.8250  137.3450 C   0  0  0  0  0  3  0  0  0  0  0  0
  189.3780  177.3790  139.2350 C   0  0  0  0  0  0  0  0  0  0  0  0
  1 14  1  6  0  0  0
  1  3  1  0  0  0  0
  2 13  1  0  0  0  0
  2  6  1  0  0  0  0
  3  2  1  0  0  0  0
  6  4  1  6  0  0  0
  8 16  1  0  0  0  0
  8 13  1  0  0  0  0
  9  7  1  0  0  0  0
  9 10  2  0  0  0  0
 11 15  1  0  0  0  0
 12  3  2  0  0  0  0
 12  8  1  0  0  0  0
 13  7  1  1  0  0  0
 15  5  1  1  0  0  0
 15  6  1  0  0  0  0
 16  9  1  0  0  0  0
 17  1  1  0  0  0  0
 17 11  1  0  0  0  0
 18 12  1  0  0  0  0
 19 18  1  0  0  0  0
 20 25  1  0  0  0  0
 21 23  1  0  0  0  0
 21 24  2  0  0  0  0
 22 25  2  0  0  0  0
 23 20  2  0  0  0  0
 24 22  1  0  0  0  0
 25 19  1  0  0  0  0
M  END
>  <MODEL>
5

>  <REMARK>
 VINA RESULT:      -7.4      2.618      6.269
  Name = 
  3 active torsions:
  status: ('A' for Active; 'I' for Inactive)
    1  A    between atoms: O_6  and  C_17
    2  A    between atoms: O_6  and  C_19
    3  A    between atoms: C_19  and  C_24
                            x       y       z     vdW  Elec       q    Type
                         _______ _______ _______ _____ _____    ______ ____

>  <TORSDO>
F 3

$$$$
=
 OpenBabel10222418093D

 25 28  0  0  1  0  0  0  0  0999 V2000
  191.6290  177.1650  139.4560 C   0  0  1  0  0  3  0  0  0  0  0  0
  189.0860  177.3400  139.1140 N   0  0  0  0  0  0  0  0  0  0  0  0
  190.2220  177.2770  139.9880 C   0  0  0  0  0  0  0  0  0  0  0  0
  189.0850  179.1150  137.4250 C   0  0  0  0  0  1  0  0  0  0  0  0
  189.9970  176.7380  135.6340 O   0  0  0  0  0  1  0  0  0  0  0  0
  189.1030  177.6170  137.6730 C   0  0  1  0  0  3  0  0  0  0  0  0
  186.9590  178.3340  139.8050 C   0  0  0  0  0  2  0  0  0  0  0  0
  188.4140  177.4740  141.3630 N   0  0  0  0  0  0  0  0  0  0  0  0
  186.5810  178.7890  141.1440 C   0  0  0  0  0  0  0  0  0  0  0  0
  185.5750  179.5030  141.3930 O   0  0  0  0  0  0  0  0  0  0  0  0
  190.7950  175.7130  137.6390 C   0  0  0  0  0  2  0  0  0  0  0  0
  189.8360  177.3900  141.2690 C   0  0  0  0  0  0  0  0  0  0  0  0
  188.0080  177.5530  140.0170 C   0  0  2  0  0  3  0  0  0  0  0  0
  192.5840  177.2230  140.4720 O   0  0  0  0  0  1  0  0  0  0  0  0
  190.3210  177.0030  136.9640 C   0  0  1  0  0  3  0  0  0  0  0  0
  187.5860  178.3590  142.1610 C   0  0  0  0  0  2  0  0  0  0  0  0
  191.8270  175.9420  138.6650 N   0  0  0  0  0  2  0  0  0  0  0  0
  190.7020  177.4180  142.3630 O   0  0  0  0  0  0  0  0  0  0  0  0
  190.6690  178.4650  143.3190 C   0  0  0  0  0  2  0  0  0  0  0  0
  191.6740  177.3470  145.3160 C   0  0  0  0  0  3  0  0  0  0  0  0
  190.3900  176.8790  147.2270 N   0  0  0  0  0  0  0  0  0  0  0  0
  189.3420  177.9280  145.3680 C   0  0  0  0  0  3  0  0  0  0  0  0
  191.5560  176.8510  146.5760 N   0  0  0  0  0  0  0  0  0  0  0  0
  189.2740  177.4060  146.6590 C   0  0  0  0  0  3  0  0  0  0  0  0
  190.5560  177.8900  144.6860 C   0  0  0  0  0  0  0  0  0  0  0  0
  1  3  1  0  0  0  0
  1 14  1  1  0  0  0
  2  3  1  0  0  0  0
  2 13  1  0  0  0  0
  3 12  2  0  0  0  0
  6  4  1  1  0  0  0
  6  2  1  0  0  0  0
  7  9  1  0  0  0  0
  8 16  1  0  0  0  0
  9 10  2  0  0  0  0
  9 16  1  0  0  0  0
 11 17  1  0  0  0  0
 12  8  1  0  0  0  0
 12 18  1  0  0  0  0
 13  7  1  6  0  0  0
 13  8  1  0  0  0  0
 15  5  1  6  0  0  0
 15 11  1  0  0  0  0
 15  6  1  0  0  0  0
 17  1  1  0  0  0  0
 18 19  1  0  0  0  0
 19 25  1  0  0  0  0
 20 23  1  0  0  0  0
 22 24  2  0  0  0  0
 23 21  2  0  0  0  0
 24 21  1  0  0  0  0
 25 20  2  0  0  0  0
 25 22  1  0  0  0  0
M  END
>  <MODEL>
6

>  <REMARK>
 VINA RESULT:      -7.4      3.031      7.026
  Name = 
  3 active torsions:
  status: ('A' for Active; 'I' for Inactive)
    1  A    between atoms: O_6  and  C_17
    2  A    between atoms: O_6  and  C_19
    3  A    between atoms: C_19  and  C_24
                            x       y       z     vdW  Elec       q    Type
                         _______ _______ _______ _____ _____    ______ ____

>  <TORSDO>
F 3

$$$$
=
 OpenBabel10222418093D

 25 28  0  0  1  0  0  0  0  0999 V2000
  190.1510  176.2260  144.0620 C   0  0  1  0  0  3  0  0  0  0  0  0
  188.9670  177.5890  145.8940 N   0  0  0  0  0  0  0  0  0  0  0  0
  189.0210  177.1010  144.5460 C   0  0  0  0  0  0  0  0  0  0  0  0
  189.0570  175.9160  147.6820 C   0  0  0  0  0  1  0  0  0  0  0  0
  192.0250  176.8530  147.7430 O   0  0  0  0  0  1  0  0  0  0  0  0
  189.7520  177.1010  147.0350 C   0  0  1  0  0  3  0  0  0  0  0  0
  186.8680  178.2570  146.9590 C   0  0  0  0  0  2  0  0  0  0  0  0
  187.0930  178.3120  144.6730 N   0  0  0  0  0  0  0  0  0  0  0  0
  185.5510  178.3860  146.3330 C   0  0  0  0  0  0  0  0  0  0  0  0
  184.4720  178.5010  146.9680 O   0  0  0  0  0  0  0  0  0  0  0  0
  191.7170  177.5190  145.4690 C   0  0  0  0  0  2  0  0  0  0  0  0
  187.9310  177.4870  143.8640 C   0  0  0  0  0  0  0  0  0  0  0  0
  187.7110  178.2530  145.9370 C   0  0  2  0  0  3  0  0  0  0  0  0
  189.9510  175.7820  142.7540 O   0  0  0  0  0  1  0  0  0  0  0  0
  191.1820  176.6960  146.6440 C   0  0  1  0  0  3  0  0  0  0  0  0
  185.6530  178.2860  144.8470 C   0  0  0  0  0  2  0  0  0  0  0  0
  191.4540  176.8980  144.1590 N   0  0  0  0  0  2  0  0  0  0  0  0
  187.6530  177.1350  142.5420 O   0  0  0  0  0  0  0  0  0  0  0  0
  187.4030  178.1100  141.5430 C   0  0  0  0  0  2  0  0  0  0  0  0
  187.7870  177.8780  139.0840 C   0  0  0  0  0  3  0  0  0  0  0  0
  189.9380  177.5050  138.2150 N   0  0  0  0  0  0  0  0  0  0  0  0
  189.6680  177.6940  140.5710 C   0  0  0  0  0  3  0  0  0  0  0  0
  188.6280  177.6880  138.0330 N   0  0  0  0  0  0  0  0  0  0  0  0
  190.4860  177.5030  139.4590 C   0  0  0  0  0  3  0  0  0  0  0  0
  188.3000  177.8750  140.3800 C   0  0  0  0  0  0  0  0  0  0  0  0
  1 14  1  6  0  0  0
  1 17  1  0  0  0  0
  1  3  1  0  0  0  0
  2 13  1  0  0  0  0
  2  6  1  0  0  0  0
  3  2  1  0  0  0  0
  6  4  1  6  0  0  0
  8 16  1  0  0  0  0
  8 13  1  0  0  0  0
  9  7  1  0  0  0  0
  9 10  2  0  0  0  0
 11 15  1  0  0  0  0
 12  3  2  0  0  0  0
 12  8  1  0  0  0  0
 13  7  1  1  0  0  0
 15  6  1  0  0  0  0
 15  5  1  1  0  0  0
 16  9  1  0  0  0  0
 17 11  1  0  0  0  0
 18 12  1  0  0  0  0
 19 18  1  0  0  0  0
 20 25  1  0  0  0  0
 21 24  2  0  0  0  0
 23 21  1  0  0  0  0
 23 20  2  0  0  0  0
 24 22  1  0  0  0  0
 25 22  2  0  0  0  0
 25 19  1  0  0  0  0
M  END
>  <MODEL>
7

>  <REMARK>
 VINA RESULT:      -7.4      2.447      5.126
  Name = 
  3 active torsions:
  status: ('A' for Active; 'I' for Inactive)
    1  A    between atoms: O_6  and  C_17
    2  A    between atoms: O_6  and  C_19
    3  A    between atoms: C_19  and  C_24
                            x       y       z     vdW  Elec       q    Type
                         _______ _______ _______ _____ _____    ______ ____

>  <TORSDO>
F 3

$$$$
=
 OpenBabel10222418093D

 25 28  0  0  1  0  0  0  0  0999 V2000
  185.8550  178.9900  141.5330 C   0  0  1  0  0  3  0  0  0  0  0  0
  186.1030  177.8430  143.8210 N   0  0  0  0  0  0  0  0  0  0  0  0
  186.6360  178.1710  142.5300 C   0  0  0  0  0  0  0  0  0  0  0  0
  185.3760  179.7140  145.2270 C   0  0  0  0  0  1  0  0  0  0  0  0
  182.6000  178.8080  144.1460 O   0  0  0  0  0  1  0  0  0  0  0  0
  184.9460  178.4660  144.4760 C   0  0  1  0  0  3  0  0  0  0  0  0
  187.5380  177.2900  145.7240 C   0  0  0  0  0  2  0  0  0  0  0  0
  188.2720  176.9710  143.5700 N   0  0  0  0  0  0  0  0  0  0  0  0
  188.9870  177.0810  145.7190 C   0  0  0  0  0  0  0  0  0  0  0  0
  189.7010  177.0340  146.7530 O   0  0  0  0  0  0  0  0  0  0  0  0
  183.7810  177.8800  142.2870 C   0  0  0  0  0  2  0  0  0  0  0  0
  187.8870  177.7010  142.4060 C   0  0  0  0  0  0  0  0  0  0  0  0
  187.1930  177.1810  144.4500 C   0  0  2  0  0  3  0  0  0  0  0  0
  186.5990  179.2780  140.3880 O   0  0  0  0  0  1  0  0  0  0  0  0
  183.8290  178.8310  143.4870 C   0  0  1  0  0  3  0  0  0  0  0  0
  189.5120  177.0070  144.3230 C   0  0  0  0  0  2  0  0  0  0  0  0
  184.5930  178.3420  141.1490 N   0  0  0  0  0  2  0  0  0  0  0  0
  188.7040  177.8950  141.2910 O   0  0  0  0  0  0  0  0  0  0  0  0
  189.0480  176.8310  140.4180 C   0  0  0  0  0  2  0  0  0  0  0  0
  191.4080  177.4730  140.9320 C   0  0  0  0  0  3  0  0  0  0  0  0
  193.1380  177.0950  139.3870 N   0  0  0  0  0  0  0  0  0  0  0  0
  190.9200  176.4680  138.8020 C   0  0  0  0  0  3  0  0  0  0  0  0
  192.7180  177.5370  140.5750 N   0  0  0  0  0  0  0  0  0  0  0  0
  192.2740  176.5580  138.4860 C   0  0  0  0  0  3  0  0  0  0  0  0
  190.4810  176.9390  140.0380 C   0  0  0  0  0  0  0  0  0  0  0  0
  1 14  1  6  0  0  0
  1  3  1  0  0  0  0
  2 13  1  0  0  0  0
  2  6  1  0  0  0  0
  3  2  1  0  0  0  0
  6  4  1  6  0  0  0
  8 16  1  0  0  0  0
  8 13  1  0  0  0  0
  9  7  1  0  0  0  0
  9 10  2  0  0  0  0
 11 15  1  0  0  0  0
 12  3  2  0  0  0  0
 12  8  1  0  0  0  0
 13  7  1  1  0  0  0
 15  5  1  1  0  0  0
 15  6  1  0  0  0  0
 16  9  1  0  0  0  0
 17  1  1  0  0  0  0
 17 11  1  0  0  0  0
 18 12  1  0  0  0  0
 19 18  1  0  0  0  0
 21 23  2  0  0  0  0
 22 25  1  0  0  0  0
 23 20  1  0  0  0  0
 24 22  2  0  0  0  0
 24 21  1  0  0  0  0
 25 19  1  0  0  0  0
 25 20  2  0  0  0  0
M  END
>  <MODEL>
8

>  <REMARK>
 VINA RESULT:      -7.4      2.357      6.785
  Name = 
  3 active torsions:
  status: ('A' for Active; 'I' for Inactive)
    1  A    between atoms: O_6  and  C_17
    2  A    between atoms: O_6  and  C_19
    3  A    between atoms: C_19  and  C_24
                            x       y       z     vdW  Elec       q    Type
                         _______ _______ _______ _____ _____    ______ ____

>  <TORSDO>
F 3

$$$$
=
 OpenBabel10222418093D

 25 28  0  0  1  0  0  0  0  0999 V2000
  190.9100  177.3560  139.9350 C   0  0  1  0  0  3  0  0  0  0  0  0
  188.5470  177.4570  138.9250 N   0  0  0  0  0  0  0  0  0  0  0  0
  189.4130  177.4960  140.0670 C   0  0  0  0  0  0  0  0  0  0  0  0
  189.0060  179.0600  137.1300 C   0  0  0  0  0  1  0  0  0  0  0  0
  190.3320  176.5350  135.8800 O   0  0  0  0  0  1  0  0  0  0  0  0
  188.9440  177.5930  137.5190 C   0  0  1  0  0  3  0  0  0  0  0  0
  186.3230  178.4780  138.9350 C   0  0  0  0  0  2  0  0  0  0  0  0
  187.3100  177.7960  140.8960 N   0  0  0  0  0  0  0  0  0  0  0  0
  185.6110  179.0540  140.0770 C   0  0  0  0  0  0  0  0  0  0  0  0
  184.5820  179.7720  139.9830 O   0  0  0  0  0  0  0  0  0  0  0  0
  190.5670  175.7220  138.1140 C   0  0  0  0  0  2  0  0  0  0  0  0
  188.7060  177.7260  141.1850 C   0  0  0  0  0  0  0  0  0  0  0  0
  187.2720  177.7380  139.4890 C   0  0  2  0  0  3  0  0  0  0  0  0
  191.5650  177.5270  141.1550 O   0  0  0  0  0  1  0  0  0  0  0  0
  190.2980  176.9330  137.2160 C   0  0  1  0  0  3  0  0  0  0  0  0
  186.3110  178.7410  141.3590 C   0  0  0  0  0  2  0  0  0  0  0  0
  191.2960  176.0660  139.3470 N   0  0  0  0  0  2  0  0  0  0  0  0
  189.2550  177.8730  142.4600 O   0  0  0  0  0  0  0  0  0  0  0  0
  189.3040  176.7990  143.3850 C   0  0  0  0  0  2  0  0  0  0  0  0
  187.1670  177.2760  144.5890 C   0  0  0  0  0  3  0  0  0  0  0  0
  187.1470  177.7800  146.8840 N   0  0  0  0  0  0  0  0  0  0  0  0
  189.2320  177.3590  145.8190 C   0  0  0  0  0  3  0  0  0  0  0  0
  186.5000  177.5850  145.7330 N   0  0  0  0  0  0  0  0  0  0  0  0
  188.5000  177.6750  146.9630 C   0  0  0  0  0  3  0  0  0  0  0  0
  188.5560  177.1660  144.6170 C   0  0  0  0  0  0  0  0  0  0  0  0
  1  3  1  0  0  0  0
  1 14  1  1  0  0  0
  2 13  1  0  0  0  0
  2  3  1  0  0  0  0
  3 12  2  0  0  0  0
  6  4  1  1  0  0  0
  6  2  1  0  0  0  0
  7  9  1  0  0  0  0
  8 12  1  0  0  0  0
  8 16  1  0  0  0  0
  9 16  1  0  0  0  0
 10  9  2  0  0  0  0
 11 17  1  0  0  0  0
 12 18  1  0  0  0  0
 13  7  1  6  0  0  0
 13  8  1  0  0  0  0
 15  5  1  6  0  0  0
 15  6  1  0  0  0  0
 15 11  1  0  0  0  0
 17  1  1  0  0  0  0
 18 19  1  0  0  0  0
 19 25  1  0  0  0  0
 20 25  2  0  0  0  0
 20 23  1  0  0  0  0
 21 24  1  0  0  0  0
 22 24  2  0  0  0  0
 23 21  2  0  0  0  0
 25 22  1  0  0  0  0
M  END
>  <MODEL>
9

>  <REMARK>
 VINA RESULT:      -7.2      2.903      6.309
  Name = 
  3 active torsions:
  status: ('A' for Active; 'I' for Inactive)
    1  A    between atoms: O_6  and  C_17
    2  A    between atoms: O_6  and  C_19
    3  A    between atoms: C_19  and  C_24
                            x       y       z     vdW  Elec       q    Type
                         _______ _______ _______ _____ _____    ______ ____

>  <TORSDO>
F 3

$$$$
