=
 OpenBabel10222417093D

 25 26  0  0  1  0  0  0  0  0999 V2000
  188.1490  177.6150  146.2310 C   0  0  0  0  0  3  0  0  0  0  0  0
  187.2290  177.9270  142.3590 C   0  0  0  0  0  0  0  0  0  0  0  0
  185.9800  177.9540  142.1970 O   0  0  0  0  0  0  0  0  0  0  0  0
  188.2340  177.9410  141.3180 C   0  0  0  0  0  0  0  0  0  0  0  0
  190.2610  176.7030  145.2120 C   0  0  1  0  0  3  0  0  0  0  0  0
  189.4150  177.8820  141.8330 N   0  0  0  0  0  0  0  0  0  0  0  0
  186.0730  178.1570  145.1040 C   0  0  0  0  0  3  0  0  0  0  0  0
  187.3730  177.8680  144.9900 C   0  0  0  0  0  0  0  0  0  0  0  0
  189.3860  177.1320  146.3480 C   0  0  0  0  0  3  0  0  0  0  0  0
  187.9600  177.8610  143.6200 C   0  0  0  0  0  0  0  0  0  0  0  0
  189.2500  177.8390  143.2560 C   0  0  0  0  0  0  0  0  0  0  0  0
  190.4300  177.8030  144.1700 C   0  0  1  0  0  3  0  0  0  0  0  0
  190.6440  179.0570  144.7540 O   0  0  0  0  0  0  0  0  0  0  0  0
  191.7330  179.5940  144.0640 C   0  0  0  0  0  2  0  0  0  0  0  0
  192.3080  178.6070  143.2660 O   0  0  0  0  0  1  0  0  0  0  0  0
  191.6260  176.2770  145.7320 C   0  0  0  0  0  2  0  0  0  0  0  0
  191.9900  177.2380  148.0050 O   0  0  0  0  0  1  0  0  0  0  0  0
  191.2810  175.0720  147.7600 O   0  0  0  0  0  0  0  0  0  0  0  0
  191.6110  176.1580  147.2180 C   0  0  0  0  0  0  0  0  0  0  0  0
  185.3400  178.2260  146.4080 C   0  0  0  0  0  2  0  0  0  0  0  0
  183.7090  179.1200  144.7470 C   0  0  0  0  0  1  0  0  0  0  0  0
  183.9180  178.7100  146.1930 C   0  0  0  0  0  2  0  0  0  0  0  0
  187.9780  177.9530  139.8480 C   0  0  0  0  0  2  0  0  0  0  0  0
  188.9050  179.1480  137.9670 N   0  0  0  0  0  2  0  0  0  0  0  0
  189.0980  178.6260  139.1210 C   0  0  0  0  0  3  0  0  0  0  0  0
  1  9  2  0  0  0  0
  2 10  1  0  0  0  0
  3  2  2  0  0  0  0
  4  6  2  0  0  0  0
  4  2  1  0  0  0  0
  5 16  1  1  0  0  0
  5  9  1  0  0  0  0
  6 11  1  0  0  0  0
  7 20  1  0  0  0  0
  8  7  2  0  0  0  0
  8  1  1  0  0  0  0
 10  8  1  0  0  0  0
 11 10  2  0  0  0  0
 11 12  1  0  0  0  0
 12 13  1  1  0  0  0
 12  5  1  0  0  0  0
 14 13  1  0  0  0  0
 15 14  1  0  0  0  0
 16 19  1  0  0  0  0
 19 18  2  0  0  0  0
 19 17  1  0  0  0  0
 21 22  1  0  0  0  0
 22 20  1  0  0  0  0
 23  4  1  0  0  0  0
 24 25  2  0  0  0  0
 25 23  1  0  0  0  0
M  END
>  <MODEL>
1

>  <REMARK>
 VINA RESULT:      -7.3      0.000      0.000
  Name = 
  8 active torsions:
  status: ('A' for Active; 'I' for Inactive)
    1  A    between atoms: O_1  and  C_6
    2  A    between atoms: O_1  and  C_25
    3  A    between atoms: C_4  and  C_19
    4  A    between atoms: C_10  and  C_20
    5  A    between atoms: C_11  and  C_12
    6  A    between atoms: C_11  and  C_24
    7  A    between atoms: C_14  and  C_19
    8  A    between atoms: C_16  and  C_20
                            x       y       z     vdW  Elec       q    Type
                         _______ _______ _______ _____ _____    ______ ____

>  <TORSDO>
F 8

$$$$
=
 OpenBabel10222417093D

 25 26  0  0  1  0  0  0  0  0999 V2000
  187.2050  177.8330  144.4420 C   0  0  0  0  0  3  0  0  0  0  0  0
  189.0340  177.3550  140.9260 C   0  0  0  0  0  0  0  0  0  0  0  0
  188.1930  177.2750  139.9920 O   0  0  0  0  0  0  0  0  0  0  0  0
  190.4710  177.2330  140.8050 C   0  0  0  0  0  0  0  0  0  0  0  0
  189.3960  176.8740  145.2240 C   0  0  1  0  0  3  0  0  0  0  0  0
  191.0300  177.3430  141.9630 N   0  0  0  0  0  0  0  0  0  0  0  0
  186.4000  178.0270  142.1650 C   0  0  0  0  0  3  0  0  0  0  0  0
  187.4380  177.8010  142.9760 C   0  0  0  0  0  0  0  0  0  0  0  0
  188.0310  177.4550  145.4190 C   0  0  0  0  0  3  0  0  0  0  0  0
  188.7690  177.5710  142.3450 C   0  0  0  0  0  0  0  0  0  0  0  0
  189.9820  177.5580  142.9160 C   0  0  0  0  0  0  0  0  0  0  0  0
  190.2830  177.7660  144.3630 C   0  0  1  0  0  3  0  0  0  0  0  0
  190.1650  179.1190  144.7060 O   0  0  0  0  0  0  0  0  0  0  0  0
  191.2860  179.7320  144.1410 C   0  0  0  0  0  2  0  0  0  0  0  0
  192.4370  179.0620  144.5520 O   0  0  0  0  0  1  0  0  0  0  0  0
  190.0630  176.6360  146.5710 C   0  0  0  0  0  2  0  0  0  0  0  0
  191.9400  175.6240  145.2780 O   0  0  0  0  0  0  0  0  0  0  0  0
  192.3400  176.6770  147.2750 O   0  0  0  0  0  1  0  0  0  0  0  0
  191.5100  176.3260  146.3970 C   0  0  0  0  0  0  0  0  0  0  0  0
  185.0060  178.2960  142.6410 C   0  0  0  0  0  2  0  0  0  0  0  0
  184.7160  178.9830  140.2610 C   0  0  0  0  0  1  0  0  0  0  0  0
  184.0450  178.3520  141.4680 C   0  0  0  0  0  2  0  0  0  0  0  0
  191.2290  176.9530  139.5500 C   0  0  0  0  0  2  0  0  0  0  0  0
  193.5620  176.8170  138.9480 N   0  0  0  0  0  2  0  0  0  0  0  0
  192.6650  177.3370  139.7020 C   0  0  0  0  0  3  0  0  0  0  0  0
  1  9  2  0  0  0  0
  2 10  1  0  0  0  0
  3  2  2  0  0  0  0
  4  2  1  0  0  0  0
  4  6  2  0  0  0  0
  5  9  1  0  0  0  0
  5 16  1  1  0  0  0
  6 11  1  0  0  0  0
  7 20  1  0  0  0  0
  7  8  2  0  0  0  0
  8  1  1  0  0  0  0
 10 11  2  0  0  0  0
 10  8  1  0  0  0  0
 11 12  1  0  0  0  0
 12 13  1  1  0  0  0
 12  5  1  0  0  0  0
 14 15  1  0  0  0  0
 14 13  1  0  0  0  0
 17 19  2  0  0  0  0
 19 16  1  0  0  0  0
 19 18  1  0  0  0  0
 21 22  1  0  0  0  0
 22 20  1  0  0  0  0
 23 25  1  0  0  0  0
 23  4  1  0  0  0  0
 24 25  2  0  0  0  0
M  END
>  <MODEL>
2

>  <REMARK>
 VINA RESULT:      -6.8      2.130      2.690
  Name = 
  8 active torsions:
  status: ('A' for Active; 'I' for Inactive)
    1  A    between atoms: O_1  and  C_6
    2  A    between atoms: O_1  and  C_25
    3  A    between atoms: C_4  and  C_19
    4  A    between atoms: C_10  and  C_20
    5  A    between atoms: C_11  and  C_12
    6  A    between atoms: C_11  and  C_24
    7  A    between atoms: C_14  and  C_19
    8  A    between atoms: C_16  and  C_20
                            x       y       z     vdW  Elec       q    Type
                         _______ _______ _______ _____ _____    ______ ____

>  <TORSDO>
F 8

$$$$
=
 OpenBabel10222417093D

 25 26  0  0  1  0  0  0  0  0999 V2000
  185.5150  178.4290  141.7890 C   0  0  0  0  0  3  0  0  0  0  0  0
  185.7290  178.4920  145.7740 C   0  0  0  0  0  0  0  0  0  0  0  0
  184.6210  178.8200  146.2770 O   0  0  0  0  0  0  0  0  0  0  0  0
  186.9560  178.2250  146.4940 C   0  0  0  0  0  0  0  0  0  0  0  0
  187.9940  178.7400  142.0820 C   0  0  1  0  0  3  0  0  0  0  0  0
  187.9060  177.9370  145.6690 N   0  0  0  0  0  0  0  0  0  0  0  0
  183.7970  178.5210  143.4960 C   0  0  0  0  0  3  0  0  0  0  0  0
  185.1020  178.4360  143.2150 C   0  0  0  0  0  0  0  0  0  0  0  0
  186.7430  178.5440  141.2840 C   0  0  0  0  0  3  0  0  0  0  0  0
  186.0470  178.3160  144.3610 C   0  0  0  0  0  0  0  0  0  0  0  0
  187.3460  177.9860  144.3510 C   0  0  0  0  0  0  0  0  0  0  0  0
  188.1710  177.6660  143.1480 C   0  0  1  0  0  3  0  0  0  0  0  0
  187.8690  176.3870  142.6660 O   0  0  0  0  0  0  0  0  0  0  0  0
  188.8720  175.5630  143.1810 C   0  0  0  0  0  2  0  0  0  0  0  0
  190.0290  175.7070  142.4170 O   0  0  0  0  0  1  0  0  0  0  0  0
  189.2070  178.7530  141.1620 C   0  0  0  0  0  2  0  0  0  0  0  0
  188.6000  179.1050  138.7690 O   0  0  0  0  0  0  0  0  0  0  0  0
  188.7570  176.9850  139.6280 O   0  0  0  0  0  1  0  0  0  0  0  0
  188.8530  178.2260  139.8140 C   0  0  0  0  0  0  0  0  0  0  0  0
  182.7210  178.6240  142.4600 C   0  0  0  0  0  2  0  0  0  0  0  0
  180.7290  178.4840  143.9550 C   0  0  0  0  0  1  0  0  0  0  0  0
  181.5220  179.3720  143.0140 C   0  0  0  0  0  2  0  0  0  0  0  0
  187.1520  178.3240  147.9700 C   0  0  0  0  0  2  0  0  0  0  0  0
  189.4650  178.2670  148.6560 N   0  0  0  0  0  2  0  0  0  0  0  0
  188.3970  177.6110  148.3880 C   0  0  0  0  0  3  0  0  0  0  0  0
  1  8  1  0  0  0  0
  2  3  2  0  0  0  0
  2  4  1  0  0  0  0
  4 23  1  0  0  0  0
  5 16  1  6  0  0  0
  5 12  1  0  0  0  0
  6  4  2  0  0  0  0
  8  7  2  0  0  0  0
  8 10  1  0  0  0  0
  9  1  2  0  0  0  0
  9  5  1  0  0  0  0
 10  2  1  0  0  0  0
 11 10  2  0  0  0  0
 11  6  1  0  0  0  0
 12 13  1  6  0  0  0
 12 11  1  0  0  0  0
 13 14  1  0  0  0  0
 15 14  1  0  0  0  0
 17 19  2  0  0  0  0
 18 19  1  0  0  0  0
 19 16  1  0  0  0  0
 20 22  1  0  0  0  0
 20  7  1  0  0  0  0
 22 21  1  0  0  0  0
 23 25  1  0  0  0  0
 25 24  2  0  0  0  0
M  END
>  <MODEL>
3

>  <REMARK>
 VINA RESULT:      -6.6      3.236      5.814
  Name = 
  8 active torsions:
  status: ('A' for Active; 'I' for Inactive)
    1  A    between atoms: O_1  and  C_6
    2  A    between atoms: O_1  and  C_25
    3  A    between atoms: C_4  and  C_19
    4  A    between atoms: C_10  and  C_20
    5  A    between atoms: C_11  and  C_12
    6  A    between atoms: C_11  and  C_24
    7  A    between atoms: C_14  and  C_19
    8  A    between atoms: C_16  and  C_20
                            x       y       z     vdW  Elec       q    Type
                         _______ _______ _______ _____ _____    ______ ____

>  <TORSDO>
F 8

$$$$
=
 OpenBabel10222417093D

 25 26  0  0  1  0  0  0  0  0999 V2000
  190.6220  177.1700  140.7420 C   0  0  0  0  0  3  0  0  0  0  0  0
  187.1090  178.3010  142.2620 C   0  0  0  0  0  0  0  0  0  0  0  0
  187.1330  178.2630  143.5220 O   0  0  0  0  0  0  0  0  0  0  0  0
  185.9730  178.6400  141.4320 C   0  0  0  0  0  0  0  0  0  0  0  0
  189.1290  176.6980  138.7740 C   0  0  1  0  0  3  0  0  0  0  0  0
  186.2890  178.5590  140.1840 N   0  0  0  0  0  0  0  0  0  0  0  0
  189.9600  177.7890  142.9910 C   0  0  0  0  0  3  0  0  0  0  0  0
  189.6000  177.6420  141.7110 C   0  0  0  0  0  0  0  0  0  0  0  0
  190.4460  176.7760  139.4810 C   0  0  0  0  0  3  0  0  0  0  0  0
  188.2020  178.0030  141.3430 C   0  0  0  0  0  0  0  0  0  0  0  0
  187.6680  178.1720  140.1250 C   0  0  0  0  0  0  0  0  0  0  0  0
  188.3730  178.0200  138.8180 C   0  0  1  0  0  3  0  0  0  0  0  0
  189.2080  179.1170  138.5750 O   0  0  0  0  0  0  0  0  0  0  0  0
  189.0020  179.4350  137.2310 C   0  0  0  0  0  2  0  0  0  0  0  0
  187.6340  179.4530  136.9630 O   0  0  0  0  0  1  0  0  0  0  0  0
  189.3360  176.2750  137.3260 C   0  0  0  0  0  2  0  0  0  0  0  0
  190.2210  173.9520  137.5320 O   0  0  0  0  0  1  0  0  0  0  0  0
  188.1140  174.3230  136.7110 O   0  0  0  0  0  0  0  0  0  0  0  0
  189.1790  174.8000  137.1790 C   0  0  0  0  0  0  0  0  0  0  0  0
  191.3310  177.4910  143.5150 C   0  0  0  0  0  2  0  0  0  0  0  0
  189.8930  177.2700  145.5420 C   0  0  0  0  0  1  0  0  0  0  0  0
  191.2520  176.9670  144.9370 C   0  0  0  0  0  2  0  0  0  0  0  0
  184.6000  178.9750  141.9120 C   0  0  0  0  0  2  0  0  0  0  0  0
  182.6030  178.7320  140.5780 N   0  0  0  0  0  2  0  0  0  0  0  0
  183.5740  178.1610  141.1900 C   0  0  0  0  0  3  0  0  0  0  0  0
  1  8  1  0  0  0  0
  2  3  2  0  0  0  0
  4 23  1  0  0  0  0
  4  2  1  0  0  0  0
  5 16  1  6  0  0  0
  5 12  1  0  0  0  0
  5  9  1  0  0  0  0
  6  4  2  0  0  0  0
  7 20  1  0  0  0  0
  8  7  2  0  0  0  0
  9  1  2  0  0  0  0
 10  8  1  0  0  0  0
 10  2  1  0  0  0  0
 11  6  1  0  0  0  0
 11 10  2  0  0  0  0
 12 13  1  1  0  0  0
 12 11  1  0  0  0  0
 14 13  1  0  0  0  0
 15 14  1  0  0  0  0
 18 19  2  0  0  0  0
 19 16  1  0  0  0  0
 19 17  1  0  0  0  0
 20 22  1  0  0  0  0
 22 21  1  0  0  0  0
 24 25  2  0  0  0  0
 25 23  1  0  0  0  0
M  END
>  <MODEL>
4

>  <REMARK>
 VINA RESULT:      -6.5      3.476      6.563
  Name = 
  8 active torsions:
  status: ('A' for Active; 'I' for Inactive)
    1  A    between atoms: O_1  and  C_6
    2  A    between atoms: O_1  and  C_25
    3  A    between atoms: C_4  and  C_19
    4  A    between atoms: C_10  and  C_20
    5  A    between atoms: C_11  and  C_12
    6  A    between atoms: C_11  and  C_24
    7  A    between atoms: C_14  and  C_19
    8  A    between atoms: C_16  and  C_20
                            x       y       z     vdW  Elec       q    Type
                         _______ _______ _______ _____ _____    ______ ____

>  <TORSDO>
F 8

$$$$
=
 OpenBabel10222417093D

 25 26  0  0  1  0  0  0  0  0999 V2000
  186.8320  178.0630  144.3230 C   0  0  0  0  0  3  0  0  0  0  0  0
  188.1510  177.8510  140.5620 C   0  0  0  0  0  0  0  0  0  0  0  0
  187.1950  177.9450  139.7460 O   0  0  0  0  0  0  0  0  0  0  0  0
  189.5440  177.6320  140.2350 C   0  0  0  0  0  0  0  0  0  0  0  0
  189.0060  176.8540  144.6970 C   0  0  1  0  0  3  0  0  0  0  0  0
  190.2520  177.5650  141.3120 N   0  0  0  0  0  0  0  0  0  0  0  0
  185.7670  178.5800  142.2070 C   0  0  0  0  0  3  0  0  0  0  0  0
  186.8740  178.1820  142.8430 C   0  0  0  0  0  0  0  0  0  0  0  0
  187.7350  177.5130  145.1340 C   0  0  0  0  0  3  0  0  0  0  0  0
  188.0880  177.9230  142.0170 C   0  0  0  0  0  0  0  0  0  0  0  0
  189.3570  177.7510  142.4150 C   0  0  0  0  0  0  0  0  0  0  0  0
  189.8560  177.7670  143.8210 C   0  0  1  0  0  3  0  0  0  0  0  0
  189.9070  179.0760  144.3150 O   0  0  0  0  0  0  0  0  0  0  0  0
  191.2050  179.5130  144.0410 C   0  0  0  0  0  2  0  0  0  0  0  0
  192.1220  178.6140  144.5830 O   0  0  0  0  0  1  0  0  0  0  0  0
  189.8120  176.4120  145.9100 C   0  0  0  0  0  2  0  0  0  0  0  0
  188.3290  176.4290  147.9150 O   0  0  0  0  0  1  0  0  0  0  0  0
  189.7270  178.1950  147.4890 O   0  0  0  0  0  0  0  0  0  0  0  0
  189.3000  177.0620  147.1500 C   0  0  0  0  0  0  0  0  0  0  0  0
  184.4760  178.9000  142.8940 C   0  0  0  0  0  2  0  0  0  0  0  0
  183.7110  177.8150  140.7810 C   0  0  0  0  0  1  0  0  0  0  0  0
  183.3080  178.7020  141.9450 C   0  0  0  0  0  2  0  0  0  0  0  0
  190.1090  177.4400  138.8670 C   0  0  0  0  0  2  0  0  0  0  0  0
  190.8660  175.2040  138.3630 N   0  0  0  0  0  2  0  0  0  0  0  0
  191.1340  176.3520  138.8660 C   0  0  0  0  0  3  0  0  0  0  0  0
  1  9  2  0  0  0  0
  2 10  1  0  0  0  0
  3  2  2  0  0  0  0
  4  2  1  0  0  0  0
  4  6  2  0  0  0  0
  5  9  1  0  0  0  0
  5 16  1  1  0  0  0
  6 11  1  0  0  0  0
  7  8  2  0  0  0  0
  7 20  1  0  0  0  0
  8  1  1  0  0  0  0
 10 11  2  0  0  0  0
 10  8  1  0  0  0  0
 11 12  1  0  0  0  0
 12 13  1  1  0  0  0
 12  5  1  0  0  0  0
 14 13  1  0  0  0  0
 14 15  1  0  0  0  0
 16 19  1  0  0  0  0
 19 18  2  0  0  0  0
 19 17  1  0  0  0  0
 21 22  1  0  0  0  0
 22 20  1  0  0  0  0
 23  4  1  0  0  0  0
 24 25  2  0  0  0  0
 25 23  1  0  0  0  0
M  END
>  <MODEL>
5

>  <REMARK>
 VINA RESULT:      -6.4      1.988      2.589
  Name = 
  8 active torsions:
  status: ('A' for Active; 'I' for Inactive)
    1  A    between atoms: O_1  and  C_6
    2  A    between atoms: O_1  and  C_25
    3  A    between atoms: C_4  and  C_19
    4  A    between atoms: C_10  and  C_20
    5  A    between atoms: C_11  and  C_12
    6  A    between atoms: C_11  and  C_24
    7  A    between atoms: C_14  and  C_19
    8  A    between atoms: C_16  and  C_20
                            x       y       z     vdW  Elec       q    Type
                         _______ _______ _______ _____ _____    ______ ____

>  <TORSDO>
F 8

$$$$
=
 OpenBabel10222417093D

 25 26  0  0  1  0  0  0  0  0999 V2000
  182.9970  178.8370  141.8360 C   0  0  0  0  0  3  0  0  0  0  0  0
  186.9110  178.5790  141.0950 C   0  0  0  0  0  0  0  0  0  0  0  0
  187.5770  178.7150  142.1560 O   0  0  0  0  0  0  0  0  0  0  0  0
  187.4420  178.4120  139.7590 C   0  0  0  0  0  0  0  0  0  0  0  0
  183.0130  179.4420  139.3940 C   0  0  1  0  0  3  0  0  0  0  0  0
  186.4810  178.3240  138.9020 N   0  0  0  0  0  0  0  0  0  0  0  0
  184.9030  178.5550  143.3060 C   0  0  0  0  0  3  0  0  0  0  0  0
  184.4560  178.6660  142.0510 C   0  0  0  0  0  0  0  0  0  0  0  0
  182.3590  179.1540  140.7090 C   0  0  0  0  0  3  0  0  0  0  0  0
  185.4590  178.5700  140.9520 C   0  0  0  0  0  0  0  0  0  0  0  0
  185.2540  178.4140  139.6360 C   0  0  0  0  0  0  0  0  0  0  0  0
  183.9330  178.3100  138.9500 C   0  0  1  0  0  3  0  0  0  0  0  0
  183.3620  177.0500  139.1610 O   0  0  0  0  0  0  0  0  0  0  0  0
  183.5910  176.3480  137.9750 C   0  0  0  0  0  2  0  0  0  0  0  0
  183.5130  174.9790  138.2240 O   0  0  0  0  0  1  0  0  0  0  0  0
  181.9580  179.6930  138.3260 C   0  0  0  0  0  2  0  0  0  0  0  0
  179.9410  181.0450  138.8920 O   0  0  0  0  0  1  0  0  0  0  0  0
  181.9270  182.0750  138.3940 O   0  0  0  0  0  0  0  0  0  0  0  0
  181.2850  181.0040  138.5470 C   0  0  0  0  0  0  0  0  0  0  0  0
  184.0230  178.6080  144.5170 C   0  0  0  0  0  2  0  0  0  0  0  0
  186.1820  177.9560  145.5810 C   0  0  0  0  0  1  0  0  0  0  0  0
  184.8620  178.6770  145.7800 C   0  0  0  0  0  2  0  0  0  0  0  0
  188.8850  178.4070  139.3790 C   0  0  0  0  0  2  0  0  0  0  0  0
  188.9930  179.6040  137.2870 N   0  0  0  0  0  2  0  0  0  0  0  0
  189.0430  178.4770  137.8940 C   0  0  0  0  0  3  0  0  0  0  0  0
  1  8  1  0  0  0  0
  2  3  2  0  0  0  0
  4  2  1  0  0  0  0
  5 16  1  6  0  0  0
  5  9  1  0  0  0  0
  6 11  1  0  0  0  0
  6  4  2  0  0  0  0
  7 20  1  0  0  0  0
  8  7  2  0  0  0  0
  9  1  2  0  0  0  0
 10  2  1  0  0  0  0
 10  8  1  0  0  0  0
 11 10  2  0  0  0  0
 12 13  1  1  0  0  0
 12  5  1  0  0  0  0
 12 11  1  0  0  0  0
 14 15  1  0  0  0  0
 14 13  1  0  0  0  0
 16 19  1  0  0  0  0
 18 19  2  0  0  0  0
 19 17  1  0  0  0  0
 20 22  1  0  0  0  0
 21 22  1  0  0  0  0
 23  4  1  0  0  0  0
 24 25  2  0  0  0  0
 25 23  1  0  0  0  0
M  END
>  <MODEL>
6

>  <REMARK>
 VINA RESULT:      -6.2      3.904      7.891
  Name = 
  8 active torsions:
  status: ('A' for Active; 'I' for Inactive)
    1  A    between atoms: O_1  and  C_6
    2  A    between atoms: O_1  and  C_25
    3  A    between atoms: C_4  and  C_19
    4  A    between atoms: C_10  and  C_20
    5  A    between atoms: C_11  and  C_12
    6  A    between atoms: C_11  and  C_24
    7  A    between atoms: C_14  and  C_19
    8  A    between atoms: C_16  and  C_20
                            x       y       z     vdW  Elec       q    Type
                         _______ _______ _______ _____ _____    ______ ____

>  <TORSDO>
F 8

$$$$
=
 OpenBabel10222417093D

 25 26  0  0  1  0  0  0  0  0999 V2000
  188.1680  177.8750  145.5710 C   0  0  0  0  0  3  0  0  0  0  0  0
  184.5730  178.4830  143.9440 C   0  0  0  0  0  0  0  0  0  0  0  0
  183.7400  178.8390  144.8210 O   0  0  0  0  0  0  0  0  0  0  0  0
  184.3030  178.2520  142.5420 C   0  0  0  0  0  0  0  0  0  0  0  0
  188.3870  176.4610  143.5020 C   0  0  1  0  0  3  0  0  0  0  0  0
  185.3780  177.8770  141.9340 N   0  0  0  0  0  0  0  0  0  0  0  0
  186.1740  178.9600  146.4210 C   0  0  0  0  0  3  0  0  0  0  0  0
  186.7690  178.3440  145.3950 C   0  0  0  0  0  0  0  0  0  0  0  0
  188.8810  177.0840  144.7700 C   0  0  0  0  0  3  0  0  0  0  0  0
  185.9940  178.2070  144.1300 C   0  0  0  0  0  0  0  0  0  0  0  0
  186.4260  177.8550  142.9100 C   0  0  0  0  0  0  0  0  0  0  0  0
  187.8250  177.4960  142.5340 C   0  0  1  0  0  3  0  0  0  0  0  0
  188.6280  178.6410  142.4590 O   0  0  0  0  0  0  0  0  0  0  0  0
  188.6010  179.0100  141.1120 C   0  0  0  0  0  2  0  0  0  0  0  0
  188.8540  177.8920  140.3190 O   0  0  0  0  0  1  0  0  0  0  0  0
  189.5080  175.6840  142.8270 C   0  0  0  0  0  2  0  0  0  0  0  0
  191.5900  175.5690  144.1950 O   0  0  0  0  0  1  0  0  0  0  0  0
  191.2710  177.2830  142.7070 O   0  0  0  0  0  0  0  0  0  0  0  0
  190.8380  176.2220  143.2270 C   0  0  0  0  0  0  0  0  0  0  0  0
  186.8240  179.1960  147.7490 C   0  0  0  0  0  2  0  0  0  0  0  0
  188.8590  178.2500  148.8380 C   0  0  0  0  0  1  0  0  0  0  0  0
  187.5020  177.9290  148.2400 C   0  0  0  0  0  2  0  0  0  0  0  0
  182.9740  178.3560  141.8720 C   0  0  0  0  0  2  0  0  0  0  0  0
  182.5840  177.1260  139.8330 N   0  0  0  0  0  2  0  0  0  0  0  0
  183.1060  178.1510  140.3970 C   0  0  0  0  0  3  0  0  0  0  0  0
  2 10  1  0  0  0  0
  2  3  2  0  0  0  0
  4  2  1  0  0  0  0
  5 16  1  6  0  0  0
  5  9  1  0  0  0  0
  6  4  2  0  0  0  0
  6 11  1  0  0  0  0
  7 20  1  0  0  0  0
  8  1  1  0  0  0  0
  8  7  2  0  0  0  0
  9  1  2  0  0  0  0
 10  8  1  0  0  0  0
 11 10  2  0  0  0  0
 12 13  1  1  0  0  0
 12 11  1  0  0  0  0
 12  5  1  0  0  0  0
 14 13  1  0  0  0  0
 15 14  1  0  0  0  0
 16 19  1  0  0  0  0
 18 19  2  0  0  0  0
 19 17  1  0  0  0  0
 20 22  1  0  0  0  0
 22 21  1  0  0  0  0
 23  4  1  0  0  0  0
 24 25  2  0  0  0  0
 25 23  1  0  0  0  0
M  END
>  <MODEL>
7

>  <REMARK>
 VINA RESULT:      -6.2      2.707      3.995
  Name = 
  8 active torsions:
  status: ('A' for Active; 'I' for Inactive)
    1  A    between atoms: O_1  and  C_6
    2  A    between atoms: O_1  and  C_25
    3  A    between atoms: C_4  and  C_19
    4  A    between atoms: C_10  and  C_20
    5  A    between atoms: C_11  and  C_12
    6  A    between atoms: C_11  and  C_24
    7  A    between atoms: C_14  and  C_19
    8  A    between atoms: C_16  and  C_20
                            x       y       z     vdW  Elec       q    Type
                         _______ _______ _______ _____ _____    ______ ____

>  <TORSDO>
F 8

$$$$
=
 OpenBabel10222417093D

 25 26  0  0  1  0  0  0  0  0999 V2000
  186.3190  178.0550  143.4610 C   0  0  0  0  0  3  0  0  0  0  0  0
  188.6130  177.6430  146.7020 C   0  0  0  0  0  0  0  0  0  0  0  0
  187.9420  177.8280  147.7520 O   0  0  0  0  0  0  0  0  0  0  0  0
  190.0340  177.3770  146.6230 C   0  0  0  0  0  0  0  0  0  0  0  0
  188.5780  178.5030  142.4490 C   0  0  1  0  0  3  0  0  0  0  0  0
  190.4010  177.2610  145.3910 N   0  0  0  0  0  0  0  0  0  0  0  0
  185.7670  177.8140  145.8090 C   0  0  0  0  0  3  0  0  0  0  0  0
  186.7240  177.8580  144.8760 C   0  0  0  0  0  0  0  0  0  0  0  0
  187.0930  178.3180  142.4080 C   0  0  0  0  0  3  0  0  0  0  0  0
  188.1330  177.6650  145.3240 C   0  0  0  0  0  0  0  0  0  0  0  0
  189.2270  177.4320  144.5860 C   0  0  0  0  0  0  0  0  0  0  0  0
  189.2870  177.3210  143.0990 C   0  0  1  0  0  3  0  0  0  0  0  0
  188.7700  176.0920  142.6710 O   0  0  0  0  0  0  0  0  0  0  0  0
  189.8630  175.2240  142.6660 C   0  0  0  0  0  2  0  0  0  0  0  0
  190.9910  175.8990  142.2030 O   0  0  0  0  0  1  0  0  0  0  0  0
  189.1190  178.7140  141.0420 C   0  0  0  0  0  2  0  0  0  0  0  0
  187.0670  178.5800  139.6310 O   0  0  0  0  0  1  0  0  0  0  0  0
  188.6240  176.8990  139.5800 O   0  0  0  0  0  0  0  0  0  0  0  0
  188.2680  178.0150  140.0390 C   0  0  0  0  0  0  0  0  0  0  0  0
  184.3070  177.9680  145.5200 C   0  0  0  0  0  2  0  0  0  0  0  0
  182.9570  179.3080  143.9060 C   0  0  0  0  0  1  0  0  0  0  0  0
  184.0140  179.3620  144.9930 C   0  0  0  0  0  2  0  0  0  0  0  0
  190.9820  177.3080  147.7720 C   0  0  0  0  0  2  0  0  0  0  0  0
  192.9330  176.0280  148.3860 N   0  0  0  0  0  2  0  0  0  0  0  0
  191.9090  176.1440  147.6260 C   0  0  0  0  0  3  0  0  0  0  0  0
  1  8  1  0  0  0  0
  2  3  2  0  0  0  0
  4  2  1  0  0  0  0
  4 23  1  0  0  0  0
  5 16  1  6  0  0  0
  5 12  1  0  0  0  0
  6  4  2  0  0  0  0
  8 10  1  0  0  0  0
  8  7  2  0  0  0  0
  9  5  1  0  0  0  0
  9  1  2  0  0  0  0
 10  2  1  0  0  0  0
 11 10  2  0  0  0  0
 11  6  1  0  0  0  0
 12 13  1  1  0  0  0
 12 11  1  0  0  0  0
 14 13  1  0  0  0  0
 15 14  1  0  0  0  0
 17 19  1  0  0  0  0
 18 19  2  0  0  0  0
 19 16  1  0  0  0  0
 20  7  1  0  0  0  0
 21 22  1  0  0  0  0
 22 20  1  0  0  0  0
 25 23  1  0  0  0  0
 25 24  2  0  0  0  0
M  END
>  <MODEL>
8

>  <REMARK>
 VINA RESULT:      -6.0      2.642      5.588
  Name = 
  8 active torsions:
  status: ('A' for Active; 'I' for Inactive)
    1  A    between atoms: O_1  and  C_6
    2  A    between atoms: O_1  and  C_25
    3  A    between atoms: C_4  and  C_19
    4  A    between atoms: C_10  and  C_20
    5  A    between atoms: C_11  and  C_12
    6  A    between atoms: C_11  and  C_24
    7  A    between atoms: C_14  and  C_19
    8  A    between atoms: C_16  and  C_20
                            x       y       z     vdW  Elec       q    Type
                         _______ _______ _______ _____ _____    ______ ____

>  <TORSDO>
F 8

$$$$
=
 OpenBabel10222417093D

 25 26  0  0  1  0  0  0  0  0999 V2000
  186.8620  178.0030  144.2720 C   0  0  0  0  0  3  0  0  0  0  0  0
  187.1750  178.3600  140.3080 C   0  0  0  0  0  0  0  0  0  0  0  0
  186.0390  178.5010  139.7810 O   0  0  0  0  0  0  0  0  0  0  0  0
  188.4420  178.2700  139.6150 C   0  0  0  0  0  0  0  0  0  0  0  0
  189.0890  176.8890  143.9140 C   0  0  1  0  0  3  0  0  0  0  0  0
  189.4040  178.1060  140.4580 N   0  0  0  0  0  0  0  0  0  0  0  0
  185.2770  178.7240  142.5870 C   0  0  0  0  0  3  0  0  0  0  0  0
  186.5200  178.3150  142.8610 C   0  0  0  0  0  0  0  0  0  0  0  0
  187.9580  177.4080  144.7440 C   0  0  0  0  0  3  0  0  0  0  0  0
  187.4860  178.2390  141.7290 C   0  0  0  0  0  0  0  0  0  0  0  0
  188.8180  178.0930  141.7660 C   0  0  0  0  0  0  0  0  0  0  0  0
  189.6620  177.9570  142.9900 C   0  0  1  0  0  3  0  0  0  0  0  0
  189.8060  179.1920  143.6340 O   0  0  0  0  0  0  0  0  0  0  0  0
  191.1710  179.2970  143.9080 C   0  0  0  0  0  2  0  0  0  0  0  0
  191.8950  178.6310  142.9220 O   0  0  0  0  0  1  0  0  0  0  0  0
  190.1910  176.3430  144.8100 C   0  0  0  0  0  2  0  0  0  0  0  0
  190.6680  174.8820  142.8450 O   0  0  0  0  0  0  0  0  0  0  0  0
  192.2320  175.1520  144.4990 O   0  0  0  0  0  1  0  0  0  0  0  0
  191.0940  175.4370  144.0450 C   0  0  0  0  0  0  0  0  0  0  0  0
  184.1980  178.8740  143.6130 C   0  0  0  0  0  2  0  0  0  0  0  0
  181.7350  178.9780  143.9940 C   0  0  0  0  0  1  0  0  0  0  0  0
  182.8290  178.7680  142.9640 C   0  0  0  0  0  2  0  0  0  0  0  0
  188.6400  178.2900  138.1360 C   0  0  0  0  0  2  0  0  0  0  0  0
  190.3770  176.9510  137.1300 N   0  0  0  0  0  2  0  0  0  0  0  0
  189.2110  176.9940  137.6600 C   0  0  0  0  0  3  0  0  0  0  0  0
  1  9  2  0  0  0  0
  2 10  1  0  0  0  0
  3  2  2  0  0  0  0
  4  2  1  0  0  0  0
  4  6  2  0  0  0  0
  5  9  1  0  0  0  0
  5 16  1  1  0  0  0
  6 11  1  0  0  0  0
  7  8  2  0  0  0  0
  7 20  1  0  0  0  0
  8  1  1  0  0  0  0
 10 11  2  0  0  0  0
 10  8  1  0  0  0  0
 11 12  1  0  0  0  0
 12 13  1  1  0  0  0
 12  5  1  0  0  0  0
 13 14  1  0  0  0  0
 15 14  1  0  0  0  0
 17 19  2  0  0  0  0
 19 18  1  0  0  0  0
 19 16  1  0  0  0  0
 22 20  1  0  0  0  0
 22 21  1  0  0  0  0
 23  4  1  0  0  0  0
 24 25  2  0  0  0  0
 25 23  1  0  0  0  0
M  END
>  <MODEL>
9

>  <REMARK>
 VINA RESULT:      -5.9      1.863      2.479
  Name = 
  8 active torsions:
  status: ('A' for Active; 'I' for Inactive)
    1  A    between atoms: O_1  and  C_6
    2  A    between atoms: O_1  and  C_25
    3  A    between atoms: C_4  and  C_19
    4  A    between atoms: C_10  and  C_20
    5  A    between atoms: C_11  and  C_12
    6  A    between atoms: C_11  and  C_24
    7  A    between atoms: C_14  and  C_19
    8  A    between atoms: C_16  and  C_20
                            x       y       z     vdW  Elec       q    Type
                         _______ _______ _______ _____ _____    ______ ____

>  <TORSDO>
F 8

$$$$
