=
 OpenBabel10222416333D

 32 37  0  0  1  0  0  0  0  0999 V2000
  189.4560  177.0930  147.0660 C   0  0  0  0  0  3  0  0  0  0  0  0
  188.7660  177.9970  141.5520 C   0  0  0  0  0  0  0  0  0  0  0  0
  188.9800  177.7640  142.9210 C   0  0  0  0  0  0  0  0  0  0  0  0
  185.4120  178.3290  144.1700 C   0  0  0  0  0  0  0  0  0  0  0  0
  190.7200  176.7620  147.5540 C   0  0  0  0  0  3  0  0  0  0  0  0
  191.7750  176.6610  146.7030 N   0  0  0  0  0  0  0  0  0  0  0  0
  191.3540  177.3130  142.6190 O   0  0  0  0  0  1  0  0  0  0  0  0
  184.2370  178.6370  143.7010 N   0  0  0  0  0  2  0  0  0  0  0  0
  190.3860  177.2080  144.8280 C   0  0  0  0  0  0  0  0  0  0  0  0
  188.8240  178.2840  139.3910 C   0  0  0  0  0  0  0  0  0  0  0  0
  190.2420  177.4290  143.4510 C   0  0  0  0  0  0  0  0  0  0  0  0
  186.5730  178.2160  143.2580 C   0  0  0  0  0  0  0  0  0  0  0  0
  187.5290  178.3210  141.0610 C   0  0  0  0  0  0  0  0  0  0  0  0
  185.6260  178.0890  145.6110 C   0  0  0  0  0  3  0  0  0  0  0  0
  186.4130  178.4400  141.8780 C   0  0  0  0  0  3  0  0  0  0  0  0
  189.6380  177.9650  140.4770 C   0  0  0  0  0  3  0  0  0  0  0  0
  186.8350  177.7750  146.0760 C   0  0  0  0  0  3  0  0  0  0  0  0
  188.0080  177.6540  145.1760 C   0  0  0  0  0  0  0  0  0  0  0  0
  187.8540  177.8780  143.7880 C   0  0  1  0  0  3  0  0  0  0  0  0
  187.5760  178.4900  139.7670 O   0  0  0  0  0  0  0  0  0  0  0  0
  191.6350  176.8740  145.3670 C   0  0  0  0  0  3  0  0  0  0  0  0
  189.2740  177.3200  145.6940 C   0  0  0  0  0  0  0  0  0  0  0  0
  189.2770  178.3820  138.0010 C   0  0  0  0  0  0  0  0  0  0  0  0
  188.8800  179.4830  137.1900 N   0  0  0  0  0  1  0  0  0  0  0  0
  190.0220  177.4910  137.5170 O   0  0  0  0  0  0  0  0  0  0  0  0
  183.0340  178.7600  144.5160 C   0  0  0  0  0  2  0  0  0  0  0  0
  181.8720  179.2360  143.6620 C   0  0  0  0  0  2  0  0  0  0  0  0
  179.7070  178.0910  142.8470 C   0  0  2  0  0  3  0  0  0  0  0  0
  179.3940  179.2940  143.7130 C   0  0  0  0  0  2  0  0  0  0  0  0
  180.6160  178.4560  144.0290 C   0  0  2  0  0  3  0  0  0  0  0  0
  180.2520  177.3850  140.5320 C   0  0  0  0  0  1  0  0  0  0  0  0
  180.1980  178.5610  141.4840 C   0  0  0  0  0  2  0  0  0  0  0  0
  1  5  1  0  0  0  0
  2  3  1  0  0  0  0
  3 11  2  0  0  0  0
  4 14  2  0  0  0  0
  6  5  2  0  0  0  0
  7 11  1  0  0  0  0
  8  4  1  0  0  0  0
  8 26  1  0  0  0  0
  9 21  2  0  0  0  0
  9 22  1  0  0  0  0
 10 20  1  0  0  0  0
 10 16  2  0  0  0  0
 11  9  1  0  0  0  0
 12 19  1  0  0  0  0
 12  4  1  0  0  0  0
 13  2  2  0  0  0  0
 13 15  1  0  0  0  0
 14 17  1  0  0  0  0
 15 12  2  0  0  0  0
 16  2  1  0  0  0  0
 18 22  1  0  0  0  0
 18 17  2  0  0  0  0
 19  3  1  6  0  0  0
 19 18  1  0  0  0  0
 20 13  1  0  0  0  0
 21  6  1  0  0  0  0
 22  1  2  0  0  0  0
 23 10  1  0  0  0  0
 24 23  1  0  0  0  0
 25 23  2  0  0  0  0
 27 26  1  0  0  0  0
 28 32  1  6  0  0  0
 28 29  1  0  0  0  0
 28 30  1  0  0  0  0
 29 30  1  0  0  0  0
 30 27  1  6  0  0  0
 31 32  1  0  0  0  0
M  END
>  <MODEL>
1

>  <REMARK>
 VINA RESULT:     -11.1      0.000      0.000
  Name = 
  5 active torsions:
  status: ('A' for Active; 'I' for Inactive)
    1  A    between atoms: C_2  and  C_16
    2  A    between atoms: C_3  and  C_29
    3  A    between atoms: C_12  and  C_28
    4  A    between atoms: N_13  and  C_17
    5  A    between atoms: C_17  and  C_28
                            x       y       z     vdW  Elec       q    Type
                         _______ _______ _______ _____ _____    ______ ____

>  <TORSDO>
F 5

$$$$
=
 OpenBabel10222416333D

 32 37  0  0  1  0  0  0  0  0999 V2000
  189.4300  177.6370  146.7020 C   0  0  0  0  0  3  0  0  0  0  0  0
  184.5320  178.5480  144.0790 C   0  0  0  0  0  0  0  0  0  0  0  0
  185.7340  178.3240  144.7710 C   0  0  0  0  0  0  0  0  0  0  0  0
  188.0620  177.8980  141.7690 C   0  0  0  0  0  0  0  0  0  0  0  0
  189.4700  177.6290  148.0970 C   0  0  0  0  0  3  0  0  0  0  0  0
  188.3340  177.8390  148.8130 N   0  0  0  0  0  0  0  0  0  0  0  0
  184.6770  178.5180  146.9560 O   0  0  0  0  0  1  0  0  0  0  0  0
  188.0110  177.9090  140.4690 N   0  0  0  0  0  0  0  0  0  0  0  0
  187.0470  178.0790  146.8060 C   0  0  0  0  0  0  0  0  0  0  0  0
  182.5060  178.9240  143.3670 C   0  0  0  0  0  0  0  0  0  0  0  0
  185.8140  178.3080  146.1780 C   0  0  0  0  0  0  0  0  0  0  0  0
  186.8350  178.1220  142.5670 C   0  0  0  0  0  0  0  0  0  0  0  0
  184.4800  178.5590  142.7100 C   0  0  0  0  0  0  0  0  0  0  0  0
  189.3300  177.6590  142.4870 C   0  0  0  0  0  3  0  0  0  0  0  0
  185.6040  178.3510  141.9220 C   0  0  0  0  0  3  0  0  0  0  0  0
  183.2480  178.7850  144.5400 C   0  0  0  0  0  3  0  0  0  0  0  0
  189.3660  177.6500  143.8200 C   0  0  0  0  0  3  0  0  0  0  0  0
  188.1470  177.8770  144.6330 C   0  0  0  0  0  0  0  0  0  0  0  0
  186.9080  178.1080  143.9910 C   0  0  0  0  0  0  0  0  0  0  0  0
  183.2620  178.7850  142.2960 O   0  0  0  0  0  0  0  0  0  0  0  0
  187.1390  178.0610  148.2030 C   0  0  0  0  0  3  0  0  0  0  0  0
  188.2150  177.8630  146.0390 C   0  0  0  0  0  0  0  0  0  0  0  0
  181.0660  179.1900  143.3110 C   0  0  0  0  0  0  0  0  0  0  0  0
  180.1370  178.2520  143.8450 N   0  0  0  0  0  1  0  0  0  0  0  0
  180.6430  180.2550  142.7890 O   0  0  0  0  0  0  0  0  0  0  0  0
  189.1640  177.7100  139.5990 C   0  0  0  0  0  2  0  0  0  0  0  0
  188.7120  177.2120  138.2380 C   0  0  0  0  0  2  0  0  0  0  0  0
  187.0330  178.5880  136.8430 C   0  0  2  0  0  3  0  0  0  0  0  0
  188.0430  177.8960  135.9510 C   0  0  0  0  0  2  0  0  0  0  0  0
  188.4830  178.3980  137.3110 C   0  0  2  0  0  3  0  0  0  0  0  0
  185.0200  178.2560  138.2550 C   0  0  0  0  0  1  0  0  0  0  0  0
  186.0410  177.5630  137.3770 C   0  0  0  0  0  2  0  0  0  0  0  0
  1  5  1  0  0  0  0
  2 16  1  0  0  0  0
  2  3  1  0  0  0  0
  3 11  2  0  0  0  0
  4 14  1  0  0  0  0
  4 12  1  0  0  0  0
  5  6  2  0  0  0  0
  8  4  2  0  0  0  0
  9 21  2  0  0  0  0
 10 16  2  0  0  0  0
 11  9  1  0  0  0  0
 11  7  1  0  0  0  0
 12 19  1  0  0  0  0
 13  2  2  0  0  0  0
 14 17  2  0  0  0  0
 15 12  2  0  0  0  0
 15 13  1  0  0  0  0
 17 18  1  0  0  0  0
 18 22  1  0  0  0  0
 19 18  2  0  0  0  0
 19  3  1  0  0  0  0
 20 13  1  0  0  0  0
 20 10  1  0  0  0  0
 21  6  1  0  0  0  0
 22  1  2  0  0  0  0
 22  9  1  0  0  0  0
 23 10  1  0  0  0  0
 23 24  1  0  0  0  0
 25 23  2  0  0  0  0
 26  8  1  0  0  0  0
 27 26  1  0  0  0  0
 28 30  1  0  0  0  0
 28 32  1  1  0  0  0
 29 28  1  0  0  0  0
 29 30  1  0  0  0  0
 30 27  1  1  0  0  0
 32 31  1  0  0  0  0
M  END
>  <MODEL>
2

>  <REMARK>
 VINA RESULT:     -10.9      2.829      6.438
  Name = 
  5 active torsions:
  status: ('A' for Active; 'I' for Inactive)
    1  A    between atoms: C_2  and  C_16
    2  A    between atoms: C_3  and  C_29
    3  A    between atoms: C_12  and  C_28
    4  A    between atoms: N_13  and  C_17
    5  A    between atoms: C_17  and  C_28
                            x       y       z     vdW  Elec       q    Type
                         _______ _______ _______ _____ _____    ______ ____

>  <TORSDO>
F 5

$$$$
=
 OpenBabel10222416333D

 32 37  0  0  1  0  0  0  0  0999 V2000
  187.3200  177.7590  147.5350 C   0  0  0  0  0  3  0  0  0  0  0  0
  187.8560  178.1940  141.9480 C   0  0  0  0  0  0  0  0  0  0  0  0
  187.7640  178.0770  143.3450 C   0  0  0  0  0  0  0  0  0  0  0  0
  184.0240  178.7590  143.7400 C   0  0  0  0  0  0  0  0  0  0  0  0
  188.4420  177.4670  148.3110 C   0  0  0  0  0  3  0  0  0  0  0  0
  189.6530  177.2900  147.7200 N   0  0  0  0  0  0  0  0  0  0  0  0
  190.1370  177.5940  143.6030 O   0  0  0  0  0  1  0  0  0  0  0  0
  182.9850  179.0300  143.0040 N   0  0  0  0  0  0  0  0  0  0  0  0
  188.7130  177.6810  145.5510 C   0  0  0  0  0  0  0  0  0  0  0  0
  188.3840  178.2950  139.8350 C   0  0  0  0  0  0  0  0  0  0  0  0
  188.8740  177.7840  144.1620 C   0  0  0  0  0  0  0  0  0  0  0  0
  185.3520  178.5650  143.1140 C   0  0  0  0  0  0  0  0  0  0  0  0
  186.7610  178.4790  141.1750 C   0  0  0  0  0  0  0  0  0  0  0  0
  183.9170  178.6420  145.2070 C   0  0  0  0  0  3  0  0  0  0  0  0
  185.4980  178.6710  141.7180 C   0  0  0  0  0  3  0  0  0  0  0  0
  188.9380  178.0670  141.0940 C   0  0  0  0  0  3  0  0  0  0  0  0
  184.9900  178.3640  145.9480 C   0  0  0  0  0  3  0  0  0  0  0  0
  186.3260  178.1630  145.3360 C   0  0  0  0  0  0  0  0  0  0  0  0
  186.4800  178.2680  143.9340 C   0  0  0  0  0  0  0  0  0  0  0  0
  187.0900  178.5370  139.9120 O   0  0  0  0  0  0  0  0  0  0  0  0
  189.8090  177.3890  146.3730 C   0  0  0  0  0  3  0  0  0  0  0  0
  187.4430  177.8700  146.1430 C   0  0  0  0  0  0  0  0  0  0  0  0
  189.1290  178.2730  138.5720 C   0  0  0  0  0  0  0  0  0  0  0  0
  188.9130  179.2810  137.5900 N   0  0  0  0  0  1  0  0  0  0  0  0
  189.9660  177.3590  138.3510 O   0  0  0  0  0  0  0  0  0  0  0  0
  181.6380  179.2270  143.5250 C   0  0  0  0  0  2  0  0  0  0  0  0
  180.6310  179.2150  142.3890 C   0  0  0  0  0  2  0  0  0  0  0  0
  181.0180  179.3960  139.8440 C   0  0  2  0  0  3  0  0  0  0  0  0
  180.1910  178.1730  140.1830 C   0  0  0  0  0  2  0  0  0  0  0  0
  181.2740  178.6200  141.1430 C   0  0  2  0  0  3  0  0  0  0  0  0
  180.5090  181.6330  138.9000 C   0  0  0  0  0  1  0  0  0  0  0  0
  180.1610  180.6460  139.9950 C   0  0  0  0  0  2  0  0  0  0  0  0
  1  5  1  0  0  0  0
  2  3  1  0  0  0  0
  3 19  1  0  0  0  0
  3 11  2  0  0  0  0
  4 14  1  0  0  0  0
  6  5  2  0  0  0  0
  7 11  1  0  0  0  0
  8 26  1  0  0  0  0
  8  4  2  0  0  0  0
  9 22  1  0  0  0  0
  9 21  2  0  0  0  0
 10 20  1  0  0  0  0
 10 16  2  0  0  0  0
 11  9  1  0  0  0  0
 12  4  1  0  0  0  0
 12 19  1  0  0  0  0
 13 15  1  0  0  0  0
 13  2  2  0  0  0  0
 14 17  2  0  0  0  0
 15 12  2  0  0  0  0
 16  2  1  0  0  0  0
 18 17  1  0  0  0  0
 18 22  1  0  0  0  0
 19 18  2  0  0  0  0
 20 13  1  0  0  0  0
 21  6  1  0  0  0  0
 22  1  2  0  0  0  0
 23 10  1  0  0  0  0
 24 23  1  0  0  0  0
 25 23  2  0  0  0  0
 27 26  1  0  0  0  0
 28 32  1  1  0  0  0
 28 29  1  0  0  0  0
 28 30  1  0  0  0  0
 29 30  1  0  0  0  0
 30 27  1  1  0  0  0
 31 32  1  0  0  0  0
M  END
>  <MODEL>
3

>  <REMARK>
 VINA RESULT:     -10.7      1.362      2.010
  Name = 
  5 active torsions:
  status: ('A' for Active; 'I' for Inactive)
    1  A    between atoms: C_2  and  C_16
    2  A    between atoms: C_3  and  C_29
    3  A    between atoms: C_12  and  C_28
    4  A    between atoms: N_13  and  C_17
    5  A    between atoms: C_17  and  C_28
                            x       y       z     vdW  Elec       q    Type
                         _______ _______ _______ _____ _____    ______ ____

>  <TORSDO>
F 5

$$$$
=
 OpenBabel10222416333D

 32 37  0  0  1  0  0  0  0  0999 V2000
  184.2680  178.9360  143.2520 C   0  0  0  0  0  3  0  0  0  0  0  0
  189.2700  177.3500  145.2940 C   0  0  0  0  0  0  0  0  0  0  0  0
  188.0060  177.7470  144.8240 C   0  0  0  0  0  0  0  0  0  0  0  0
  188.7790  177.8330  141.0820 C   0  0  0  0  0  0  0  0  0  0  0  0
  183.2100  179.1630  144.1310 C   0  0  0  0  0  3  0  0  0  0  0  0
  183.3870  179.0030  145.4680 N   0  0  0  0  0  0  0  0  0  0  0  0
  187.0450  177.8360  147.0600 O   0  0  0  0  0  1  0  0  0  0  0  0
  189.7760  177.6170  140.2730 N   0  0  0  0  0  0  0  0  0  0  0  0
  185.6780  178.3800  145.1460 C   0  0  0  0  0  0  0  0  0  0  0  0
  191.0620  176.7530  146.3830 C   0  0  0  0  0  0  0  0  0  0  0  0
  186.9130  177.9860  145.6810 C   0  0  0  0  0  0  0  0  0  0  0  0
  188.9540  177.6660  142.5430 C   0  0  0  0  0  0  0  0  0  0  0  0
  190.3170  177.1230  144.4410 C   0  0  0  0  0  0  0  0  0  0  0  0
  187.4570  178.2530  140.5780 C   0  0  0  0  0  3  0  0  0  0  0  0
  190.2000  177.2700  143.0650 C   0  0  0  0  0  3  0  0  0  0  0  0
  189.7290  177.1150  146.5790 C   0  0  0  0  0  3  0  0  0  0  0  0
  186.4460  178.4710  141.4200 C   0  0  0  0  0  3  0  0  0  0  0  0
  186.6040  178.3040  142.8850 C   0  0  0  0  0  0  0  0  0  0  0  0
  187.8520  177.9060  143.4160 C   0  0  0  0  0  0  0  0  0  0  0  0
  191.3840  176.7660  145.1040 O   0  0  0  0  0  0  0  0  0  0  0  0
  184.5840  178.6210  145.9870 C   0  0  0  0  0  3  0  0  0  0  0  0
  185.5180  178.5410  143.7510 C   0  0  0  0  0  0  0  0  0  0  0  0
  192.0020  176.3990  147.4500 C   0  0  0  0  0  0  0  0  0  0  0  0
  192.8070  175.2290  147.3430 N   0  0  0  0  0  1  0  0  0  0  0  0
  192.1030  177.1320  148.4680 O   0  0  0  0  0  0  0  0  0  0  0  0
  189.6980  177.7440  138.8220 C   0  0  0  0  0  2  0  0  0  0  0  0
  190.9120  177.0990  138.1760 C   0  0  0  0  0  2  0  0  0  0  0  0
  191.8890  174.7840  137.5880 C   0  0  2  0  0  3  0  0  0  0  0  0
  190.9040  175.2440  136.5320 C   0  0  0  0  0  2  0  0  0  0  0  0
  190.6560  175.6110  137.9810 C   0  0  2  0  0  3  0  0  0  0  0  0
  194.3410  174.7450  137.9690 C   0  0  0  0  0  1  0  0  0  0  0  0
  193.1830  175.5760  137.4540 C   0  0  0  0  0  2  0  0  0  0  0  0
  1 22  2  0  0  0  0
  1  5  1  0  0  0  0
  2 16  1  0  0  0  0
  3  2  1  0  0  0  0
  3 11  2  0  0  0  0
  4 12  1  0  0  0  0
  5  6  2  0  0  0  0
  6 21  1  0  0  0  0
  8  4  2  0  0  0  0
  9 11  1  0  0  0  0
  9 21  2  0  0  0  0
 10 16  2  0  0  0  0
 10 23  1  0  0  0  0
 11  7  1  0  0  0  0
 12 15  2  0  0  0  0
 12 19  1  0  0  0  0
 13 20  1  0  0  0  0
 13  2  2  0  0  0  0
 14  4  1  0  0  0  0
 14 17  2  0  0  0  0
 15 13  1  0  0  0  0
 17 18  1  0  0  0  0
 18 19  2  0  0  0  0
 18 22  1  0  0  0  0
 19  3  1  0  0  0  0
 20 10  1  0  0  0  0
 22  9  1  0  0  0  0
 23 25  2  0  0  0  0
 24 23  1  0  0  0  0
 26  8  1  0  0  0  0
 27 26  1  0  0  0  0
 28 32  1  6  0  0  0
 28 30  1  0  0  0  0
 29 28  1  0  0  0  0
 29 30  1  0  0  0  0
 30 27  1  6  0  0  0
 32 31  1  0  0  0  0
M  END
>  <MODEL>
4

>  <REMARK>
 VINA RESULT:     -10.5      2.645      8.233
  Name = 
  5 active torsions:
  status: ('A' for Active; 'I' for Inactive)
    1  A    between atoms: C_2  and  C_16
    2  A    between atoms: C_3  and  C_29
    3  A    between atoms: C_12  and  C_28
    4  A    between atoms: N_13  and  C_17
    5  A    between atoms: C_17  and  C_28
                            x       y       z     vdW  Elec       q    Type
                         _______ _______ _______ _____ _____    ______ ____

>  <TORSDO>
F 5

$$$$
=
 OpenBabel10222416333D

 32 37  0  0  1  0  0  0  0  0999 V2000
  184.3110  178.9400  143.2100 C   0  0  0  0  0  3  0  0  0  0  0  0
  189.2980  177.3500  145.2830 C   0  0  0  0  0  0  0  0  0  0  0  0
  188.0370  177.7480  144.8050 C   0  0  0  0  0  0  0  0  0  0  0  0
  188.8360  177.8420  141.0680 C   0  0  0  0  0  0  0  0  0  0  0  0
  183.2460  179.1650  144.0820 C   0  0  0  0  0  3  0  0  0  0  0  0
  183.4140  179.0020  145.4210 N   0  0  0  0  0  0  0  0  0  0  0  0
  187.0620  177.8320  147.0350 O   0  0  0  0  0  1  0  0  0  0  0  0
  189.8380  177.6270  140.2660 N   0  0  0  0  0  0  0  0  0  0  0  0
  185.7070  178.3800  145.1120 C   0  0  0  0  0  0  0  0  0  0  0  0
  191.0830  176.7510  146.3830 C   0  0  0  0  0  0  0  0  0  0  0  0
  186.9390  177.9850  145.6550 C   0  0  0  0  0  0  0  0  0  0  0  0
  189.0010  177.6710  142.5300 C   0  0  0  0  0  0  0  0  0  0  0  0
  190.3510  177.1250  144.4360 C   0  0  0  0  0  0  0  0  0  0  0  0
  187.5170  178.2620  140.5570 C   0  0  0  0  0  3  0  0  0  0  0  0
  190.2430  177.2740  143.0600 C   0  0  0  0  0  3  0  0  0  0  0  0
  189.7490  177.1120  146.5700 C   0  0  0  0  0  3  0  0  0  0  0  0
  186.5000  178.4790  141.3910 C   0  0  0  0  0  3  0  0  0  0  0  0
  186.6480  178.3090  142.8570 C   0  0  0  0  0  0  0  0  0  0  0  0
  187.8930  177.9100  143.3960 C   0  0  0  0  0  0  0  0  0  0  0  0
  191.4130  176.7670  145.1060 O   0  0  0  0  0  0  0  0  0  0  0  0
  184.6080  178.6190  145.9460 C   0  0  0  0  0  3  0  0  0  0  0  0
  185.5570  178.5440  143.7160 C   0  0  0  0  0  0  0  0  0  0  0  0
  192.0160  176.3950  147.4550 C   0  0  0  0  0  0  0  0  0  0  0  0
  192.8120  175.2180  147.3570 N   0  0  0  0  0  1  0  0  0  0  0  0
  192.1180  177.1320  148.4710 O   0  0  0  0  0  0  0  0  0  0  0  0
  189.7700  177.7570  138.8150 C   0  0  0  0  0  2  0  0  0  0  0  0
  189.4720  176.4090  138.1830 C   0  0  0  0  0  2  0  0  0  0  0  0
  187.8840  176.5160  136.1520 C   0  0  2  0  0  3  0  0  0  0  0  0
  188.7740  175.2920  136.0830 C   0  0  0  0  0  2  0  0  0  0  0  0
  189.3260  176.5720  136.6760 C   0  0  2  0  0  3  0  0  0  0  0  0
  185.8850  177.5010  137.2420 C   0  0  0  0  0  1  0  0  0  0  0  0
  186.8160  176.3070  137.2170 C   0  0  0  0  0  2  0  0  0  0  0  0
  1 22  2  0  0  0  0
  1  5  1  0  0  0  0
  2 16  1  0  0  0  0
  3  2  1  0  0  0  0
  3 11  2  0  0  0  0
  4 12  1  0  0  0  0
  5  6  2  0  0  0  0
  6 21  1  0  0  0  0
  8  4  2  0  0  0  0
  9 11  1  0  0  0  0
  9 21  2  0  0  0  0
 10 16  2  0  0  0  0
 10 23  1  0  0  0  0
 11  7  1  0  0  0  0
 12 15  2  0  0  0  0
 12 19  1  0  0  0  0
 13 20  1  0  0  0  0
 13  2  2  0  0  0  0
 14  4  1  0  0  0  0
 14 17  2  0  0  0  0
 15 13  1  0  0  0  0
 17 18  1  0  0  0  0
 18 19  2  0  0  0  0
 18 22  1  0  0  0  0
 19  3  1  0  0  0  0
 20 10  1  0  0  0  0
 22  9  1  0  0  0  0
 23 25  2  0  0  0  0
 24 23  1  0  0  0  0
 26  8  1  0  0  0  0
 27 26  1  0  0  0  0
 28 30  1  0  0  0  0
 28 32  1  1  0  0  0
 29 28  1  0  0  0  0
 29 30  1  0  0  0  0
 30 27  1  1  0  0  0
 32 31  1  0  0  0  0
M  END
>  <MODEL>
5

>  <REMARK>
 VINA RESULT:     -10.4      2.651      7.355
  Name = 
  5 active torsions:
  status: ('A' for Active; 'I' for Inactive)
    1  A    between atoms: C_2  and  C_16
    2  A    between atoms: C_3  and  C_29
    3  A    between atoms: C_12  and  C_28
    4  A    between atoms: N_13  and  C_17
    5  A    between atoms: C_17  and  C_28
                            x       y       z     vdW  Elec       q    Type
                         _______ _______ _______ _____ _____    ______ ____

>  <TORSDO>
F 5

$$$$
=
 OpenBabel10222416333D

 32 37  0  0  1  0  0  0  0  0999 V2000
  180.4670  179.0710  143.8430 C   0  0  0  0  0  3  0  0  0  0  0  0
  184.8230  178.6220  140.3050 C   0  0  0  0  0  0  0  0  0  0  0  0
  183.7090  178.7370  141.1540 C   0  0  0  0  0  0  0  0  0  0  0  0
  185.5120  178.4690  144.5140 C   0  0  0  0  0  0  0  0  0  0  0  0
  179.1800  179.2320  143.3290 C   0  0  0  0  0  3  0  0  0  0  0  0
  178.9820  179.2790  141.9860 N   0  0  0  0  0  0  0  0  0  0  0  0
  182.1420  178.9540  139.3030 O   0  0  0  0  0  1  0  0  0  0  0  0
  186.7180  178.3190  144.9800 N   0  0  0  0  0  2  0  0  0  0  0  0
  181.3280  179.0100  141.5760 C   0  0  0  0  0  0  0  0  0  0  0  0
  186.2840  178.4780  138.6930 C   0  0  0  0  0  0  0  0  0  0  0  0
  182.3950  178.9000  140.6730 C   0  0  0  0  0  0  0  0  0  0  0  0
  185.2770  178.5200  143.0530 C   0  0  0  0  0  0  0  0  0  0  0  0
  186.0920  178.4640  140.7970 C   0  0  0  0  0  0  0  0  0  0  0  0
  184.3490  178.5860  145.4150 C   0  0  0  0  0  3  0  0  0  0  0  0
  186.3580  178.4080  142.1580 C   0  0  0  0  0  3  0  0  0  0  0  0
  184.9180  178.6340  138.9240 C   0  0  0  0  0  3  0  0  0  0  0  0
  183.1190  178.7390  144.9230 C   0  0  0  0  0  3  0  0  0  0  0  0
  182.8680  178.7950  143.4620 C   0  0  0  0  0  0  0  0  0  0  0  0
  183.9500  178.6850  142.5590 C   0  0  2  0  0  3  0  0  0  0  0  0
  186.9570  178.3800  139.8230 O   0  0  0  0  0  0  0  0  0  0  0  0
  180.0170  179.1730  141.1100 C   0  0  0  0  0  3  0  0  0  0  0  0
  181.5580  178.9580  142.9700 C   0  0  0  0  0  0  0  0  0  0  0  0
  186.9130  178.4270  137.3700 C   0  0  0  0  0  0  0  0  0  0  0  0
  188.0090  179.2820  137.0590 N   0  0  0  0  0  1  0  0  0  0  0  0
  186.4860  177.6230  136.5010 O   0  0  0  0  0  0  0  0  0  0  0  0
  187.0510  178.2690  146.3990 C   0  0  0  0  0  2  0  0  0  0  0  0
  188.5000  177.8540  146.5810 C   0  0  0  0  0  2  0  0  0  0  0  0
  190.4950  176.8180  145.3140 C   0  0  2  0  0  3  0  0  0  0  0  0
  190.2440  178.2420  144.8630 C   0  0  0  0  0  2  0  0  0  0  0  0
  189.0650  177.3730  145.2520 C   0  0  2  0  0  3  0  0  0  0  0  0
  192.1570  175.7160  146.7910 C   0  0  0  0  0  1  0  0  0  0  0  0
  191.1340  176.8290  146.6970 C   0  0  0  0  0  2  0  0  0  0  0  0
  2 13  2  0  0  0  0
  2  3  1  0  0  0  0
  4  8  1  0  0  0  0
  4 14  2  0  0  0  0
  5  1  1  0  0  0  0
  6  5  2  0  0  0  0
  7 11  1  0  0  0  0
  8 26  1  0  0  0  0
  9 22  1  0  0  0  0
 10 16  2  0  0  0  0
 10 20  1  0  0  0  0
 11  3  2  0  0  0  0
 11  9  1  0  0  0  0
 12  4  1  0  0  0  0
 13 15  1  0  0  0  0
 15 12  2  0  0  0  0
 16  2  1  0  0  0  0
 17 14  1  0  0  0  0
 18 17  2  0  0  0  0
 19  3  1  6  0  0  0
 19 12  1  0  0  0  0
 19 18  1  0  0  0  0
 20 13  1  0  0  0  0
 21  9  2  0  0  0  0
 21  6  1  0  0  0  0
 22 18  1  0  0  0  0
 22  1  2  0  0  0  0
 23 10  1  0  0  0  0
 24 23  1  0  0  0  0
 25 23  2  0  0  0  0
 26 27  1  0  0  0  0
 28 32  1  1  0  0  0
 29 30  1  0  0  0  0
 29 28  1  0  0  0  0
 30 28  1  0  0  0  0
 30 27  1  1  0  0  0
 32 31  1  0  0  0  0
M  END
>  <MODEL>
6

>  <REMARK>
 VINA RESULT:     -10.0      2.147      7.594
  Name = 
  5 active torsions:
  status: ('A' for Active; 'I' for Inactive)
    1  A    between atoms: C_2  and  C_16
    2  A    between atoms: C_3  and  C_29
    3  A    between atoms: C_12  and  C_28
    4  A    between atoms: N_13  and  C_17
    5  A    between atoms: C_17  and  C_28
                            x       y       z     vdW  Elec       q    Type
                         _______ _______ _______ _____ _____    ______ ____

>  <TORSDO>
F 5

$$$$
=
 OpenBabel10222416333D

 32 37  0  0  1  0  0  0  0  0999 V2000
  182.4840  178.7980  143.9200 C   0  0  0  0  0  3  0  0  0  0  0  0
  187.1150  178.2070  140.7730 C   0  0  0  0  0  0  0  0  0  0  0  0
  185.9360  178.3610  141.5230 C   0  0  0  0  0  0  0  0  0  0  0  0
  187.4090  177.8960  145.0200 C   0  0  0  0  0  0  0  0  0  0  0  0
  181.2600  179.0450  143.2990 C   0  0  0  0  0  3  0  0  0  0  0  0
  181.1890  179.1410  141.9450 N   0  0  0  0  0  0  0  0  0  0  0  0
  184.5580  178.7170  139.5470 O   0  0  0  0  0  1  0  0  0  0  0  0
  188.5570  177.6660  145.5860 N   0  0  0  0  0  2  0  0  0  0  0  0
  183.5440  178.7540  141.7390 C   0  0  0  0  0  0  0  0  0  0  0  0
  188.7080  178.0280  139.2950 C   0  0  0  0  0  0  0  0  0  0  0  0
  184.6820  178.6110  140.9310 C   0  0  0  0  0  0  0  0  0  0  0  0
  187.3110  178.0020  143.5460 C   0  0  0  0  0  0  0  0  0  0  0  0
  188.3240  177.9650  141.3720 C   0  0  0  0  0  0  0  0  0  0  0  0
  186.1760  178.0530  145.8160 C   0  0  0  0  0  3  0  0  0  0  0  0
  188.4620  177.8560  142.7490 C   0  0  0  0  0  3  0  0  0  0  0  0
  187.3360  178.2540  139.4070 C   0  0  0  0  0  3  0  0  0  0  0  0
  185.0060  178.2870  145.2220 C   0  0  0  0  0  3  0  0  0  0  0  0
  184.8920  178.4000  143.7470 C   0  0  0  0  0  0  0  0  0  0  0  0
  186.0450  178.2550  142.9400 C   0  0  2  0  0  3  0  0  0  0  0  0
  189.2690  177.8600  140.4770 O   0  0  0  0  0  0  0  0  0  0  0  0
  182.2920  179.0030  141.1630 C   0  0  0  0  0  3  0  0  0  0  0  0
  183.6430  178.6490  143.1450 C   0  0  0  0  0  0  0  0  0  0  0  0
  189.4510  177.9800  138.0330 C   0  0  0  0  0  0  0  0  0  0  0  0
  190.6460  177.2120  137.9280 N   0  0  0  0  0  1  0  0  0  0  0  0
  189.0340  178.6200  137.0320 O   0  0  0  0  0  0  0  0  0  0  0  0
  188.7560  177.5570  147.0270 C   0  0  0  0  0  2  0  0  0  0  0  0
  189.6590  176.3780  147.3420 C   0  0  0  0  0  2  0  0  0  0  0  0
  192.0570  176.5900  146.4100 C   0  0  2  0  0  3  0  0  0  0  0  0
  192.0220  175.6840  147.6230 C   0  0  0  0  0  2  0  0  0  0  0  0
  191.0830  176.8710  147.5640 C   0  0  2  0  0  3  0  0  0  0  0  0
  191.6800  176.6770  143.9590 C   0  0  0  0  0  1  0  0  0  0  0  0
  191.4530  175.8630  145.2160 C   0  0  0  0  0  2  0  0  0  0  0  0
  2 13  2  0  0  0  0
  2  3  1  0  0  0  0
  4  8  1  0  0  0  0
  4 14  2  0  0  0  0
  5  1  1  0  0  0  0
  6  5  2  0  0  0  0
  7 11  1  0  0  0  0
  8 26  1  0  0  0  0
  9 22  1  0  0  0  0
 10 16  2  0  0  0  0
 10 20  1  0  0  0  0
 11  3  2  0  0  0  0
 11  9  1  0  0  0  0
 12  4  1  0  0  0  0
 13 15  1  0  0  0  0
 15 12  2  0  0  0  0
 16  2  1  0  0  0  0
 17 14  1  0  0  0  0
 18 17  2  0  0  0  0
 19  3  1  6  0  0  0
 19 12  1  0  0  0  0
 19 18  1  0  0  0  0
 20 13  1  0  0  0  0
 21  9  2  0  0  0  0
 21  6  1  0  0  0  0
 22 18  1  0  0  0  0
 22  1  2  0  0  0  0
 23 10  1  0  0  0  0
 24 23  1  0  0  0  0
 25 23  2  0  0  0  0
 26 27  1  0  0  0  0
 28 32  1  6  0  0  0
 28 30  1  0  0  0  0
 28 29  1  0  0  0  0
 30 27  1  6  0  0  0
 30 29  1  0  0  0  0
 31 32  1  0  0  0  0
M  END
>  <MODEL>
7

>  <REMARK>
 VINA RESULT:      -9.9      1.648      7.084
  Name = 
  5 active torsions:
  status: ('A' for Active; 'I' for Inactive)
    1  A    between atoms: C_2  and  C_16
    2  A    between atoms: C_3  and  C_29
    3  A    between atoms: C_12  and  C_28
    4  A    between atoms: N_13  and  C_17
    5  A    between atoms: C_17  and  C_28
                            x       y       z     vdW  Elec       q    Type
                         _______ _______ _______ _____ _____    ______ ____

>  <TORSDO>
F 5

$$$$
=
 OpenBabel10222416333D

 32 37  0  0  1  0  0  0  0  0999 V2000
  187.2960  177.7330  146.8350 C   0  0  0  0  0  3  0  0  0  0  0  0
  190.0870  177.4270  141.9550 C   0  0  0  0  0  0  0  0  0  0  0  0
  189.4260  177.4930  143.1940 C   0  0  0  0  0  0  0  0  0  0  0  0
  185.9370  178.4240  141.9410 C   0  0  0  0  0  0  0  0  0  0  0  0
  187.9720  177.4800  148.0290 C   0  0  0  0  0  3  0  0  0  0  0  0
  189.2930  177.1630  148.0110 N   0  0  0  0  0  0  0  0  0  0  0  0
  191.4290  176.9170  144.4530 O   0  0  0  0  0  1  0  0  0  0  0  0
  185.3180  178.6560  140.8200 N   0  0  0  0  0  0  0  0  0  0  0  0
  189.3560  177.3270  145.6210 C   0  0  0  0  0  0  0  0  0  0  0  0
  191.4320  177.2310  140.2510 C   0  0  0  0  0  0  0  0  0  0  0  0
  190.0750  177.2450  144.4200 C   0  0  0  0  0  0  0  0  0  0  0  0
  187.3770  178.0790  141.9420 C   0  0  0  0  0  0  0  0  0  0  0  0
  189.4340  177.6720  140.7760 C   0  0  0  0  0  0  0  0  0  0  0  0
  185.2340  178.4990  143.2370 C   0  0  0  0  0  3  0  0  0  0  0  0
  188.0860  178.0000  140.7280 C   0  0  0  0  0  3  0  0  0  0  0  0
  191.4030  177.1340  141.6410 C   0  0  0  0  0  3  0  0  0  0  0  0
  185.8820  178.2580  144.3780 C   0  0  0  0  0  3  0  0  0  0  0  0
  187.3230  177.9090  144.3950 C   0  0  0  0  0  0  0  0  0  0  0  0
  188.0400  177.8270  143.1790 C   0  0  0  0  0  0  0  0  0  0  0  0
  190.2490  177.5520  139.7630 O   0  0  0  0  0  0  0  0  0  0  0  0
  189.9890  177.0830  146.8460 C   0  0  0  0  0  3  0  0  0  0  0  0
  187.9820  177.6590  145.6150 C   0  0  0  0  0  0  0  0  0  0  0  0
  192.6170  177.0090  139.4170 C   0  0  0  0  0  0  0  0  0  0  0  0
  192.4900  176.4270  138.1240 N   0  0  0  0  0  1  0  0  0  0  0  0
  193.7560  177.3340  139.8430 O   0  0  0  0  0  0  0  0  0  0  0  0
  183.9030  178.9910  140.7170 C   0  0  0  0  0  2  0  0  0  0  0  0
  183.2830  178.2770  139.5290 C   0  0  0  0  0  2  0  0  0  0  0  0
  182.6700  175.7970  139.1630 C   0  0  2  0  0  3  0  0  0  0  0  0
  181.4600  176.6900  138.9770 C   0  0  0  0  0  2  0  0  0  0  0  0
  182.5000  177.0640  140.0130 C   0  0  2  0  0  3  0  0  0  0  0  0
  184.0530  174.5720  137.5070 C   0  0  0  0  0  1  0  0  0  0  0  0
  183.5970  175.9430  137.9630 C   0  0  0  0  0  2  0  0  0  0  0  0
  1  5  1  0  0  0  0
  2  3  1  0  0  0  0
  3 11  2  0  0  0  0
  4 12  1  0  0  0  0
  4 14  1  0  0  0  0
  6  5  2  0  0  0  0
  8  4  2  0  0  0  0
  9 21  2  0  0  0  0
 10 16  2  0  0  0  0
 11  7  1  0  0  0  0
 11  9  1  0  0  0  0
 12 19  1  0  0  0  0
 13  2  2  0  0  0  0
 14 17  2  0  0  0  0
 15 13  1  0  0  0  0
 15 12  2  0  0  0  0
 16  2  1  0  0  0  0
 17 18  1  0  0  0  0
 18 22  1  0  0  0  0
 19  3  1  0  0  0  0
 19 18  2  0  0  0  0
 20 10  1  0  0  0  0
 20 13  1  0  0  0  0
 21  6  1  0  0  0  0
 22  9  1  0  0  0  0
 22  1  2  0  0  0  0
 23 25  2  0  0  0  0
 23 10  1  0  0  0  0
 24 23  1  0  0  0  0
 26  8  1  0  0  0  0
 27 26  1  0  0  0  0
 28 32  1  6  0  0  0
 28 30  1  0  0  0  0
 29 28  1  0  0  0  0
 29 30  1  0  0  0  0
 30 27  1  6  0  0  0
 31 32  1  0  0  0  0
M  END
>  <MODEL>
8

>  <REMARK>
 VINA RESULT:      -9.7      2.400      3.230
  Name = 
  5 active torsions:
  status: ('A' for Active; 'I' for Inactive)
    1  A    between atoms: C_2  and  C_16
    2  A    between atoms: C_3  and  C_29
    3  A    between atoms: C_12  and  C_28
    4  A    between atoms: N_13  and  C_17
    5  A    between atoms: C_17  and  C_28
                            x       y       z     vdW  Elec       q    Type
                         _______ _______ _______ _____ _____    ______ ____

>  <TORSDO>
F 5

$$$$
=
 OpenBabel10222416333D

 32 37  0  0  1  0  0  0  0  0999 V2000
  188.4200  177.5900  147.1680 C   0  0  0  0  0  3  0  0  0  0  0  0
  189.6360  177.2700  141.6800 C   0  0  0  0  0  0  0  0  0  0  0  0
  189.3730  177.3390  143.0590 C   0  0  0  0  0  0  0  0  0  0  0  0
  185.6780  178.3030  142.8970 C   0  0  0  0  0  0  0  0  0  0  0  0
  189.4180  177.3290  148.1080 C   0  0  0  0  0  3  0  0  0  0  0  0
  190.6710  177.0010  147.6990 N   0  0  0  0  0  0  0  0  0  0  0  0
  191.6550  176.7430  143.6680 O   0  0  0  0  0  1  0  0  0  0  0  0
  184.7570  178.5430  142.0100 N   0  0  0  0  0  0  0  0  0  0  0  0
  190.0250  177.1690  145.3980 C   0  0  0  0  0  0  0  0  0  0  0  0
  190.4140  177.0660  139.6530 C   0  0  0  0  0  0  0  0  0  0  0  0
  190.3540  177.0830  144.0370 C   0  0  0  0  0  0  0  0  0  0  0  0
  187.0500  177.9460  142.4710 C   0  0  0  0  0  0  0  0  0  0  0  0
  188.6650  177.5230  140.7480 C   0  0  0  0  0  0  0  0  0  0  0  0
  185.3920  178.3820  144.3430 C   0  0  0  0  0  3  0  0  0  0  0  0
  187.3660  177.8630  141.1020 C   0  0  0  0  0  3  0  0  0  0  0  0
  190.7980  176.9670  140.9900 C   0  0  0  0  0  3  0  0  0  0  0  0
  186.3460  178.1330  145.2400 C   0  0  0  0  0  3  0  0  0  0  0  0
  187.7250  177.7710  144.8290 C   0  0  0  0  0  0  0  0  0  0  0  0
  188.0480  177.6860  143.4550 C   0  0  0  0  0  0  0  0  0  0  0  0
  189.1420  177.3980  139.5390 O   0  0  0  0  0  0  0  0  0  0  0  0
  190.9900  176.9170  146.3800 C   0  0  0  0  0  3  0  0  0  0  0  0
  188.7130  177.5140  145.7990 C   0  0  0  0  0  0  0  0  0  0  0  0
  191.2960  176.8360  138.5060 C   0  0  0  0  0  0  0  0  0  0  0  0
  190.7550  176.7110  137.1950 N   0  0  0  0  0  1  0  0  0  0  0  0
  192.5400  176.7480  138.6770 O   0  0  0  0  0  0  0  0  0  0  0  0
  183.3770  178.8900  142.3310 C   0  0  0  0  0  2  0  0  0  0  0  0
  182.4740  178.5910  141.1470 C   0  0  0  0  0  2  0  0  0  0  0  0
  182.7920  179.4350  138.7290 C   0  0  2  0  0  3  0  0  0  0  0  0
  182.4720  177.9550  138.7510 C   0  0  0  0  0  2  0  0  0  0  0  0
  183.3040  178.5450  139.8710 C   0  0  2  0  0  3  0  0  0  0  0  0
  181.5890  181.5700  138.3380 C   0  0  0  0  0  1  0  0  0  0  0  0
  181.5320  180.2320  139.0450 C   0  0  0  0  0  2  0  0  0  0  0  0
  1  5  1  0  0  0  0
  2  3  1  0  0  0  0
  3 19  1  0  0  0  0
  3 11  2  0  0  0  0
  4 14  1  0  0  0  0
  6  5  2  0  0  0  0
  7 11  1  0  0  0  0
  8 26  1  0  0  0  0
  8  4  2  0  0  0  0
  9 22  1  0  0  0  0
  9 21  2  0  0  0  0
 10 16  2  0  0  0  0
 11  9  1  0  0  0  0
 12  4  1  0  0  0  0
 12 19  1  0  0  0  0
 13 15  1  0  0  0  0
 13  2  2  0  0  0  0
 14 17  2  0  0  0  0
 15 12  2  0  0  0  0
 16  2  1  0  0  0  0
 18 17  1  0  0  0  0
 18 22  1  0  0  0  0
 19 18  2  0  0  0  0
 20 10  1  0  0  0  0
 20 13  1  0  0  0  0
 21  6  1  0  0  0  0
 22  1  2  0  0  0  0
 23 25  2  0  0  0  0
 23 10  1  0  0  0  0
 24 23  1  0  0  0  0
 27 26  1  0  0  0  0
 28 29  1  0  0  0  0
 28 32  1  1  0  0  0
 28 30  1  0  0  0  0
 29 30  1  0  0  0  0
 30 27  1  1  0  0  0
 31 32  1  0  0  0  0
M  END
>  <MODEL>
9

>  <REMARK>
 VINA RESULT:      -9.6      1.990      2.479
  Name = 
  5 active torsions:
  status: ('A' for Active; 'I' for Inactive)
    1  A    between atoms: C_2  and  C_16
    2  A    between atoms: C_3  and  C_29
    3  A    between atoms: C_12  and  C_28
    4  A    between atoms: N_13  and  C_17
    5  A    between atoms: C_17  and  C_28
                            x       y       z     vdW  Elec       q    Type
                         _______ _______ _______ _____ _____    ______ ____

>  <TORSDO>
F 5

$$$$
