=
 OpenBabel10222416313D

 32 36  0  0  1  0  0  0  0  0999 V2000
  178.9830  179.2350  138.7770 C   0  0  0  0  0  2  0  0  0  0  0  0
  181.3290  177.9950  141.2670 C   0  0  1  0  0  3  0  0  0  0  0  0
  180.9550  178.7390  143.5280 O   0  0  0  0  0  0  0  0  0  0  0  0
  185.5310  178.7050  143.6800 C   0  0  0  0  0  0  0  0  0  0  0  0
  182.8050  178.3180  137.2880 O   0  0  0  0  0  1  0  0  0  0  0  0
  180.4720  178.7050  136.7180 C   0  0  0  0  0  2  0  0  0  0  0  0
  181.5810  177.6910  137.0410 C   0  0  2  0  0  3  0  0  0  0  0  0
  180.0860  179.7070  137.8180 C   0  0  2  0  0  3  0  0  0  0  0  0
  179.4250  178.1760  139.6770 N   0  0  0  0  0  2  0  0  0  0  0  0
  180.1010  178.7960  140.8040 C   0  0  1  0  0  3  0  0  0  0  0  0
  180.2040  175.8440  137.8280 C   0  0  0  0  0  3  0  0  0  0  0  0
  183.9380  179.2460  144.2810 S   0  0  0  0  0  0  0  0  0  0  0  0
  182.0370  176.4890  139.3500 C   0  0  0  0  0  2  0  0  0  0  0  0
  183.8010  177.5220  140.6440 C   0  0  0  0  0  2  0  0  0  0  0  0
  183.2380  178.2980  142.9010 C   0  0  2  0  0  3  0  0  0  0  0  0
  179.1240  178.9770  141.9670 C   0  0  0  0  0  2  0  0  0  0  0  0
  181.2100  176.6870  138.1020 C   0  0  0  0  0  0  0  0  0  0  0  0
  185.5880  178.3020  142.2470 C   0  0  1  0  0  3  0  0  0  0  0  0
  182.3710  177.7590  140.1290 C   0  0  2  0  0  3  0  0  0  0  0  0
  178.9310  179.7170  144.3340 C   0  0  0  0  0  1  0  0  0  0  0  0
  186.4840  178.5630  144.4270 O   0  0  0  0  0  0  0  0  0  0  0  0
  179.8780  179.5700  143.1620 C   0  0  1  0  0  3  0  0  0  0  0  0
  184.1760  178.5040  141.7330 C   0  0  1  0  0  3  0  0  0  0  0  0
  186.4630  179.1360  141.5510 O   0  0  0  0  0  1  0  0  0  0  0  0
  181.8770  178.8010  142.4690 C   0  0  1  0  0  3  0  0  0  0  0  0
  181.2590  180.4340  138.4880 C   0  0  2  0  0  3  0  0  0  0  0  0
  180.7610  181.5950  139.2450 N   0  0  0  0  0  2  0  0  0  0  0  0
  181.5330  181.8060  138.0100 C   0  0  2  0  0  3  0  0  0  0  0  0
  180.7790  183.7620  136.7800 N   0  0  0  0  0  1  0  0  0  0  0  0
  180.6070  182.3280  136.9180 C   0  0  0  0  0  2  0  0  0  0  0  0
  179.7760  174.7470  138.7520 C   0  0  0  0  0  2  0  0  0  0  0  0
  179.8540  173.4200  138.0270 C   0  0  0  0  0  1  0  0  0  0  0  0
  1  9  1  0  0  0  0
  2 25  1  0  0  0  0
  4 12  1  0  0  0  0
  4 21  2  0  0  0  0
  6  7  1  0  0  0  0
  6  8  1  0  0  0  0
  7  5  1  0  0  0  0
  7 17  1  0  0  0  0
  8 26  1  0  0  0  0
  8  1  1  0  0  0  0
  9 10  1  0  0  0  0
 10  2  1  0  0  0  0
 10 16  1  0  0  0  0
 11 17  2  0  0  0  0
 11 31  1  0  0  0  0
 13 19  1  0  0  0  0
 14 23  1  0  0  0  0
 15 12  1  0  0  0  0
 16 22  1  0  0  0  0
 17 13  1  0  0  0  0
 18  4  1  0  0  0  0
 19 14  1  0  0  0  0
 19  2  1  0  0  0  0
 22  3  1  0  0  0  0
 22 20  1  0  0  0  0
 23 18  1  0  0  0  0
 23 15  1  0  0  0  0
 24 18  1  0  0  0  0
 25 15  1  0  0  0  0
 25  3  1  0  0  0  0
 26 27  1  0  0  0  0
 28 26  1  0  0  0  0
 28 27  1  0  0  0  0
 29 30  1  0  0  0  0
 30 28  1  0  0  0  0
 32 31  1  0  0  0  0
M  END
>  <MODEL>
1

>  <REMARK>
 VINA RESULT:      -5.9      0.000      0.000
  Name = 
  3 active torsions:
  status: ('A' for Active; 'I' for Inactive)
    1  A    between atoms: C_7  and  C_11
    2  A    between atoms: C_9  and  C_27
    3  A    between atoms: C_14  and  C_18
                            x       y       z     vdW  Elec       q    Type
                         _______ _______ _______ _____ _____    ______ ____

>  <TORSDO>
F 3

$$$$
=
 OpenBabel10222416313D

 32 36  0  0  1  0  0  0  0  0999 V2000
  179.4060  179.1420  139.6010 C   0  0  0  0  0  2  0  0  0  0  0  0
  182.7330  177.7460  140.0660 C   0  0  1  0  0  3  0  0  0  0  0  0
  183.7780  178.2000  142.1900 O   0  0  0  0  0  0  0  0  0  0  0  0
  187.5680  178.3910  139.6280 C   0  0  0  0  0  0  0  0  0  0  0  0
  181.5990  178.6080  136.0560 O   0  0  0  0  0  1  0  0  0  0  0  0
  179.3870  178.9350  137.0140 C   0  0  0  0  0  2  0  0  0  0  0  0
  180.4480  177.9510  136.4960 C   0  0  2  0  0  3  0  0  0  0  0  0
  179.7470  179.7810  138.2460 C   0  0  2  0  0  3  0  0  0  0  0  0
  180.2640  178.0100  139.9300 N   0  0  0  0  0  2  0  0  0  0  0  0
  181.4890  178.5290  140.5150 C   0  0  1  0  0  3  0  0  0  0  0  0
  179.7480  175.9540  137.7010 C   0  0  0  0  0  3  0  0  0  0  0  0
  186.6470  178.7730  141.1100 S   0  0  0  0  0  0  0  0  0  0  0  0
  182.1410  176.5130  137.9270 C   0  0  0  0  0  2  0  0  0  0  0  0
  184.3550  177.4800  138.0610 C   0  0  0  0  0  2  0  0  0  0  0  0
  185.2450  177.9570  140.2950 C   0  0  2  0  0  3  0  0  0  0  0  0
  181.3860  178.5210  142.0410 C   0  0  0  0  0  2  0  0  0  0  0  0
  180.7450  176.8110  137.4370 C   0  0  0  0  0  0  0  0  0  0  0  0
  186.7620  178.1620  138.3960 C   0  0  1  0  0  3  0  0  0  0  0  0
  182.9020  177.6990  138.5160 C   0  0  2  0  0  3  0  0  0  0  0  0
  182.6390  178.9690  144.1420 C   0  0  0  0  0  1  0  0  0  0  0  0
  188.7750  178.2140  139.6500 O   0  0  0  0  0  0  0  0  0  0  0  0
  182.7140  179.0100  142.6310 C   0  0  1  0  0  3  0  0  0  0  0  0
  185.3230  178.3470  138.8370 C   0  0  1  0  0  3  0  0  0  0  0  0
  187.0830  179.1160  137.4310 O   0  0  0  0  0  1  0  0  0  0  0  0
  183.9040  178.4340  140.8090 C   0  0  1  0  0  3  0  0  0  0  0  0
  181.1080  180.4860  138.1880 C   0  0  2  0  0  3  0  0  0  0  0  0
  181.1340  181.6030  139.1450 N   0  0  0  0  0  2  0  0  0  0  0  0
  181.0970  181.8810  137.7010 C   0  0  2  0  0  3  0  0  0  0  0  0
  179.5070  183.6870  138.0510 N   0  0  0  0  0  1  0  0  0  0  0  0
  179.7310  182.4470  137.3300 C   0  0  0  0  0  2  0  0  0  0  0  0
  179.9160  174.7360  138.5530 C   0  0  0  0  0  2  0  0  0  0  0  0
  178.9310  174.7860  139.7020 C   0  0  0  0  0  1  0  0  0  0  0  0
  1  9  1  0  0  0  0
  2 10  1  0  0  0  0
  2 25  1  0  0  0  0
  3 22  1  0  0  0  0
  4 21  2  0  0  0  0
  4 12  1  0  0  0  0
  5  7  1  0  0  0  0
  6  8  1  0  0  0  0
  7  6  1  0  0  0  0
  7 17  1  0  0  0  0
  8  1  1  0  0  0  0
  9 10  1  0  0  0  0
 10 16  1  0  0  0  0
 11 31  1  0  0  0  0
 13 19  1  0  0  0  0
 14 19  1  0  0  0  0
 14 23  1  0  0  0  0
 15 25  1  0  0  0  0
 15 12  1  0  0  0  0
 16 22  1  0  0  0  0
 17 11  2  0  0  0  0
 17 13  1  0  0  0  0
 18 23  1  0  0  0  0
 18  4  1  0  0  0  0
 19  2  1  0  0  0  0
 22 20  1  0  0  0  0
 23 15  1  0  0  0  0
 24 18  1  0  0  0  0
 25  3  1  0  0  0  0
 26  8  1  0  0  0  0
 26 27  1  0  0  0  0
 28 26  1  0  0  0  0
 28 27  1  0  0  0  0
 30 28  1  0  0  0  0
 30 29  1  0  0  0  0
 31 32  1  0  0  0  0
M  END
>  <MODEL>
2

>  <REMARK>
 VINA RESULT:      -5.3      1.917      2.517
  Name = 
  3 active torsions:
  status: ('A' for Active; 'I' for Inactive)
    1  A    between atoms: C_7  and  C_11
    2  A    between atoms: C_9  and  C_27
    3  A    between atoms: C_14  and  C_18
                            x       y       z     vdW  Elec       q    Type
                         _______ _______ _______ _____ _____    ______ ____

>  <TORSDO>
F 3

$$$$
=
 OpenBabel10222416313D

 32 36  0  0  1  0  0  0  0  0999 V2000
  182.0230  177.3800  136.4150 C   0  0  0  0  0  2  0  0  0  0  0  0
  183.0000  179.1330  139.4500 C   0  0  1  0  0  3  0  0  0  0  0  0
  185.3140  178.9200  140.0900 O   0  0  0  0  0  0  0  0  0  0  0  0
  183.5460  178.9550  144.3140 C   0  0  0  0  0  0  0  0  0  0  0  0
  178.9310  177.9110  139.2110 O   0  0  0  0  0  1  0  0  0  0  0  0
  179.4720  177.4220  136.8910 C   0  0  0  0  0  2  0  0  0  0  0  0
  179.0880  178.4740  137.9430 C   0  0  2  0  0  3  0  0  0  0  0  0
  180.8150  176.6960  137.0720 C   0  0  2  0  0  3  0  0  0  0  0  0
  182.4180  178.6120  137.0900 N   0  0  0  0  0  2  0  0  0  0  0  0
  183.2650  178.2570  138.2150 C   0  0  1  0  0  3  0  0  0  0  0  0
  179.9710  180.4610  136.8470 C   0  0  0  0  0  3  0  0  0  0  0  0
  184.8520  178.5750  143.1550 S   0  0  0  0  0  0  0  0  0  0  0  0
  180.6950  180.1630  139.1880 C   0  0  0  0  0  2  0  0  0  0  0  0
  181.3270  179.4350  141.4070 C   0  0  0  0  0  2  0  0  0  0  0  0
  183.7210  179.1920  141.8770 C   0  0  2  0  0  3  0  0  0  0  0  0
  184.7380  178.3500  137.8130 C   0  0  0  0  0  2  0  0  0  0  0  0
  179.9730  179.6940  137.9480 C   0  0  0  0  0  0  0  0  0  0  0  0
  182.1690  179.0230  143.7500 C   0  0  1  0  0  3  0  0  0  0  0  0
  181.5120  179.0990  139.9180 C   0  0  2  0  0  3  0  0  0  0  0  0
  187.0690  178.1630  138.6590 C   0  0  0  0  0  1  0  0  0  0  0  0
  183.7840  179.2540  145.4720 O   0  0  0  0  0  0  0  0  0  0  0  0
  185.6080  178.0360  139.0350 C   0  0  1  0  0  3  0  0  0  0  0  0
  182.3410  178.7210  142.2750 C   0  0  1  0  0  3  0  0  0  0  0  0
  181.3640  178.0480  144.3380 O   0  0  0  0  0  1  0  0  0  0  0  0
  184.0060  178.6150  140.5060 C   0  0  1  0  0  3  0  0  0  0  0  0
  181.0750  176.1300  138.4740 C   0  0  2  0  0  3  0  0  0  0  0  0
  182.1570  175.1340  138.4190 N   0  0  0  0  0  2  0  0  0  0  0  0
  180.7740  174.6950  138.6630 C   0  0  2  0  0  3  0  0  0  0  0  0
  180.0350  172.5600  137.7640 N   0  0  0  0  0  1  0  0  0  0  0  0
  180.2550  173.9570  137.4340 C   0  0  0  0  0  2  0  0  0  0  0  0
  180.7390  181.7410  136.7360 C   0  0  0  0  0  2  0  0  0  0  0  0
  180.4540  182.3840  135.3950 C   0  0  0  0  0  1  0  0  0  0  0  0
  1  8  1  0  0  0  0
  1  9  1  0  0  0  0
  2 19  1  0  0  0  0
  2 25  1  0  0  0  0
  3 25  1  0  0  0  0
  4 21  2  0  0  0  0
  6  8  1  0  0  0  0
  6  7  1  0  0  0  0
  7 17  1  0  0  0  0
  7  5  1  0  0  0  0
  8 26  1  0  0  0  0
  9 10  1  0  0  0  0
 10  2  1  0  0  0  0
 11 17  2  0  0  0  0
 12  4  1  0  0  0  0
 13 19  1  0  0  0  0
 14 23  1  0  0  0  0
 15 23  1  0  0  0  0
 15 12  1  0  0  0  0
 16 10  1  0  0  0  0
 16 22  1  0  0  0  0
 17 13  1  0  0  0  0
 18  4  1  0  0  0  0
 18 24  1  0  0  0  0
 19 14  1  0  0  0  0
 20 22  1  0  0  0  0
 22  3  1  0  0  0  0
 23 18  1  0  0  0  0
 25 15  1  0  0  0  0
 26 28  1  0  0  0  0
 27 26  1  0  0  0  0
 27 28  1  0  0  0  0
 30 29  1  0  0  0  0
 30 28  1  0  0  0  0
 31 11  1  0  0  0  0
 32 31  1  0  0  0  0
M  END
>  <MODEL>
3

>  <REMARK>
 VINA RESULT:      -5.3      2.285      5.377
  Name = 
  3 active torsions:
  status: ('A' for Active; 'I' for Inactive)
    1  A    between atoms: C_7  and  C_11
    2  A    between atoms: C_9  and  C_27
    3  A    between atoms: C_14  and  C_18
                            x       y       z     vdW  Elec       q    Type
                         _______ _______ _______ _____ _____    ______ ____

>  <TORSDO>
F 3

$$$$
=
 OpenBabel10222416313D

 32 36  0  0  1  0  0  0  0  0999 V2000
  180.6540  176.9610  136.6700 C   0  0  0  0  0  2  0  0  0  0  0  0
  183.7720  178.5230  137.7050 C   0  0  1  0  0  3  0  0  0  0  0  0
  185.7790  177.6220  136.7210 O   0  0  0  0  0  0  0  0  0  0  0  0
  187.5240  178.5380  140.8530 C   0  0  0  0  0  0  0  0  0  0  0  0
  180.5740  178.6670  140.5100 O   0  0  0  0  0  1  0  0  0  0  0  0
  179.2340  177.8590  138.6470 C   0  0  0  0  0  2  0  0  0  0  0  0
  179.8970  179.0540  139.3510 C   0  0  2  0  0  3  0  0  0  0  0  0
  180.1560  176.7540  138.1080 C   0  0  2  0  0  3  0  0  0  0  0  0
  181.6220  178.0450  136.5520 N   0  0  0  0  0  2  0  0  0  0  0  0
  182.9310  177.5200  136.9000 C   0  0  1  0  0  3  0  0  0  0  0  0
  180.0990  180.5630  137.4500 C   0  0  0  0  0  3  0  0  0  0  0  0
  187.5440  177.6720  139.2910 S   0  0  0  0  0  0  0  0  0  0  0  0
  182.1840  180.2200  138.7260 C   0  0  0  0  0  2  0  0  0  0  0  0
  184.0430  179.4940  140.0940 C   0  0  0  0  0  2  0  0  0  0  0  0
  185.9800  178.5250  138.9450 C   0  0  2  0  0  3  0  0  0  0  0  0
  183.6820  177.1020  135.6350 C   0  0  0  0  0  2  0  0  0  0  0  0
  180.7320  179.9200  138.4430 C   0  0  0  0  0  0  0  0  0  0  0  0
  186.1910  179.0060  141.3260 C   0  0  1  0  0  3  0  0  0  0  0  0
  183.0660  179.0060  139.0100 C   0  0  2  0  0  3  0  0  0  0  0  0
  185.8510  176.2350  134.7780 C   0  0  0  0  0  1  0  0  0  0  0  0
  188.5540  178.8300  141.4390 O   0  0  0  0  0  0  0  0  0  0  0  0
  185.0820  176.6140  136.0260 C   0  0  1  0  0  3  0  0  0  0  0  0
  185.2210  178.5570  140.2520 C   0  0  1  0  0  3  0  0  0  0  0  0
  185.8700  178.3900  142.5350 O   0  0  0  0  0  1  0  0  0  0  0  0
  185.1120  177.7870  137.9480 C   0  0  1  0  0  3  0  0  0  0  0  0
  181.2140  176.2400  139.0920 C   0  0  2  0  0  3  0  0  0  0  0  0
  181.6590  174.8950  138.6910 N   0  0  0  0  0  2  0  0  0  0  0  0
  180.8350  175.0610  139.8990 C   0  0  2  0  0  3  0  0  0  0  0  0
  178.9860  173.7750  140.8140 N   0  0  0  0  0  1  0  0  0  0  0  0
  179.4420  174.4980  139.6410 C   0  0  0  0  0  2  0  0  0  0  0  0
  180.7840  181.5140  136.5200 C   0  0  0  0  0  2  0  0  0  0  0  0
  180.4230  181.1670  135.0910 C   0  0  0  0  0  1  0  0  0  0  0  0
  1  8  1  0  0  0  0
  2 25  1  0  0  0  0
  2 19  1  0  0  0  0
  3 25  1  0  0  0  0
  4 18  1  0  0  0  0
  4 21  2  0  0  0  0
  6  7  1  0  0  0  0
  7  5  1  0  0  0  0
  8  6  1  0  0  0  0
  8 26  1  0  0  0  0
  9  1  1  0  0  0  0
  9 10  1  0  0  0  0
 10  2  1  0  0  0  0
 11 17  2  0  0  0  0
 12  4  1  0  0  0  0
 13 19  1  0  0  0  0
 14 23  1  0  0  0  0
 15 12  1  0  0  0  0
 15 23  1  0  0  0  0
 16 22  1  0  0  0  0
 16 10  1  0  0  0  0
 17 13  1  0  0  0  0
 17  7  1  0  0  0  0
 18 24  1  0  0  0  0
 19 14  1  0  0  0  0
 20 22  1  0  0  0  0
 22  3  1  0  0  0  0
 23 18  1  0  0  0  0
 25 15  1  0  0  0  0
 26 28  1  0  0  0  0
 27 26  1  0  0  0  0
 27 28  1  0  0  0  0
 30 28  1  0  0  0  0
 30 29  1  0  0  0  0
 31 11  1  0  0  0  0
 32 31  1  0  0  0  0
M  END
>  <MODEL>
4

>  <REMARK>
 VINA RESULT:      -4.9      2.786      5.838
  Name = 
  3 active torsions:
  status: ('A' for Active; 'I' for Inactive)
    1  A    between atoms: C_7  and  C_11
    2  A    between atoms: C_9  and  C_27
    3  A    between atoms: C_14  and  C_18
                            x       y       z     vdW  Elec       q    Type
                         _______ _______ _______ _____ _____    ______ ____

>  <TORSDO>
F 3

$$$$
=
 OpenBabel10222416313D

 32 36  0  0  1  0  0  0  0  0999 V2000
  181.9070  176.6010  135.6330 C   0  0  0  0  0  2  0  0  0  0  0  0
  183.0480  178.6710  138.3990 C   0  0  1  0  0  3  0  0  0  0  0  0
  185.3730  178.4480  138.9910 O   0  0  0  0  0  0  0  0  0  0  0  0
  183.7550  179.0640  143.2290 C   0  0  0  0  0  0  0  0  0  0  0  0
  178.9320  177.5870  138.4330 O   0  0  0  0  0  1  0  0  0  0  0  0
  179.3760  176.7990  136.1750 C   0  0  0  0  0  2  0  0  0  0  0  0
  179.0650  177.9860  137.1010 C   0  0  2  0  0  3  0  0  0  0  0  0
  180.6990  176.0490  136.4040 C   0  0  2  0  0  3  0  0  0  0  0  0
  182.3660  177.8890  136.1380 N   0  0  0  0  0  2  0  0  0  0  0  0
  183.2390  177.6410  137.2730 C   0  0  1  0  0  3  0  0  0  0  0  0
  179.9790  179.7890  135.7440 C   0  0  0  0  0  3  0  0  0  0  0  0
  185.0050  178.4960  142.0870 S   0  0  0  0  0  0  0  0  0  0  0  0
  180.7720  179.7500  138.0810 C   0  0  0  0  0  2  0  0  0  0  0  0
  181.4540  179.2730  140.3530 C   0  0  0  0  0  2  0  0  0  0  0  0
  183.8530  178.9960  140.7770 C   0  0  2  0  0  3  0  0  0  0  0  0
  184.6990  177.6270  136.8190 C   0  0  0  0  0  2  0  0  0  0  0  0
  179.9920  179.1620  136.9300 C   0  0  0  0  0  0  0  0  0  0  0  0
  182.3620  179.1170  142.7030 C   0  0  1  0  0  3  0  0  0  0  0  0
  181.5760  178.7510  138.9110 C   0  0  2  0  0  3  0  0  0  0  0  0
  187.0510  177.4550  137.6110 C   0  0  0  0  0  1  0  0  0  0  0  0
  184.0420  179.4930  144.3340 O   0  0  0  0  0  0  0  0  0  0  0  0
  185.6000  177.4310  138.0430 C   0  0  1  0  0  3  0  0  0  0  0  0
  182.4720  178.6320  141.2710 C   0  0  1  0  0  3  0  0  0  0  0  0
  181.5440  178.2520  143.4300 O   0  0  0  0  0  1  0  0  0  0  0  0
  184.0700  178.2460  139.4800 C   0  0  1  0  0  3  0  0  0  0  0  0
  180.9860  175.6480  137.8560 C   0  0  2  0  0  3  0  0  0  0  0  0
  182.1000  174.6860  137.8990 N   0  0  0  0  0  2  0  0  0  0  0  0
  180.7340  174.2340  138.2040 C   0  0  2  0  0  3  0  0  0  0  0  0
  180.0450  171.9940  137.5550 N   0  0  0  0  0  1  0  0  0  0  0  0
  180.2300  173.3500  137.0690 C   0  0  0  0  0  2  0  0  0  0  0  0
  180.7860  181.0150  135.4540 C   0  0  0  0  0  2  0  0  0  0  0  0
  179.8820  182.2290  135.4740 C   0  0  0  0  0  1  0  0  0  0  0  0
  1  9  1  0  0  0  0
  1  8  1  0  0  0  0
  2 19  1  0  0  0  0
  2 25  1  0  0  0  0
  3 25  1  0  0  0  0
  4 21  2  0  0  0  0
  6  8  1  0  0  0  0
  6  7  1  0  0  0  0
  7  5  1  0  0  0  0
  8 26  1  0  0  0  0
  9 10  1  0  0  0  0
 10  2  1  0  0  0  0
 11 17  2  0  0  0  0
 12  4  1  0  0  0  0
 13 19  1  0  0  0  0
 14 23  1  0  0  0  0
 15 23  1  0  0  0  0
 15 12  1  0  0  0  0
 16 10  1  0  0  0  0
 16 22  1  0  0  0  0
 17  7  1  0  0  0  0
 17 13  1  0  0  0  0
 18  4  1  0  0  0  0
 18 24  1  0  0  0  0
 19 14  1  0  0  0  0
 20 22  1  0  0  0  0
 22  3  1  0  0  0  0
 23 18  1  0  0  0  0
 25 15  1  0  0  0  0
 26 27  1  0  0  0  0
 26 28  1  0  0  0  0
 27 28  1  0  0  0  0
 30 29  1  0  0  0  0
 30 28  1  0  0  0  0
 31 32  1  0  0  0  0
 31 11  1  0  0  0  0
M  END
>  <MODEL>
5

>  <REMARK>
 VINA RESULT:      -4.8      2.561      5.667
  Name = 
  3 active torsions:
  status: ('A' for Active; 'I' for Inactive)
    1  A    between atoms: C_7  and  C_11
    2  A    between atoms: C_9  and  C_27
    3  A    between atoms: C_14  and  C_18
                            x       y       z     vdW  Elec       q    Type
                         _______ _______ _______ _____ _____    ______ ____

>  <TORSDO>
F 3

$$$$
=
 OpenBabel10222416313D

 32 36  0  0  1  0  0  0  0  0999 V2000
  182.6050  178.1880  136.1740 C   0  0  0  0  0  2  0  0  0  0  0  0
  180.2060  178.6180  138.8740 C   0  0  1  0  0  3  0  0  0  0  0  0
  179.3640  180.8550  139.1880 O   0  0  0  0  0  0  0  0  0  0  0  0
  179.4720  179.6520  143.6050 C   0  0  0  0  0  0  0  0  0  0  0  0
  183.0040  175.4440  139.3330 O   0  0  0  0  0  1  0  0  0  0  0  0
  183.5440  175.9170  137.0080 C   0  0  0  0  0  2  0  0  0  0  0  0
  182.6060  175.2260  138.0110 C   0  0  2  0  0  3  0  0  0  0  0  0
  183.6260  177.4510  137.0540 C   0  0  2  0  0  3  0  0  0  0  0  0
  181.2400  178.0870  136.6760 N   0  0  0  0  0  2  0  0  0  0  0  0
  181.0590  179.1090  137.6930 C   0  0  1  0  0  3  0  0  0  0  0  0
  180.6040  175.0770  136.6340 C   0  0  0  0  0  3  0  0  0  0  0  0
  179.4420  180.8780  142.3050 S   0  0  0  0  0  0  0  0  0  0  0  0
  180.2540  176.0800  138.8610 C   0  0  0  0  0  2  0  0  0  0  0  0
  180.3470  177.1700  141.0200 C   0  0  0  0  0  2  0  0  0  0  0  0
  179.5230  179.4760  141.1570 C   0  0  2  0  0  3  0  0  0  0  0  0
  180.4290  180.3580  137.0750 C   0  0  0  0  0  2  0  0  0  0  0  0
  181.1430  175.5090  137.7840 C   0  0  0  0  0  0  0  0  0  0  0  0
  180.0500  178.3280  143.2430 C   0  0  1  0  0  3  0  0  0  0  0  0
  180.7800  177.3360  139.5540 C   0  0  2  0  0  3  0  0  0  0  0  0
  179.5280  182.6190  137.5870 C   0  0  0  0  0  1  0  0  0  0  0  0
  178.9440  179.8510  144.6870 O   0  0  0  0  0  0  0  0  0  0  0  0
  180.1880  181.3920  138.1800 C   0  0  1  0  0  3  0  0  0  0  0  0
  180.4560  178.4690  141.7890 C   0  0  1  0  0  3  0  0  0  0  0  0
  181.1780  178.0710  144.0220 O   0  0  0  0  0  1  0  0  0  0  0  0
  180.1170  179.8450  139.8140 C   0  0  1  0  0  3  0  0  0  0  0  0
  183.8370  178.0590  138.4470 C   0  0  2  0  0  3  0  0  0  0  0  0
  184.3350  179.4380  138.3210 N   0  0  0  0  0  2  0  0  0  0  0  0
  185.2320  178.3800  138.8120 C   0  0  2  0  0  3  0  0  0  0  0  0
  187.5670  178.6090  138.1750 N   0  0  0  0  0  1  0  0  0  0  0  0
  186.2840  178.0780  137.7520 C   0  0  0  0  0  2  0  0  0  0  0  0
  179.1510  175.2180  136.3040 C   0  0  0  0  0  2  0  0  0  0  0  0
  178.9970  175.5230  134.8290 C   0  0  0  0  0  1  0  0  0  0  0  0
  1  9  1  0  0  0  0
  1  8  1  0  0  0  0
  2 19  1  0  0  0  0
  2 25  1  0  0  0  0
  3 25  1  0  0  0  0
  4 21  2  0  0  0  0
  6  8  1  0  0  0  0
  6  7  1  0  0  0  0
  7  5  1  0  0  0  0
  8 26  1  0  0  0  0
  9 10  1  0  0  0  0
 10  2  1  0  0  0  0
 11 17  2  0  0  0  0
 12  4  1  0  0  0  0
 13 19  1  0  0  0  0
 14 23  1  0  0  0  0
 15 23  1  0  0  0  0
 15 12  1  0  0  0  0
 16 10  1  0  0  0  0
 16 22  1  0  0  0  0
 17  7  1  0  0  0  0
 17 13  1  0  0  0  0
 18  4  1  0  0  0  0
 18 24  1  0  0  0  0
 19 14  1  0  0  0  0
 20 22  1  0  0  0  0
 22  3  1  0  0  0  0
 23 18  1  0  0  0  0
 25 15  1  0  0  0  0
 26 28  1  0  0  0  0
 27 26  1  0  0  0  0
 27 28  1  0  0  0  0
 30 29  1  0  0  0  0
 30 28  1  0  0  0  0
 31 11  1  0  0  0  0
 32 31  1  0  0  0  0
M  END
>  <MODEL>
6

>  <REMARK>
 VINA RESULT:      -4.3      2.830      4.687
  Name = 
  3 active torsions:
  status: ('A' for Active; 'I' for Inactive)
    1  A    between atoms: C_7  and  C_11
    2  A    between atoms: C_9  and  C_27
    3  A    between atoms: C_14  and  C_18
                            x       y       z     vdW  Elec       q    Type
                         _______ _______ _______ _____ _____    ______ ____

>  <TORSDO>
F 3

$$$$
=
 OpenBabel10222416313D

 32 36  0  0  1  0  0  0  0  0999 V2000
  183.2190  176.2140  134.5940 C   0  0  0  0  0  2  0  0  0  0  0  0
  180.9280  177.6390  137.0350 C   0  0  1  0  0  3  0  0  0  0  0  0
  180.2760  179.9280  136.6560 O   0  0  0  0  0  0  0  0  0  0  0  0
  180.3940  180.1100  141.2290 C   0  0  0  0  0  0  0  0  0  0  0  0
  183.4730  174.5290  138.4360 O   0  0  0  0  0  1  0  0  0  0  0  0
  183.9930  174.2310  136.0780 C   0  0  0  0  0  2  0  0  0  0  0  0
  183.0280  173.9560  137.2420 C   0  0  2  0  0  3  0  0  0  0  0  0
  184.1990  175.6950  135.6580 C   0  0  2  0  0  3  0  0  0  0  0  0
  181.8630  176.3850  135.1020 N   0  0  0  0  0  2  0  0  0  0  0  0
  181.7890  177.6770  135.7610 C   0  0  1  0  0  3  0  0  0  0  0  0
  180.9870  173.5670  135.9720 C   0  0  0  0  0  3  0  0  0  0  0  0
  180.4310  180.8840  139.6190 S   0  0  0  0  0  0  0  0  0  0  0  0
  180.7730  175.2200  137.7910 C   0  0  0  0  0  2  0  0  0  0  0  0
  181.0040  176.8990  139.5180 C   0  0  0  0  0  2  0  0  0  0  0  0
  180.3720  179.1990  138.9490 C   0  0  2  0  0  3  0  0  0  0  0  0
  181.2460  178.7290  134.7930 C   0  0  0  0  0  2  0  0  0  0  0  0
  181.5870  174.2780  136.9380 C   0  0  0  0  0  0  0  0  0  0  0  0
  180.8560  178.6950  141.2860 C   0  0  1  0  0  3  0  0  0  0  0  0
  181.4140  176.5780  138.0710 C   0  0  2  0  0  3  0  0  0  0  0  0
  180.5410  181.1070  134.5960 C   0  0  0  0  0  1  0  0  0  0  0  0
  179.9100  180.6700  142.1990 O   0  0  0  0  0  0  0  0  0  0  0  0
  181.1160  180.0650  135.5330 C   0  0  1  0  0  3  0  0  0  0  0  0
  181.2360  178.3560  139.8580 C   0  0  1  0  0  3  0  0  0  0  0  0
  181.9780  178.5920  142.1080 O   0  0  0  0  0  1  0  0  0  0  0  0
  180.9600  179.0950  137.5590 C   0  0  1  0  0  3  0  0  0  0  0  0
  184.4910  176.6750  136.8010 C   0  0  2  0  0  3  0  0  0  0  0  0
  185.2420  177.8320  136.2880 N   0  0  0  0  0  2  0  0  0  0  0  0
  185.9140  176.8530  137.1570 C   0  0  2  0  0  3  0  0  0  0  0  0
  187.7640  175.2770  137.2190 N   0  0  0  0  0  1  0  0  0  0  0  0
  186.9130  176.0490  136.3330 C   0  0  0  0  0  2  0  0  0  0  0  0
  179.5430  173.7220  135.6140 C   0  0  0  0  0  2  0  0  0  0  0  0
  178.9560  172.3640  135.2910 C   0  0  0  0  0  1  0  0  0  0  0  0
  1  9  1  0  0  0  0
  1  8  1  0  0  0  0
  2 25  1  0  0  0  0
  2 19  1  0  0  0  0
  3 25  1  0  0  0  0
  4 18  1  0  0  0  0
  4 21  2  0  0  0  0
  6  7  1  0  0  0  0
  7  5  1  0  0  0  0
  8  6  1  0  0  0  0
  8 26  1  0  0  0  0
  9 10  1  0  0  0  0
 10  2  1  0  0  0  0
 11 17  2  0  0  0  0
 12  4  1  0  0  0  0
 13 19  1  0  0  0  0
 14 23  1  0  0  0  0
 15 12  1  0  0  0  0
 15 23  1  0  0  0  0
 16 22  1  0  0  0  0
 16 10  1  0  0  0  0
 17  7  1  0  0  0  0
 17 13  1  0  0  0  0
 18 24  1  0  0  0  0
 19 14  1  0  0  0  0
 20 22  1  0  0  0  0
 22  3  1  0  0  0  0
 23 18  1  0  0  0  0
 25 15  1  0  0  0  0
 26 28  1  0  0  0  0
 27 26  1  0  0  0  0
 27 28  1  0  0  0  0
 30 28  1  0  0  0  0
 30 29  1  0  0  0  0
 31 11  1  0  0  0  0
 32 31  1  0  0  0  0
M  END
>  <MODEL>
7

>  <REMARK>
 VINA RESULT:      -4.1      3.493      5.845
  Name = 
  3 active torsions:
  status: ('A' for Active; 'I' for Inactive)
    1  A    between atoms: C_7  and  C_11
    2  A    between atoms: C_9  and  C_27
    3  A    between atoms: C_14  and  C_18
                            x       y       z     vdW  Elec       q    Type
                         _______ _______ _______ _____ _____    ______ ____

>  <TORSDO>
F 3

$$$$
=
 OpenBabel10222416313D

 32 36  0  0  1  0  0  0  0  0999 V2000
  183.2710  175.9540  135.5600 C   0  0  0  0  0  2  0  0  0  0  0  0
  185.3710  178.1330  137.5800 C   0  0  1  0  0  3  0  0  0  0  0  0
  187.6580  178.3590  136.8540 O   0  0  0  0  0  0  0  0  0  0  0  0
  188.4620  178.5280  141.3580 C   0  0  0  0  0  0  0  0  0  0  0  0
  182.1250  176.2550  139.5930 O   0  0  0  0  0  1  0  0  0  0  0  0
  181.4190  175.6320  137.3500 C   0  0  0  0  0  2  0  0  0  0  0  0
  181.4680  176.7080  138.4460 C   0  0  2  0  0  3  0  0  0  0  0  0
  182.7580  175.1530  136.7660 C   0  0  2  0  0  3  0  0  0  0  0  0
  183.7240  177.2930  135.9160 N   0  0  0  0  0  2  0  0  0  0  0  0
  185.0920  177.1920  136.3960 C   0  0  1  0  0  3  0  0  0  0  0  0
  181.2320  178.6930  137.0550 C   0  0  0  0  0  3  0  0  0  0  0  0
  188.9860  178.2490  139.6730 S   0  0  0  0  0  0  0  0  0  0  0  0
  183.1390  178.7480  138.6210 C   0  0  0  0  0  2  0  0  0  0  0  0
  184.9860  178.3540  140.1340 C   0  0  0  0  0  2  0  0  0  0  0  0
  187.2540  178.5470  139.2210 C   0  0  2  0  0  3  0  0  0  0  0  0
  186.0700  177.4800  135.2560 C   0  0  0  0  0  2  0  0  0  0  0  0
  181.9690  178.0490  137.9730 C   0  0  0  0  0  0  0  0  0  0  0  0
  187.0140  178.3180  141.6370 C   0  0  1  0  0  3  0  0  0  0  0  0
  184.4040  177.9060  138.7830 C   0  0  2  0  0  3  0  0  0  0  0  0
  188.4780  177.7560  134.6940 C   0  0  0  0  0  1  0  0  0  0  0  0
  189.2220  178.9750  142.2010 O   0  0  0  0  0  0  0  0  0  0  0  0
  187.5010  177.4330  135.8050 C   0  0  1  0  0  3  0  0  0  0  0  0
  186.4210  177.9030  140.3060 C   0  0  1  0  0  3  0  0  0  0  0  0
  186.8500  177.2890  142.5640 O   0  0  0  0  0  1  0  0  0  0  0  0
  186.8620  177.8900  137.9150 C   0  0  1  0  0  3  0  0  0  0  0  0
  183.8300  174.7780  137.7970 C   0  0  2  0  0  3  0  0  0  0  0  0
  185.0250  174.2600  137.1110 N   0  0  0  0  0  2  0  0  0  0  0  0
  184.1740  173.3430  137.8860 C   0  0  2  0  0  3  0  0  0  0  0  0
  184.3380  171.4090  136.4220 N   0  0  0  0  0  1  0  0  0  0  0  0
  183.4280  172.4190  136.9310 C   0  0  0  0  0  2  0  0  0  0  0  0
  181.5630  180.0610  136.5500 C   0  0  0  0  0  2  0  0  0  0  0  0
  180.7890  181.0920  137.3440 C   0  0  0  0  0  1  0  0  0  0  0  0
  1  9  1  0  0  0  0
  1  8  1  0  0  0  0
  2 25  1  0  0  0  0
  2 19  1  0  0  0  0
  3 25  1  0  0  0  0
  4 18  1  0  0  0  0
  4 21  2  0  0  0  0
  6  7  1  0  0  0  0
  7  5  1  0  0  0  0
  8  6  1  0  0  0  0
  8 26  1  0  0  0  0
  9 10  1  0  0  0  0
 10  2  1  0  0  0  0
 11 17  2  0  0  0  0
 12  4  1  0  0  0  0
 13 19  1  0  0  0  0
 14 23  1  0  0  0  0
 15 12  1  0  0  0  0
 15 23  1  0  0  0  0
 16 22  1  0  0  0  0
 16 10  1  0  0  0  0
 17  7  1  0  0  0  0
 17 13  1  0  0  0  0
 18 24  1  0  0  0  0
 19 14  1  0  0  0  0
 20 22  1  0  0  0  0
 22  3  1  0  0  0  0
 23 18  1  0  0  0  0
 25 15  1  0  0  0  0
 26 28  1  0  0  0  0
 27 26  1  0  0  0  0
 27 28  1  0  0  0  0
 29 30  1  0  0  0  0
 30 28  1  0  0  0  0
 31 11  1  0  0  0  0
 31 32  1  0  0  0  0
M  END
>  <MODEL>
8

>  <REMARK>
 VINA RESULT:      -3.7      4.023      6.724
  Name = 
  3 active torsions:
  status: ('A' for Active; 'I' for Inactive)
    1  A    between atoms: C_7  and  C_11
    2  A    between atoms: C_9  and  C_27
    3  A    between atoms: C_14  and  C_18
                            x       y       z     vdW  Elec       q    Type
                         _______ _______ _______ _____ _____    ______ ____

>  <TORSDO>
F 3

$$$$
=
 OpenBabel10222416313D

 32 36  0  0  1  0  0  0  0  0999 V2000
  182.5020  176.2240  138.9440 C   0  0  0  0  0  2  0  0  0  0  0  0
  180.2990  178.8990  137.8370 C   0  0  1  0  0  3  0  0  0  0  0  0
  179.1640  178.5300  135.7430 O   0  0  0  0  0  0  0  0  0  0  0  0
  179.8160  183.0360  135.2600 C   0  0  0  0  0  0  0  0  0  0  0  0
  183.5650  180.0540  140.3090 O   0  0  0  0  0  1  0  0  0  0  0  0
  183.8330  177.6600  140.6470 C   0  0  0  0  0  2  0  0  0  0  0  0
  183.0950  178.9520  141.0290 C   0  0  2  0  0  3  0  0  0  0  0  0
  183.6900  177.1630  139.1990 C   0  0  2  0  0  3  0  0  0  0  0  0
  181.2140  176.9030  139.0050 N   0  0  0  0  0  2  0  0  0  0  0  0
  180.9680  177.5200  137.7130 C   0  0  1  0  0  3  0  0  0  0  0  0
  181.0290  177.9840  141.8800 C   0  0  0  0  0  3  0  0  0  0  0  0
  179.4970  181.4090  134.5940 S   0  0  0  0  0  0  0  0  0  0  0  0
  180.7220  179.7550  140.1890 C   0  0  0  0  0  2  0  0  0  0  0  0
  180.8310  181.3740  138.3930 C   0  0  0  0  0  2  0  0  0  0  0  0
  179.6890  180.8140  136.2970 C   0  0  2  0  0  3  0  0  0  0  0  0
  180.1110  176.5970  136.8450 C   0  0  0  0  0  2  0  0  0  0  0  0
  181.5920  178.8350  141.0080 C   0  0  0  0  0  0  0  0  0  0  0  0
  180.5530  183.0800  136.5540 C   0  0  1  0  0  3  0  0  0  0  0  0
  181.1110  179.8970  138.7180 C   0  0  2  0  0  3  0  0  0  0  0  0
  178.9310  176.4120  134.6640 C   0  0  0  0  0  1  0  0  0  0  0  0
  179.3580  184.0420  134.7450 O   0  0  0  0  0  0  0  0  0  0  0  0
  179.8120  177.3000  135.5160 C   0  0  1  0  0  3  0  0  0  0  0  0
  180.8110  181.6280  136.9010 C   0  0  1  0  0  3  0  0  0  0  0  0
  181.7670  183.7460  136.3900 O   0  0  0  0  0  1  0  0  0  0  0  0
  180.1080  179.3610  136.3720 C   0  0  1  0  0  3  0  0  0  0  0  0
  183.9240  178.2210  138.1130 C   0  0  2  0  0  3  0  0  0  0  0  0
  184.0690  177.5680  136.8010 N   0  0  0  0  0  2  0  0  0  0  0  0
  185.2410  178.1850  137.4420 C   0  0  2  0  0  3  0  0  0  0  0  0
  187.5510  177.4300  137.5140 N   0  0  0  0  0  1  0  0  0  0  0  0
  186.1950  177.0910  137.9080 C   0  0  0  0  0  2  0  0  0  0  0  0
  179.5490  177.8190  142.0260 C   0  0  0  0  0  2  0  0  0  0  0  0
  179.0580  178.6810  143.1700 C   0  0  0  0  0  1  0  0  0  0  0  0
  1  9  1  0  0  0  0
  1  8  1  0  0  0  0
  2 19  1  0  0  0  0
  3 25  1  0  0  0  0
  4 18  1  0  0  0  0
  5  7  1  0  0  0  0
  6  7  1  0  0  0  0
  8  6  1  0  0  0  0
 10  2  1  0  0  0  0
 10  9  1  0  0  0  0
 11 31  1  0  0  0  0
 12  4  1  0  0  0  0
 12 15  1  0  0  0  0
 13 17  1  0  0  0  0
 14 19  1  0  0  0  0
 15 25  1  0  0  0  0
 15 23  1  0  0  0  0
 16 10  1  0  0  0  0
 17  7  1  0  0  0  0
 17 11  2  0  0  0  0
 18 23  1  0  0  0  0
 19 13  1  0  0  0  0
 20 22  1  0  0  0  0
 21  4  2  0  0  0  0
 22  3  1  0  0  0  0
 22 16  1  0  0  0  0
 23 14  1  0  0  0  0
 24 18  1  0  0  0  0
 25  2  1  0  0  0  0
 26  8  1  0  0  0  0
 27 28  1  0  0  0  0
 27 26  1  0  0  0  0
 28 30  1  0  0  0  0
 28 26  1  0  0  0  0
 29 30  1  0  0  0  0
 31 32  1  0  0  0  0
M  END
>  <MODEL>
9

>  <REMARK>
 VINA RESULT:      -3.4      3.544      6.825
  Name = 
  3 active torsions:
  status: ('A' for Active; 'I' for Inactive)
    1  A    between atoms: C_7  and  C_11
    2  A    between atoms: C_9  and  C_27
    3  A    between atoms: C_14  and  C_18
                            x       y       z     vdW  Elec       q    Type
                         _______ _______ _______ _____ _____    ______ ____

>  <TORSDO>
F 3

$$$$
