=
 OpenBabel10222416553D

 28 31  0  0  1  0  0  0  0  0999 V2000
  189.3540  177.1940  139.9200 C   0  0  0  0  0  0  0  0  0  0  0  0
  187.9430  178.5440  141.2590 O   0  0  0  0  0  1  0  0  0  0  0  0
  189.0590  177.7210  141.1190 C   0  0  0  0  0  0  0  0  0  0  0  0
  187.1090  176.8610  135.7590 C   0  0  0  0  0  2  0  0  0  0  0  0
  186.8900  176.3220  137.1760 C   0  0  0  0  0  2  0  0  0  0  0  0
  188.4440  177.4640  138.7530 C   0  0  0  0  0  3  0  0  0  0  0  0
  188.0480  179.0020  136.7730 C   0  0  0  0  0  2  0  0  0  0  0  0
  188.1830  176.1810  137.9670 C   0  0  0  0  0  2  0  0  0  0  0  0
  189.0030  178.5950  137.8870 C   0  0  0  0  0  2  0  0  0  0  0  0
  188.1330  177.9930  135.6370 C   0  0  0  0  0  2  0  0  0  0  0  0
  189.6750  176.1200  142.9440 C   0  0  0  0  0  2  0  0  0  0  0  0
  189.7630  177.6120  144.8800 N   0  0  0  0  0  0  0  0  0  0  0  0
  187.6670  177.3050  143.8170 C   0  0  0  0  0  3  0  0  0  0  0  0
  187.5710  177.5030  145.1280 C   0  0  0  0  0  0  0  0  0  0  0  0
  189.1360  177.3650  143.6020 C   0  0  2  0  0  0  0  0  0  0  0  0
  188.8430  177.6900  145.7510 N   0  0  0  0  0  0  0  0  0  0  0  0
  189.9420  177.4890  142.3160 C   0  0  2  0  0  3  0  0  0  0  0  0
  186.2780  177.5660  145.8690 C   0  0  0  0  0  2  0  0  0  0  0  0
  184.3930  179.0020  145.0840 C   0  0  0  0  0  1  0  0  0  0  0  0
  185.7060  178.9740  145.8440 C   0  0  0  0  0  2  0  0  0  0  0  0
  190.5290  176.3860  139.7630 N   0  0  0  0  0  2  0  0  0  0  0  0
  191.7020  176.8790  139.1740 N   0  0  0  0  0  2  0  0  0  0  0  0
  193.3750  175.1130  135.7610 N   0  0  0  0  0  0  0  0  0  0  0  0
  191.5360  176.2210  136.8090 C   0  0  0  0  0  3  0  0  0  0  0  0
  194.0950  175.1590  136.9140 C   0  0  0  0  0  3  0  0  0  0  0  0
  193.5500  175.7450  138.0580 C   0  0  0  0  0  3  0  0  0  0  0  0
  192.1170  175.6270  135.6860 C   0  0  0  0  0  3  0  0  0  0  0  0
  192.2600  176.2800  138.0060 C   0  0  0  0  0  0  0  0  0  0  0  0
  1  3  2  0  0  0  0
  3  2  1  0  0  0  0
  4  5  1  0  0  0  0
  5  8  1  0  0  0  0
  6  1  1  0  0  0  0
  7  9  1  0  0  0  0
  8  6  1  0  0  0  0
  9  6  1  0  0  0  0
 10  4  1  0  0  0  0
 10  7  1  0  0  0  0
 12 16  2  0  0  0  0
 13 14  2  0  0  0  0
 14 16  1  0  0  0  0
 14 18  1  0  0  0  0
 15 11  1  1  0  0  0
 15 13  1  0  0  0  0
 15 12  1  0  0  0  0
 17  3  1  6  0  0  0
 17 11  1  0  0  0  0
 17 15  1  0  0  0  0
 19 20  1  0  0  0  0
 20 18  1  0  0  0  0
 21  1  1  0  0  0  0
 22 21  1  0  0  0  0
 23 25  1  0  0  0  0
 24 28  2  0  0  0  0
 25 26  2  0  0  0  0
 27 23  2  0  0  0  0
 27 24  1  0  0  0  0
 28 26  1  0  0  0  0
 28 22  1  0  0  0  0
M  END
>  <MODEL>
1

>  <REMARK>
 VINA RESULT:      -7.4      0.000      0.000
  Name = 
  7 active torsions:
  status: ('A' for Active; 'I' for Inactive)
    1  A    between atoms: N_2  and  N_15
    2  A    between atoms: N_2  and  C_25
    3  A    between atoms: C_7  and  C_25
    4  A    between atoms: C_13  and  C_14
    5  A    between atoms: C_13  and  C_27
    6  A    between atoms: N_15  and  C_19
    7  A    between atoms: C_22  and  C_28
                            x       y       z     vdW  Elec       q    Type
                         _______ _______ _______ _____ _____    ______ ____

>  <TORSDO>
F 7

$$$$
=
 OpenBabel10222416553D

 28 31  0  0  1  0  0  0  0  0999 V2000
  184.8780  178.8330  141.8280 C   0  0  0  0  0  0  0  0  0  0  0  0
  182.5700  178.3280  141.9850 O   0  0  0  0  0  1  0  0  0  0  0  0
  183.6590  178.8170  141.2660 C   0  0  0  0  0  0  0  0  0  0  0  0
  185.4680  178.7560  146.5290 C   0  0  0  0  0  2  0  0  0  0  0  0
  184.2780  178.8490  145.5690 C   0  0  0  0  0  2  0  0  0  0  0  0
  185.0400  178.3630  143.2480 C   0  0  0  0  0  3  0  0  0  0  0  0
  186.6300  177.2190  144.8620 C   0  0  0  0  0  2  0  0  0  0  0  0
  184.6420  179.4660  144.2260 C   0  0  0  0  0  2  0  0  0  0  0  0
  186.4570  177.8370  143.4800 C   0  0  0  0  0  2  0  0  0  0  0  0
  186.7930  178.3240  145.8960 C   0  0  0  0  0  2  0  0  0  0  0  0
  182.0550  178.8670  139.3420 C   0  0  0  0  0  2  0  0  0  0  0  0
  183.5200  178.2500  137.4830 N   0  0  0  0  0  2  0  0  0  0  0  0
  183.1470  176.6350  139.1770 C   0  0  0  0  0  2  0  0  0  0  0  0
  183.3200  176.1050  137.9710 C   0  0  0  0  0  0  0  0  0  0  0  0
  183.2680  178.0890  138.8960 C   0  0  2  0  0  0  0  0  0  0  0  0
  183.5480  177.0920  136.9630 N   0  0  0  0  0  0  0  0  0  0  0  0
  183.4440  179.2670  139.8450 C   0  0  2  0  0  3  0  0  0  0  0  0
  183.3200  174.6390  137.6970 C   0  0  0  0  0  2  0  0  0  0  0  0
  185.0820  172.8710  137.7590 C   0  0  0  0  0  1  0  0  0  0  0  0
  184.6620  174.1910  137.1380 C   0  0  0  0  0  2  0  0  0  0  0  0
  186.0080  179.2910  141.0720 N   0  0  0  0  0  2  0  0  0  0  0  0
  186.4790  178.6060  139.9430 N   0  0  0  0  0  2  0  0  0  0  0  0
  190.4840  177.4260  139.5710 N   0  0  0  0  0  0  0  0  0  0  0  0
  188.5860  177.8420  140.9600 C   0  0  0  0  0  3  0  0  0  0  0  0
  189.7810  177.7730  138.4590 C   0  0  0  0  0  3  0  0  0  0  0  0
  188.4460  178.1680  138.5700 C   0  0  0  0  0  3  0  0  0  0  0  0
  189.9190  177.4520  140.8080 C   0  0  0  0  0  3  0  0  0  0  0  0
  187.8430  178.2030  139.8300 C   0  0  0  0  0  0  0  0  0  0  0  0
  1  6  1  0  0  0  0
  3  1  2  0  0  0  0
  3  2  1  0  0  0  0
  5  4  1  0  0  0  0
  6  9  1  0  0  0  0
  6  8  1  0  0  0  0
  7 10  1  0  0  0  0
  8  5  1  0  0  0  0
  9  7  1  0  0  0  0
 10  4  1  0  0  0  0
 11 17  1  0  0  0  0
 12 15  1  0  0  0  0
 14 13  1  0  0  0  0
 15 13  1  1  0  0  0
 15 11  1  0  0  0  0
 15 17  1  0  0  0  0
 16 12  1  0  0  0  0
 16 14  2  0  0  0  0
 17  3  1  1  0  0  0
 18 14  1  0  0  0  0
 20 18  1  0  0  0  0
 20 19  1  0  0  0  0
 21  1  1  0  0  0  0
 22 21  1  0  0  0  0
 23 27  1  0  0  0  0
 25 26  1  0  0  0  0
 25 23  2  0  0  0  0
 26 28  2  0  0  0  0
 27 24  2  0  0  0  0
 28 22  1  0  0  0  0
 28 24  1  0  0  0  0
M  END
>  <MODEL>
2

>  <REMARK>
 VINA RESULT:      -7.3      3.743      7.603
  Name = 
  7 active torsions:
  status: ('A' for Active; 'I' for Inactive)
    1  A    between atoms: N_2  and  N_15
    2  A    between atoms: N_2  and  C_25
    3  A    between atoms: C_7  and  C_25
    4  A    between atoms: C_13  and  C_14
    5  A    between atoms: C_13  and  C_27
    6  A    between atoms: N_15  and  C_19
    7  A    between atoms: C_22  and  C_28
                            x       y       z     vdW  Elec       q    Type
                         _______ _______ _______ _____ _____    ______ ____

>  <TORSDO>
F 7

$$$$
=
 OpenBabel10222416553D

 28 31  0  0  1  0  0  0  0  0999 V2000
  185.9120  178.3770  141.9330 C   0  0  0  0  0  0  0  0  0  0  0  0
  186.4420  177.1630  143.8950 O   0  0  0  0  0  1  0  0  0  0  0  0
  186.8380  177.8370  142.7420 C   0  0  0  0  0  0  0  0  0  0  0  0
  181.1910  178.7930  141.9350 C   0  0  0  0  0  2  0  0  0  0  0  0
  182.2220  177.9420  141.1880 C   0  0  0  0  0  2  0  0  0  0  0  0
  184.4540  178.2030  142.2630 C   0  0  0  0  0  3  0  0  0  0  0  0
  182.6730  178.6820  144.0050 C   0  0  0  0  0  2  0  0  0  0  0  0
  183.5830  178.6140  141.0780 C   0  0  0  0  0  2  0  0  0  0  0  0
  184.1030  178.9450  143.5530 C   0  0  0  0  0  2  0  0  0  0  0  0
  181.7150  179.5240  143.1750 C   0  0  0  0  0  2  0  0  0  0  0  0
  189.0400  176.6540  142.5900 C   0  0  0  0  0  2  0  0  0  0  0  0
  190.4990  178.2030  143.7960 N   0  0  0  0  0  2  0  0  0  0  0  0
  188.7690  177.1420  145.0180 C   0  0  0  0  0  2  0  0  0  0  0  0
  189.8580  177.3750  145.7410 C   0  0  0  0  0  0  0  0  0  0  0  0
  189.1560  177.6820  143.6890 C   0  0  2  0  0  0  0  0  0  0  0  0
  190.8890  178.0190  144.9900 N   0  0  0  0  0  0  0  0  0  0  0  0
  188.3090  177.9920  142.4630 C   0  0  2  0  0  3  0  0  0  0  0  0
  189.9850  177.0420  147.1890 C   0  0  0  0  0  2  0  0  0  0  0  0
  188.3470  178.1450  148.7170 C   0  0  0  0  0  1  0  0  0  0  0  0
  188.6170  176.9330  147.8430 C   0  0  0  0  0  2  0  0  0  0  0  0
  186.3180  179.1140  140.7710 N   0  0  0  0  0  2  0  0  0  0  0  0
  186.2170  178.5850  139.4770 N   0  0  0  0  0  2  0  0  0  0  0  0
  189.5470  177.0760  137.4260 N   0  0  0  0  0  0  0  0  0  0  0  0
  188.6550  178.4390  139.1730 C   0  0  0  0  0  3  0  0  0  0  0  0
  188.2960  176.7130  137.0330 C   0  0  0  0  0  3  0  0  0  0  0  0
  187.1780  177.2080  137.7090 C   0  0  0  0  0  3  0  0  0  0  0  0
  189.7470  177.9220  138.4730 C   0  0  0  0  0  3  0  0  0  0  0  0
  187.3580  178.0790  138.7860 C   0  0  0  0  0  0  0  0  0  0  0  0
  1  6  1  0  0  0  0
  1  3  2  0  0  0  0
  3  2  1  0  0  0  0
  4 10  1  0  0  0  0
  5  4  1  0  0  0  0
  6  9  1  0  0  0  0
  8  5  1  0  0  0  0
  8  6  1  0  0  0  0
  9  7  1  0  0  0  0
 10  7  1  0  0  0  0
 12 16  1  0  0  0  0
 13 14  1  0  0  0  0
 14 18  1  0  0  0  0
 15 11  1  6  0  0  0
 15 12  1  0  0  0  0
 15 13  1  0  0  0  0
 16 14  2  0  0  0  0
 17 11  1  0  0  0  0
 17  3  1  1  0  0  0
 17 15  1  0  0  0  0
 18 20  1  0  0  0  0
 20 19  1  0  0  0  0
 21  1  1  0  0  0  0
 22 21  1  0  0  0  0
 23 27  1  0  0  0  0
 25 23  2  0  0  0  0
 25 26  1  0  0  0  0
 26 28  2  0  0  0  0
 27 24  2  0  0  0  0
 28 24  1  0  0  0  0
 28 22  1  0  0  0  0
M  END
>  <MODEL>
3

>  <REMARK>
 VINA RESULT:      -7.2      2.763      5.219
  Name = 
  7 active torsions:
  status: ('A' for Active; 'I' for Inactive)
    1  A    between atoms: N_2  and  N_15
    2  A    between atoms: N_2  and  C_25
    3  A    between atoms: C_7  and  C_25
    4  A    between atoms: C_13  and  C_14
    5  A    between atoms: C_13  and  C_27
    6  A    between atoms: N_15  and  C_19
    7  A    between atoms: C_22  and  C_28
                            x       y       z     vdW  Elec       q    Type
                         _______ _______ _______ _____ _____    ______ ____

>  <TORSDO>
F 7

$$$$
=
 OpenBabel10222416553D

 28 31  0  0  1  0  0  0  0  0999 V2000
  187.4980  177.2880  144.2050 C   0  0  0  0  0  0  0  0  0  0  0  0
  185.3410  178.0180  144.8520 O   0  0  0  0  0  1  0  0  0  0  0  0
  186.2780  177.7330  143.8620 C   0  0  0  0  0  0  0  0  0  0  0  0
  188.3340  178.2530  148.7690 C   0  0  0  0  0  2  0  0  0  0  0  0
  187.1110  177.8730  147.9290 C   0  0  0  0  0  2  0  0  0  0  0  0
  187.8480  177.1510  145.6620 C   0  0  0  0  0  3  0  0  0  0  0  0
  189.7590  176.7510  147.2840 C   0  0  0  0  0  2  0  0  0  0  0  0
  187.2360  178.2920  146.4710 C   0  0  0  0  0  2  0  0  0  0  0  0
  189.3630  177.0340  145.8410 C   0  0  0  0  0  2  0  0  0  0  0  0
  189.6910  178.0390  148.0920 C   0  0  0  0  0  2  0  0  0  0  0  0
  185.6690  179.3470  142.0470 C   0  0  0  0  0  2  0  0  0  0  0  0
  183.7190  178.2470  141.0620 N   0  0  0  0  0  2  0  0  0  0  0  0
  183.5460  179.0010  143.3020 C   0  0  0  0  0  2  0  0  0  0  0  0
  182.3990  179.0650  142.6330 C   0  0  0  0  0  0  0  0  0  0  0  0
  184.4730  178.4570  142.2760 C   0  0  2  0  0  0  0  0  0  0  0  0
  182.5210  178.6020  141.2870 N   0  0  0  0  0  0  0  0  0  0  0  0
  185.8740  177.8780  142.4190 C   0  0  2  0  0  3  0  0  0  0  0  0
  181.1120  179.5280  143.2260 C   0  0  0  0  0  2  0  0  0  0  0  0
  179.0700  178.8580  144.4970 C   0  0  0  0  0  1  0  0  0  0  0  0
  180.3960  178.3850  143.9290 C   0  0  0  0  0  2  0  0  0  0  0  0
  188.4480  176.9470  143.1860 N   0  0  0  0  0  2  0  0  0  0  0  0
  189.1320  177.9210  142.4460 N   0  0  0  0  0  2  0  0  0  0  0  0
  190.1220  177.3140  138.4180 N   0  0  0  0  0  0  0  0  0  0  0  0
  188.6760  178.2820  140.0550 C   0  0  0  0  0  3  0  0  0  0  0  0
  190.8960  176.7600  139.3900 C   0  0  0  0  0  3  0  0  0  0  0  0
  190.5770  176.9550  140.7360 C   0  0  0  0  0  3  0  0  0  0  0  0
  189.0280  178.0640  138.7210 C   0  0  0  0  0  3  0  0  0  0  0  0
  189.4580  177.7210  141.0710 C   0  0  0  0  0  0  0  0  0  0  0  0
  1  6  1  0  0  0  0
  3  1  2  0  0  0  0
  3  2  1  0  0  0  0
  5  4  1  0  0  0  0
  6  9  1  0  0  0  0
  6  8  1  0  0  0  0
  7 10  1  0  0  0  0
  8  5  1  0  0  0  0
  9  7  1  0  0  0  0
 10  4  1  0  0  0  0
 11 17  1  0  0  0  0
 12 16  1  0  0  0  0
 12 15  1  0  0  0  0
 14 18  1  0  0  0  0
 14 13  1  0  0  0  0
 15 11  1  6  0  0  0
 15 17  1  0  0  0  0
 15 13  1  0  0  0  0
 16 14  2  0  0  0  0
 17  3  1  1  0  0  0
 18 20  1  0  0  0  0
 20 19  1  0  0  0  0
 21  1  1  0  0  0  0
 22 21  1  0  0  0  0
 23 27  2  0  0  0  0
 23 25  1  0  0  0  0
 24 28  2  0  0  0  0
 25 26  2  0  0  0  0
 26 28  1  0  0  0  0
 27 24  1  0  0  0  0
 28 22  1  0  0  0  0
M  END
>  <MODEL>
4

>  <REMARK>
 VINA RESULT:      -7.2      3.277      6.843
  Name = 
  7 active torsions:
  status: ('A' for Active; 'I' for Inactive)
    1  A    between atoms: N_2  and  N_15
    2  A    between atoms: N_2  and  C_25
    3  A    between atoms: C_7  and  C_25
    4  A    between atoms: C_13  and  C_14
    5  A    between atoms: C_13  and  C_27
    6  A    between atoms: N_15  and  C_19
    7  A    between atoms: C_22  and  C_28
                            x       y       z     vdW  Elec       q    Type
                         _______ _______ _______ _____ _____    ______ ____

>  <TORSDO>
F 7

$$$$
=
 OpenBabel10222416553D

 28 31  0  0  1  0  0  0  0  0999 V2000
  189.3850  177.9230  141.4440 C   0  0  0  0  0  0  0  0  0  0  0  0
  191.0110  177.5410  139.7660 O   0  0  0  0  0  1  0  0  0  0  0  0
  189.7080  177.8600  140.1420 C   0  0  0  0  0  0  0  0  0  0  0  0
  191.6770  175.9770  145.1070 C   0  0  0  0  0  2  0  0  0  0  0  0
  191.5320  175.6760  143.6120 C   0  0  0  0  0  2  0  0  0  0  0  0
  190.4290  177.6000  142.4780 C   0  0  0  0  0  3  0  0  0  0  0  0
  191.5870  178.4650  144.5640 C   0  0  0  0  0  2  0  0  0  0  0  0
  190.2250  176.1890  143.0250 C   0  0  0  0  0  2  0  0  0  0  0  0
  190.4520  178.6710  143.5700 C   0  0  0  0  0  2  0  0  0  0  0  0
  191.2090  177.3670  145.5480 C   0  0  0  0  0  2  0  0  0  0  0  0
  188.0220  176.9160  138.5480 C   0  0  0  0  0  2  0  0  0  0  0  0
  188.5640  178.1370  136.5000 N   0  0  0  0  0  2  0  0  0  0  0  0
  190.1990  176.6570  137.3670 C   0  0  0  0  0  2  0  0  0  0  0  0
  190.2110  176.7390  136.0410 C   0  0  0  0  0  0  0  0  0  0  0  0
  189.0950  177.5840  137.7240 C   0  0  2  0  0  0  0  0  0  0  0  0
  189.2230  177.6380  135.5360 N   0  0  0  0  0  0  0  0  0  0  0  0
  188.7030  178.1830  139.0680 C   0  0  2  0  0  3  0  0  0  0  0  0
  191.1750  176.0070  135.1690 C   0  0  0  0  0  2  0  0  0  0  0  0
  193.6710  176.0470  135.2240 C   0  0  0  0  0  1  0  0  0  0  0  0
  192.4150  175.6020  135.9510 C   0  0  0  0  0  2  0  0  0  0  0  0
  188.0570  178.2990  141.8350 N   0  0  0  0  0  2  0  0  0  0  0  0
  187.2140  177.4330  142.5450 N   0  0  0  0  0  2  0  0  0  0  0  0
  185.5910  178.5160  146.2550 N   0  0  0  0  0  0  0  0  0  0  0  0
  187.3170  177.4380  145.0040 C   0  0  0  0  0  3  0  0  0  0  0  0
  184.9460  178.8730  145.1110 C   0  0  0  0  0  3  0  0  0  0  0  0
  185.4770  178.5190  143.8690 C   0  0  0  0  0  3  0  0  0  0  0  0
  186.7540  177.8120  146.2270 C   0  0  0  0  0  3  0  0  0  0  0  0
  186.6710  177.7950  143.8140 C   0  0  0  0  0  0  0  0  0  0  0  0
  1 21  1  0  0  0  0
  1  6  1  0  0  0  0
  2  3  1  0  0  0  0
  3  1  2  0  0  0  0
  4 10  1  0  0  0  0
  5  4  1  0  0  0  0
  6  8  1  0  0  0  0
  6  9  1  0  0  0  0
  7 10  1  0  0  0  0
  8  5  1  0  0  0  0
  9  7  1  0  0  0  0
 11 17  1  0  0  0  0
 12 15  1  0  0  0  0
 14 13  1  0  0  0  0
 15 13  1  6  0  0  0
 15 11  1  0  0  0  0
 15 17  1  0  0  0  0
 16 14  2  0  0  0  0
 16 12  1  0  0  0  0
 17  3  1  1  0  0  0
 18 20  1  0  0  0  0
 18 14  1  0  0  0  0
 19 20  1  0  0  0  0
 21 22  1  0  0  0  0
 22 28  1  0  0  0  0
 24 27  2  0  0  0  0
 25 23  2  0  0  0  0
 26 25  1  0  0  0  0
 27 23  1  0  0  0  0
 28 26  2  0  0  0  0
 28 24  1  0  0  0  0
M  END
>  <MODEL>
5

>  <REMARK>
 VINA RESULT:      -7.2      2.237      8.707
  Name = 
  7 active torsions:
  status: ('A' for Active; 'I' for Inactive)
    1  A    between atoms: N_2  and  N_15
    2  A    between atoms: N_2  and  C_25
    3  A    between atoms: C_7  and  C_25
    4  A    between atoms: C_13  and  C_14
    5  A    between atoms: C_13  and  C_27
    6  A    between atoms: N_15  and  C_19
    7  A    between atoms: C_22  and  C_28
                            x       y       z     vdW  Elec       q    Type
                         _______ _______ _______ _____ _____    ______ ____

>  <TORSDO>
F 7

$$$$
=
 OpenBabel10222416553D

 28 31  0  0  1  0  0  0  0  0999 V2000
  185.8450  178.5590  141.1540 C   0  0  0  0  0  0  0  0  0  0  0  0
  186.7420  177.3540  142.9840 O   0  0  0  0  0  1  0  0  0  0  0  0
  185.7900  178.2220  142.4520 C   0  0  0  0  0  0  0  0  0  0  0  0
  189.9960  178.0940  138.9160 C   0  0  0  0  0  2  0  0  0  0  0  0
  189.4390  177.7210  140.2930 C   0  0  0  0  0  2  0  0  0  0  0  0
  186.9670  178.0290  140.3030 C   0  0  0  0  0  3  0  0  0  0  0  0
  187.7050  177.6080  137.9110 C   0  0  0  0  0  2  0  0  0  0  0  0
  188.3010  178.6280  140.7410 C   0  0  0  0  0  2  0  0  0  0  0  0
  186.6670  178.2530  138.8200 C   0  0  0  0  0  2  0  0  0  0  0  0
  188.9520  178.4800  137.8650 C   0  0  0  0  0  2  0  0  0  0  0  0
  185.0370  180.0650  143.9720 C   0  0  0  0  0  2  0  0  0  0  0  0
  184.1390  178.7930  145.8580 N   0  0  0  0  0  0  0  0  0  0  0  0
  186.4600  178.6180  145.4160 C   0  0  0  0  0  3  0  0  0  0  0  0
  186.1600  178.5250  146.7070 C   0  0  0  0  0  0  0  0  0  0  0  0
  185.1210  178.8060  144.7990 C   0  0  2  0  0  0  0  0  0  0  0  0
  184.7570  178.6280  146.9540 N   0  0  0  0  0  0  0  0  0  0  0  0
  184.6820  178.7160  143.3450 C   0  0  2  0  0  3  0  0  0  0  0  0
  187.1670  178.2950  147.7820 C   0  0  0  0  0  2  0  0  0  0  0  0
  189.5220  177.5040  147.5400 C   0  0  0  0  0  1  0  0  0  0  0  0
  188.0590  177.1100  147.4470 C   0  0  0  0  0  2  0  0  0  0  0  0
  184.8370  179.4120  140.5920 N   0  0  0  0  0  2  0  0  0  0  0  0
  183.5040  179.0030  140.4540 N   0  0  0  0  0  2  0  0  0  0  0  0
  182.3650  176.2010  137.5530 N   0  0  0  0  0  0  0  0  0  0  0  0
  182.7860  176.7290  139.8430 C   0  0  0  0  0  3  0  0  0  0  0  0
  182.6810  177.4690  137.1730 C   0  0  0  0  0  3  0  0  0  0  0  0
  183.0610  178.4120  138.1300 C   0  0  0  0  0  3  0  0  0  0  0  0
  182.4100  175.8160  138.8560 C   0  0  0  0  0  3  0  0  0  0  0  0
  183.1150  178.0400  139.4760 C   0  0  0  0  0  0  0  0  0  0  0  0
  1  3  2  0  0  0  0
  3  2  1  0  0  0  0
  4  5  1  0  0  0  0
  5  8  1  0  0  0  0
  6  8  1  0  0  0  0
  6  1  1  0  0  0  0
  7  9  1  0  0  0  0
  9  6  1  0  0  0  0
 10  7  1  0  0  0  0
 10  4  1  0  0  0  0
 12 16  2  0  0  0  0
 13 14  2  0  0  0  0
 14 16  1  0  0  0  0
 14 18  1  0  0  0  0
 15 11  1  6  0  0  0
 15 13  1  0  0  0  0
 15 12  1  0  0  0  0
 17  3  1  6  0  0  0
 17 11  1  0  0  0  0
 17 15  1  0  0  0  0
 20 19  1  0  0  0  0
 20 18  1  0  0  0  0
 21  1  1  0  0  0  0
 22 21  1  0  0  0  0
 23 27  1  0  0  0  0
 25 23  2  0  0  0  0
 25 26  1  0  0  0  0
 26 28  2  0  0  0  0
 27 24  2  0  0  0  0
 28 24  1  0  0  0  0
 28 22  1  0  0  0  0
M  END
>  <MODEL>
6

>  <REMARK>
 VINA RESULT:      -6.9      3.842      6.220
  Name = 
  7 active torsions:
  status: ('A' for Active; 'I' for Inactive)
    1  A    between atoms: N_2  and  N_15
    2  A    between atoms: N_2  and  C_25
    3  A    between atoms: C_7  and  C_25
    4  A    between atoms: C_13  and  C_14
    5  A    between atoms: C_13  and  C_27
    6  A    between atoms: N_15  and  C_19
    7  A    between atoms: C_22  and  C_28
                            x       y       z     vdW  Elec       q    Type
                         _______ _______ _______ _____ _____    ______ ____

>  <TORSDO>
F 7

$$$$
=
 OpenBabel10222416553D

 28 31  0  0  1  0  0  0  0  0999 V2000
  188.1130  177.9040  141.6360 C   0  0  0  0  0  0  0  0  0  0  0  0
  187.7450  178.6270  139.4120 O   0  0  0  0  0  1  0  0  0  0  0  0
  188.5430  178.0020  140.3680 C   0  0  0  0  0  0  0  0  0  0  0  0
  183.8530  178.6260  143.5820 C   0  0  0  0  0  2  0  0  0  0  0  0
  185.3060  178.9070  143.9760 C   0  0  0  0  0  2  0  0  0  0  0  0
  186.7910  178.5150  142.0150 C   0  0  0  0  0  3  0  0  0  0  0  0
  184.4730  179.0870  141.1540 C   0  0  0  0  0  2  0  0  0  0  0  0
  186.2940  177.9400  143.3390 C   0  0  0  0  0  2  0  0  0  0  0  0
  185.7830  178.3600  140.8760 C   0  0  0  0  0  2  0  0  0  0  0  0
  183.6270  178.2610  142.1120 C   0  0  0  0  0  2  0  0  0  0  0  0
  190.2380  177.8620  138.5290 C   0  0  0  0  0  2  0  0  0  0  0  0
  190.6720  175.4550  138.4610 N   0  0  0  0  0  2  0  0  0  0  0  0
  188.4960  176.2000  137.8900 C   0  0  0  0  0  2  0  0  0  0  0  0
  188.8740  175.1130  137.2250 C   0  0  0  0  0  0  0  0  0  0  0  0
  189.6850  176.4730  138.7380 C   0  0  2  0  0  0  0  0  0  0  0  0
  190.1860  174.6760  137.5850 N   0  0  0  0  0  0  0  0  0  0  0  0
  189.8530  177.3980  139.9350 C   0  0  2  0  0  3  0  0  0  0  0  0
  188.0130  174.3970  136.2400 C   0  0  0  0  0  2  0  0  0  0  0  0
  186.2670  172.9730  137.3150 C   0  0  0  0  0  1  0  0  0  0  0  0
  186.5720  174.3360  136.7210 C   0  0  0  0  0  2  0  0  0  0  0  0
  188.9100  177.2180  142.6120 N   0  0  0  0  0  2  0  0  0  0  0  0
  189.8310  177.8880  143.4290 N   0  0  0  0  0  2  0  0  0  0  0  0
  190.6240  176.6290  147.3480 N   0  0  0  0  0  0  0  0  0  0  0  0
  189.1040  177.5590  145.7570 C   0  0  0  0  0  3  0  0  0  0  0  0
  191.5960  176.5270  146.4010 C   0  0  0  0  0  3  0  0  0  0  0  0
  191.3440  176.9430  145.0920 C   0  0  0  0  0  3  0  0  0  0  0  0
  189.3950  177.1330  147.0550 C   0  0  0  0  0  3  0  0  0  0  0  0
  190.0890  177.4630  144.7670 C   0  0  0  0  0  0  0  0  0  0  0  0
  1  6  1  0  0  0  0
  1 21  1  0  0  0  0
  2  3  1  0  0  0  0
  3  1  2  0  0  0  0
  4  5  1  0  0  0  0
  6  8  1  0  0  0  0
  7 10  1  0  0  0  0
  8  5  1  0  0  0  0
  9  7  1  0  0  0  0
  9  6  1  0  0  0  0
 10  4  1  0  0  0  0
 11 15  1  0  0  0  0
 11 17  1  0  0  0  0
 12 15  1  0  0  0  0
 14 16  2  0  0  0  0
 14 13  1  0  0  0  0
 15 13  1  6  0  0  0
 15 17  1  0  0  0  0
 16 12  1  0  0  0  0
 17  3  1  6  0  0  0
 18 20  1  0  0  0  0
 18 14  1  0  0  0  0
 20 19  1  0  0  0  0
 21 22  1  0  0  0  0
 22 28  1  0  0  0  0
 24 27  2  0  0  0  0
 25 23  2  0  0  0  0
 26 25  1  0  0  0  0
 27 23  1  0  0  0  0
 28 26  2  0  0  0  0
 28 24  1  0  0  0  0
M  END
>  <MODEL>
7

>  <REMARK>
 VINA RESULT:      -6.9      2.405      7.343
  Name = 
  7 active torsions:
  status: ('A' for Active; 'I' for Inactive)
    1  A    between atoms: N_2  and  N_15
    2  A    between atoms: N_2  and  C_25
    3  A    between atoms: C_7  and  C_25
    4  A    between atoms: C_13  and  C_14
    5  A    between atoms: C_13  and  C_27
    6  A    between atoms: N_15  and  C_19
    7  A    between atoms: C_22  and  C_28
                            x       y       z     vdW  Elec       q    Type
                         _______ _______ _______ _____ _____    ______ ____

>  <TORSDO>
F 7

$$$$
=
 OpenBabel10222416553D

 28 31  0  0  1  0  0  0  0  0999 V2000
  188.9480  177.6480  143.3880 C   0  0  0  0  0  0  0  0  0  0  0  0
  190.8730  178.6410  142.4320 O   0  0  0  0  0  1  0  0  0  0  0  0
  189.5880  178.1200  142.3050 C   0  0  0  0  0  0  0  0  0  0  0  0
  191.2940  176.2620  147.2650 C   0  0  0  0  0  2  0  0  0  0  0  0
  191.6730  176.7420  145.8610 C   0  0  0  0  0  2  0  0  0  0  0  0
  189.6530  177.6470  144.7170 C   0  0  0  0  0  3  0  0  0  0  0  0
  189.3090  177.8590  147.2220 C   0  0  0  0  0  2  0  0  0  0  0  0
  190.5990  176.4530  144.8220 C   0  0  0  0  0  2  0  0  0  0  0  0
  188.6410  177.7140  145.8610 C   0  0  0  0  0  2  0  0  0  0  0  0
  189.8390  176.5060  147.6750 C   0  0  0  0  0  2  0  0  0  0  0  0
  188.6630  176.7390  140.4310 C   0  0  0  0  0  2  0  0  0  0  0  0
  189.5930  177.8920  138.4840 N   0  0  0  0  0  2  0  0  0  0  0  0
  191.1090  176.8420  139.9720 C   0  0  0  0  0  2  0  0  0  0  0  0
  191.5150  176.8270  138.7080 C   0  0  0  0  0  0  0  0  0  0  0  0
  189.8060  177.5490  139.8710 C   0  0  2  0  0  0  0  0  0  0  0  0
  190.5920  177.4680  137.8260 N   0  0  0  0  0  0  0  0  0  0  0  0
  188.9230  178.1530  140.9540 C   0  0  2  0  0  3  0  0  0  0  0  0
  192.8120  176.2450  138.2550 C   0  0  0  0  0  2  0  0  0  0  0  0
  193.8880  174.1130  137.5290 C   0  0  0  0  0  1  0  0  0  0  0  0
  192.5960  174.9080  137.5640 C   0  0  0  0  0  2  0  0  0  0  0  0
  187.6060  177.1560  143.2690 N   0  0  0  0  0  2  0  0  0  0  0  0
  186.5400  177.9800  142.8810 N   0  0  0  0  0  2  0  0  0  0  0  0
  183.4380  178.9870  145.5140 N   0  0  0  0  0  0  0  0  0  0  0  0
  185.6970  178.2920  145.1720 C   0  0  0  0  0  3  0  0  0  0  0  0
  183.2150  179.0190  144.1720 C   0  0  0  0  0  3  0  0  0  0  0  0
  184.2410  178.6870  143.2840 C   0  0  0  0  0  3  0  0  0  0  0  0
  184.6460  178.6320  146.0270 C   0  0  0  0  0  3  0  0  0  0  0  0
  185.4910  178.3190  143.7870 C   0  0  0  0  0  0  0  0  0  0  0  0
  1  6  1  0  0  0  0
  3  2  1  0  0  0  0
  3  1  2  0  0  0  0
  4 10  1  0  0  0  0
  5  4  1  0  0  0  0
  6  8  1  0  0  0  0
  6  9  1  0  0  0  0
  7 10  1  0  0  0  0
  8  5  1  0  0  0  0
  9  7  1  0  0  0  0
 11 17  1  0  0  0  0
 12 15  1  0  0  0  0
 14 13  1  0  0  0  0
 15 13  1  1  0  0  0
 15 11  1  0  0  0  0
 15 17  1  0  0  0  0
 16 12  1  0  0  0  0
 16 14  2  0  0  0  0
 17  3  1  1  0  0  0
 18 14  1  0  0  0  0
 19 20  1  0  0  0  0
 20 18  1  0  0  0  0
 21  1  1  0  0  0  0
 22 21  1  0  0  0  0
 22 28  1  0  0  0  0
 23 27  1  0  0  0  0
 24 27  2  0  0  0  0
 25 23  2  0  0  0  0
 26 28  2  0  0  0  0
 26 25  1  0  0  0  0
 28 24  1  0  0  0  0
M  END
>  <MODEL>
8

>  <REMARK>
 VINA RESULT:      -6.9      2.407      8.976
  Name = 
  7 active torsions:
  status: ('A' for Active; 'I' for Inactive)
    1  A    between atoms: N_2  and  N_15
    2  A    between atoms: N_2  and  C_25
    3  A    between atoms: C_7  and  C_25
    4  A    between atoms: C_13  and  C_14
    5  A    between atoms: C_13  and  C_27
    6  A    between atoms: N_15  and  C_19
    7  A    between atoms: C_22  and  C_28
                            x       y       z     vdW  Elec       q    Type
                         _______ _______ _______ _____ _____    ______ ____

>  <TORSDO>
F 7

$$$$
=
 OpenBabel10222416553D

 28 31  0  0  1  0  0  0  0  0999 V2000
  189.6290  177.1920  141.3480 C   0  0  0  0  0  0  0  0  0  0  0  0
  188.1210  179.0170  141.3210 O   0  0  0  0  0  1  0  0  0  0  0  0
  188.7240  177.9510  141.9860 C   0  0  0  0  0  0  0  0  0  0  0  0
  189.3270  177.5190  136.6300 C   0  0  0  0  0  2  0  0  0  0  0  0
  188.9240  178.3910  137.8230 C   0  0  0  0  0  2  0  0  0  0  0  0
  189.9430  177.4770  139.9040 C   0  0  0  0  0  3  0  0  0  0  0  0
  191.3800  176.7650  137.9370 C   0  0  0  0  0  2  0  0  0  0  0  0
  188.6580  177.5850  139.0870 C   0  0  0  0  0  2  0  0  0  0  0  0
  190.9210  176.4380  139.3520 C   0  0  0  0  0  2  0  0  0  0  0  0
  190.2920  176.3730  136.9470 C   0  0  0  0  0  2  0  0  0  0  0  0
  187.4860  176.4850  143.5950 C   0  0  0  0  0  2  0  0  0  0  0  0
  186.4130  178.1490  145.0310 N   0  0  0  0  0  0  0  0  0  0  0  0
  185.7600  178.0710  142.7540 C   0  0  0  0  0  3  0  0  0  0  0  0
  184.7770  178.4270  143.5740 C   0  0  0  0  0  0  0  0  0  0  0  0
  186.8900  177.8670  143.6970 C   0  0  2  0  0  0  0  0  0  0  0  0
  185.1890  178.4730  144.9410 N   0  0  0  0  0  0  0  0  0  0  0  0
  188.3820  177.7140  143.4330 C   0  0  2  0  0  3  0  0  0  0  0  0
  183.4010  178.7820  143.1200 C   0  0  0  0  0  2  0  0  0  0  0  0
  181.0340  178.6330  143.8990 C   0  0  0  0  0  1  0  0  0  0  0  0
  182.4630  178.9430  144.3060 C   0  0  0  0  0  2  0  0  0  0  0  0
  190.2870  176.1250  142.0450 N   0  0  0  0  0  2  0  0  0  0  0  0
  191.5240  176.2990  142.6810 N   0  0  0  0  0  2  0  0  0  0  0  0
  191.9500  175.8070  146.8220 N   0  0  0  0  0  0  0  0  0  0  0  0
  191.3390  177.1850  144.9700 C   0  0  0  0  0  3  0  0  0  0  0  0
  192.2750  174.7820  145.9880 C   0  0  0  0  0  3  0  0  0  0  0  0
  192.1360  174.9330  144.6070 C   0  0  0  0  0  3  0  0  0  0  0  0
  191.4900  176.9950  146.3450 C   0  0  0  0  0  3  0  0  0  0  0  0
  191.6660  176.1440  144.0930 C   0  0  0  0  0  0  0  0  0  0  0  0
  1  3  2  0  0  0  0
  1 21  1  0  0  0  0
  2  3  1  0  0  0  0
  4 10  1  0  0  0  0
  4  5  1  0  0  0  0
  5  8  1  0  0  0  0
  6  1  1  0  0  0  0
  7  9  1  0  0  0  0
  8  6  1  0  0  0  0
  9  6  1  0  0  0  0
 10  7  1  0  0  0  0
 11 15  1  0  0  0  0
 13 14  2  0  0  0  0
 14 16  1  0  0  0  0
 15 13  1  6  0  0  0
 15 12  1  0  0  0  0
 16 12  2  0  0  0  0
 17  3  1  6  0  0  0
 17 11  1  0  0  0  0
 17 15  1  0  0  0  0
 18 14  1  0  0  0  0
 18 20  1  0  0  0  0
 19 20  1  0  0  0  0
 21 22  1  0  0  0  0
 22 28  1  0  0  0  0
 24 27  2  0  0  0  0
 25 23  2  0  0  0  0
 26 25  1  0  0  0  0
 27 23  1  0  0  0  0
 28 26  2  0  0  0  0
 28 24  1  0  0  0  0
M  END
>  <MODEL>
9

>  <REMARK>
 VINA RESULT:      -6.9      2.347      4.845
  Name = 
  7 active torsions:
  status: ('A' for Active; 'I' for Inactive)
    1  A    between atoms: N_2  and  N_15
    2  A    between atoms: N_2  and  C_25
    3  A    between atoms: C_7  and  C_25
    4  A    between atoms: C_13  and  C_14
    5  A    between atoms: C_13  and  C_27
    6  A    between atoms: N_15  and  C_19
    7  A    between atoms: C_22  and  C_28
                            x       y       z     vdW  Elec       q    Type
                         _______ _______ _______ _____ _____    ______ ____

>  <TORSDO>
F 7

$$$$
