=
 OpenBabel10222418413D

 41 42  0  0  1  0  0  0  0  0999 V2000
  188.3670  177.8000  140.7430 C   0  0  0  0  0  0  0  0  0  0  0  0
  187.2080  178.4400  141.1910 C   0  0  0  0  0  3  0  0  0  0  0  0
  187.3280  177.2100  143.2700 C   0  0  0  0  0  3  0  0  0  0  0  0
  188.4860  176.5680  142.8230 C   0  0  0  0  0  3  0  0  0  0  0  0
  186.6800  178.1540  142.4580 C   0  0  0  0  0  0  0  0  0  0  0  0
  189.0050  176.8600  141.5600 C   0  0  0  0  0  3  0  0  0  0  0  0
  185.4550  178.8270  142.9270 C   0  0  0  0  0  0  0  0  0  0  0  0
  184.8980  179.7010  142.2060 O   0  0  0  0  0  0  0  0  0  0  0  0
  183.5180  179.1370  144.4600 C   0  0  0  0  0  1  0  0  0  0  0  0
  184.8880  178.5080  144.2770 C   0  0  2  0  0  3  0  0  0  0  0  0
  185.7940  178.9610  145.3200 N   0  0  0  0  0  2  0  0  0  0  0  0
  187.2230  178.5790  147.2910 N   0  0  0  0  0  2  0  0  0  0  0  0
  188.2650  178.1100  149.3090 O   0  0  0  0  0  0  0  0  0  0  0  0
  188.0900  177.7820  148.1080 C   0  0  0  0  0  0  0  0  0  0  0  0
  186.0890  176.8330  146.2300 O   0  0  0  0  0  0  0  0  0  0  0  0
  186.3630  178.0640  146.2720 C   0  0  0  0  0  0  0  0  0  0  0  0
  188.7830  176.6750  147.6040 O   0  0  0  0  0  0  0  0  0  0  0  0
  189.9770  176.7830  146.8380 C   0  0  2  0  0  3  0  0  0  0  0  0
  192.3430  175.6850  147.6750 S   0  0  0  0  0  1  0  0  0  0  0  0
  191.1420  177.0450  147.7740 C   0  0  0  0  0  2  0  0  0  0  0  0
  189.8650  177.9240  145.8360 C   0  0  0  0  0  2  0  0  0  0  0  0
  191.0380  177.9240  144.8740 C   0  0  0  0  0  2  0  0  0  0  0  0
  190.9490  179.1130  143.9390 C   0  0  0  0  0  1  0  0  0  0  0  0
  188.8950  178.0910  139.3790 C   0  0  0  0  0  2  0  0  0  0  0  0
  185.7970  177.7330  137.2260 C   0  0  0  0  0  2  0  0  0  0  0  0
  187.0670  178.4250  137.6980 C   0  0  0  0  0  2  0  0  0  0  0  0
  186.8410  175.6690  136.2440 C   0  0  0  0  0  2  0  0  0  0  0  0
  188.3110  175.9730  136.2940 C   0  0  0  0  0  3  0  0  0  0  0  0
  188.8750  176.7710  137.2120 C   0  0  0  0  0  0  0  0  0  0  0  0
  186.0300  176.9250  135.9550 C   0  0  0  0  0  2  0  0  0  0  0  0
  188.0440  177.4190  138.3020 C   0  0  1  0  0  3  0  0  0  0  0  0
  190.3620  176.9510  137.1490 C   0  0  0  0  0  2  0  0  0  0  0  0
  191.5370  175.1590  135.9180 N   0  0  0  0  0  0  0  0  0  0  0  0
  190.9080  176.2980  135.9190 C   0  0  0  0  0  3  0  0  0  0  0  0
  190.9270  173.6610  137.6230 O   0  0  0  0  0  0  0  0  0  0  0  0
  191.8320  174.3240  137.0500 C   0  0  0  0  0  0  0  0  0  0  0  0
  193.1680  174.2420  137.5490 N   0  0  0  0  0  2  0  0  0  0  0  0
  195.9070  174.8570  137.7260 O   0  0  0  0  0  1  0  0  0  0  0  0
  194.1410  176.7770  136.8270 O   0  0  0  0  0  1  0  0  0  0  0  0
  194.7090  174.6570  135.4090 O   0  0  0  0  0  0  0  0  0  0  0  0
  194.5000  175.1260  136.8300 P   0  0  0  0  0  0  0  0  0  0  0  0
  1  2  2  0  0  0  0
  1  6  1  0  0  0  0
  2  5  1  0  0  0  0
  4  3  1  0  0  0  0
  5  7  1  0  0  0  0
  5  3  2  0  0  0  0
  6  4  2  0  0  0  0
  7 10  1  0  0  0  0
  8  7  2  0  0  0  0
 10  9  1  1  0  0  0
 10 11  1  0  0  0  0
 11 16  1  0  0  0  0
 12 14  1  0  0  0  0
 14 13  2  0  0  0  0
 15 16  2  0  0  0  0
 16 12  1  0  0  0  0
 17 14  1  0  0  0  0
 18 21  1  6  0  0  0
 18 17  1  0  0  0  0
 18 20  1  0  0  0  0
 19 20  1  0  0  0  0
 22 21  1  0  0  0  0
 23 22  1  0  0  0  0
 24  1  1  0  0  0  0
 25 26  1  0  0  0  0
 26 31  1  0  0  0  0
 27 28  1  0  0  0  0
 28 29  2  0  0  0  0
 29 31  1  0  0  0  0
 30 27  1  0  0  0  0
 30 25  1  0  0  0  0
 31 24  1  1  0  0  0
 32 29  1  0  0  0  0
 33 34  2  0  0  0  0
 33 36  1  0  0  0  0
 34 32  1  0  0  0  0
 36 37  1  0  0  0  0
 36 35  2  0  0  0  0
 39 41  1  0  0  0  0
 40 41  2  0  0  0  0
 41 37  1  0  0  0  0
 41 38  1  0  0  0  0
M  END
>  <MODEL>
1

>  <REMARK>
 VINA RESULT:      -8.0      0.000      0.000
  Name = 
  14 active torsions:
  status: ('A' for Active; 'I' for Inactive)
    1  A    between atoms: N_1  and  C_30
    2  A    between atoms: C_3  and  C_29
    3  A    between atoms: C_3  and  C_30
    4  A    between atoms: O_5  and  C_24
    5  A    between atoms: O_5  and  C_25
    6  A    between atoms: C_12  and  C_19
    7  A    between atoms: C_13  and  C_18
    8  A    between atoms: C_13  and  C_25
    9  A    between atoms: C_19  and  C_36
   10  A    between atoms: C_22  and  C_32
   11  A    between atoms: C_23  and  C_25
   12  A    between atoms: C_26  and  N_27
   13  A    between atoms: C_31  and  C_32
   14  A    between atoms: N_34  and  P_40
                            x       y       z     vdW  Elec       q    Type
                         _______ _______ _______ _____ _____    ______ ____

>  <TORSDO>
F 14

$$$$
=
 OpenBabel10222418413D

 41 42  0  0  1  0  0  0  0  0999 V2000
  189.1320  176.7260  143.2520 C   0  0  0  0  0  0  0  0  0  0  0  0
  189.6740  176.6870  141.9640 C   0  0  0  0  0  3  0  0  0  0  0  0
  191.5850  177.9600  142.7250 C   0  0  0  0  0  3  0  0  0  0  0  0
  191.0430  178.0010  144.0140 C   0  0  0  0  0  3  0  0  0  0  0  0
  190.9060  177.3000  141.6900 C   0  0  0  0  0  0  0  0  0  0  0  0
  189.8170  177.3870  144.2770 C   0  0  0  0  0  3  0  0  0  0  0  0
  191.4730  177.2610  140.3300 C   0  0  0  0  0  0  0  0  0  0  0  0
  192.5180  177.9180  140.0620 O   0  0  0  0  0  0  0  0  0  0  0  0
  191.7810  175.6040  138.4970 C   0  0  0  0  0  1  0  0  0  0  0  0
  190.7930  176.4780  139.2500 C   0  0  2  0  0  3  0  0  0  0  0  0
  190.1130  177.3770  138.3310 N   0  0  0  0  0  2  0  0  0  0  0  0
  188.5230  177.8480  136.5080 N   0  0  0  0  0  2  0  0  0  0  0  0
  187.2340  178.0750  134.5940 O   0  0  0  0  0  0  0  0  0  0  0  0
  187.3310  177.5970  135.7530 C   0  0  0  0  0  0  0  0  0  0  0  0
  188.8220  175.6930  137.3610 O   0  0  0  0  0  0  0  0  0  0  0  0
  189.1310  176.9160  137.4040 C   0  0  0  0  0  0  0  0  0  0  0  0
  186.2530  176.8740  136.2760 O   0  0  0  0  0  0  0  0  0  0  0  0
  185.9300  175.5490  135.8700 C   0  0  2  0  0  3  0  0  0  0  0  0
  183.6450  176.9190  135.2390 S   0  0  0  0  0  1  0  0  0  0  0  0
  184.8310  175.6070  134.8260 C   0  0  0  0  0  2  0  0  0  0  0  0
  185.4560  174.7280  137.0620 C   0  0  0  0  0  2  0  0  0  0  0  0
  185.5020  173.2430  136.7570 C   0  0  0  0  0  2  0  0  0  0  0  0
  186.8850  172.6920  137.0420 C   0  0  0  0  0  1  0  0  0  0  0  0
  187.8050  176.0980  143.5170 C   0  0  0  0  0  2  0  0  0  0  0  0
  187.1060  177.8190  146.8210 C   0  0  0  0  0  2  0  0  0  0  0  0
  187.8650  177.6030  145.5200 C   0  0  0  0  0  2  0  0  0  0  0  0
  184.9120  178.5680  145.8510 C   0  0  0  0  0  2  0  0  0  0  0  0
  185.2210  178.7260  144.3900 C   0  0  0  0  0  3  0  0  0  0  0  0
  186.1560  178.0120  143.7450 C   0  0  0  0  0  0  0  0  0  0  0  0
  186.1060  178.9630  146.7100 C   0  0  0  0  0  2  0  0  0  0  0  0
  186.9690  176.9560  144.4670 C   0  0  1  0  0  3  0  0  0  0  0  0
  186.3250  178.2640  142.2770 C   0  0  0  0  0  2  0  0  0  0  0  0
  185.0040  179.5350  140.6180 N   0  0  0  0  0  0  0  0  0  0  0  0
  185.4270  179.3780  141.8380 C   0  0  0  0  0  3  0  0  0  0  0  0
  186.4820  178.5620  139.0720 O   0  0  0  0  0  0  0  0  0  0  0  0
  185.2990  178.7090  139.4800 C   0  0  0  0  0  0  0  0  0  0  0  0
  184.2420  178.0460  138.7850 N   0  0  0  0  0  2  0  0  0  0  0  0
  181.5950  177.2840  138.2140 O   0  0  0  0  0  0  0  0  0  0  0  0
  182.0960  179.8110  139.2030 O   0  0  0  0  0  1  0  0  0  0  0  0
  182.3940  177.6720  140.6740 O   0  0  0  0  0  1  0  0  0  0  0  0
  182.5620  178.1880  139.2640 P   0  0  0  0  0  0  0  0  0  0  0  0
  1 24  1  0  0  0  0
  1  6  1  0  0  0  0
  2  1  2  0  0  0  0
  3  4  1  0  0  0  0
  4  6  2  0  0  0  0
  5  2  1  0  0  0  0
  5  3  2  0  0  0  0
  7  5  1  0  0  0  0
  8  7  2  0  0  0  0
 10  9  1  6  0  0  0
 10  7  1  0  0  0  0
 11 10  1  0  0  0  0
 12 16  1  0  0  0  0
 13 14  2  0  0  0  0
 14 17  1  0  0  0  0
 14 12  1  0  0  0  0
 15 16  2  0  0  0  0
 16 11  1  0  0  0  0
 18 20  1  6  0  0  0
 18 17  1  0  0  0  0
 18 21  1  0  0  0  0
 20 19  1  0  0  0  0
 22 23  1  0  0  0  0
 22 21  1  0  0  0  0
 26 25  1  0  0  0  0
 27 30  1  0  0  0  0
 28 27  1  0  0  0  0
 29 28  2  0  0  0  0
 29 31  1  0  0  0  0
 30 25  1  0  0  0  0
 31 24  1  6  0  0  0
 31 26  1  0  0  0  0
 32 29  1  0  0  0  0
 33 34  2  0  0  0  0
 34 32  1  0  0  0  0
 35 36  2  0  0  0  0
 36 33  1  0  0  0  0
 37 41  1  0  0  0  0
 37 36  1  0  0  0  0
 38 41  2  0  0  0  0
 39 41  1  0  0  0  0
 41 40  1  0  0  0  0
M  END
>  <MODEL>
2

>  <REMARK>
 VINA RESULT:      -7.5      4.667      9.692
  Name = 
  14 active torsions:
  status: ('A' for Active; 'I' for Inactive)
    1  A    between atoms: N_1  and  C_30
    2  A    between atoms: C_3  and  C_29
    3  A    between atoms: C_3  and  C_30
    4  A    between atoms: O_5  and  C_24
    5  A    between atoms: O_5  and  C_25
    6  A    between atoms: C_12  and  C_19
    7  A    between atoms: C_13  and  C_18
    8  A    between atoms: C_13  and  C_25
    9  A    between atoms: C_19  and  C_36
   10  A    between atoms: C_22  and  C_32
   11  A    between atoms: C_23  and  C_25
   12  A    between atoms: C_26  and  N_27
   13  A    between atoms: C_31  and  C_32
   14  A    between atoms: N_34  and  P_40
                            x       y       z     vdW  Elec       q    Type
                         _______ _______ _______ _____ _____    ______ ____

>  <TORSDO>
F 14

$$$$
=
 OpenBabel10222418413D

 41 42  0  0  1  0  0  0  0  0999 V2000
  187.9880  176.8720  142.8720 C   0  0  0  0  0  0  0  0  0  0  0  0
  188.2000  177.3670  141.5820 C   0  0  0  0  0  3  0  0  0  0  0  0
  190.3940  176.3500  141.5470 C   0  0  0  0  0  3  0  0  0  0  0  0
  190.1850  175.8550  142.8380 C   0  0  0  0  0  3  0  0  0  0  0  0
  189.4020  177.1080  140.9070 C   0  0  0  0  0  0  0  0  0  0  0  0
  188.9840  176.1180  143.5010 C   0  0  0  0  0  3  0  0  0  0  0  0
  189.6250  177.6350  139.5480 C   0  0  0  0  0  0  0  0  0  0  0  0
  190.7690  178.0440  139.2090 O   0  0  0  0  0  0  0  0  0  0  0  0
  188.9470  178.2780  137.2400 C   0  0  0  0  0  1  0  0  0  0  0  0
  188.4870  177.7260  138.5780 C   0  0  2  0  0  3  0  0  0  0  0  0
  187.4250  178.5540  139.1260 N   0  0  0  0  0  2  0  0  0  0  0  0
  185.1170  179.4170  139.1520 N   0  0  0  0  0  2  0  0  0  0  0  0
  183.0190  180.3570  138.8470 O   0  0  0  0  0  0  0  0  0  0  0  0
  183.7070  179.3060  138.9190 C   0  0  0  0  0  0  0  0  0  0  0  0
  185.8240  177.8240  137.5950 O   0  0  0  0  0  0  0  0  0  0  0  0
  186.1060  178.5560  138.5830 C   0  0  0  0  0  0  0  0  0  0  0  0
  183.0620  178.0690  138.8110 O   0  0  0  0  0  0  0  0  0  0  0  0
  182.0600  177.7920  137.8390 C   0  0  2  0  0  3  0  0  0  0  0  0
  179.6670  176.4750  137.6390 S   0  0  0  0  0  1  0  0  0  0  0  0
  180.7210  177.6510  138.5380 C   0  0  0  0  0  2  0  0  0  0  0  0
  182.3820  176.5040  137.0940 C   0  0  0  0  0  2  0  0  0  0  0  0
  183.2960  175.6130  137.9130 C   0  0  0  0  0  2  0  0  0  0  0  0
  183.2300  174.1860  137.4070 C   0  0  0  0  0  1  0  0  0  0  0  0
  186.7180  177.1860  143.5870 C   0  0  0  0  0  2  0  0  0  0  0  0
  188.9240  177.5660  146.6460 C   0  0  0  0  0  2  0  0  0  0  0  0
  188.4290  177.9390  145.2560 C   0  0  0  0  0  2  0  0  0  0  0  0
  186.8500  178.1400  147.9450 C   0  0  0  0  0  2  0  0  0  0  0  0
  185.9860  178.8220  146.9240 C   0  0  0  0  0  3  0  0  0  0  0  0
  186.0340  178.5560  145.6100 C   0  0  0  0  0  0  0  0  0  0  0  0
  188.3220  178.4620  147.7210 C   0  0  0  0  0  2  0  0  0  0  0  0
  186.9780  177.5050  145.0590 C   0  0  1  0  0  3  0  0  0  0  0  0
  185.0830  179.2990  144.7200 C   0  0  0  0  0  2  0  0  0  0  0  0
  182.7520  178.6600  144.2030 N   0  0  0  0  0  0  0  0  0  0  0  0
  183.6710  178.9560  145.0760 C   0  0  0  0  0  3  0  0  0  0  0  0
  184.0020  178.3450  142.2380 O   0  0  0  0  0  0  0  0  0  0  0  0
  182.8920  178.6060  142.7740 C   0  0  0  0  0  0  0  0  0  0  0  0
  181.7630  178.8580  141.9360 N   0  0  0  0  0  2  0  0  0  0  0  0
  179.7570  178.0980  143.7560 O   0  0  0  0  0  1  0  0  0  0  0  0
  179.0410  179.1950  141.3260 O   0  0  0  0  0  0  0  0  0  0  0  0
  180.1950  180.6150  143.1920 O   0  0  0  0  0  1  0  0  0  0  0  0
  180.1760  179.2350  142.5780 P   0  0  0  0  0  0  0  0  0  0  0  0
  1  6  1  0  0  0  0
  1 24  1  0  0  0  0
  2  1  2  0  0  0  0
  3  4  1  0  0  0  0
  4  6  2  0  0  0  0
  5  3  2  0  0  0  0
  5  2  1  0  0  0  0
  7  5  1  0  0  0  0
  8  7  2  0  0  0  0
 10  9  1  6  0  0  0
 10 11  1  0  0  0  0
 10  7  1  0  0  0  0
 13 14  2  0  0  0  0
 14 12  1  0  0  0  0
 15 16  2  0  0  0  0
 16 11  1  0  0  0  0
 16 12  1  0  0  0  0
 17 14  1  0  0  0  0
 18 21  1  1  0  0  0
 18 20  1  0  0  0  0
 18 17  1  0  0  0  0
 19 20  1  0  0  0  0
 21 22  1  0  0  0  0
 23 22  1  0  0  0  0
 25 30  1  0  0  0  0
 26 25  1  0  0  0  0
 28 27  1  0  0  0  0
 29 28  2  0  0  0  0
 30 27  1  0  0  0  0
 31 24  1  6  0  0  0
 31 26  1  0  0  0  0
 31 29  1  0  0  0  0
 32 34  1  0  0  0  0
 32 29  1  0  0  0  0
 33 34  2  0  0  0  0
 35 36  2  0  0  0  0
 36 33  1  0  0  0  0
 37 41  1  0  0  0  0
 37 36  1  0  0  0  0
 39 41  2  0  0  0  0
 41 40  1  0  0  0  0
 41 38  1  0  0  0  0
M  END
>  <MODEL>
3

>  <REMARK>
 VINA RESULT:      -7.4      5.011     10.431
  Name = 
  14 active torsions:
  status: ('A' for Active; 'I' for Inactive)
    1  A    between atoms: N_1  and  C_30
    2  A    between atoms: C_3  and  C_29
    3  A    between atoms: C_3  and  C_30
    4  A    between atoms: O_5  and  C_24
    5  A    between atoms: O_5  and  C_25
    6  A    between atoms: C_12  and  C_19
    7  A    between atoms: C_13  and  C_18
    8  A    between atoms: C_13  and  C_25
    9  A    between atoms: C_19  and  C_36
   10  A    between atoms: C_22  and  C_32
   11  A    between atoms: C_23  and  C_25
   12  A    between atoms: C_26  and  N_27
   13  A    between atoms: C_31  and  C_32
   14  A    between atoms: N_34  and  P_40
                            x       y       z     vdW  Elec       q    Type
                         _______ _______ _______ _____ _____    ______ ____

>  <TORSDO>
F 14

$$$$
=
 OpenBabel10222418413D

 41 42  0  0  1  0  0  0  0  0999 V2000
  189.3460  177.4660  141.1430 C   0  0  0  0  0  0  0  0  0  0  0  0
  188.1350  177.9190  141.6740 C   0  0  0  0  0  3  0  0  0  0  0  0
  188.3790  176.4000  143.5400 C   0  0  0  0  0  3  0  0  0  0  0  0
  189.5900  175.9430  143.0100 C   0  0  0  0  0  3  0  0  0  0  0  0
  187.6430  177.3940  142.8780 C   0  0  0  0  0  0  0  0  0  0  0  0
  190.0720  176.4740  141.8110 C   0  0  0  0  0  3  0  0  0  0  0  0
  186.3630  177.8710  143.4340 C   0  0  0  0  0  0  0  0  0  0  0  0
  186.0270  177.5540  144.6080 O   0  0  0  0  0  0  0  0  0  0  0  0
  184.7880  179.7990  143.4150 C   0  0  0  0  0  1  0  0  0  0  0  0
  185.4380  178.6980  142.5950 C   0  0  2  0  0  3  0  0  0  0  0  0
  184.4210  177.8540  141.9890 N   0  0  0  0  0  2  0  0  0  0  0  0
  182.9560  177.1930  140.1210 N   0  0  0  0  0  2  0  0  0  0  0  0
  181.4360  176.9020  138.3940 O   0  0  0  0  0  0  0  0  0  0  0  0
  182.6370  177.0630  138.7300 C   0  0  0  0  0  0  0  0  0  0  0  0
  184.4750  178.9590  139.9360 O   0  0  0  0  0  0  0  0  0  0  0  0
  183.9810  178.0400  140.6450 C   0  0  0  0  0  0  0  0  0  0  0  0
  183.6200  177.0650  137.7340 O   0  0  0  0  0  0  0  0  0  0  0  0
  184.0590  175.8880  137.0650 C   0  0  2  0  0  3  0  0  0  0  0  0
  183.1010  177.3480  134.9550 S   0  0  0  0  0  1  0  0  0  0  0  0
  183.2790  175.7350  135.7730 C   0  0  0  0  0  2  0  0  0  0  0  0
  183.8340  174.6630  137.9410 C   0  0  0  0  0  2  0  0  0  0  0  0
  184.8270  173.5660  137.6130 C   0  0  0  0  0  2  0  0  0  0  0  0
  184.0970  172.2980  137.2170 C   0  0  0  0  0  1  0  0  0  0  0  0
  189.8370  178.0120  139.8460 C   0  0  0  0  0  2  0  0  0  0  0  0
  187.4490  178.3790  136.9250 C   0  0  0  0  0  2  0  0  0  0  0  0
  188.7680  178.5900  137.6540 C   0  0  0  0  0  2  0  0  0  0  0  0
  187.5790  175.8850  136.6380 C   0  0  0  0  0  2  0  0  0  0  0  0
  188.9730  175.5610  137.0900 C   0  0  0  0  0  3  0  0  0  0  0  0
  189.6440  176.2770  138.0050 C   0  0  0  0  0  0  0  0  0  0  0  0
  187.5310  177.2310  135.9260 C   0  0  0  0  0  2  0  0  0  0  0  0
  189.0110  177.4800  138.6750 C   0  0  1  0  0  3  0  0  0  0  0  0
  191.0190  175.8070  138.3750 C   0  0  0  0  0  2  0  0  0  0  0  0
  193.2400  176.6710  137.7160 N   0  0  0  0  0  0  0  0  0  0  0  0
  192.0240  176.3340  137.3990 C   0  0  0  0  0  3  0  0  0  0  0  0
  193.5750  177.4700  139.9010 O   0  0  0  0  0  0  0  0  0  0  0  0
  193.8490  176.6150  139.0160 C   0  0  0  0  0  0  0  0  0  0  0  0
  194.7890  175.5840  139.3210 N   0  0  0  0  0  2  0  0  0  0  0  0
  196.0190  175.0710  136.8430 O   0  0  0  0  0  0  0  0  0  0  0  0
  193.8620  173.5410  137.6310 O   0  0  0  0  0  1  0  0  0  0  0  0
  196.1830  173.3630  138.8190 O   0  0  0  0  0  1  0  0  0  0  0  0
  195.2460  174.3510  138.1620 P   0  0  0  0  0  0  0  0  0  0  0  0
  1  2  2  0  0  0  0
  1  6  1  0  0  0  0
  2  5  1  0  0  0  0
  4  3  1  0  0  0  0
  5  7  1  0  0  0  0
  5  3  2  0  0  0  0
  6  4  2  0  0  0  0
  7  8  2  0  0  0  0
 10  9  1  1  0  0  0
 10  7  1  0  0  0  0
 11 10  1  0  0  0  0
 12 16  1  0  0  0  0
 13 14  2  0  0  0  0
 14 12  1  0  0  0  0
 15 16  2  0  0  0  0
 16 11  1  0  0  0  0
 17 14  1  0  0  0  0
 18 20  1  6  0  0  0
 18 17  1  0  0  0  0
 18 21  1  0  0  0  0
 19 20  1  0  0  0  0
 22 21  1  0  0  0  0
 23 22  1  0  0  0  0
 24  1  1  0  0  0  0
 25 26  1  0  0  0  0
 26 31  1  0  0  0  0
 27 28  1  0  0  0  0
 28 29  2  0  0  0  0
 29 32  1  0  0  0  0
 29 31  1  0  0  0  0
 30 27  1  0  0  0  0
 30 25  1  0  0  0  0
 31 24  1  1  0  0  0
 33 36  1  0  0  0  0
 34 33  2  0  0  0  0
 34 32  1  0  0  0  0
 36 37  1  0  0  0  0
 36 35  2  0  0  0  0
 38 41  2  0  0  0  0
 39 41  1  0  0  0  0
 41 40  1  0  0  0  0
 41 37  1  0  0  0  0
M  END
>  <MODEL>
4

>  <REMARK>
 VINA RESULT:      -7.3      3.592      6.368
  Name = 
  14 active torsions:
  status: ('A' for Active; 'I' for Inactive)
    1  A    between atoms: N_1  and  C_30
    2  A    between atoms: C_3  and  C_29
    3  A    between atoms: C_3  and  C_30
    4  A    between atoms: O_5  and  C_24
    5  A    between atoms: O_5  and  C_25
    6  A    between atoms: C_12  and  C_19
    7  A    between atoms: C_13  and  C_18
    8  A    between atoms: C_13  and  C_25
    9  A    between atoms: C_19  and  C_36
   10  A    between atoms: C_22  and  C_32
   11  A    between atoms: C_23  and  C_25
   12  A    between atoms: C_26  and  N_27
   13  A    between atoms: C_31  and  C_32
   14  A    between atoms: N_34  and  P_40
                            x       y       z     vdW  Elec       q    Type
                         _______ _______ _______ _____ _____    ______ ____

>  <TORSDO>
F 14

$$$$
=
 OpenBabel10222418413D

 41 42  0  0  1  0  0  0  0  0999 V2000
  190.9170  177.5570  142.0070 C   0  0  0  0  0  0  0  0  0  0  0  0
  189.5930  177.2720  142.3540 C   0  0  0  0  0  3  0  0  0  0  0  0
  190.0370  177.9550  144.6310 C   0  0  0  0  0  3  0  0  0  0  0  0
  191.3630  178.2380  144.2870 C   0  0  0  0  0  3  0  0  0  0  0  0
  189.1410  177.4710  143.6660 C   0  0  0  0  0  0  0  0  0  0  0  0
  191.8030  178.0380  142.9770 C   0  0  0  0  0  3  0  0  0  0  0  0
  187.7450  177.1660  144.0300 C   0  0  0  0  0  0  0  0  0  0  0  0
  187.1990  176.1090  143.6090 O   0  0  0  0  0  0  0  0  0  0  0  0
  187.3050  177.9910  146.3380 C   0  0  0  0  0  1  0  0  0  0  0  0
  186.9550  178.1260  144.8660 C   0  0  2  0  0  3  0  0  0  0  0  0
  185.5310  177.9130  144.6640 N   0  0  0  0  0  2  0  0  0  0  0  0
  183.3760  178.4200  143.5820 N   0  0  0  0  0  2  0  0  0  0  0  0
  181.3860  179.2260  142.7060 O   0  0  0  0  0  0  0  0  0  0  0  0
  182.5690  178.8600  142.4830 C   0  0  0  0  0  0  0  0  0  0  0  0
  185.3440  179.5380  143.0020 O   0  0  0  0  0  0  0  0  0  0  0  0
  184.7790  178.6590  143.7090 C   0  0  0  0  0  0  0  0  0  0  0  0
  183.0360  178.8580  141.1640 O   0  0  0  0  0  0  0  0  0  0  0  0
  182.2000  178.6100  140.0390 C   0  0  2  0  0  3  0  0  0  0  0  0
  180.0680  176.8940  140.1300 S   0  0  0  0  0  1  0  0  0  0  0  0
  181.8640  177.1320  139.9910 C   0  0  0  0  0  2  0  0  0  0  0  0
  182.9080  179.0120  138.7520 C   0  0  0  0  0  2  0  0  0  0  0  0
  184.2060  178.2470  138.5790 C   0  0  0  0  0  2  0  0  0  0  0  0
  184.1990  177.4910  137.2660 C   0  0  0  0  0  1  0  0  0  0  0  0
  191.3900  177.3070  140.6150 C   0  0  0  0  0  2  0  0  0  0  0  0
  188.0270  178.1470  139.0810 C   0  0  0  0  0  2  0  0  0  0  0  0
  189.5060  178.3780  139.3570 C   0  0  0  0  0  2  0  0  0  0  0  0
  188.2260  176.0320  137.7380 C   0  0  0  0  0  2  0  0  0  0  0  0
  189.7070  175.8980  137.5280 C   0  0  0  0  0  3  0  0  0  0  0  0
  190.6250  176.3660  138.3860 C   0  0  0  0  0  0  0  0  0  0  0  0
  187.7990  177.4940  137.7230 C   0  0  0  0  0  2  0  0  0  0  0  0
  190.2140  177.0610  139.6700 C   0  0  1  0  0  3  0  0  0  0  0  0
  192.0670  176.1260  138.0520 C   0  0  0  0  0  2  0  0  0  0  0  0
  193.3120  174.1630  137.2120 N   0  0  0  0  0  0  0  0  0  0  0  0
  192.3220  174.6610  137.8950 C   0  0  0  0  0  3  0  0  0  0  0  0
  194.0850  175.3880  135.3610 O   0  0  0  0  0  0  0  0  0  0  0  0
  194.3240  174.8840  136.4910 C   0  0  0  0  0  0  0  0  0  0  0  0
  195.6300  175.0340  137.0500 N   0  0  0  0  0  2  0  0  0  0  0  0
  197.7530  174.3680  138.7720 O   0  0  0  0  0  1  0  0  0  0  0  0
  195.4920  172.7850  138.7290 O   0  0  0  0  0  0  0  0  0  0  0  0
  195.4590  175.2080  139.7080 O   0  0  0  0  0  1  0  0  0  0  0  0
  196.0710  174.3680  138.6110 P   0  0  0  0  0  0  0  0  0  0  0  0
  1  2  2  0  0  0  0
  1  6  1  0  0  0  0
  2  5  1  0  0  0  0
  4  3  1  0  0  0  0
  5  7  1  0  0  0  0
  5  3  2  0  0  0  0
  6  4  2  0  0  0  0
  7 10  1  0  0  0  0
  8  7  2  0  0  0  0
 10  9  1  1  0  0  0
 11 10  1  0  0  0  0
 12 16  1  0  0  0  0
 14 13  2  0  0  0  0
 14 12  1  0  0  0  0
 15 16  2  0  0  0  0
 16 11  1  0  0  0  0
 17 14  1  0  0  0  0
 18 21  1  6  0  0  0
 18 17  1  0  0  0  0
 20 18  1  0  0  0  0
 20 19  1  0  0  0  0
 22 21  1  0  0  0  0
 23 22  1  0  0  0  0
 24  1  1  0  0  0  0
 25 26  1  0  0  0  0
 26 31  1  0  0  0  0
 28 27  1  0  0  0  0
 28 29  2  0  0  0  0
 29 31  1  0  0  0  0
 30 27  1  0  0  0  0
 30 25  1  0  0  0  0
 31 24  1  1  0  0  0
 32 29  1  0  0  0  0
 33 34  2  0  0  0  0
 34 32  1  0  0  0  0
 35 36  2  0  0  0  0
 36 37  1  0  0  0  0
 36 33  1  0  0  0  0
 37 41  1  0  0  0  0
 41 39  2  0  0  0  0
 41 38  1  0  0  0  0
 41 40  1  0  0  0  0
M  END
>  <MODEL>
5

>  <REMARK>
 VINA RESULT:      -7.3      3.114      5.637
  Name = 
  14 active torsions:
  status: ('A' for Active; 'I' for Inactive)
    1  A    between atoms: N_1  and  C_30
    2  A    between atoms: C_3  and  C_29
    3  A    between atoms: C_3  and  C_30
    4  A    between atoms: O_5  and  C_24
    5  A    between atoms: O_5  and  C_25
    6  A    between atoms: C_12  and  C_19
    7  A    between atoms: C_13  and  C_18
    8  A    between atoms: C_13  and  C_25
    9  A    between atoms: C_19  and  C_36
   10  A    between atoms: C_22  and  C_32
   11  A    between atoms: C_23  and  C_25
   12  A    between atoms: C_26  and  N_27
   13  A    between atoms: C_31  and  C_32
   14  A    between atoms: N_34  and  P_40
                            x       y       z     vdW  Elec       q    Type
                         _______ _______ _______ _____ _____    ______ ____

>  <TORSDO>
F 14

$$$$
=
 OpenBabel10222418413D

 41 42  0  0  1  0  0  0  0  0999 V2000
  186.4220  173.4500  137.3620 C   0  0  0  0  0  0  0  0  0  0  0  0
  186.7180  174.8000  137.1560 C   0  0  0  0  0  3  0  0  0  0  0  0
  188.9140  174.2000  136.3390 C   0  0  0  0  0  3  0  0  0  0  0  0
  188.6210  172.8480  136.5470 C   0  0  0  0  0  3  0  0  0  0  0  0
  187.9630  175.1870  136.6390 C   0  0  0  0  0  0  0  0  0  0  0  0
  187.3770  172.4730  137.0600 C   0  0  0  0  0  3  0  0  0  0  0  0
  188.2750  176.6130  136.4270 C   0  0  0  0  0  0  0  0  0  0  0  0
  188.4270  177.0580  135.2560 O   0  0  0  0  0  0  0  0  0  0  0  0
  188.6850  178.9600  137.1470 C   0  0  0  0  0  1  0  0  0  0  0  0
  188.4530  177.5290  137.5980 C   0  0  2  0  0  3  0  0  0  0  0  0
  189.5590  177.0760  138.4250 N   0  0  0  0  0  2  0  0  0  0  0  0
  190.8220  177.0060  140.5400 N   0  0  0  0  0  2  0  0  0  0  0  0
  192.0520  177.2960  142.4850 O   0  0  0  0  0  0  0  0  0  0  0  0
  190.9300  177.0580  141.9680 C   0  0  0  0  0  0  0  0  0  0  0  0
  188.8400  178.2230  140.3240 O   0  0  0  0  0  0  0  0  0  0  0  0
  189.6940  177.4630  139.7920 C   0  0  0  0  0  0  0  0  0  0  0  0
  189.8400  176.8130  142.8100 O   0  0  0  0  0  0  0  0  0  0  0  0
  189.5330  177.6130  143.9460 C   0  0  2  0  0  3  0  0  0  0  0  0
  191.3060  176.9270  145.9170 S   0  0  0  0  0  1  0  0  0  0  0  0
  189.6470  176.7610  145.1960 C   0  0  0  0  0  2  0  0  0  0  0  0
  188.1190  178.1690  143.8380 C   0  0  0  0  0  2  0  0  0  0  0  0
  187.2490  177.6760  144.9770 C   0  0  0  0  0  2  0  0  0  0  0  0
  185.7840  177.8760  144.6440 C   0  0  0  0  0  1  0  0  0  0  0  0
  185.1060  173.0590  137.9430 C   0  0  0  0  0  2  0  0  0  0  0  0
  182.6950  171.3050  135.6020 C   0  0  0  0  0  2  0  0  0  0  0  0
  183.2250  171.7220  136.9660 C   0  0  0  0  0  2  0  0  0  0  0  0
  182.0260  173.5740  134.7540 C   0  0  0  0  0  2  0  0  0  0  0  0
  182.1940  174.4530  135.9600 C   0  0  0  0  0  3  0  0  0  0  0  0
  183.0840  174.2160  136.9350 C   0  0  0  0  0  0  0  0  0  0  0  0
  181.5380  172.1870  135.1490 C   0  0  0  0  0  2  0  0  0  0  0  0
  184.0180  173.0230  136.8690 C   0  0  1  0  0  3  0  0  0  0  0  0
  183.1540  175.2040  138.0610 C   0  0  0  0  0  2  0  0  0  0  0  0
  182.4860  177.5720  138.3040 N   0  0  0  0  0  0  0  0  0  0  0  0
  182.8760  176.5840  137.5520 C   0  0  0  0  0  3  0  0  0  0  0  0
  181.2270  176.9820  140.1980 O   0  0  0  0  0  0  0  0  0  0  0  0
  182.2460  177.5480  139.7200 C   0  0  0  0  0  0  0  0  0  0  0  0
  183.1650  178.1810  140.6110 N   0  0  0  0  0  2  0  0  0  0  0  0
  184.1750  180.3210  139.0900 O   0  0  0  0  0  0  0  0  0  0  0  0
  185.5490  177.9280  139.1460 O   0  0  0  0  0  1  0  0  0  0  0  0
  185.4080  179.4840  141.2400 O   0  0  0  0  0  1  0  0  0  0  0  0
  184.6090  179.0010  140.0520 P   0  0  0  0  0  0  0  0  0  0  0  0
  1 24  1  0  0  0  0
  2  1  1  0  0  0  0
  3  4  2  0  0  0  0
  3  5  1  0  0  0  0
  4  6  1  0  0  0  0
  5  2  2  0  0  0  0
  6  1  2  0  0  0  0
  7  5  1  0  0  0  0
  7 10  1  0  0  0  0
  8  7  2  0  0  0  0
 10  9  1  6  0  0  0
 10 11  1  0  0  0  0
 11 16  1  0  0  0  0
 12 14  1  0  0  0  0
 14 13  2  0  0  0  0
 14 17  1  0  0  0  0
 16 15  2  0  0  0  0
 16 12  1  0  0  0  0
 17 18  1  0  0  0  0
 18 21  1  6  0  0  0
 18 20  1  0  0  0  0
 20 19  1  0  0  0  0
 21 22  1  0  0  0  0
 23 22  1  0  0  0  0
 25 26  1  0  0  0  0
 27 30  1  0  0  0  0
 27 28  1  0  0  0  0
 28 29  2  0  0  0  0
 29 32  1  0  0  0  0
 30 25  1  0  0  0  0
 31 29  1  0  0  0  0
 31 26  1  0  0  0  0
 31 24  1  1  0  0  0
 33 36  1  0  0  0  0
 34 32  1  0  0  0  0
 34 33  2  0  0  0  0
 36 35  2  0  0  0  0
 36 37  1  0  0  0  0
 38 41  2  0  0  0  0
 39 41  1  0  0  0  0
 41 37  1  0  0  0  0
 41 40  1  0  0  0  0
M  END
>  <MODEL>
6

>  <REMARK>
 VINA RESULT:      -7.2      4.161      7.620
  Name = 
  14 active torsions:
  status: ('A' for Active; 'I' for Inactive)
    1  A    between atoms: N_1  and  C_30
    2  A    between atoms: C_3  and  C_29
    3  A    between atoms: C_3  and  C_30
    4  A    between atoms: O_5  and  C_24
    5  A    between atoms: O_5  and  C_25
    6  A    between atoms: C_12  and  C_19
    7  A    between atoms: C_13  and  C_18
    8  A    between atoms: C_13  and  C_25
    9  A    between atoms: C_19  and  C_36
   10  A    between atoms: C_22  and  C_32
   11  A    between atoms: C_23  and  C_25
   12  A    between atoms: C_26  and  N_27
   13  A    between atoms: C_31  and  C_32
   14  A    between atoms: N_34  and  P_40
                            x       y       z     vdW  Elec       q    Type
                         _______ _______ _______ _____ _____    ______ ____

>  <TORSDO>
F 14

$$$$
=
 OpenBabel10222418413D

 41 42  0  0  1  0  0  0  0  0999 V2000
  187.9370  176.9770  143.1240 C   0  0  0  0  0  0  0  0  0  0  0  0
  187.9410  177.5140  141.8330 C   0  0  0  0  0  3  0  0  0  0  0  0
  190.2150  176.7510  141.5190 C   0  0  0  0  0  3  0  0  0  0  0  0
  190.2140  176.2160  142.8110 C   0  0  0  0  0  3  0  0  0  0  0  0
  189.0770  177.4020  141.0180 C   0  0  0  0  0  0  0  0  0  0  0  0
  189.0760  176.3310  143.6140 C   0  0  0  0  0  3  0  0  0  0  0  0
  189.0810  177.9720  139.6580 C   0  0  0  0  0  0  0  0  0  0  0  0
  189.0750  179.2240  139.4980 O   0  0  0  0  0  0  0  0  0  0  0  0
  190.3510  177.1480  137.6820 C   0  0  0  0  0  1  0  0  0  0  0  0
  189.0500  177.0710  138.4620 C   0  0  2  0  0  3  0  0  0  0  0  0
  187.9270  177.4140  137.6050 N   0  0  0  0  0  2  0  0  0  0  0  0
  186.0110  176.8250  136.1720 N   0  0  0  0  0  2  0  0  0  0  0  0
  184.4510  176.1010  134.6160 O   0  0  0  0  0  0  0  0  0  0  0  0
  184.9180  175.9850  135.7780 C   0  0  0  0  0  0  0  0  0  0  0  0
  187.2890  175.1970  137.2570 O   0  0  0  0  0  0  0  0  0  0  0  0
  187.0800  176.4210  137.0300 C   0  0  0  0  0  0  0  0  0  0  0  0
  184.3240  175.0700  136.6550 O   0  0  0  0  0  0  0  0  0  0  0  0
  182.9510  175.1190  137.0230 C   0  0  2  0  0  3  0  0  0  0  0  0
  181.2230  175.5610  139.1010 S   0  0  0  0  0  1  0  0  0  0  0  0
  182.8110  175.9290  138.2980 C   0  0  0  0  0  2  0  0  0  0  0  0
  182.4120  173.7130  137.2530 C   0  0  0  0  0  2  0  0  0  0  0  0
  182.8790  172.7640  136.1670 C   0  0  0  0  0  2  0  0  0  0  0  0
  183.5680  171.5620  136.7810 C   0  0  0  0  0  1  0  0  0  0  0  0
  186.7320  177.1340  143.9880 C   0  0  0  0  0  2  0  0  0  0  0  0
  189.1880  177.4720  146.8550 C   0  0  0  0  0  2  0  0  0  0  0  0
  188.6080  177.8320  145.4950 C   0  0  0  0  0  2  0  0  0  0  0  0
  187.2580  178.2050  148.2880 C   0  0  0  0  0  2  0  0  0  0  0  0
  186.3570  178.9080  147.3140 C   0  0  0  0  0  3  0  0  0  0  0  0
  186.2880  178.6010  146.0100 C   0  0  0  0  0  0  0  0  0  0  0  0
  188.7240  178.4330  147.9420 C   0  0  0  0  0  2  0  0  0  0  0  0
  187.1240  177.4800  145.4240 C   0  0  1  0  0  3  0  0  0  0  0  0
  185.3140  179.3730  145.1710 C   0  0  0  0  0  2  0  0  0  0  0  0
  183.0690  178.6280  144.4530 N   0  0  0  0  0  0  0  0  0  0  0  0
  183.9240  178.8730  145.4030 C   0  0  0  0  0  3  0  0  0  0  0  0
  184.4210  178.7120  142.5330 O   0  0  0  0  0  0  0  0  0  0  0  0
  183.2690  178.7850  143.0390 C   0  0  0  0  0  0  0  0  0  0  0  0
  182.1540  179.0350  142.1820 N   0  0  0  0  0  2  0  0  0  0  0  0
  180.0520  180.7850  142.8400 O   0  0  0  0  0  1  0  0  0  0  0  0
  180.4300  178.4950  144.3340 O   0  0  0  0  0  1  0  0  0  0  0  0
  179.5800  178.4030  141.8650 O   0  0  0  0  0  0  0  0  0  0  0  0
  180.5120  179.1590  142.7830 P   0  0  0  0  0  0  0  0  0  0  0  0
  1  6  1  0  0  0  0
  1 24  1  0  0  0  0
  2  1  2  0  0  0  0
  3  4  1  0  0  0  0
  4  6  2  0  0  0  0
  5  3  2  0  0  0  0
  5  2  1  0  0  0  0
  7  5  1  0  0  0  0
  8  7  2  0  0  0  0
 10  9  1  6  0  0  0
 10  7  1  0  0  0  0
 11 10  1  0  0  0  0
 12 16  1  0  0  0  0
 13 14  2  0  0  0  0
 14 12  1  0  0  0  0
 14 17  1  0  0  0  0
 16 15  2  0  0  0  0
 16 11  1  0  0  0  0
 17 18  1  0  0  0  0
 18 21  1  1  0  0  0
 18 20  1  0  0  0  0
 20 19  1  0  0  0  0
 22 23  1  0  0  0  0
 22 21  1  0  0  0  0
 25 30  1  0  0  0  0
 26 25  1  0  0  0  0
 28 27  1  0  0  0  0
 29 28  2  0  0  0  0
 30 27  1  0  0  0  0
 31 24  1  6  0  0  0
 31 26  1  0  0  0  0
 31 29  1  0  0  0  0
 32 34  1  0  0  0  0
 32 29  1  0  0  0  0
 33 34  2  0  0  0  0
 35 36  2  0  0  0  0
 36 33  1  0  0  0  0
 37 41  1  0  0  0  0
 37 36  1  0  0  0  0
 40 41  2  0  0  0  0
 41 38  1  0  0  0  0
 41 39  1  0  0  0  0
M  END
>  <MODEL>
7

>  <REMARK>
 VINA RESULT:      -7.1      4.738     10.796
  Name = 
  14 active torsions:
  status: ('A' for Active; 'I' for Inactive)
    1  A    between atoms: N_1  and  C_30
    2  A    between atoms: C_3  and  C_29
    3  A    between atoms: C_3  and  C_30
    4  A    between atoms: O_5  and  C_24
    5  A    between atoms: O_5  and  C_25
    6  A    between atoms: C_12  and  C_19
    7  A    between atoms: C_13  and  C_18
    8  A    between atoms: C_13  and  C_25
    9  A    between atoms: C_19  and  C_36
   10  A    between atoms: C_22  and  C_32
   11  A    between atoms: C_23  and  C_25
   12  A    between atoms: C_26  and  N_27
   13  A    between atoms: C_31  and  C_32
   14  A    between atoms: N_34  and  P_40
                            x       y       z     vdW  Elec       q    Type
                         _______ _______ _______ _____ _____    ______ ____

>  <TORSDO>
F 14

$$$$
=
 OpenBabel10222418413D

 41 42  0  0  1  0  0  0  0  0999 V2000
  190.4500  177.0250  141.4410 C   0  0  0  0  0  0  0  0  0  0  0  0
  191.1120  176.8110  142.6550 C   0  0  0  0  0  3  0  0  0  0  0  0
  188.9830  176.5710  143.7780 C   0  0  0  0  0  3  0  0  0  0  0  0
  188.3190  176.7870  142.5660 C   0  0  0  0  0  3  0  0  0  0  0  0
  190.3850  176.5780  143.8320 C   0  0  0  0  0  0  0  0  0  0  0  0
  189.0520  177.0150  141.3990 C   0  0  0  0  0  3  0  0  0  0  0  0
  191.0850  176.3580  145.1110 C   0  0  0  0  0  0  0  0  0  0  0  0
  192.0580  175.5550  145.1690 O   0  0  0  0  0  0  0  0  0  0  0  0
  191.4350  176.6200  147.5620 C   0  0  0  0  0  1  0  0  0  0  0  0
  190.6200  177.0510  146.3550 C   0  0  2  0  0  3  0  0  0  0  0  0
  189.2080  176.7860  146.5780 N   0  0  0  0  0  2  0  0  0  0  0  0
  186.8420  177.4700  146.6650 N   0  0  0  0  0  2  0  0  0  0  0  0
  184.7210  178.3450  147.0020 O   0  0  0  0  0  0  0  0  0  0  0  0
  185.7230  178.2600  146.2460 C   0  0  0  0  0  0  0  0  0  0  0  0
  188.5350  178.9520  146.0330 O   0  0  0  0  0  0  0  0  0  0  0  0
  188.2090  177.7890  146.3980 C   0  0  0  0  0  0  0  0  0  0  0  0
  185.6870  178.9070  145.0050 O   0  0  0  0  0  0  0  0  0  0  0  0
  184.7320  178.6070  143.9940 C   0  0  2  0  0  3  0  0  0  0  0  0
  184.1730  178.4550  141.3170 S   0  0  0  0  0  1  0  0  0  0  0  0
  185.3560  178.8610  142.6350 C   0  0  0  0  0  2  0  0  0  0  0  0
  183.4940  179.4800  144.1550 C   0  0  0  0  0  2  0  0  0  0  0  0
  182.2390  178.6350  144.2580 C   0  0  0  0  0  2  0  0  0  0  0  0
  181.1910  179.1320  143.2830 C   0  0  0  0  0  1  0  0  0  0  0  0
  191.2380  177.3030  140.2070 C   0  0  0  0  0  2  0  0  0  0  0  0
  188.4580  177.9640  137.7170 C   0  0  0  0  0  2  0  0  0  0  0  0
  189.7670  178.2760  138.4260 C   0  0  0  0  0  2  0  0  0  0  0  0
  189.1750  175.8760  136.5160 C   0  0  0  0  0  2  0  0  0  0  0  0
  190.6550  175.8290  136.7670 C   0  0  0  0  0  3  0  0  0  0  0  0
  191.2410  176.3410  137.8590 C   0  0  0  0  0  0  0  0  0  0  0  0
  188.6910  177.3120  136.3590 C   0  0  0  0  0  2  0  0  0  0  0  0
  190.4210  177.0000  138.9510 C   0  0  1  0  0  3  0  0  0  0  0  0
  192.7270  176.1860  137.9810 C   0  0  0  0  0  2  0  0  0  0  0  0
  194.1300  174.3900  137.0220 N   0  0  0  0  0  0  0  0  0  0  0  0
  193.1170  174.7600  137.7510 C   0  0  0  0  0  3  0  0  0  0  0  0
  194.6800  175.8790  135.2910 O   0  0  0  0  0  0  0  0  0  0  0  0
  195.0460  175.2350  136.3100 C   0  0  0  0  0  0  0  0  0  0  0  0
  196.4010  175.3510  136.7490 N   0  0  0  0  0  2  0  0  0  0  0  0
  196.1220  174.9300  139.5160 O   0  0  0  0  0  1  0  0  0  0  0  0
  198.6390  174.8990  138.3850 O   0  0  0  0  0  1  0  0  0  0  0  0
  196.8980  173.0060  137.9230 O   0  0  0  0  0  0  0  0  0  0  0  0
  197.0150  174.4950  138.1490 P   0  0  0  0  0  0  0  0  0  0  0  0
  1  2  1  0  0  0  0
  2  5  2  0  0  0  0
  3  5  1  0  0  0  0
  4  3  2  0  0  0  0
  5  7  1  0  0  0  0
  6  1  2  0  0  0  0
  6  4  1  0  0  0  0
  7  8  2  0  0  0  0
  7 10  1  0  0  0  0
 10 11  1  0  0  0  0
 10  9  1  1  0  0  0
 14 12  1  0  0  0  0
 14 13  2  0  0  0  0
 15 16  2  0  0  0  0
 16 11  1  0  0  0  0
 16 12  1  0  0  0  0
 17 14  1  0  0  0  0
 18 20  1  6  0  0  0
 18 21  1  0  0  0  0
 18 17  1  0  0  0  0
 19 20  1  0  0  0  0
 21 22  1  0  0  0  0
 23 22  1  0  0  0  0
 24  1  1  0  0  0  0
 25 26  1  0  0  0  0
 26 31  1  0  0  0  0
 27 28  1  0  0  0  0
 28 29  2  0  0  0  0
 29 32  1  0  0  0  0
 29 31  1  0  0  0  0
 30 27  1  0  0  0  0
 30 25  1  0  0  0  0
 31 24  1  1  0  0  0
 33 34  2  0  0  0  0
 34 32  1  0  0  0  0
 35 36  2  0  0  0  0
 36 37  1  0  0  0  0
 36 33  1  0  0  0  0
 37 41  1  0  0  0  0
 40 41  2  0  0  0  0
 41 39  1  0  0  0  0
 41 38  1  0  0  0  0
M  END
>  <MODEL>
8

>  <REMARK>
 VINA RESULT:      -7.0      2.540      4.897
  Name = 
  14 active torsions:
  status: ('A' for Active; 'I' for Inactive)
    1  A    between atoms: N_1  and  C_30
    2  A    between atoms: C_3  and  C_29
    3  A    between atoms: C_3  and  C_30
    4  A    between atoms: O_5  and  C_24
    5  A    between atoms: O_5  and  C_25
    6  A    between atoms: C_12  and  C_19
    7  A    between atoms: C_13  and  C_18
    8  A    between atoms: C_13  and  C_25
    9  A    between atoms: C_19  and  C_36
   10  A    between atoms: C_22  and  C_32
   11  A    between atoms: C_23  and  C_25
   12  A    between atoms: C_26  and  N_27
   13  A    between atoms: C_31  and  C_32
   14  A    between atoms: N_34  and  P_40
                            x       y       z     vdW  Elec       q    Type
                         _______ _______ _______ _____ _____    ______ ____

>  <TORSDO>
F 14

$$$$
=
 OpenBabel10222418413D

 41 42  0  0  1  0  0  0  0  0999 V2000
  184.5080  178.7640  139.4590 C   0  0  0  0  0  0  0  0  0  0  0  0
  184.4000  177.7930  138.4590 C   0  0  0  0  0  3  0  0  0  0  0  0
  182.3260  178.7880  137.7110 C   0  0  0  0  0  3  0  0  0  0  0  0
  182.4310  179.7590  138.7120 C   0  0  0  0  0  3  0  0  0  0  0  0
  183.3110  177.7990  137.5740 C   0  0  0  0  0  0  0  0  0  0  0  0
  183.5200  179.7460  139.5860 C   0  0  0  0  0  3  0  0  0  0  0  0
  183.1970  176.7710  136.5230 C   0  0  0  0  0  0  0  0  0  0  0  0
  183.1610  177.1110  135.3080 O   0  0  0  0  0  0  0  0  0  0  0  0
  181.9510  175.0960  137.8810 C   0  0  0  0  0  1  0  0  0  0  0  0
  183.0810  175.3240  136.8920 C   0  0  2  0  0  3  0  0  0  0  0  0
  184.3380  174.8460  137.4450 N   0  0  0  0  0  2  0  0  0  0  0  0
  186.6670  174.0690  137.2300 N   0  0  0  0  0  2  0  0  0  0  0  0
  188.7200  173.0680  136.8300 O   0  0  0  0  0  0  0  0  0  0  0  0
  187.9500  174.0330  136.5930 C   0  0  0  0  0  0  0  0  0  0  0  0
  185.4070  174.7270  135.3750 O   0  0  0  0  0  0  0  0  0  0  0  0
  185.4710  174.5640  136.6250 C   0  0  0  0  0  0  0  0  0  0  0  0
  188.3940  175.0570  135.7480 O   0  0  0  0  0  0  0  0  0  0  0  0
  189.0530  176.2270  136.2170 C   0  0  2  0  0  3  0  0  0  0  0  0
  191.1020  175.6860  137.9520 S   0  0  0  0  0  1  0  0  0  0  0  0
  190.5480  175.9730  136.2460 C   0  0  0  0  0  2  0  0  0  0  0  0
  188.5720  176.5840  137.6170 C   0  0  0  0  0  2  0  0  0  0  0  0
  187.9930  177.9850  137.6560 C   0  0  0  0  0  2  0  0  0  0  0  0
  189.0510  178.9780  138.0930 C   0  0  0  0  0  1  0  0  0  0  0  0
  185.6550  178.7230  140.4110 C   0  0  0  0  0  2  0  0  0  0  0  0
  183.0110  178.9170  143.1190 C   0  0  0  0  0  2  0  0  0  0  0  0
  183.8230  178.2120  142.0430 C   0  0  0  0  0  2  0  0  0  0  0  0
  184.8650  179.3560  144.7570 C   0  0  0  0  0  2  0  0  0  0  0  0
  186.0200  178.5910  144.1780 C   0  0  0  0  0  3  0  0  0  0  0  0
  186.1770  178.3580  142.8670 C   0  0  0  0  0  0  0  0  0  0  0  0
  183.5490  178.6290  144.5150 C   0  0  0  0  0  2  0  0  0  0  0  0
  185.1800  178.8870  141.8540 C   0  0  1  0  0  3  0  0  0  0  0  0
  187.4010  177.6050  142.4410 C   0  0  0  0  0  2  0  0  0  0  0  0
  189.8050  178.1650  142.3000 N   0  0  0  0  0  0  0  0  0  0  0  0
  188.5590  178.5420  142.2990 C   0  0  0  0  0  3  0  0  0  0  0  0
  190.1990  175.9910  141.5000 O   0  0  0  0  0  0  0  0  0  0  0  0
  190.3110  176.8280  142.4360 C   0  0  0  0  0  0  0  0  0  0  0  0
  190.9480  176.4250  143.6490 N   0  0  0  0  0  2  0  0  0  0  0  0
  191.9630  178.9020  144.5120 O   0  0  0  0  0  0  0  0  0  0  0  0
  192.0520  176.7310  146.2140 O   0  0  0  0  0  1  0  0  0  0  0  0
  189.7970  177.8820  145.5660 O   0  0  0  0  0  1  0  0  0  0  0  0
  191.1520  177.5070  145.0130 P   0  0  0  0  0  0  0  0  0  0  0  0
  1  6  1  0  0  0  0
  1 24  1  0  0  0  0
  2  1  2  0  0  0  0
  3  4  1  0  0  0  0
  4  6  2  0  0  0  0
  5  3  2  0  0  0  0
  5  2  1  0  0  0  0
  7 10  1  0  0  0  0
  7  5  1  0  0  0  0
  8  7  2  0  0  0  0
 10 11  1  0  0  0  0
 10  9  1  1  0  0  0
 14 13  2  0  0  0  0
 14 12  1  0  0  0  0
 15 16  2  0  0  0  0
 16 12  1  0  0  0  0
 16 11  1  0  0  0  0
 17 18  1  0  0  0  0
 17 14  1  0  0  0  0
 18 20  1  1  0  0  0
 18 21  1  0  0  0  0
 20 19  1  0  0  0  0
 21 22  1  0  0  0  0
 22 23  1  0  0  0  0
 25 30  1  0  0  0  0
 26 25  1  0  0  0  0
 28 27  1  0  0  0  0
 29 28  2  0  0  0  0
 30 27  1  0  0  0  0
 31 24  1  6  0  0  0
 31 26  1  0  0  0  0
 31 29  1  0  0  0  0
 32 29  1  0  0  0  0
 33 36  1  0  0  0  0
 34 33  2  0  0  0  0
 34 32  1  0  0  0  0
 35 36  2  0  0  0  0
 36 37  1  0  0  0  0
 37 41  1  0  0  0  0
 38 41  2  0  0  0  0
 41 40  1  0  0  0  0
 41 39  1  0  0  0  0
M  END
>  <MODEL>
9

>  <REMARK>
 VINA RESULT:      -7.0      4.000      8.445
  Name = 
  14 active torsions:
  status: ('A' for Active; 'I' for Inactive)
    1  A    between atoms: N_1  and  C_30
    2  A    between atoms: C_3  and  C_29
    3  A    between atoms: C_3  and  C_30
    4  A    between atoms: O_5  and  C_24
    5  A    between atoms: O_5  and  C_25
    6  A    between atoms: C_12  and  C_19
    7  A    between atoms: C_13  and  C_18
    8  A    between atoms: C_13  and  C_25
    9  A    between atoms: C_19  and  C_36
   10  A    between atoms: C_22  and  C_32
   11  A    between atoms: C_23  and  C_25
   12  A    between atoms: C_26  and  N_27
   13  A    between atoms: C_31  and  C_32
   14  A    between atoms: N_34  and  P_40
                            x       y       z     vdW  Elec       q    Type
                         _______ _______ _______ _____ _____    ______ ____

>  <TORSDO>
F 14

$$$$
