=
 OpenBabel10222419403D

 36 40  0  0  1  0  0  0  0  0999 V2000
  191.4670  176.7970  141.1280 C   0  0  0  0  0  3  0  0  0  0  0  0
  188.7870  177.4820  140.7770 C   0  0  0  0  0  3  0  0  0  0  0  0
  189.2230  177.0020  142.0220 C   0  0  0  0  0  0  0  0  0  0  0  0
  189.6870  177.6240  139.7130 C   0  0  0  0  0  0  0  0  0  0  0  0
  190.5720  176.6570  142.1990 C   0  0  0  0  0  0  0  0  0  0  0  0
  191.0270  177.2750  139.8920 C   0  0  0  0  0  3  0  0  0  0  0  0
  191.0030  176.1670  143.4790 N   0  0  0  0  0  2  0  0  0  0  0  0
  191.4860  176.9400  144.5870 C   0  0  0  0  0  0  0  0  0  0  0  0
  191.5710  178.1940  144.5030 O   0  0  0  0  0  0  0  0  0  0  0  0
  191.8680  176.3240  145.7850 O   0  0  0  0  0  0  0  0  0  0  0  0
  190.1180  176.5200  147.3020 O   0  0  0  0  0  0  0  0  0  0  0  0
  192.2120  177.0380  148.0560 O   0  0  0  0  0  1  0  0  0  0  0  0
  191.3480  176.6240  147.0510 C   0  0  0  0  0  0  0  0  0  0  0  0
  189.2290  178.1150  138.3750 C   0  0  2  0  0  3  0  0  0  0  0  0
  188.9770  179.4900  138.4090 O   0  0  0  0  0  1  0  0  0  0  0  0
  185.7990  175.9110  137.0560 C   0  0  0  0  0  0  0  0  0  0  0  0
  188.1430  176.0290  137.4490 C   0  0  0  0  0  0  0  0  0  0  0  0
  188.0250  177.3580  137.8900 C   0  0  0  0  0  0  0  0  0  0  0  0
  189.2670  175.4590  137.4260 O   0  0  0  0  0  0  0  0  0  0  0  0
  185.6400  177.2330  137.4830 C   0  0  0  0  0  2  0  0  0  0  0  0
  187.0380  175.3480  137.0410 N   0  0  0  0  0  0  0  0  0  0  0  0
  186.7570  177.9520  137.9060 C   0  0  0  0  0  3  0  0  0  0  0  0
  184.2390  174.0920  137.5550 C   0  0  2  0  0  3  0  0  0  0  0  0
  183.5380  175.3070  137.4600 O   0  0  0  0  0  0  0  0  0  0  0  0
  184.6180  175.1330  136.5720 C   0  0  1  0  0  3  0  0  0  0  0  0
  183.4420  173.0060  136.8650 C   0  0  0  0  0  1  0  0  0  0  0  0
  188.3320  176.8530  143.0930 O   0  0  0  0  0  0  0  0  0  0  0  0
  187.9430  177.9300  143.9450 C   0  0  2  0  0  3  0  0  0  0  0  0
  185.5880  178.1480  144.4550 C   0  0  1  0  0  0  0  0  0  0  0  0
  185.5860  177.5230  143.0810 C   0  0  0  0  0  2  0  0  0  0  0  0
  187.7160  177.4340  145.3670 C   0  0  0  0  0  2  0  0  0  0  0  0
  186.2180  177.3540  145.5780 C   0  0  0  0  0  2  0  0  0  0  0  0
  186.6430  178.5640  143.4550 C   0  0  2  0  0  3  0  0  0  0  0  0
  184.5630  179.1930  144.7400 C   0  0  0  0  0  0  0  0  0  0  0  0
  184.4290  180.1780  143.9670 O   0  0  0  0  0  0  0  0  0  0  0  0
  183.7760  179.1010  145.8810 O   0  0  0  0  0  1  0  0  0  0  0  0
  1  5  1  0  0  0  0
  2  3  1  0  0  0  0
  3  5  2  0  0  0  0
  3 27  1  0  0  0  0
  4  6  1  0  0  0  0
  4  2  2  0  0  0  0
  5  7  1  0  0  0  0
  6  1  2  0  0  0  0
  7  8  1  0  0  0  0
  8 10  1  0  0  0  0
  9  8  2  0  0  0  0
 10 13  1  0  0  0  0
 13 11  2  0  0  0  0
 13 12  1  0  0  0  0
 14 15  1  1  0  0  0
 14  4  1  0  0  0  0
 16 20  1  0  0  0  0
 17 18  1  0  0  0  0
 18 22  2  0  0  0  0
 18 14  1  0  0  0  0
 19 17  2  0  0  0  0
 20 22  1  0  0  0  0
 21 16  2  0  0  0  0
 21 17  1  0  0  0  0
 23 26  1  6  0  0  0
 24 23  1  0  0  0  0
 25 16  1  1  0  0  0
 25 24  1  0  0  0  0
 25 23  1  0  0  0  0
 28 27  1  6  0  0  0
 28 31  1  0  0  0  0
 29 34  1  1  0  0  0
 29 32  1  0  0  0  0
 30 29  1  0  0  0  0
 31 32  1  0  0  0  0
 33 30  1  6  0  0  0
 33 28  1  0  0  0  0
 33 29  1  0  0  0  0
 34 36  1  0  0  0  0
 35 34  2  0  0  0  0
M  END
>  <MODEL>
1

>  <REMARK>
 VINA RESULT:      -8.5      0.000      0.000
  Name = 
  9 active torsions:
  status: ('A' for Active; 'I' for Inactive)
    1  A    between atoms: C_3  and  C_5
    2  A    between atoms: N_4  and  C_23
    3  A    between atoms: C_6  and  O_26
    4  A    between atoms: C_10  and  C_12
    5  A    between atoms: C_10  and  C_21
    6  A    between atoms: C_13  and  O_26
    7  A    between atoms: C_14  and  C_15
    8  A    between atoms: C_22  and  O_25
    9  A    between atoms: O_25  and  C_35
                            x       y       z     vdW  Elec       q    Type
                         _______ _______ _______ _____ _____    ______ ____

>  <TORSDO>
F 9

$$$$
=
 OpenBabel10222419403D

 36 40  0  0  1  0  0  0  0  0999 V2000
  184.5200  178.9580  141.1380 C   0  0  0  0  0  3  0  0  0  0  0  0
  187.0840  178.3970  140.2000 C   0  0  0  0  0  3  0  0  0  0  0  0
  186.8720  178.5700  141.5760 C   0  0  0  0  0  0  0  0  0  0  0  0
  186.0200  178.4990  139.2960 C   0  0  0  0  0  0  0  0  0  0  0  0
  185.5810  178.8530  142.0490 C   0  0  0  0  0  0  0  0  0  0  0  0
  184.7380  178.7850  139.7700 C   0  0  0  0  0  3  0  0  0  0  0  0
  185.3790  179.0280  143.4610 N   0  0  0  0  0  2  0  0  0  0  0  0
  184.1490  178.8830  144.1860 C   0  0  0  0  0  0  0  0  0  0  0  0
  183.0860  178.5730  143.5870 O   0  0  0  0  0  0  0  0  0  0  0  0
  184.1020  179.0790  145.5720 O   0  0  0  0  0  0  0  0  0  0  0  0
  185.6500  179.7330  147.1770 O   0  0  0  0  0  1  0  0  0  0  0  0
  185.6550  177.5320  146.5630 O   0  0  0  0  0  0  0  0  0  0  0  0
  185.1530  178.8230  146.4620 C   0  0  0  0  0  0  0  0  0  0  0  0
  186.2380  178.3360  137.8230 C   0  0  2  0  0  3  0  0  0  0  0  0
  185.1290  177.7360  137.2190 O   0  0  0  0  0  1  0  0  0  0  0  0
  189.8480  176.1540  137.0660 C   0  0  0  0  0  0  0  0  0  0  0  0
  188.7130  178.2310  137.3220 C   0  0  0  0  0  0  0  0  0  0  0  0
  187.4940  177.5650  137.5320 C   0  0  0  0  0  0  0  0  0  0  0  0
  188.7680  179.4890  137.3450 O   0  0  0  0  0  0  0  0  0  0  0  0
  188.6550  175.4540  137.2650 C   0  0  0  0  0  2  0  0  0  0  0  0
  189.8470  177.5160  137.0890 N   0  0  0  0  0  0  0  0  0  0  0  0
  187.4790  176.1640  137.5050 C   0  0  0  0  0  3  0  0  0  0  0  0
  192.0110  175.4350  137.9550 C   0  0  2  0  0  3  0  0  0  0  0  0
  191.2260  174.3110  137.6490 O   0  0  0  0  0  0  0  0  0  0  0  0
  191.1130  175.4120  136.7780 C   0  0  1  0  0  3  0  0  0  0  0  0
  193.4360  175.1790  137.5140 C   0  0  0  0  0  1  0  0  0  0  0  0
  187.9300  178.4720  142.4900 O   0  0  0  0  0  0  0  0  0  0  0  0
  188.4870  177.2300  142.9150 C   0  0  2  0  0  3  0  0  0  0  0  0
  190.2030  177.3060  144.6200 C   0  0  1  0  0  0  0  0  0  0  0  0
  190.3770  178.6190  143.8960 C   0  0  0  0  0  2  0  0  0  0  0  0
  187.8680  176.7870  144.2340 C   0  0  0  0  0  2  0  0  0  0  0  0
  188.8830  177.0700  145.3210 C   0  0  0  0  0  2  0  0  0  0  0  0
  189.9940  177.3560  143.1220 C   0  0  2  0  0  3  0  0  0  0  0  0
  191.4350  176.5830  145.0470 C   0  0  0  0  0  0  0  0  0  0  0  0
  191.9690  175.7340  144.2850 O   0  0  0  0  0  0  0  0  0  0  0  0
  191.9790  176.8180  146.3030 O   0  0  0  0  0  1  0  0  0  0  0  0
  1  5  1  0  0  0  0
  2  3  1  0  0  0  0
  3  5  2  0  0  0  0
  3 27  1  0  0  0  0
  4  6  1  0  0  0  0
  4  2  2  0  0  0  0
  5  7  1  0  0  0  0
  6  1  2  0  0  0  0
  7  8  1  0  0  0  0
  8 10  1  0  0  0  0
  9  8  2  0  0  0  0
 10 13  1  0  0  0  0
 13 12  2  0  0  0  0
 13 11  1  0  0  0  0
 14 15  1  1  0  0  0
 14  4  1  0  0  0  0
 16 21  2  0  0  0  0
 16 20  1  0  0  0  0
 17 19  2  0  0  0  0
 17 18  1  0  0  0  0
 18 14  1  0  0  0  0
 20 22  1  0  0  0  0
 21 17  1  0  0  0  0
 22 18  2  0  0  0  0
 23 26  1  6  0  0  0
 24 23  1  0  0  0  0
 25 16  1  1  0  0  0
 25 24  1  0  0  0  0
 25 23  1  0  0  0  0
 28 27  1  1  0  0  0
 28 33  1  0  0  0  0
 28 31  1  0  0  0  0
 29 34  1  1  0  0  0
 29 32  1  0  0  0  0
 30 29  1  0  0  0  0
 31 32  1  0  0  0  0
 33 30  1  1  0  0  0
 33 29  1  0  0  0  0
 34 36  1  0  0  0  0
 35 34  2  0  0  0  0
M  END
>  <MODEL>
2

>  <REMARK>
 VINA RESULT:      -8.4      2.336      5.657
  Name = 
  9 active torsions:
  status: ('A' for Active; 'I' for Inactive)
    1  A    between atoms: C_3  and  C_5
    2  A    between atoms: N_4  and  C_23
    3  A    between atoms: C_6  and  O_26
    4  A    between atoms: C_10  and  C_12
    5  A    between atoms: C_10  and  C_21
    6  A    between atoms: C_13  and  O_26
    7  A    between atoms: C_14  and  C_15
    8  A    between atoms: C_22  and  O_25
    9  A    between atoms: O_25  and  C_35
                            x       y       z     vdW  Elec       q    Type
                         _______ _______ _______ _____ _____    ______ ____

>  <TORSDO>
F 9

$$$$
=
 OpenBabel10222419403D

 36 40  0  0  1  0  0  0  0  0999 V2000
  184.0670  179.3990  143.3920 C   0  0  0  0  0  3  0  0  0  0  0  0
  186.4240  178.0120  143.9330 C   0  0  0  0  0  3  0  0  0  0  0  0
  186.0850  178.3120  142.6040 C   0  0  0  0  0  0  0  0  0  0  0  0
  185.5910  178.4060  144.9870 C   0  0  0  0  0  0  0  0  0  0  0  0
  184.8990  179.0110  142.3310 C   0  0  0  0  0  0  0  0  0  0  0  0
  184.4100  179.0970  144.7120 C   0  0  0  0  0  3  0  0  0  0  0  0
  184.5650  179.3120  140.9670 N   0  0  0  0  0  2  0  0  0  0  0  0
  183.7630  178.5240  140.0750 C   0  0  0  0  0  0  0  0  0  0  0  0
  183.2630  177.4330  140.4590 O   0  0  0  0  0  0  0  0  0  0  0  0
  183.5130  178.9480  138.7640 O   0  0  0  0  0  0  0  0  0  0  0  0
  181.6320  178.3720  137.5280 O   0  0  0  0  0  1  0  0  0  0  0  0
  183.5650  177.2430  137.0680 O   0  0  0  0  0  0  0  0  0  0  0  0
  182.8530  178.1970  137.7820 C   0  0  0  0  0  0  0  0  0  0  0  0
  185.9320  178.0730  146.4070 C   0  0  2  0  0  3  0  0  0  0  0  0
  185.4940  179.0800  147.2730 O   0  0  0  0  0  1  0  0  0  0  0  0
  190.1100  177.2710  146.9220 C   0  0  0  0  0  0  0  0  0  0  0  0
  187.9840  177.7930  147.8560 C   0  0  0  0  0  0  0  0  0  0  0  0
  187.4030  177.8170  146.5770 C   0  0  1  0  0  3  0  0  0  0  0  0
  187.2860  178.0160  148.8810 O   0  0  0  0  0  0  0  0  0  0  0  0
  189.5720  177.2910  145.6320 C   0  0  0  0  0  3  0  0  0  0  0  0
  189.3120  177.5300  147.9940 N   0  0  0  0  0  0  0  0  0  0  0  0
  188.2130  177.5580  145.4640 C   0  0  0  0  0  3  0  0  0  0  0  0
  191.7940  175.6460  147.6390 C   0  0  2  0  0  3  0  0  0  0  0  0
  191.9850  175.9620  146.2830 O   0  0  0  0  0  0  0  0  0  0  0  0
  191.5690  177.0150  147.1200 C   0  0  1  0  0  3  0  0  0  0  0  0
  193.1410  175.5760  148.3250 C   0  0  0  0  0  1  0  0  0  0  0  0
  186.9090  177.9210  141.5410 O   0  0  0  0  0  0  0  0  0  0  0  0
  188.1280  178.5820  141.2080 C   0  0  2  0  0  3  0  0  0  0  0  0
  190.1290  177.2260  141.0780 C   0  0  1  0  0  0  0  0  0  0  0  0
  189.2890  176.5050  142.1040 C   0  0  0  0  0  2  0  0  0  0  0  0
  188.4680  178.3750  139.7380 C   0  0  0  0  0  2  0  0  0  0  0  0
  189.5690  177.3370  139.6770 C   0  0  0  0  0  2  0  0  0  0  0  0
  189.2850  178.0340  142.0400 C   0  0  2  0  0  3  0  0  0  0  0  0
  191.5970  177.3130  141.3240 C   0  0  0  0  0  0  0  0  0  0  0  0
  192.0510  177.2150  142.4940 O   0  0  0  0  0  1  0  0  0  0  0  0
  192.4660  177.5400  140.2640 O   0  0  0  0  0  0  0  0  0  0  0  0
  1  6  1  0  0  0  0
  2  4  1  0  0  0  0
  3  2  2  0  0  0  0
  4 14  1  0  0  0  0
  5  3  1  0  0  0  0
  5  1  2  0  0  0  0
  6  4  2  0  0  0  0
  7  5  1  0  0  0  0
  8  9  2  0  0  0  0
  8  7  1  0  0  0  0
 10  8  1  0  0  0  0
 11 13  1  0  0  0  0
 12 13  2  0  0  0  0
 13 10  1  0  0  0  0
 14 15  1  1  0  0  0
 16 21  2  0  0  0  0
 17 21  1  0  0  0  0
 17 19  2  0  0  0  0
 18 14  1  1  0  0  0
 18 17  1  0  0  0  0
 20 16  1  0  0  0  0
 22 20  2  0  0  0  0
 22 18  1  0  0  0  0
 23 26  1  1  0  0  0
 24 25  1  0  0  0  0
 24 23  1  0  0  0  0
 25 16  1  6  0  0  0
 25 23  1  0  0  0  0
 27  3  1  0  0  0  0
 28 27  1  1  0  0  0
 28 33  1  0  0  0  0
 29 34  1  1  0  0  0
 29 33  1  0  0  0  0
 29 30  1  0  0  0  0
 31 28  1  0  0  0  0
 32 31  1  0  0  0  0
 32 29  1  0  0  0  0
 33 30  1  1  0  0  0
 34 35  1  0  0  0  0
 36 34  2  0  0  0  0
M  END
>  <MODEL>
3

>  <REMARK>
 VINA RESULT:      -8.3      2.727      9.296
  Name = 
  9 active torsions:
  status: ('A' for Active; 'I' for Inactive)
    1  A    between atoms: C_3  and  C_5
    2  A    between atoms: N_4  and  C_23
    3  A    between atoms: C_6  and  O_26
    4  A    between atoms: C_10  and  C_12
    5  A    between atoms: C_10  and  C_21
    6  A    between atoms: C_13  and  O_26
    7  A    between atoms: C_14  and  C_15
    8  A    between atoms: C_22  and  O_25
    9  A    between atoms: O_25  and  C_35
                            x       y       z     vdW  Elec       q    Type
                         _______ _______ _______ _____ _____    ______ ____

>  <TORSDO>
F 9

$$$$
=
 OpenBabel10222419403D

 36 40  0  0  1  0  0  0  0  0999 V2000
  183.8830  178.6260  144.9130 C   0  0  0  0  0  3  0  0  0  0  0  0
  184.8230  178.2270  142.3190 C   0  0  0  0  0  3  0  0  0  0  0  0
  185.6510  177.9250  143.4110 C   0  0  0  0  0  0  0  0  0  0  0  0
  183.5290  178.7220  142.5220 C   0  0  0  0  0  0  0  0  0  0  0  0
  185.1790  178.1260  144.7170 C   0  0  0  0  0  0  0  0  0  0  0  0
  183.0640  178.9250  143.8230 C   0  0  0  0  0  3  0  0  0  0  0  0
  186.0380  177.8120  145.8250 N   0  0  0  0  0  2  0  0  0  0  0  0
  186.2700  178.6080  146.9970 C   0  0  0  0  0  0  0  0  0  0  0  0
  185.6930  179.7190  147.1400 O   0  0  0  0  0  0  0  0  0  0  0  0
  187.1350  178.1700  148.0070 O   0  0  0  0  0  0  0  0  0  0  0  0
  189.3700  178.3220  148.6260 O   0  0  0  0  0  1  0  0  0  0  0  0
  188.8850  177.0670  146.7780 O   0  0  0  0  0  0  0  0  0  0  0  0
  188.4940  177.8760  147.8370 C   0  0  0  0  0  0  0  0  0  0  0  0
  182.6430  179.0670  141.3650 C   0  0  2  0  0  3  0  0  0  0  0  0
  181.2980  178.8720  141.6920 O   0  0  0  0  0  1  0  0  0  0  0  0
  183.7810  176.8480  137.8800 C   0  0  0  0  0  0  0  0  0  0  0  0
  183.8750  178.8470  139.1680 C   0  0  0  0  0  0  0  0  0  0  0  0
  183.0170  178.2920  140.1320 C   0  0  0  0  0  0  0  0  0  0  0  0
  184.3230  180.0160  139.3060 O   0  0  0  0  0  0  0  0  0  0  0  0
  182.9220  176.2620  138.8130 C   0  0  0  0  0  2  0  0  0  0  0  0
  184.2260  178.1200  138.0730 N   0  0  0  0  0  0  0  0  0  0  0  0
  182.5460  176.9860  139.9440 C   0  0  0  0  0  3  0  0  0  0  0  0
  185.5060  175.4770  136.8140 C   0  0  2  0  0  3  0  0  0  0  0  0
  184.3230  174.7310  136.9500 O   0  0  0  0  0  0  0  0  0  0  0  0
  184.1720  176.0980  136.6470 C   0  0  1  0  0  3  0  0  0  0  0  0
  186.1130  175.2000  135.4550 C   0  0  0  0  0  1  0  0  0  0  0  0
  186.9490  177.4320  143.2210 O   0  0  0  0  0  0  0  0  0  0  0  0
  188.0410  178.2420  142.7900 C   0  0  2  0  0  3  0  0  0  0  0  0
  190.0230  177.1040  141.9940 C   0  0  1  0  0  0  0  0  0  0  0  0
  189.4520  176.1370  143.0020 C   0  0  0  0  0  2  0  0  0  0  0  0
  188.0690  178.3420  141.2710 C   0  0  0  0  0  2  0  0  0  0  0  0
  189.1750  177.4280  140.7840 C   0  0  0  0  0  2  0  0  0  0  0  0
  189.3700  177.6450  143.2470 C   0  0  2  0  0  3  0  0  0  0  0  0
  191.5050  177.2650  141.9530 C   0  0  0  0  0  0  0  0  0  0  0  0
  192.1770  177.2220  143.0170 O   0  0  0  0  0  1  0  0  0  0  0  0
  192.1450  177.4980  140.7430 O   0  0  0  0  0  0  0  0  0  0  0  0
  2  4  2  0  0  0  0
  2  3  1  0  0  0  0
  3  5  2  0  0  0  0
  4  6  1  0  0  0  0
  5  1  1  0  0  0  0
  5  7  1  0  0  0  0
  6  1  2  0  0  0  0
  7  8  1  0  0  0  0
  8  9  2  0  0  0  0
  8 10  1  0  0  0  0
 12 13  2  0  0  0  0
 13 10  1  0  0  0  0
 13 11  1  0  0  0  0
 14 15  1  1  0  0  0
 14  4  1  0  0  0  0
 16 21  2  0  0  0  0
 16 20  1  0  0  0  0
 17 19  2  0  0  0  0
 17 18  1  0  0  0  0
 18 14  1  0  0  0  0
 20 22  1  0  0  0  0
 21 17  1  0  0  0  0
 22 18  2  0  0  0  0
 23 26  1  6  0  0  0
 23 24  1  0  0  0  0
 25 23  1  0  0  0  0
 25 24  1  0  0  0  0
 25 16  1  1  0  0  0
 27  3  1  0  0  0  0
 28 27  1  6  0  0  0
 28 33  1  0  0  0  0
 29 34  1  6  0  0  0
 29 30  1  0  0  0  0
 29 33  1  0  0  0  0
 31 28  1  0  0  0  0
 32 31  1  0  0  0  0
 32 29  1  0  0  0  0
 33 30  1  1  0  0  0
 34 35  1  0  0  0  0
 36 34  2  0  0  0  0
M  END
>  <MODEL>
4

>  <REMARK>
 VINA RESULT:      -8.2      2.560      5.499
  Name = 
  9 active torsions:
  status: ('A' for Active; 'I' for Inactive)
    1  A    between atoms: C_3  and  C_5
    2  A    between atoms: N_4  and  C_23
    3  A    between atoms: C_6  and  O_26
    4  A    between atoms: C_10  and  C_12
    5  A    between atoms: C_10  and  C_21
    6  A    between atoms: C_13  and  O_26
    7  A    between atoms: C_14  and  C_15
    8  A    between atoms: C_22  and  O_25
    9  A    between atoms: O_25  and  C_35
                            x       y       z     vdW  Elec       q    Type
                         _______ _______ _______ _____ _____    ______ ____

>  <TORSDO>
F 9

$$$$
=
 OpenBabel10222419403D

 36 40  0  0  1  0  0  0  0  0999 V2000
  186.8120  177.5590  144.3440 C   0  0  0  0  0  3  0  0  0  0  0  0
  186.7300  178.5470  141.7380 C   0  0  0  0  0  3  0  0  0  0  0  0
  187.9270  178.0140  142.2400 C   0  0  0  0  0  0  0  0  0  0  0  0
  185.5770  178.5820  142.5320 C   0  0  0  0  0  0  0  0  0  0  0  0
  187.9690  177.5160  143.5520 C   0  0  0  0  0  0  0  0  0  0  0  0
  185.6240  178.0900  143.8380 C   0  0  0  0  0  3  0  0  0  0  0  0
  189.2020  176.9740  144.0530 N   0  0  0  0  0  2  0  0  0  0  0  0
  190.3350  177.7030  144.5460 C   0  0  0  0  0  0  0  0  0  0  0  0
  190.3220  178.9630  144.5720 O   0  0  0  0  0  0  0  0  0  0  0  0
  191.4750  177.0370  145.0120 O   0  0  0  0  0  0  0  0  0  0  0  0
  192.3410  175.4450  146.4670 O   0  0  0  0  0  0  0  0  0  0  0  0
  190.9280  177.0060  147.3550 O   0  0  0  0  0  1  0  0  0  0  0  0
  191.6100  176.4540  146.2790 C   0  0  0  0  0  0  0  0  0  0  0  0
  184.2990  179.1670  142.0140 C   0  0  2  0  0  3  0  0  0  0  0  0
  183.3140  179.1680  143.0070 O   0  0  0  0  0  1  0  0  0  0  0  0
  183.0160  177.1060  138.4830 C   0  0  0  0  0  0  0  0  0  0  0  0
  184.0570  178.9870  139.5050 C   0  0  0  0  0  0  0  0  0  0  0  0
  183.8230  178.4500  140.7820 C   0  0  0  0  0  0  0  0  0  0  0  0
  184.6460  180.0920  139.3720 O   0  0  0  0  0  0  0  0  0  0  0  0
  182.7590  176.5410  139.7350 C   0  0  0  0  0  2  0  0  0  0  0  0
  183.6450  178.3100  138.3980 N   0  0  0  0  0  0  0  0  0  0  0  0
  183.1710  177.2150  140.8850 C   0  0  0  0  0  3  0  0  0  0  0  0
  183.6300  175.5500  136.6960 C   0  0  2  0  0  3  0  0  0  0  0  0
  182.5650  175.0200  137.4430 O   0  0  0  0  0  0  0  0  0  0  0  0
  182.5560  176.4130  137.2410 C   0  0  1  0  0  3  0  0  0  0  0  0
  183.3810  175.2930  135.2260 C   0  0  0  0  0  1  0  0  0  0  0  0
  189.0880  177.9750  141.4560 O   0  0  0  0  0  0  0  0  0  0  0  0
  189.4070  176.8950  140.5810 C   0  0  2  0  0  3  0  0  0  0  0  0
  190.1530  177.4560  138.3480 C   0  0  1  0  0  0  0  0  0  0  0  0
  189.2370  178.6020  138.7040 C   0  0  0  0  0  2  0  0  0  0  0  0
  190.9140  176.6850  140.5160 C   0  0  0  0  0  2  0  0  0  0  0  0
  191.3890  177.2650  139.2000 C   0  0  0  0  0  2  0  0  0  0  0  0
  188.9110  177.1800  139.1660 C   0  0  2  0  0  3  0  0  0  0  0  0
  190.0990  176.9370  136.9520 C   0  0  0  0  0  0  0  0  0  0  0  0
  191.1080  176.3790  136.4440 O   0  0  0  0  0  1  0  0  0  0  0  0
  188.9470  177.1000  136.1930 O   0  0  0  0  0  0  0  0  0  0  0  0
  2  3  2  0  0  0  0
  2  4  1  0  0  0  0
  3  5  1  0  0  0  0
  4  6  2  0  0  0  0
  5  7  1  0  0  0  0
  5  1  2  0  0  0  0
  6  1  1  0  0  0  0
  7  8  1  0  0  0  0
  8  9  2  0  0  0  0
  8 10  1  0  0  0  0
 10 13  1  0  0  0  0
 13 11  2  0  0  0  0
 13 12  1  0  0  0  0
 14  4  1  0  0  0  0
 14 15  1  1  0  0  0
 16 20  1  0  0  0  0
 17 18  1  0  0  0  0
 18 22  2  0  0  0  0
 18 14  1  0  0  0  0
 19 17  2  0  0  0  0
 20 22  1  0  0  0  0
 21 16  2  0  0  0  0
 21 17  1  0  0  0  0
 23 26  1  6  0  0  0
 23 25  1  0  0  0  0
 23 24  1  0  0  0  0
 25 24  1  0  0  0  0
 25 16  1  1  0  0  0
 27  3  1  0  0  0  0
 28 27  1  1  0  0  0
 29 34  1  6  0  0  0
 29 30  1  0  0  0  0
 29 33  1  0  0  0  0
 29 32  1  0  0  0  0
 31 28  1  0  0  0  0
 32 31  1  0  0  0  0
 33 30  1  1  0  0  0
 33 28  1  0  0  0  0
 35 34  1  0  0  0  0
 36 34  2  0  0  0  0
M  END
>  <MODEL>
5

>  <REMARK>
 VINA RESULT:      -7.9      2.097      5.270
  Name = 
  9 active torsions:
  status: ('A' for Active; 'I' for Inactive)
    1  A    between atoms: C_3  and  C_5
    2  A    between atoms: N_4  and  C_23
    3  A    between atoms: C_6  and  O_26
    4  A    between atoms: C_10  and  C_12
    5  A    between atoms: C_10  and  C_21
    6  A    between atoms: C_13  and  O_26
    7  A    between atoms: C_14  and  C_15
    8  A    between atoms: C_22  and  O_25
    9  A    between atoms: O_25  and  C_35
                            x       y       z     vdW  Elec       q    Type
                         _______ _______ _______ _____ _____    ______ ____

>  <TORSDO>
F 9

$$$$
=
 OpenBabel10222419403D

 36 40  0  0  1  0  0  0  0  0999 V2000
  190.5100  177.5000  139.9130 C   0  0  0  0  0  3  0  0  0  0  0  0
  187.7840  178.0750  140.0260 C   0  0  0  0  0  3  0  0  0  0  0  0
  188.5100  177.9210  141.2170 C   0  0  0  0  0  0  0  0  0  0  0  0
  188.4170  177.9470  138.7840 C   0  0  0  0  0  0  0  0  0  0  0  0
  189.8830  177.6310  141.1610 C   0  0  0  0  0  0  0  0  0  0  0  0
  189.7810  177.6540  138.7320 C   0  0  0  0  0  3  0  0  0  0  0  0
  190.6130  177.4760  142.3890 N   0  0  0  0  0  2  0  0  0  0  0  0
  190.7460  176.2830  143.1750 C   0  0  0  0  0  0  0  0  0  0  0  0
  190.1880  175.2140  142.8140 O   0  0  0  0  0  0  0  0  0  0  0  0
  191.5010  176.2770  144.3550 O   0  0  0  0  0  0  0  0  0  0  0  0
  189.8630  177.0620  145.8040 O   0  0  0  0  0  0  0  0  0  0  0  0
  191.9930  176.9200  146.6200 O   0  0  0  0  0  1  0  0  0  0  0  0
  191.0700  176.7660  145.5940 C   0  0  0  0  0  0  0  0  0  0  0  0
  187.6490  178.0890  137.5070 C   0  0  2  0  0  3  0  0  0  0  0  0
  187.8020  179.3720  136.9730 O   0  0  0  0  0  1  0  0  0  0  0  0
  183.5270  177.0780  138.0990 C   0  0  0  0  0  0  0  0  0  0  0  0
  185.6770  176.5310  137.2380 C   0  0  0  0  0  0  0  0  0  0  0  0
  186.1960  177.7530  137.6950 C   0  0  1  0  0  3  0  0  0  0  0  0
  186.4150  175.7060  136.6350 O   0  0  0  0  0  0  0  0  0  0  0  0
  184.0030  178.3060  138.5650 C   0  0  0  0  0  3  0  0  0  0  0  0
  184.3660  176.2300  137.4430 N   0  0  0  0  0  0  0  0  0  0  0  0
  185.3430  178.6380  138.3670 C   0  0  0  0  0  3  0  0  0  0  0  0
  181.9080  175.8520  139.4660 C   0  0  2  0  0  3  0  0  0  0  0  0
  181.6170  177.2250  139.5030 O   0  0  0  0  0  0  0  0  0  0  0  0
  182.0870  176.7160  138.2770 C   0  0  1  0  0  3  0  0  0  0  0  0
  180.6160  175.0750  139.3410 C   0  0  0  0  0  1  0  0  0  0  0  0
  187.8880  178.0440  142.4670 O   0  0  0  0  0  0  0  0  0  0  0  0
  186.4930  177.8270  142.6720 C   0  0  2  0  0  3  0  0  0  0  0  0
  185.4810  178.8630  144.6110 C   0  0  1  0  0  0  0  0  0  0  0  0
  186.9040  178.6220  145.0530 C   0  0  0  0  0  2  0  0  0  0  0  0
  185.6880  179.0320  142.2030 C   0  0  0  0  0  2  0  0  0  0  0  0
  185.2660  179.7970  143.4400 C   0  0  0  0  0  2  0  0  0  0  0  0
  186.1920  177.6090  144.1530 C   0  0  2  0  0  3  0  0  0  0  0  0
  184.3990  178.6280  145.6090 C   0  0  0  0  0  0  0  0  0  0  0  0
  184.6840  178.2540  146.7770 O   0  0  0  0  0  1  0  0  0  0  0  0
  183.0690  178.7880  145.2430 O   0  0  0  0  0  0  0  0  0  0  0  0
  1  5  1  0  0  0  0
  2  3  1  0  0  0  0
  3 27  1  0  0  0  0
  4  2  2  0  0  0  0
  5  3  2  0  0  0  0
  5  7  1  0  0  0  0
  6  4  1  0  0  0  0
  6  1  2  0  0  0  0
  7  8  1  0  0  0  0
  8 10  1  0  0  0  0
  9  8  2  0  0  0  0
 10 13  1  0  0  0  0
 13 11  2  0  0  0  0
 13 12  1  0  0  0  0
 14 15  1  1  0  0  0
 14  4  1  0  0  0  0
 16 20  1  0  0  0  0
 17 21  1  0  0  0  0
 17 18  1  0  0  0  0
 18 14  1  1  0  0  0
 18 22  1  0  0  0  0
 19 17  2  0  0  0  0
 21 16  2  0  0  0  0
 22 20  2  0  0  0  0
 23 26  1  6  0  0  0
 23 24  1  0  0  0  0
 25 16  1  1  0  0  0
 25 23  1  0  0  0  0
 25 24  1  0  0  0  0
 28 27  1  1  0  0  0
 28 33  1  0  0  0  0
 29 30  1  0  0  0  0
 29 34  1  1  0  0  0
 31 28  1  0  0  0  0
 31 32  1  0  0  0  0
 32 29  1  0  0  0  0
 33 29  1  0  0  0  0
 33 30  1  1  0  0  0
 34 35  1  0  0  0  0
 36 34  2  0  0  0  0
M  END
>  <MODEL>
6

>  <REMARK>
 VINA RESULT:      -7.8      1.876      2.375
  Name = 
  9 active torsions:
  status: ('A' for Active; 'I' for Inactive)
    1  A    between atoms: C_3  and  C_5
    2  A    between atoms: N_4  and  C_23
    3  A    between atoms: C_6  and  O_26
    4  A    between atoms: C_10  and  C_12
    5  A    between atoms: C_10  and  C_21
    6  A    between atoms: C_13  and  O_26
    7  A    between atoms: C_14  and  C_15
    8  A    between atoms: C_22  and  O_25
    9  A    between atoms: O_25  and  C_35
                            x       y       z     vdW  Elec       q    Type
                         _______ _______ _______ _____ _____    ______ ____

>  <TORSDO>
F 9

$$$$
=
 OpenBabel10222419403D

 36 40  0  0  1  0  0  0  0  0999 V2000
  183.3600  179.4280  144.1070 C   0  0  0  0  0  3  0  0  0  0  0  0
  184.1140  177.8900  141.9070 C   0  0  0  0  0  3  0  0  0  0  0  0
  185.0420  178.1370  142.9310 C   0  0  0  0  0  0  0  0  0  0  0  0
  182.8140  178.4050  141.9840 C   0  0  0  0  0  0  0  0  0  0  0  0
  184.6630  178.9110  144.0390 C   0  0  0  0  0  0  0  0  0  0  0  0
  182.4430  179.1790  143.0850 C   0  0  0  0  0  3  0  0  0  0  0  0
  185.6230  179.1550  145.0800 N   0  0  0  0  0  2  0  0  0  0  0  0
  185.5810  178.6720  146.4310 C   0  0  0  0  0  0  0  0  0  0  0  0
  184.6260  177.9500  146.8220 O   0  0  0  0  0  0  0  0  0  0  0  0
  186.5980  178.9860  147.3410 O   0  0  0  0  0  0  0  0  0  0  0  0
  188.1860  177.3300  146.9750 O   0  0  0  0  0  0  0  0  0  0  0  0
  187.9520  178.0910  149.1160 O   0  0  0  0  0  1  0  0  0  0  0  0
  187.5970  178.1050  147.7740 C   0  0  0  0  0  0  0  0  0  0  0  0
  181.8230  178.1660  140.8870 C   0  0  2  0  0  3  0  0  0  0  0  0
  182.1760  177.0440  140.1320 O   0  0  0  0  0  1  0  0  0  0  0  0
  181.3730  181.6650  138.4550 C   0  0  0  0  0  0  0  0  0  0  0  0
  180.4750  180.1270  140.0340 C   0  0  0  0  0  0  0  0  0  0  0  0
  181.6630  179.3770  140.0120 C   0  0  0  0  0  0  0  0  0  0  0  0
  179.5110  179.7790  140.7670 O   0  0  0  0  0  0  0  0  0  0  0  0
  182.5690  180.9440  138.4010 C   0  0  0  0  0  2  0  0  0  0  0  0
  180.3590  181.2380  139.2570 N   0  0  0  0  0  0  0  0  0  0  0  0
  182.7130  179.8020  139.1870 C   0  0  0  0  0  3  0  0  0  0  0  0
  180.2110  182.6080  136.5180 C   0  0  2  0  0  3  0  0  0  0  0  0
  179.8540  183.3170  137.6780 O   0  0  0  0  0  0  0  0  0  0  0  0
  181.1890  182.8760  137.5980 C   0  0  1  0  0  3  0  0  0  0  0  0
  180.4220  183.5890  135.3850 C   0  0  0  0  0  1  0  0  0  0  0  0
  186.3460  177.6290  142.8650 O   0  0  0  0  0  0  0  0  0  0  0  0
  187.4830  178.4260  142.5390 C   0  0  2  0  0  3  0  0  0  0  0  0
  189.5830  177.2760  142.1870 C   0  0  1  0  0  0  0  0  0  0  0  0
  188.8680  176.3920  143.1790 C   0  0  0  0  0  2  0  0  0  0  0  0
  187.7570  178.3830  141.0410 C   0  0  0  0  0  2  0  0  0  0  0  0
  188.9390  177.4600  140.8300 C   0  0  0  0  0  2  0  0  0  0  0  0
  188.7270  177.9140  143.2590 C   0  0  2  0  0  3  0  0  0  0  0  0
  191.0490  177.4750  142.3690 C   0  0  0  0  0  0  0  0  0  0  0  0
  191.8140  177.5110  141.3690 O   0  0  0  0  0  0  0  0  0  0  0  0
  191.5820  177.5860  143.6470 O   0  0  0  0  0  1  0  0  0  0  0  0
  2  4  2  0  0  0  0
  2  3  1  0  0  0  0
  3  5  2  0  0  0  0
  4  6  1  0  0  0  0
  5  1  1  0  0  0  0
  5  7  1  0  0  0  0
  6  1  2  0  0  0  0
  7  8  1  0  0  0  0
  8  9  2  0  0  0  0
  8 10  1  0  0  0  0
 10 13  1  0  0  0  0
 11 13  2  0  0  0  0
 13 12  1  0  0  0  0
 14 15  1  6  0  0  0
 14  4  1  0  0  0  0
 16 21  2  0  0  0  0
 17 19  2  0  0  0  0
 18 17  1  0  0  0  0
 18 14  1  0  0  0  0
 20 16  1  0  0  0  0
 20 22  1  0  0  0  0
 21 17  1  0  0  0  0
 22 18  2  0  0  0  0
 23 26  1  6  0  0  0
 23 25  1  0  0  0  0
 23 24  1  0  0  0  0
 25 24  1  0  0  0  0
 25 16  1  1  0  0  0
 27  3  1  0  0  0  0
 28 27  1  6  0  0  0
 28 33  1  0  0  0  0
 29 34  1  1  0  0  0
 29 30  1  0  0  0  0
 29 33  1  0  0  0  0
 31 28  1  0  0  0  0
 32 31  1  0  0  0  0
 32 29  1  0  0  0  0
 33 30  1  1  0  0  0
 34 36  1  0  0  0  0
 35 34  2  0  0  0  0
M  END
>  <MODEL>
7

>  <REMARK>
 VINA RESULT:      -7.8      4.333      6.924
  Name = 
  9 active torsions:
  status: ('A' for Active; 'I' for Inactive)
    1  A    between atoms: C_3  and  C_5
    2  A    between atoms: N_4  and  C_23
    3  A    between atoms: C_6  and  O_26
    4  A    between atoms: C_10  and  C_12
    5  A    between atoms: C_10  and  C_21
    6  A    between atoms: C_13  and  O_26
    7  A    between atoms: C_14  and  C_15
    8  A    between atoms: C_22  and  O_25
    9  A    between atoms: O_25  and  C_35
                            x       y       z     vdW  Elec       q    Type
                         _______ _______ _______ _____ _____    ______ ____

>  <TORSDO>
F 9

$$$$
=
 OpenBabel10222419403D

 36 40  0  0  1  0  0  0  0  0999 V2000
  184.3360  178.7160  140.0530 C   0  0  0  0  0  3  0  0  0  0  0  0
  186.3260  178.5790  142.0010 C   0  0  0  0  0  3  0  0  0  0  0  0
  186.6800  178.5410  140.6440 C   0  0  0  0  0  0  0  0  0  0  0  0
  184.9840  178.6900  142.3840 C   0  0  0  0  0  0  0  0  0  0  0  0
  185.6790  178.6100  139.6620 C   0  0  0  0  0  0  0  0  0  0  0  0
  183.9900  178.7530  141.4050 C   0  0  0  0  0  3  0  0  0  0  0  0
  186.0570  178.5690  138.2770 N   0  0  0  0  0  2  0  0  0  0  0  0
  185.7120  177.5650  137.3120 C   0  0  0  0  0  0  0  0  0  0  0  0
  185.0030  176.5780  137.6410 O   0  0  0  0  0  0  0  0  0  0  0  0
  186.1480  177.6600  135.9840 O   0  0  0  0  0  0  0  0  0  0  0  0
  188.1520  177.7440  134.8100 O   0  0  0  0  0  0  0  0  0  0  0  0
  187.5530  175.7280  135.7030 O   0  0  0  0  0  1  0  0  0  0  0  0
  187.3130  177.0750  135.4710 C   0  0  0  0  0  0  0  0  0  0  0  0
  184.5920  178.7110  143.8290 C   0  0  2  0  0  3  0  0  0  0  0  0
  184.1560  179.9850  144.2090 O   0  0  0  0  0  1  0  0  0  0  0  0
  187.7390  177.3050  146.3750 C   0  0  0  0  0  0  0  0  0  0  0  0
  185.6480  178.4110  146.1060 C   0  0  0  0  0  0  0  0  0  0  0  0
  185.7120  178.2380  144.7130 C   0  0  1  0  0  3  0  0  0  0  0  0
  184.6640  178.9910  146.6360 O   0  0  0  0  0  0  0  0  0  0  0  0
  187.8420  177.1180  144.9940 C   0  0  0  0  0  3  0  0  0  0  0  0
  186.6580  177.9500  146.8940 N   0  0  0  0  0  0  0  0  0  0  0  0
  186.8210  177.5820  144.1650 C   0  0  0  0  0  3  0  0  0  0  0  0
  190.1390  177.3960  146.8440 C   0  0  2  0  0  3  0  0  0  0  0  0
  189.4240  177.9480  147.9200 O   0  0  0  0  0  0  0  0  0  0  0  0
  188.8370  176.8410  147.2780 C   0  0  1  0  0  3  0  0  0  0  0  0
  191.2640  176.5390  147.3850 C   0  0  0  0  0  1  0  0  0  0  0  0
  188.0200  178.4280  140.2480 O   0  0  0  0  0  0  0  0  0  0  0  0
  188.7780  177.2270  140.3800 C   0  0  2  0  0  3  0  0  0  0  0  0
  190.7260  176.9820  138.9650 C   0  0  1  0  0  0  0  0  0  0  0  0
  189.8040  177.8420  138.1360 C   0  0  0  0  0  2  0  0  0  0  0  0
  190.0180  177.4660  141.2310 C   0  0  0  0  0  2  0  0  0  0  0  0
  191.2000  177.5450  140.2870 C   0  0  0  0  0  2  0  0  0  0  0  0
  189.2360  176.7240  139.0130 C   0  0  2  0  0  3  0  0  0  0  0  0
  191.5110  175.9290  138.2580 C   0  0  0  0  0  0  0  0  0  0  0  0
  191.0250  174.7790  138.0930 O   0  0  0  0  0  1  0  0  0  0  0  0
  192.7970  176.2040  137.8110 O   0  0  0  0  0  0  0  0  0  0  0  0
  1  6  1  0  0  0  0
  2  4  1  0  0  0  0
  3  2  2  0  0  0  0
  4 14  1  0  0  0  0
  5  1  2  0  0  0  0
  5  3  1  0  0  0  0
  6  4  2  0  0  0  0
  7  5  1  0  0  0  0
  8  9  2  0  0  0  0
  8  7  1  0  0  0  0
 10  8  1  0  0  0  0
 11 13  2  0  0  0  0
 13 12  1  0  0  0  0
 13 10  1  0  0  0  0
 14 15  1  1  0  0  0
 16 21  2  0  0  0  0
 17 19  2  0  0  0  0
 17 21  1  0  0  0  0
 18 14  1  1  0  0  0
 18 17  1  0  0  0  0
 20 16  1  0  0  0  0
 22 18  1  0  0  0  0
 22 20  2  0  0  0  0
 23 25  1  0  0  0  0
 23 26  1  1  0  0  0
 23 24  1  0  0  0  0
 25 16  1  6  0  0  0
 25 24  1  0  0  0  0
 27  3  1  0  0  0  0
 28 27  1  6  0  0  0
 28 31  1  0  0  0  0
 29 34  1  6  0  0  0
 29 33  1  0  0  0  0
 29 32  1  0  0  0  0
 30 29  1  0  0  0  0
 32 31  1  0  0  0  0
 33 30  1  6  0  0  0
 33 28  1  0  0  0  0
 35 34  1  0  0  0  0
 36 34  2  0  0  0  0
M  END
>  <MODEL>
8

>  <REMARK>
 VINA RESULT:      -7.7      2.331      8.989
  Name = 
  9 active torsions:
  status: ('A' for Active; 'I' for Inactive)
    1  A    between atoms: C_3  and  C_5
    2  A    between atoms: N_4  and  C_23
    3  A    between atoms: C_6  and  O_26
    4  A    between atoms: C_10  and  C_12
    5  A    between atoms: C_10  and  C_21
    6  A    between atoms: C_13  and  O_26
    7  A    between atoms: C_14  and  C_15
    8  A    between atoms: C_22  and  O_25
    9  A    between atoms: O_25  and  C_35
                            x       y       z     vdW  Elec       q    Type
                         _______ _______ _______ _____ _____    ______ ____

>  <TORSDO>
F 9

$$$$
=
 OpenBabel10222419403D

 36 40  0  0  1  0  0  0  0  0999 V2000
  190.2500  177.5750  140.6600 C   0  0  0  0  0  3  0  0  0  0  0  0
  187.7910  178.2650  139.5430 C   0  0  0  0  0  3  0  0  0  0  0  0
  187.9900  178.4110  140.9240 C   0  0  0  0  0  0  0  0  0  0  0  0
  188.8160  177.7810  138.7220 C   0  0  0  0  0  0  0  0  0  0  0  0
  189.2280  178.0640  141.4880 C   0  0  0  0  0  0  0  0  0  0  0  0
  190.0450  177.4320  139.2860 C   0  0  0  0  0  3  0  0  0  0  0  0
  189.4180  178.2190  142.9030 N   0  0  0  0  0  2  0  0  0  0  0  0
  189.3220  177.2000  143.9090 C   0  0  0  0  0  0  0  0  0  0  0  0
  189.0410  176.0130  143.5920 O   0  0  0  0  0  0  0  0  0  0  0  0
  189.5410  177.4960  145.2600 O   0  0  0  0  0  0  0  0  0  0  0  0
  187.4250  177.7030  146.1980 O   0  0  0  0  0  0  0  0  0  0  0  0
  189.0170  176.6390  147.4460 O   0  0  0  0  0  1  0  0  0  0  0  0
  188.6150  177.3000  146.2930 C   0  0  0  0  0  0  0  0  0  0  0  0
  188.6080  177.6020  137.2500 C   0  0  2  0  0  3  0  0  0  0  0  0
  188.3540  178.8290  136.6300 O   0  0  0  0  0  1  0  0  0  0  0  0
  185.4890  174.7590  136.5050 C   0  0  0  0  0  0  0  0  0  0  0  0
  187.7950  175.2440  136.8420 C   0  0  0  0  0  0  0  0  0  0  0  0
  187.5120  176.6150  136.9630 C   0  0  0  0  0  0  0  0  0  0  0  0
  188.9770  174.8220  136.9440 O   0  0  0  0  0  0  0  0  0  0  0  0
  185.1670  176.1150  136.6140 C   0  0  0  0  0  2  0  0  0  0  0  0
  186.7860  174.3600  136.6120 N   0  0  0  0  0  0  0  0  0  0  0  0
  186.1830  177.0410  136.8500 C   0  0  0  0  0  3  0  0  0  0  0  0
  184.1570  172.9210  137.4190 C   0  0  2  0  0  3  0  0  0  0  0  0
  183.3140  173.9890  137.0670 O   0  0  0  0  0  0  0  0  0  0  0  0
  184.4180  173.7550  136.2240 C   0  0  1  0  0  3  0  0  0  0  0  0
  183.5080  171.6190  137.0000 C   0  0  0  0  0  1  0  0  0  0  0  0
  186.9710  178.8930  141.7570 O   0  0  0  0  0  0  0  0  0  0  0  0
  185.9440  178.0640  142.2990 C   0  0  2  0  0  3  0  0  0  0  0  0
  184.1240  179.1630  143.4550 C   0  0  1  0  0  0  0  0  0  0  0  0
  185.2910  180.0920  143.6880 C   0  0  0  0  0  2  0  0  0  0  0  0
  184.7250  178.0550  141.3860 C   0  0  0  0  0  2  0  0  0  0  0  0
  183.6820  178.9480  142.0240 C   0  0  0  0  0  2  0  0  0  0  0  0
  185.5020  178.5760  143.6670 C   0  0  2  0  0  3  0  0  0  0  0  0
  183.1800  178.9430  144.5880 C   0  0  0  0  0  0  0  0  0  0  0  0
  183.5880  179.0120  145.7770 O   0  0  0  0  0  1  0  0  0  0  0  0
  181.8520  178.6250  144.3330 O   0  0  0  0  0  0  0  0  0  0  0  0
  1  5  1  0  0  0  0
  2  3  1  0  0  0  0
  3  5  2  0  0  0  0
  3 27  1  0  0  0  0
  4  6  1  0  0  0  0
  4  2  2  0  0  0  0
  5  7  1  0  0  0  0
  6  1  2  0  0  0  0
  7  8  1  0  0  0  0
  8 10  1  0  0  0  0
  9  8  2  0  0  0  0
 10 13  1  0  0  0  0
 11 13  2  0  0  0  0
 13 12  1  0  0  0  0
 14 15  1  1  0  0  0
 14  4  1  0  0  0  0
 16 21  2  0  0  0  0
 16 20  1  0  0  0  0
 17 19  2  0  0  0  0
 17 18  1  0  0  0  0
 18 14  1  0  0  0  0
 20 22  1  0  0  0  0
 21 17  1  0  0  0  0
 22 18  2  0  0  0  0
 23 26  1  6  0  0  0
 24 23  1  0  0  0  0
 25 16  1  1  0  0  0
 25 24  1  0  0  0  0
 25 23  1  0  0  0  0
 28 27  1  6  0  0  0
 28 33  1  0  0  0  0
 29 33  1  0  0  0  0
 29 30  1  0  0  0  0
 29 34  1  1  0  0  0
 31 32  1  0  0  0  0
 31 28  1  0  0  0  0
 32 29  1  0  0  0  0
 33 30  1  6  0  0  0
 34 35  1  0  0  0  0
 36 34  2  0  0  0  0
M  END
>  <MODEL>
9

>  <REMARK>
 VINA RESULT:      -7.5      1.609      2.296
  Name = 
  9 active torsions:
  status: ('A' for Active; 'I' for Inactive)
    1  A    between atoms: C_3  and  C_5
    2  A    between atoms: N_4  and  C_23
    3  A    between atoms: C_6  and  O_26
    4  A    between atoms: C_10  and  C_12
    5  A    between atoms: C_10  and  C_21
    6  A    between atoms: C_13  and  O_26
    7  A    between atoms: C_14  and  C_15
    8  A    between atoms: C_22  and  O_25
    9  A    between atoms: O_25  and  C_35
                            x       y       z     vdW  Elec       q    Type
                         _______ _______ _______ _____ _____    ______ ____

>  <TORSDO>
F 9

$$$$
