=
 OpenBabel10222416363D

 32 35  0  0  1  0  0  0  0  0999 V2000
  189.2480  177.7380  146.9410 C   0  0  0  0  0  1  0  0  0  0  0  0
  188.0470  177.5450  146.0220 C   0  0  1  0  0  3  0  0  0  0  0  0
  186.9680  178.4940  146.3600 N   0  0  0  0  0  0  0  0  0  0  0  0
  186.7850  178.4720  147.8080 C   0  0  0  0  0  1  0  0  0  0  0  0
  185.7110  178.0050  145.7970 C   0  0  1  0  0  3  0  0  0  0  0  0
  184.6190  178.6690  146.3980 O   0  0  0  0  0  0  0  0  0  0  0  0
  184.9970  179.1150  145.1180 C   0  0  2  0  0  3  0  0  0  0  0  0
  182.0010  178.8080  142.1040 N   0  0  0  0  0  0  0  0  0  0  0  0
  181.6760  178.8350  143.5010 C   0  0  0  0  0  3  0  0  0  0  0  0
  184.3260  179.2660  142.6830 C   0  0  2  0  0  3  0  0  0  0  0  0
  182.6150  178.7800  144.3990 N   0  0  0  0  0  0  0  0  0  0  0  0
  185.8780  178.7050  140.8290 C   0  0  0  0  0  3  0  0  0  0  0  0
  183.2260  178.9460  141.6960 C   0  0  0  0  0  0  0  0  0  0  0  0
  184.7540  178.7810  139.8770 C   0  0  0  0  0  3  0  0  0  0  0  0
  183.5270  178.8800  140.2960 N   0  0  0  0  0  0  0  0  0  0  0  0
  185.6780  178.8850  142.1370 C   0  0  0  0  0  3  0  0  0  0  0  0
  184.0310  178.6050  144.0350 C   0  0  2  0  0  3  0  0  0  0  0  0
  188.5510  177.7470  144.5960 C   0  0  0  0  0  2  0  0  0  0  0  0
  190.0370  178.0720  144.5950 C   0  0  0  0  0  2  0  0  0  0  0  0
  190.8170  177.0570  143.7710 C   0  0  1  0  0  3  0  0  0  0  0  0
  191.4500  176.0080  144.6820 C   0  0  0  0  0  3  0  0  0  0  0  0
  192.1580  176.6070  145.7120 F   0  0  0  0  0  0  0  0  0  0  0  0
  192.2870  175.1830  143.9530 F   0  0  0  0  0  0  0  0  0  0  0  0
  189.9090  176.3950  142.7370 C   0  0  0  0  0  2  0  0  0  0  0  0
  191.7180  177.3640  141.3190 C   0  0  0  0  0  1  0  0  0  0  0  0
  190.3300  176.7490  141.3160 C   0  0  2  0  0  3  0  0  0  0  0  0
  189.3160  177.6510  140.6070 C   0  0  0  0  0  2  0  0  0  0  0  0
  189.6650  177.9210  139.1460 C   0  0  1  0  0  3  0  0  0  0  0  0
  189.2180  176.7810  138.2860 C   0  0  0  0  0  2  0  0  0  0  0  0
  188.2560  177.4570  137.3560 C   0  0  0  0  0  2  0  0  0  0  0  0
  187.8390  178.6350  137.9870 O   0  0  0  0  0  0  0  0  0  0  0  0
  188.9280  179.0850  138.6770 N   0  0  0  0  0  2  0  0  0  0  0  0
  2  3  1  0  0  0  0
  2  1  1  1  0  0  0
  3  4  1  0  0  0  0
  5  3  1  1  0  0  0
  5  6  1  0  0  0  0
  7  5  1  0  0  0  0
  7  6  1  1  0  0  0
  8  9  1  0  0  0  0
  9 11  2  0  0  0  0
 10 16  1  6  0  0  0
 10 17  1  0  0  0  0
 12 16  2  0  0  0  0
 13  8  2  0  0  0  0
 13 10  1  0  0  0  0
 14 15  2  0  0  0  0
 14 12  1  0  0  0  0
 15 13  1  0  0  0  0
 17 11  1  1  0  0  0
 17  7  1  0  0  0  0
 18  2  1  0  0  0  0
 19 18  1  0  0  0  0
 20 24  1  6  0  0  0
 20 19  1  0  0  0  0
 20 21  1  0  0  0  0
 21 22  1  0  0  0  0
 23 21  1  0  0  0  0
 26 25  1  1  0  0  0
 26 24  1  0  0  0  0
 27 26  1  0  0  0  0
 28 27  1  1  0  0  0
 29 28  1  0  0  0  0
 30 31  1  0  0  0  0
 30 29  1  0  0  0  0
 31 32  1  0  0  0  0
 32 28  1  0  0  0  0
M  END
>  <MODEL>
1

>  <REMARK>
 VINA RESULT:      -8.1      0.000      0.000
  Name = 
  11 active torsions:
  status: ('A' for Active; 'I' for Inactive)
    1  A    between atoms: C_1  and  C_10
    2  A    between atoms: C_1  and  C_16
    3  A    between atoms: C_1  and  C_22
    4  A    between atoms: N_2  and  C_11
    5  A    between atoms: N_2  and  C_20
    6  A    between atoms: C_4  and  C_7
    7  A    between atoms: C_7  and  C_23
    8  A    between atoms: C_16  and  C_25
    9  A    between atoms: C_20  and  C_25
   10  A    between atoms: C_22  and  C_23
   11  A    between atoms: C_30  and  C_32
                            x       y       z     vdW  Elec       q    Type
                         _______ _______ _______ _____ _____    ______ ____

>  <TORSDO>
F 11

$$$$
=
 OpenBabel10222416363D

 32 35  0  0  1  0  0  0  0  0999 V2000
  188.6950  177.2150  139.0370 C   0  0  0  0  0  1  0  0  0  0  0  0
  188.6740  177.4020  140.5500 C   0  0  1  0  0  3  0  0  0  0  0  0
  190.0270  177.6920  141.0630 N   0  0  0  0  0  0  0  0  0  0  0  0
  190.9910  177.3220  140.0300 C   0  0  0  0  0  1  0  0  0  0  0  0
  190.3060  176.8110  142.1950 C   0  0  1  0  0  3  0  0  0  0  0  0
  191.6690  176.8990  142.5550 O   0  0  0  0  0  0  0  0  0  0  0  0
  190.7610  177.6130  143.3590 C   0  0  2  0  0  3  0  0  0  0  0  0
  190.5970  176.5390  147.4780 N   0  0  0  0  0  0  0  0  0  0  0  0
  191.7700  176.3260  146.6820 C   0  0  0  0  0  3  0  0  0  0  0  0
  189.5950  177.7330  145.6010 C   0  0  2  0  0  3  0  0  0  0  0  0
  191.7430  176.5260  145.3970 N   0  0  0  0  0  0  0  0  0  0  0  0
  187.1300  177.9190  145.8210 C   0  0  0  0  0  3  0  0  0  0  0  0
  189.5510  177.1340  146.9890 C   0  0  0  0  0  0  0  0  0  0  0  0
  187.2500  177.6790  147.2720 C   0  0  0  0  0  3  0  0  0  0  0  0
  188.3780  177.3030  147.7970 N   0  0  0  0  0  0  0  0  0  0  0  0
  188.2090  177.9010  145.0350 C   0  0  0  0  0  3  0  0  0  0  0  0
  190.5030  176.8940  144.6940 C   0  0  2  0  0  3  0  0  0  0  0  0
  187.7040  178.5440  140.8360 C   0  0  0  0  0  2  0  0  0  0  0  0
  186.8270  178.2130  142.0340 C   0  0  0  0  0  2  0  0  0  0  0  0
  185.4250  178.7820  141.8570 C   0  0  1  0  0  3  0  0  0  0  0  0
  184.9460  178.5770  140.4220 C   0  0  0  0  0  3  0  0  0  0  0  0
  184.5860  179.7840  139.8420 F   0  0  0  0  0  0  0  0  0  0  0  0
  183.8750  177.7040  140.3950 F   0  0  0  0  0  0  0  0  0  0  0  0
  184.4570  178.1350  142.8450 C   0  0  0  0  0  2  0  0  0  0  0  0
  184.2240  179.9810  144.5070 C   0  0  0  0  0  1  0  0  0  0  0  0
  183.5070  179.1610  143.4490 C   0  0  2  0  0  3  0  0  0  0  0  0
  182.2270  178.5270  144.0020 C   0  0  0  0  0  2  0  0  0  0  0  0
  180.9540  179.0960  143.3820 C   0  0  1  0  0  3  0  0  0  0  0  0
  181.0680  179.1230  141.8900 C   0  0  0  0  0  2  0  0  0  0  0  0
  179.9270  178.2410  141.4790 C   0  0  0  0  0  2  0  0  0  0  0  0
  179.6190  177.4340  142.5810 O   0  0  0  0  0  0  0  0  0  0  0  0
  179.8330  178.2170  143.6790 N   0  0  0  0  0  2  0  0  0  0  0  0
  2  1  1  6  0  0  0
  2 18  1  0  0  0  0
  2  3  1  0  0  0  0
  4  3  1  0  0  0  0
  5  3  1  6  0  0  0
  5  6  1  0  0  0  0
  5  7  1  0  0  0  0
  7  6  1  6  0  0  0
  7 17  1  0  0  0  0
  9  8  1  0  0  0  0
 10 16  1  6  0  0  0
 10 13  1  0  0  0  0
 11  9  2  0  0  0  0
 12 14  1  0  0  0  0
 13  8  2  0  0  0  0
 13 15  1  0  0  0  0
 14 15  2  0  0  0  0
 16 12  2  0  0  0  0
 17 11  1  1  0  0  0
 17 10  1  0  0  0  0
 18 19  1  0  0  0  0
 20 19  1  6  0  0  0
 20 24  1  0  0  0  0
 21 20  1  0  0  0  0
 22 21  1  0  0  0  0
 23 21  1  0  0  0  0
 24 26  1  0  0  0  0
 26 27  1  0  0  0  0
 26 25  1  1  0  0  0
 28 32  1  0  0  0  0
 28 27  1  1  0  0  0
 29 28  1  0  0  0  0
 30 29  1  0  0  0  0
 30 31  1  0  0  0  0
 31 32  1  0  0  0  0
M  END
>  <MODEL>
2

>  <REMARK>
 VINA RESULT:      -7.9      3.401      7.962
  Name = 
  11 active torsions:
  status: ('A' for Active; 'I' for Inactive)
    1  A    between atoms: C_1  and  C_10
    2  A    between atoms: C_1  and  C_16
    3  A    between atoms: C_1  and  C_22
    4  A    between atoms: N_2  and  C_11
    5  A    between atoms: N_2  and  C_20
    6  A    between atoms: C_4  and  C_7
    7  A    between atoms: C_7  and  C_23
    8  A    between atoms: C_16  and  C_25
    9  A    between atoms: C_20  and  C_25
   10  A    between atoms: C_22  and  C_23
   11  A    between atoms: C_30  and  C_32
                            x       y       z     vdW  Elec       q    Type
                         _______ _______ _______ _____ _____    ______ ____

>  <TORSDO>
F 11

$$$$
=
 OpenBabel10222416363D

 32 35  0  0  1  0  0  0  0  0999 V2000
  188.8540  177.9970  148.1800 C   0  0  0  0  0  1  0  0  0  0  0  0
  188.9030  177.8500  146.6620 C   0  0  1  0  0  3  0  0  0  0  0  0
  189.9530  176.8930  146.2620 N   0  0  0  0  0  0  0  0  0  0  0  0
  190.9120  176.7880  147.3570 C   0  0  0  0  0  1  0  0  0  0  0  0
  190.7010  177.4510  145.1370 C   0  0  1  0  0  3  0  0  0  0  0  0
  191.7040  176.5470  144.7240 O   0  0  0  0  0  0  0  0  0  0  0  0
  190.5350  176.5860  143.9410 C   0  0  2  0  0  3  0  0  0  0  0  0
  191.2290  177.6660  139.8790 N   0  0  0  0  0  0  0  0  0  0  0  0
  192.2940  177.2750  140.7560 C   0  0  0  0  0  3  0  0  0  0  0  0
  189.6340  177.0750  141.6280 C   0  0  2  0  0  3  0  0  0  0  0  0
  192.0730  177.0940  142.0250 N   0  0  0  0  0  0  0  0  0  0  0  0
  187.4060  178.1020  141.2480 C   0  0  0  0  0  3  0  0  0  0  0  0
  189.9910  177.6400  140.2720 C   0  0  0  0  0  0  0  0  0  0  0  0
  187.7400  178.2760  139.8210 C   0  0  0  0  0  3  0  0  0  0  0  0
  188.9480  178.0690  139.3870 N   0  0  0  0  0  0  0  0  0  0  0  0
  188.2970  177.5870  142.1000 C   0  0  0  0  0  3  0  0  0  0  0  0
  190.7580  177.3600  142.6310 C   0  0  2  0  0  3  0  0  0  0  0  0
  187.5180  177.3860  146.2230 C   0  0  0  0  0  2  0  0  0  0  0  0
  186.9980  178.2550  145.0880 C   0  0  0  0  0  2  0  0  0  0  0  0
  185.4750  178.3020  145.0900 C   0  0  1  0  0  3  0  0  0  0  0  0
  184.9660  178.9270  146.3860 C   0  0  0  0  0  3  0  0  0  0  0  0
  185.9500  179.6970  146.9860 F   0  0  0  0  0  0  0  0  0  0  0  0
  184.5410  177.9420  147.2580 F   0  0  0  0  0  0  0  0  0  0  0  0
  184.9630  179.0780  143.8790 C   0  0  0  0  0  2  0  0  0  0  0  0
  183.7300  178.4940  141.7900 C   0  0  0  0  0  1  0  0  0  0  0  0
  183.6980  178.4510  143.3080 C   0  0  2  0  0  3  0  0  0  0  0  0
  182.4210  179.0890  143.8620 C   0  0  0  0  0  2  0  0  0  0  0  0
  181.1810  178.7830  143.0270 C   0  0  1  0  0  3  0  0  0  0  0  0
  180.0710  178.2930  143.9040 C   0  0  0  0  0  2  0  0  0  0  0  0
  179.0090  179.3230  143.6600 C   0  0  0  0  0  2  0  0  0  0  0  0
  179.6560  180.4680  143.1790 O   0  0  0  0  0  0  0  0  0  0  0  0
  180.6910  180.0100  142.4150 N   0  0  0  0  0  2  0  0  0  0  0  0
  2  1  1  1  0  0  0
  3  2  1  0  0  0  0
  3  4  1  0  0  0  0
  5  3  1  1  0  0  0
  6  5  1  0  0  0  0
  7  6  1  1  0  0  0
  7  5  1  0  0  0  0
  8 13  2  0  0  0  0
  8  9  1  0  0  0  0
  9 11  2  0  0  0  0
 10 16  1  1  0  0  0
 10 17  1  0  0  0  0
 12 16  2  0  0  0  0
 13 10  1  0  0  0  0
 14 12  1  0  0  0  0
 15 14  2  0  0  0  0
 15 13  1  0  0  0  0
 17 11  1  6  0  0  0
 17  7  1  0  0  0  0
 18  2  1  0  0  0  0
 19 20  1  0  0  0  0
 19 18  1  0  0  0  0
 20 24  1  6  0  0  0
 20 21  1  0  0  0  0
 21 22  1  0  0  0  0
 21 23  1  0  0  0  0
 26 25  1  6  0  0  0
 26 27  1  0  0  0  0
 26 24  1  0  0  0  0
 28 27  1  1  0  0  0
 28 29  1  0  0  0  0
 30 29  1  0  0  0  0
 31 30  1  0  0  0  0
 32 28  1  0  0  0  0
 32 31  1  0  0  0  0
M  END
>  <MODEL>
3

>  <REMARK>
 VINA RESULT:      -7.9      3.091      7.076
  Name = 
  11 active torsions:
  status: ('A' for Active; 'I' for Inactive)
    1  A    between atoms: C_1  and  C_10
    2  A    between atoms: C_1  and  C_16
    3  A    between atoms: C_1  and  C_22
    4  A    between atoms: N_2  and  C_11
    5  A    between atoms: N_2  and  C_20
    6  A    between atoms: C_4  and  C_7
    7  A    between atoms: C_7  and  C_23
    8  A    between atoms: C_16  and  C_25
    9  A    between atoms: C_20  and  C_25
   10  A    between atoms: C_22  and  C_23
   11  A    between atoms: C_30  and  C_32
                            x       y       z     vdW  Elec       q    Type
                         _______ _______ _______ _____ _____    ______ ____

>  <TORSDO>
F 11

$$$$
=
 OpenBabel10222416363D

 32 35  0  0  1  0  0  0  0  0999 V2000
  188.3130  177.8150  139.3910 C   0  0  0  0  0  1  0  0  0  0  0  0
  188.5780  177.5020  140.8600 C   0  0  1  0  0  3  0  0  0  0  0  0
  190.0100  177.6620  141.1810 N   0  0  0  0  0  0  0  0  0  0  0  0
  190.7850  177.2020  140.0320 C   0  0  0  0  0  1  0  0  0  0  0  0
  190.3550  176.7570  142.2750 C   0  0  1  0  0  3  0  0  0  0  0  0
  191.7260  176.8810  142.5940 O   0  0  0  0  0  0  0  0  0  0  0  0
  190.8220  177.5380  143.4480 C   0  0  2  0  0  3  0  0  0  0  0  0
  190.9490  176.2680  147.5130 N   0  0  0  0  0  0  0  0  0  0  0  0
  192.0290  176.0170  146.6020 C   0  0  0  0  0  3  0  0  0  0  0  0
  189.8740  177.6230  145.7930 C   0  0  2  0  0  3  0  0  0  0  0  0
  191.9000  176.2840  145.3360 N   0  0  0  0  0  0  0  0  0  0  0  0
  187.4580  177.9670  146.2490 C   0  0  0  0  0  3  0  0  0  0  0  0
  189.9110  176.9590  147.1500 C   0  0  0  0  0  0  0  0  0  0  0  0
  187.6900  177.6440  147.6700 C   0  0  0  0  0  3  0  0  0  0  0  0
  188.8300  177.1660  148.0700 N   0  0  0  0  0  0  0  0  0  0  0  0
  188.4590  177.9150  145.3650 C   0  0  0  0  0  3  0  0  0  0  0  0
  190.6330  176.7710  144.7680 C   0  0  2  0  0  3  0  0  0  0  0  0
  187.7070  178.4550  141.6740 C   0  0  0  0  0  2  0  0  0  0  0  0
  186.7530  177.6760  142.5660 C   0  0  0  0  0  2  0  0  0  0  0  0
  185.3510  178.2700  142.5160 C   0  0  1  0  0  3  0  0  0  0  0  0
  185.0480  179.0250  143.8070 C   0  0  0  0  0  3  0  0  0  0  0  0
  184.4120  178.2030  144.7250 F   0  0  0  0  0  0  0  0  0  0  0  0
  184.2610  180.1310  143.5420 F   0  0  0  0  0  0  0  0  0  0  0  0
  185.2030  179.1890  141.3060 C   0  0  0  0  0  2  0  0  0  0  0  0
  183.9670  179.5950  139.1780 C   0  0  0  0  0  1  0  0  0  0  0  0
  184.3240  178.5620  140.2320 C   0  0  2  0  0  3  0  0  0  0  0  0
  183.0740  177.8920  140.8090 C   0  0  0  0  0  2  0  0  0  0  0  0
  181.8720  178.8290  140.8970 C   0  0  1  0  0  3  0  0  0  0  0  0
  180.6870  178.2210  140.2130 C   0  0  0  0  0  2  0  0  0  0  0  0
  179.6970  178.1320  141.3350 C   0  0  0  0  0  2  0  0  0  0  0  0
  180.4300  178.1580  142.5280 O   0  0  0  0  0  0  0  0  0  0  0  0
  181.4840  178.9930  142.2910 N   0  0  0  0  0  2  0  0  0  0  0  0
  2  1  1  6  0  0  0
  2  3  1  0  0  0  0
  2 18  1  0  0  0  0
  4  3  1  0  0  0  0
  5  3  1  6  0  0  0
  5  6  1  0  0  0  0
  5  7  1  0  0  0  0
  7  6  1  6  0  0  0
  7 17  1  0  0  0  0
  9  8  1  0  0  0  0
 10 16  1  6  0  0  0
 10 13  1  0  0  0  0
 11  9  2  0  0  0  0
 12 14  1  0  0  0  0
 13  8  2  0  0  0  0
 13 15  1  0  0  0  0
 14 15  2  0  0  0  0
 16 12  2  0  0  0  0
 17 11  1  1  0  0  0
 17 10  1  0  0  0  0
 18 19  1  0  0  0  0
 20 24  1  6  0  0  0
 20 19  1  0  0  0  0
 20 21  1  0  0  0  0
 21 22  1  0  0  0  0
 23 21  1  0  0  0  0
 26 25  1  6  0  0  0
 26 27  1  0  0  0  0
 26 24  1  0  0  0  0
 28 27  1  1  0  0  0
 28 32  1  0  0  0  0
 29 28  1  0  0  0  0
 29 30  1  0  0  0  0
 30 31  1  0  0  0  0
 32 31  1  0  0  0  0
M  END
>  <MODEL>
4

>  <REMARK>
 VINA RESULT:      -7.8      3.241      7.662
  Name = 
  11 active torsions:
  status: ('A' for Active; 'I' for Inactive)
    1  A    between atoms: C_1  and  C_10
    2  A    between atoms: C_1  and  C_16
    3  A    between atoms: C_1  and  C_22
    4  A    between atoms: N_2  and  C_11
    5  A    between atoms: N_2  and  C_20
    6  A    between atoms: C_4  and  C_7
    7  A    between atoms: C_7  and  C_23
    8  A    between atoms: C_16  and  C_25
    9  A    between atoms: C_20  and  C_25
   10  A    between atoms: C_22  and  C_23
   11  A    between atoms: C_30  and  C_32
                            x       y       z     vdW  Elec       q    Type
                         _______ _______ _______ _____ _____    ______ ____

>  <TORSDO>
F 11

$$$$
=
 OpenBabel10222416363D

 32 35  0  0  1  0  0  0  0  0999 V2000
  183.8600  178.9170  145.0990 C   0  0  0  0  0  1  0  0  0  0  0  0
  184.4230  178.3870  143.7840 C   0  0  1  0  0  3  0  0  0  0  0  0
  183.7980  179.0660  142.6330 N   0  0  0  0  0  0  0  0  0  0  0  0
  182.3490  179.0050  142.8040 C   0  0  0  0  0  1  0  0  0  0  0  0
  184.0830  178.3040  141.4190 C   0  0  1  0  0  3  0  0  0  0  0  0
  183.6050  178.9980  140.2860 O   0  0  0  0  0  0  0  0  0  0  0  0
  184.9870  179.0830  140.5350 C   0  0  2  0  0  3  0  0  0  0  0  0
  187.4240  177.5780  137.3810 N   0  0  0  0  0  0  0  0  0  0  0  0
  186.0380  177.8950  137.1880 C   0  0  0  0  0  3  0  0  0  0  0  0
  187.2810  178.5250  139.6250 C   0  0  2  0  0  3  0  0  0  0  0  0
  185.2860  178.2110  138.2010 N   0  0  0  0  0  0  0  0  0  0  0  0
  189.1520  177.7790  141.0750 C   0  0  0  0  0  3  0  0  0  0  0  0
  188.0140  177.8030  138.5160 C   0  0  0  0  0  0  0  0  0  0  0  0
  189.9380  177.4410  139.8720 C   0  0  0  0  0  3  0  0  0  0  0  0
  189.3910  177.4460  138.6930 N   0  0  0  0  0  0  0  0  0  0  0  0
  187.9030  178.2400  140.9670 C   0  0  0  0  0  3  0  0  0  0  0  0
  185.7880  178.1770  139.5840 C   0  0  2  0  0  3  0  0  0  0  0  0
  185.9300  178.6200  143.8280 C   0  0  0  0  0  2  0  0  0  0  0  0
  186.6350  177.4390  144.4770 C   0  0  0  0  0  2  0  0  0  0  0  0
  187.8640  177.8960  145.2530 C   0  0  1  0  0  3  0  0  0  0  0  0
  187.7080  177.5630  146.7350 C   0  0  0  0  0  3  0  0  0  0  0  0
  186.3740  177.3850  147.0670 F   0  0  0  0  0  0  0  0  0  0  0  0
  188.2560  178.5670  147.5120 F   0  0  0  0  0  0  0  0  0  0  0  0
  189.1260  177.2520  144.6850 C   0  0  0  0  0  2  0  0  0  0  0  0
  190.7600  178.9900  143.9580 C   0  0  0  0  0  1  0  0  0  0  0  0
  190.3750  178.0330  145.0730 C   0  0  2  0  0  3  0  0  0  0  0  0
  191.5430  177.1230  145.4620 C   0  0  0  0  0  2  0  0  0  0  0  0
  191.2620  176.2750  146.7000 C   0  0  1  0  0  3  0  0  0  0  0  0
  192.3830  175.3120  146.9360 C   0  0  0  0  0  2  0  0  0  0  0  0
  192.8590  175.7210  148.2980 C   0  0  0  0  0  2  0  0  0  0  0  0
  192.4320  177.0400  148.4980 O   0  0  0  0  0  0  0  0  0  0  0  0
  191.2200  177.1310  147.8770 N   0  0  0  0  0  2  0  0  0  0  0  0
  2 18  1  0  0  0  0
  2  1  1  1  0  0  0
  3  4  1  0  0  0  0
  3  2  1  0  0  0  0
  5  3  1  1  0  0  0
  6  5  1  0  0  0  0
  7  6  1  6  0  0  0
  7  5  1  0  0  0  0
  8 13  2  0  0  0  0
  9  8  1  0  0  0  0
  9 11  2  0  0  0  0
 10 16  1  1  0  0  0
 13 15  1  0  0  0  0
 13 10  1  0  0  0  0
 14 12  1  0  0  0  0
 15 14  2  0  0  0  0
 16 12  2  0  0  0  0
 17 11  1  6  0  0  0
 17 10  1  0  0  0  0
 17  7  1  0  0  0  0
 18 19  1  0  0  0  0
 20 19  1  6  0  0  0
 20 21  1  0  0  0  0
 21 22  1  0  0  0  0
 21 23  1  0  0  0  0
 24 26  1  0  0  0  0
 24 20  1  0  0  0  0
 26 25  1  6  0  0  0
 26 27  1  0  0  0  0
 28 27  1  6  0  0  0
 28 29  1  0  0  0  0
 28 32  1  0  0  0  0
 29 30  1  0  0  0  0
 30 31  1  0  0  0  0
 32 31  1  0  0  0  0
M  END
>  <MODEL>
5

>  <REMARK>
 VINA RESULT:      -7.7      2.792      6.211
  Name = 
  11 active torsions:
  status: ('A' for Active; 'I' for Inactive)
    1  A    between atoms: C_1  and  C_10
    2  A    between atoms: C_1  and  C_16
    3  A    between atoms: C_1  and  C_22
    4  A    between atoms: N_2  and  C_11
    5  A    between atoms: N_2  and  C_20
    6  A    between atoms: C_4  and  C_7
    7  A    between atoms: C_7  and  C_23
    8  A    between atoms: C_16  and  C_25
    9  A    between atoms: C_20  and  C_25
   10  A    between atoms: C_22  and  C_23
   11  A    between atoms: C_30  and  C_32
                            x       y       z     vdW  Elec       q    Type
                         _______ _______ _______ _____ _____    ______ ____

>  <TORSDO>
F 11

$$$$
=
 OpenBabel10222416363D

 32 35  0  0  1  0  0  0  0  0999 V2000
  182.9840  178.7720  144.6440 C   0  0  0  0  0  1  0  0  0  0  0  0
  183.9070  178.4280  143.4800 C   0  0  1  0  0  3  0  0  0  0  0  0
  183.4420  179.0680  142.2340 N   0  0  0  0  0  0  0  0  0  0  0  0
  181.9840  178.9940  142.2040 C   0  0  0  0  0  1  0  0  0  0  0  0
  183.8990  178.2760  141.0940 C   0  0  1  0  0  3  0  0  0  0  0  0
  183.4240  178.8390  139.8890 O   0  0  0  0  0  0  0  0  0  0  0  0
  184.7650  179.1050  140.2180 C   0  0  2  0  0  3  0  0  0  0  0  0
  187.7340  177.7610  137.4740 N   0  0  0  0  0  0  0  0  0  0  0  0
  186.3990  178.0800  137.0560 C   0  0  0  0  0  3  0  0  0  0  0  0
  187.1900  178.6010  139.6980 C   0  0  2  0  0  3  0  0  0  0  0  0
  185.4780  178.3440  137.9350 N   0  0  0  0  0  0  0  0  0  0  0  0
  188.7890  177.7970  141.4180 C   0  0  0  0  0  3  0  0  0  0  0  0
  188.1140  177.9350  138.7040 C   0  0  0  0  0  0  0  0  0  0  0  0
  189.7760  177.5190  140.3570 C   0  0  0  0  0  3  0  0  0  0  0  0
  189.4440  177.5760  139.1020 N   0  0  0  0  0  0  0  0  0  0  0  0
  187.5720  178.2570  141.1140 C   0  0  0  0  0  3  0  0  0  0  0  0
  185.7320  178.2490  139.3820 C   0  0  2  0  0  3  0  0  0  0  0  0
  185.3020  178.9040  143.8730 C   0  0  0  0  0  2  0  0  0  0  0  0
  186.0860  177.7790  144.5320 C   0  0  0  0  0  2  0  0  0  0  0  0
  186.7740  178.2630  145.8010 C   0  0  1  0  0  3  0  0  0  0  0  0
  185.7850  179.0180  146.6860 C   0  0  0  0  0  3  0  0  0  0  0  0
  186.4450  179.7140  147.6870 F   0  0  0  0  0  0  0  0  0  0  0  0
  184.8750  178.1390  147.2450 F   0  0  0  0  0  0  0  0  0  0  0  0
  187.3860  177.0880  146.5590 C   0  0  0  0  0  2  0  0  0  0  0  0
  189.1990  177.9430  148.0450 C   0  0  0  0  0  1  0  0  0  0  0  0
  188.8910  177.2540  146.7260 C   0  0  2  0  0  3  0  0  0  0  0  0
  189.5390  177.9830  145.5460 C   0  0  0  0  0  2  0  0  0  0  0  0
  190.9810  177.5550  145.2890 C   0  0  1  0  0  3  0  0  0  0  0  0
  191.0150  176.3440  144.4090 C   0  0  0  0  0  2  0  0  0  0  0  0
  191.7890  176.8460  143.2270 C   0  0  0  0  0  2  0  0  0  0  0  0
  191.6850  178.2420  143.2350 O   0  0  0  0  0  0  0  0  0  0  0  0
  191.6760  178.6000  144.5520 N   0  0  0  0  0  2  0  0  0  0  0  0
  2 18  1  0  0  0  0
  2  1  1  1  0  0  0
  3  2  1  0  0  0  0
  4  3  1  0  0  0  0
  5  3  1  1  0  0  0
  6  5  1  0  0  0  0
  7  6  1  6  0  0  0
  7  5  1  0  0  0  0
  8 13  2  0  0  0  0
  9  8  1  0  0  0  0
  9 11  2  0  0  0  0
 10 16  1  1  0  0  0
 13 15  1  0  0  0  0
 13 10  1  0  0  0  0
 14 12  1  0  0  0  0
 15 14  2  0  0  0  0
 16 12  2  0  0  0  0
 17 11  1  6  0  0  0
 17 10  1  0  0  0  0
 17  7  1  0  0  0  0
 18 19  1  0  0  0  0
 20 19  1  6  0  0  0
 20 24  1  0  0  0  0
 20 21  1  0  0  0  0
 21 23  1  0  0  0  0
 21 22  1  0  0  0  0
 24 26  1  0  0  0  0
 26 25  1  1  0  0  0
 27 26  1  0  0  0  0
 28 27  1  6  0  0  0
 29 28  1  0  0  0  0
 30 31  1  0  0  0  0
 30 29  1  0  0  0  0
 31 32  1  0  0  0  0
 32 28  1  0  0  0  0
M  END
>  <MODEL>
6

>  <REMARK>
 VINA RESULT:      -7.7      2.845      5.947
  Name = 
  11 active torsions:
  status: ('A' for Active; 'I' for Inactive)
    1  A    between atoms: C_1  and  C_10
    2  A    between atoms: C_1  and  C_16
    3  A    between atoms: C_1  and  C_22
    4  A    between atoms: N_2  and  C_11
    5  A    between atoms: N_2  and  C_20
    6  A    between atoms: C_4  and  C_7
    7  A    between atoms: C_7  and  C_23
    8  A    between atoms: C_16  and  C_25
    9  A    between atoms: C_20  and  C_25
   10  A    between atoms: C_22  and  C_23
   11  A    between atoms: C_30  and  C_32
                            x       y       z     vdW  Elec       q    Type
                         _______ _______ _______ _____ _____    ______ ____

>  <TORSDO>
F 11

$$$$
=
 OpenBabel10222416363D

 32 35  0  0  1  0  0  0  0  0999 V2000
  186.8580  177.1300  144.5110 C   0  0  0  0  0  1  0  0  0  0  0  0
  187.2430  178.3640  145.3210 C   0  0  1  0  0  3  0  0  0  0  0  0
  186.0470  179.0070  145.8990 N   0  0  0  0  0  0  0  0  0  0  0  0
  186.0090  178.6920  147.3250 C   0  0  0  0  0  1  0  0  0  0  0  0
  184.8520  178.3880  145.3290 C   0  0  1  0  0  3  0  0  0  0  0  0
  183.6920  179.0290  145.8180 O   0  0  0  0  0  0  0  0  0  0  0  0
  184.1040  179.3840  144.5210 C   0  0  2  0  0  3  0  0  0  0  0  0
  181.2910  178.6140  141.4150 N   0  0  0  0  0  0  0  0  0  0  0  0
  180.8940  178.7510  142.7860 C   0  0  0  0  0  3  0  0  0  0  0  0
  183.5540  179.2660  142.0540 C   0  0  2  0  0  3  0  0  0  0  0  0
  181.7870  178.8380  143.7270 N   0  0  0  0  0  0  0  0  0  0  0  0
  185.2300  178.6320  140.3360 C   0  0  0  0  0  3  0  0  0  0  0  0
  182.5270  178.7890  141.0520 C   0  0  0  0  0  0  0  0  0  0  0  0
  184.1540  178.5500  139.3300 C   0  0  0  0  0  3  0  0  0  0  0  0
  182.9040  178.6120  139.6800 N   0  0  0  0  0  0  0  0  0  0  0  0
  184.9520  178.9200  141.6100 C   0  0  0  0  0  3  0  0  0  0  0  0
  183.2270  178.7170  143.4470 C   0  0  2  0  0  3  0  0  0  0  0  0
  188.2100  177.8930  146.4020 C   0  0  0  0  0  2  0  0  0  0  0  0
  189.0700  176.7490  145.8890 C   0  0  0  0  0  2  0  0  0  0  0  0
  190.5060  177.2030  145.6630 C   0  0  1  0  0  3  0  0  0  0  0  0
  191.4040  176.7040  146.7920 C   0  0  0  0  0  3  0  0  0  0  0  0
  192.4150  175.8930  146.3010 F   0  0  0  0  0  0  0  0  0  0  0  0
  190.6570  176.0110  147.7270 F   0  0  0  0  0  0  0  0  0  0  0  0
  191.0160  176.7100  144.3110 C   0  0  0  0  0  2  0  0  0  0  0  0
  191.1190  179.1770  143.9570 C   0  0  0  0  0  1  0  0  0  0  0  0
  191.6740  177.8330  143.5190 C   0  0  2  0  0  3  0  0  0  0  0  0
  191.5500  177.6390  142.0060 C   0  0  0  0  0  2  0  0  0  0  0  0
  190.2900  176.8820  141.5940 C   0  0  1  0  0  3  0  0  0  0  0  0
  189.1320  177.8240  141.4760 C   0  0  0  0  0  2  0  0  0  0  0  0
  188.7460  177.6550  140.0370 C   0  0  0  0  0  2  0  0  0  0  0  0
  189.8670  177.1430  139.3720 O   0  0  0  0  0  0  0  0  0  0  0  0
  190.4750  176.3120  140.2680 N   0  0  0  0  0  2  0  0  0  0  0  0
  2  1  1  1  0  0  0
  2  3  1  0  0  0  0
  2 18  1  0  0  0  0
  3  4  1  0  0  0  0
  5  6  1  0  0  0  0
  5  3  1  1  0  0  0
  7  5  1  0  0  0  0
  7  6  1  1  0  0  0
  8  9  1  0  0  0  0
  9 11  2  0  0  0  0
 10 16  1  6  0  0  0
 10 17  1  0  0  0  0
 12 16  2  0  0  0  0
 13  8  2  0  0  0  0
 13 10  1  0  0  0  0
 14 15  2  0  0  0  0
 14 12  1  0  0  0  0
 15 13  1  0  0  0  0
 17 11  1  1  0  0  0
 17  7  1  0  0  0  0
 19 18  1  0  0  0  0
 20 24  1  6  0  0  0
 20 19  1  0  0  0  0
 20 21  1  0  0  0  0
 21 23  1  0  0  0  0
 22 21  1  0  0  0  0
 26 25  1  1  0  0  0
 26 24  1  0  0  0  0
 27 26  1  0  0  0  0
 28 27  1  6  0  0  0
 29 28  1  0  0  0  0
 30 29  1  0  0  0  0
 31 30  1  0  0  0  0
 31 32  1  0  0  0  0
 32 28  1  0  0  0  0
M  END
>  <MODEL>
7

>  <REMARK>
 VINA RESULT:      -7.7      1.428      2.092
  Name = 
  11 active torsions:
  status: ('A' for Active; 'I' for Inactive)
    1  A    between atoms: C_1  and  C_10
    2  A    between atoms: C_1  and  C_16
    3  A    between atoms: C_1  and  C_22
    4  A    between atoms: N_2  and  C_11
    5  A    between atoms: N_2  and  C_20
    6  A    between atoms: C_4  and  C_7
    7  A    between atoms: C_7  and  C_23
    8  A    between atoms: C_16  and  C_25
    9  A    between atoms: C_20  and  C_25
   10  A    between atoms: C_22  and  C_23
   11  A    between atoms: C_30  and  C_32
                            x       y       z     vdW  Elec       q    Type
                         _______ _______ _______ _____ _____    ______ ____

>  <TORSDO>
F 11

$$$$
=
 OpenBabel10222416363D

 32 35  0  0  1  0  0  0  0  0999 V2000
  190.1730  176.5910  141.3290 C   0  0  0  0  0  1  0  0  0  0  0  0
  189.5130  177.8880  141.7840 C   0  0  1  0  0  3  0  0  0  0  0  0
  188.6610  178.4470  140.7160 N   0  0  0  0  0  0  0  0  0  0  0  0
  187.3470  178.7280  141.2860 C   0  0  0  0  0  1  0  0  0  0  0  0
  188.4360  177.4190  139.7010 C   0  0  1  0  0  3  0  0  0  0  0  0
  187.6200  177.9280  138.6660 O   0  0  0  0  0  0  0  0  0  0  0  0
  189.0000  177.8630  138.4000 C   0  0  2  0  0  3  0  0  0  0  0  0
  190.0850  175.4170  135.0850 N   0  0  0  0  0  0  0  0  0  0  0  0
  188.7550  175.9260  135.2530 C   0  0  0  0  0  3  0  0  0  0  0  0
  190.7920  176.7650  136.9910 C   0  0  2  0  0  3  0  0  0  0  0  0
  188.4170  176.5440  136.3460 N   0  0  0  0  0  0  0  0  0  0  0  0
  192.9500  175.9840  137.9380 C   0  0  0  0  0  3  0  0  0  0  0  0
  191.0370  175.7400  135.9070 C   0  0  0  0  0  0  0  0  0  0  0  0
  193.2530  175.3050  136.6640 C   0  0  0  0  0  3  0  0  0  0  0  0
  192.3500  175.1890  135.7360 N   0  0  0  0  0  0  0  0  0  0  0  0
  191.7900  176.6250  138.1110 C   0  0  0  0  0  3  0  0  0  0  0  0
  189.3420  176.6760  137.4830 C   0  0  2  0  0  3  0  0  0  0  0  0
  188.7040  177.5530  143.0330 C   0  0  0  0  0  2  0  0  0  0  0  0
  189.3220  176.3730  143.7690 C   0  0  0  0  0  2  0  0  0  0  0  0
  189.9280  176.8140  145.0950 C   0  0  1  0  0  3  0  0  0  0  0  0
  191.4420  176.9550  144.9660 C   0  0  0  0  0  3  0  0  0  0  0  0
  191.7920  178.2540  144.6300 F   0  0  0  0  0  0  0  0  0  0  0  0
  191.9250  176.0770  144.0140 F   0  0  0  0  0  0  0  0  0  0  0  0
  189.3010  178.1260  145.5600 C   0  0  0  0  0  2  0  0  0  0  0  0
  188.8490  176.8310  147.6440 C   0  0  0  0  0  1  0  0  0  0  0  0
  188.3220  177.9030  146.7060 C   0  0  2  0  0  3  0  0  0  0  0  0
  186.9080  177.5780  146.2190 C   0  0  0  0  0  2  0  0  0  0  0  0
  186.1520  178.7970  145.6970 C   0  0  1  0  0  3  0  0  0  0  0  0
  185.3180  178.4240  144.5110 C   0  0  0  0  0  2  0  0  0  0  0  0
  183.9380  178.7620  144.9890 C   0  0  0  0  0  2  0  0  0  0  0  0
  183.9830  178.7740  146.3890 O   0  0  0  0  0  0  0  0  0  0  0  0
  185.2170  179.2610  146.7110 N   0  0  0  0  0  2  0  0  0  0  0  0
  2  1  1  6  0  0  0
  2 18  1  0  0  0  0
  3  4  1  0  0  0  0
  3  2  1  0  0  0  0
  5  3  1  1  0  0  0
  6  5  1  0  0  0  0
  7  6  1  6  0  0  0
  7  5  1  0  0  0  0
  8  9  1  0  0  0  0
  8 13  2  0  0  0  0
  9 11  2  0  0  0  0
 10 17  1  0  0  0  0
 10 16  1  1  0  0  0
 12 16  2  0  0  0  0
 13 10  1  0  0  0  0
 14 12  1  0  0  0  0
 15 13  1  0  0  0  0
 15 14  2  0  0  0  0
 17 11  1  6  0  0  0
 17  7  1  0  0  0  0
 18 19  1  0  0  0  0
 20 19  1  6  0  0  0
 20 24  1  0  0  0  0
 21 20  1  0  0  0  0
 22 21  1  0  0  0  0
 23 21  1  0  0  0  0
 24 26  1  0  0  0  0
 26 25  1  1  0  0  0
 27 26  1  0  0  0  0
 28 27  1  1  0  0  0
 28 32  1  0  0  0  0
 29 30  1  0  0  0  0
 29 28  1  0  0  0  0
 30 31  1  0  0  0  0
 31 32  1  0  0  0  0
M  END
>  <MODEL>
8

>  <REMARK>
 VINA RESULT:      -7.5      2.342      7.412
  Name = 
  11 active torsions:
  status: ('A' for Active; 'I' for Inactive)
    1  A    between atoms: C_1  and  C_10
    2  A    between atoms: C_1  and  C_16
    3  A    between atoms: C_1  and  C_22
    4  A    between atoms: N_2  and  C_11
    5  A    between atoms: N_2  and  C_20
    6  A    between atoms: C_4  and  C_7
    7  A    between atoms: C_7  and  C_23
    8  A    between atoms: C_16  and  C_25
    9  A    between atoms: C_20  and  C_25
   10  A    between atoms: C_22  and  C_23
   11  A    between atoms: C_30  and  C_32
                            x       y       z     vdW  Elec       q    Type
                         _______ _______ _______ _____ _____    ______ ____

>  <TORSDO>
F 11

$$$$
=
 OpenBabel10222416363D

 32 35  0  0  1  0  0  0  0  0999 V2000
  183.3960  179.3170  144.3390 C   0  0  0  0  0  1  0  0  0  0  0  0
  184.8630  178.9460  144.1480 C   0  0  1  0  0  3  0  0  0  0  0  0
  185.3490  178.1280  145.2760 N   0  0  0  0  0  0  0  0  0  0  0  0
  184.6860  178.5920  146.4910 C   0  0  0  0  0  1  0  0  0  0  0  0
  186.7720  178.3950  145.4780 C   0  0  1  0  0  3  0  0  0  0  0  0
  187.2580  177.6380  146.5670 O   0  0  0  0  0  0  0  0  0  0  0  0
  187.5530  177.1470  145.2820 C   0  0  2  0  0  3  0  0  0  0  0  0
  191.6820  176.7960  144.2940 N   0  0  0  0  0  0  0  0  0  0  0  0
  191.2190  176.7780  145.6520 C   0  0  0  0  0  3  0  0  0  0  0  0
  189.3590  176.7710  143.5500 C   0  0  2  0  0  3  0  0  0  0  0  0
  189.9750  177.0350  145.9290 N   0  0  0  0  0  0  0  0  0  0  0  0
  189.1250  177.5040  141.1900 C   0  0  0  0  0  3  0  0  0  0  0  0
  190.8480  176.8520  143.3000 C   0  0  0  0  0  0  0  0  0  0  0  0
  190.5490  177.1930  140.9620 C   0  0  0  0  0  3  0  0  0  0  0  0
  191.3380  176.9040  141.9540 N   0  0  0  0  0  0  0  0  0  0  0  0
  188.5790  177.3530  142.4000 C   0  0  0  0  0  3  0  0  0  0  0  0
  189.0120  177.4330  144.8890 C   0  0  2  0  0  3  0  0  0  0  0  0
  184.9540  178.1940  142.8240 C   0  0  0  0  0  2  0  0  0  0  0  0
  185.1790  179.1630  141.6730 C   0  0  0  0  0  2  0  0  0  0  0  0
  184.2060  178.8920  140.5330 C   0  0  1  0  0  3  0  0  0  0  0  0
  184.9310  178.9530  139.1910 C   0  0  0  0  0  3  0  0  0  0  0  0
  184.3200  178.1300  138.2580 F   0  0  0  0  0  0  0  0  0  0  0  0
  186.2560  178.5860  139.3450 F   0  0  0  0  0  0  0  0  0  0  0  0
  183.5300  177.5360  140.7180 C   0  0  0  0  0  2  0  0  0  0  0  0
  181.4580  176.8900  139.4880 C   0  0  0  0  0  1  0  0  0  0  0  0
  182.0120  177.6580  140.6750 C   0  0  2  0  0  3  0  0  0  0  0  0
  181.5370  179.1140  140.6750 C   0  0  0  0  0  2  0  0  0  0  0  0
  180.1200  179.2880  141.2170 C   0  0  1  0  0  3  0  0  0  0  0  0
  179.9710  178.5710  142.5220 C   0  0  0  0  0  2  0  0  0  0  0  0
  179.6120  179.6940  143.4490 C   0  0  0  0  0  2  0  0  0  0  0  0
  180.0570  180.8770  142.8470 O   0  0  0  0  0  0  0  0  0  0  0  0
  179.8790  180.6940  141.5060 N   0  0  0  0  0  2  0  0  0  0  0  0
  2  1  1  1  0  0  0
  2  3  1  0  0  0  0
  3  4  1  0  0  0  0
  5  3  1  1  0  0  0
  5  6  1  0  0  0  0
  7  5  1  0  0  0  0
  7  6  1  1  0  0  0
  8  9  1  0  0  0  0
  9 11  2  0  0  0  0
 10 16  1  6  0  0  0
 10 17  1  0  0  0  0
 12 16  2  0  0  0  0
 13 10  1  0  0  0  0
 13  8  2  0  0  0  0
 14 12  1  0  0  0  0
 14 15  2  0  0  0  0
 15 13  1  0  0  0  0
 17  7  1  0  0  0  0
 17 11  1  1  0  0  0
 18  2  1  0  0  0  0
 19 18  1  0  0  0  0
 20 24  1  1  0  0  0
 20 19  1  0  0  0  0
 21 23  1  0  0  0  0
 21 20  1  0  0  0  0
 22 21  1  0  0  0  0
 26 25  1  6  0  0  0
 26 24  1  0  0  0  0
 27 26  1  0  0  0  0
 28 27  1  1  0  0  0
 28 32  1  0  0  0  0
 28 29  1  0  0  0  0
 29 30  1  0  0  0  0
 31 30  1  0  0  0  0
 32 31  1  0  0  0  0
M  END
>  <MODEL>
9

>  <REMARK>
 VINA RESULT:      -7.3      3.318      7.439
  Name = 
  11 active torsions:
  status: ('A' for Active; 'I' for Inactive)
    1  A    between atoms: C_1  and  C_10
    2  A    between atoms: C_1  and  C_16
    3  A    between atoms: C_1  and  C_22
    4  A    between atoms: N_2  and  C_11
    5  A    between atoms: N_2  and  C_20
    6  A    between atoms: C_4  and  C_7
    7  A    between atoms: C_7  and  C_23
    8  A    between atoms: C_16  and  C_25
    9  A    between atoms: C_20  and  C_25
   10  A    between atoms: C_22  and  C_23
   11  A    between atoms: C_30  and  C_32
                            x       y       z     vdW  Elec       q    Type
                         _______ _______ _______ _____ _____    ______ ____

>  <TORSDO>
F 11

$$$$
