=
 OpenBabel10222418263D

 26 29  0  0  1  0  0  0  0  0999 V2000
  184.3350  178.6400  143.6730 C   0  0  0  0  0  3  0  0  0  0  0  0
  189.5030  177.6180  148.5140 N   0  0  0  0  0  0  0  0  0  0  0  0
  185.6450  178.1980  143.4190 C   0  0  0  0  0  0  0  0  0  0  0  0
  187.8040  177.6610  144.4540 N   0  0  0  0  0  0  0  0  0  0  0  0
  189.5250  177.3260  146.0790 C   0  0  0  0  0  3  0  0  0  0  0  0
  188.2540  178.0380  148.8400 C   0  0  0  0  0  3  0  0  0  0  0  0
  184.8060  178.7690  146.0690 C   0  0  0  0  0  3  0  0  0  0  0  0
  186.1010  178.3360  145.7880 C   0  0  0  0  0  0  0  0  0  0  0  0
  190.1210  177.2920  147.3450 C   0  0  0  0  0  0  0  0  0  0  0  0
  186.5150  178.0590  144.5040 C   0  0  0  0  0  0  0  0  0  0  0  0
  188.2360  177.6780  145.7370 C   0  0  0  0  0  0  0  0  0  0  0  0
  187.1780  178.2670  147.9950 C   0  0  0  0  0  3  0  0  0  0  0  0
  183.9180  178.9210  144.9910 C   0  0  0  0  0  3  0  0  0  0  0  0
  187.1670  178.1080  146.6260 C   0  0  0  0  0  0  0  0  0  0  0  0
  191.4610  176.8950  147.4420 O   0  0  0  0  0  0  0  0  0  0  0  0
  192.0820  176.0040  146.5240 C   0  0  0  0  0  1  0  0  0  0  0  0
  186.0890  177.9260  142.0220 C   0  0  0  0  0  2  0  0  0  0  0  0
  186.9890  178.9670  141.5850 N   0  0  0  0  0  0  0  0  0  0  0  0
  188.1340  178.7210  141.0510 C   0  0  0  0  0  3  0  0  0  0  0  0
  191.3990  177.4440  141.4860 C   0  0  0  0  0  0  0  0  0  0  0  0
  192.4620  177.4020  140.8130 O   0  0  0  0  0  0  0  0  0  0  0  0
  189.2870  177.2510  139.6100 C   0  0  0  0  0  2  0  0  0  0  0  0
  188.6470  177.3300  140.8300 C   0  0  1  0  0  3  0  0  0  0  0  0
  190.1380  177.3570  140.8310 N   0  0  0  0  0  0  0  0  0  0  0  0
  191.4610  177.5540  142.9690 C   0  0  0  0  0  2  0  0  0  0  0  0
  191.1100  178.9640  143.3960 C   0  0  0  0  0  1  0  0  0  0  0  0
  1 13  1  0  0  0  0
  2  6  1  0  0  0  0
  3  1  2  0  0  0  0
  3 10  1  0  0  0  0
  4 10  2  0  0  0  0
  4 11  1  0  0  0  0
  5  9  1  0  0  0  0
  8  7  1  0  0  0  0
  8 14  2  0  0  0  0
  9 15  1  0  0  0  0
  9  2  2  0  0  0  0
 10  8  1  0  0  0  0
 11  5  2  0  0  0  0
 11 14  1  0  0  0  0
 12  6  2  0  0  0  0
 13  7  2  0  0  0  0
 14 12  1  0  0  0  0
 16 15  1  0  0  0  0
 17  3  1  0  0  0  0
 18 17  1  0  0  0  0
 19 18  2  0  0  0  0
 20 25  1  0  0  0  0
 21 20  2  0  0  0  0
 22 23  1  0  0  0  0
 22 24  1  0  0  0  0
 23 24  1  0  0  0  0
 23 19  1  6  0  0  0
 24 20  1  0  0  0  0
 25 26  1  0  0  0  0
M  END
>  <MODEL>
1

>  <REMARK>
 VINA RESULT:      -9.2      0.000      0.000
  Name = 
  5 active torsions:
  status: ('A' for Active; 'I' for Inactive)
    1  A    between atoms: C_2  and  C_6
    2  A    between atoms: C_4  and  C_23
    3  A    between atoms: N_11  and  C_23
    4  A    between atoms: C_12  and  C_20
    5  A    between atoms: C_16  and  O_19
                            x       y       z     vdW  Elec       q    Type
                         _______ _______ _______ _____ _____    ______ ____

>  <TORSDO>
F 5

$$$$
=
 OpenBabel10222418263D

 26 29  0  0  1  0  0  0  0  0999 V2000
  191.6700  176.4080  146.0520 C   0  0  0  0  0  3  0  0  0  0  0  0
  184.8920  178.6970  145.9920 N   0  0  0  0  0  0  0  0  0  0  0  0
  190.8220  176.4820  144.9330 C   0  0  0  0  0  0  0  0  0  0  0  0
  188.5670  177.0910  144.1800 N   0  0  0  0  0  0  0  0  0  0  0  0
  186.3020  177.8550  144.1710 C   0  0  0  0  0  2  0  0  0  0  0  0
  185.6550  178.6650  147.1150 C   0  0  0  0  0  3  0  0  0  0  0  0
  189.9090  177.3000  147.4930 C   0  0  0  0  0  3  0  0  0  0  0  0
  189.0860  177.3570  146.3690 C   0  0  0  0  0  0  0  0  0  0  0  0
  185.1050  178.3630  144.6900 C   0  0  0  0  0  0  0  0  0  0  0  0
  189.5220  176.9600  145.1250 C   0  0  1  0  0  3  0  0  0  0  0  0
  187.4870  177.5870  144.8260 C   0  0  0  0  0  0  0  0  0  0  0  0
  186.9710  178.2470  147.2470 C   0  0  0  0  0  3  0  0  0  0  0  0
  191.2170  176.8170  147.3230 C   0  0  0  0  0  3  0  0  0  0  0  0
  187.7820  177.7720  146.2390 C   0  0  0  0  0  0  0  0  0  0  0  0
  184.0270  178.5510  143.8170 O   0  0  0  0  0  0  0  0  0  0  0  0
  182.7260  178.9300  144.2500 C   0  0  0  0  0  1  0  0  0  0  0  0
  191.2970  176.0250  143.5970 C   0  0  0  0  0  2  0  0  0  0  0  0
  191.7830  177.1530  142.8390 N   0  0  0  0  0  0  0  0  0  0  0  0
  191.2750  177.5070  141.7100 C   0  0  0  0  0  3  0  0  0  0  0  0
  190.6370  176.9060  138.2880 C   0  0  0  0  0  0  0  0  0  0  0  0
  190.1170  177.5360  137.3300 O   0  0  0  0  0  0  0  0  0  0  0  0
  189.2020  177.6890  140.5990 C   0  0  0  0  0  2  0  0  0  0  0  0
  190.1290  176.7830  141.0700 C   0  0  1  0  0  3  0  0  0  0  0  0
  190.1290  177.0710  139.6070 N   0  0  0  0  0  0  0  0  0  0  0  0
  191.7630  175.9660  138.0360 C   0  0  0  0  0  2  0  0  0  0  0  0
  193.0610  176.5730  138.5290 C   0  0  0  0  0  1  0  0  0  0  0  0
  1 13  1  0  0  0  0
  2  6  1  0  0  0  0
  3 10  1  0  0  0  0
  3  1  2  0  0  0  0
  4 11  2  0  0  0  0
  5  9  1  0  0  0  0
  5 11  1  0  0  0  0
  6 12  2  0  0  0  0
  8  7  1  0  0  0  0
  9  2  2  0  0  0  0
 10  4  1  1  0  0  0
 10  8  1  0  0  0  0
 11 14  1  0  0  0  0
 13  7  2  0  0  0  0
 14  8  2  0  0  0  0
 14 12  1  0  0  0  0
 15 16  1  0  0  0  0
 15  9  1  0  0  0  0
 17  3  1  0  0  0  0
 18 17  1  0  0  0  0
 19 18  2  0  0  0  0
 20 24  1  0  0  0  0
 21 20  2  0  0  0  0
 22 23  1  0  0  0  0
 23 19  1  1  0  0  0
 24 22  1  0  0  0  0
 24 23  1  0  0  0  0
 25 20  1  0  0  0  0
 25 26  1  0  0  0  0
M  END
>  <MODEL>
2

>  <REMARK>
 VINA RESULT:      -9.2      2.455      4.963
  Name = 
  5 active torsions:
  status: ('A' for Active; 'I' for Inactive)
    1  A    between atoms: C_2  and  C_6
    2  A    between atoms: C_4  and  C_23
    3  A    between atoms: N_11  and  C_23
    4  A    between atoms: C_12  and  C_20
    5  A    between atoms: C_16  and  O_19
                            x       y       z     vdW  Elec       q    Type
                         _______ _______ _______ _____ _____    ______ ____

>  <TORSDO>
F 5

$$$$
=
 OpenBabel10222418263D

 26 29  0  0  1  0  0  0  0  0999 V2000
  191.5840  176.2970  145.5970 C   0  0  0  0  0  3  0  0  0  0  0  0
  184.9910  178.8780  146.6220 N   0  0  0  0  0  0  0  0  0  0  0  0
  190.5790  176.4370  144.6240 C   0  0  0  0  0  0  0  0  0  0  0  0
  188.2670  177.1620  144.2370 N   0  0  0  0  0  0  0  0  0  0  0  0
  186.0650  178.0230  144.5910 C   0  0  0  0  0  3  0  0  0  0  0  0
  185.9130  178.7840  147.6140 C   0  0  0  0  0  3  0  0  0  0  0  0
  190.1060  177.2270  147.3080 C   0  0  0  0  0  3  0  0  0  0  0  0
  189.1250  177.3490  146.3250 C   0  0  0  0  0  0  0  0  0  0  0  0
  184.9870  178.5690  145.2960 C   0  0  0  0  0  0  0  0  0  0  0  0
  189.3470  176.9650  145.0220 C   0  0  0  0  0  0  0  0  0  0  0  0
  187.3220  177.6880  145.0510 C   0  0  0  0  0  0  0  0  0  0  0  0
  187.2130  178.3070  147.5340 C   0  0  0  0  0  3  0  0  0  0  0  0
  191.3490  176.6920  146.9300 C   0  0  0  0  0  3  0  0  0  0  0  0
  187.8370  177.8230  146.4050 C   0  0  0  0  0  0  0  0  0  0  0  0
  183.7970  178.8260  144.6030 O   0  0  0  0  0  0  0  0  0  0  0  0
  183.6860  178.7600  143.1860 C   0  0  0  0  0  1  0  0  0  0  0  0
  190.8230  175.9940  143.2220 C   0  0  0  0  0  2  0  0  0  0  0  0
  191.4260  177.0670  142.4690 N   0  0  0  0  0  0  0  0  0  0  0  0
  190.8450  177.6310  141.4680 C   0  0  0  0  0  3  0  0  0  0  0  0
  189.3270  178.1890  138.3270 C   0  0  0  0  0  0  0  0  0  0  0  0
  188.6960  179.1240  137.7700 O   0  0  0  0  0  0  0  0  0  0  0  0
  188.6190  178.3030  141.0660 C   0  0  0  0  0  2  0  0  0  0  0  0
  189.4830  177.2300  140.9870 C   0  0  1  0  0  3  0  0  0  0  0  0
  189.1780  177.9650  139.7250 N   0  0  0  0  0  0  0  0  0  0  0  0
  190.2050  177.2980  137.5200 C   0  0  0  0  0  2  0  0  0  0  0  0
  189.6580  175.8860  137.5340 C   0  0  0  0  0  1  0  0  0  0  0  0
  1 13  1  0  0  0  0
  2  6  1  0  0  0  0
  3 10  1  0  0  0  0
  3  1  2  0  0  0  0
  4 10  2  0  0  0  0
  4 11  1  0  0  0  0
  5 11  2  0  0  0  0
  5  9  1  0  0  0  0
  8 14  2  0  0  0  0
  8  7  1  0  0  0  0
  9  2  2  0  0  0  0
 10  8  1  0  0  0  0
 11 14  1  0  0  0  0
 12  6  2  0  0  0  0
 13  7  2  0  0  0  0
 14 12  1  0  0  0  0
 15  9  1  0  0  0  0
 16 15  1  0  0  0  0
 17  3  1  0  0  0  0
 18 17  1  0  0  0  0
 19 18  2  0  0  0  0
 20 24  1  0  0  0  0
 21 20  2  0  0  0  0
 23 22  1  0  0  0  0
 23 19  1  1  0  0  0
 24 23  1  0  0  0  0
 24 22  1  0  0  0  0
 25 26  1  0  0  0  0
 25 20  1  0  0  0  0
M  END
>  <MODEL>
3

>  <REMARK>
 VINA RESULT:      -9.0      2.474      4.940
  Name = 
  5 active torsions:
  status: ('A' for Active; 'I' for Inactive)
    1  A    between atoms: C_2  and  C_6
    2  A    between atoms: C_4  and  C_23
    3  A    between atoms: N_11  and  C_23
    4  A    between atoms: C_12  and  C_20
    5  A    between atoms: C_16  and  O_19
                            x       y       z     vdW  Elec       q    Type
                         _______ _______ _______ _____ _____    ______ ____

>  <TORSDO>
F 5

$$$$
=
 OpenBabel10222418263D

 26 29  0  0  1  0  0  0  0  0999 V2000
  186.7980  178.2160  147.9940 C   0  0  0  0  0  3  0  0  0  0  0  0
  191.4190  176.4170  142.8380 N   0  0  0  0  0  0  0  0  0  0  0  0
  186.4950  177.9930  146.6400 C   0  0  0  0  0  0  0  0  0  0  0  0
  187.4480  177.4090  144.4550 N   0  0  0  0  0  0  0  0  0  0  0  0
  189.0010  176.8110  142.7390 C   0  0  0  0  0  2  0  0  0  0  0  0
  191.7870  176.6040  144.1320 C   0  0  0  0  0  3  0  0  0  0  0  0
  189.1580  177.7260  147.5850 C   0  0  0  0  0  3  0  0  0  0  0  0
  188.8320  177.5180  146.2460 C   0  0  0  0  0  0  0  0  0  0  0  0
  190.2370  176.4890  142.1660 C   0  0  0  0  0  0  0  0  0  0  0  0
  187.5430  177.6480  145.7800 C   0  0  1  0  0  3  0  0  0  0  0  0
  188.7060  177.1150  144.0520 C   0  0  0  0  0  0  0  0  0  0  0  0
  190.9860  176.9500  145.2100 C   0  0  0  0  0  3  0  0  0  0  0  0
  188.1200  178.0800  148.4640 C   0  0  0  0  0  3  0  0  0  0  0  0
  189.6270  177.1740  145.1780 C   0  0  0  0  0  0  0  0  0  0  0  0
  190.2860  176.2160  140.7940 O   0  0  0  0  0  0  0  0  0  0  0  0
  191.1100  176.9320  139.8810 C   0  0  0  0  0  1  0  0  0  0  0  0
  185.1010  178.1630  146.1420 C   0  0  0  0  0  2  0  0  0  0  0  0
  184.9500  179.4700  145.5490 N   0  0  0  0  0  0  0  0  0  0  0  0
  184.5090  179.6470  144.3520 C   0  0  0  0  0  3  0  0  0  0  0  0
  185.3550  179.0560  140.9740 C   0  0  0  0  0  0  0  0  0  0  0  0
  184.9370  179.4310  139.8480 O   0  0  0  0  0  0  0  0  0  0  0  0
  183.0700  178.9040  142.6370 C   0  0  0  0  0  2  0  0  0  0  0  0
  184.1080  178.5130  143.4570 C   0  0  1  0  0  3  0  0  0  0  0  0
  184.4390  178.8690  142.0470 N   0  0  0  0  0  0  0  0  0  0  0  0
  186.8040  178.7810  141.1760 C   0  0  0  0  0  2  0  0  0  0  0  0
  187.4420  178.3890  139.8590 C   0  0  0  0  0  1  0  0  0  0  0  0
  1 13  1  0  0  0  0
  2  6  1  0  0  0  0
  3  1  2  0  0  0  0
  5 11  1  0  0  0  0
  6 12  2  0  0  0  0
  7 13  2  0  0  0  0
  8  7  1  0  0  0  0
  9  5  1  0  0  0  0
  9  2  2  0  0  0  0
 10  4  1  6  0  0  0
 10  8  1  0  0  0  0
 10  3  1  0  0  0  0
 11  4  2  0  0  0  0
 11 14  1  0  0  0  0
 14 12  1  0  0  0  0
 14  8  2  0  0  0  0
 15  9  1  0  0  0  0
 16 15  1  0  0  0  0
 17  3  1  0  0  0  0
 18 17  1  0  0  0  0
 19 18  2  0  0  0  0
 20 25  1  0  0  0  0
 20 24  1  0  0  0  0
 21 20  2  0  0  0  0
 22 23  1  0  0  0  0
 23 19  1  1  0  0  0
 24 22  1  0  0  0  0
 24 23  1  0  0  0  0
 26 25  1  0  0  0  0
M  END
>  <MODEL>
4

>  <REMARK>
 VINA RESULT:      -9.0      2.214      5.092
  Name = 
  5 active torsions:
  status: ('A' for Active; 'I' for Inactive)
    1  A    between atoms: C_2  and  C_6
    2  A    between atoms: C_4  and  C_23
    3  A    between atoms: N_11  and  C_23
    4  A    between atoms: C_12  and  C_20
    5  A    between atoms: C_16  and  O_19
                            x       y       z     vdW  Elec       q    Type
                         _______ _______ _______ _____ _____    ______ ____

>  <TORSDO>
F 5

$$$$
=
 OpenBabel10222418263D

 26 29  0  0  1  0  0  0  0  0999 V2000
  184.0040  178.8570  143.5950 C   0  0  0  0  0  3  0  0  0  0  0  0
  189.6470  177.2310  147.6810 N   0  0  0  0  0  0  0  0  0  0  0  0
  185.2750  178.4570  143.1460 C   0  0  0  0  0  0  0  0  0  0  0  0
  187.5260  177.7990  143.8670 N   0  0  0  0  0  0  0  0  0  0  0  0
  189.4070  177.2610  145.2410 C   0  0  0  0  0  3  0  0  0  0  0  0
  188.4430  177.5990  148.1900 C   0  0  0  0  0  3  0  0  0  0  0  0
  184.7280  178.6730  145.9230 C   0  0  0  0  0  3  0  0  0  0  0  0
  185.9820  178.2860  145.4510 C   0  0  0  0  0  0  0  0  0  0  0  0
  190.1340  177.0640  146.4210 C   0  0  0  0  0  0  0  0  0  0  0  0
  186.2540  178.1810  144.1050 C   0  0  0  0  0  0  0  0  0  0  0  0
  188.0920  177.6500  145.0870 C   0  0  0  0  0  0  0  0  0  0  0  0
  187.2860  177.9320  147.5020 C   0  0  0  0  0  3  0  0  0  0  0  0
  183.7320  178.9610  144.9740 C   0  0  0  0  0  3  0  0  0  0  0  0
  187.1280  177.9550  146.1340 C   0  0  0  0  0  0  0  0  0  0  0  0
  191.4720  176.6640  146.3210 O   0  0  0  0  0  0  0  0  0  0  0  0
  192.1180  175.8420  147.2860 C   0  0  0  0  0  1  0  0  0  0  0  0
  185.5650  178.3730  141.6870 C   0  0  0  0  0  2  0  0  0  0  0  0
  184.8600  179.4200  140.9880 N   0  0  0  0  0  0  0  0  0  0  0  0
  184.2980  179.2400  139.8430 C   0  0  0  0  0  3  0  0  0  0  0  0
  186.6060  178.0280  137.4600 C   0  0  0  0  0  0  0  0  0  0  0  0
  186.7810  178.1370  136.2180 O   0  0  0  0  0  0  0  0  0  0  0  0
  183.8030  178.0730  137.8540 C   0  0  0  0  0  2  0  0  0  0  0  0
  184.3180  177.9250  139.1250 C   0  0  1  0  0  3  0  0  0  0  0  0
  185.2860  178.0050  137.9930 N   0  0  0  0  0  0  0  0  0  0  0  0
  187.7780  177.8920  138.3670 C   0  0  0  0  0  2  0  0  0  0  0  0
  188.9370  178.7110  137.8370 C   0  0  0  0  0  1  0  0  0  0  0  0
  1 13  1  0  0  0  0
  2  6  1  0  0  0  0
  3  1  2  0  0  0  0
  3 10  1  0  0  0  0
  4 10  2  0  0  0  0
  4 11  1  0  0  0  0
  5  9  1  0  0  0  0
  8  7  1  0  0  0  0
  8 14  2  0  0  0  0
  9  2  2  0  0  0  0
 10  8  1  0  0  0  0
 11  5  2  0  0  0  0
 11 14  1  0  0  0  0
 12  6  2  0  0  0  0
 13  7  2  0  0  0  0
 14 12  1  0  0  0  0
 15  9  1  0  0  0  0
 15 16  1  0  0  0  0
 17  3  1  0  0  0  0
 18 17  1  0  0  0  0
 19 18  2  0  0  0  0
 20 24  1  0  0  0  0
 20 25  1  0  0  0  0
 21 20  2  0  0  0  0
 22 24  1  0  0  0  0
 22 23  1  0  0  0  0
 23 19  1  1  0  0  0
 24 23  1  0  0  0  0
 26 25  1  0  0  0  0
M  END
>  <MODEL>
5

>  <REMARK>
 VINA RESULT:      -8.9      2.397      3.290
  Name = 
  5 active torsions:
  status: ('A' for Active; 'I' for Inactive)
    1  A    between atoms: C_2  and  C_6
    2  A    between atoms: C_4  and  C_23
    3  A    between atoms: N_11  and  C_23
    4  A    between atoms: C_12  and  C_20
    5  A    between atoms: C_16  and  O_19
                            x       y       z     vdW  Elec       q    Type
                         _______ _______ _______ _____ _____    ______ ____

>  <TORSDO>
F 5

$$$$
=
 OpenBabel10222418263D

 26 29  0  0  1  0  0  0  0  0999 V2000
  189.3420  177.4070  147.3730 C   0  0  0  0  0  3  0  0  0  0  0  0
  183.4100  178.8430  143.6410 N   0  0  0  0  0  0  0  0  0  0  0  0
  189.1760  177.2790  145.9840 C   0  0  0  0  0  0  0  0  0  0  0  0
  187.5850  177.5400  144.1340 N   0  0  0  0  0  0  0  0  0  0  0  0
  185.5960  178.0190  142.8970 C   0  0  0  0  0  2  0  0  0  0  0  0
  183.4970  179.0030  144.9870 C   0  0  0  0  0  3  0  0  0  0  0  0
  187.0430  178.2040  147.6110 C   0  0  0  0  0  3  0  0  0  0  0  0
  186.9030  178.0600  146.2310 C   0  0  0  0  0  0  0  0  0  0  0  0
  184.2740  178.4220  142.6770 C   0  0  0  0  0  0  0  0  0  0  0  0
  187.9330  177.6100  145.4360 C   0  0  1  0  0  3  0  0  0  0  0  0
  186.2980  177.9570  144.0830 C   0  0  0  0  0  0  0  0  0  0  0  0
  184.5870  178.7620  145.8110 C   0  0  0  0  0  3  0  0  0  0  0  0
  188.2830  177.8700  148.1810 C   0  0  0  0  0  3  0  0  0  0  0  0
  185.8230  178.3010  145.4150 C   0  0  0  0  0  0  0  0  0  0  0  0
  183.7780  178.4000  141.3670 O   0  0  0  0  0  0  0  0  0  0  0  0
  184.5250  178.8390  140.2390 C   0  0  0  0  0  1  0  0  0  0  0  0
  190.2900  176.7650  145.1370 C   0  0  0  0  0  2  0  0  0  0  0  0
  190.8320  177.8380  144.3390 N   0  0  0  0  0  0  0  0  0  0  0  0
  190.9740  177.7570  143.0620 C   0  0  0  0  0  3  0  0  0  0  0  0
  191.2280  177.1590  139.5900 C   0  0  0  0  0  0  0  0  0  0  0  0
  190.5460  177.4180  138.5650 O   0  0  0  0  0  0  0  0  0  0  0  0
  189.3630  176.7320  141.6760 C   0  0  0  0  0  2  0  0  0  0  0  0
  190.5900  176.5390  142.2770 C   0  0  1  0  0  3  0  0  0  0  0  0
  190.5800  176.8800  140.8250 N   0  0  0  0  0  0  0  0  0  0  0  0
  192.7140  177.1160  139.5020 C   0  0  0  0  0  2  0  0  0  0  0  0
  193.1350  176.4480  138.2100 C   0  0  0  0  0  1  0  0  0  0  0  0
  1 13  1  0  0  0  0
  2  6  1  0  0  0  0
  3  1  2  0  0  0  0
  5 11  1  0  0  0  0
  6 12  2  0  0  0  0
  7 13  2  0  0  0  0
  8  7  1  0  0  0  0
  9  5  1  0  0  0  0
  9  2  2  0  0  0  0
 10  4  1  1  0  0  0
 10  3  1  0  0  0  0
 10  8  1  0  0  0  0
 11  4  2  0  0  0  0
 11 14  1  0  0  0  0
 14 12  1  0  0  0  0
 14  8  2  0  0  0  0
 15  9  1  0  0  0  0
 16 15  1  0  0  0  0
 17  3  1  0  0  0  0
 18 17  1  0  0  0  0
 19 18  2  0  0  0  0
 20 24  1  0  0  0  0
 21 20  2  0  0  0  0
 22 23  1  0  0  0  0
 23 19  1  1  0  0  0
 24 22  1  0  0  0  0
 24 23  1  0  0  0  0
 25 20  1  0  0  0  0
 26 25  1  0  0  0  0
M  END
>  <MODEL>
6

>  <REMARK>
 VINA RESULT:      -8.7      2.423      5.005
  Name = 
  5 active torsions:
  status: ('A' for Active; 'I' for Inactive)
    1  A    between atoms: C_2  and  C_6
    2  A    between atoms: C_4  and  C_23
    3  A    between atoms: N_11  and  C_23
    4  A    between atoms: C_12  and  C_20
    5  A    between atoms: C_16  and  O_19
                            x       y       z     vdW  Elec       q    Type
                         _______ _______ _______ _____ _____    ______ ____

>  <TORSDO>
F 5

$$$$
=
 OpenBabel10222418263D

 26 29  0  0  1  0  0  0  0  0999 V2000
  186.5410  178.0210  145.4890 C   0  0  0  0  0  3  0  0  0  0  0  0
  180.8050  179.3300  141.4200 N   0  0  0  0  0  0  0  0  0  0  0  0
  186.4520  177.8690  144.0950 C   0  0  0  0  0  0  0  0  0  0  0  0
  184.9610  178.0840  142.1580 N   0  0  0  0  0  0  0  0  0  0  0  0
  183.0370  178.5210  140.8080 C   0  0  0  0  0  2  0  0  0  0  0  0
  180.8170  179.5120  142.7650 C   0  0  0  0  0  3  0  0  0  0  0  0
  184.2240  178.7940  145.5890 C   0  0  0  0  0  3  0  0  0  0  0  0
  184.1610  178.6280  144.2060 C   0  0  0  0  0  0  0  0  0  0  0  0
  181.7250  178.9060  140.5100 C   0  0  0  0  0  0  0  0  0  0  0  0
  185.2370  178.1780  143.4760 C   0  0  1  0  0  3  0  0  0  0  0  0
  183.6740  178.4850  142.0310 C   0  0  0  0  0  0  0  0  0  0  0  0
  181.8630  179.2960  143.6510 C   0  0  0  0  0  3  0  0  0  0  0  0
  185.4350  178.4830  146.2310 C   0  0  0  0  0  3  0  0  0  0  0  0
  183.1240  178.8440  143.3290 C   0  0  0  0  0  0  0  0  0  0  0  0
  181.3010  178.8580  139.1760 O   0  0  0  0  0  0  0  0  0  0  0  0
  182.1810  178.6270  138.0830 C   0  0  0  0  0  1  0  0  0  0  0  0
  187.6160  177.3560  143.3180 C   0  0  0  0  0  2  0  0  0  0  0  0
  188.6800  178.3310  143.3320 N   0  0  0  0  0  0  0  0  0  0  0  0
  189.8820  178.0480  143.6950 C   0  0  0  0  0  3  0  0  0  0  0  0
  190.6080  176.8720  146.9460 C   0  0  0  0  0  0  0  0  0  0  0  0
  191.6010  176.8740  147.7180 O   0  0  0  0  0  0  0  0  0  0  0  0
  191.6620  176.6360  144.3300 C   0  0  0  0  0  2  0  0  0  0  0  0
  190.2970  176.6770  144.1390 C   0  0  1  0  0  3  0  0  0  0  0  0
  190.8000  176.7530  145.5410 N   0  0  0  0  0  0  0  0  0  0  0  0
  189.2310  176.9650  147.5040 C   0  0  0  0  0  2  0  0  0  0  0  0
  189.0780  178.2530  148.2870 C   0  0  0  0  0  1  0  0  0  0  0  0
  1 13  1  0  0  0  0
  2  6  1  0  0  0  0
  3  1  2  0  0  0  0
  5 11  1  0  0  0  0
  6 12  2  0  0  0  0
  7 13  2  0  0  0  0
  8  7  1  0  0  0  0
  9  5  1  0  0  0  0
  9  2  2  0  0  0  0
 10  4  1  1  0  0  0
 10  3  1  0  0  0  0
 10  8  1  0  0  0  0
 11  4  2  0  0  0  0
 11 14  1  0  0  0  0
 14 12  1  0  0  0  0
 14  8  2  0  0  0  0
 15  9  1  0  0  0  0
 16 15  1  0  0  0  0
 17 18  1  0  0  0  0
 17  3  1  0  0  0  0
 18 19  2  0  0  0  0
 20 25  1  0  0  0  0
 20 21  2  0  0  0  0
 22 24  1  0  0  0  0
 23 19  1  6  0  0  0
 23 22  1  0  0  0  0
 23 24  1  0  0  0  0
 24 20  1  0  0  0  0
 25 26  1  0  0  0  0
M  END
>  <MODEL>
7

>  <REMARK>
 VINA RESULT:      -8.7      3.316      6.606
  Name = 
  5 active torsions:
  status: ('A' for Active; 'I' for Inactive)
    1  A    between atoms: C_2  and  C_6
    2  A    between atoms: C_4  and  C_23
    3  A    between atoms: N_11  and  C_23
    4  A    between atoms: C_12  and  C_20
    5  A    between atoms: C_16  and  O_19
                            x       y       z     vdW  Elec       q    Type
                         _______ _______ _______ _____ _____    ______ ____

>  <TORSDO>
F 5

$$$$
=
 OpenBabel10222418263D

 26 29  0  0  1  0  0  0  0  0999 V2000
  183.4330  178.9930  145.0800 C   0  0  0  0  0  3  0  0  0  0  0  0
  187.1300  178.3220  138.9920 N   0  0  0  0  0  0  0  0  0  0  0  0
  184.8250  178.8400  144.9590 C   0  0  2  0  0  3  0  0  0  0  0  0
  186.6670  178.5590  143.3620 N   0  0  0  0  0  0  0  0  0  0  0  0
  187.8930  178.3320  141.3220 C   0  0  0  0  0  2  0  0  0  0  0  0
  185.7820  178.4790  139.0280 C   0  0  0  0  0  3  0  0  0  0  0  0
  183.1780  178.9280  142.6490 C   0  0  0  0  0  3  0  0  0  0  0  0
  184.5600  178.7690  142.5580 C   0  0  0  0  0  0  0  0  0  0  0  0
  188.1040  178.2490  139.9400 C   0  0  0  0  0  0  0  0  0  0  0  0
  185.3650  178.7230  143.6740 C   0  0  0  0  0  0  0  0  0  0  0  0
  186.7090  178.4980  142.0100 C   0  0  0  0  0  0  0  0  0  0  0  0
  184.9640  178.6200  140.1390 C   0  0  0  0  0  3  0  0  0  0  0  0
  182.6150  179.0400  143.9320 C   0  0  0  0  0  3  0  0  0  0  0  0
  185.3700  178.6300  141.4550 C   0  0  0  0  0  0  0  0  0  0  0  0
  189.4130  178.0780  139.4740 O   0  0  0  0  0  0  0  0  0  0  0  0
  190.3520  177.1990  140.0810 C   0  0  0  0  0  1  0  0  0  0  0  0
  185.6830  178.7650  146.1750 C   0  0  0  0  0  2  0  0  0  0  0  0
  186.1550  177.4140  146.3580 N   0  0  0  0  0  0  0  0  0  0  0  0
  187.3620  177.1370  146.7080 C   0  0  0  0  0  3  0  0  0  0  0  0
  190.8030  177.1340  145.9070 C   0  0  0  0  0  0  0  0  0  0  0  0
  191.8610  176.6850  146.4190 O   0  0  0  0  0  0  0  0  0  0  0  0
  189.1400  177.8640  148.0780 C   0  0  0  0  0  2  0  0  0  0  0  0
  188.3980  178.1910  146.9620 C   0  0  1  0  0  3  0  0  0  0  0  0
  189.7510  177.6040  146.7430 N   0  0  0  0  0  0  0  0  0  0  0  0
  190.6640  177.2020  144.4260 C   0  0  0  0  0  2  0  0  0  0  0  0
  191.6670  178.1850  143.8590 C   0  0  0  0  0  1  0  0  0  0  0  0
  2  6  1  0  0  0  0
  2  9  2  0  0  0  0
  3  1  1  0  0  0  0
  3 17  1  1  0  0  0
  4 10  2  0  0  0  0
  5 11  1  0  0  0  0
  6 12  2  0  0  0  0
  7 13  1  0  0  0  0
  8  7  2  0  0  0  0
  8 10  1  0  0  0  0
  9  5  1  0  0  0  0
 10  3  1  0  0  0  0
 11  4  1  0  0  0  0
 12 14  1  0  0  0  0
 13  1  2  0  0  0  0
 14 11  2  0  0  0  0
 14  8  1  0  0  0  0
 15  9  1  0  0  0  0
 15 16  1  0  0  0  0
 17 18  1  0  0  0  0
 18 19  2  0  0  0  0
 20 21  2  0  0  0  0
 20 24  1  0  0  0  0
 23 19  1  6  0  0  0
 23 22  1  0  0  0  0
 24 23  1  0  0  0  0
 24 22  1  0  0  0  0
 25 20  1  0  0  0  0
 26 25  1  0  0  0  0
M  END
>  <MODEL>
8

>  <REMARK>
 VINA RESULT:      -8.3      1.653      5.677
  Name = 
  5 active torsions:
  status: ('A' for Active; 'I' for Inactive)
    1  A    between atoms: C_2  and  C_6
    2  A    between atoms: C_4  and  C_23
    3  A    between atoms: N_11  and  C_23
    4  A    between atoms: C_12  and  C_20
    5  A    between atoms: C_16  and  O_19
                            x       y       z     vdW  Elec       q    Type
                         _______ _______ _______ _____ _____    ______ ____

>  <TORSDO>
F 5

$$$$
=
 OpenBabel10222418263D

 26 29  0  0  1  0  0  0  0  0999 V2000
  189.6490  177.0320  146.0380 C   0  0  0  0  0  3  0  0  0  0  0  0
  183.1620  179.0100  143.7580 N   0  0  0  0  0  0  0  0  0  0  0  0
  189.1820  177.0000  144.7130 C   0  0  0  0  0  0  0  0  0  0  0  0
  187.2530  177.4600  143.2680 N   0  0  0  0  0  0  0  0  0  0  0  0
  185.0810  178.1210  142.5170 C   0  0  0  0  0  2  0  0  0  0  0  0
  183.5450  179.0810  145.0590 C   0  0  0  0  0  3  0  0  0  0  0  0
  187.5100  177.9320  146.8080 C   0  0  0  0  0  3  0  0  0  0  0  0
  187.0700  177.8830  145.4860 C   0  0  0  0  0  0  0  0  0  0  0  0
  183.7720  178.6060  142.6090 C   0  0  0  0  0  0  0  0  0  0  0  0
  187.8750  177.4300  144.4650 C   0  0  1  0  0  3  0  0  0  0  0  0
  186.0150  177.9470  143.5180 C   0  0  0  0  0  0  0  0  0  0  0  0
  184.7670  178.7310  145.6140 C   0  0  0  0  0  3  0  0  0  0  0  0
  188.8190  177.4980  147.0780 C   0  0  0  0  0  3  0  0  0  0  0  0
  185.8580  178.2320  144.9360 C   0  0  0  0  0  0  0  0  0  0  0  0
  183.0080  178.6920  141.4390 O   0  0  0  0  0  0  0  0  0  0  0  0
  182.9720  177.6710  140.4490 C   0  0  0  0  0  1  0  0  0  0  0  0
  190.0540  176.4830  143.6200 C   0  0  0  0  0  2  0  0  0  0  0  0
  190.6300  177.5870  142.8920 N   0  0  0  0  0  0  0  0  0  0  0  0
  190.4270  177.7770  141.6350 C   0  0  0  0  0  3  0  0  0  0  0  0
  190.8160  176.8040  138.2610 C   0  0  0  0  0  0  0  0  0  0  0  0
  190.5280  177.2810  137.1330 O   0  0  0  0  0  0  0  0  0  0  0  0
  188.7350  177.6170  139.9990 C   0  0  0  0  0  2  0  0  0  0  0  0
  189.5710  176.8700  140.8030 C   0  0  1  0  0  3  0  0  0  0  0  0
  189.9500  177.0250  139.3690 N   0  0  0  0  0  0  0  0  0  0  0  0
  192.0460  175.9830  138.4300 C   0  0  0  0  0  2  0  0  0  0  0  0
  193.1140  176.4510  137.4630 C   0  0  0  0  0  1  0  0  0  0  0  0
  1 13  1  0  0  0  0
  2  6  1  0  0  0  0
  3  1  2  0  0  0  0
  4 11  2  0  0  0  0
  5  9  1  0  0  0  0
  5 11  1  0  0  0  0
  6 12  2  0  0  0  0
  7 13  2  0  0  0  0
  8  7  1  0  0  0  0
  9  2  2  0  0  0  0
 10  4  1  1  0  0  0
 10  3  1  0  0  0  0
 10  8  1  0  0  0  0
 11 14  1  0  0  0  0
 14  8  2  0  0  0  0
 14 12  1  0  0  0  0
 15  9  1  0  0  0  0
 16 15  1  0  0  0  0
 17  3  1  0  0  0  0
 18 17  1  0  0  0  0
 19 18  2  0  0  0  0
 20 25  1  0  0  0  0
 20 24  1  0  0  0  0
 21 20  2  0  0  0  0
 22 23  1  0  0  0  0
 23 19  1  1  0  0  0
 24 22  1  0  0  0  0
 24 23  1  0  0  0  0
 26 25  1  0  0  0  0
M  END
>  <MODEL>
9

>  <REMARK>
 VINA RESULT:      -8.3      2.779      5.191
  Name = 
  5 active torsions:
  status: ('A' for Active; 'I' for Inactive)
    1  A    between atoms: C_2  and  C_6
    2  A    between atoms: C_4  and  C_23
    3  A    between atoms: N_11  and  C_23
    4  A    between atoms: C_12  and  C_20
    5  A    between atoms: C_16  and  O_19
                            x       y       z     vdW  Elec       q    Type
                         _______ _______ _______ _____ _____    ______ ____

>  <TORSDO>
F 5

$$$$
