=
 OpenBabel10222418073D

 25 28  0  0  0  0  0  0  0  0999 V2000
  187.4620  177.9330  145.4030 C   0  0  0  0  0  3  0  0  0  0  0  0
  182.9220  178.8870  143.6080 N   0  0  0  0  0  0  0  0  0  0  0  0
  184.9760  178.2060  142.6280 C   0  0  0  0  0  3  0  0  0  0  0  0
  185.3350  178.6240  146.3110 C   0  0  0  0  0  3  0  0  0  0  0  0
  182.8020  178.5960  141.4360 C   0  0  0  0  0  3  0  0  0  0  0  0
  183.6310  178.5430  142.5340 C   0  0  0  0  0  0  0  0  0  0  0  0
  186.9470  177.9090  144.0980 C   0  0  0  0  0  0  0  0  0  0  0  0
  181.6880  179.1520  143.2310 N   0  0  0  0  0  0  0  0  0  0  0  0
  184.7810  178.6050  145.0330 C   0  0  0  0  0  0  0  0  0  0  0  0
  183.4280  178.9340  144.8620 C   0  0  0  0  0  3  0  0  0  0  0  0
  185.5790  178.2420  143.9020 C   0  0  0  0  0  0  0  0  0  0  0  0
  186.6730  178.2880  146.5050 C   0  0  0  0  0  0  0  0  0  0  0  0
  181.5900  178.9830  141.9160 N   0  0  0  0  0  0  0  0  0  0  0  0
  189.3530  177.2760  141.0180 C   0  0  0  0  0  3  0  0  0  0  0  0
  188.1730  178.3410  141.5570 S   0  0  0  0  0  0  0  0  0  0  0  0
  187.8800  177.5280  143.0040 C   0  0  0  0  0  0  0  0  0  0  0  0
  188.7390  176.4320  143.0330 C   0  0  0  0  0  3  0  0  0  0  0  0
  189.5370  176.3010  141.9380 N   0  0  0  0  0  0  0  0  0  0  0  0
  187.1940  178.3130  147.8010 O   0  0  0  0  0  0  0  0  0  0  0  0
  188.0680  177.3060  148.2970 C   0  0  0  0  0  2  0  0  0  0  0  0
  189.4580  177.5570  147.8150 C   0  0  0  0  0  3  0  0  0  0  0  0
  190.1820  176.5690  147.2950 C   0  0  0  0  0  3  0  0  0  0  0  0
  192.4710  176.0950  147.5950 O   0  0  0  0  0  1  0  0  0  0  0  0
  191.6910  176.4170  145.4810 O   0  0  0  0  0  1  0  0  0  0  0  0
  191.5720  176.8180  146.8120 C   0  0  0  0  0  3  0  0  0  0  0  0
  1 12  1  0  0  0  0
  2 10  1  0  0  0  0
  3 11  2  0  0  0  0
  4 12  2  0  0  0  0
  5 13  1  0  0  0  0
  5  6  2  0  0  0  0
  6  3  1  0  0  0  0
  6  2  1  0  0  0  0
  7  1  2  0  0  0  0
  8  2  1  0  0  0  0
  9  4  1  0  0  0  0
 10  9  2  0  0  0  0
 11  7  1  0  0  0  0
 11  9  1  0  0  0  0
 12 19  1  0  0  0  0
 13  8  2  0  0  0  0
 14 15  1  0  0  0  0
 14 18  2  0  0  0  0
 15 16  1  0  0  0  0
 16 17  2  0  0  0  0
 16  7  1  0  0  0  0
 18 17  1  0  0  0  0
 19 20  1  0  0  0  0
 21 20  1  0  0  0  0
 22 21  2  0  0  0  0
 24 25  1  0  0  0  0
 25 22  1  0  0  0  0
 25 23  1  0  0  0  0
M  END
>  <MODEL>
1

>  <REMARK>
 VINA RESULT:      -9.3      0.000      0.000
  Name = 
  5 active torsions:
  status: ('A' for Active; 'I' for Inactive)
    1  A    between atoms: C_3  and  C_13
    2  A    between atoms: C_10  and  C_23
    3  A    between atoms: C_11  and  C_18
    4  A    between atoms: C_13  and  O_22
    5  A    between atoms: O_22  and  C_24
                            x       y       z     vdW  Elec       q    Type
                         _______ _______ _______ _____ _____    ______ ____

>  <TORSDO>
F 5

$$$$
=
 OpenBabel10222418073D

 25 28  0  0  0  0  0  0  0  0999 V2000
  186.0570  178.2010  143.5490 C   0  0  0  0  0  3  0  0  0  0  0  0
  189.7440  177.1190  146.7100 N   0  0  0  0  0  0  0  0  0  0  0  0
  189.6100  177.3680  144.3500 C   0  0  0  0  0  3  0  0  0  0  0  0
  186.2870  177.9280  145.9370 C   0  0  0  0  0  3  0  0  0  0  0  0
  191.6640  176.8250  145.6880 C   0  0  0  0  0  3  0  0  0  0  0  0
  190.3280  177.1120  145.5120 C   0  0  0  0  0  0  0  0  0  0  0  0
  187.4140  177.9100  143.3410 C   0  0  0  0  0  0  0  0  0  0  0  0
  190.6530  176.8500  147.6240 N   0  0  0  0  0  0  0  0  0  0  0  0
  187.6410  177.6420  145.7760 C   0  0  0  0  0  0  0  0  0  0  0  0
  188.4290  177.3750  146.9050 C   0  0  0  0  0  3  0  0  0  0  0  0
  188.2290  177.6330  144.4710 C   0  0  0  0  0  0  0  0  0  0  0  0
  185.4890  178.2090  144.8300 C   0  0  0  0  0  0  0  0  0  0  0  0
  191.8270  176.6660  147.0270 N   0  0  0  0  0  0  0  0  0  0  0  0
  188.9820  177.6170  139.7170 C   0  0  0  0  0  3  0  0  0  0  0  0
  189.2290  177.0970  141.2940 S   0  0  0  0  0  0  0  0  0  0  0  0
  187.9050  177.9170  141.9370 C   0  0  0  0  0  0  0  0  0  0  0  0
  187.2850  178.5770  140.8790 C   0  0  0  0  0  3  0  0  0  0  0  0
  187.8870  178.4100  139.6690 N   0  0  0  0  0  0  0  0  0  0  0  0
  184.1360  178.4960  145.0290 O   0  0  0  0  0  0  0  0  0  0  0  0
  183.3790  179.2920  144.1250 C   0  0  0  0  0  2  0  0  0  0  0  0
  181.9470  178.8740  144.1580 C   0  0  0  0  0  3  0  0  0  0  0  0
  181.2050  178.9140  143.0530 C   0  0  0  0  0  3  0  0  0  0  0  0
  179.5890  177.4090  142.2310 O   0  0  0  0  0  1  0  0  0  0  0  0
  179.4110  178.1340  144.3810 O   0  0  0  0  0  1  0  0  0  0  0  0
  179.7720  178.4970  143.0830 C   0  0  0  0  0  3  0  0  0  0  0  0
  1 12  1  0  0  0  0
  2 10  1  0  0  0  0
  2  8  1  0  0  0  0
  3 11  2  0  0  0  0
  3  6  1  0  0  0  0
  5 13  1  0  0  0  0
  6  5  2  0  0  0  0
  6  2  1  0  0  0  0
  7  1  2  0  0  0  0
  7 11  1  0  0  0  0
  9  4  1  0  0  0  0
  9 10  2  0  0  0  0
 11  9  1  0  0  0  0
 12 19  1  0  0  0  0
 12  4  2  0  0  0  0
 13  8  2  0  0  0  0
 14 15  1  0  0  0  0
 15 16  1  0  0  0  0
 16  7  1  0  0  0  0
 17 16  2  0  0  0  0
 18 14  2  0  0  0  0
 18 17  1  0  0  0  0
 20 21  1  0  0  0  0
 20 19  1  0  0  0  0
 22 25  1  0  0  0  0
 22 21  2  0  0  0  0
 23 25  1  0  0  0  0
 25 24  1  0  0  0  0
M  END
>  <MODEL>
2

>  <REMARK>
 VINA RESULT:      -9.0      3.702      7.253
  Name = 
  5 active torsions:
  status: ('A' for Active; 'I' for Inactive)
    1  A    between atoms: C_3  and  C_13
    2  A    between atoms: C_10  and  C_23
    3  A    between atoms: C_11  and  C_18
    4  A    between atoms: C_13  and  O_22
    5  A    between atoms: O_22  and  C_24
                            x       y       z     vdW  Elec       q    Type
                         _______ _______ _______ _____ _____    ______ ____

>  <TORSDO>
F 5

$$$$
=
 OpenBabel10222418073D

 25 28  0  0  0  0  0  0  0  0999 V2000
  190.1760  176.6840  143.2250 C   0  0  0  0  0  3  0  0  0  0  0  0
  185.5970  178.2730  144.3470 N   0  0  0  0  0  0  0  0  0  0  0  0
  187.5480  177.8170  145.6250 C   0  0  0  0  0  3  0  0  0  0  0  0
  188.1490  177.1700  142.0070 C   0  0  0  0  0  3  0  0  0  0  0  0
  185.3430  178.6440  146.4950 C   0  0  0  0  0  3  0  0  0  0  0  0
  186.2240  178.2290  145.5220 C   0  0  0  0  0  0  0  0  0  0  0  0
  189.5710  177.0080  144.4490 C   0  0  0  0  0  0  0  0  0  0  0  0
  184.3660  178.6970  144.5420 N   0  0  0  0  0  0  0  0  0  0  0  0
  187.5130  177.5100  143.1990 C   0  0  0  0  0  0  0  0  0  0  0  0
  186.1760  177.9350  143.1710 C   0  0  0  0  0  3  0  0  0  0  0  0
  188.2170  177.4380  144.4430 C   0  0  0  0  0  0  0  0  0  0  0  0
  189.4800  176.7590  142.0110 C   0  0  0  0  0  0  0  0  0  0  0  0
  184.1870  178.9280  145.8390 N   0  0  0  0  0  0  0  0  0  0  0  0
  191.4260  176.7100  147.9340 C   0  0  0  0  0  3  0  0  0  0  0  0
  189.9390  177.1280  147.2760 S   0  0  0  0  0  0  0  0  0  0  0  0
  190.4030  176.8800  145.6760 C   0  0  0  0  0  0  0  0  0  0  0  0
  191.7280  176.4540  145.6990 C   0  0  0  0  0  3  0  0  0  0  0  0
  192.2800  176.3700  146.9410 N   0  0  0  0  0  0  0  0  0  0  0  0
  190.0890  176.4310  140.7960 O   0  0  0  0  0  0  0  0  0  0  0  0
  190.7180  177.4000  139.9670 C   0  0  0  0  0  2  0  0  0  0  0  0
  190.0460  177.4430  138.6360 C   0  0  0  0  0  3  0  0  0  0  0  0
  189.2760  178.4760  138.3010 C   0  0  0  0  0  3  0  0  0  0  0  0
  188.0950  177.2610  136.6640 O   0  0  0  0  0  1  0  0  0  0  0  0
  187.5580  179.4470  136.9990 O   0  0  0  0  0  1  0  0  0  0  0  0
  188.6020  178.5220  136.9700 C   0  0  0  0  0  3  0  0  0  0  0  0
  1  7  2  0  0  0  0
  2  8  1  0  0  0  0
  2  6  1  0  0  0  0
  4 12  2  0  0  0  0
  4  9  1  0  0  0  0
  6  3  1  0  0  0  0
  6  5  2  0  0  0  0
  7 16  1  0  0  0  0
  8 13  2  0  0  0  0
  9 11  1  0  0  0  0
 10  9  2  0  0  0  0
 10  2  1  0  0  0  0
 11  7  1  0  0  0  0
 11  3  2  0  0  0  0
 12  1  1  0  0  0  0
 13  5  1  0  0  0  0
 15 14  1  0  0  0  0
 16 17  2  0  0  0  0
 16 15  1  0  0  0  0
 17 18  1  0  0  0  0
 18 14  2  0  0  0  0
 19 12  1  0  0  0  0
 20 19  1  0  0  0  0
 21 20  1  0  0  0  0
 22 21  2  0  0  0  0
 23 25  1  0  0  0  0
 25 24  1  0  0  0  0
 25 22  1  0  0  0  0
M  END
>  <MODEL>
3

>  <REMARK>
 VINA RESULT:      -8.5      3.770      6.391
  Name = 
  5 active torsions:
  status: ('A' for Active; 'I' for Inactive)
    1  A    between atoms: C_3  and  C_13
    2  A    between atoms: C_10  and  C_23
    3  A    between atoms: C_11  and  C_18
    4  A    between atoms: C_13  and  O_22
    5  A    between atoms: O_22  and  C_24
                            x       y       z     vdW  Elec       q    Type
                         _______ _______ _______ _____ _____    ______ ____

>  <TORSDO>
F 5

$$$$
=
 OpenBabel10222418073D

 25 28  0  0  0  0  0  0  0  0999 V2000
  187.2700  177.8440  142.4280 C   0  0  0  0  0  3  0  0  0  0  0  0
  190.9710  176.9280  145.6250 N   0  0  0  0  0  0  0  0  0  0  0  0
  188.6930  177.5580  145.8710 C   0  0  0  0  0  3  0  0  0  0  0  0
  189.5940  177.2070  142.2740 C   0  0  0  0  0  3  0  0  0  0  0  0
  190.3430  177.1420  147.7170 C   0  0  0  0  0  3  0  0  0  0  0  0
  189.9330  177.2290  146.4050 C   0  0  0  0  0  0  0  0  0  0  0  0
  187.3310  177.8900  143.8300 C   0  0  0  0  0  0  0  0  0  0  0  0
  192.0090  176.6580  146.3900 N   0  0  0  0  0  0  0  0  0  0  0  0
  189.6950  177.2310  143.6630 C   0  0  0  0  0  0  0  0  0  0  0  0
  190.9170  176.9100  144.2730 C   0  0  0  0  0  3  0  0  0  0  0  0
  188.5600  177.5710  144.4670 C   0  0  0  0  0  0  0  0  0  0  0  0
  188.3860  177.5090  141.6500 C   0  0  0  0  0  0  0  0  0  0  0  0
  191.6530  176.7820  147.6640 N   0  0  0  0  0  0  0  0  0  0  0  0
  183.8230  178.8630  145.3860 C   0  0  0  0  0  3  0  0  0  0  0  0
  184.5790  178.6450  143.9030 S   0  0  0  0  0  0  0  0  0  0  0  0
  186.0880  178.2690  144.5540 C   0  0  0  0  0  0  0  0  0  0  0  0
  185.9530  178.3110  145.9400 C   0  0  0  0  0  3  0  0  0  0  0  0
  184.7090  178.6430  146.3830 N   0  0  0  0  0  0  0  0  0  0  0  0
  188.3190  177.4690  140.2540 O   0  0  0  0  0  0  0  0  0  0  0  0
  188.9970  178.4050  139.4260 C   0  0  0  0  0  2  0  0  0  0  0  0
  189.8750  177.6850  138.4580 C   0  0  0  0  0  3  0  0  0  0  0  0
  190.5040  176.5690  138.8170 C   0  0  0  0  0  3  0  0  0  0  0  0
  192.7170  176.1280  138.1380 O   0  0  0  0  0  1  0  0  0  0  0  0
  191.1680  174.4710  137.9510 O   0  0  0  0  0  1  0  0  0  0  0  0
  191.3830  175.8460  137.8510 C   0  0  0  0  0  3  0  0  0  0  0  0
  1  7  2  0  0  0  0
  2  8  1  0  0  0  0
  2  6  1  0  0  0  0
  3  6  1  0  0  0  0
  4  9  1  0  0  0  0
  6  5  2  0  0  0  0
  7 11  1  0  0  0  0
  7 16  1  0  0  0  0
  8 13  2  0  0  0  0
  9 10  2  0  0  0  0
  9 11  1  0  0  0  0
 10  2  1  0  0  0  0
 11  3  2  0  0  0  0
 12  4  2  0  0  0  0
 12  1  1  0  0  0  0
 13  5  1  0  0  0  0
 14 18  2  0  0  0  0
 15 16  1  0  0  0  0
 15 14  1  0  0  0  0
 16 17  2  0  0  0  0
 17 18  1  0  0  0  0
 19 12  1  0  0  0  0
 20 19  1  0  0  0  0
 21 22  2  0  0  0  0
 21 20  1  0  0  0  0
 25 24  1  0  0  0  0
 25 23  1  0  0  0  0
 25 22  1  0  0  0  0
M  END
>  <MODEL>
4

>  <REMARK>
 VINA RESULT:      -8.4      3.570      7.378
  Name = 
  5 active torsions:
  status: ('A' for Active; 'I' for Inactive)
    1  A    between atoms: C_3  and  C_13
    2  A    between atoms: C_10  and  C_23
    3  A    between atoms: C_11  and  C_18
    4  A    between atoms: C_13  and  O_22
    5  A    between atoms: O_22  and  C_24
                            x       y       z     vdW  Elec       q    Type
                         _______ _______ _______ _____ _____    ______ ____

>  <TORSDO>
F 5

$$$$
=
 OpenBabel10222418073D

 25 28  0  0  0  0  0  0  0  0999 V2000
  189.8810  177.1420  142.9590 C   0  0  0  0  0  3  0  0  0  0  0  0
  185.2680  178.4550  144.2790 N   0  0  0  0  0  0  0  0  0  0  0  0
  187.2490  177.9430  145.4870 C   0  0  0  0  0  3  0  0  0  0  0  0
  187.8220  177.6750  141.8170 C   0  0  0  0  0  3  0  0  0  0  0  0
  185.0300  178.6050  146.4560 C   0  0  0  0  0  3  0  0  0  0  0  0
  185.9120  178.3170  145.4380 C   0  0  0  0  0  0  0  0  0  0  0  0
  189.2820  177.3230  144.2150 C   0  0  0  0  0  0  0  0  0  0  0  0
  184.0250  178.8150  144.5290 N   0  0  0  0  0  0  0  0  0  0  0  0
  187.1910  177.8740  143.0420 C   0  0  0  0  0  0  0  0  0  0  0  0
  185.8410  178.2540  143.0700 C   0  0  0  0  0  3  0  0  0  0  0  0
  187.9140  177.7050  144.2660 C   0  0  0  0  0  0  0  0  0  0  0  0
  189.1660  177.3110  141.7660 C   0  0  0  0  0  0  0  0  0  0  0  0
  183.8570  178.9120  145.8430 N   0  0  0  0  0  0  0  0  0  0  0  0
  191.1920  176.7330  147.6320 C   0  0  0  0  0  3  0  0  0  0  0  0
  189.6740  177.1280  147.0350 S   0  0  0  0  0  0  0  0  0  0  0  0
  190.1340  177.1050  145.4150 C   0  0  0  0  0  0  0  0  0  0  0  0
  191.4850  176.7680  145.3820 C   0  0  0  0  0  3  0  0  0  0  0  0
  192.0550  176.5720  146.6030 N   0  0  0  0  0  0  0  0  0  0  0  0
  189.7680  177.1250  140.5190 O   0  0  0  0  0  0  0  0  0  0  0  0
  191.1760  177.1870  140.3290 C   0  0  0  0  0  2  0  0  0  0  0  0
  191.5320  176.6560  138.9810 C   0  0  0  0  0  3  0  0  0  0  0  0
  192.8060  176.5160  138.6240 C   0  0  0  0  0  3  0  0  0  0  0  0
  192.0450  176.0340  136.4460 O   0  0  0  0  0  1  0  0  0  0  0  0
  194.1870  176.7530  136.7190 O   0  0  0  0  0  1  0  0  0  0  0  0
  193.1640  175.9850  137.2750 C   0  0  0  0  0  3  0  0  0  0  0  0
  1  7  2  0  0  0  0
  2  8  1  0  0  0  0
  2  6  1  0  0  0  0
  4  9  1  0  0  0  0
  6  3  1  0  0  0  0
  6  5  2  0  0  0  0
  7 11  1  0  0  0  0
  7 16  1  0  0  0  0
  8 13  2  0  0  0  0
  9 10  2  0  0  0  0
  9 11  1  0  0  0  0
 10  2  1  0  0  0  0
 11  3  2  0  0  0  0
 12  4  2  0  0  0  0
 12  1  1  0  0  0  0
 13  5  1  0  0  0  0
 15 14  1  0  0  0  0
 16 15  1  0  0  0  0
 17 16  2  0  0  0  0
 17 18  1  0  0  0  0
 18 14  2  0  0  0  0
 19 12  1  0  0  0  0
 20 19  1  0  0  0  0
 21 20  1  0  0  0  0
 22 21  2  0  0  0  0
 23 25  1  0  0  0  0
 24 25  1  0  0  0  0
 25 22  1  0  0  0  0
M  END
>  <MODEL>
5

>  <REMARK>
 VINA RESULT:      -8.3      3.732      6.089
  Name = 
  5 active torsions:
  status: ('A' for Active; 'I' for Inactive)
    1  A    between atoms: C_3  and  C_13
    2  A    between atoms: C_10  and  C_23
    3  A    between atoms: C_11  and  C_18
    4  A    between atoms: C_13  and  O_22
    5  A    between atoms: O_22  and  C_24
                            x       y       z     vdW  Elec       q    Type
                         _______ _______ _______ _____ _____    ______ ____

>  <TORSDO>
F 5

$$$$
=
 OpenBabel10222418073D

 25 28  0  0  0  0  0  0  0  0999 V2000
  188.7930  177.8440  141.3660 C   0  0  0  0  0  3  0  0  0  0  0  0
  185.0430  178.6760  144.5280 N   0  0  0  0  0  0  0  0  0  0  0  0
  187.2490  177.8260  144.7680 C   0  0  0  0  0  3  0  0  0  0  0  0
  186.5380  178.6950  141.2170 C   0  0  0  0  0  3  0  0  0  0  0  0
  185.5600  178.1520  146.5960 C   0  0  0  0  0  3  0  0  0  0  0  0
  186.0190  178.1930  145.2980 C   0  0  0  0  0  0  0  0  0  0  0  0
  188.6680  177.6310  142.7470 C   0  0  0  0  0  0  0  0  0  0  0  0
  183.9990  178.9380  145.2870 N   0  0  0  0  0  0  0  0  0  0  0  0
  186.3750  178.5070  142.5880 C   0  0  0  0  0  0  0  0  0  0  0  0
  185.1580  178.8560  143.1920 C   0  0  0  0  0  3  0  0  0  0  0  0
  187.4420  177.9750  143.3790 C   0  0  0  0  0  0  0  0  0  0  0  0
  187.7430  178.3680  140.5990 C   0  0  0  0  0  0  0  0  0  0  0  0
  184.2880  178.6280  146.5460 N   0  0  0  0  0  0  0  0  0  0  0  0
  191.7080  176.3780  144.9520 C   0  0  0  0  0  3  0  0  0  0  0  0
  190.5760  177.6150  144.8690 S   0  0  0  0  0  0  0  0  0  0  0  0
  189.8430  177.0590  143.4580 C   0  0  0  0  0  0  0  0  0  0  0  0
  190.5060  175.8910  143.0890 C   0  0  0  0  0  3  0  0  0  0  0  0
  191.5300  175.5310  143.9120 N   0  0  0  0  0  0  0  0  0  0  0  0
  187.8740  178.5740  139.2230 O   0  0  0  0  0  0  0  0  0  0  0  0
  187.4220  177.6300  138.2590 C   0  0  0  0  0  2  0  0  0  0  0  0
  188.5120  176.6610  137.9470 C   0  0  0  0  0  3  0  0  0  0  0  0
  189.7620  177.0830  137.7720 C   0  0  0  0  0  3  0  0  0  0  0  0
  192.0860  176.6920  137.7660 O   0  0  0  0  0  1  0  0  0  0  0  0
  190.6890  174.9530  138.2140 O   0  0  0  0  0  1  0  0  0  0  0  0
  190.8550  176.1150  137.4600 C   0  0  0  0  0  3  0  0  0  0  0  0
  1  7  2  0  0  0  0
  2  8  1  0  0  0  0
  2  6  1  0  0  0  0
  3  6  1  0  0  0  0
  4  9  1  0  0  0  0
  6  5  2  0  0  0  0
  7 11  1  0  0  0  0
  7 16  1  0  0  0  0
  8 13  2  0  0  0  0
  9 10  2  0  0  0  0
  9 11  1  0  0  0  0
 10  2  1  0  0  0  0
 11  3  2  0  0  0  0
 12  4  2  0  0  0  0
 12  1  1  0  0  0  0
 13  5  1  0  0  0  0
 15 14  1  0  0  0  0
 16 15  1  0  0  0  0
 17 16  2  0  0  0  0
 17 18  1  0  0  0  0
 18 14  2  0  0  0  0
 19 12  1  0  0  0  0
 20 19  1  0  0  0  0
 21 20  1  0  0  0  0
 22 21  2  0  0  0  0
 25 23  1  0  0  0  0
 25 22  1  0  0  0  0
 25 24  1  0  0  0  0
M  END
>  <MODEL>
6

>  <REMARK>
 VINA RESULT:      -8.2      3.694      5.894
  Name = 
  5 active torsions:
  status: ('A' for Active; 'I' for Inactive)
    1  A    between atoms: C_3  and  C_13
    2  A    between atoms: C_10  and  C_23
    3  A    between atoms: C_11  and  C_18
    4  A    between atoms: C_13  and  O_22
    5  A    between atoms: O_22  and  C_24
                            x       y       z     vdW  Elec       q    Type
                         _______ _______ _______ _____ _____    ______ ____

>  <TORSDO>
F 5

$$$$
=
 OpenBabel10222418073D

 25 28  0  0  0  0  0  0  0  0999 V2000
  186.0310  177.9660  142.7550 C   0  0  0  0  0  3  0  0  0  0  0  0
  187.5250  178.1490  147.4970 N   0  0  0  0  0  0  0  0  0  0  0  0
  188.5940  177.5960  145.4490 C   0  0  0  0  0  3  0  0  0  0  0  0
  185.0280  178.5090  144.8830 C   0  0  0  0  0  3  0  0  0  0  0  0
  189.6410  177.6140  147.7300 C   0  0  0  0  0  3  0  0  0  0  0  0
  188.6130  177.7710  146.8270 C   0  0  0  0  0  0  0  0  0  0  0  0
  187.2650  177.6800  143.3610 C   0  0  0  0  0  0  0  0  0  0  0  0
  187.8280  178.2360  148.7760 N   0  0  0  0  0  0  0  0  0  0  0  0
  186.2370  178.2440  145.5230 C   0  0  0  0  0  0  0  0  0  0  0  0
  186.3300  178.3990  146.9140 C   0  0  0  0  0  3  0  0  0  0  0  0
  187.3800  177.8280  144.7690 C   0  0  0  0  0  0  0  0  0  0  0  0
  184.9180  178.3740  143.5010 C   0  0  0  0  0  0  0  0  0  0  0  0
  189.1070  177.9150  148.9430 N   0  0  0  0  0  0  0  0  0  0  0  0
  190.1430  176.8630  140.7670 C   0  0  0  0  0  3  0  0  0  0  0  0
  188.8250  177.8820  140.9790 S   0  0  0  0  0  0  0  0  0  0  0  0
  188.3750  177.2430  142.4720 C   0  0  0  0  0  0  0  0  0  0  0  0
  189.2930  176.2410  142.7780 C   0  0  0  0  0  3  0  0  0  0  0  0
  190.2540  176.0390  141.8330 N   0  0  0  0  0  0  0  0  0  0  0  0
  183.6910  178.6540  142.8910 O   0  0  0  0  0  0  0  0  0  0  0  0
  183.4640  178.4640  141.5000 C   0  0  0  0  0  2  0  0  0  0  0  0
  182.0030  178.5370  141.2090 C   0  0  0  0  0  3  0  0  0  0  0  0
  181.1150  178.5280  142.2010 C   0  0  0  0  0  3  0  0  0  0  0  0
  179.2820  177.5200  141.1150 O   0  0  0  0  0  1  0  0  0  0  0  0
  178.9310  178.5650  143.1060 O   0  0  0  0  0  1  0  0  0  0  0  0
  179.6520  178.6020  141.9130 C   0  0  0  0  0  3  0  0  0  0  0  0
  1  7  2  0  0  0  0
  1 12  1  0  0  0  0
  2  8  1  0  0  0  0
  3  6  1  0  0  0  0
  4  9  1  0  0  0  0
  5 13  1  0  0  0  0
  6  2  1  0  0  0  0
  6  5  2  0  0  0  0
  7 11  1  0  0  0  0
  8 13  2  0  0  0  0
  9 10  2  0  0  0  0
 10  2  1  0  0  0  0
 11  3  2  0  0  0  0
 11  9  1  0  0  0  0
 12  4  2  0  0  0  0
 14 15  1  0  0  0  0
 14 18  2  0  0  0  0
 15 16  1  0  0  0  0
 16 17  2  0  0  0  0
 16  7  1  0  0  0  0
 18 17  1  0  0  0  0
 19 12  1  0  0  0  0
 20 19  1  0  0  0  0
 21 20  1  0  0  0  0
 21 22  2  0  0  0  0
 23 25  1  0  0  0  0
 25 22  1  0  0  0  0
 25 24  1  0  0  0  0
M  END
>  <MODEL>
7

>  <REMARK>
 VINA RESULT:      -8.2      4.002      7.185
  Name = 
  5 active torsions:
  status: ('A' for Active; 'I' for Inactive)
    1  A    between atoms: C_3  and  C_13
    2  A    between atoms: C_10  and  C_23
    3  A    between atoms: C_11  and  C_18
    4  A    between atoms: C_13  and  O_22
    5  A    between atoms: O_22  and  C_24
                            x       y       z     vdW  Elec       q    Type
                         _______ _______ _______ _____ _____    ______ ____

>  <TORSDO>
F 5

$$$$
=
 OpenBabel10222418073D

 25 28  0  0  0  0  0  0  0  0999 V2000
  186.7230  177.7790  142.8430 C   0  0  0  0  0  3  0  0  0  0  0  0
  189.7420  177.1330  146.7440 N   0  0  0  0  0  0  0  0  0  0  0  0
  190.0630  177.1360  144.3900 C   0  0  0  0  0  3  0  0  0  0  0  0
  186.4920  177.7560  145.2460 C   0  0  0  0  0  3  0  0  0  0  0  0
  191.8260  176.7930  146.1440 C   0  0  0  0  0  3  0  0  0  0  0  0
  190.5470  177.0210  145.6870 C   0  0  0  0  0  0  0  0  0  0  0  0
  188.0980  177.5090  142.9300 C   0  0  0  0  0  0  0  0  0  0  0  0
  190.4610  176.9840  147.8380 N   0  0  0  0  0  0  0  0  0  0  0  0
  187.8540  177.4960  145.3770 C   0  0  0  0  0  0  0  0  0  0  0  0
  188.4130  177.3680  146.6570 C   0  0  0  0  0  3  0  0  0  0  0  0
  188.6830  177.3720  144.2170 C   0  0  0  0  0  0  0  0  0  0  0  0
  185.9200  177.9010  143.9840 C   0  0  0  0  0  0  0  0  0  0  0  0
  191.7290  176.7750  147.4990 N   0  0  0  0  0  0  0  0  0  0  0  0
  189.8740  177.5170  139.3910 C   0  0  0  0  0  3  0  0  0  0  0  0
  188.5600  178.1840  140.1950 S   0  0  0  0  0  0  0  0  0  0  0  0
  188.8510  177.3890  141.6520 C   0  0  0  0  0  0  0  0  0  0  0  0
  189.9980  176.6200  141.4720 C   0  0  0  0  0  3  0  0  0  0  0  0
  190.5470  176.6940  140.2270 N   0  0  0  0  0  0  0  0  0  0  0  0
  184.5510  178.1670  143.8900 O   0  0  0  0  0  0  0  0  0  0  0  0
  184.0180  179.1510  143.0120 C   0  0  0  0  0  2  0  0  0  0  0  0
  183.8620  178.5800  141.6430 C   0  0  0  0  0  3  0  0  0  0  0  0
  184.5360  179.0930  140.6160 C   0  0  0  0  0  3  0  0  0  0  0  0
  183.1640  178.9330  138.7070 O   0  0  0  0  0  1  0  0  0  0  0  0
  185.4220  178.9660  138.4280 O   0  0  0  0  0  1  0  0  0  0  0  0
  184.3820  178.5230  139.2450 C   0  0  0  0  0  3  0  0  0  0  0  0
  1  7  2  0  0  0  0
  1 12  1  0  0  0  0
  2  8  1  0  0  0  0
  3  6  1  0  0  0  0
  4  9  1  0  0  0  0
  5 13  1  0  0  0  0
  6  5  2  0  0  0  0
  6  2  1  0  0  0  0
  7 11  1  0  0  0  0
  9 10  2  0  0  0  0
 10  2  1  0  0  0  0
 11  3  2  0  0  0  0
 11  9  1  0  0  0  0
 12  4  2  0  0  0  0
 13  8  2  0  0  0  0
 14 15  1  0  0  0  0
 14 18  2  0  0  0  0
 15 16  1  0  0  0  0
 16  7  1  0  0  0  0
 17 16  2  0  0  0  0
 18 17  1  0  0  0  0
 19 12  1  0  0  0  0
 20 19  1  0  0  0  0
 21 20  1  0  0  0  0
 22 21  2  0  0  0  0
 23 25  1  0  0  0  0
 24 25  1  0  0  0  0
 25 22  1  0  0  0  0
M  END
>  <MODEL>
8

>  <REMARK>
 VINA RESULT:      -8.1      4.114      6.901
  Name = 
  5 active torsions:
  status: ('A' for Active; 'I' for Inactive)
    1  A    between atoms: C_3  and  C_13
    2  A    between atoms: C_10  and  C_23
    3  A    between atoms: C_11  and  C_18
    4  A    between atoms: C_13  and  O_22
    5  A    between atoms: O_22  and  C_24
                            x       y       z     vdW  Elec       q    Type
                         _______ _______ _______ _____ _____    ______ ____

>  <TORSDO>
F 5

$$$$
=
 OpenBabel10222418073D

 25 28  0  0  0  0  0  0  0  0999 V2000
  186.0870  177.9130  142.4910 C   0  0  0  0  0  3  0  0  0  0  0  0
  187.2430  178.1690  147.3230 N   0  0  0  0  0  0  0  0  0  0  0  0
  188.4540  177.5870  145.3630 C   0  0  0  0  0  3  0  0  0  0  0  0
  184.9360  178.4860  144.5340 C   0  0  0  0  0  3  0  0  0  0  0  0
  189.3370  177.6400  147.7120 C   0  0  0  0  0  3  0  0  0  0  0  0
  188.3760  177.7820  146.7370 C   0  0  0  0  0  0  0  0  0  0  0  0
  187.2750  177.6380  143.1860 C   0  0  0  0  0  0  0  0  0  0  0  0
  187.4540  178.2750  148.6190 N   0  0  0  0  0  0  0  0  0  0  0  0
  186.0970  178.2330  145.2610 C   0  0  0  0  0  0  0  0  0  0  0  0
  186.0920  178.4080  146.6530 C   0  0  0  0  0  3  0  0  0  0  0  0
  187.2900  177.8070  144.5960 C   0  0  0  0  0  0  0  0  0  0  0  0
  184.9240  178.3310  143.1500 C   0  0  0  0  0  0  0  0  0  0  0  0
  188.7180  177.9580  148.8800 N   0  0  0  0  0  0  0  0  0  0  0  0
  190.3210  176.7790  140.8060 C   0  0  0  0  0  3  0  0  0  0  0  0
  188.9750  177.7790  140.8980 S   0  0  0  0  0  0  0  0  0  0  0  0
  188.4450  177.1890  142.3840 C   0  0  0  0  0  0  0  0  0  0  0  0
  189.3600  176.2180  142.7840 C   0  0  0  0  0  3  0  0  0  0  0  0
  190.3800  175.9980  141.9090 N   0  0  0  0  0  0  0  0  0  0  0  0
  183.7430  178.6000  142.4510 O   0  0  0  0  0  0  0  0  0  0  0  0
  183.5130  178.1370  141.1260 C   0  0  0  0  0  2  0  0  0  0  0  0
  182.5730  179.0570  140.4230 C   0  0  0  0  0  3  0  0  0  0  0  0
  182.7620  179.3680  139.1420 C   0  0  0  0  0  3  0  0  0  0  0  0
  181.4570  179.7290  137.2130 O   0  0  0  0  0  1  0  0  0  0  0  0
  180.6820  180.4900  139.2130 O   0  0  0  0  0  1  0  0  0  0  0  0
  181.8230  180.2890  138.4360 C   0  0  0  0  0  3  0  0  0  0  0  0
  1 12  1  0  0  0  0
  1  7  2  0  0  0  0
  2  8  1  0  0  0  0
  3  6  1  0  0  0  0
  4  9  1  0  0  0  0
  5 13  1  0  0  0  0
  6  2  1  0  0  0  0
  6  5  2  0  0  0  0
  7 11  1  0  0  0  0
  8 13  2  0  0  0  0
  9 10  2  0  0  0  0
 10  2  1  0  0  0  0
 11  9  1  0  0  0  0
 11  3  2  0  0  0  0
 12  4  2  0  0  0  0
 14 15  1  0  0  0  0
 14 18  2  0  0  0  0
 15 16  1  0  0  0  0
 16 17  2  0  0  0  0
 16  7  1  0  0  0  0
 18 17  1  0  0  0  0
 19 12  1  0  0  0  0
 20 19  1  0  0  0  0
 21 20  1  0  0  0  0
 22 21  2  0  0  0  0
 23 25  1  0  0  0  0
 25 22  1  0  0  0  0
 25 24  1  0  0  0  0
M  END
>  <MODEL>
9

>  <REMARK>
 VINA RESULT:      -7.8      4.350      7.304
  Name = 
  5 active torsions:
  status: ('A' for Active; 'I' for Inactive)
    1  A    between atoms: C_3  and  C_13
    2  A    between atoms: C_10  and  C_23
    3  A    between atoms: C_11  and  C_18
    4  A    between atoms: C_13  and  O_22
    5  A    between atoms: O_22  and  C_24
                            x       y       z     vdW  Elec       q    Type
                         _______ _______ _______ _____ _____    ______ ____

>  <TORSDO>
F 5

$$$$
