=
 OpenBabel10222416253D

 38 42  0  0  1  0  0  0  0  0999 V2000
  186.8320  177.0720  145.8470 C   0  0  0  0  0  1  0  0  0  0  0  0
  184.9060  178.1510  141.9040 N   0  0  1  0  0  0  0  0  0  0  0  0
  186.7510  177.9720  144.6230 C   0  0  2  0  0  3  0  0  0  0  0  0
  185.2860  178.1890  144.3080 C   0  0  0  0  0  2  0  0  0  0  0  0
  186.0580  179.0580  141.9930 C   0  0  1  0  0  3  0  0  0  0  0  0
  187.4160  177.3260  143.4110 C   0  0  1  0  0  3  0  0  0  0  0  0
  185.0430  179.0520  143.0680 C   0  0  1  0  0  3  0  0  0  0  0  0
  187.3720  178.2800  142.2140 C   0  0  1  0  0  3  0  0  0  0  0  0
  183.9660  178.7610  140.9740 C   0  0  2  0  0  3  0  0  0  0  0  0
  183.3040  177.3120  139.2780 C   0  0  1  0  0  0  0  0  0  0  0  0
  182.8760  177.7790  140.6320 C   0  0  0  0  0  2  0  0  0  0  0  0
  184.4590  177.9220  138.7790 O   0  0  0  0  0  0  0  0  0  0  0  0
  182.7560  176.0870  138.6460 C   0  0  1  0  0  3  0  0  0  0  0  0
  184.6720  179.0130  139.6440 C   0  0  0  0  0  2  0  0  0  0  0  0
  182.2540  177.3730  138.3470 O   0  0  0  0  0  0  0  0  0  0  0  0
  183.6270  175.6010  137.4950 C   0  0  0  0  0  2  0  0  0  0  0  0
  184.8110  173.4130  137.7140 C   0  0  0  0  0  1  0  0  0  0  0  0
  183.5090  174.0950  137.3330 C   0  0  0  0  0  2  0  0  0  0  0  0
  188.8370  176.9170  143.6820 C   0  0  0  0  0  0  0  0  0  0  0  0
  189.5290  176.0660  142.8050 C   0  0  0  0  0  3  0  0  0  0  0  0
  190.7790  176.9910  145.1400 C   0  0  0  0  0  0  0  0  0  0  0  0
  189.4640  177.3720  144.8460 C   0  0  0  0  0  3  0  0  0  0  0  0
  190.8420  175.6830  143.0910 C   0  0  0  0  0  3  0  0  0  0  0  0
  191.4640  176.1430  144.2540 C   0  0  0  0  0  3  0  0  0  0  0  0
  191.3850  176.7130  147.5210 C   0  0  0  0  0  1  0  0  0  0  0  0
  191.3760  177.4610  146.3140 O   0  0  0  0  0  0  0  0  0  0  0  0
  187.7260  177.6040  141.0410 O   0  0  0  0  0  0  0  0  0  0  0  0
  188.4530  178.5360  140.2970 C   0  0  0  0  0  2  0  0  0  0  0  0
  187.6560  177.3600  138.3890 O   0  0  0  0  0  1  0  0  0  0  0  0
  188.7930  177.9470  138.9400 C   0  0  2  0  0  3  0  0  0  0  0  0
  189.8930  176.9060  139.0740 C   0  0  0  0  0  2  0  0  0  0  0  0
  189.7760  175.8420  137.9890 C   0  0  0  0  0  2  0  0  0  0  0  0
  191.4310  174.1590  137.7130 O   0  0  0  0  0  0  0  0  0  0  0  0
  191.1250  175.3720  137.5610 C   0  0  0  0  0  0  0  0  0  0  0  0
  192.0460  176.2980  137.0530 O   0  0  0  0  0  0  0  0  0  0  0  0
  193.5340  176.9160  138.8760 O   0  0  0  0  0  1  0  0  0  0  0  0
  193.3320  176.5000  137.5640 C   0  0  0  0  0  0  0  0  0  0  0  0
  194.3290  176.2960  136.8210 O   0  0  0  0  0  0  0  0  0  0  0  0
  2  9  1  6  0  0  0
  2  5  1  0  0  0  0
  2  7  1  0  0  0  0
  3  1  1  1  0  0  0
  4  3  1  0  0  0  0
  5  8  1  0  0  0  0
  5  7  1  0  0  0  0
  6 19  1  0  0  0  0
  6  3  1  0  0  0  0
  7  4  1  0  0  0  0
  8  6  1  0  0  0  0
 10 11  1  0  0  0  0
 11  9  1  0  0  0  0
 12 10  1  0  0  0  0
 12 14  1  0  0  0  0
 13 10  1  0  0  0  0
 14  9  1  0  0  0  0
 15 13  1  0  0  0  0
 15 10  1  0  0  0  0
 16 13  1  0  0  0  0
 18 16  1  0  0  0  0
 18 17  1  0  0  0  0
 19 22  1  0  0  0  0
 20 23  1  0  0  0  0
 20 19  2  0  0  0  0
 21 26  1  0  0  0  0
 22 21  2  0  0  0  0
 23 24  2  0  0  0  0
 24 21  1  0  0  0  0
 26 25  1  0  0  0  0
 27  8  1  0  0  0  0
 28 27  1  0  0  0  0
 29 30  1  0  0  0  0
 30 31  1  0  0  0  0
 30 28  1  0  0  0  0
 32 31  1  0  0  0  0
 34 33  2  0  0  0  0
 34 32  1  0  0  0  0
 35 34  1  0  0  0  0
 35 37  1  0  0  0  0
 37 36  1  0  0  0  0
 38 37  2  0  0  0  0
M  END
>  <MODEL>
1

>  <REMARK>
 VINA RESULT:      -7.9      0.000      0.000
  Name = 
  13 active torsions:
  status: ('A' for Active; 'I' for Inactive)
    1  A    between atoms: C_1  and  C_18
    2  A    between atoms: C_1  and  C_30
    3  A    between atoms: C_4  and  N_7
    4  A    between atoms: O_5  and  C_22
    5  A    between atoms: O_5  and  C_33
    6  A    between atoms: C_8  and  O_23
    7  A    between atoms: C_8  and  C_32
    8  A    between atoms: C_11  and  C_15
    9  A    between atoms: C_16  and  O_37
   10  A    between atoms: O_23  and  C_34
   11  A    between atoms: C_27  and  C_31
   12  A    between atoms: C_27  and  C_32
   13  A    between atoms: C_31  and  C_33
                            x       y       z     vdW  Elec       q    Type
                         _______ _______ _______ _____ _____    ______ ____

>  <TORSDO>
F 13

$$$$
=
 OpenBabel10222416253D

 38 42  0  0  1  0  0  0  0  0999 V2000
  185.3240  177.8970  146.3040 C   0  0  0  0  0  1  0  0  0  0  0  0
  184.1860  178.2820  141.9470 N   0  0  1  0  0  0  0  0  0  0  0  0
  185.4690  178.5990  144.9620 C   0  0  2  0  0  3  0  0  0  0  0  0
  184.0900  178.6980  144.3430 C   0  0  0  0  0  2  0  0  0  0  0  0
  185.2840  179.2450  142.1110 C   0  0  1  0  0  3  0  0  0  0  0  0
  186.3680  177.8090  144.0130 C   0  0  1  0  0  3  0  0  0  0  0  0
  184.0790  179.3530  142.9610 C   0  0  1  0  0  3  0  0  0  0  0  0
  186.5430  178.5700  142.6960 C   0  0  1  0  0  3  0  0  0  0  0  0
  183.4350  178.7020  140.7720 C   0  0  2  0  0  3  0  0  0  0  0  0
  183.3650  177.0700  139.1150 C   0  0  1  0  0  0  0  0  0  0  0  0
  182.5750  177.5660  140.2830 C   0  0  0  0  0  2  0  0  0  0  0  0
  184.5310  177.7900  138.8400 O   0  0  0  0  0  0  0  0  0  0  0  0
  183.1240  175.7440  138.4940 C   0  0  1  0  0  3  0  0  0  0  0  0
  184.4080  178.9540  139.6230 C   0  0  0  0  0  2  0  0  0  0  0  0
  182.5690  176.9310  137.9660 O   0  0  0  0  0  0  0  0  0  0  0  0
  184.2930  175.3000  137.6260 C   0  0  0  0  0  2  0  0  0  0  0  0
  185.0710  172.9310  137.7830 C   0  0  0  0  0  1  0  0  0  0  0  0
  184.0820  173.8810  137.1280 C   0  0  0  0  0  2  0  0  0  0  0  0
  187.7150  177.5120  144.6100 C   0  0  0  0  0  0  0  0  0  0  0  0
  188.7240  176.8910  143.8550 C   0  0  0  0  0  3  0  0  0  0  0  0
  189.1870  177.5480  146.5430 C   0  0  0  0  0  0  0  0  0  0  0  0
  187.9510  177.8340  145.9510 C   0  0  0  0  0  3  0  0  0  0  0  0
  189.9600  176.6050  144.4390 C   0  0  0  0  0  3  0  0  0  0  0  0
  190.1910  176.9320  145.7780 C   0  0  0  0  0  3  0  0  0  0  0  0
  188.3140  178.1150  148.7860 C   0  0  0  0  0  1  0  0  0  0  0  0
  189.3880  177.8800  147.8860 O   0  0  0  0  0  0  0  0  0  0  0  0
  187.1290  177.7430  141.7320 O   0  0  0  0  0  0  0  0  0  0  0  0
  187.9050  178.6000  140.9490 C   0  0  0  0  0  2  0  0  0  0  0  0
  189.9130  177.3830  140.5700 O   0  0  0  0  0  1  0  0  0  0  0  0
  188.7240  177.7860  139.9650 C   0  0  2  0  0  3  0  0  0  0  0  0
  189.0350  178.6090  138.7240 C   0  0  0  0  0  2  0  0  0  0  0  0
  188.1850  178.1600  137.5420 C   0  0  0  0  0  2  0  0  0  0  0  0
  189.4170  177.5450  135.6060 O   0  0  0  0  0  0  0  0  0  0  0  0
  188.9230  177.1720  136.7030 C   0  0  0  0  0  0  0  0  0  0  0  0
  189.0030  175.8380  137.1230 O   0  0  0  0  0  0  0  0  0  0  0  0
  190.2930  173.8200  137.5510 O   0  0  0  0  0  0  0  0  0  0  0  0
  190.1780  175.2070  137.5440 C   0  0  0  0  0  0  0  0  0  0  0  0
  191.1540  175.9080  137.9190 O   0  0  0  0  0  1  0  0  0  0  0  0
  2  9  1  6  0  0  0
  2  5  1  0  0  0  0
  2  7  1  0  0  0  0
  3  1  1  1  0  0  0
  4  3  1  0  0  0  0
  5  8  1  0  0  0  0
  5  7  1  0  0  0  0
  6 19  1  0  0  0  0
  6  3  1  0  0  0  0
  7  4  1  0  0  0  0
  8  6  1  0  0  0  0
 10 11  1  0  0  0  0
 11  9  1  0  0  0  0
 12 10  1  0  0  0  0
 12 14  1  0  0  0  0
 13 10  1  0  0  0  0
 14  9  1  0  0  0  0
 15 13  1  0  0  0  0
 15 10  1  0  0  0  0
 16 13  1  0  0  0  0
 18 16  1  0  0  0  0
 18 17  1  0  0  0  0
 19 22  1  0  0  0  0
 20 23  1  0  0  0  0
 20 19  2  0  0  0  0
 21 26  1  0  0  0  0
 22 21  2  0  0  0  0
 23 24  2  0  0  0  0
 24 21  1  0  0  0  0
 26 25  1  0  0  0  0
 27  8  1  0  0  0  0
 28 27  1  0  0  0  0
 30 29  1  0  0  0  0
 30 28  1  0  0  0  0
 31 30  1  0  0  0  0
 32 31  1  0  0  0  0
 33 34  2  0  0  0  0
 34 35  1  0  0  0  0
 34 32  1  0  0  0  0
 35 37  1  0  0  0  0
 37 36  2  0  0  0  0
 37 38  1  0  0  0  0
M  END
>  <MODEL>
2

>  <REMARK>
 VINA RESULT:      -7.7      1.434      2.073
  Name = 
  13 active torsions:
  status: ('A' for Active; 'I' for Inactive)
    1  A    between atoms: C_1  and  C_18
    2  A    between atoms: C_1  and  C_30
    3  A    between atoms: C_4  and  N_7
    4  A    between atoms: O_5  and  C_22
    5  A    between atoms: O_5  and  C_33
    6  A    between atoms: C_8  and  O_23
    7  A    between atoms: C_8  and  C_32
    8  A    between atoms: C_11  and  C_15
    9  A    between atoms: C_16  and  O_37
   10  A    between atoms: O_23  and  C_34
   11  A    between atoms: C_27  and  C_31
   12  A    between atoms: C_27  and  C_32
   13  A    between atoms: C_31  and  C_33
                            x       y       z     vdW  Elec       q    Type
                         _______ _______ _______ _____ _____    ______ ____

>  <TORSDO>
F 13

$$$$
=
 OpenBabel10222416253D

 38 42  0  0  1  0  0  0  0  0999 V2000
  190.6800  176.1060  137.0020 C   0  0  0  0  0  1  0  0  0  0  0  0
  190.9170  176.7120  141.4740 N   0  0  1  0  0  0  0  0  0  0  0  0
  190.5780  177.0190  138.2140 C   0  0  2  0  0  3  0  0  0  0  0  0
  191.6930  176.6440  139.1680 C   0  0  0  0  0  2  0  0  0  0  0  0
  190.4180  177.9990  140.9690 C   0  0  1  0  0  3  0  0  0  0  0  0
  189.2450  176.8400  138.9360 C   0  0  1  0  0  3  0  0  0  0  0  0
  191.6970  177.4580  140.4630 C   0  0  1  0  0  3  0  0  0  0  0  0
  189.1470  177.8140  140.1140 C   0  0  1  0  0  3  0  0  0  0  0  0
  191.5070  176.9760  142.7790 C   0  0  2  0  0  3  0  0  0  0  0  0
  189.9150  177.2060  144.4600 C   0  0  1  0  0  0  0  0  0  0  0  0
  190.7940  176.1710  143.8330 C   0  0  0  0  0  2  0  0  0  0  0  0
  190.0580  178.4970  143.9420 O   0  0  0  0  0  0  0  0  0  0  0  0
  188.7610  176.8560  145.3240 C   0  0  1  0  0  3  0  0  0  0  0  0
  191.2310  178.4270  143.1660 C   0  0  0  0  0  2  0  0  0  0  0  0
  190.0200  177.2040  145.8610 O   0  0  0  0  0  0  0  0  0  0  0  0
  187.7970  178.0230  145.4890 C   0  0  0  0  0  2  0  0  0  0  0  0
  185.9340  178.7340  146.9930 C   0  0  0  0  0  1  0  0  0  0  0  0
  186.5380  177.5790  146.2130 C   0  0  0  0  0  2  0  0  0  0  0  0
  188.0650  177.0270  138.0240 C   0  0  0  0  0  0  0  0  0  0  0  0
  187.6830  178.3040  137.5820 C   0  0  0  0  0  3  0  0  0  0  0  0
  186.2030  176.0510  136.8060 C   0  0  0  0  0  0  0  0  0  0  0  0
  187.3210  175.9080  137.6360 C   0  0  0  0  0  3  0  0  0  0  0  0
  186.5690  178.4540  136.7520 C   0  0  0  0  0  3  0  0  0  0  0  0
  185.8310  177.3320  136.3660 C   0  0  0  0  0  3  0  0  0  0  0  0
  184.7960  174.1010  137.3870 C   0  0  0  0  0  1  0  0  0  0  0  0
  185.4790  174.9120  136.4410 O   0  0  0  0  0  0  0  0  0  0  0  0
  188.0670  177.4750  140.9350 O   0  0  0  0  0  0  0  0  0  0  0  0
  187.5550  178.6980  141.3740 C   0  0  0  0  0  2  0  0  0  0  0  0
  185.5340  179.4220  140.3480 O   0  0  0  0  0  1  0  0  0  0  0  0
  186.0380  178.6380  141.3830 C   0  0  2  0  0  3  0  0  0  0  0  0
  185.4950  179.1370  142.7140 C   0  0  0  0  0  2  0  0  0  0  0  0
  184.3740  178.2380  143.2200 C   0  0  0  0  0  2  0  0  0  0  0  0
  183.3420  179.3260  145.0640 O   0  0  0  0  0  0  0  0  0  0  0  0
  183.2840  179.0480  143.8360 C   0  0  0  0  0  0  0  0  0  0  0  0
  182.1880  179.4330  143.0530 O   0  0  0  0  0  0  0  0  0  0  0  0
  179.9960  178.9770  142.1010 O   0  0  0  0  0  0  0  0  0  0  0  0
  180.9100  178.8720  143.1450 C   0  0  0  0  0  0  0  0  0  0  0  0
  180.5820  178.2560  144.1930 O   0  0  0  0  0  1  0  0  0  0  0  0
  2  9  1  1  0  0  0
  3  1  1  6  0  0  0
  3  6  1  0  0  0  0
  3  4  1  0  0  0  0
  4  7  1  0  0  0  0
  5  2  1  0  0  0  0
  6  8  1  0  0  0  0
  7  5  1  0  0  0  0
  7  2  1  0  0  0  0
  8 27  1  0  0  0  0
  8  5  1  0  0  0  0
  9 14  1  0  0  0  0
  9 11  1  0  0  0  0
 10 13  1  0  0  0  0
 10 15  1  0  0  0  0
 11 10  1  0  0  0  0
 12 10  1  0  0  0  0
 13 16  1  0  0  0  0
 13 15  1  0  0  0  0
 14 12  1  0  0  0  0
 16 18  1  0  0  0  0
 18 17  1  0  0  0  0
 19  6  1  0  0  0  0
 20 19  2  0  0  0  0
 21 22  2  0  0  0  0
 22 19  1  0  0  0  0
 23 20  1  0  0  0  0
 24 23  2  0  0  0  0
 24 21  1  0  0  0  0
 26 21  1  0  0  0  0
 26 25  1  0  0  0  0
 27 28  1  0  0  0  0
 28 30  1  0  0  0  0
 29 30  1  0  0  0  0
 30 31  1  0  0  0  0
 31 32  1  0  0  0  0
 32 34  1  0  0  0  0
 34 33  2  0  0  0  0
 35 37  1  0  0  0  0
 35 34  1  0  0  0  0
 36 37  2  0  0  0  0
 37 38  1  0  0  0  0
M  END
>  <MODEL>
3

>  <REMARK>
 VINA RESULT:      -7.6      2.895      8.929
  Name = 
  13 active torsions:
  status: ('A' for Active; 'I' for Inactive)
    1  A    between atoms: C_1  and  C_18
    2  A    between atoms: C_1  and  C_30
    3  A    between atoms: C_4  and  N_7
    4  A    between atoms: O_5  and  C_22
    5  A    between atoms: O_5  and  C_33
    6  A    between atoms: C_8  and  O_23
    7  A    between atoms: C_8  and  C_32
    8  A    between atoms: C_11  and  C_15
    9  A    between atoms: C_16  and  O_37
   10  A    between atoms: O_23  and  C_34
   11  A    between atoms: C_27  and  C_31
   12  A    between atoms: C_27  and  C_32
   13  A    between atoms: C_31  and  C_33
                            x       y       z     vdW  Elec       q    Type
                         _______ _______ _______ _____ _____    ______ ____

>  <TORSDO>
F 13

$$$$
=
 OpenBabel10222416253D

 38 42  0  0  1  0  0  0  0  0999 V2000
  182.4050  178.3770  144.0250 C   0  0  0  0  0  1  0  0  0  0  0  0
  184.0350  178.0810  139.8210 N   0  0  1  0  0  0  0  0  0  0  0  0
  183.2380  178.9570  142.8920 C   0  0  2  0  0  3  0  0  0  0  0  0
  182.4930  178.7050  141.5980 C   0  0  0  0  0  2  0  0  0  0  0  0
  184.7080  179.2630  140.3780 C   0  0  1  0  0  3  0  0  0  0  0  0
  184.6040  178.2810  142.8030 C   0  0  1  0  0  3  0  0  0  0  0  0
  183.2320  179.2020  140.3540 C   0  0  1  0  0  3  0  0  0  0  0  0
  185.4400  178.9270  141.6940 C   0  0  1  0  0  3  0  0  0  0  0  0
  184.0870  178.2170  138.3720 C   0  0  2  0  0  3  0  0  0  0  0  0
  184.6390  176.2280  137.2980 C   0  0  1  0  0  0  0  0  0  0  0  0
  183.4440  177.0180  137.7240 C   0  0  0  0  0  2  0  0  0  0  0  0
  185.8730  176.8270  137.5700 O   0  0  0  0  0  0  0  0  0  0  0  0
  184.5550  174.7970  136.9160 C   0  0  1  0  0  3  0  0  0  0  0  0
  185.5420  178.1510  137.9160 C   0  0  0  0  0  2  0  0  0  0  0  0
  184.5520  175.8300  135.9530 O   0  0  0  0  0  0  0  0  0  0  0  0
  185.9200  174.1210  136.9320 C   0  0  0  0  0  2  0  0  0  0  0  0
  184.3100  172.2400  137.2530 C   0  0  0  0  0  1  0  0  0  0  0  0
  185.7750  172.6250  137.1510 C   0  0  0  0  0  2  0  0  0  0  0  0
  185.3580  178.3310  144.1010 C   0  0  0  0  0  0  0  0  0  0  0  0
  184.9440  179.1660  145.1520 C   0  0  0  0  0  3  0  0  0  0  0  0
  187.2500  177.5950  145.4370 C   0  0  0  0  0  0  0  0  0  0  0  0
  186.5110  177.5530  144.2480 C   0  0  0  0  0  3  0  0  0  0  0  0
  185.6740  179.2110  146.3410 C   0  0  0  0  0  3  0  0  0  0  0  0
  186.8240  178.4290  146.4840 C   0  0  0  0  0  3  0  0  0  0  0  0
  189.2660  176.8710  146.6740 C   0  0  0  0  0  1  0  0  0  0  0  0
  188.3990  176.8060  145.5500 O   0  0  0  0  0  0  0  0  0  0  0  0
  186.5710  178.1480  141.4230 O   0  0  0  0  0  0  0  0  0  0  0  0
  187.5810  179.0710  141.1440 C   0  0  0  0  0  2  0  0  0  0  0  0
  188.4270  178.1040  139.1410 O   0  0  0  0  0  1  0  0  0  0  0  0
  188.7430  178.3610  140.4730 C   0  0  2  0  0  3  0  0  0  0  0  0
  189.0510  177.0540  141.1880 C   0  0  0  0  0  2  0  0  0  0  0  0
  190.5500  176.8880  141.4060 C   0  0  0  0  0  2  0  0  0  0  0  0
  190.3910  175.1660  143.0360 O   0  0  0  0  0  0  0  0  0  0  0  0
  190.8280  176.3140  142.7540 C   0  0  0  0  0  0  0  0  0  0  0  0
  191.5170  177.0840  143.7000 O   0  0  0  0  0  0  0  0  0  0  0  0
  192.2990  179.3040  144.3170 O   0  0  0  0  0  1  0  0  0  0  0  0
  191.2720  178.4370  143.9520 C   0  0  0  0  0  0  0  0  0  0  0  0
  190.1000  178.8820  143.8420 O   0  0  0  0  0  0  0  0  0  0  0  0
  2  9  1  6  0  0  0
  2  7  1  0  0  0  0
  2  5  1  0  0  0  0
  3  1  1  1  0  0  0
  4  3  1  0  0  0  0
  5  8  1  0  0  0  0
  6  3  1  0  0  0  0
  6 19  1  0  0  0  0
  7  5  1  0  0  0  0
  7  4  1  0  0  0  0
  8  6  1  0  0  0  0
 10 12  1  0  0  0  0
 10 11  1  0  0  0  0
 11  9  1  0  0  0  0
 12 14  1  0  0  0  0
 13 16  1  0  0  0  0
 13 10  1  0  0  0  0
 14  9  1  0  0  0  0
 15 13  1  0  0  0  0
 15 10  1  0  0  0  0
 16 18  1  0  0  0  0
 18 17  1  0  0  0  0
 19 22  2  0  0  0  0
 19 20  1  0  0  0  0
 20 23  2  0  0  0  0
 21 26  1  0  0  0  0
 21 24  2  0  0  0  0
 22 21  1  0  0  0  0
 23 24  1  0  0  0  0
 26 25  1  0  0  0  0
 27  8  1  0  0  0  0
 28 27  1  0  0  0  0
 29 30  1  0  0  0  0
 30 28  1  0  0  0  0
 30 31  1  0  0  0  0
 31 32  1  0  0  0  0
 32 34  1  0  0  0  0
 34 33  2  0  0  0  0
 34 35  1  0  0  0  0
 35 37  1  0  0  0  0
 37 36  1  0  0  0  0
 38 37  2  0  0  0  0
M  END
>  <MODEL>
4

>  <REMARK>
 VINA RESULT:      -7.5      2.584      4.037
  Name = 
  13 active torsions:
  status: ('A' for Active; 'I' for Inactive)
    1  A    between atoms: C_1  and  C_18
    2  A    between atoms: C_1  and  C_30
    3  A    between atoms: C_4  and  N_7
    4  A    between atoms: O_5  and  C_22
    5  A    between atoms: O_5  and  C_33
    6  A    between atoms: C_8  and  O_23
    7  A    between atoms: C_8  and  C_32
    8  A    between atoms: C_11  and  C_15
    9  A    between atoms: C_16  and  O_37
   10  A    between atoms: O_23  and  C_34
   11  A    between atoms: C_27  and  C_31
   12  A    between atoms: C_27  and  C_32
   13  A    between atoms: C_31  and  C_33
                            x       y       z     vdW  Elec       q    Type
                         _______ _______ _______ _____ _____    ______ ____

>  <TORSDO>
F 13

$$$$
=
 OpenBabel10222416253D

 38 42  0  0  1  0  0  0  0  0999 V2000
  192.0400  178.8740  144.1050 C   0  0  0  0  0  1  0  0  0  0  0  0
  189.9960  177.8590  140.2050 N   0  0  1  0  0  0  0  0  0  0  0  0
  191.4610  177.8390  143.1520 C   0  0  2  0  0  3  0  0  0  0  0  0
  191.8410  178.2460  141.7440 C   0  0  0  0  0  2  0  0  0  0  0  0
  190.0370  176.5780  140.9250 C   0  0  1  0  0  3  0  0  0  0  0  0
  189.9370  177.7870  143.2450 C   0  0  1  0  0  3  0  0  0  0  0  0
  191.2920  177.3140  140.6620 C   0  0  1  0  0  3  0  0  0  0  0  0
  189.3890  176.6960  142.3200 C   0  0  1  0  0  3  0  0  0  0  0  0
  189.8490  177.5380  138.7920 C   0  0  2  0  0  3  0  0  0  0  0  0
  187.6860  177.8780  138.0070 C   0  0  1  0  0  0  0  0  0  0  0  0
  189.0000  178.5830  138.1160 C   0  0  0  0  0  2  0  0  0  0  0  0
  187.6770  176.5640  138.4840 O   0  0  0  0  0  0  0  0  0  0  0  0
  186.4180  178.5950  137.7250 C   0  0  1  0  0  3  0  0  0  0  0  0
  189.0390  176.2510  138.6540 C   0  0  0  0  0  2  0  0  0  0  0  0
  187.1580  177.9530  136.7080 O   0  0  0  0  0  0  0  0  0  0  0  0
  185.1970  177.7530  138.0740 C   0  0  0  0  0  2  0  0  0  0  0  0
  183.3210  178.0590  139.6950 C   0  0  0  0  0  1  0  0  0  0  0  0
  184.0350  178.6400  138.4870 C   0  0  0  0  0  2  0  0  0  0  0  0
  189.4530  177.5530  144.6480 C   0  0  0  0  0  0  0  0  0  0  0  0
  188.2010  178.0250  145.0740 C   0  0  0  0  0  3  0  0  0  0  0  0
  189.8710  176.6660  146.8710 C   0  0  0  0  0  0  0  0  0  0  0  0
  190.2830  176.8790  145.5500 C   0  0  0  0  0  3  0  0  0  0  0  0
  187.7830  177.8140  146.3900 C   0  0  0  0  0  3  0  0  0  0  0  0
  188.6150  177.1370  147.2860 C   0  0  0  0  0  3  0  0  0  0  0  0
  192.0910  175.7380  147.4430 C   0  0  0  0  0  1  0  0  0  0  0  0
  190.7270  175.9910  147.7480 O   0  0  0  0  0  0  0  0  0  0  0  0
  188.0020  176.8220  142.1910 O   0  0  0  0  0  0  0  0  0  0  0  0
  187.7990  178.1430  141.7880 C   0  0  0  0  0  2  0  0  0  0  0  0
  186.1050  179.7450  141.3140 O   0  0  0  0  0  1  0  0  0  0  0  0
  186.3110  178.4100  141.6580 C   0  0  2  0  0  3  0  0  0  0  0  0
  185.6000  178.1030  142.9670 C   0  0  0  0  0  2  0  0  0  0  0  0
  184.9360  179.3500  143.5360 C   0  0  0  0  0  2  0  0  0  0  0  0
  183.4140  179.0130  145.3290 O   0  0  0  0  0  0  0  0  0  0  0  0
  183.5860  179.0290  144.0810 C   0  0  0  0  0  0  0  0  0  0  0  0
  182.5510  178.6950  143.1990 O   0  0  0  0  0  0  0  0  0  0  0  0
  180.6310  180.1480  142.8440 O   0  0  0  0  0  0  0  0  0  0  0  0
  181.2020  179.0080  143.4010 C   0  0  0  0  0  0  0  0  0  0  0  0
  180.4900  178.2380  144.0980 O   0  0  0  0  0  1  0  0  0  0  0  0
  2  9  1  6  0  0  0
  2  7  1  0  0  0  0
  2  5  1  0  0  0  0
  3  6  1  0  0  0  0
  3  1  1  1  0  0  0
  4  3  1  0  0  0  0
  5  8  1  0  0  0  0
  6 19  1  0  0  0  0
  7  5  1  0  0  0  0
  7  4  1  0  0  0  0
  8  6  1  0  0  0  0
 10 11  1  0  0  0  0
 10 12  1  0  0  0  0
 11  9  1  0  0  0  0
 12 14  1  0  0  0  0
 13 10  1  0  0  0  0
 13 16  1  0  0  0  0
 14  9  1  0  0  0  0
 15 13  1  0  0  0  0
 15 10  1  0  0  0  0
 16 18  1  0  0  0  0
 18 17  1  0  0  0  0
 19 20  2  0  0  0  0
 19 22  1  0  0  0  0
 20 23  1  0  0  0  0
 21 24  1  0  0  0  0
 21 26  1  0  0  0  0
 22 21  2  0  0  0  0
 23 24  2  0  0  0  0
 25 26  1  0  0  0  0
 27  8  1  0  0  0  0
 28 27  1  0  0  0  0
 29 30  1  0  0  0  0
 30 28  1  0  0  0  0
 30 31  1  0  0  0  0
 31 32  1  0  0  0  0
 32 34  1  0  0  0  0
 34 33  2  0  0  0  0
 35 37  1  0  0  0  0
 35 34  1  0  0  0  0
 36 37  2  0  0  0  0
 37 38  1  0  0  0  0
M  END
>  <MODEL>
5

>  <REMARK>
 VINA RESULT:      -7.4      2.810      6.681
  Name = 
  13 active torsions:
  status: ('A' for Active; 'I' for Inactive)
    1  A    between atoms: C_1  and  C_18
    2  A    between atoms: C_1  and  C_30
    3  A    between atoms: C_4  and  N_7
    4  A    between atoms: O_5  and  C_22
    5  A    between atoms: O_5  and  C_33
    6  A    between atoms: C_8  and  O_23
    7  A    between atoms: C_8  and  C_32
    8  A    between atoms: C_11  and  C_15
    9  A    between atoms: C_16  and  O_37
   10  A    between atoms: O_23  and  C_34
   11  A    between atoms: C_27  and  C_31
   12  A    between atoms: C_27  and  C_32
   13  A    between atoms: C_31  and  C_33
                            x       y       z     vdW  Elec       q    Type
                         _______ _______ _______ _____ _____    ______ ____

>  <TORSDO>
F 13

$$$$
=
 OpenBabel10222416253D

 38 42  0  0  1  0  0  0  0  0999 V2000
  184.8990  178.1620  146.8450 C   0  0  0  0  0  1  0  0  0  0  0  0
  183.6670  178.4230  142.5050 N   0  0  1  0  0  0  0  0  0  0  0  0
  185.0300  178.8120  145.4750 C   0  0  2  0  0  3  0  0  0  0  0  0
  183.6390  178.9270  144.8860 C   0  0  0  0  0  2  0  0  0  0  0  0
  184.7930  179.3620  142.6090 C   0  0  1  0  0  3  0  0  0  0  0  0
  185.8850  177.9660  144.5360 C   0  0  1  0  0  3  0  0  0  0  0  0
  183.6120  179.5320  143.4810 C   0  0  1  0  0  3  0  0  0  0  0  0
  186.0470  178.6750  143.1880 C   0  0  1  0  0  3  0  0  0  0  0  0
  182.9000  178.8220  141.3320 C   0  0  2  0  0  3  0  0  0  0  0  0
  182.6690  177.1060  139.7780 C   0  0  1  0  0  0  0  0  0  0  0  0
  181.9550  177.7160  140.9410 C   0  0  0  0  0  2  0  0  0  0  0  0
  183.8650  177.7350  139.4220 O   0  0  0  0  0  0  0  0  0  0  0  0
  182.3260  175.7650  139.2450 C   0  0  1  0  0  3  0  0  0  0  0  0
  183.8420  178.9470  140.1380 C   0  0  0  0  0  2  0  0  0  0  0  0
  181.8240  176.9520  138.6670 O   0  0  0  0  0  0  0  0  0  0  0  0
  183.4330  175.1990  138.3660 C   0  0  0  0  0  2  0  0  0  0  0  0
  183.6510  173.1010  137.0290 C   0  0  0  0  0  1  0  0  0  0  0  0
  182.8490  174.3750  137.2320 C   0  0  0  0  0  2  0  0  0  0  0  0
  187.2370  177.6530  145.1110 C   0  0  0  0  0  0  0  0  0  0  0  0
  187.5660  178.0060  146.4300 C   0  0  0  0  0  3  0  0  0  0  0  0
  189.4690  176.7440  144.8010 C   0  0  0  0  0  0  0  0  0  0  0  0
  188.1920  177.0270  144.3020 C   0  0  0  0  0  3  0  0  0  0  0  0
  188.8380  177.7240  146.9340 C   0  0  0  0  0  3  0  0  0  0  0  0
  189.7860  177.0960  146.1230 C   0  0  0  0  0  3  0  0  0  0  0  0
  191.6260  176.7340  143.5910 C   0  0  0  0  0  1  0  0  0  0  0  0
  190.4000  176.1200  143.9650 O   0  0  0  0  0  0  0  0  0  0  0  0
  186.5890  177.7980  142.2410 O   0  0  0  0  0  0  0  0  0  0  0  0
  187.1240  178.6270  141.2530 C   0  0  0  0  0  2  0  0  0  0  0  0
  189.4640  178.3270  141.5610 O   0  0  0  0  0  1  0  0  0  0  0  0
  188.4030  178.0130  140.7140 C   0  0  2  0  0  3  0  0  0  0  0  0
  188.6940  178.5330  139.3150 C   0  0  0  0  0  2  0  0  0  0  0  0
  189.6990  177.6420  138.5960 C   0  0  0  0  0  2  0  0  0  0  0  0
  189.5380  177.1650  136.2740 O   0  0  0  0  0  0  0  0  0  0  0  0
  189.0670  176.9670  137.4260 C   0  0  0  0  0  0  0  0  0  0  0  0
  187.9290  176.1750  137.6230 O   0  0  0  0  0  0  0  0  0  0  0  0
  186.0140  177.5180  136.9520 O   0  0  0  0  0  1  0  0  0  0  0  0
  186.7280  176.3230  136.9220 C   0  0  0  0  0  0  0  0  0  0  0  0
  186.2860  175.3580  136.2450 O   0  0  0  0  0  0  0  0  0  0  0  0
  2  9  1  6  0  0  0
  2  5  1  0  0  0  0
  2  7  1  0  0  0  0
  3  1  1  1  0  0  0
  4  3  1  0  0  0  0
  5  8  1  0  0  0  0
  5  7  1  0  0  0  0
  6 19  1  0  0  0  0
  6  3  1  0  0  0  0
  7  4  1  0  0  0  0
  8  6  1  0  0  0  0
 10 11  1  0  0  0  0
 11  9  1  0  0  0  0
 12 10  1  0  0  0  0
 12 14  1  0  0  0  0
 13 10  1  0  0  0  0
 14  9  1  0  0  0  0
 15 13  1  0  0  0  0
 15 10  1  0  0  0  0
 16 13  1  0  0  0  0
 17 18  1  0  0  0  0
 18 16  1  0  0  0  0
 19 20  1  0  0  0  0
 20 23  2  0  0  0  0
 21 24  2  0  0  0  0
 22 21  1  0  0  0  0
 22 19  2  0  0  0  0
 24 23  1  0  0  0  0
 25 26  1  0  0  0  0
 26 21  1  0  0  0  0
 27  8  1  0  0  0  0
 28 27  1  0  0  0  0
 30 28  1  0  0  0  0
 30 29  1  0  0  0  0
 31 30  1  0  0  0  0
 32 31  1  0  0  0  0
 33 34  2  0  0  0  0
 34 35  1  0  0  0  0
 34 32  1  0  0  0  0
 37 36  1  0  0  0  0
 37 35  1  0  0  0  0
 38 37  2  0  0  0  0
M  END
>  <MODEL>
6

>  <REMARK>
 VINA RESULT:      -7.4      1.924      3.079
  Name = 
  13 active torsions:
  status: ('A' for Active; 'I' for Inactive)
    1  A    between atoms: C_1  and  C_18
    2  A    between atoms: C_1  and  C_30
    3  A    between atoms: C_4  and  N_7
    4  A    between atoms: O_5  and  C_22
    5  A    between atoms: O_5  and  C_33
    6  A    between atoms: C_8  and  O_23
    7  A    between atoms: C_8  and  C_32
    8  A    between atoms: C_11  and  C_15
    9  A    between atoms: C_16  and  O_37
   10  A    between atoms: O_23  and  C_34
   11  A    between atoms: C_27  and  C_31
   12  A    between atoms: C_27  and  C_32
   13  A    between atoms: C_31  and  C_33
                            x       y       z     vdW  Elec       q    Type
                         _______ _______ _______ _____ _____    ______ ____

>  <TORSDO>
F 13

$$$$
=
 OpenBabel10222416253D

 38 42  0  0  1  0  0  0  0  0999 V2000
  192.0160  178.8550  144.3480 C   0  0  0  0  0  1  0  0  0  0  0  0
  189.9720  177.8880  140.4350 N   0  0  1  0  0  0  0  0  0  0  0  0
  191.4340  177.8330  143.3840 C   0  0  2  0  0  3  0  0  0  0  0  0
  191.8170  178.2540  141.9800 C   0  0  0  0  0  2  0  0  0  0  0  0
  190.0090  176.6000  141.1420 C   0  0  1  0  0  3  0  0  0  0  0  0
  189.9110  177.7840  143.4750 C   0  0  1  0  0  3  0  0  0  0  0  0
  191.2660  177.3340  140.8880 C   0  0  1  0  0  3  0  0  0  0  0  0
  189.3610  176.7050  142.5380 C   0  0  1  0  0  3  0  0  0  0  0  0
  189.8260  177.5820  139.0190 C   0  0  2  0  0  3  0  0  0  0  0  0
  187.6690  177.9560  138.2320 C   0  0  1  0  0  0  0  0  0  0  0  0
  188.9920  178.6430  138.3510 C   0  0  0  0  0  2  0  0  0  0  0  0
  187.6430  176.6380  138.6950 O   0  0  0  0  0  0  0  0  0  0  0  0
  186.4110  178.6910  137.9520 C   0  0  1  0  0  3  0  0  0  0  0  0
  189.0000  176.3070  138.8660 C   0  0  0  0  0  2  0  0  0  0  0  0
  187.1460  178.0500  136.9310 O   0  0  0  0  0  0  0  0  0  0  0  0
  185.1790  177.8610  138.2900 C   0  0  0  0  0  2  0  0  0  0  0  0
  183.1250  177.9040  139.7110 C   0  0  0  0  0  1  0  0  0  0  0  0
  184.0900  178.7370  138.8840 C   0  0  0  0  0  2  0  0  0  0  0  0
  189.4250  177.5370  144.8750 C   0  0  0  0  0  0  0  0  0  0  0  0
  190.2320  176.8850  145.8210 C   0  0  0  0  0  3  0  0  0  0  0  0
  187.6400  177.7010  146.5150 C   0  0  0  0  0  0  0  0  0  0  0  0
  188.1310  177.9380  145.2260 C   0  0  0  0  0  3  0  0  0  0  0  0
  189.7490  176.6480  147.1100 C   0  0  0  0  0  3  0  0  0  0  0  0
  188.4570  177.0530  147.4560 C   0  0  0  0  0  3  0  0  0  0  0  0
  186.0420  179.4260  147.2830 C   0  0  0  0  0  1  0  0  0  0  0  0
  186.3410  178.1120  146.8320 O   0  0  0  0  0  0  0  0  0  0  0  0
  187.9740  176.8350  142.4090 O   0  0  0  0  0  0  0  0  0  0  0  0
  187.7730  178.1710  142.0530 C   0  0  0  0  0  2  0  0  0  0  0  0
  186.1050  179.7200  141.3600 O   0  0  0  0  0  1  0  0  0  0  0  0
  186.2970  178.4080  141.7910 C   0  0  2  0  0  3  0  0  0  0  0  0
  185.4880  178.1610  143.0550 C   0  0  0  0  0  2  0  0  0  0  0  0
  184.6310  179.3730  143.4040 C   0  0  0  0  0  2  0  0  0  0  0  0
  183.4310  179.0890  145.4340 O   0  0  0  0  0  0  0  0  0  0  0  0
  183.4260  178.9630  144.1810 C   0  0  0  0  0  0  0  0  0  0  0  0
  182.3370  178.3930  143.5090 O   0  0  0  0  0  0  0  0  0  0  0  0
  179.9340  178.2540  143.8660 O   0  0  0  0  0  1  0  0  0  0  0  0
  181.0590  178.9580  143.4470 C   0  0  0  0  0  0  0  0  0  0  0  0
  180.9240  180.1300  143.0060 O   0  0  0  0  0  0  0  0  0  0  0  0
  2  9  1  6  0  0  0
  2  7  1  0  0  0  0
  2  5  1  0  0  0  0
  3  6  1  0  0  0  0
  3  1  1  1  0  0  0
  4  3  1  0  0  0  0
  5  8  1  0  0  0  0
  6 19  1  0  0  0  0
  7  5  1  0  0  0  0
  7  4  1  0  0  0  0
  8  6  1  0  0  0  0
 10 11  1  0  0  0  0
 10 12  1  0  0  0  0
 11  9  1  0  0  0  0
 12 14  1  0  0  0  0
 13 10  1  0  0  0  0
 13 16  1  0  0  0  0
 14  9  1  0  0  0  0
 15 13  1  0  0  0  0
 15 10  1  0  0  0  0
 16 18  1  0  0  0  0
 18 17  1  0  0  0  0
 19 22  2  0  0  0  0
 19 20  1  0  0  0  0
 20 23  2  0  0  0  0
 21 26  1  0  0  0  0
 21 24  2  0  0  0  0
 22 21  1  0  0  0  0
 23 24  1  0  0  0  0
 26 25  1  0  0  0  0
 27  8  1  0  0  0  0
 28 27  1  0  0  0  0
 29 30  1  0  0  0  0
 30 28  1  0  0  0  0
 30 31  1  0  0  0  0
 31 32  1  0  0  0  0
 32 34  1  0  0  0  0
 34 33  2  0  0  0  0
 35 34  1  0  0  0  0
 37 35  1  0  0  0  0
 37 36  1  0  0  0  0
 38 37  2  0  0  0  0
M  END
>  <MODEL>
7

>  <REMARK>
 VINA RESULT:      -7.2      2.941      6.828
  Name = 
  13 active torsions:
  status: ('A' for Active; 'I' for Inactive)
    1  A    between atoms: C_1  and  C_18
    2  A    between atoms: C_1  and  C_30
    3  A    between atoms: C_4  and  N_7
    4  A    between atoms: O_5  and  C_22
    5  A    between atoms: O_5  and  C_33
    6  A    between atoms: C_8  and  O_23
    7  A    between atoms: C_8  and  C_32
    8  A    between atoms: C_11  and  C_15
    9  A    between atoms: C_16  and  O_37
   10  A    between atoms: O_23  and  C_34
   11  A    between atoms: C_27  and  C_31
   12  A    between atoms: C_27  and  C_32
   13  A    between atoms: C_31  and  C_33
                            x       y       z     vdW  Elec       q    Type
                         _______ _______ _______ _____ _____    ______ ____

>  <TORSDO>
F 13

$$$$
=
 OpenBabel10222416253D

 38 42  0  0  1  0  0  0  0  0999 V2000
  186.6650  177.2070  145.6800 C   0  0  0  0  0  1  0  0  0  0  0  0
  184.5330  178.2960  141.8470 N   0  0  1  0  0  0  0  0  0  0  0  0
  186.5230  178.1070  144.4620 C   0  0  2  0  0  3  0  0  0  0  0  0
  185.0450  178.3340  144.2270 C   0  0  0  0  0  2  0  0  0  0  0  0
  185.6950  179.1960  141.8730 C   0  0  1  0  0  3  0  0  0  0  0  0
  187.1170  177.4550  143.2150 C   0  0  1  0  0  3  0  0  0  0  0  0
  184.7400  179.1970  143.0010 C   0  0  1  0  0  3  0  0  0  0  0  0
  187.0130  178.4090  142.0210 C   0  0  1  0  0  3  0  0  0  0  0  0
  183.5470  178.9120  140.9690 C   0  0  2  0  0  3  0  0  0  0  0  0
  182.9130  177.5270  139.2110 C   0  0  1  0  0  0  0  0  0  0  0  0
  182.4940  177.9020  140.5970 C   0  0  0  0  0  2  0  0  0  0  0  0
  184.0290  178.2130  138.7240 O   0  0  0  0  0  0  0  0  0  0  0  0
  182.4050  176.3130  138.5250 C   0  0  1  0  0  3  0  0  0  0  0  0
  184.2130  179.2640  139.6420 C   0  0  0  0  0  2  0  0  0  0  0  0
  181.8410  177.5890  138.3050 O   0  0  0  0  0  0  0  0  0  0  0  0
  183.2710  175.9270  137.3330 C   0  0  0  0  0  2  0  0  0  0  0  0
  181.5410  174.1270  137.3730 C   0  0  0  0  0  1  0  0  0  0  0  0
  182.8880  174.5520  136.8160 C   0  0  0  0  0  2  0  0  0  0  0  0
  188.5470  177.0370  143.4080 C   0  0  0  0  0  0  0  0  0  0  0  0
  188.9950  175.7680  143.0070 C   0  0  0  0  0  3  0  0  0  0  0  0
  190.7700  177.5540  144.2440 C   0  0  0  0  0  0  0  0  0  0  0  0
  189.4360  177.9220  144.0280 C   0  0  0  0  0  3  0  0  0  0  0  0
  190.3240  175.3950  143.2180 C   0  0  0  0  0  3  0  0  0  0  0  0
  191.2080  176.2840  143.8340 C   0  0  0  0  0  3  0  0  0  0  0  0
  191.8980  179.7520  144.3390 C   0  0  0  0  0  1  0  0  0  0  0  0
  191.6310  178.4610  144.8680 O   0  0  0  0  0  0  0  0  0  0  0  0
  187.2980  177.7300  140.8320 O   0  0  0  0  0  0  0  0  0  0  0  0
  188.3040  178.4820  140.2230 C   0  0  0  0  0  2  0  0  0  0  0  0
  190.4720  177.5030  140.2070 O   0  0  0  0  0  1  0  0  0  0  0  0
  189.2680  177.5540  139.5070 C   0  0  2  0  0  3  0  0  0  0  0  0
  189.5210  178.0420  138.0890 C   0  0  0  0  0  2  0  0  0  0  0  0
  188.2560  178.6300  137.4770 C   0  0  0  0  0  2  0  0  0  0  0  0
  187.3080  178.1620  135.3490 O   0  0  0  0  0  0  0  0  0  0  0  0
  187.6780  177.7020  136.4620 C   0  0  0  0  0  0  0  0  0  0  0  0
  187.5020  176.3510  136.7880 O   0  0  0  0  0  0  0  0  0  0  0  0
  188.4930  174.8320  135.1660 O   0  0  0  0  0  0  0  0  0  0  0  0
  187.3840  175.3180  135.8530 C   0  0  0  0  0  0  0  0  0  0  0  0
  186.2520  174.8130  135.6320 O   0  0  0  0  0  1  0  0  0  0  0  0
  2  9  1  6  0  0  0
  2  5  1  0  0  0  0
  2  7  1  0  0  0  0
  3  1  1  1  0  0  0
  4  3  1  0  0  0  0
  5  8  1  0  0  0  0
  5  7  1  0  0  0  0
  6 19  1  0  0  0  0
  6  3  1  0  0  0  0
  7  4  1  0  0  0  0
  8  6  1  0  0  0  0
 10 11  1  0  0  0  0
 11  9  1  0  0  0  0
 12 10  1  0  0  0  0
 12 14  1  0  0  0  0
 13 10  1  0  0  0  0
 14  9  1  0  0  0  0
 15 13  1  0  0  0  0
 15 10  1  0  0  0  0
 16 13  1  0  0  0  0
 18 16  1  0  0  0  0
 18 17  1  0  0  0  0
 19 22  1  0  0  0  0
 20 23  1  0  0  0  0
 20 19  2  0  0  0  0
 21 26  1  0  0  0  0
 22 21  2  0  0  0  0
 23 24  2  0  0  0  0
 24 21  1  0  0  0  0
 25 26  1  0  0  0  0
 27  8  1  0  0  0  0
 28 27  1  0  0  0  0
 30 29  1  0  0  0  0
 30 28  1  0  0  0  0
 31 30  1  0  0  0  0
 32 31  1  0  0  0  0
 33 34  2  0  0  0  0
 34 35  1  0  0  0  0
 34 32  1  0  0  0  0
 36 37  2  0  0  0  0
 37 35  1  0  0  0  0
 38 37  1  0  0  0  0
M  END
>  <MODEL>
8

>  <REMARK>
 VINA RESULT:      -7.1      1.879      2.791
  Name = 
  13 active torsions:
  status: ('A' for Active; 'I' for Inactive)
    1  A    between atoms: C_1  and  C_18
    2  A    between atoms: C_1  and  C_30
    3  A    between atoms: C_4  and  N_7
    4  A    between atoms: O_5  and  C_22
    5  A    between atoms: O_5  and  C_33
    6  A    between atoms: C_8  and  O_23
    7  A    between atoms: C_8  and  C_32
    8  A    between atoms: C_11  and  C_15
    9  A    between atoms: C_16  and  O_37
   10  A    between atoms: O_23  and  C_34
   11  A    between atoms: C_27  and  C_31
   12  A    between atoms: C_27  and  C_32
   13  A    between atoms: C_31  and  C_33
                            x       y       z     vdW  Elec       q    Type
                         _______ _______ _______ _____ _____    ______ ____

>  <TORSDO>
F 13

$$$$
=
 OpenBabel10222416253D

 38 42  0  0  1  0  0  0  0  0999 V2000
  182.4800  175.6620  138.2240 C   0  0  0  0  0  1  0  0  0  0  0  0
  186.7590  177.1050  138.0480 N   0  0  1  0  0  0  0  0  0  0  0  0
  183.5050  176.6910  137.7730 C   0  0  2  0  0  3  0  0  0  0  0  0
  184.7450  175.9420  137.3290 C   0  0  0  0  0  2  0  0  0  0  0  0
  185.9900  178.2100  137.4580 C   0  0  1  0  0  3  0  0  0  0  0  0
  183.8910  177.6310  138.9130 C   0  0  1  0  0  3  0  0  0  0  0  0
  185.8880  176.8540  136.8790 C   0  0  1  0  0  3  0  0  0  0  0  0
  184.8760  178.6910  138.4120 C   0  0  1  0  0  3  0  0  0  0  0  0
  188.1260  177.2450  137.5650 C   0  0  2  0  0  3  0  0  0  0  0  0
  189.7000  177.1760  139.2760 C   0  0  1  0  0  0  0  0  0  0  0  0
  189.0250  176.2780  138.2900 C   0  0  0  0  0  2  0  0  0  0  0  0
  189.3480  178.5260  139.1870 O   0  0  0  0  0  0  0  0  0  0  0  0
  190.4310  176.6570  140.4590 C   0  0  1  0  0  3  0  0  0  0  0  0
  188.6570  178.6200  137.9630 C   0  0  0  0  0  2  0  0  0  0  0  0
  191.0960  177.0120  139.2640 O   0  0  0  0  0  0  0  0  0  0  0  0
  190.6580  177.7370  141.5080 C   0  0  0  0  0  2  0  0  0  0  0  0
  190.1460  175.6910  142.8460 C   0  0  0  0  0  1  0  0  0  0  0  0
  190.4820  177.1700  142.9060 C   0  0  0  0  0  2  0  0  0  0  0  0
  182.6990  178.3010  139.5360 C   0  0  0  0  0  0  0  0  0  0  0  0
  181.8730  179.1580  138.7910 C   0  0  0  0  0  3  0  0  0  0  0  0
  181.3410  178.7140  141.5090 C   0  0  0  0  0  0  0  0  0  0  0  0
  182.4300  178.0860  140.8920 C   0  0  0  0  0  3  0  0  0  0  0  0
  180.7840  179.7860  139.3990 C   0  0  0  0  0  3  0  0  0  0  0  0
  180.5190  179.5650  140.7530 C   0  0  0  0  0  3  0  0  0  0  0  0
  181.9370  179.0010  143.8910 C   0  0  0  0  0  1  0  0  0  0  0  0
  181.1030  178.4790  142.8660 O   0  0  0  0  0  0  0  0  0  0  0  0
  185.4400  179.3790  139.4920 O   0  0  0  0  0  0  0  0  0  0  0  0
  185.8170  178.3800  140.3930 C   0  0  0  0  0  2  0  0  0  0  0  0
  187.6690  179.0110  141.7460 O   0  0  0  0  0  1  0  0  0  0  0  0
  186.2770  179.0170  141.6910 C   0  0  2  0  0  3  0  0  0  0  0  0
  185.7150  178.2570  142.8830 C   0  0  0  0  0  2  0  0  0  0  0  0
  186.7620  177.3290  143.4860 C   0  0  0  0  0  2  0  0  0  0  0  0
  188.1890  178.0170  145.2570 O   0  0  0  0  0  0  0  0  0  0  0  0
  187.0250  177.6810  144.9110 C   0  0  0  0  0  0  0  0  0  0  0  0
  185.9880  177.5750  145.8470 O   0  0  0  0  0  0  0  0  0  0  0  0
  185.9850  179.3900  147.4670 O   0  0  0  0  0  1  0  0  0  0  0  0
  185.3580  178.6630  146.4600 C   0  0  0  0  0  0  0  0  0  0  0  0
  184.2000  178.9930  146.0900 O   0  0  0  0  0  0  0  0  0  0  0  0
  2  9  1  6  0  0  0
  3  1  1  1  0  0  0
  3  6  1  0  0  0  0
  4  3  1  0  0  0  0
  5  2  1  0  0  0  0
  5  8  1  0  0  0  0
  6 19  1  0  0  0  0
  7  4  1  0  0  0  0
  7  5  1  0  0  0  0
  7  2  1  0  0  0  0
  8  6  1  0  0  0  0
  8 27  1  0  0  0  0
  9 14  1  0  0  0  0
  9 11  1  0  0  0  0
 10 13  1  0  0  0  0
 11 10  1  0  0  0  0
 12 10  1  0  0  0  0
 13 16  1  0  0  0  0
 14 12  1  0  0  0  0
 15 10  1  0  0  0  0
 15 13  1  0  0  0  0
 16 18  1  0  0  0  0
 17 18  1  0  0  0  0
 19 22  1  0  0  0  0
 20 23  1  0  0  0  0
 20 19  2  0  0  0  0
 21 26  1  0  0  0  0
 22 21  2  0  0  0  0
 23 24  2  0  0  0  0
 24 21  1  0  0  0  0
 26 25  1  0  0  0  0
 27 28  1  0  0  0  0
 28 30  1  0  0  0  0
 30 29  1  0  0  0  0
 30 31  1  0  0  0  0
 31 32  1  0  0  0  0
 32 34  1  0  0  0  0
 34 33  2  0  0  0  0
 34 35  1  0  0  0  0
 35 37  1  0  0  0  0
 37 36  1  0  0  0  0
 38 37  2  0  0  0  0
M  END
>  <MODEL>
9

>  <REMARK>
 VINA RESULT:      -7.0      2.596      8.179
  Name = 
  13 active torsions:
  status: ('A' for Active; 'I' for Inactive)
    1  A    between atoms: C_1  and  C_18
    2  A    between atoms: C_1  and  C_30
    3  A    between atoms: C_4  and  N_7
    4  A    between atoms: O_5  and  C_22
    5  A    between atoms: O_5  and  C_33
    6  A    between atoms: C_8  and  O_23
    7  A    between atoms: C_8  and  C_32
    8  A    between atoms: C_11  and  C_15
    9  A    between atoms: C_16  and  O_37
   10  A    between atoms: O_23  and  C_34
   11  A    between atoms: C_27  and  C_31
   12  A    between atoms: C_27  and  C_32
   13  A    between atoms: C_31  and  C_33
                            x       y       z     vdW  Elec       q    Type
                         _______ _______ _______ _____ _____    ______ ____

>  <TORSDO>
F 13

$$$$
