=
 OpenBabel10222415103D

 69 75  0  0  1  0  0  0  0  0999 V2000
  191.7770  174.2050  136.2300 C   0  0  0  0  0  0  0  0  0  0  0  0
  188.2450  174.2230  136.7010 C   0  0  2  0  0  3  0  0  0  0  0  0
  189.1530  172.3470  135.2210 C   0  0  1  0  0  3  0  0  0  0  0  0
  196.9630  174.1510  138.2660 F   0  0  0  0  0  0  0  0  0  0  0  0
  193.0780  174.3950  136.5750 C   0  0  0  0  0  0  0  0  0  0  0  0
  195.5240  173.6550  136.4710 C   0  0  0  0  0  0  0  0  0  0  0  0
  191.3890  173.4470  134.9900 C   0  0  0  0  0  2  0  0  0  0  0  0
  194.2170  173.8300  135.8080 C   0  0  0  0  0  0  0  0  0  0  0  0
  189.4420  175.1490  136.4550 C   0  0  1  0  0  3  0  0  0  0  0  0
  193.4270  175.1980  137.7830 C   0  0  0  0  0  0  0  0  0  0  0  0
  194.8740  175.3860  138.1500 C   0  0  0  0  0  2  0  0  0  0  0  0
  195.7870  174.3160  137.6180 C   0  0  0  0  0  0  0  0  0  0  0  0
  190.1950  176.8820  137.8800 C   0  0  1  0  0  3  0  0  0  0  0  0
  191.1140  175.7690  137.9840 N   0  0  0  0  0  0  0  0  0  0  0  0
  192.8080  176.8390  139.5350 C   0  0  0  0  0  1  0  0  0  0  0  0
  189.1330  176.4940  136.9500 N   0  0  0  0  0  2  0  0  0  0  0  0
  188.5800  172.7270  136.5830 C   0  0  0  0  0  2  0  0  0  0  0  0
  190.6840  174.6540  137.1800 C   0  0  2  0  0  3  0  0  0  0  0  0
  194.0920  173.4950  134.6010 O   0  0  0  0  0  0  0  0  0  0  0  0
  192.4730  175.9000  138.4180 C   0  0  0  0  0  0  0  0  0  0  0  0
  190.6630  172.1500  135.3110 C   0  0  0  0  0  2  0  0  0  0  0  0
  185.8700  174.5350  136.2450 C   0  0  0  0  0  0  0  0  0  0  0  0
  184.6420  174.4620  136.6840 C   0  0  0  0  0  3  0  0  0  0  0  0
  187.0990  174.5980  135.8140 C   0  0  0  0  0  3  0  0  0  0  0  0
  183.5110  175.0880  135.9390 C   0  0  1  0  0  3  0  0  0  0  0  0
  182.9690  173.0410  134.7780 O   0  0  0  0  0  1  0  0  0  0  0  0
  183.2730  174.3920  134.5950 C   0  0  0  0  0  2  0  0  0  0  0  0
  182.2630  175.0670  136.8120 C   0  0  0  0  0  2  0  0  0  0  0  0
  183.0780  176.6690  138.4910 O   0  0  0  0  0  0  0  0  0  0  0  0
  181.9070  176.1670  138.9290 O   0  0  0  0  0  0  0  0  0  0  0  0
  182.0900  176.3700  137.5800 C   0  0  0  0  0  0  0  0  0  0  0  0
  181.2470  177.5290  137.0240 C   0  0  1  0  0  3  0  0  0  0  0  0
  181.1230  177.6460  134.8090 C   0  0  0  0  0  1  0  0  0  0  0  0
  180.4980  177.0860  135.9250 O   0  0  0  0  0  0  0  0  0  0  0  0
  179.0150  177.4640  138.2410 C   0  0  0  0  0  1  0  0  0  0  0  0
  180.3500  178.1850  138.0870 C   0  0  2  0  0  3  0  0  0  0  0  0
  179.1950  180.2410  138.6120 O   0  0  0  0  0  1  0  0  0  0  0  0
  180.1420  179.6660  137.7570 C   0  0  1  0  0  3  0  0  0  0  0  0
  181.4640  180.4220  137.8190 C   0  0  0  0  0  2  0  0  0  0  0  0
  183.5490  180.5400  139.0020 O   0  0  0  0  0  1  0  0  0  0  0  0
  182.2140  180.1360  139.1110 C   0  0  0  0  0  2  0  0  0  0  0  0
  187.6730  170.3620  135.4280 C   0  0  0  0  0  2  0  0  0  0  0  0
  188.4820  171.1170  134.6830 C   0  0  0  0  0  3  0  0  0  0  0  0
  189.5890  177.1920  139.2420 C   0  0  0  0  0  2  0  0  0  0  0  0
  188.8260  179.0160  137.8990 O   0  0  0  0  0  1  0  0  0  0  0  0
  188.8360  178.5090  139.2040 C   0  0  1  0  0  3  0  0  0  0  0  0
  187.4130  178.2730  139.6730 C   0  0  0  0  0  2  0  0  0  0  0  0
  187.2420  178.7790  141.0970 C   0  0  1  0  0  3  0  0  0  0  0  0
  185.8220  179.2990  141.2560 C   0  0  0  0  0  1  0  0  0  0  0  0
  190.8920  176.5840  143.2600 C   0  0  0  0  0  2  0  0  0  0  0  0
  190.6550  178.8320  144.4260 N   0  0  0  0  0  2  0  0  0  0  0  0
  188.5130  177.5770  144.1850 C   0  0  2  0  0  3  0  0  0  0  0  0
  187.5310  177.6590  142.1030 C   0  0  2  0  0  3  0  0  0  0  0  0
  189.8110  176.9910  142.2410 C   0  0  0  0  0  2  0  0  0  0  0  0
  186.4600  177.6300  143.1840 C   0  0  0  0  0  2  0  0  0  0  0  0
  188.7930  177.9010  142.7890 N   0  0  2  0  0  0  0  0  0  0  0  0
  187.1190  177.8790  144.4540 N   0  0  0  0  0  2  0  0  0  0  0  0
  189.4400  178.3620  145.1160 C   0  0  1  0  0  3  0  0  0  0  0  0
  191.5670  177.7590  143.9880 C   0  0  0  0  0  2  0  0  0  0  0  0
  189.7640  177.5530  146.3660 C   0  0  0  0  0  2  0  0  0  0  0  0
  188.4820  177.1240  147.0600 C   0  0  0  0  0  2  0  0  0  0  0  0
  187.9960  178.2130  148.0050 C   0  0  0  0  0  2  0  0  0  0  0  0
  185.7540  177.6790  147.3860 O   0  0  0  0  0  0  0  0  0  0  0  0
  186.1530  179.8890  147.8460 O   0  0  0  0  0  1  0  0  0  0  0  0
  186.5760  178.5740  147.7120 C   0  0  0  0  0  0  0  0  0  0  0  0
  196.4520  172.7280  135.8820 N   0  0  0  0  0  2  0  0  0  0  0  0
  197.5660  172.0760  136.5630 C   0  0  0  0  0  2  0  0  0  0  0  0
  198.8320  173.5430  135.0930 N   0  0  0  0  0  1  0  0  0  0  0  0
  198.8400  172.8830  136.3860 C   0  0  0  0  0  2  0  0  0  0  0  0
  1  5  2  0  0  0  0
  2 24  1  6  0  0  0
  3 43  1  1  0  0  0
  3 21  1  0  0  0  0
  3 17  1  0  0  0  0
  5 10  1  0  0  0  0
  6 12  2  0  0  0  0
  7 21  1  0  0  0  0
  7  1  1  0  0  0  0
  8  6  1  0  0  0  0
  8  5  1  0  0  0  0
  9  2  1  0  0  0  0
  9 16  1  1  0  0  0
  9 18  1  0  0  0  0
 10 11  1  0  0  0  0
 10 20  2  0  0  0  0
 12 11  1  0  0  0  0
 12  4  1  0  0  0  0
 13 14  1  0  0  0  0
 13 44  1  1  0  0  0
 14 20  1  0  0  0  0
 16 13  1  0  0  0  0
 17  2  1  0  0  0  0
 18  1  1  6  0  0  0
 18 14  1  0  0  0  0
 19  8  2  0  0  0  0
 20 15  1  0  0  0  0
 22 23  2  0  0  0  0
 24 22  2  0  0  0  0
 25 27  1  6  0  0  0
 25 23  1  0  0  0  0
 25 28  1  0  0  0  0
 27 26  1  0  0  0  0
 28 31  1  0  0  0  0
 29 30  1  0  0  0  0
 31 29  1  0  0  0  0
 31 30  1  0  0  0  0
 32 34  1  6  0  0  0
 32 31  1  0  0  0  0
 32 36  1  0  0  0  0
 33 34  1  0  0  0  0
 36 35  1  6  0  0  0
 38 39  1  0  0  0  0
 38 36  1  0  0  0  0
 38 37  1  1  0  0  0
 39 41  1  0  0  0  0
 40 41  1  0  0  0  0
 43 42  2  0  0  0  0
 46 45  1  6  0  0  0
 46 44  1  0  0  0  0
 46 47  1  0  0  0  0
 47 48  1  0  0  0  0
 48 49  1  6  0  0  0
 50 59  1  0  0  0  0
 51 58  1  0  0  0  0
 52 57  1  1  0  0  0
 52 58  1  0  0  0  0
 53 48  1  6  0  0  0
 53 56  1  0  0  0  0
 53 55  1  0  0  0  0
 54 50  1  0  0  0  0
 55 57  1  0  0  0  0
 56 54  1  6  0  0  0
 56 52  1  0  0  0  0
 58 60  1  1  0  0  0
 59 51  1  0  0  0  0
 60 61  1  0  0  0  0
 61 62  1  0  0  0  0
 63 65  2  0  0  0  0
 65 64  1  0  0  0  0
 65 62  1  0  0  0  0
 66  6  1  0  0  0  0
 66 67  1  0  0  0  0
 68 69  1  0  0  0  0
 69 67  1  0  0  0  0
M  END
>  <MODEL>
1

>  <REMARK>
 VINA RESULT:      -6.1      0.000      0.000
  Name = 
  24 active torsions:
  status: ('A' for Active; 'I' for Inactive)
    1  A    between atoms: C_3  and  C_53
    2  A    between atoms: C_5  and  C_13
    3  A    between atoms: C_7  and  C_43
    4  A    between atoms: C_7  and  C_67
    5  A    between atoms: C_11  and  N_26
    6  A    between atoms: C_21  and  C_43
    7  A    between atoms: N_26  and  C_27
    8  A    between atoms: C_27  and  C_48
    9  A    between atoms: C_28  and  C_41
   10  A    between atoms: C_30  and  C_35
   11  A    between atoms: C_30  and  C_38
   12  A    between atoms: C_32  and  C_44
   13  A    between atoms: C_32  and  C_55
   14  A    between atoms: C_33  and  C_35
   15  A    between atoms: C_33  and  C_41
   16  A    between atoms: C_37  and  O_40
   17  A    between atoms: C_37  and  C_66
   18  A    between atoms: C_37  and  C_67
   19  A    between atoms: C_43  and  C_65
   20  A    between atoms: C_44  and  C_51
   21  A    between atoms: C_51  and  C_62
   22  A    between atoms: C_59  and  C_60
   23  A    between atoms: C_59  and  C_66
   24  A    between atoms: C_60  and  C_69
                            x       y       z     vdW  Elec       q    Type
                         _______ _______ _______ _____ _____    ______ ____

>  <TORSDO>
F 24

$$$$
=
 OpenBabel10222415103D

 69 75  0  0  1  0  0  0  0  0999 V2000
  190.3010  174.2620  136.3300 C   0  0  0  0  0  0  0  0  0  0  0  0
  187.2180  175.8160  137.2080 C   0  0  2  0  0  3  0  0  0  0  0  0
  187.0320  173.4440  136.2750 C   0  0  1  0  0  3  0  0  0  0  0  0
  195.4570  172.5920  137.6220 F   0  0  0  0  0  0  0  0  0  0  0  0
  191.6270  173.9840  136.4350 C   0  0  0  0  0  0  0  0  0  0  0  0
  193.5580  172.3160  136.2610 C   0  0  0  0  0  0  0  0  0  0  0  0
  189.3920  173.4580  135.4410 C   0  0  0  0  0  2  0  0  0  0  0  0
  192.2800  172.8430  135.7440 C   0  0  0  0  0  0  0  0  0  0  0  0
  188.5710  176.0930  136.5430 C   0  0  1  0  0  3  0  0  0  0  0  0
  192.5100  174.8360  137.2850 C   0  0  0  0  0  0  0  0  0  0  0  0
  193.9730  174.5020  137.3940 C   0  0  0  0  0  2  0  0  0  0  0  0
  194.2990  173.0630  137.1070 C   0  0  0  0  0  0  0  0  0  0  0  0
  190.1980  177.6550  137.2620 C   0  0  1  0  0  3  0  0  0  0  0  0
  190.6620  176.3230  137.5870 N   0  0  0  0  0  0  0  0  0  0  0  0
  192.9380  176.9470  138.5110 C   0  0  0  0  0  1  0  0  0  0  0  0
  188.8810  177.5240  136.6360 N   0  0  0  0  0  2  0  0  0  0  0  0
  186.9660  174.3320  137.5150 C   0  0  0  0  0  2  0  0  0  0  0  0
  189.6920  175.3230  137.2250 C   0  0  2  0  0  3  0  0  0  0  0  0
  191.7670  172.3150  134.7230 O   0  0  0  0  0  0  0  0  0  0  0  0
  192.0420  175.9910  137.7880 C   0  0  0  0  0  0  0  0  0  0  0  0
  188.3510  172.6800  136.2330 C   0  0  0  0  0  2  0  0  0  0  0  0
  184.8760  176.3860  136.8370 C   0  0  0  0  0  0  0  0  0  0  0  0
  183.6480  176.3570  137.2810 C   0  0  0  0  0  3  0  0  0  0  0  0
  186.1040  176.4040  136.3990 C   0  0  0  0  0  3  0  0  0  0  0  0
  182.5710  177.1700  136.6460 C   0  0  1  0  0  3  0  0  0  0  0  0
  181.1330  175.5110  135.6420 O   0  0  0  0  0  1  0  0  0  0  0  0
  182.0600  176.5150  135.3580 C   0  0  0  0  0  2  0  0  0  0  0  0
  181.4480  177.3880  137.6510 C   0  0  0  0  0  2  0  0  0  0  0  0
  181.7410  179.7680  138.1940 O   0  0  0  0  0  0  0  0  0  0  0  0
  182.9370  179.1610  138.3220 O   0  0  0  0  0  0  0  0  0  0  0  0
  181.7940  178.4730  138.6600 C   0  0  0  0  0  0  0  0  0  0  0  0
  181.6520  178.2440  140.1730 C   0  0  1  0  0  3  0  0  0  0  0  0
  183.1000  178.3340  141.8560 C   0  0  0  0  0  1  0  0  0  0  0  0
  182.5020  179.1170  140.8670 O   0  0  0  0  0  0  0  0  0  0  0  0
  179.8980  179.7420  141.2430 C   0  0  0  0  0  1  0  0  0  0  0  0
  180.2010  178.3630  140.6660 C   0  0  2  0  0  3  0  0  0  0  0  0
  179.3560  177.7970  142.8580 O   0  0  0  0  0  1  0  0  0  0  0  0
  179.9000  177.2600  141.6860 C   0  0  1  0  0  3  0  0  0  0  0  0
  178.9750  176.2090  141.0850 C   0  0  0  0  0  2  0  0  0  0  0  0
  179.3280  174.3630  139.5940 O   0  0  0  0  0  1  0  0  0  0  0  0
  179.4600  175.7490  139.7190 C   0  0  0  0  0  2  0  0  0  0  0  0
  185.7620  171.5370  135.3140 C   0  0  0  0  0  2  0  0  0  0  0  0
  185.8650  172.5020  136.2290 C   0  0  0  0  0  3  0  0  0  0  0  0
  190.0780  178.4930  138.5270 C   0  0  0  0  0  2  0  0  0  0  0  0
  189.6320  176.6500  139.9840 O   0  0  0  0  0  1  0  0  0  0  0  0
  189.1040  177.8530  139.5000 C   0  0  1  0  0  3  0  0  0  0  0  0
  188.8640  178.8080  140.6530 C   0  0  0  0  0  2  0  0  0  0  0  0
  187.5420  178.4860  141.3320 C   0  0  1  0  0  3  0  0  0  0  0  0
  186.5120  178.1760  140.2570 C   0  0  0  0  0  1  0  0  0  0  0  0
  190.8650  176.2480  143.9320 C   0  0  0  0  0  2  0  0  0  0  0  0
  190.3350  178.3920  145.1940 N   0  0  0  0  0  2  0  0  0  0  0  0
  188.3220  177.0920  144.5010 C   0  0  2  0  0  3  0  0  0  0  0  0
  187.7040  177.3030  142.2920 C   0  0  2  0  0  3  0  0  0  0  0  0
  189.9550  176.6980  142.7740 C   0  0  0  0  0  2  0  0  0  0  0  0
  186.4680  177.1580  143.1670 C   0  0  0  0  0  2  0  0  0  0  0  0
  188.8200  177.5310  143.2000 N   0  0  2  0  0  0  0  0  0  0  0  0
  186.8910  177.3290  144.5460 N   0  0  0  0  0  2  0  0  0  0  0  0
  189.0420  177.8320  145.6300 C   0  0  1  0  0  3  0  0  0  0  0  0
  191.3540  177.3830  144.8460 C   0  0  0  0  0  2  0  0  0  0  0  0
  189.1850  176.9410  146.8580 C   0  0  0  0  0  2  0  0  0  0  0  0
  188.2130  177.3810  147.9400 C   0  0  0  0  0  2  0  0  0  0  0  0
  186.8120  177.5380  147.3690 C   0  0  0  0  0  2  0  0  0  0  0  0
  186.8800  179.6970  148.3830 O   0  0  0  0  0  1  0  0  0  0  0  0
  185.2620  179.4050  146.7860 O   0  0  0  0  0  0  0  0  0  0  0  0
  186.3160  178.9340  147.5560 C   0  0  0  0  0  0  0  0  0  0  0  0
  193.9340  170.9830  135.8740 N   0  0  0  0  0  2  0  0  0  0  0  0
  194.6520  170.0170  136.7000 C   0  0  0  0  0  2  0  0  0  0  0  0
  195.0370  169.6360  139.0720 N   0  0  0  0  0  1  0  0  0  0  0  0
  194.0190  169.9250  138.0770 C   0  0  0  0  0  2  0  0  0  0  0  0
  1  5  2  0  0  0  0
  2 24  1  6  0  0  0
  2 17  1  0  0  0  0
  3 43  1  1  0  0  0
  3 17  1  0  0  0  0
  5 10  1  0  0  0  0
  6 12  2  0  0  0  0
  7 21  1  0  0  0  0
  7  1  1  0  0  0  0
  8  6  1  0  0  0  0
  8  5  1  0  0  0  0
  9 16  1  1  0  0  0
  9  2  1  0  0  0  0
  9 18  1  0  0  0  0
 10 11  1  0  0  0  0
 10 20  2  0  0  0  0
 12 11  1  0  0  0  0
 12  4  1  0  0  0  0
 13 14  1  0  0  0  0
 13 44  1  1  0  0  0
 14 20  1  0  0  0  0
 16 13  1  0  0  0  0
 18  1  1  6  0  0  0
 18 14  1  0  0  0  0
 19  8  2  0  0  0  0
 20 15  1  0  0  0  0
 21  3  1  0  0  0  0
 22 23  2  0  0  0  0
 24 22  2  0  0  0  0
 25 27  1  6  0  0  0
 25 23  1  0  0  0  0
 25 28  1  0  0  0  0
 27 26  1  0  0  0  0
 28 31  1  0  0  0  0
 29 30  1  0  0  0  0
 29 31  1  0  0  0  0
 30 31  1  0  0  0  0
 31 32  1  0  0  0  0
 32 36  1  0  0  0  0
 32 34  1  1  0  0  0
 34 33  1  0  0  0  0
 36 35  1  1  0  0  0
 36 38  1  0  0  0  0
 38 37  1  1  0  0  0
 39 38  1  0  0  0  0
 40 41  1  0  0  0  0
 41 39  1  0  0  0  0
 42 43  2  0  0  0  0
 44 46  1  0  0  0  0
 46 45  1  1  0  0  0
 46 47  1  0  0  0  0
 47 48  1  0  0  0  0
 48 49  1  6  0  0  0
 50 59  1  0  0  0  0
 51 58  1  0  0  0  0
 52 57  1  6  0  0  0
 52 58  1  0  0  0  0
 53 48  1  6  0  0  0
 53 55  1  0  0  0  0
 53 56  1  0  0  0  0
 54 50  1  0  0  0  0
 55 57  1  0  0  0  0
 56 54  1  6  0  0  0
 56 52  1  0  0  0  0
 58 60  1  1  0  0  0
 59 51  1  0  0  0  0
 60 61  1  0  0  0  0
 62 65  1  0  0  0  0
 62 61  1  0  0  0  0
 64 65  2  0  0  0  0
 65 63  1  0  0  0  0
 66  6  1  0  0  0  0
 66 67  1  0  0  0  0
 67 69  1  0  0  0  0
 69 68  1  0  0  0  0
M  END
>  <MODEL>
2

>  <REMARK>
 VINA RESULT:      -4.7      1.953      2.897
  Name = 
  24 active torsions:
  status: ('A' for Active; 'I' for Inactive)
    1  A    between atoms: C_3  and  C_53
    2  A    between atoms: C_5  and  C_13
    3  A    between atoms: C_7  and  C_43
    4  A    between atoms: C_7  and  C_67
    5  A    between atoms: C_11  and  N_26
    6  A    between atoms: C_21  and  C_43
    7  A    between atoms: N_26  and  C_27
    8  A    between atoms: C_27  and  C_48
    9  A    between atoms: C_28  and  C_41
   10  A    between atoms: C_30  and  C_35
   11  A    between atoms: C_30  and  C_38
   12  A    between atoms: C_32  and  C_44
   13  A    between atoms: C_32  and  C_55
   14  A    between atoms: C_33  and  C_35
   15  A    between atoms: C_33  and  C_41
   16  A    between atoms: C_37  and  O_40
   17  A    between atoms: C_37  and  C_66
   18  A    between atoms: C_37  and  C_67
   19  A    between atoms: C_43  and  C_65
   20  A    between atoms: C_44  and  C_51
   21  A    between atoms: C_51  and  C_62
   22  A    between atoms: C_59  and  C_60
   23  A    between atoms: C_59  and  C_66
   24  A    between atoms: C_60  and  C_69
                            x       y       z     vdW  Elec       q    Type
                         _______ _______ _______ _____ _____    ______ ____

>  <TORSDO>
F 24

$$$$
=
 OpenBabel10222415103D

 69 75  0  0  1  0  0  0  0  0999 V2000
  187.4440  177.6110  143.1680 C   0  0  0  0  0  0  0  0  0  0  0  0
  185.5010  179.0360  140.5430 C   0  0  2  0  0  3  0  0  0  0  0  0
  184.3760  178.9660  142.8370 C   0  0  1  0  0  3  0  0  0  0  0  0
  192.0960  177.4050  146.2270 F   0  0  0  0  0  0  0  0  0  0  0  0
  188.5790  177.3120  143.8530 C   0  0  0  0  0  0  0  0  0  0  0  0
  189.7910  176.9550  146.0760 C   0  0  0  0  0  0  0  0  0  0  0  0
  186.0790  177.3810  143.7590 C   0  0  0  0  0  2  0  0  0  0  0  0
  188.5810  176.7980  145.2460 C   0  0  0  0  0  0  0  0  0  0  0  0
  186.4620  177.8820  140.8540 C   0  0  1  0  0  3  0  0  0  0  0  0
  189.9140  177.5030  143.2160 C   0  0  0  0  0  0  0  0  0  0  0  0
  191.1570  177.1740  143.9980 C   0  0  0  0  0  2  0  0  0  0  0  0
  190.9770  177.2240  145.4900 C   0  0  0  0  0  0  0  0  0  0  0  0
  188.5580  177.4840  139.8320 C   0  0  1  0  0  3  0  0  0  0  0  0
  188.7860  177.9950  141.1660 N   0  0  0  0  0  0  0  0  0  0  0  0
  191.3140  177.8220  141.1960 C   0  0  0  0  0  1  0  0  0  0  0  0
  187.1110  177.4360  139.6170 N   0  0  0  0  0  2  0  0  0  0  0  0
  185.0600  179.8310  141.7820 C   0  0  0  0  0  2  0  0  0  0  0  0
  187.5470  178.3120  141.8280 C   0  0  2  0  0  3  0  0  0  0  0  0
  187.5700  176.2300  145.7360 O   0  0  0  0  0  0  0  0  0  0  0  0
  189.9960  177.7780  141.9030 C   0  0  0  0  0  0  0  0  0  0  0  0
  185.3260  178.6810  143.9960 C   0  0  0  0  0  2  0  0  0  0  0  0
  183.2610  178.0870  140.3680 C   0  0  0  0  0  0  0  0  0  0  0  0
  182.2060  177.6250  140.9840 C   0  0  0  0  0  3  0  0  0  0  0  0
  184.3230  178.5430  139.7630 C   0  0  0  0  0  3  0  0  0  0  0  0
  180.9220  177.3930  140.2600 C   0  0  1  0  0  3  0  0  0  0  0  0
  179.4860  176.8450  142.1220 O   0  0  0  0  0  1  0  0  0  0  0  0
  179.7160  177.7880  141.1180 C   0  0  0  0  0  2  0  0  0  0  0  0
  180.9470  178.1530  138.9390 C   0  0  0  0  0  2  0  0  0  0  0  0
  180.4250  175.9390  138.0040 O   0  0  0  0  0  0  0  0  0  0  0  0
  181.7480  176.1480  137.8640 O   0  0  0  0  0  0  0  0  0  0  0  0
  180.8830  177.2120  137.7450 C   0  0  0  0  0  0  0  0  0  0  0  0
  180.7690  177.7400  136.3060 C   0  0  1  0  0  3  0  0  0  0  0  0
  182.2340  177.7470  134.6350 C   0  0  0  0  0  1  0  0  0  0  0  0
  181.4680  176.8940  135.4340 O   0  0  0  0  0  0  0  0  0  0  0  0
  178.9870  177.1340  134.5970 C   0  0  0  0  0  1  0  0  0  0  0  0
  179.3140  177.9370  135.8510 C   0  0  2  0  0  3  0  0  0  0  0  0
  178.9330  180.0970  136.8660 O   0  0  0  0  0  1  0  0  0  0  0  0
  179.0270  179.4270  135.6410 C   0  0  1  0  0  3  0  0  0  0  0  0
  180.0910  180.0610  134.7520 C   0  0  0  0  0  2  0  0  0  0  0  0
  181.2190  182.1760  134.6540 O   0  0  0  0  0  1  0  0  0  0  0  0
  179.9570  181.5760  134.7110 C   0  0  0  0  0  2  0  0  0  0  0  0
  182.1170  178.9200  143.8720 C   0  0  0  0  0  2  0  0  0  0  0  0
  183.1140  179.6170  143.3260 C   0  0  0  0  0  3  0  0  0  0  0  0
  189.1950  178.4050  138.8000 C   0  0  0  0  0  2  0  0  0  0  0  0
  191.0100  177.0100  138.1130 O   0  0  0  0  0  1  0  0  0  0  0  0
  189.8170  177.5970  137.6770 C   0  0  1  0  0  3  0  0  0  0  0  0
  188.8420  176.5170  137.2500 C   0  0  0  0  0  2  0  0  0  0  0  0
  187.8560  177.0740  136.2350 C   0  0  1  0  0  3  0  0  0  0  0  0
  188.5690  178.1270  135.3990 C   0  0  0  0  0  1  0  0  0  0  0  0
  187.8020  172.3110  135.8850 C   0  0  0  0  0  2  0  0  0  0  0  0
  186.1830  172.8790  137.7620 N   0  0  0  0  0  2  0  0  0  0  0  0
  185.8380  174.2080  135.6800 C   0  0  2  0  0  3  0  0  0  0  0  0
  187.3060  175.9520  135.3480 C   0  0  2  0  0  3  0  0  0  0  0  0
  188.2090  173.7920  135.7790 C   0  0  0  0  0  2  0  0  0  0  0  0
  185.9280  176.3230  134.8190 C   0  0  0  0  0  2  0  0  0  0  0  0
  187.1280  174.7300  136.1210 N   0  0  2  0  0  0  0  0  0  0  0  0
  184.9910  175.3300  135.3150 N   0  0  0  0  0  2  0  0  0  0  0  0
  185.1940  173.3630  136.7820 C   0  0  1  0  0  3  0  0  0  0  0  0
  187.1590  171.9130  137.2240 C   0  0  0  0  0  2  0  0  0  0  0  0
  184.3720  172.2280  136.1840 C   0  0  0  0  0  2  0  0  0  0  0  0
  183.1540  171.9510  137.0490 C   0  0  0  0  0  2  0  0  0  0  0  0
  181.9820  172.8190  136.6150 C   0  0  0  0  0  2  0  0  0  0  0  0
  180.5730  170.9050  136.8270 O   0  0  0  0  0  0  0  0  0  0  0  0
  179.6100  172.9070  137.3860 O   0  0  0  0  0  1  0  0  0  0  0  0
  180.6830  172.1530  136.9320 C   0  0  0  0  0  0  0  0  0  0  0  0
  189.6370  176.8670  147.5040 N   0  0  0  0  0  2  0  0  0  0  0  0
  189.4550  177.9870  148.4200 C   0  0  0  0  0  2  0  0  0  0  0  0
  187.2320  178.3720  147.5090 N   0  0  0  0  0  1  0  0  0  0  0  0
  187.9820  178.1780  148.7370 C   0  0  0  0  0  2  0  0  0  0  0  0
  1  7  1  0  0  0  0
  1  5  2  0  0  0  0
  2 24  1  1  0  0  0
  2  9  1  0  0  0  0
  2 17  1  0  0  0  0
  3 43  1  1  0  0  0
  3 21  1  0  0  0  0
  5  8  1  0  0  0  0
  6 66  1  0  0  0  0
  7 21  1  0  0  0  0
  8 19  2  0  0  0  0
  8  6  1  0  0  0  0
  9 16  1  6  0  0  0
  9 18  1  0  0  0  0
 10  5  1  0  0  0  0
 10 11  1  0  0  0  0
 11 12  1  0  0  0  0
 12  6  2  0  0  0  0
 12  4  1  0  0  0  0
 13 44  1  6  0  0  0
 13 14  1  0  0  0  0
 14 18  1  0  0  0  0
 14 20  1  0  0  0  0
 15 20  1  0  0  0  0
 16 13  1  0  0  0  0
 17  3  1  0  0  0  0
 18  1  1  1  0  0  0
 20 10  2  0  0  0  0
 22 23  2  0  0  0  0
 24 22  2  0  0  0  0
 25 28  1  6  0  0  0
 25 23  1  0  0  0  0
 25 27  1  0  0  0  0
 27 26  1  0  0  0  0
 30 29  1  0  0  0  0
 31 30  1  0  0  0  0
 31 29  1  0  0  0  0
 31 28  1  0  0  0  0
 32 34  1  6  0  0  0
 32 31  1  0  0  0  0
 33 34  1  0  0  0  0
 36 35  1  6  0  0  0
 36 32  1  0  0  0  0
 38 36  1  0  0  0  0
 38 37  1  1  0  0  0
 39 38  1  0  0  0  0
 40 41  1  0  0  0  0
 41 39  1  0  0  0  0
 43 42  2  0  0  0  0
 46 45  1  1  0  0  0
 46 44  1  0  0  0  0
 47 46  1  0  0  0  0
 48 49  1  6  0  0  0
 48 47  1  0  0  0  0
 50 59  1  0  0  0  0
 52 57  1  1  0  0  0
 52 56  1  0  0  0  0
 52 58  1  0  0  0  0
 53 56  1  0  0  0  0
 53 48  1  1  0  0  0
 54 50  1  0  0  0  0
 55 57  1  0  0  0  0
 55 53  1  0  0  0  0
 56 54  1  6  0  0  0
 58 60  1  6  0  0  0
 58 51  1  0  0  0  0
 59 51  1  0  0  0  0
 60 61  1  0  0  0  0
 62 65  1  0  0  0  0
 62 61  1  0  0  0  0
 63 65  2  0  0  0  0
 65 64  1  0  0  0  0
 66 67  1  0  0  0  0
 67 69  1  0  0  0  0
 68 69  1  0  0  0  0
M  END
>  <MODEL>
3

>  <REMARK>
 VINA RESULT:      -4.7      3.870      8.825
  Name = 
  24 active torsions:
  status: ('A' for Active; 'I' for Inactive)
    1  A    between atoms: C_3  and  C_53
    2  A    between atoms: C_5  and  C_13
    3  A    between atoms: C_7  and  C_43
    4  A    between atoms: C_7  and  C_67
    5  A    between atoms: C_11  and  N_26
    6  A    between atoms: C_21  and  C_43
    7  A    between atoms: N_26  and  C_27
    8  A    between atoms: C_27  and  C_48
    9  A    between atoms: C_28  and  C_41
   10  A    between atoms: C_30  and  C_35
   11  A    between atoms: C_30  and  C_38
   12  A    between atoms: C_32  and  C_44
   13  A    between atoms: C_32  and  C_55
   14  A    between atoms: C_33  and  C_35
   15  A    between atoms: C_33  and  C_41
   16  A    between atoms: C_37  and  O_40
   17  A    between atoms: C_37  and  C_66
   18  A    between atoms: C_37  and  C_67
   19  A    between atoms: C_43  and  C_65
   20  A    between atoms: C_44  and  C_51
   21  A    between atoms: C_51  and  C_62
   22  A    between atoms: C_59  and  C_60
   23  A    between atoms: C_59  and  C_66
   24  A    between atoms: C_60  and  C_69
                            x       y       z     vdW  Elec       q    Type
                         _______ _______ _______ _____ _____    ______ ____

>  <TORSDO>
F 24

$$$$
=
 OpenBabel10222415103D

 69 75  0  0  1  0  0  0  0  0999 V2000
  189.2350  175.0850  136.3440 C   0  0  0  0  0  0  0  0  0  0  0  0
  186.1540  176.6020  137.2910 C   0  0  2  0  0  3  0  0  0  0  0  0
  185.9580  174.3270  136.1440 C   0  0  1  0  0  3  0  0  0  0  0  0
  194.3370  173.2250  137.5920 F   0  0  0  0  0  0  0  0  0  0  0  0
  190.5540  174.7780  136.4520 C   0  0  0  0  0  0  0  0  0  0  0  0
  192.4660  173.1030  136.1700 C   0  0  0  0  0  0  0  0  0  0  0  0
  188.3360  174.3780  135.3660 C   0  0  0  0  0  2  0  0  0  0  0  0
  191.2080  173.6940  135.6750 C   0  0  0  0  0  0  0  0  0  0  0  0
  187.5260  176.9160  136.6840 C   0  0  1  0  0  3  0  0  0  0  0  0
  191.4280  175.5360  137.3950 C   0  0  0  0  0  0  0  0  0  0  0  0
  192.8840  175.1710  137.5050 C   0  0  0  0  0  2  0  0  0  0  0  0
  193.1970  173.7590  137.0960 C   0  0  0  0  0  0  0  0  0  0  0  0
  189.1560  178.3810  137.5760 C   0  0  1  0  0  3  0  0  0  0  0  0
  189.5950  177.0190  137.7890 N   0  0  0  0  0  0  0  0  0  0  0  0
  191.8570  177.5210  138.8150 C   0  0  0  0  0  1  0  0  0  0  0  0
  187.8530  178.3280  136.9110 N   0  0  0  0  0  2  0  0  0  0  0  0
  185.8750  175.1000  137.4570 C   0  0  0  0  0  2  0  0  0  0  0  0
  188.6200  176.0710  137.3170 C   0  0  2  0  0  3  0  0  0  0  0  0
  190.7110  173.2680  134.6000 O   0  0  0  0  0  0  0  0  0  0  0  0
  190.9650  176.6490  137.9890 C   0  0  0  0  0  0  0  0  0  0  0  0
  187.2670  173.5490  136.0620 C   0  0  0  0  0  2  0  0  0  0  0  0
  183.8200  177.1820  136.8840 C   0  0  0  0  0  0  0  0  0  0  0  0
  182.5740  177.0750  137.2590 C   0  0  0  0  0  3  0  0  0  0  0  0
  185.0670  177.2770  136.5140 C   0  0  0  0  0  3  0  0  0  0  0  0
  181.5110  177.9520  136.6860 C   0  0  1  0  0  3  0  0  0  0  0  0
  180.7980  178.9350  134.5990 O   0  0  0  0  0  1  0  0  0  0  0  0
  181.4510  177.8350  135.1600 C   0  0  0  0  0  2  0  0  0  0  0  0
  180.1740  177.6050  137.3300 C   0  0  0  0  0  2  0  0  0  0  0  0
  180.1020  176.7860  139.6480 O   0  0  0  0  0  0  0  0  0  0  0  0
  178.9970  177.5260  139.4330 O   0  0  0  0  0  0  0  0  0  0  0  0
  180.1770  177.8880  138.8250 C   0  0  0  0  0  0  0  0  0  0  0  0
  180.7830  179.1790  139.4020 C   0  0  1  0  0  3  0  0  0  0  0  0
  181.9020  178.9630  141.3090 C   0  0  0  0  0  1  0  0  0  0  0  0
  182.0570  178.9130  139.9220 O   0  0  0  0  0  0  0  0  0  0  0  0
  182.0930  181.1620  138.5000 C   0  0  0  0  0  1  0  0  0  0  0  0
  180.8190  180.3320  138.3860 C   0  0  2  0  0  3  0  0  0  0  0  0
  179.3000  181.4540  139.8940 O   0  0  0  0  0  1  0  0  0  0  0  0
  179.5740  181.2100  138.5440 C   0  0  1  0  0  3  0  0  0  0  0  0
  179.7350  182.5160  137.7750 C   0  0  0  0  0  2  0  0  0  0  0  0
  180.4040  182.8850  135.5000 O   0  0  0  0  0  1  0  0  0  0  0  0
  179.3930  182.3460  136.3020 C   0  0  0  0  0  2  0  0  0  0  0  0
  183.5490  173.7600  136.3680 C   0  0  0  0  0  2  0  0  0  0  0  0
  184.7780  173.4110  135.9880 C   0  0  0  0  0  3  0  0  0  0  0  0
  189.0180  179.1040  138.9080 C   0  0  0  0  0  2  0  0  0  0  0  0
  188.7560  177.1020  140.1880 O   0  0  0  0  0  1  0  0  0  0  0  0
  188.1360  178.3120  139.8550 C   0  0  1  0  0  3  0  0  0  0  0  0
  187.9040  179.1310  141.1110 C   0  0  0  0  0  2  0  0  0  0  0  0
  186.6430  178.6600  141.8160 C   0  0  1  0  0  3  0  0  0  0  0  0
  185.7280  178.0130  140.7880 C   0  0  0  0  0  1  0  0  0  0  0  0
  189.9700  175.4600  143.0440 C   0  0  0  0  0  2  0  0  0  0  0  0
  191.0200  177.7380  143.4650 N   0  0  0  0  0  2  0  0  0  0  0  0
  188.7340  177.4750  144.4280 C   0  0  2  0  0  3  0  0  0  0  0  0
  186.9900  177.6730  142.9370 C   0  0  2  0  0  3  0  0  0  0  0  0
  188.7340  176.1380  142.4230 C   0  0  0  0  0  2  0  0  0  0  0  0
  186.5870  178.2450  144.2890 C   0  0  0  0  0  2  0  0  0  0  0  0
  188.4280  177.4570  143.0000 N   0  0  2  0  0  0  0  0  0  0  0  0
  187.7960  178.3680  145.0850 N   0  0  0  0  0  2  0  0  0  0  0  0
  190.1800  177.9200  144.6620 C   0  0  1  0  0  3  0  0  0  0  0  0
  191.2360  176.3320  143.0750 C   0  0  0  0  0  2  0  0  0  0  0  0
  190.7660  177.2310  145.8880 C   0  0  0  0  0  2  0  0  0  0  0  0
  190.1590  177.8100  147.1550 C   0  0  0  0  0  2  0  0  0  0  0  0
  189.2930  176.7730  147.8540 C   0  0  0  0  0  2  0  0  0  0  0  0
  187.9930  178.6670  148.4990 O   0  0  0  0  0  0  0  0  0  0  0  0
  187.0750  176.6250  148.9890 O   0  0  0  0  0  1  0  0  0  0  0  0
  188.0960  177.4130  148.4770 C   0  0  0  0  0  0  0  0  0  0  0  0
  192.8330  171.8040  135.6730 N   0  0  0  0  0  2  0  0  0  0  0  0
  193.9170  171.5140  134.7410 C   0  0  0  0  0  2  0  0  0  0  0  0
  195.6040  169.8470  135.2820 N   0  0  0  0  0  1  0  0  0  0  0  0
  195.2020  171.2260  135.4960 C   0  0  0  0  0  2  0  0  0  0  0  0
  1  5  2  0  0  0  0
  2 24  1  6  0  0  0
  2 17  1  0  0  0  0
  3 43  1  1  0  0  0
  3 17  1  0  0  0  0
  5 10  1  0  0  0  0
  6 12  2  0  0  0  0
  7 21  1  0  0  0  0
  7  1  1  0  0  0  0
  8  6  1  0  0  0  0
  8  5  1  0  0  0  0
  9 16  1  1  0  0  0
  9  2  1  0  0  0  0
  9 18  1  0  0  0  0
 10 11  1  0  0  0  0
 10 20  2  0  0  0  0
 12 11  1  0  0  0  0
 12  4  1  0  0  0  0
 13 14  1  0  0  0  0
 13 44  1  1  0  0  0
 14 20  1  0  0  0  0
 16 13  1  0  0  0  0
 18  1  1  6  0  0  0
 18 14  1  0  0  0  0
 19  8  2  0  0  0  0
 20 15  1  0  0  0  0
 21  3  1  0  0  0  0
 22 23  2  0  0  0  0
 24 22  2  0  0  0  0
 25 27  1  6  0  0  0
 25 23  1  0  0  0  0
 25 28  1  0  0  0  0
 26 27  1  0  0  0  0
 28 31  1  0  0  0  0
 30 29  1  0  0  0  0
 31 32  1  0  0  0  0
 31 30  1  0  0  0  0
 31 29  1  0  0  0  0
 32 34  1  6  0  0  0
 34 33  1  0  0  0  0
 36 35  1  1  0  0  0
 36 38  1  0  0  0  0
 36 32  1  0  0  0  0
 38 37  1  1  0  0  0
 39 38  1  0  0  0  0
 40 41  1  0  0  0  0
 41 39  1  0  0  0  0
 43 42  2  0  0  0  0
 44 46  1  0  0  0  0
 46 45  1  1  0  0  0
 46 47  1  0  0  0  0
 47 48  1  0  0  0  0
 48 49  1  6  0  0  0
 50 59  1  0  0  0  0
 51 58  1  0  0  0  0
 52 58  1  0  0  0  0
 52 57  1  1  0  0  0
 53 48  1  6  0  0  0
 53 56  1  0  0  0  0
 53 55  1  0  0  0  0
 54 50  1  0  0  0  0
 55 57  1  0  0  0  0
 56 54  1  1  0  0  0
 56 52  1  0  0  0  0
 58 60  1  1  0  0  0
 59 51  1  0  0  0  0
 60 61  1  0  0  0  0
 61 62  1  0  0  0  0
 62 65  1  0  0  0  0
 65 63  2  0  0  0  0
 65 64  1  0  0  0  0
 66  6  1  0  0  0  0
 67 69  1  0  0  0  0
 67 66  1  0  0  0  0
 68 69  1  0  0  0  0
M  END
>  <MODEL>
4

>  <REMARK>
 VINA RESULT:      -4.6      1.985      3.089
  Name = 
  24 active torsions:
  status: ('A' for Active; 'I' for Inactive)
    1  A    between atoms: C_3  and  C_53
    2  A    between atoms: C_5  and  C_13
    3  A    between atoms: C_7  and  C_43
    4  A    between atoms: C_7  and  C_67
    5  A    between atoms: C_11  and  N_26
    6  A    between atoms: C_21  and  C_43
    7  A    between atoms: N_26  and  C_27
    8  A    between atoms: C_27  and  C_48
    9  A    between atoms: C_28  and  C_41
   10  A    between atoms: C_30  and  C_35
   11  A    between atoms: C_30  and  C_38
   12  A    between atoms: C_32  and  C_44
   13  A    between atoms: C_32  and  C_55
   14  A    between atoms: C_33  and  C_35
   15  A    between atoms: C_33  and  C_41
   16  A    between atoms: C_37  and  O_40
   17  A    between atoms: C_37  and  C_66
   18  A    between atoms: C_37  and  C_67
   19  A    between atoms: C_43  and  C_65
   20  A    between atoms: C_44  and  C_51
   21  A    between atoms: C_51  and  C_62
   22  A    between atoms: C_59  and  C_60
   23  A    between atoms: C_59  and  C_66
   24  A    between atoms: C_60  and  C_69
                            x       y       z     vdW  Elec       q    Type
                         _______ _______ _______ _____ _____    ______ ____

>  <TORSDO>
F 24

$$$$
=
 OpenBabel10222415103D

 69 75  0  0  1  0  0  0  0  0999 V2000
  189.2890  175.0870  136.3540 C   0  0  0  0  0  0  0  0  0  0  0  0
  186.2230  176.6430  137.2890 C   0  0  2  0  0  3  0  0  0  0  0  0
  186.0020  174.3910  136.1000 C   0  0  1  0  0  3  0  0  0  0  0  0
  194.3420  173.1170  137.6330 F   0  0  0  0  0  0  0  0  0  0  0  0
  190.6020  174.7560  136.4730 C   0  0  0  0  0  0  0  0  0  0  0  0
  192.4870  173.0510  136.1870 C   0  0  0  0  0  0  0  0  0  0  0  0
  188.3900  174.4130  135.3530 C   0  0  0  0  0  2  0  0  0  0  0  0
  191.2460  173.6730  135.6860 C   0  0  0  0  0  0  0  0  0  0  0  0
  187.6080  176.9430  136.7030 C   0  0  1  0  0  3  0  0  0  0  0  0
  191.4770  175.4820  137.4390 C   0  0  0  0  0  0  0  0  0  0  0  0
  192.9250  175.0890  137.5610 C   0  0  0  0  0  2  0  0  0  0  0  0
  193.2180  173.6790  137.1330 C   0  0  0  0  0  0  0  0  0  0  0  0
  189.2530  178.3630  137.6400 C   0  0  1  0  0  3  0  0  0  0  0  0
  189.6650  176.9900  137.8360 N   0  0  0  0  0  0  0  0  0  0  0  0
  191.9220  177.4350  138.8990 C   0  0  0  0  0  1  0  0  0  0  0  0
  187.9570  178.3440  136.9590 N   0  0  0  0  0  2  0  0  0  0  0  0
  185.9160  175.1430  137.4260 C   0  0  0  0  0  2  0  0  0  0  0  0
  188.6790  176.0670  137.3360 C   0  0  2  0  0  3  0  0  0  0  0  0
  190.7550  173.2740  134.5980 O   0  0  0  0  0  0  0  0  0  0  0  0
  191.0260  176.5920  138.0470 C   0  0  0  0  0  0  0  0  0  0  0  0
  187.2980  173.5910  136.0210 C   0  0  0  0  0  2  0  0  0  0  0  0
  183.9020  177.2360  136.8380 C   0  0  0  0  0  0  0  0  0  0  0  0
  182.6450  177.1110  137.1700 C   0  0  0  0  0  3  0  0  0  0  0  0
  185.1590  177.3500  136.5090 C   0  0  0  0  0  3  0  0  0  0  0  0
  181.5960  178.0100  136.6040 C   0  0  1  0  0  3  0  0  0  0  0  0
  182.1830  176.8090  134.5940 O   0  0  0  0  0  1  0  0  0  0  0  0
  181.6060  177.9870  135.0720 C   0  0  0  0  0  2  0  0  0  0  0  0
  180.2380  177.6110  137.1650 C   0  0  0  0  0  2  0  0  0  0  0  0
  180.0000  176.6990  139.4370 O   0  0  0  0  0  0  0  0  0  0  0  0
  178.9350  177.4860  139.1910 O   0  0  0  0  0  0  0  0  0  0  0  0
  180.1600  177.8310  138.6690 C   0  0  0  0  0  0  0  0  0  0  0  0
  180.7710  179.0750  139.3360 C   0  0  1  0  0  3  0  0  0  0  0  0
  180.9020  181.1110  138.4570 C   0  0  0  0  0  1  0  0  0  0  0  0
  180.0030  180.2050  139.0240 O   0  0  0  0  0  0  0  0  0  0  0  0
  180.3030  180.0580  141.6330 C   0  0  0  0  0  1  0  0  0  0  0  0
  180.9480  178.9170  140.8550 C   0  0  2  0  0  3  0  0  0  0  0  0
  183.2300  179.4080  140.2310 O   0  0  0  0  0  1  0  0  0  0  0  0
  182.4350  178.7860  141.1990 C   0  0  1  0  0  3  0  0  0  0  0  0
  182.7180  179.3530  142.5860 C   0  0  0  0  0  2  0  0  0  0  0  0
  182.8800  178.7440  144.9010 O   0  0  0  0  0  1  0  0  0  0  0  0
  182.2890  178.3910  143.6830 C   0  0  0  0  0  2  0  0  0  0  0  0
  184.1520  172.9620  136.9430 C   0  0  0  0  0  2  0  0  0  0  0  0
  184.8090  173.4980  135.9140 C   0  0  0  0  0  3  0  0  0  0  0  0
  189.1100  179.0660  138.9830 C   0  0  0  0  0  2  0  0  0  0  0  0
  188.8320  177.0190  140.1860 O   0  0  0  0  0  1  0  0  0  0  0  0
  188.2330  178.2550  139.9190 C   0  0  1  0  0  3  0  0  0  0  0  0
  188.0500  179.0260  141.2120 C   0  0  0  0  0  2  0  0  0  0  0  0
  186.8190  178.5250  141.9500 C   0  0  1  0  0  3  0  0  0  0  0  0
  185.8860  177.8700  140.9420 C   0  0  0  0  0  1  0  0  0  0  0  0
  190.2610  175.4090  143.0690 C   0  0  0  0  0  2  0  0  0  0  0  0
  191.2540  177.7110  143.4970 N   0  0  0  0  0  2  0  0  0  0  0  0
  188.9970  177.3710  144.5030 C   0  0  2  0  0  3  0  0  0  0  0  0
  187.2170  177.5360  143.0510 C   0  0  2  0  0  3  0  0  0  0  0  0
  188.9940  176.0580  142.4820 C   0  0  0  0  0  2  0  0  0  0  0  0
  186.8270  178.0800  144.4170 C   0  0  0  0  0  2  0  0  0  0  0  0
  188.6630  177.3600  143.0820 N   0  0  2  0  0  0  0  0  0  0  0  0
  188.0480  178.2280  145.1900 N   0  0  0  0  0  2  0  0  0  0  0  0
  190.4340  177.8550  144.7140 C   0  0  1  0  0  3  0  0  0  0  0  0
  191.5020  176.3170  143.0850 C   0  0  0  0  0  2  0  0  0  0  0  0
  191.0650  177.1690  145.9180 C   0  0  0  0  0  2  0  0  0  0  0  0
  190.4770  177.7230  147.2050 C   0  0  0  0  0  2  0  0  0  0  0  0
  189.6050  176.6790  147.8870 C   0  0  0  0  0  2  0  0  0  0  0  0
  187.2950  176.6210  148.4830 O   0  0  0  0  0  0  0  0  0  0  0  0
  188.3690  178.6060  148.8820 O   0  0  0  0  0  1  0  0  0  0  0  0
  188.3530  177.2980  148.4180 C   0  0  0  0  0  0  0  0  0  0  0  0
  192.8380  171.7550  135.6720 N   0  0  0  0  0  2  0  0  0  0  0  0
  193.9370  171.4590  134.7600 C   0  0  0  0  0  2  0  0  0  0  0  0
  196.1650  171.3000  135.7260 N   0  0  0  0  0  1  0  0  0  0  0  0
  194.9540  170.5530  135.4330 C   0  0  0  0  0  2  0  0  0  0  0  0
  1  5  2  0  0  0  0
  2 24  1  6  0  0  0
  2 17  1  0  0  0  0
  3 43  1  1  0  0  0
  3 17  1  0  0  0  0
  5 10  1  0  0  0  0
  6 12  2  0  0  0  0
  7 21  1  0  0  0  0
  7  1  1  0  0  0  0
  8  6  1  0  0  0  0
  8  5  1  0  0  0  0
  9 16  1  1  0  0  0
  9  2  1  0  0  0  0
  9 18  1  0  0  0  0
 10 11  1  0  0  0  0
 10 20  2  0  0  0  0
 12 11  1  0  0  0  0
 12  4  1  0  0  0  0
 13 14  1  0  0  0  0
 13 44  1  1  0  0  0
 14 20  1  0  0  0  0
 16 13  1  0  0  0  0
 18  1  1  6  0  0  0
 18 14  1  0  0  0  0
 19  8  2  0  0  0  0
 20 15  1  0  0  0  0
 21  3  1  0  0  0  0
 22 23  2  0  0  0  0
 24 22  2  0  0  0  0
 25 27  1  6  0  0  0
 25 28  1  0  0  0  0
 25 23  1  0  0  0  0
 26 27  1  0  0  0  0
 28 31  1  0  0  0  0
 30 29  1  0  0  0  0
 31 30  1  0  0  0  0
 31 32  1  0  0  0  0
 31 29  1  0  0  0  0
 32 34  1  1  0  0  0
 32 36  1  0  0  0  0
 33 34  1  0  0  0  0
 36 38  1  0  0  0  0
 36 35  1  1  0  0  0
 38 37  1  6  0  0  0
 38 39  1  0  0  0  0
 39 41  1  0  0  0  0
 41 40  1  0  0  0  0
 43 42  2  0  0  0  0
 44 46  1  0  0  0  0
 46 45  1  1  0  0  0
 46 47  1  0  0  0  0
 47 48  1  0  0  0  0
 48 49  1  6  0  0  0
 50 59  1  0  0  0  0
 51 58  1  0  0  0  0
 52 58  1  0  0  0  0
 52 57  1  1  0  0  0
 53 48  1  6  0  0  0
 53 56  1  0  0  0  0
 53 55  1  0  0  0  0
 54 50  1  0  0  0  0
 55 57  1  0  0  0  0
 56 54  1  1  0  0  0
 56 52  1  0  0  0  0
 58 60  1  1  0  0  0
 59 51  1  0  0  0  0
 60 61  1  0  0  0  0
 61 62  1  0  0  0  0
 62 65  1  0  0  0  0
 65 63  2  0  0  0  0
 65 64  1  0  0  0  0
 66  6  1  0  0  0  0
 67 69  1  0  0  0  0
 67 66  1  0  0  0  0
 69 68  1  0  0  0  0
M  END
>  <MODEL>
5

>  <REMARK>
 VINA RESULT:      -4.6      1.891      3.077
  Name = 
  24 active torsions:
  status: ('A' for Active; 'I' for Inactive)
    1  A    between atoms: C_3  and  C_53
    2  A    between atoms: C_5  and  C_13
    3  A    between atoms: C_7  and  C_43
    4  A    between atoms: C_7  and  C_67
    5  A    between atoms: C_11  and  N_26
    6  A    between atoms: C_21  and  C_43
    7  A    between atoms: N_26  and  C_27
    8  A    between atoms: C_27  and  C_48
    9  A    between atoms: C_28  and  C_41
   10  A    between atoms: C_30  and  C_35
   11  A    between atoms: C_30  and  C_38
   12  A    between atoms: C_32  and  C_44
   13  A    between atoms: C_32  and  C_55
   14  A    between atoms: C_33  and  C_35
   15  A    between atoms: C_33  and  C_41
   16  A    between atoms: C_37  and  O_40
   17  A    between atoms: C_37  and  C_66
   18  A    between atoms: C_37  and  C_67
   19  A    between atoms: C_43  and  C_65
   20  A    between atoms: C_44  and  C_51
   21  A    between atoms: C_51  and  C_62
   22  A    between atoms: C_59  and  C_60
   23  A    between atoms: C_59  and  C_66
   24  A    between atoms: C_60  and  C_69
                            x       y       z     vdW  Elec       q    Type
                         _______ _______ _______ _____ _____    ______ ____

>  <TORSDO>
F 24

$$$$
=
 OpenBabel10222415103D

 69 75  0  0  1  0  0  0  0  0999 V2000
  192.3080  174.5350  136.3190 C   0  0  0  0  0  0  0  0  0  0  0  0
  188.7960  174.7650  136.8760 C   0  0  2  0  0  3  0  0  0  0  0  0
  189.5410  172.9230  135.2680 C   0  0  1  0  0  3  0  0  0  0  0  0
  197.5180  174.0060  138.2200 F   0  0  0  0  0  0  0  0  0  0  0  0
  193.6250  174.6150  136.6420 C   0  0  0  0  0  0  0  0  0  0  0  0
  196.0110  173.7170  136.4360 C   0  0  0  0  0  0  0  0  0  0  0  0
  191.8430  173.8790  135.0470 C   0  0  0  0  0  2  0  0  0  0  0  0
  194.7070  174.0190  135.8160 C   0  0  0  0  0  0  0  0  0  0  0  0
  190.0500  175.6200  136.6550 C   0  0  1  0  0  3  0  0  0  0  0  0
  194.0540  175.3190  137.8850 C   0  0  0  0  0  0  0  0  0  0  0  0
  195.5190  175.3850  138.2270 C   0  0  0  0  0  2  0  0  0  0  0  0
  196.3440  174.2890  137.6130 C   0  0  0  0  0  0  0  0  0  0  0  0
  190.9500  177.2100  138.1580 C   0  0  1  0  0  3  0  0  0  0  0  0
  191.7910  176.0330  138.1750 N   0  0  0  0  0  0  0  0  0  0  0  0
  193.5870  176.8910  139.7430 C   0  0  0  0  0  1  0  0  0  0  0  0
  189.8440  176.9520  137.2340 N   0  0  0  0  0  2  0  0  0  0  0  0
  189.0240  173.2600  136.6640 C   0  0  0  0  0  2  0  0  0  0  0  0
  191.2690  175.0000  137.3190 C   0  0  2  0  0  3  0  0  0  0  0  0
  194.5340  173.7660  134.5950 O   0  0  0  0  0  0  0  0  0  0  0  0
  193.1650  176.0450  138.5830 C   0  0  0  0  0  0  0  0  0  0  0  0
  191.0350  172.6170  135.3100 C   0  0  0  0  0  2  0  0  0  0  0  0
  186.4690  174.7510  136.1470 C   0  0  0  0  0  0  0  0  0  0  0  0
  185.2810  174.2210  136.2560 C   0  0  0  0  0  3  0  0  0  0  0  0
  187.6620  175.2690  136.0400 C   0  0  0  0  0  3  0  0  0  0  0  0
  184.0790  174.8740  135.6580 C   0  0  1  0  0  3  0  0  0  0  0  0
  183.3170  172.5920  135.4470 O   0  0  0  0  0  1  0  0  0  0  0  0
  183.2220  173.8670  134.8840 C   0  0  0  0  0  2  0  0  0  0  0  0
  183.2840  175.5640  136.7580 C   0  0  0  0  0  2  0  0  0  0  0  0
  184.4110  177.5530  135.8540 O   0  0  0  0  0  0  0  0  0  0  0  0
  184.6600  177.4990  137.1760 O   0  0  0  0  0  0  0  0  0  0  0  0
  183.4380  177.0770  136.7040 C   0  0  0  0  0  0  0  0  0  0  0  0
  182.2850  178.0210  137.0810 C   0  0  1  0  0  3  0  0  0  0  0  0
  180.9000  178.9120  135.5900 C   0  0  0  0  0  1  0  0  0  0  0  0
  181.1610  177.7340  136.2950 O   0  0  0  0  0  0  0  0  0  0  0  0
  181.8350  176.5620  139.1150 C   0  0  0  0  0  1  0  0  0  0  0  0
  181.9460  177.9860  138.5800 C   0  0  2  0  0  3  0  0  0  0  0  0
  179.6870  177.9640  139.4400 O   0  0  0  0  0  1  0  0  0  0  0  0
  180.6600  178.7760  138.8460 C   0  0  1  0  0  3  0  0  0  0  0  0
  180.9500  180.0000  139.7060 C   0  0  0  0  0  2  0  0  0  0  0  0
  180.5350  181.2360  137.6920 O   0  0  0  0  0  1  0  0  0  0  0  0
  181.3080  181.2100  138.8570 C   0  0  0  0  0  2  0  0  0  0  0  0
  188.3720  170.7350  135.4080 C   0  0  0  0  0  2  0  0  0  0  0  0
  188.7750  171.7740  134.6770 C   0  0  0  0  0  3  0  0  0  0  0  0
  190.3950  177.4800  139.5500 C   0  0  0  0  0  2  0  0  0  0  0  0
  189.0340  178.8700  138.1610 O   0  0  0  0  0  1  0  0  0  0  0  0
  189.2310  178.4510  139.4820 C   0  0  1  0  0  3  0  0  0  0  0  0
  187.9830  177.7570  139.9900 C   0  0  0  0  0  2  0  0  0  0  0  0
  187.5490  178.3660  141.3140 C   0  0  1  0  0  3  0  0  0  0  0  0
  186.1710  178.9840  141.1320 C   0  0  0  0  0  1  0  0  0  0  0  0
  190.4940  175.5530  143.8100 C   0  0  0  0  0  2  0  0  0  0  0  0
  190.7760  177.8840  144.7890 N   0  0  0  0  0  2  0  0  0  0  0  0
  188.4010  177.1620  144.5420 C   0  0  2  0  0  3  0  0  0  0  0  0
  187.5280  177.3000  142.4150 C   0  0  2  0  0  3  0  0  0  0  0  0
  189.5730  176.1190  142.7130 C   0  0  0  0  0  2  0  0  0  0  0  0
  186.4520  177.6200  143.4420 C   0  0  0  0  0  2  0  0  0  0  0  0
  188.7910  177.2900  143.1410 N   0  0  2  0  0  0  0  0  0  0  0  0
  187.1160  177.8120  144.7200 N   0  0  0  0  0  2  0  0  0  0  0  0
  189.4650  177.7790  145.4540 C   0  0  1  0  0  3  0  0  0  0  0  0
  191.4130  176.5890  144.4790 C   0  0  0  0  0  2  0  0  0  0  0  0
  189.5480  177.0260  146.7760 C   0  0  0  0  0  2  0  0  0  0  0  0
  190.7770  177.4650  147.5530 C   0  0  0  0  0  2  0  0  0  0  0  0
  192.0260  176.7920  147.0030 C   0  0  0  0  0  2  0  0  0  0  0  0
  193.0270  175.2820  148.5570 O   0  0  0  0  0  1  0  0  0  0  0  0
  191.4510  174.3690  147.1660 O   0  0  0  0  0  0  0  0  0  0  0  0
  192.2120  175.4410  147.6120 C   0  0  0  0  0  0  0  0  0  0  0  0
  196.8610  172.7650  135.7720 N   0  0  0  0  0  2  0  0  0  0  0  0
  196.9560  171.3400  136.0720 C   0  0  0  0  0  2  0  0  0  0  0  0
  196.0080  169.6340  134.6200 N   0  0  0  0  0  1  0  0  0  0  0  0
  195.6910  170.6220  135.6360 C   0  0  0  0  0  2  0  0  0  0  0  0
  1  5  2  0  0  0  0
  2 24  1  6  0  0  0
  3 43  1  1  0  0  0
  3 21  1  0  0  0  0
  3 17  1  0  0  0  0
  5 10  1  0  0  0  0
  6 12  2  0  0  0  0
  7 21  1  0  0  0  0
  7  1  1  0  0  0  0
  8  6  1  0  0  0  0
  8  5  1  0  0  0  0
  9  2  1  0  0  0  0
  9 16  1  1  0  0  0
  9 18  1  0  0  0  0
 10 11  1  0  0  0  0
 10 20  2  0  0  0  0
 12  4  1  0  0  0  0
 12 11  1  0  0  0  0
 13 14  1  0  0  0  0
 13 44  1  1  0  0  0
 14 20  1  0  0  0  0
 16 13  1  0  0  0  0
 17  2  1  0  0  0  0
 18  1  1  6  0  0  0
 18 14  1  0  0  0  0
 19  8  2  0  0  0  0
 20 15  1  0  0  0  0
 22 23  2  0  0  0  0
 24 22  2  0  0  0  0
 25 27  1  1  0  0  0
 25 23  1  0  0  0  0
 25 28  1  0  0  0  0
 27 26  1  0  0  0  0
 29 31  1  0  0  0  0
 29 30  1  0  0  0  0
 31 28  1  0  0  0  0
 31 32  1  0  0  0  0
 31 30  1  0  0  0  0
 32 34  1  6  0  0  0
 32 36  1  0  0  0  0
 33 34  1  0  0  0  0
 36 38  1  0  0  0  0
 36 35  1  6  0  0  0
 38 37  1  1  0  0  0
 38 39  1  0  0  0  0
 40 41  1  0  0  0  0
 41 39  1  0  0  0  0
 43 42  2  0  0  0  0
 46 45  1  6  0  0  0
 46 44  1  0  0  0  0
 46 47  1  0  0  0  0
 47 48  1  0  0  0  0
 48 49  1  6  0  0  0
 50 59  1  0  0  0  0
 51 58  1  0  0  0  0
 52 57  1  6  0  0  0
 52 58  1  0  0  0  0
 53 48  1  6  0  0  0
 53 56  1  0  0  0  0
 53 55  1  0  0  0  0
 54 50  1  0  0  0  0
 55 57  1  0  0  0  0
 56 54  1  6  0  0  0
 56 52  1  0  0  0  0
 58 60  1  1  0  0  0
 59 51  1  0  0  0  0
 60 61  1  0  0  0  0
 62 61  1  0  0  0  0
 62 65  1  0  0  0  0
 64 65  2  0  0  0  0
 65 63  1  0  0  0  0
 66 67  1  0  0  0  0
 66  6  1  0  0  0  0
 68 69  1  0  0  0  0
 69 67  1  0  0  0  0
M  END
>  <MODEL>
6

>  <REMARK>
 VINA RESULT:      -4.3      1.745      2.150
  Name = 
  24 active torsions:
  status: ('A' for Active; 'I' for Inactive)
    1  A    between atoms: C_3  and  C_53
    2  A    between atoms: C_5  and  C_13
    3  A    between atoms: C_7  and  C_43
    4  A    between atoms: C_7  and  C_67
    5  A    between atoms: C_11  and  N_26
    6  A    between atoms: C_21  and  C_43
    7  A    between atoms: N_26  and  C_27
    8  A    between atoms: C_27  and  C_48
    9  A    between atoms: C_28  and  C_41
   10  A    between atoms: C_30  and  C_35
   11  A    between atoms: C_30  and  C_38
   12  A    between atoms: C_32  and  C_44
   13  A    between atoms: C_32  and  C_55
   14  A    between atoms: C_33  and  C_35
   15  A    between atoms: C_33  and  C_41
   16  A    between atoms: C_37  and  O_40
   17  A    between atoms: C_37  and  C_66
   18  A    between atoms: C_37  and  C_67
   19  A    between atoms: C_43  and  C_65
   20  A    between atoms: C_44  and  C_51
   21  A    between atoms: C_51  and  C_62
   22  A    between atoms: C_59  and  C_60
   23  A    between atoms: C_59  and  C_66
   24  A    between atoms: C_60  and  C_69
                            x       y       z     vdW  Elec       q    Type
                         _______ _______ _______ _____ _____    ______ ____

>  <TORSDO>
F 24

$$$$
=
 OpenBabel10222415103D

 69 75  0  0  1  0  0  0  0  0999 V2000
  188.5480  178.0980  143.7660 C   0  0  0  0  0  0  0  0  0  0  0  0
  187.8410  177.3980  140.3450 C   0  0  2  0  0  3  0  0  0  0  0  0
  190.2670  177.0460  141.0650 C   0  0  1  0  0  3  0  0  0  0  0  0
  187.5670  177.3410  149.1980 F   0  0  0  0  0  0  0  0  0  0  0  0
  188.2930  178.1690  145.0990 C   0  0  0  0  0  0  0  0  0  0  0  0
  189.0940  177.9610  147.5190 C   0  0  0  0  0  0  0  0  0  0  0  0
  189.9360  178.2830  143.2150 C   0  0  0  0  0  2  0  0  0  0  0  0
  189.3490  178.3700  146.1240 C   0  0  0  0  0  0  0  0  0  0  0  0
  187.5330  178.3940  141.4700 C   0  0  1  0  0  3  0  0  0  0  0  0
  186.8960  178.0340  145.6060 C   0  0  0  0  0  0  0  0  0  0  0  0
  186.6400  178.1060  147.0870 C   0  0  0  0  0  2  0  0  0  0  0  0
  187.8280  177.7490  147.9350 C   0  0  0  0  0  0  0  0  0  0  0  0
  185.4030  178.8660  142.3860 C   0  0  1  0  0  3  0  0  0  0  0  0
  186.1450  178.0670  143.3360 N   0  0  0  0  0  0  0  0  0  0  0  0
  184.4480  178.0670  145.2180 C   0  0  0  0  0  1  0  0  0  0  0  0
  186.2500  179.0530  141.2060 N   0  0  0  0  0  2  0  0  0  0  0  0
  188.9430  176.3850  140.6940 C   0  0  0  0  0  2  0  0  0  0  0  0
  187.4370  177.6960  142.8170 C   0  0  2  0  0  3  0  0  0  0  0  0
  190.4590  178.8840  145.8280 O   0  0  0  0  0  0  0  0  0  0  0  0
  185.8670  178.0420  144.7420 C   0  0  0  0  0  0  0  0  0  0  0  0
  190.4770  177.0130  142.5760 C   0  0  0  0  0  2  0  0  0  0  0  0
  188.5510  177.4750  138.0130 C   0  0  0  0  0  0  0  0  0  0  0  0
  188.9620  176.8180  136.9620 C   0  0  0  0  0  3  0  0  0  0  0  0
  188.1460  178.1220  139.0710 C   0  0  0  0  0  3  0  0  0  0  0  0
  189.0030  177.4560  135.6130 C   0  0  1  0  0  3  0  0  0  0  0  0
  187.2520  179.1160  135.7050 O   0  0  0  0  0  1  0  0  0  0  0  0
  188.6380  178.9420  135.6850 C   0  0  0  0  0  2  0  0  0  0  0  0
  190.3810  177.2430  135.0000 C   0  0  0  0  0  2  0  0  0  0  0  0
  190.2620  174.8210  134.5950 O   0  0  0  0  0  0  0  0  0  0  0  0
  189.9810  175.0400  135.8940 O   0  0  0  0  0  0  0  0  0  0  0  0
  190.9060  175.8390  135.2620 C   0  0  0  0  0  0  0  0  0  0  0  0
  192.3450  175.5910  135.7410 C   0  0  1  0  0  3  0  0  0  0  0  0
  193.9000  176.8590  136.6960 C   0  0  0  0  0  1  0  0  0  0  0  0
  192.6060  176.3650  136.8800 O   0  0  0  0  0  0  0  0  0  0  0  0
  193.0270  173.8280  137.4430 C   0  0  0  0  0  1  0  0  0  0  0  0
  192.6480  174.1050  135.9920 C   0  0  2  0  0  3  0  0  0  0  0  0
  195.0080  173.7470  135.6180 O   0  0  0  0  0  1  0  0  0  0  0  0
  193.7430  173.6230  135.0350 C   0  0  1  0  0  3  0  0  0  0  0  0
  193.4820  172.1860  134.5970 C   0  0  0  0  0  2  0  0  0  0  0  0
  192.9500  169.9750  135.3610 O   0  0  0  0  0  1  0  0  0  0  0  0
  193.2770  171.2650  135.7900 C   0  0  0  0  0  2  0  0  0  0  0  0
  192.5570  177.0240  140.1000 C   0  0  0  0  0  2  0  0  0  0  0  0
  191.4120  176.3880  140.3510 C   0  0  0  0  0  3  0  0  0  0  0  0
  184.1220  178.1490  141.9840 C   0  0  0  0  0  2  0  0  0  0  0  0
  183.6800  177.2220  139.8250 O   0  0  0  0  0  1  0  0  0  0  0  0
  183.7900  178.4270  140.5290 C   0  0  1  0  0  3  0  0  0  0  0  0
  182.4760  179.1810  140.4610 C   0  0  0  0  0  2  0  0  0  0  0  0
  181.3890  178.4040  141.1850 C   0  0  1  0  0  3  0  0  0  0  0  0
  180.6840  179.3470  142.1490 C   0  0  0  0  0  1  0  0  0  0  0  0
  179.8890  178.9360  136.6820 C   0  0  0  0  0  2  0  0  0  0  0  0
  182.1610  177.8030  136.5190 N   0  0  0  0  0  2  0  0  0  0  0  0
  180.6040  176.7380  138.1520 C   0  0  2  0  0  3  0  0  0  0  0  0
  180.3970  177.8050  140.1820 C   0  0  2  0  0  3  0  0  0  0  0  0
  180.0660  179.0870  138.2040 C   0  0  0  0  0  2  0  0  0  0  0  0
  180.2970  176.2990  140.3730 C   0  0  0  0  0  2  0  0  0  0  0  0
  180.8620  178.0120  138.8180 N   0  0  2  0  0  0  0  0  0  0  0  0
  180.7270  175.6760  139.1330 N   0  0  0  0  0  2  0  0  0  0  0  0
  181.5760  176.5330  136.9880 C   0  0  1  0  0  3  0  0  0  0  0  0
  181.1960  178.7300  135.8980 C   0  0  0  0  0  2  0  0  0  0  0  0
  180.9140  175.7530  135.8590 C   0  0  0  0  0  2  0  0  0  0  0  0
  181.8580  174.6820  135.3390 C   0  0  0  0  0  2  0  0  0  0  0  0
  181.8640  173.4770  136.2680 C   0  0  0  0  0  2  0  0  0  0  0  0
  184.2090  173.4810  135.8270 O   0  0  0  0  0  0  0  0  0  0  0  0
  183.4820  171.8760  137.2920 O   0  0  0  0  0  1  0  0  0  0  0  0
  183.2480  172.9410  136.4330 C   0  0  0  0  0  0  0  0  0  0  0  0
  190.2340  177.7500  148.3700 N   0  0  0  0  0  2  0  0  0  0  0  0
  191.5710  177.3570  147.9380 C   0  0  0  0  0  2  0  0  0  0  0  0
  192.7580  175.2710  148.3380 N   0  0  0  0  0  1  0  0  0  0  0  0
  191.6190  175.8640  147.6600 C   0  0  0  0  0  2  0  0  0  0  0  0
  1  5  2  0  0  0  0
  2 24  1  6  0  0  0
  2 17  1  0  0  0  0
  2  9  1  0  0  0  0
  3 43  1  6  0  0  0
  3 21  1  0  0  0  0
  5 10  1  0  0  0  0
  5  8  1  0  0  0  0
  6 12  2  0  0  0  0
  6 66  1  0  0  0  0
  7  1  1  0  0  0  0
  8  6  1  0  0  0  0
  9 16  1  6  0  0  0
  9 18  1  0  0  0  0
 10 11  1  0  0  0  0
 11 12  1  0  0  0  0
 12  4  1  0  0  0  0
 13 44  1  6  0  0  0
 13 14  1  0  0  0  0
 14 20  1  0  0  0  0
 16 13  1  0  0  0  0
 17  3  1  0  0  0  0
 18 14  1  0  0  0  0
 18  1  1  1  0  0  0
 19  8  2  0  0  0  0
 20 15  1  0  0  0  0
 20 10  2  0  0  0  0
 21  7  1  0  0  0  0
 22 24  2  0  0  0  0
 23 22  2  0  0  0  0
 25 28  1  1  0  0  0
 25 27  1  0  0  0  0
 25 23  1  0  0  0  0
 27 26  1  0  0  0  0
 28 31  1  0  0  0  0
 29 31  1  0  0  0  0
 29 30  1  0  0  0  0
 31 32  1  0  0  0  0
 31 30  1  0  0  0  0
 32 36  1  0  0  0  0
 32 34  1  1  0  0  0
 33 34  1  0  0  0  0
 36 35  1  1  0  0  0
 38 37  1  1  0  0  0
 38 36  1  0  0  0  0
 39 38  1  0  0  0  0
 39 41  1  0  0  0  0
 40 41  1  0  0  0  0
 42 43  2  0  0  0  0
 46 45  1  6  0  0  0
 46 44  1  0  0  0  0
 47 46  1  0  0  0  0
 47 48  1  0  0  0  0
 48 49  1  1  0  0  0
 50 54  1  0  0  0  0
 51 58  1  0  0  0  0
 52 56  1  0  0  0  0
 52 57  1  1  0  0  0
 53 55  1  0  0  0  0
 53 48  1  1  0  0  0
 56 54  1  6  0  0  0
 56 53  1  0  0  0  0
 57 55  1  0  0  0  0
 58 60  1  6  0  0  0
 58 52  1  0  0  0  0
 59 51  1  0  0  0  0
 59 50  1  0  0  0  0
 61 60  1  0  0  0  0
 61 62  1  0  0  0  0
 62 65  1  0  0  0  0
 63 65  2  0  0  0  0
 65 64  1  0  0  0  0
 67 66  1  0  0  0  0
 69 67  1  0  0  0  0
 69 68  1  0  0  0  0
M  END
>  <MODEL>
7

>  <REMARK>
 VINA RESULT:      -4.2      3.991     10.704
  Name = 
  24 active torsions:
  status: ('A' for Active; 'I' for Inactive)
    1  A    between atoms: C_3  and  C_53
    2  A    between atoms: C_5  and  C_13
    3  A    between atoms: C_7  and  C_43
    4  A    between atoms: C_7  and  C_67
    5  A    between atoms: C_11  and  N_26
    6  A    between atoms: C_21  and  C_43
    7  A    between atoms: N_26  and  C_27
    8  A    between atoms: C_27  and  C_48
    9  A    between atoms: C_28  and  C_41
   10  A    between atoms: C_30  and  C_35
   11  A    between atoms: C_30  and  C_38
   12  A    between atoms: C_32  and  C_44
   13  A    between atoms: C_32  and  C_55
   14  A    between atoms: C_33  and  C_35
   15  A    between atoms: C_33  and  C_41
   16  A    between atoms: C_37  and  O_40
   17  A    between atoms: C_37  and  C_66
   18  A    between atoms: C_37  and  C_67
   19  A    between atoms: C_43  and  C_65
   20  A    between atoms: C_44  and  C_51
   21  A    between atoms: C_51  and  C_62
   22  A    between atoms: C_59  and  C_60
   23  A    between atoms: C_59  and  C_66
   24  A    between atoms: C_60  and  C_69
                            x       y       z     vdW  Elec       q    Type
                         _______ _______ _______ _____ _____    ______ ____

>  <TORSDO>
F 24

$$$$
=
 OpenBabel10222415103D

 69 75  0  0  1  0  0  0  0  0999 V2000
  192.3080  174.5350  136.3190 C   0  0  0  0  0  0  0  0  0  0  0  0
  188.7960  174.7650  136.8760 C   0  0  2  0  0  3  0  0  0  0  0  0
  189.5410  172.9230  135.2680 C   0  0  1  0  0  3  0  0  0  0  0  0
  197.5180  174.0060  138.2200 F   0  0  0  0  0  0  0  0  0  0  0  0
  193.6250  174.6150  136.6420 C   0  0  0  0  0  0  0  0  0  0  0  0
  196.0110  173.7170  136.4360 C   0  0  0  0  0  0  0  0  0  0  0  0
  191.8430  173.8790  135.0470 C   0  0  0  0  0  2  0  0  0  0  0  0
  194.7070  174.0190  135.8160 C   0  0  0  0  0  0  0  0  0  0  0  0
  190.0500  175.6200  136.6550 C   0  0  1  0  0  3  0  0  0  0  0  0
  194.0540  175.3190  137.8850 C   0  0  0  0  0  0  0  0  0  0  0  0
  195.5190  175.3850  138.2270 C   0  0  0  0  0  2  0  0  0  0  0  0
  196.3440  174.2890  137.6130 C   0  0  0  0  0  0  0  0  0  0  0  0
  190.9500  177.2100  138.1580 C   0  0  1  0  0  3  0  0  0  0  0  0
  191.7910  176.0330  138.1750 N   0  0  0  0  0  0  0  0  0  0  0  0
  193.5870  176.8910  139.7430 C   0  0  0  0  0  1  0  0  0  0  0  0
  189.8440  176.9520  137.2340 N   0  0  0  0  0  2  0  0  0  0  0  0
  189.0240  173.2600  136.6640 C   0  0  0  0  0  2  0  0  0  0  0  0
  191.2690  175.0000  137.3190 C   0  0  2  0  0  3  0  0  0  0  0  0
  194.5340  173.7660  134.5950 O   0  0  0  0  0  0  0  0  0  0  0  0
  193.1650  176.0450  138.5830 C   0  0  0  0  0  0  0  0  0  0  0  0
  191.0350  172.6170  135.3100 C   0  0  0  0  0  2  0  0  0  0  0  0
  186.4690  174.7510  136.1470 C   0  0  0  0  0  0  0  0  0  0  0  0
  185.2810  174.2210  136.2560 C   0  0  0  0  0  3  0  0  0  0  0  0
  187.6620  175.2690  136.0400 C   0  0  0  0  0  3  0  0  0  0  0  0
  184.0790  174.8740  135.6580 C   0  0  1  0  0  3  0  0  0  0  0  0
  182.2190  173.3360  135.7140 O   0  0  0  0  0  1  0  0  0  0  0  0
  183.2170  173.8650  134.8920 C   0  0  0  0  0  2  0  0  0  0  0  0
  183.2890  175.5720  136.7570 C   0  0  0  0  0  2  0  0  0  0  0  0
  183.4210  177.4960  135.2320 O   0  0  0  0  0  0  0  0  0  0  0  0
  183.6960  177.9320  136.4760 O   0  0  0  0  0  0  0  0  0  0  0  0
  182.7700  176.9290  136.3040 C   0  0  0  0  0  0  0  0  0  0  0  0
  181.3290  177.3810  136.5950 C   0  0  1  0  0  3  0  0  0  0  0  0
  179.1750  177.1840  136.0890 C   0  0  0  0  0  1  0  0  0  0  0  0
  180.4360  176.6640  135.7880 O   0  0  0  0  0  0  0  0  0  0  0  0
  180.8890  178.6360  138.7620 C   0  0  0  0  0  1  0  0  0  0  0  0
  180.9540  177.2730  138.0820 C   0  0  2  0  0  3  0  0  0  0  0  0
  182.6280  177.0260  139.8070 O   0  0  0  0  0  1  0  0  0  0  0  0
  181.9320  176.3410  138.8040 C   0  0  1  0  0  3  0  0  0  0  0  0
  181.2020  175.1310  139.3750 C   0  0  0  0  0  2  0  0  0  0  0  0
  179.1410  174.1470  138.6390 O   0  0  0  0  0  1  0  0  0  0  0  0
  180.4800  174.3480  138.2890 C   0  0  0  0  0  2  0  0  0  0  0  0
  187.4700  171.6040  134.8880 C   0  0  0  0  0  2  0  0  0  0  0  0
  188.7750  171.7740  134.6770 C   0  0  0  0  0  3  0  0  0  0  0  0
  190.3950  177.4800  139.5500 C   0  0  0  0  0  2  0  0  0  0  0  0
  189.1240  178.9660  138.1760 O   0  0  0  0  0  1  0  0  0  0  0  0
  189.3000  178.5290  139.4940 C   0  0  1  0  0  3  0  0  0  0  0  0
  188.0100  177.9190  140.0080 C   0  0  0  0  0  2  0  0  0  0  0  0
  187.6280  178.5500  141.3380 C   0  0  1  0  0  3  0  0  0  0  0  0
  186.1950  179.0500  141.2390 C   0  0  0  0  0  1  0  0  0  0  0  0
  190.8540  175.6320  143.3110 C   0  0  0  0  0  2  0  0  0  0  0  0
  191.4870  177.9740  144.0760 N   0  0  0  0  0  2  0  0  0  0  0  0
  189.0740  177.4210  144.3760 C   0  0  2  0  0  3  0  0  0  0  0  0
  187.7760  177.5350  142.4770 C   0  0  2  0  0  3  0  0  0  0  0  0
  189.7570  176.2190  142.4030 C   0  0  0  0  0  2  0  0  0  0  0  0
  186.9670  177.9770  143.6880 C   0  0  0  0  0  2  0  0  0  0  0  0
  189.1610  177.4610  142.9190 N   0  0  2  0  0  0  0  0  0  0  0  0
  187.9000  178.1710  144.7840 N   0  0  0  0  0  2  0  0  0  0  0  0
  190.3450  177.9940  145.0070 C   0  0  1  0  0  3  0  0  0  0  0  0
  191.9590  176.6240  143.7120 C   0  0  0  0  0  2  0  0  0  0  0  0
  190.6600  177.2930  146.3220 C   0  0  0  0  0  2  0  0  0  0  0  0
  189.6510  176.1870  146.5820 C   0  0  0  0  0  2  0  0  0  0  0  0
  188.3780  176.7580  147.1890 C   0  0  0  0  0  2  0  0  0  0  0  0
  189.7200  178.3550  148.3480 O   0  0  0  0  0  0  0  0  0  0  0  0
  187.8280  177.6720  149.4460 O   0  0  0  0  0  1  0  0  0  0  0  0
  188.6930  177.6290  148.3610 C   0  0  0  0  0  0  0  0  0  0  0  0
  196.8610  172.7650  135.7720 N   0  0  0  0  0  2  0  0  0  0  0  0
  196.6800  171.3170  135.7510 C   0  0  0  0  0  2  0  0  0  0  0  0
  198.0500  170.8700  137.7110 N   0  0  0  0  0  1  0  0  0  0  0  0
  197.9190  170.6210  136.2870 C   0  0  0  0  0  2  0  0  0  0  0  0
  1  5  2  0  0  0  0
  2 24  1  6  0  0  0
  3 43  1  1  0  0  0
  3 21  1  0  0  0  0
  3 17  1  0  0  0  0
  5 10  1  0  0  0  0
  6 12  2  0  0  0  0
  7 21  1  0  0  0  0
  7  1  1  0  0  0  0
  8  6  1  0  0  0  0
  8  5  1  0  0  0  0
  9  2  1  0  0  0  0
  9 16  1  1  0  0  0
  9 18  1  0  0  0  0
 10 11  1  0  0  0  0
 10 20  2  0  0  0  0
 12  4  1  0  0  0  0
 12 11  1  0  0  0  0
 13 14  1  0  0  0  0
 13 44  1  1  0  0  0
 14 20  1  0  0  0  0
 16 13  1  0  0  0  0
 17  2  1  0  0  0  0
 18  1  1  6  0  0  0
 18 14  1  0  0  0  0
 19  8  2  0  0  0  0
 20 15  1  0  0  0  0
 22 23  2  0  0  0  0
 24 22  2  0  0  0  0
 25 27  1  1  0  0  0
 25 23  1  0  0  0  0
 25 28  1  0  0  0  0
 27 26  1  0  0  0  0
 29 31  1  0  0  0  0
 29 30  1  0  0  0  0
 31 30  1  0  0  0  0
 31 32  1  0  0  0  0
 31 28  1  0  0  0  0
 32 34  1  6  0  0  0
 32 36  1  0  0  0  0
 34 33  1  0  0  0  0
 36 35  1  1  0  0  0
 36 38  1  0  0  0  0
 38 39  1  0  0  0  0
 38 37  1  1  0  0  0
 41 40  1  0  0  0  0
 41 39  1  0  0  0  0
 43 42  2  0  0  0  0
 46 45  1  6  0  0  0
 46 44  1  0  0  0  0
 46 47  1  0  0  0  0
 47 48  1  0  0  0  0
 48 49  1  6  0  0  0
 50 59  1  0  0  0  0
 51 58  1  0  0  0  0
 52 57  1  1  0  0  0
 52 58  1  0  0  0  0
 53 48  1  6  0  0  0
 53 56  1  0  0  0  0
 53 55  1  0  0  0  0
 54 50  1  0  0  0  0
 55 57  1  0  0  0  0
 56 54  1  6  0  0  0
 56 52  1  0  0  0  0
 58 60  1  1  0  0  0
 59 51  1  0  0  0  0
 60 61  1  0  0  0  0
 61 62  1  0  0  0  0
 62 65  1  0  0  0  0
 63 65  2  0  0  0  0
 65 64  1  0  0  0  0
 66  6  1  0  0  0  0
 67 66  1  0  0  0  0
 67 69  1  0  0  0  0
 69 68  1  0  0  0  0
M  END
>  <MODEL>
8

>  <REMARK>
 VINA RESULT:      -4.0      1.363      2.071
  Name = 
  24 active torsions:
  status: ('A' for Active; 'I' for Inactive)
    1  A    between atoms: C_3  and  C_53
    2  A    between atoms: C_5  and  C_13
    3  A    between atoms: C_7  and  C_43
    4  A    between atoms: C_7  and  C_67
    5  A    between atoms: C_11  and  N_26
    6  A    between atoms: C_21  and  C_43
    7  A    between atoms: N_26  and  C_27
    8  A    between atoms: C_27  and  C_48
    9  A    between atoms: C_28  and  C_41
   10  A    between atoms: C_30  and  C_35
   11  A    between atoms: C_30  and  C_38
   12  A    between atoms: C_32  and  C_44
   13  A    between atoms: C_32  and  C_55
   14  A    between atoms: C_33  and  C_35
   15  A    between atoms: C_33  and  C_41
   16  A    between atoms: C_37  and  O_40
   17  A    between atoms: C_37  and  C_66
   18  A    between atoms: C_37  and  C_67
   19  A    between atoms: C_43  and  C_65
   20  A    between atoms: C_44  and  C_51
   21  A    between atoms: C_51  and  C_62
   22  A    between atoms: C_59  and  C_60
   23  A    between atoms: C_59  and  C_66
   24  A    between atoms: C_60  and  C_69
                            x       y       z     vdW  Elec       q    Type
                         _______ _______ _______ _____ _____    ______ ____

>  <TORSDO>
F 24

$$$$
=
 OpenBabel10222415103D

 69 75  0  0  1  0  0  0  0  0999 V2000
  183.2890  179.2010  139.4980 C   0  0  0  0  0  0  0  0  0  0  0  0
  185.4580  177.8400  141.9750 C   0  0  2  0  0  3  0  0  0  0  0  0
  183.3820  179.0360  142.8630 C   0  0  1  0  0  3  0  0  0  0  0  0
  180.1450  178.6370  134.9320 F   0  0  0  0  0  0  0  0  0  0  0  0
  182.6580  179.2620  138.2960 C   0  0  0  0  0  0  0  0  0  0  0  0
  180.5830  179.8290  136.9130 C   0  0  0  0  0  0  0  0  0  0  0  0
  182.8920  180.0890  140.6460 C   0  0  0  0  0  2  0  0  0  0  0  0
  181.4980  180.1490  138.0250 C   0  0  0  0  0  0  0  0  0  0  0  0
  185.4610  178.5950  140.6400 C   0  0  1  0  0  3  0  0  0  0  0  0
  183.1130  178.4040  137.1630 C   0  0  0  0  0  0  0  0  0  0  0  0
  182.3920  178.4810  135.8440 C   0  0  0  0  0  2  0  0  0  0  0  0
  180.9750  178.9740  135.9450 C   0  0  0  0  0  0  0  0  0  0  0  0
  186.4150  177.8520  138.6060 C   0  0  1  0  0  3  0  0  0  0  0  0
  184.9760  177.7410  138.5070 N   0  0  0  0  0  0  0  0  0  0  0  0
  184.8340  176.9740  136.0960 C   0  0  0  0  0  1  0  0  0  0  0  0
  186.7300  178.3570  139.9440 N   0  0  0  0  0  2  0  0  0  0  0  0
  184.0640  177.6950  142.6060 C   0  0  0  0  0  2  0  0  0  0  0  0
  184.3310  178.1270  139.7360 C   0  0  2  0  0  3  0  0  0  0  0  0
  181.2790  181.1720  138.7260 O   0  0  0  0  0  0  0  0  0  0  0  0
  184.2650  177.7190  137.2630 C   0  0  0  0  0  0  0  0  0  0  0  0
  182.3100  179.3010  141.8100 C   0  0  0  0  0  2  0  0  0  0  0  0
  186.6820  177.9010  144.0830 C   0  0  0  0  0  0  0  0  0  0  0  0
  186.9210  177.3400  145.2380 C   0  0  0  0  0  3  0  0  0  0  0  0
  186.4300  178.4570  142.9310 C   0  0  0  0  0  3  0  0  0  0  0  0
  188.0750  177.7630  146.0840 C   0  0  1  0  0  3  0  0  0  0  0  0
  187.0960  177.5240  148.2780 O   0  0  0  0  0  1  0  0  0  0  0  0
  187.6040  178.4540  147.3680 C   0  0  0  0  0  2  0  0  0  0  0  0
  188.9480  176.5510  146.3840 C   0  0  0  0  0  2  0  0  0  0  0  0
  190.5260  177.1770  148.1630 O   0  0  0  0  0  0  0  0  0  0  0  0
  190.3940  178.2310  147.3340 O   0  0  0  0  0  0  0  0  0  0  0  0
  190.3500  176.9570  146.8150 C   0  0  0  0  0  0  0  0  0  0  0  0
  191.5880  176.6050  145.9730 C   0  0  1  0  0  3  0  0  0  0  0  0
  192.5060  175.7010  147.7830 C   0  0  0  0  0  1  0  0  0  0  0  0
  192.1690  175.4250  146.4560 O   0  0  0  0  0  0  0  0  0  0  0  0
  191.6870  175.1580  143.8850 C   0  0  0  0  0  1  0  0  0  0  0  0
  191.2840  176.5070  144.4690 C   0  0  2  0  0  3  0  0  0  0  0  0
  191.9850  177.4150  142.3420 O   0  0  0  0  0  1  0  0  0  0  0  0
  191.9650  177.6570  143.7200 C   0  0  1  0  0  3  0  0  0  0  0  0
  191.2800  178.9830  144.0320 C   0  0  0  0  0  2  0  0  0  0  0  0
  189.5090  177.9710  142.7690 O   0  0  0  0  0  1  0  0  0  0  0  0
  190.0530  179.1990  143.1600 C   0  0  0  0  0  2  0  0  0  0  0  0
  183.5530  178.9880  145.3410 C   0  0  0  0  0  2  0  0  0  0  0  0
  182.7980  179.0830  144.2450 C   0  0  0  0  0  3  0  0  0  0  0  0
  187.0620  176.4870  138.4140 C   0  0  0  0  0  2  0  0  0  0  0  0
  189.2250  176.5500  139.4300 O   0  0  0  0  0  1  0  0  0  0  0  0
  188.5580  176.6310  138.2020 C   0  0  1  0  0  3  0  0  0  0  0  0
  189.0330  175.5200  137.2860 C   0  0  0  0  0  2  0  0  0  0  0  0
  190.3740  175.8870  136.6710 C   0  0  1  0  0  3  0  0  0  0  0  0
  190.5580  177.3930  136.7810 C   0  0  0  0  0  1  0  0  0  0  0  0
  193.4230  172.2710  136.0060 C   0  0  0  0  0  2  0  0  0  0  0  0
  194.3150  174.1890  134.5940 N   0  0  0  0  0  2  0  0  0  0  0  0
  193.7500  174.8260  136.9390 C   0  0  2  0  0  3  0  0  0  0  0  0
  191.5120  175.1440  137.3800 C   0  0  2  0  0  3  0  0  0  0  0  0
  192.1730  173.1000  136.3540 C   0  0  0  0  0  2  0  0  0  0  0  0
  192.3480  176.1150  138.2010 C   0  0  0  0  0  2  0  0  0  0  0  0
  192.4180  174.5500  136.4070 N   0  0  2  0  0  0  0  0  0  0  0  0
  193.7000  176.0780  137.6710 N   0  0  0  0  0  2  0  0  0  0  0  0
  194.7790  174.8860  135.8080 C   0  0  1  0  0  3  0  0  0  0  0  0
  194.1690  172.7290  134.7420 C   0  0  0  0  0  2  0  0  0  0  0  0
  196.1350  174.3760  136.2810 C   0  0  0  0  0  2  0  0  0  0  0  0
  195.9860  173.6430  137.6040 C   0  0  0  0  0  2  0  0  0  0  0  0
  195.9430  172.1390  137.3800 C   0  0  0  0  0  2  0  0  0  0  0  0
  197.3760  170.9250  135.9070 O   0  0  0  0  0  0  0  0  0  0  0  0
  198.4170  171.9690  137.6610 O   0  0  0  0  0  1  0  0  0  0  0  0
  197.2780  171.6290  136.9450 C   0  0  0  0  0  0  0  0  0  0  0  0
  179.2680  180.4120  136.9430 N   0  0  0  0  0  2  0  0  0  0  0  0
  178.9350  181.7990  136.6370 C   0  0  0  0  0  2  0  0  0  0  0  0
  180.3960  183.0210  135.1230 N   0  0  0  0  0  1  0  0  0  0  0  0
  179.2630  182.1150  135.1880 C   0  0  0  0  0  2  0  0  0  0  0  0
  1  7  1  0  0  0  0
  2 17  1  0  0  0  0
  2 24  1  1  0  0  0
  3 43  1  1  0  0  0
  4 12  1  0  0  0  0
  5  1  2  0  0  0  0
  6 66  1  0  0  0  0
  6  8  1  0  0  0  0
  7 21  1  0  0  0  0
  8  5  1  0  0  0  0
  8 19  2  0  0  0  0
  9 16  1  6  0  0  0
  9  2  1  0  0  0  0
 10 20  2  0  0  0  0
 10  5  1  0  0  0  0
 11 12  1  0  0  0  0
 11 10  1  0  0  0  0
 12  6  2  0  0  0  0
 13 44  1  1  0  0  0
 13 16  1  0  0  0  0
 14 13  1  0  0  0  0
 14 18  1  0  0  0  0
 15 20  1  0  0  0  0
 17  3  1  0  0  0  0
 18  1  1  6  0  0  0
 18  9  1  0  0  0  0
 20 14  1  0  0  0  0
 21  3  1  0  0  0  0
 22 23  2  0  0  0  0
 24 22  2  0  0  0  0
 25 23  1  1  0  0  0
 25 28  1  0  0  0  0
 25 27  1  0  0  0  0
 27 26  1  0  0  0  0
 28 31  1  0  0  0  0
 30 29  1  0  0  0  0
 31 30  1  0  0  0  0
 31 29  1  0  0  0  0
 32 34  1  1  0  0  0
 32 31  1  0  0  0  0
 34 33  1  0  0  0  0
 36 35  1  6  0  0  0
 36 32  1  0  0  0  0
 38 37  1  6  0  0  0
 38 39  1  0  0  0  0
 38 36  1  0  0  0  0
 40 41  1  0  0  0  0
 41 39  1  0  0  0  0
 43 42  2  0  0  0  0
 46 44  1  0  0  0  0
 46 45  1  1  0  0  0
 47 46  1  0  0  0  0
 48 49  1  1  0  0  0
 48 47  1  0  0  0  0
 50 54  1  0  0  0  0
 51 59  1  0  0  0  0
 51 58  1  0  0  0  0
 52 57  1  6  0  0  0
 53 48  1  6  0  0  0
 53 55  1  0  0  0  0
 56 54  1  1  0  0  0
 56 52  1  0  0  0  0
 56 53  1  0  0  0  0
 57 55  1  0  0  0  0
 58 60  1  1  0  0  0
 58 52  1  0  0  0  0
 59 50  1  0  0  0  0
 60 61  1  0  0  0  0
 62 61  1  0  0  0  0
 63 65  2  0  0  0  0
 65 62  1  0  0  0  0
 65 64  1  0  0  0  0
 67 66  1  0  0  0  0
 68 69  1  0  0  0  0
 69 67  1  0  0  0  0
M  END
>  <MODEL>
9

>  <REMARK>
 VINA RESULT:      -3.9      3.809     12.211
  Name = 
  24 active torsions:
  status: ('A' for Active; 'I' for Inactive)
    1  A    between atoms: C_3  and  C_53
    2  A    between atoms: C_5  and  C_13
    3  A    between atoms: C_7  and  C_43
    4  A    between atoms: C_7  and  C_67
    5  A    between atoms: C_11  and  N_26
    6  A    between atoms: C_21  and  C_43
    7  A    between atoms: N_26  and  C_27
    8  A    between atoms: C_27  and  C_48
    9  A    between atoms: C_28  and  C_41
   10  A    between atoms: C_30  and  C_35
   11  A    between atoms: C_30  and  C_38
   12  A    between atoms: C_32  and  C_44
   13  A    between atoms: C_32  and  C_55
   14  A    between atoms: C_33  and  C_35
   15  A    between atoms: C_33  and  C_41
   16  A    between atoms: C_37  and  O_40
   17  A    between atoms: C_37  and  C_66
   18  A    between atoms: C_37  and  C_67
   19  A    between atoms: C_43  and  C_65
   20  A    between atoms: C_44  and  C_51
   21  A    between atoms: C_51  and  C_62
   22  A    between atoms: C_59  and  C_60
   23  A    between atoms: C_59  and  C_66
   24  A    between atoms: C_60  and  C_69
                            x       y       z     vdW  Elec       q    Type
                         _______ _______ _______ _____ _____    ______ ____

>  <TORSDO>
F 24

$$$$
