=
 OpenBabel10222421043D

 55 64  0  0  1  0  0  0  0  0999 V2000
  184.1700  180.0970  139.0150 O   0  0  0  0  0  0  0  0  0  0  0  0
  184.1270  178.1450  140.3700 C   0  0  1  0  0  3  0  0  0  0  0  0
  181.6820  178.4790  140.6450 C   0  0  0  0  0  0  0  0  0  0  0  0
  183.0160  179.0150  140.5860 N   0  0  0  0  0  0  0  0  0  0  0  0
  185.7940  176.9520  137.8850 C   0  0  0  0  0  2  0  0  0  0  0  0
  189.3580  176.5010  138.9870 C   0  0  0  0  0  0  0  0  0  0  0  0
  188.5990  175.7560  137.9230 C   0  0  0  0  0  2  0  0  0  0  0  0
  190.6400  177.0440  138.7690 C   0  0  0  0  0  0  0  0  0  0  0  0
  184.8210  178.8590  139.2330 C   0  0  1  0  0  3  0  0  0  0  0  0
  191.2530  177.7860  139.7820 C   0  0  0  0  0  3  0  0  0  0  0  0
  189.3920  177.6730  143.6980 C   0  0  0  0  0  3  0  0  0  0  0  0
  188.7700  177.8050  144.9390 C   0  0  0  0  0  3  0  0  0  0  0  0
  188.7260  176.6990  140.2140 C   0  0  0  0  0  3  0  0  0  0  0  0
  190.6030  177.9850  141.0050 C   0  0  0  0  0  3  0  0  0  0  0  0
  187.4170  177.9240  145.0190 N   0  0  0  0  0  0  0  0  0  0  0  0
  185.2510  178.0830  144.0340 C   0  0  0  0  0  3  0  0  0  0  0  0
  186.3920  177.8990  141.4910 C   0  0  0  0  0  3  0  0  0  0  0  0
  185.0060  178.0910  141.6080 C   0  0  0  0  0  0  0  0  0  0  0  0
  187.1040  177.5610  137.7260 N   0  0  0  0  0  2  0  0  0  0  0  0
  181.4400  177.3580  140.1190 O   0  0  0  0  0  0  0  0  0  0  0  0
  186.6360  177.9380  143.9070 C   0  0  0  0  0  0  0  0  0  0  0  0
  187.2210  177.8190  142.6240 C   0  0  0  0  0  0  0  0  0  0  0  0
  188.6280  177.6610  142.5230 C   0  0  0  0  0  0  0  0  0  0  0  0
  189.3200  177.4590  141.2240 C   0  0  0  0  0  0  0  0  0  0  0  0
  187.9160  176.6670  137.0000 N   0  0  0  0  0  2  0  0  0  0  0  0
  184.4420  178.1510  142.8950 C   0  0  0  0  0  3  0  0  0  0  0  0
  184.7280  178.0360  137.9510 C   0  0  0  0  0  2  0  0  0  0  0  0
  183.2250  180.2650  139.9930 N   0  0  0  0  0  2  0  0  0  0  0  0
  191.3270  176.9190  137.4490 C   0  0  0  0  0  2  0  0  0  0  0  0
  192.5580  176.1590  137.6080 N   0  0  0  0  0  2  0  0  0  0  0  0
  193.9640  174.1750  137.0780 N   0  0  0  0  0  0  0  0  0  0  0  0
  194.0460  172.7520  136.7730 C   0  0  0  0  0  1  0  0  0  0  0  0
  192.6890  174.8360  137.0810 C   0  0  0  0  0  0  0  0  0  0  0  0
  191.6780  174.2470  136.6130 O   0  0  0  0  0  0  0  0  0  0  0  0
  195.1880  174.8660  137.4740 C   0  0  0  0  0  2  0  0  0  0  0  0
  197.6470  174.2550  137.6100 C   0  0  0  0  0  2  0  0  0  0  0  0
  196.2210  173.8970  138.0710 C   0  0  1  0  0  3  0  0  0  0  0  0
  198.0340  175.0350  140.0510 C   0  0  2  0  0  3  0  0  0  0  0  0
  198.6320  174.6380  138.7360 C   0  0  2  0  0  3  0  0  0  0  0  0
  196.5140  174.9500  140.0710 C   0  0  0  0  0  2  0  0  0  0  0  0
  198.4300  175.9840  139.0910 O   0  0  0  0  0  0  0  0  0  0  0  0
  196.1010  173.7520  139.4730 O   0  0  0  0  0  0  0  0  0  0  0  0
  180.5580  179.3050  141.2170 C   0  0  2  0  0  3  0  0  0  0  0  0
  180.1360  180.3890  140.2610 C   0  0  0  0  0  3  0  0  0  0  0  0
  179.8680  180.1270  138.9780 C   0  0  0  0  0  3  0  0  0  0  0  0
  179.7570  182.5950  138.6520 C   0  0  1  0  0  3  0  0  0  0  0  0
  179.4170  181.2160  138.0470 C   0  0  1  0  0  3  0  0  0  0  0  0
  180.2880  183.4530  136.4240 C   0  0  2  0  0  3  0  0  0  0  0  0
  179.8120  182.1980  135.7960 N   0  0  0  0  0  0  0  0  0  0  0  0
  180.8580  183.2650  137.8360 C   0  0  1  0  0  3  0  0  0  0  0  0
  179.9960  181.0010  136.6350 C   0  0  0  0  0  2  0  0  0  0  0  0
  179.4390  183.7130  137.6620 C   0  0  2  0  0  3  0  0  0  0  0  0
  180.6040  181.9990  134.5940 C   0  0  0  0  0  1  0  0  0  0  0  0
  180.9250  179.8780  142.5890 C   0  0  0  0  0  2  0  0  0  0  0  0
  179.9790  180.8180  143.0140 O   0  0  0  0  0  1  0  0  0  0  0  0
  1  9  1  0  0  0  0
  1 28  1  0  0  0  0
  2  4  1  0  0  0  0
  2 18  1  1  0  0  0
  3 43  1  0  0  0  0
  4  3  1  0  0  0  0
  5 27  1  0  0  0  0
  6 13  1  0  0  0  0
  7  6  1  0  0  0  0
  8  6  2  0  0  0  0
  8 10  1  0  0  0  0
  9 27  1  6  0  0  0
  9  2  1  0  0  0  0
 10 14  2  0  0  0  0
 11 12  1  0  0  0  0
 12 15  2  0  0  0  0
 13 24  2  0  0  0  0
 14 24  1  0  0  0  0
 17 18  2  0  0  0  0
 17 22  1  0  0  0  0
 18 26  1  0  0  0  0
 19  5  1  0  0  0  0
 20  3  2  0  0  0  0
 21 16  1  0  0  0  0
 21 15  1  0  0  0  0
 22 21  2  0  0  0  0
 23 22  1  0  0  0  0
 23 11  2  0  0  0  0
 24 23  1  0  0  0  0
 25 19  1  0  0  0  0
 25  7  1  0  0  0  0
 26 16  2  0  0  0  0
 28  4  1  0  0  0  0
 29 30  1  0  0  0  0
 29  8  1  0  0  0  0
 31 33  1  0  0  0  0
 31 35  1  0  0  0  0
 32 31  1  0  0  0  0
 33 30  1  0  0  0  0
 34 33  2  0  0  0  0
 36 37  1  0  0  0  0
 37 35  1  1  0  0  0
 37 42  1  0  0  0  0
 38 40  1  6  0  0  0
 39 36  1  6  0  0  0
 39 41  1  0  0  0  0
 39 38  1  0  0  0  0
 41 38  1  0  0  0  0
 42 40  1  0  0  0  0
 43 44  1  6  0  0  0
 43 54  1  0  0  0  0
 45 44  2  0  0  0  0
 47 46  1  0  0  0  0
 47 45  1  1  0  0  0
 48 52  1  0  0  0  0
 48 50  1  0  0  0  0
 49 48  1  0  0  0  0
 49 51  1  0  0  0  0
 50 46  1  0  0  0  0
 51 47  1  0  0  0  0
 52 50  1  0  0  0  0
 52 46  1  0  0  0  0
 53 49  1  0  0  0  0
 54 55  1  0  0  0  0
M  END
>  <MODEL>
1

>  <REMARK>
 VINA RESULT:      -8.2      0.000      0.000
  Name = 
  8 active torsions:
  status: ('A' for Active; 'I' for Inactive)
    1  A    between atoms: C_4  and  C_38
    2  A    between atoms: C_8  and  C_38
    3  A    between atoms: C_10  and  C_48
    4  A    between atoms: N_11  and  C_25
    5  A    between atoms: C_12  and  C_25
    6  A    between atoms: C_14  and  C_22
    7  A    between atoms: C_20  and  C_38
    8  A    between atoms: C_22  and  N_30
                            x       y       z     vdW  Elec       q    Type
                         _______ _______ _______ _____ _____    ______ ____

>  <TORSDO>
F 8

$$$$
=
 OpenBabel10222421043D

 55 64  0  0  1  0  0  0  0  0999 V2000
  183.6890  177.2470  139.5750 O   0  0  0  0  0  0  0  0  0  0  0  0
  183.2430  176.8780  137.2700 C   0  0  1  0  0  3  0  0  0  0  0  0
  181.1170  178.1280  137.5570 C   0  0  0  0  0  0  0  0  0  0  0  0
  182.0750  177.1700  138.0390 N   0  0  0  0  0  0  0  0  0  0  0  0
  186.2650  177.9560  136.9950 C   0  0  0  0  0  2  0  0  0  0  0  0
  188.4570  175.0460  136.0730 C   0  0  0  0  0  0  0  0  0  0  0  0
  188.6590  176.5080  135.7810 C   0  0  0  0  0  2  0  0  0  0  0  0
  189.4690  174.2320  136.6190 C   0  0  0  0  0  0  0  0  0  0  0  0
  184.3150  177.0440  138.3220 C   0  0  1  0  0  3  0  0  0  0  0  0
  189.1850  172.8990  136.9320 C   0  0  0  0  0  3  0  0  0  0  0  0
  185.4220  171.3040  135.4830 C   0  0  0  0  0  3  0  0  0  0  0  0
  184.1700  170.7690  135.1810 C   0  0  0  0  0  3  0  0  0  0  0  0
  187.1910  174.5080  135.8390 C   0  0  0  0  0  3  0  0  0  0  0  0
  187.9080  172.3760  136.7000 C   0  0  0  0  0  3  0  0  0  0  0  0
  183.0500  171.5310  135.3040 N   0  0  0  0  0  0  0  0  0  0  0  0
  181.9300  173.5600  135.8700 C   0  0  0  0  0  3  0  0  0  0  0  0
  184.3750  174.7150  136.5720 C   0  0  0  0  0  3  0  0  0  0  0  0
  183.1930  175.4510  136.7510 C   0  0  0  0  0  0  0  0  0  0  0  0
  187.2510  177.0620  137.5810 N   0  0  0  0  0  2  0  0  0  0  0  0
  181.4740  178.9890  136.7050 O   0  0  0  0  0  0  0  0  0  0  0  0
  183.1090  172.8190  135.7380 C   0  0  0  0  0  0  0  0  0  0  0  0
  184.3540  173.4030  136.0680 C   0  0  0  0  0  0  0  0  0  0  0  0
  185.5360  172.6320  135.9140 C   0  0  0  0  0  0  0  0  0  0  0  0
  186.8920  173.1840  136.1690 C   0  0  0  0  0  0  0  0  0  0  0  0
  188.4970  177.3330  136.9810 N   0  0  0  0  0  2  0  0  0  0  0  0
  181.9730  174.8680  136.3640 C   0  0  0  0  0  3  0  0  0  0  0  0
  185.1790  178.2640  138.0140 C   0  0  0  0  0  2  0  0  0  0  0  0
  182.3370  177.0950  139.4110 N   0  0  0  0  0  2  0  0  0  0  0  0
  190.8170  174.7800  136.9540 C   0  0  0  0  0  2  0  0  0  0  0  0
  190.8300  175.2380  138.3350 N   0  0  0  0  0  2  0  0  0  0  0  0
  191.5690  176.8560  140.0750 N   0  0  0  0  0  0  0  0  0  0  0  0
  192.6040  177.7430  140.5920 C   0  0  0  0  0  1  0  0  0  0  0  0
  191.7010  176.2870  138.7630 C   0  0  0  0  0  0  0  0  0  0  0  0
  192.5910  176.7200  137.9800 O   0  0  0  0  0  0  0  0  0  0  0  0
  190.4680  176.4930  140.9620 C   0  0  0  0  0  2  0  0  0  0  0  0
  188.3010  177.6710  141.5570 C   0  0  0  0  0  2  0  0  0  0  0  0
  189.8390  177.7290  141.6240 C   0  0  1  0  0  3  0  0  0  0  0  0
  188.3960  177.2420  144.1110 C   0  0  2  0  0  3  0  0  0  0  0  0
  187.5770  177.6390  142.9200 C   0  0  2  0  0  3  0  0  0  0  0  0
  189.8550  176.9700  143.7740 C   0  0  0  0  0  2  0  0  0  0  0  0
  187.5850  176.3240  143.4180 O   0  0  0  0  0  0  0  0  0  0  0  0
  190.3380  177.9760  142.9250 O   0  0  0  0  0  0  0  0  0  0  0  0
  179.7350  178.1860  138.1570 C   0  0  2  0  0  3  0  0  0  0  0  0
  179.7950  178.4390  139.6410 C   0  0  0  0  0  3  0  0  0  0  0  0
  180.3780  179.5320  140.1420 C   0  0  0  0  0  3  0  0  0  0  0  0
  179.1870  179.0940  142.2860 C   0  0  1  0  0  3  0  0  0  0  0  0
  180.3980  179.7840  141.6230 C   0  0  1  0  0  3  0  0  0  0  0  0
  180.5590  178.5340  144.2330 C   0  0  2  0  0  3  0  0  0  0  0  0
  181.6910  179.3280  143.7000 N   0  0  0  0  0  0  0  0  0  0  0  0
  179.6590  177.9270  143.1490 C   0  0  1  0  0  3  0  0  0  0  0  0
  181.7540  179.3680  142.2280 C   0  0  0  0  0  2  0  0  0  0  0  0
  179.2630  179.2130  143.8070 C   0  0  2  0  0  3  0  0  0  0  0  0
  182.9110  178.6890  144.1600 C   0  0  0  0  0  1  0  0  0  0  0  0
  178.9310  176.9240  137.8350 C   0  0  0  0  0  2  0  0  0  0  0  0
  178.9740  176.0110  138.8960 O   0  0  0  0  0  1  0  0  0  0  0  0
  2 18  1  1  0  0  0
  2  4  1  0  0  0  0
  2  9  1  0  0  0  0
  3  4  1  0  0  0  0
  3 43  1  0  0  0  0
  4 28  1  0  0  0  0
  5 19  1  0  0  0  0
  5 27  1  0  0  0  0
  6  8  1  0  0  0  0
  7  6  1  0  0  0  0
  7 25  1  0  0  0  0
  8 10  2  0  0  0  0
  8 29  1  0  0  0  0
  9 27  1  6  0  0  0
  9  1  1  0  0  0  0
 11 23  1  0  0  0  0
 12 15  1  0  0  0  0
 12 11  2  0  0  0  0
 13  6  2  0  0  0  0
 13 24  1  0  0  0  0
 14 10  1  0  0  0  0
 15 21  2  0  0  0  0
 16 26  2  0  0  0  0
 17 18  2  0  0  0  0
 20  3  2  0  0  0  0
 21 16  1  0  0  0  0
 21 22  1  0  0  0  0
 22 17  1  0  0  0  0
 23 22  2  0  0  0  0
 23 24  1  0  0  0  0
 24 14  2  0  0  0  0
 25 19  1  0  0  0  0
 26 18  1  0  0  0  0
 28  1  1  0  0  0  0
 29 30  1  0  0  0  0
 30 33  1  0  0  0  0
 31 32  1  0  0  0  0
 31 35  1  0  0  0  0
 33 31  1  0  0  0  0
 34 33  2  0  0  0  0
 36 37  1  0  0  0  0
 37 35  1  1  0  0  0
 37 42  1  0  0  0  0
 38 40  1  6  0  0  0
 39 36  1  6  0  0  0
 39 41  1  0  0  0  0
 39 38  1  0  0  0  0
 41 38  1  0  0  0  0
 42 40  1  0  0  0  0
 43 54  1  1  0  0  0
 43 44  1  0  0  0  0
 44 45  2  0  0  0  0
 46 50  1  0  0  0  0
 46 52  1  0  0  0  0
 47 45  1  6  0  0  0
 47 51  1  0  0  0  0
 47 46  1  0  0  0  0
 49 53  1  0  0  0  0
 49 48  1  0  0  0  0
 50 52  1  0  0  0  0
 50 48  1  0  0  0  0
 51 49  1  0  0  0  0
 52 48  1  0  0  0  0
 54 55  1  0  0  0  0
M  END
>  <MODEL>
2

>  <REMARK>
 VINA RESULT:      -7.7      3.385      6.864
  Name = 
  8 active torsions:
  status: ('A' for Active; 'I' for Inactive)
    1  A    between atoms: C_4  and  C_38
    2  A    between atoms: C_8  and  C_38
    3  A    between atoms: C_10  and  C_48
    4  A    between atoms: N_11  and  C_25
    5  A    between atoms: C_12  and  C_25
    6  A    between atoms: C_14  and  C_22
    7  A    between atoms: C_20  and  C_38
    8  A    between atoms: C_22  and  N_30
                            x       y       z     vdW  Elec       q    Type
                         _______ _______ _______ _____ _____    ______ ____

>  <TORSDO>
F 8

$$$$
=
 OpenBabel10222421043D

 55 64  0  0  1  0  0  0  0  0999 V2000
  188.1580  174.9720  136.8860 O   0  0  0  0  0  0  0  0  0  0  0  0
  189.3650  176.9580  137.3790 C   0  0  1  0  0  3  0  0  0  0  0  0
  190.8330  176.4600  135.4390 C   0  0  0  0  0  0  0  0  0  0  0  0
  190.1050  176.0190  136.5980 N   0  0  0  0  0  0  0  0  0  0  0  0
  186.3890  178.1870  137.4700 C   0  0  0  0  0  2  0  0  0  0  0  0
  185.5470  178.9260  141.0580 C   0  0  0  0  0  0  0  0  0  0  0  0
  185.0170  179.5810  139.8110 C   0  0  0  0  0  2  0  0  0  0  0  0
  184.7080  178.4690  142.0940 C   0  0  0  0  0  0  0  0  0  0  0  0
  188.0280  176.2600  137.4590 C   0  0  1  0  0  3  0  0  0  0  0  0
  185.2680  177.8050  143.1890 C   0  0  0  0  0  3  0  0  0  0  0  0
  189.5890  177.9110  143.5480 C   0  0  0  0  0  3  0  0  0  0  0  0
  190.9730  177.7740  143.6480 C   0  0  0  0  0  3  0  0  0  0  0  0
  186.9250  178.7220  141.1460 C   0  0  0  0  0  3  0  0  0  0  0  0
  186.6500  177.6000  143.2600 C   0  0  0  0  0  3  0  0  0  0  0  0
  191.7230  177.5620  142.5330 N   0  0  0  0  0  0  0  0  0  0  0  0
  191.9630  177.2170  140.1850 C   0  0  0  0  0  3  0  0  0  0  0  0
  189.1940  177.4010  139.8730 C   0  0  0  0  0  3  0  0  0  0  0  0
  189.9920  177.1140  138.7550 C   0  0  0  0  0  0  0  0  0  0  0  0
  185.5860  177.6680  138.5660 N   0  0  0  0  0  2  0  0  0  0  0  0
  190.5100  177.5450  134.8790 O   0  0  0  0  0  0  0  0  0  0  0  0
  191.1560  177.4570  141.3020 C   0  0  0  0  0  0  0  0  0  0  0  0
  189.7550  177.5760  141.1510 C   0  0  0  0  0  0  0  0  0  0  0  0
  188.9590  177.8310  142.2980 C   0  0  0  0  0  0  0  0  0  0  0  0
  187.4910  178.0400  142.2260 C   0  0  0  0  0  0  0  0  0  0  0  0
  184.5570  178.5940  138.8290 N   0  0  0  0  0  2  0  0  0  0  0  0
  191.3870  177.0560  138.9210 C   0  0  0  0  0  3  0  0  0  0  0  0
  186.9750  177.0330  136.6700 C   0  0  0  0  0  2  0  0  0  0  0  0
  189.4770  174.7690  136.5770 N   0  0  0  0  0  2  0  0  0  0  0  0
  183.2230  178.6000  142.0100 C   0  0  0  0  0  2  0  0  0  0  0  0
  182.6940  177.5970  141.0990 N   0  0  0  0  0  2  0  0  0  0  0  0
  181.1900  176.9490  139.2250 N   0  0  0  0  0  0  0  0  0  0  0  0
  179.9190  177.1190  138.5320 C   0  0  0  0  0  1  0  0  0  0  0  0
  181.5790  177.8780  140.2490 C   0  0  0  0  0  0  0  0  0  0  0  0
  180.9350  178.9510  140.3970 O   0  0  0  0  0  0  0  0  0  0  0  0
  181.9870  175.7640  138.9190 C   0  0  0  0  0  2  0  0  0  0  0  0
  183.6520  175.2510  137.0750 C   0  0  0  0  0  2  0  0  0  0  0  0
  182.1850  175.5870  137.4060 C   0  0  1  0  0  3  0  0  0  0  0  0
  182.7800  172.8760  136.5120 C   0  0  2  0  0  3  0  0  0  0  0  0
  183.8820  173.8840  136.3940 C   0  0  2  0  0  3  0  0  0  0  0  0
  181.5660  173.3970  137.2670 C   0  0  0  0  0  2  0  0  0  0  0  0
  183.8930  172.8740  137.3730 O   0  0  0  0  0  0  0  0  0  0  0  0
  181.2560  174.6920  136.8260 O   0  0  0  0  0  0  0  0  0  0  0  0
  191.8870  175.5750  134.8240 C   0  0  2  0  0  3  0  0  0  0  0  0
  192.1090  174.3350  135.6500 C   0  0  0  0  0  3  0  0  0  0  0  0
  192.9310  173.3630  135.2450 C   0  0  0  0  0  3  0  0  0  0  0  0
  192.9750  170.8710  135.2530 C   0  0  1  0  0  3  0  0  0  0  0  0
  193.1650  172.1490  136.0990 C   0  0  1  0  0  3  0  0  0  0  0  0
  194.8100  169.7890  136.4550 C   0  0  2  0  0  3  0  0  0  0  0  0
  194.9100  170.9340  137.3910 N   0  0  0  0  0  0  0  0  0  0  0  0
  194.3160  170.1720  135.0540 C   0  0  1  0  0  3  0  0  0  0  0  0
  194.5380  172.2290  136.7960 C   0  0  0  0  0  2  0  0  0  0  0  0
  193.3470  169.6280  136.0590 C   0  0  2  0  0  3  0  0  0  0  0  0
  196.3030  171.0340  137.7910 C   0  0  0  0  0  1  0  0  0  0  0  0
  193.1950  176.3380  134.5940 C   0  0  0  0  0  2  0  0  0  0  0  0
  193.7920  176.6960  135.8080 O   0  0  0  0  0  1  0  0  0  0  0  0
  1  9  1  0  0  0  0
  2  9  1  0  0  0  0
  2 18  1  1  0  0  0
  3  4  1  0  0  0  0
  4  2  1  0  0  0  0
  5 19  1  0  0  0  0
  6 13  2  0  0  0  0
  6  8  1  0  0  0  0
  7  6  1  0  0  0  0
  8 10  2  0  0  0  0
  9 27  1  6  0  0  0
 10 14  1  0  0  0  0
 11 12  1  0  0  0  0
 13 24  1  0  0  0  0
 15 12  2  0  0  0  0
 16 21  1  0  0  0  0
 17 22  1  0  0  0  0
 18 26  1  0  0  0  0
 18 17  2  0  0  0  0
 19 25  1  0  0  0  0
 20  3  2  0  0  0  0
 21 15  1  0  0  0  0
 22 21  2  0  0  0  0
 22 23  1  0  0  0  0
 23 11  2  0  0  0  0
 24 23  1  0  0  0  0
 24 14  2  0  0  0  0
 25  7  1  0  0  0  0
 26 16  2  0  0  0  0
 27  5  1  0  0  0  0
 28  4  1  0  0  0  0
 28  1  1  0  0  0  0
 29  8  1  0  0  0  0
 30 29  1  0  0  0  0
 31 33  1  0  0  0  0
 32 31  1  0  0  0  0
 33 34  2  0  0  0  0
 33 30  1  0  0  0  0
 35 31  1  0  0  0  0
 36 37  1  0  0  0  0
 37 35  1  1  0  0  0
 38 40  1  1  0  0  0
 38 41  1  0  0  0  0
 39 38  1  0  0  0  0
 39 36  1  1  0  0  0
 39 41  1  0  0  0  0
 42 40  1  0  0  0  0
 42 37  1  0  0  0  0
 43 54  1  1  0  0  0
 43  3  1  0  0  0  0
 43 44  1  0  0  0  0
 45 44  2  0  0  0  0
 46 52  1  0  0  0  0
 46 47  1  0  0  0  0
 47 45  1  6  0  0  0
 47 51  1  0  0  0  0
 48 49  1  0  0  0  0
 49 53  1  0  0  0  0
 50 46  1  0  0  0  0
 50 52  1  0  0  0  0
 50 48  1  0  0  0  0
 51 49  1  0  0  0  0
 52 48  1  0  0  0  0
 54 55  1  0  0  0  0
M  END
>  <MODEL>
3

>  <REMARK>
 VINA RESULT:      -7.5      3.234     11.632
  Name = 
  8 active torsions:
  status: ('A' for Active; 'I' for Inactive)
    1  A    between atoms: C_4  and  C_38
    2  A    between atoms: C_8  and  C_38
    3  A    between atoms: C_10  and  C_48
    4  A    between atoms: N_11  and  C_25
    5  A    between atoms: C_12  and  C_25
    6  A    between atoms: C_14  and  C_22
    7  A    between atoms: C_20  and  C_38
    8  A    between atoms: C_22  and  N_30
                            x       y       z     vdW  Elec       q    Type
                         _______ _______ _______ _____ _____    ______ ____

>  <TORSDO>
F 8

$$$$
=
 OpenBabel10222421043D

 55 64  0  0  1  0  0  0  0  0999 V2000
  190.9920  175.9810  140.0940 O   0  0  0  0  0  0  0  0  0  0  0  0
  189.7890  176.5140  138.1150 C   0  0  1  0  0  3  0  0  0  0  0  0
  188.6610  178.3300  139.3770 C   0  0  0  0  0  0  0  0  0  0  0  0
  189.1620  176.9830  139.3080 N   0  0  0  0  0  0  0  0  0  0  0  0
  192.7470  176.3940  136.8450 C   0  0  0  0  0  2  0  0  0  0  0  0
  192.9840  173.2870  134.7440 C   0  0  0  0  0  0  0  0  0  0  0  0
  193.7440  174.5780  134.6060 C   0  0  0  0  0  2  0  0  0  0  0  0
  193.6150  172.0270  134.7330 C   0  0  0  0  0  0  0  0  0  0  0  0
  191.0670  175.9390  138.6810 C   0  0  1  0  0  3  0  0  0  0  0  0
  192.8520  170.8750  134.9400 C   0  0  0  0  0  3  0  0  0  0  0  0
  188.5400  171.3360  134.8520 C   0  0  0  0  0  3  0  0  0  0  0  0
  187.1550  171.4310  134.9860 C   0  0  0  0  0  3  0  0  0  0  0  0
  191.6050  173.3650  134.9440 C   0  0  0  0  0  3  0  0  0  0  0  0
  191.4710  170.9690  135.1480 C   0  0  0  0  0  3  0  0  0  0  0  0
  186.6010  172.4880  135.6400 N   0  0  0  0  0  0  0  0  0  0  0  0
  186.7570  174.5210  136.8770 C   0  0  0  0  0  3  0  0  0  0  0  0
  189.5440  174.3970  136.7330 C   0  0  0  0  0  3  0  0  0  0  0  0
  188.9410  175.4360  137.4590 C   0  0  0  0  0  0  0  0  0  0  0  0
  193.3300  175.0620  136.8700 N   0  0  0  0  0  2  0  0  0  0  0  0
  189.1140  179.2020  138.5840 O   0  0  0  0  0  0  0  0  0  0  0  0
  187.3680  173.4640  136.1950 C   0  0  0  0  0  0  0  0  0  0  0  0
  188.7780  173.4050  136.0950 C   0  0  0  0  0  0  0  0  0  0  0  0
  189.3720  172.3280  135.3880 C   0  0  0  0  0  0  0  0  0  0  0  0
  190.8380  172.2210  135.1730 C   0  0  0  0  0  0  0  0  0  0  0  0
  194.3310  175.0050  135.8800 N   0  0  0  0  0  2  0  0  0  0  0  0
  187.5370  175.5040  137.4960 C   0  0  0  0  0  3  0  0  0  0  0  0
  192.2670  176.7710  138.2380 C   0  0  0  0  0  2  0  0  0  0  0  0
  189.7390  176.4090  140.4460 N   0  0  0  0  0  2  0  0  0  0  0  0
  195.0960  171.8970  134.5940 C   0  0  0  0  0  2  0  0  0  0  0  0
  195.7320  172.1450  135.8790 N   0  0  0  0  0  2  0  0  0  0  0  0
  197.7340  172.7590  137.2230 N   0  0  0  0  0  0  0  0  0  0  0  0
  199.1800  172.7070  137.3990 C   0  0  0  0  0  1  0  0  0  0  0  0
  197.1460  172.3280  135.9860 C   0  0  0  0  0  0  0  0  0  0  0  0
  197.8820  172.1140  134.9850 O   0  0  0  0  0  0  0  0  0  0  0  0
  196.9160  173.1590  138.3650 C   0  0  0  0  0  2  0  0  0  0  0  0
  195.8840  175.0910  139.6460 C   0  0  0  0  0  2  0  0  0  0  0  0
  196.7950  174.6870  138.4700 C   0  0  1  0  0  3  0  0  0  0  0  0
  198.0570  175.9020  140.8020 C   0  0  2  0  0  3  0  0  0  0  0  0
  196.5590  175.9300  140.7510 C   0  0  2  0  0  3  0  0  0  0  0  0
  198.6800  175.0630  139.6960 C   0  0  0  0  0  2  0  0  0  0  0  0
  197.2640  175.0740  141.6180 O   0  0  0  0  0  0  0  0  0  0  0  0
  198.0480  175.3440  138.4770 O   0  0  0  0  0  0  0  0  0  0  0  0
  187.6980  178.7260  140.4670 C   0  0  2  0  0  3  0  0  0  0  0  0
  188.1610  178.2280  141.8110 C   0  0  0  0  0  3  0  0  0  0  0  0
  187.3130  177.6730  142.6820 C   0  0  0  0  0  3  0  0  0  0  0  0
  189.3380  177.2550  144.0730 C   0  0  1  0  0  3  0  0  0  0  0  0
  187.7990  177.1510  144.0040 C   0  0  1  0  0  3  0  0  0  0  0  0
  189.2040  177.8360  146.4450 C   0  0  2  0  0  3  0  0  0  0  0  0
  187.7440  177.5840  146.4540 N   0  0  0  0  0  0  0  0  0  0  0  0
  189.7450  178.3150  145.0920 C   0  0  1  0  0  3  0  0  0  0  0  0
  187.0800  177.8620  145.1680 C   0  0  0  0  0  2  0  0  0  0  0  0
  189.8450  176.8660  145.4600 C   0  0  2  0  0  3  0  0  0  0  0  0
  187.1640  178.4850  147.4350 C   0  0  0  0  0  1  0  0  0  0  0  0
  186.2740  178.2580  140.1540 C   0  0  0  0  0  2  0  0  0  0  0  0
  185.3740  179.3300  140.1680 O   0  0  0  0  0  1  0  0  0  0  0  0
  1 28  1  0  0  0  0
  2 18  1  1  0  0  0
  2  9  1  0  0  0  0
  2  4  1  0  0  0  0
  3 43  1  0  0  0  0
  4  3  1  0  0  0  0
  4 28  1  0  0  0  0
  5 19  1  0  0  0  0
  5 27  1  0  0  0  0
  6 13  1  0  0  0  0
  7  6  1  0  0  0  0
  7 25  1  0  0  0  0
  8  6  2  0  0  0  0
  8 10  1  0  0  0  0
  9 27  1  6  0  0  0
  9  1  1  0  0  0  0
 10 14  2  0  0  0  0
 11 12  2  0  0  0  0
 11 23  1  0  0  0  0
 12 15  1  0  0  0  0
 13 24  2  0  0  0  0
 14 24  1  0  0  0  0
 15 21  2  0  0  0  0
 16 26  2  0  0  0  0
 17 18  2  0  0  0  0
 18 26  1  0  0  0  0
 20  3  2  0  0  0  0
 21 16  1  0  0  0  0
 22 21  1  0  0  0  0
 22 17  1  0  0  0  0
 23 22  2  0  0  0  0
 24 23  1  0  0  0  0
 25 19  1  0  0  0  0
 29  8  1  0  0  0  0
 29 30  1  0  0  0  0
 30 33  1  0  0  0  0
 31 32  1  0  0  0  0
 31 35  1  0  0  0  0
 33 31  1  0  0  0  0
 34 33  2  0  0  0  0
 37 35  1  1  0  0  0
 37 42  1  0  0  0  0
 37 36  1  0  0  0  0
 38 40  1  6  0  0  0
 38 41  1  0  0  0  0
 39 36  1  6  0  0  0
 39 38  1  0  0  0  0
 39 41  1  0  0  0  0
 42 40  1  0  0  0  0
 43 54  1  6  0  0  0
 43 44  1  0  0  0  0
 44 45  2  0  0  0  0
 46 50  1  0  0  0  0
 46 52  1  0  0  0  0
 47 45  1  6  0  0  0
 47 46  1  0  0  0  0
 47 51  1  0  0  0  0
 48 49  1  0  0  0  0
 49 53  1  0  0  0  0
 50 52  1  0  0  0  0
 50 48  1  0  0  0  0
 51 49  1  0  0  0  0
 52 48  1  0  0  0  0
 54 55  1  0  0  0  0
M  END
>  <MODEL>
4

>  <REMARK>
 VINA RESULT:      -7.4      4.400      8.194
  Name = 
  8 active torsions:
  status: ('A' for Active; 'I' for Inactive)
    1  A    between atoms: C_4  and  C_38
    2  A    between atoms: C_8  and  C_38
    3  A    between atoms: C_10  and  C_48
    4  A    between atoms: N_11  and  C_25
    5  A    between atoms: C_12  and  C_25
    6  A    between atoms: C_14  and  C_22
    7  A    between atoms: C_20  and  C_38
    8  A    between atoms: C_22  and  N_30
                            x       y       z     vdW  Elec       q    Type
                         _______ _______ _______ _____ _____    ______ ____

>  <TORSDO>
F 8

$$$$
=
 OpenBabel10222421043D

 55 64  0  0  1  0  0  0  0  0999 V2000
  189.0680  177.1650  135.3520 O   0  0  0  0  0  0  0  0  0  0  0  0
  188.6480  175.5930  137.0830 C   0  0  1  0  0  3  0  0  0  0  0  0
  191.0360  174.9280  136.9580 C   0  0  0  0  0  0  0  0  0  0  0  0
  189.8070  175.2910  136.3070 N   0  0  0  0  0  0  0  0  0  0  0  0
  187.2780  178.1680  138.4490 C   0  0  0  0  0  2  0  0  0  0  0  0
  183.5530  177.6760  138.3800 C   0  0  0  0  0  0  0  0  0  0  0  0
  184.3790  178.4860  139.3420 C   0  0  0  0  0  2  0  0  0  0  0  0
  182.4000  178.1860  137.7500 C   0  0  0  0  0  0  0  0  0  0  0  0
  188.2430  176.9160  136.4750 C   0  0  1  0  0  3  0  0  0  0  0  0
  181.7250  177.4000  136.8120 C   0  0  0  0  0  3  0  0  0  0  0  0
  182.8900  173.2310  136.5470 C   0  0  0  0  0  3  0  0  0  0  0  0
  183.3110  171.9240  136.3000 C   0  0  0  0  0  3  0  0  0  0  0  0
  183.9950  176.3900  138.0720 C   0  0  0  0  0  3  0  0  0  0  0  0
  182.1850  176.1140  136.5060 C   0  0  0  0  0  3  0  0  0  0  0  0
  184.6370  171.6180  136.3060 N   0  0  0  0  0  0  0  0  0  0  0  0
  186.9390  172.2110  136.5060 C   0  0  0  0  0  3  0  0  0  0  0  0
  186.2170  174.8740  136.9390 C   0  0  0  0  0  3  0  0  0  0  0  0
  187.5770  174.5350  136.8710 C   0  0  0  0  0  0  0  0  0  0  0  0
  186.0960  178.6340  137.7420 N   0  0  0  0  0  2  0  0  0  0  0  0
  191.2220  175.2580  138.1630 O   0  0  0  0  0  0  0  0  0  0  0  0
  185.5860  172.5650  136.5300 C   0  0  0  0  0  0  0  0  0  0  0  0
  185.2090  173.9070  136.7730 C   0  0  0  0  0  0  0  0  0  0  0  0
  183.8300  174.2390  136.8030 C   0  0  0  0  0  0  0  0  0  0  0  0
  183.3400  175.6050  137.1200 C   0  0  0  0  0  0  0  0  0  0  0  0
  185.3110  179.3770  138.6460 N   0  0  0  0  0  2  0  0  0  0  0  0
  187.9260  173.1860  136.6840 C   0  0  0  0  0  3  0  0  0  0  0  0
  188.4430  178.0480  137.4790 C   0  0  0  0  0  2  0  0  0  0  0  0
  189.8530  176.0630  135.1400 N   0  0  0  0  0  2  0  0  0  0  0  0
  181.9300  179.5820  137.9940 C   0  0  0  0  0  2  0  0  0  0  0  0
  181.6560  179.7650  139.4120 N   0  0  0  0  0  2  0  0  0  0  0  0
  180.3090  179.2600  141.4420 N   0  0  0  0  0  0  0  0  0  0  0  0
  179.0120  178.9530  142.0310 C   0  0  0  0  0  1  0  0  0  0  0  0
  180.4730  179.2380  140.0150 C   0  0  0  0  0  0  0  0  0  0  0  0
  179.5670  178.7450  139.2900 O   0  0  0  0  0  0  0  0  0  0  0  0
  181.3860  179.6850  142.3320 C   0  0  0  0  0  2  0  0  0  0  0  0
  183.3720  178.1230  142.1100 C   0  0  0  0  0  2  0  0  0  0  0  0
  182.1270  178.4850  142.9420 C   0  0  1  0  0  3  0  0  0  0  0  0
  184.7400  179.0620  144.1000 C   0  0  2  0  0  3  0  0  0  0  0  0
  184.7220  178.2350  142.8510 C   0  0  2  0  0  3  0  0  0  0  0  0
  183.3780  179.6340  144.4630 C   0  0  0  0  0  2  0  0  0  0  0  0
  185.1390  179.5780  142.8530 O   0  0  0  0  0  0  0  0  0  0  0  0
  182.3970  178.6420  144.3220 O   0  0  0  0  0  0  0  0  0  0  0  0
  192.1440  174.2700  136.1750 C   0  0  2  0  0  3  0  0  0  0  0  0
  193.3880  174.1190  137.0120 C   0  0  0  0  0  3  0  0  0  0  0  0
  194.3270  173.2170  136.7130 C   0  0  0  0  0  3  0  0  0  0  0  0
  196.8160  173.3360  136.6490 C   0  0  1  0  0  3  0  0  0  0  0  0
  195.5760  173.1040  137.5400 C   0  0  1  0  0  3  0  0  0  0  0  0
  197.9260  174.5150  138.4820 C   0  0  2  0  0  3  0  0  0  0  0  0
  196.8250  174.1670  139.4110 N   0  0  0  0  0  0  0  0  0  0  0  0
  197.4840  174.6560  137.0200 C   0  0  1  0  0  3  0  0  0  0  0  0
  195.5080  174.0430  138.7610 C   0  0  0  0  0  2  0  0  0  0  0  0
  198.0890  173.3690  137.4920 C   0  0  2  0  0  3  0  0  0  0  0  0
  196.7230  175.2510  140.3730 C   0  0  0  0  0  1  0  0  0  0  0  0
  192.4320  175.0220  134.8720 C   0  0  0  0  0  2  0  0  0  0  0  0
  193.3080  176.0920  135.0880 O   0  0  0  0  0  1  0  0  0  0  0  0
  1  9  1  0  0  0  0
  2 18  1  6  0  0  0
  3 20  2  0  0  0  0
  4  3  1  0  0  0  0
  4  2  1  0  0  0  0
  6  7  1  0  0  0  0
  8 29  1  0  0  0  0
  8  6  2  0  0  0  0
  9  2  1  0  0  0  0
  9 27  1  1  0  0  0
 10  8  1  0  0  0  0
 11 23  1  0  0  0  0
 12 15  1  0  0  0  0
 12 11  2  0  0  0  0
 13  6  1  0  0  0  0
 14 10  2  0  0  0  0
 14 24  1  0  0  0  0
 15 21  2  0  0  0  0
 16 21  1  0  0  0  0
 16 26  2  0  0  0  0
 18 17  2  0  0  0  0
 19  5  1  0  0  0  0
 19 25  1  0  0  0  0
 21 22  1  0  0  0  0
 22 23  2  0  0  0  0
 22 17  1  0  0  0  0
 23 24  1  0  0  0  0
 24 13  2  0  0  0  0
 25  7  1  0  0  0  0
 26 18  1  0  0  0  0
 27  5  1  0  0  0  0
 28  1  1  0  0  0  0
 28  4  1  0  0  0  0
 29 30  1  0  0  0  0
 30 33  1  0  0  0  0
 31 32  1  0  0  0  0
 31 35  1  0  0  0  0
 33 31  1  0  0  0  0
 34 33  2  0  0  0  0
 36 37  1  0  0  0  0
 37 35  1  6  0  0  0
 37 42  1  0  0  0  0
 38 40  1  6  0  0  0
 39 36  1  6  0  0  0
 39 41  1  0  0  0  0
 39 38  1  0  0  0  0
 41 38  1  0  0  0  0
 42 40  1  0  0  0  0
 43 54  1  6  0  0  0
 43  3  1  0  0  0  0
 43 44  1  0  0  0  0
 45 44  2  0  0  0  0
 46 50  1  0  0  0  0
 46 52  1  0  0  0  0
 46 47  1  0  0  0  0
 47 45  1  6  0  0  0
 47 51  1  0  0  0  0
 48 49  1  0  0  0  0
 49 53  1  0  0  0  0
 50 52  1  0  0  0  0
 50 48  1  0  0  0  0
 51 49  1  0  0  0  0
 52 48  1  0  0  0  0
 54 55  1  0  0  0  0
M  END
>  <MODEL>
5

>  <REMARK>
 VINA RESULT:      -7.0      2.985     12.597
  Name = 
  8 active torsions:
  status: ('A' for Active; 'I' for Inactive)
    1  A    between atoms: C_4  and  C_38
    2  A    between atoms: C_8  and  C_38
    3  A    between atoms: C_10  and  C_48
    4  A    between atoms: N_11  and  C_25
    5  A    between atoms: C_12  and  C_25
    6  A    between atoms: C_14  and  C_22
    7  A    between atoms: C_20  and  C_38
    8  A    between atoms: C_22  and  N_30
                            x       y       z     vdW  Elec       q    Type
                         _______ _______ _______ _____ _____    ______ ____

>  <TORSDO>
F 8

$$$$
=
 OpenBabel10222421043D

 55 64  0  0  1  0  0  0  0  0999 V2000
  183.0720  177.0360  141.1090 O   0  0  0  0  0  0  0  0  0  0  0  0
  183.5740  178.4520  139.2680 C   0  0  1  0  0  3  0  0  0  0  0  0
  181.1760  179.0910  139.2000 C   0  0  0  0  0  0  0  0  0  0  0  0
  182.1960  178.0880  139.3500 N   0  0  0  0  0  0  0  0  0  0  0  0
  185.9240  179.4120  141.2510 C   0  0  0  0  0  2  0  0  0  0  0  0
  189.1800  178.0920  139.9180 C   0  0  0  0  0  0  0  0  0  0  0  0
  188.9330  179.3120  140.7640 C   0  0  0  0  0  2  0  0  0  0  0  0
  190.1750  177.1420  140.2240 C   0  0  0  0  0  0  0  0  0  0  0  0
  184.1050  177.8100  140.5290 C   0  0  1  0  0  3  0  0  0  0  0  0
  190.2970  175.9970  139.4330 C   0  0  0  0  0  3  0  0  0  0  0  0
  188.0540  175.9280  135.7220 C   0  0  0  0  0  3  0  0  0  0  0  0
  187.2490  175.7700  134.5940 C   0  0  0  0  0  3  0  0  0  0  0  0
  188.3430  177.8850  138.8220 C   0  0  0  0  0  3  0  0  0  0  0  0
  189.4450  175.7970  138.3410 C   0  0  0  0  0  3  0  0  0  0  0  0
  185.9580  176.1990  134.6070 N   0  0  0  0  0  0  0  0  0  0  0  0
  184.0710  177.1770  135.6870 C   0  0  0  0  0  3  0  0  0  0  0  0
  185.5640  177.4780  138.0280 C   0  0  0  0  0  3  0  0  0  0  0  0
  184.2100  177.8460  138.0280 C   0  0  0  0  0  0  0  0  0  0  0  0
  186.9100  178.3780  141.5180 N   0  0  0  0  0  2  0  0  0  0  0  0
  181.4630  180.3040  139.4030 O   0  0  0  0  0  0  0  0  0  0  0  0
  185.4080  176.7700  135.7110 C   0  0  0  0  0  0  0  0  0  0  0  0
  186.1810  176.9400  136.8840 C   0  0  0  0  0  0  0  0  0  0  0  0
  187.5390  176.5290  136.8780 C   0  0  0  0  0  0  0  0  0  0  0  0
  188.4430  176.7330  138.0390 C   0  0  0  0  0  0  0  0  0  0  0  0
  188.1010  179.0070  141.9320 N   0  0  0  0  0  2  0  0  0  0  0  0
  183.4790  177.7190  136.8340 C   0  0  0  0  0  3  0  0  0  0  0  0
  184.5280  178.8770  141.5330 C   0  0  0  0  0  2  0  0  0  0  0  0
  181.9990  177.0420  140.2570 N   0  0  0  0  0  2  0  0  0  0  0  0
  191.0470  177.2850  141.4270 C   0  0  0  0  0  2  0  0  0  0  0  0
  190.2230  177.3460  142.6250 N   0  0  0  0  0  2  0  0  0  0  0  0
  189.9920  177.2900  145.1020 N   0  0  0  0  0  0  0  0  0  0  0  0
  190.4390  176.7580  146.3840 C   0  0  0  0  0  1  0  0  0  0  0  0
  190.7610  177.0440  143.9140 C   0  0  0  0  0  0  0  0  0  0  0  0
  191.9220  176.5610  144.0100 O   0  0  0  0  0  0  0  0  0  0  0  0
  188.7060  177.9800  145.0550 C   0  0  0  0  0  2  0  0  0  0  0  0
  187.3140  178.2620  147.1580 C   0  0  0  0  0  2  0  0  0  0  0  0
  187.6740  177.3260  145.9880 C   0  0  1  0  0  3  0  0  0  0  0  0
  185.0180  178.5300  145.9870 C   0  0  2  0  0  3  0  0  0  0  0  0
  185.8340  178.6910  147.2340 C   0  0  2  0  0  3  0  0  0  0  0  0
  185.7980  177.9140  144.8340 C   0  0  0  0  0  2  0  0  0  0  0  0
  185.6130  179.7560  146.3410 O   0  0  0  0  0  0  0  0  0  0  0  0
  186.5450  176.8230  145.3000 O   0  0  0  0  0  0  0  0  0  0  0  0
  179.7490  178.6870  138.9270 C   0  0  2  0  0  3  0  0  0  0  0  0
  179.6860  177.4900  138.0150 C   0  0  0  0  0  3  0  0  0  0  0  0
  179.0530  176.3690  138.3720 C   0  0  0  0  0  3  0  0  0  0  0  0
  179.1830  175.6770  135.9820 C   0  0  1  0  0  3  0  0  0  0  0  0
  178.9720  175.1980  137.4350 C   0  0  1  0  0  3  0  0  0  0  0  0
  180.4240  173.6300  135.4770 C   0  0  2  0  0  3  0  0  0  0  0  0
  180.0990  173.0700  136.8100 N   0  0  0  0  0  0  0  0  0  0  0  0
  180.5170  175.1610  135.4520 C   0  0  1  0  0  3  0  0  0  0  0  0
  179.9480  174.0860  137.8670 C   0  0  0  0  0  2  0  0  0  0  0  0
  179.2490  174.4880  135.0250 C   0  0  2  0  0  3  0  0  0  0  0  0
  181.2120  172.2180  137.1950 C   0  0  0  0  0  1  0  0  0  0  0  0
  178.9310  179.8570  138.3760 C   0  0  0  0  0  2  0  0  0  0  0  0
  179.0070  179.9150  136.9800 O   0  0  0  0  0  1  0  0  0  0  0  0
  2 18  1  6  0  0  0
  2  4  1  0  0  0  0
  2  9  1  0  0  0  0
  3  4  1  0  0  0  0
  3 20  2  0  0  0  0
  4 28  1  0  0  0  0
  5 19  1  0  0  0  0
  5 27  1  0  0  0  0
  6  8  1  0  0  0  0
  6  7  1  0  0  0  0
  7 25  1  0  0  0  0
  8 29  1  0  0  0  0
  9  1  1  0  0  0  0
  9 27  1  1  0  0  0
 10  8  2  0  0  0  0
 11 23  1  0  0  0  0
 12 15  1  0  0  0  0
 12 11  2  0  0  0  0
 13  6  2  0  0  0  0
 14 10  1  0  0  0  0
 15 21  2  0  0  0  0
 16 21  1  0  0  0  0
 16 26  2  0  0  0  0
 17 18  2  0  0  0  0
 19 25  1  0  0  0  0
 21 22  1  0  0  0  0
 22 17  1  0  0  0  0
 23 22  2  0  0  0  0
 23 24  1  0  0  0  0
 24 14  2  0  0  0  0
 24 13  1  0  0  0  0
 26 18  1  0  0  0  0
 28  1  1  0  0  0  0
 29 30  1  0  0  0  0
 30 33  1  0  0  0  0
 31 32  1  0  0  0  0
 33 34  2  0  0  0  0
 33 31  1  0  0  0  0
 35 31  1  0  0  0  0
 37 35  1  6  0  0  0
 37 36  1  0  0  0  0
 38 40  1  6  0  0  0
 38 41  1  0  0  0  0
 38 39  1  0  0  0  0
 39 36  1  6  0  0  0
 40 42  1  0  0  0  0
 41 39  1  0  0  0  0
 42 37  1  0  0  0  0
 43 44  1  6  0  0  0
 43  3  1  0  0  0  0
 44 45  2  0  0  0  0
 46 47  1  0  0  0  0
 47 51  1  0  0  0  0
 47 45  1  1  0  0  0
 48 49  1  0  0  0  0
 49 53  1  0  0  0  0
 49 51  1  0  0  0  0
 50 48  1  0  0  0  0
 50 46  1  0  0  0  0
 52 50  1  0  0  0  0
 52 48  1  0  0  0  0
 52 46  1  0  0  0  0
 54 43  1  0  0  0  0
 55 54  1  0  0  0  0
M  END
>  <MODEL>
6

>  <REMARK>
 VINA RESULT:      -6.9      3.939      7.703
  Name = 
  8 active torsions:
  status: ('A' for Active; 'I' for Inactive)
    1  A    between atoms: C_4  and  C_38
    2  A    between atoms: C_8  and  C_38
    3  A    between atoms: C_10  and  C_48
    4  A    between atoms: N_11  and  C_25
    5  A    between atoms: C_12  and  C_25
    6  A    between atoms: C_14  and  C_22
    7  A    between atoms: C_20  and  C_38
    8  A    between atoms: C_22  and  N_30
                            x       y       z     vdW  Elec       q    Type
                         _______ _______ _______ _____ _____    ______ ____

>  <TORSDO>
F 8

$$$$
=
 OpenBabel10222421043D

 55 64  0  0  1  0  0  0  0  0999 V2000
  184.6670  180.1280  139.3900 O   0  0  0  0  0  0  0  0  0  0  0  0
  184.4510  178.1190  140.6400 C   0  0  1  0  0  3  0  0  0  0  0  0
  181.9910  178.2900  140.3520 C   0  0  0  0  0  0  0  0  0  0  0  0
  183.2620  178.9080  140.6180 N   0  0  0  0  0  0  0  0  0  0  0  0
  186.7210  177.1420  138.5750 C   0  0  0  0  0  2  0  0  0  0  0  0
  189.9610  176.8600  140.4580 C   0  0  0  0  0  0  0  0  0  0  0  0
  189.5200  176.1180  139.2250 C   0  0  0  0  0  2  0  0  0  0  0  0
  191.2180  177.4890  140.5580 C   0  0  0  0  0  0  0  0  0  0  0  0
  185.3350  178.9230  139.7160 C   0  0  1  0  0  3  0  0  0  0  0  0
  191.5290  178.2220  141.7070 C   0  0  0  0  0  3  0  0  0  0  0  0
  188.8340  177.8210  145.0800 C   0  0  0  0  0  3  0  0  0  0  0  0
  187.9370  177.8600  146.1480 C   0  0  0  0  0  3  0  0  0  0  0  0
  189.0520  176.9650  141.5110 C   0  0  0  0  0  3  0  0  0  0  0  0
  190.6050  178.3260  142.7520 C   0  0  0  0  0  3  0  0  0  0  0  0
  186.5970  177.8920  145.9160 N   0  0  0  0  0  0  0  0  0  0  0  0
  184.7080  177.9630  144.4620 C   0  0  0  0  0  3  0  0  0  0  0  0
  186.4100  177.9620  142.2470 C   0  0  0  0  0  3  0  0  0  0  0  0
  185.0250  178.0630  142.0470 C   0  0  0  0  0  0  0  0  0  0  0  0
  187.9870  177.8360  138.7410 N   0  0  0  0  0  2  0  0  0  0  0  0
  181.9540  177.1800  139.7520 O   0  0  0  0  0  0  0  0  0  0  0  0
  186.0920  177.9070  144.6540 C   0  0  0  0  0  0  0  0  0  0  0  0
  186.9620  177.8820  143.5390 C   0  0  0  0  0  0  0  0  0  0  0  0
  188.3620  177.8150  143.7610 C   0  0  0  0  0  0  0  0  0  0  0  0
  189.3460  177.7130  142.6530 C   0  0  0  0  0  0  0  0  0  0  0  0
  189.0040  177.0260  138.1970 N   0  0  0  0  0  2  0  0  0  0  0  0
  184.1780  178.0310  143.1680 C   0  0  0  0  0  3  0  0  0  0  0  0
  185.5960  178.1540  138.4240 C   0  0  0  0  0  2  0  0  0  0  0  0
  183.5140  180.1940  140.1270 N   0  0  0  0  0  2  0  0  0  0  0  0
  192.1950  177.4660  139.4300 C   0  0  0  0  0  2  0  0  0  0  0  0
  191.8810  176.3630  138.5330 N   0  0  0  0  0  2  0  0  0  0  0  0
  192.5760  174.3490  137.2480 N   0  0  0  0  0  0  0  0  0  0  0  0
  193.6000  173.6550  136.4770 C   0  0  0  0  0  1  0  0  0  0  0  0
  192.9090  175.5430  137.9740 C   0  0  0  0  0  0  0  0  0  0  0  0
  194.1180  175.8670  138.1220 O   0  0  0  0  0  0  0  0  0  0  0  0
  191.2040  173.8530  137.1730 C   0  0  0  0  0  2  0  0  0  0  0  0
  189.4800  172.7190  135.6970 C   0  0  0  0  0  2  0  0  0  0  0  0
  190.8000  173.5130  135.7300 C   0  0  1  0  0  3  0  0  0  0  0  0
  188.4300  174.8770  134.7200 C   0  0  2  0  0  3  0  0  0  0  0  0
  188.3140  173.4010  134.9490 C   0  0  2  0  0  3  0  0  0  0  0  0
  189.7330  175.4670  135.2390 C   0  0  0  0  0  2  0  0  0  0  0  0
  187.7040  174.3410  135.8000 O   0  0  0  0  0  0  0  0  0  0  0  0
  190.8040  174.6380  134.8730 O   0  0  0  0  0  0  0  0  0  0  0  0
  180.7110  179.0190  140.6730 C   0  0  2  0  0  3  0  0  0  0  0  0
  180.5080  180.1950  139.7530 C   0  0  0  0  0  3  0  0  0  0  0  0
  179.6130  180.1610  138.7610 C   0  0  0  0  0  3  0  0  0  0  0  0
  179.8640  182.6360  138.6040 C   0  0  1  0  0  3  0  0  0  0  0  0
  179.4010  181.3560  137.8750 C   0  0  1  0  0  3  0  0  0  0  0  0
  180.7130  183.5420  136.4970 C   0  0  2  0  0  3  0  0  0  0  0  0
  180.1360  182.4050  135.7420 N   0  0  0  0  0  0  0  0  0  0  0  0
  181.1160  183.1930  137.9350 C   0  0  1  0  0  3  0  0  0  0  0  0
  180.0780  181.1460  136.5060 C   0  0  0  0  0  2  0  0  0  0  0  0
  179.7930  183.8450  137.6730 C   0  0  2  0  0  3  0  0  0  0  0  0
  181.0050  182.1690  134.6010 C   0  0  0  0  0  1  0  0  0  0  0  0
  180.6590  179.4420  142.1430 C   0  0  0  0  0  2  0  0  0  0  0  0
  180.3340  178.3600  142.9700 O   0  0  0  0  0  1  0  0  0  0  0  0
  1  9  1  0  0  0  0
  1 28  1  0  0  0  0
  2 18  1  1  0  0  0
  3  4  1  0  0  0  0
  3 43  1  0  0  0  0
  4  2  1  0  0  0  0
  5 19  1  0  0  0  0
  6  8  2  0  0  0  0
  6 13  1  0  0  0  0
  7  6  1  0  0  0  0
  8 10  1  0  0  0  0
  9 27  1  6  0  0  0
  9  2  1  0  0  0  0
 10 14  2  0  0  0  0
 11 12  1  0  0  0  0
 13 24  2  0  0  0  0
 15 12  2  0  0  0  0
 16 21  1  0  0  0  0
 17 22  1  0  0  0  0
 18 17  2  0  0  0  0
 18 26  1  0  0  0  0
 20  3  2  0  0  0  0
 21 15  1  0  0  0  0
 22 23  1  0  0  0  0
 22 21  2  0  0  0  0
 23 11  2  0  0  0  0
 24 14  1  0  0  0  0
 24 23  1  0  0  0  0
 25 19  1  0  0  0  0
 25  7  1  0  0  0  0
 26 16  2  0  0  0  0
 27  5  1  0  0  0  0
 28  4  1  0  0  0  0
 29  8  1  0  0  0  0
 30 29  1  0  0  0  0
 31 33  1  0  0  0  0
 32 31  1  0  0  0  0
 33 34  2  0  0  0  0
 33 30  1  0  0  0  0
 35 31  1  0  0  0  0
 36 37  1  0  0  0  0
 37 35  1  1  0  0  0
 38 39  1  0  0  0  0
 38 40  1  1  0  0  0
 38 41  1  0  0  0  0
 39 36  1  1  0  0  0
 39 41  1  0  0  0  0
 42 40  1  0  0  0  0
 42 37  1  0  0  0  0
 43 44  1  6  0  0  0
 43 54  1  0  0  0  0
 45 44  2  0  0  0  0
 47 46  1  0  0  0  0
 47 45  1  1  0  0  0
 48 52  1  0  0  0  0
 48 50  1  0  0  0  0
 49 48  1  0  0  0  0
 49 51  1  0  0  0  0
 50 46  1  0  0  0  0
 51 47  1  0  0  0  0
 52 50  1  0  0  0  0
 52 46  1  0  0  0  0
 53 49  1  0  0  0  0
 54 55  1  0  0  0  0
M  END
>  <MODEL>
7

>  <REMARK>
 VINA RESULT:      -6.8      1.850      3.531
  Name = 
  8 active torsions:
  status: ('A' for Active; 'I' for Inactive)
    1  A    between atoms: C_4  and  C_38
    2  A    between atoms: C_8  and  C_38
    3  A    between atoms: C_10  and  C_48
    4  A    between atoms: N_11  and  C_25
    5  A    between atoms: C_12  and  C_25
    6  A    between atoms: C_14  and  C_22
    7  A    between atoms: C_20  and  C_38
    8  A    between atoms: C_22  and  N_30
                            x       y       z     vdW  Elec       q    Type
                         _______ _______ _______ _____ _____    ______ ____

>  <TORSDO>
F 8

$$$$
=
 OpenBabel10222421043D

 55 64  0  0  1  0  0  0  0  0999 V2000
  188.6750  175.3860  143.3280 O   0  0  0  0  0  0  0  0  0  0  0  0
  188.4780  177.6120  142.5190 C   0  0  1  0  0  3  0  0  0  0  0  0
  186.9840  178.1000  144.4410 C   0  0  0  0  0  0  0  0  0  0  0  0
  187.4120  177.2220  143.3850 N   0  0  0  0  0  0  0  0  0  0  0  0
  191.6860  177.3530  142.3950 C   0  0  0  0  0  2  0  0  0  0  0  0
  192.6940  177.1270  138.7820 C   0  0  0  0  0  0  0  0  0  0  0  0
  193.4880  177.6420  139.9510 C   0  0  0  0  0  2  0  0  0  0  0  0
  193.2170  176.2030  137.8550 C   0  0  0  0  0  0  0  0  0  0  0  0
  189.3570  176.3850  142.5930 C   0  0  1  0  0  3  0  0  0  0  0  0
  192.3960  175.7130  136.8360 C   0  0  0  0  0  3  0  0  0  0  0  0
  188.5760  177.6900  136.2740 C   0  0  0  0  0  3  0  0  0  0  0  0
  187.2760  178.1740  136.1320 C   0  0  0  0  0  3  0  0  0  0  0  0
  191.3710  177.5510  138.6610 C   0  0  0  0  0  3  0  0  0  0  0  0
  191.0680  176.1410  136.7310 C   0  0  0  0  0  3  0  0  0  0  0  0
  186.5340  178.4790  137.2310 N   0  0  0  0  0  0  0  0  0  0  0  0
  186.2140  178.6100  139.5910 C   0  0  0  0  0  3  0  0  0  0  0  0
  188.7770  177.5770  139.9980 C   0  0  0  0  0  3  0  0  0  0  0  0
  187.9590  177.8380  141.1080 C   0  0  0  0  0  0  0  0  0  0  0  0
  192.1470  176.3820  141.4160 N   0  0  0  0  0  2  0  0  0  0  0  0
  187.7710  178.9920  144.8650 O   0  0  0  0  0  0  0  0  0  0  0  0
  187.0190  178.3050  138.4890 C   0  0  0  0  0  0  0  0  0  0  0  0
  188.3280  177.8040  138.6840 C   0  0  0  0  0  0  0  0  0  0  0  0
  189.1290  177.5120  137.5500 C   0  0  0  0  0  0  0  0  0  0  0  0
  190.5360  177.0500  137.6590 C   0  0  0  0  0  0  0  0  0  0  0  0
  193.4770  176.7030  141.0760 N   0  0  0  0  0  2  0  0  0  0  0  0
  186.6840  178.3870  140.8900 C   0  0  0  0  0  3  0  0  0  0  0  0
  190.6620  176.7070  143.3160 C   0  0  0  0  0  2  0  0  0  0  0  0
  187.4120  175.8400  143.6020 N   0  0  0  0  0  2  0  0  0  0  0  0
  194.6040  175.6660  137.9850 C   0  0  0  0  0  2  0  0  0  0  0  0
  194.9780  174.9730  136.7610 N   0  0  0  0  0  2  0  0  0  0  0  0
  196.7160  174.0970  135.2110 N   0  0  0  0  0  0  0  0  0  0  0  0
  198.0310  174.2480  134.6010 C   0  0  0  0  0  1  0  0  0  0  0  0
  196.3340  174.9390  136.3100 C   0  0  0  0  0  0  0  0  0  0  0  0
  197.2020  175.6500  136.8840 O   0  0  0  0  0  0  0  0  0  0  0  0
  195.7820  173.1490  134.6080 C   0  0  0  0  0  2  0  0  0  0  0  0
  196.9920  171.6720  136.2790 C   0  0  0  0  0  2  0  0  0  0  0  0
  196.0840  171.7040  135.0350 C   0  0  1  0  0  3  0  0  0  0  0  0
  194.8910  170.8480  137.5540 C   0  0  2  0  0  3  0  0  0  0  0  0
  196.3820  171.0010  137.5290 C   0  0  2  0  0  3  0  0  0  0  0  0
  194.2130  171.3550  136.2900 C   0  0  0  0  0  2  0  0  0  0  0  0
  195.5460  171.9210  138.1870 O   0  0  0  0  0  0  0  0  0  0  0  0
  194.9210  170.9090  135.1640 O   0  0  0  0  0  0  0  0  0  0  0  0
  185.6580  177.8760  145.1230 C   0  0  2  0  0  3  0  0  0  0  0  0
  184.5550  178.6350  144.4330 C   0  0  0  0  0  3  0  0  0  0  0  0
  184.2190  178.3840  143.1650 C   0  0  0  0  0  3  0  0  0  0  0  0
  182.8460  178.5560  141.0920 C   0  0  1  0  0  3  0  0  0  0  0  0
  183.0940  179.1290  142.5040 C   0  0  1  0  0  3  0  0  0  0  0  0
  180.4390  178.8820  141.3700 C   0  0  2  0  0  3  0  0  0  0  0  0
  180.6530  179.5860  142.6560 N   0  0  0  0  0  0  0  0  0  0  0  0
  181.5060  177.8280  141.0510 C   0  0  1  0  0  3  0  0  0  0  0  0
  181.8390  179.1260  143.4000 C   0  0  0  0  0  2  0  0  0  0  0  0
  181.6160  179.1990  140.4550 C   0  0  2  0  0  3  0  0  0  0  0  0
  179.4950  179.3080  143.4900 C   0  0  0  0  0  1  0  0  0  0  0  0
  185.7290  178.2200  146.6130 C   0  0  0  0  0  2  0  0  0  0  0  0
  185.2660  179.5180  146.8560 O   0  0  0  0  0  1  0  0  0  0  0  0
  1 28  1  0  0  0  0
  2 18  1  6  0  0  0
  2  9  1  0  0  0  0
  2  4  1  0  0  0  0
  3 20  2  0  0  0  0
  3 43  1  0  0  0  0
  4 28  1  0  0  0  0
  4  3  1  0  0  0  0
  5 27  1  0  0  0  0
  6  7  1  0  0  0  0
  7 25  1  0  0  0  0
  8 29  1  0  0  0  0
  8  6  2  0  0  0  0
  9 27  1  1  0  0  0
  9  1  1  0  0  0  0
 10  8  1  0  0  0  0
 11 23  1  0  0  0  0
 12 11  2  0  0  0  0
 12 15  1  0  0  0  0
 13  6  1  0  0  0  0
 14 10  2  0  0  0  0
 14 24  1  0  0  0  0
 15 21  2  0  0  0  0
 16 26  2  0  0  0  0
 17 18  2  0  0  0  0
 19  5  1  0  0  0  0
 21 22  1  0  0  0  0
 21 16  1  0  0  0  0
 22 17  1  0  0  0  0
 23 24  1  0  0  0  0
 23 22  2  0  0  0  0
 24 13  2  0  0  0  0
 25 19  1  0  0  0  0
 26 18  1  0  0  0  0
 30 29  1  0  0  0  0
 31 33  1  0  0  0  0
 32 31  1  0  0  0  0
 33 30  1  0  0  0  0
 33 34  2  0  0  0  0
 35 31  1  0  0  0  0
 37 35  1  1  0  0  0
 37 42  1  0  0  0  0
 37 36  1  0  0  0  0
 38 40  1  6  0  0  0
 38 41  1  0  0  0  0
 39 36  1  6  0  0  0
 39 38  1  0  0  0  0
 39 41  1  0  0  0  0
 42 40  1  0  0  0  0
 43 44  1  6  0  0  0
 43 54  1  0  0  0  0
 45 44  2  0  0  0  0
 46 47  1  0  0  0  0
 47 45  1  1  0  0  0
 47 51  1  0  0  0  0
 48 49  1  0  0  0  0
 49 51  1  0  0  0  0
 49 53  1  0  0  0  0
 50 46  1  0  0  0  0
 50 48  1  0  0  0  0
 52 50  1  0  0  0  0
 52 46  1  0  0  0  0
 52 48  1  0  0  0  0
 54 55  1  0  0  0  0
M  END
>  <MODEL>
8

>  <REMARK>
 VINA RESULT:      -6.8      3.255      5.745
  Name = 
  8 active torsions:
  status: ('A' for Active; 'I' for Inactive)
    1  A    between atoms: C_4  and  C_38
    2  A    between atoms: C_8  and  C_38
    3  A    between atoms: C_10  and  C_48
    4  A    between atoms: N_11  and  C_25
    5  A    between atoms: C_12  and  C_25
    6  A    between atoms: C_14  and  C_22
    7  A    between atoms: C_20  and  C_38
    8  A    between atoms: C_22  and  N_30
                            x       y       z     vdW  Elec       q    Type
                         _______ _______ _______ _____ _____    ______ ____

>  <TORSDO>
F 8

$$$$
=
 OpenBabel10222421043D

 55 64  0  0  1  0  0  0  0  0999 V2000
  183.3800  176.2760  139.2300 O   0  0  0  0  0  0  0  0  0  0  0  0
  183.5150  176.0740  136.8660 C   0  0  1  0  0  3  0  0  0  0  0  0
  181.0810  176.5510  136.7590 C   0  0  0  0  0  0  0  0  0  0  0  0
  182.1970  175.8890  137.3810 N   0  0  0  0  0  0  0  0  0  0  0  0
  186.0060  178.0680  137.3070 C   0  0  0  0  0  2  0  0  0  0  0  0
  189.1680  176.1260  136.7150 C   0  0  0  0  0  0  0  0  0  0  0  0
  188.9250  177.6020  136.5550 C   0  0  0  0  0  2  0  0  0  0  0  0
  190.2740  175.6080  137.4200 C   0  0  0  0  0  0  0  0  0  0  0  0
  184.2580  176.4360  138.1310 C   0  0  1  0  0  3  0  0  0  0  0  0
  190.3940  174.2260  137.5890 C   0  0  0  0  0  3  0  0  0  0  0  0
  187.7080  171.7250  135.2780 C   0  0  0  0  0  3  0  0  0  0  0  0
  186.7830  170.8660  134.6860 C   0  0  0  0  0  3  0  0  0  0  0  0
  188.2190  175.2520  136.1850 C   0  0  0  0  0  3  0  0  0  0  0  0
  189.4300  173.3620  137.0590 C   0  0  0  0  0  3  0  0  0  0  0  0
  185.4720  171.2190  134.6080 N   0  0  0  0  0  0  0  0  0  0  0  0
  183.6590  172.7100  135.0330 C   0  0  0  0  0  3  0  0  0  0  0  0
  185.4080  174.4760  136.3070 C   0  0  0  0  0  3  0  0  0  0  0  0
  184.0380  174.7770  136.2690 C   0  0  0  0  0  0  0  0  0  0  0  0
  187.1050  177.4620  138.0390 N   0  0  0  0  0  2  0  0  0  0  0  0
  181.2840  177.5780  136.0530 O   0  0  0  0  0  0  0  0  0  0  0  0
  185.0190  172.3970  135.1150 C   0  0  0  0  0  0  0  0  0  0  0  0
  185.9180  173.2960  135.7370 C   0  0  0  0  0  0  0  0  0  0  0  0
  187.2950  172.9590  135.7980 C   0  0  0  0  0  0  0  0  0  0  0  0
  188.3190  173.8710  136.3680 C   0  0  0  0  0  0  0  0  0  0  0  0
  188.2800  178.1800  137.7380 N   0  0  0  0  0  2  0  0  0  0  0  0
  183.1740  173.8950  135.5970 C   0  0  0  0  0  3  0  0  0  0  0  0
  184.7110  177.8930  138.0850 C   0  0  0  0  0  2  0  0  0  0  0  0
  182.2100  175.7310  138.7710 N   0  0  0  0  0  2  0  0  0  0  0  0
  191.2770  176.5050  138.0660 C   0  0  0  0  0  2  0  0  0  0  0  0
  190.8810  176.7720  139.4410 N   0  0  0  0  0  2  0  0  0  0  0  0
  191.3690  177.7090  141.6940 N   0  0  0  0  0  0  0  0  0  0  0  0
  192.3410  177.9820  142.7450 C   0  0  0  0  0  1  0  0  0  0  0  0
  191.8150  177.2720  140.4000 C   0  0  0  0  0  0  0  0  0  0  0  0
  193.0400  177.3340  140.1070 O   0  0  0  0  0  0  0  0  0  0  0  0
  189.9510  177.7930  142.0290 C   0  0  0  0  0  2  0  0  0  0  0  0
  189.8720  177.0170  144.4430 C   0  0  0  0  0  2  0  0  0  0  0  0
  189.5230  176.6680  142.9840 C   0  0  1  0  0  3  0  0  0  0  0  0
  187.3190  177.3000  144.7860 C   0  0  2  0  0  3  0  0  0  0  0  0
  188.6710  177.1200  145.4070 C   0  0  2  0  0  3  0  0  0  0  0  0
  187.3530  177.3080  143.2640 C   0  0  0  0  0  2  0  0  0  0  0  0
  188.0730  178.3860  145.2680 O   0  0  0  0  0  0  0  0  0  0  0  0
  188.1770  176.2700  142.8050 O   0  0  0  0  0  0  0  0  0  0  0  0
  179.6730  176.0990  137.0510 C   0  0  2  0  0  3  0  0  0  0  0  0
  179.2000  176.6140  138.3850 C   0  0  0  0  0  3  0  0  0  0  0  0
  179.8280  177.6120  139.0130 C   0  0  0  0  0  3  0  0  0  0  0  0
  180.2500  177.6640  141.4690 C   0  0  1  0  0  3  0  0  0  0  0  0
  179.3220  178.1340  140.3280 C   0  0  1  0  0  3  0  0  0  0  0  0
  179.9520  179.8060  142.6090 C   0  0  2  0  0  3  0  0  0  0  0  0
  178.9300  180.2240  141.6200 N   0  0  0  0  0  0  0  0  0  0  0  0
  181.0120  178.8530  142.0450 C   0  0  1  0  0  3  0  0  0  0  0  0
  179.1370  179.6630  140.2730 C   0  0  0  0  0  2  0  0  0  0  0  0
  179.8410  178.2980  142.7960 C   0  0  2  0  0  3  0  0  0  0  0  0
  179.0240  181.6690  141.4980 C   0  0  0  0  0  1  0  0  0  0  0  0
  179.5410  174.5770  136.9570 C   0  0  0  0  0  2  0  0  0  0  0  0
  179.2660  174.0150  138.2090 O   0  0  0  0  0  1  0  0  0  0  0  0
  2 18  1  1  0  0  0
  2  4  1  0  0  0  0
  2  9  1  0  0  0  0
  3 43  1  0  0  0  0
  3  4  1  0  0  0  0
  4 28  1  0  0  0  0
  5 19  1  0  0  0  0
  5 27  1  0  0  0  0
  6  8  1  0  0  0  0
  7  6  1  0  0  0  0
  7 25  1  0  0  0  0
  8 10  2  0  0  0  0
  8 29  1  0  0  0  0
  9 27  1  6  0  0  0
  9  1  1  0  0  0  0
 11 23  1  0  0  0  0
 12 11  2  0  0  0  0
 13 24  1  0  0  0  0
 13  6  2  0  0  0  0
 14 10  1  0  0  0  0
 15 12  1  0  0  0  0
 15 21  2  0  0  0  0
 16 21  1  0  0  0  0
 16 26  2  0  0  0  0
 18 17  2  0  0  0  0
 20  3  2  0  0  0  0
 21 22  1  0  0  0  0
 22 23  2  0  0  0  0
 22 17  1  0  0  0  0
 23 24  1  0  0  0  0
 24 14  2  0  0  0  0
 25 19  1  0  0  0  0
 26 18  1  0  0  0  0
 28  1  1  0  0  0  0
 29 30  1  0  0  0  0
 30 33  1  0  0  0  0
 31 35  1  0  0  0  0
 31 32  1  0  0  0  0
 33 31  1  0  0  0  0
 34 33  2  0  0  0  0
 37 35  1  6  0  0  0
 37 36  1  0  0  0  0
 38 40  1  6  0  0  0
 38 41  1  0  0  0  0
 38 39  1  0  0  0  0
 39 36  1  6  0  0  0
 41 39  1  0  0  0  0
 42 37  1  0  0  0  0
 42 40  1  0  0  0  0
 43 54  1  1  0  0  0
 43 44  1  0  0  0  0
 44 45  2  0  0  0  0
 46 50  1  0  0  0  0
 46 52  1  0  0  0  0
 47 45  1  6  0  0  0
 47 46  1  0  0  0  0
 48 52  1  0  0  0  0
 49 48  1  0  0  0  0
 50 48  1  0  0  0  0
 50 52  1  0  0  0  0
 51 47  1  0  0  0  0
 51 49  1  0  0  0  0
 53 49  1  0  0  0  0
 54 55  1  0  0  0  0
M  END
>  <MODEL>
9

>  <REMARK>
 VINA RESULT:      -6.7      3.638      7.003
  Name = 
  8 active torsions:
  status: ('A' for Active; 'I' for Inactive)
    1  A    between atoms: C_4  and  C_38
    2  A    between atoms: C_8  and  C_38
    3  A    between atoms: C_10  and  C_48
    4  A    between atoms: N_11  and  C_25
    5  A    between atoms: C_12  and  C_25
    6  A    between atoms: C_14  and  C_22
    7  A    between atoms: C_20  and  C_38
    8  A    between atoms: C_22  and  N_30
                            x       y       z     vdW  Elec       q    Type
                         _______ _______ _______ _____ _____    ______ ____

>  <TORSDO>
F 8

$$$$
