=
 OpenBabel10222416043D

 32 37  0  0  1  0  0  0  0  0999 V2000
  191.9150  175.3390  136.7710 C   0  0  0  0  0  3  0  0  0  0  0  0
  189.2120  177.4080  141.7150 N   0  0  0  0  0  0  0  0  0  0  0  0
  188.3200  175.4400  137.0450 C   0  0  0  0  0  0  0  0  0  0  0  0
  191.1590  176.2900  138.8010 N   0  0  0  0  0  2  0  0  0  0  0  0
  190.1720  176.9620  139.5720 C   0  0  0  0  0  0  0  0  0  0  0  0
  189.0990  177.6130  138.9430 C   0  0  0  0  0  0  0  0  0  0  0  0
  189.0830  176.5990  136.4160 C   0  0  2  0  0  3  0  0  0  0  0  0
  187.9460  178.6560  136.8840 C   0  0  0  0  0  2  0  0  0  0  0  0
  191.2580  176.4130  137.5120 C   0  0  2  0  0  3  0  0  0  0  0  0
  190.3670  177.3370  136.7280 C   0  0  2  0  0  3  0  0  0  0  0  0
  189.0790  177.8080  137.4220 C   0  0  1  0  0  0  0  0  0  0  0  0
  191.3780  174.1130  136.7840 C   0  0  0  0  0  0  0  0  0  0  0  0
  188.0990  178.1800  139.7510 C   0  0  0  0  0  3  0  0  0  0  0  0
  190.1780  173.8660  137.5310 N   0  0  0  0  0  2  0  0  0  0  0  0
  186.9710  175.5660  137.2110 C   0  0  0  0  0  3  0  0  0  0  0  0
  186.1760  176.8330  137.0390 C   0  0  0  0  0  0  0  0  0  0  0  0
  186.8510  177.9410  136.9150 C   0  0  0  0  0  3  0  0  0  0  0  0
  188.8470  174.0310  136.9570 C   0  0  0  0  0  2  0  0  0  0  0  0
  190.2010  176.8550  140.9650 C   0  0  0  0  0  3  0  0  0  0  0  0
  188.1700  178.0640  141.1400 C   0  0  0  0  0  3  0  0  0  0  0  0
  192.4350  171.3040  134.6010 N   0  0  0  0  0  0  0  0  0  0  0  0
  191.3800  172.2410  134.9500 C   0  0  0  0  0  3  0  0  0  0  0  0
  193.4450  171.5330  135.3730 C   0  0  0  0  0  2  0  0  0  0  0  0
  192.0200  173.0100  136.0520 C   0  0  0  0  0  0  0  0  0  0  0  0
  193.2170  172.5950  136.2910 N   0  0  0  0  0  0  0  0  0  0  0  0
  184.7020  176.8570  137.2420 C   0  0  0  0  0  2  0  0  0  0  0  0
  184.2950  178.1310  137.9640 C   0  0  0  0  0  2  0  0  0  0  0  0
  183.8870  177.8270  139.3280 N   0  0  0  0  0  0  0  0  0  0  0  0
  184.2790  178.6700  140.4240 C   0  0  0  0  0  0  0  0  0  0  0  0
  182.9800  176.7090  139.5350 C   0  0  0  0  0  1  0  0  0  0  0  0
  183.8580  178.3600  141.8210 C   0  0  0  0  0  1  0  0  0  0  0  0
  184.9910  179.6880  140.2190 O   0  0  0  0  0  0  0  0  0  0  0  0
  1 12  2  0  0  0  0
  3 15  2  0  0  0  0
  4  5  1  0  0  0  0
  5 19  1  0  0  0  0
  6  5  2  0  0  0  0
  6 13  1  0  0  0  0
  7 10  1  0  0  0  0
  7  3  1  1  0  0  0
  7 11  1  0  0  0  0
  8 17  1  0  0  0  0
  8 11  1  0  0  0  0
  9  1  1  6  0  0  0
  9  4  1  0  0  0  0
 10 11  1  0  0  0  0
 10  9  1  0  0  0  0
 11  6  1  0  0  0  0
 12 14  1  0  0  0  0
 13 20  2  0  0  0  0
 16 15  1  0  0  0  0
 16 26  1  0  0  0  0
 17 16  2  0  0  0  0
 18  3  1  0  0  0  0
 18 14  1  0  0  0  0
 19  2  2  0  0  0  0
 20  2  1  0  0  0  0
 21 22  2  0  0  0  0
 21 23  1  0  0  0  0
 22 24  1  0  0  0  0
 23 25  1  0  0  0  0
 24 25  2  0  0  0  0
 24 12  1  0  0  0  0
 26 27  1  0  0  0  0
 27 28  1  0  0  0  0
 28 30  1  0  0  0  0
 28 29  1  0  0  0  0
 29 31  1  0  0  0  0
 32 29  2  0  0  0  0
M  END
>  <MODEL>
1

>  <REMARK>
 VINA RESULT:      -7.1      0.000      0.000
  Name = 
  4 active torsions:
  status: ('A' for Active; 'I' for Inactive)
    1  A    between atoms: N_2  and  C_7
    2  A    between atoms: C_7  and  C_16
    3  A    between atoms: C_16  and  C_24
    4  A    between atoms: C_18  and  C_30
                            x       y       z     vdW  Elec       q    Type
                         _______ _______ _______ _____ _____    ______ ____

>  <TORSDO>
F 4

$$$$
=
 OpenBabel10222416043D

 32 37  0  0  1  0  0  0  0  0999 V2000
  179.4530  175.3900  137.9350 C   0  0  0  0  0  3  0  0  0  0  0  0
  181.1160  181.0960  137.1050 N   0  0  0  0  0  0  0  0  0  0  0  0
  182.2220  176.8220  139.7480 C   0  0  0  0  0  0  0  0  0  0  0  0
  179.7990  177.6790  137.4530 N   0  0  0  0  0  2  0  0  0  0  0  0
  180.2840  178.9680  137.8060 C   0  0  0  0  0  0  0  0  0  0  0  0
  180.6120  179.2660  139.1380 C   0  0  0  0  0  0  0  0  0  0  0  0
  180.8190  176.8310  140.3410 C   0  0  2  0  0  3  0  0  0  0  0  0
  180.5240  178.8010  141.6740 C   0  0  0  0  0  2  0  0  0  0  0  0
  179.4310  176.7950  138.3310 C   0  0  2  0  0  3  0  0  0  0  0  0
  179.4260  177.0890  139.8060 C   0  0  2  0  0  3  0  0  0  0  0  0
  180.2530  178.2980  140.2720 C   0  0  1  0  0  0  0  0  0  0  0  0
  180.6180  174.8230  137.6010 C   0  0  0  0  0  0  0  0  0  0  0  0
  181.1770  180.5210  139.4190 C   0  0  0  0  0  3  0  0  0  0  0  0
  181.8240  175.6000  137.6230 N   0  0  0  0  0  2  0  0  0  0  0  0
  183.2180  177.4590  140.4290 C   0  0  0  0  0  3  0  0  0  0  0  0
  183.0330  178.3730  141.6120 C   0  0  0  0  0  0  0  0  0  0  0  0
  181.8130  178.7420  141.8870 C   0  0  0  0  0  3  0  0  0  0  0  0
  182.6570  175.7230  138.8140 C   0  0  0  0  0  2  0  0  0  0  0  0
  180.5600  179.8950  136.7970 C   0  0  0  0  0  3  0  0  0  0  0  0
  181.4260  181.4250  138.3860 C   0  0  0  0  0  3  0  0  0  0  0  0
  180.1210  171.2440  136.7520 N   0  0  0  0  0  0  0  0  0  0  0  0
  179.5240  172.4640  137.2690 C   0  0  0  0  0  2  0  0  0  0  0  0
  181.3530  171.4950  136.4580 C   0  0  0  0  0  3  0  0  0  0  0  0
  180.6700  173.4100  137.1940 C   0  0  0  0  0  0  0  0  0  0  0  0
  181.7270  172.8410  136.7220 N   0  0  0  0  0  0  0  0  0  0  0  0
  184.1940  179.0150  142.2850 C   0  0  0  0  0  2  0  0  0  0  0  0
  184.0700  178.8680  143.7930 C   0  0  0  0  0  2  0  0  0  0  0  0
  185.3290  178.4070  144.3590 N   0  0  0  0  0  0  0  0  0  0  0  0
  185.5350  178.3760  145.7810 C   0  0  0  0  0  0  0  0  0  0  0  0
  186.3310  177.8750  143.4480 C   0  0  0  0  0  1  0  0  0  0  0  0
  186.8250  177.9000  146.3600 C   0  0  0  0  0  1  0  0  0  0  0  0
  184.6230  178.7550  146.5630 O   0  0  0  0  0  0  0  0  0  0  0  0
  2 20  1  0  0  0  0
  3 15  2  0  0  0  0
  4  5  1  0  0  0  0
  4  9  1  0  0  0  0
  5  6  2  0  0  0  0
  6 13  1  0  0  0  0
  6 11  1  0  0  0  0
  7  3  1  6  0  0  0
  8 17  1  0  0  0  0
  9  1  1  1  0  0  0
  9 10  1  0  0  0  0
 10 11  1  0  0  0  0
 10  7  1  0  0  0  0
 11  7  1  0  0  0  0
 11  8  1  0  0  0  0
 12 14  1  0  0  0  0
 12  1  2  0  0  0  0
 14 18  1  0  0  0  0
 15 16  1  0  0  0  0
 16 17  2  0  0  0  0
 16 26  1  0  0  0  0
 18  3  1  0  0  0  0
 19  2  2  0  0  0  0
 19  5  1  0  0  0  0
 20 13  2  0  0  0  0
 21 22  1  0  0  0  0
 23 25  1  0  0  0  0
 23 21  2  0  0  0  0
 24 22  1  0  0  0  0
 24 12  1  0  0  0  0
 25 24  2  0  0  0  0
 26 27  1  0  0  0  0
 27 28  1  0  0  0  0
 28 29  1  0  0  0  0
 29 31  1  0  0  0  0
 29 32  2  0  0  0  0
 30 28  1  0  0  0  0
M  END
>  <MODEL>
2

>  <REMARK>
 VINA RESULT:      -6.5      6.869      9.103
  Name = 
  4 active torsions:
  status: ('A' for Active; 'I' for Inactive)
    1  A    between atoms: N_2  and  C_7
    2  A    between atoms: C_7  and  C_16
    3  A    between atoms: C_16  and  C_24
    4  A    between atoms: C_18  and  C_30
                            x       y       z     vdW  Elec       q    Type
                         _______ _______ _______ _____ _____    ______ ____

>  <TORSDO>
F 4

$$$$
=
 OpenBabel10222416043D

 32 37  0  0  1  0  0  0  0  0999 V2000
  192.0530  175.3220  136.7950 C   0  0  0  0  0  3  0  0  0  0  0  0
  189.2640  177.4130  141.6810 N   0  0  0  0  0  0  0  0  0  0  0  0
  188.4540  175.3930  137.0180 C   0  0  0  0  0  0  0  0  0  0  0  0
  191.2610  176.2850  138.8050 N   0  0  0  0  0  2  0  0  0  0  0  0
  190.2570  176.9550  139.5560 C   0  0  0  0  0  0  0  0  0  0  0  0
  189.1880  177.5910  138.9060 C   0  0  0  0  0  0  0  0  0  0  0  0
  189.2150  176.5530  136.3890 C   0  0  2  0  0  3  0  0  0  0  0  0
  188.0540  178.6040  136.8220 C   0  0  0  0  0  2  0  0  0  0  0  0
  191.3770  176.3970  137.5160 C   0  0  2  0  0  3  0  0  0  0  0  0
  190.4890  177.3060  136.7110 C   0  0  2  0  0  3  0  0  0  0  0  0
  189.1870  177.7720  137.3830 C   0  0  1  0  0  0  0  0  0  0  0  0
  191.5270  174.0920  136.8120 C   0  0  0  0  0  0  0  0  0  0  0  0
  188.1720  178.1570  139.6950 C   0  0  0  0  0  3  0  0  0  0  0  0
  190.3190  173.8410  137.5450 N   0  0  0  0  0  2  0  0  0  0  0  0
  187.1020  175.5080  137.1640 C   0  0  0  0  0  3  0  0  0  0  0  0
  186.2980  176.7670  136.9700 C   0  0  0  0  0  0  0  0  0  0  0  0
  186.9650  177.8800  136.8440 C   0  0  0  0  0  3  0  0  0  0  0  0
  188.9950  173.9890  136.9500 C   0  0  0  0  0  2  0  0  0  0  0  0
  190.2680  176.8620  140.9500 C   0  0  0  0  0  3  0  0  0  0  0  0
  188.2250  178.0540  141.0860 C   0  0  0  0  0  3  0  0  0  0  0  0
  193.7100  171.4480  135.3910 N   0  0  0  0  0  0  0  0  0  0  0  0
  193.5850  172.5380  136.3440 C   0  0  0  0  0  2  0  0  0  0  0  0
  192.5890  171.3400  134.7590 C   0  0  0  0  0  3  0  0  0  0  0  0
  192.1880  172.9880  136.0990 C   0  0  0  0  0  0  0  0  0  0  0  0
  191.6170  172.2880  135.1780 N   0  0  0  0  0  0  0  0  0  0  0  0
  184.8220  176.7790  137.1520 C   0  0  0  0  0  2  0  0  0  0  0  0
  184.1580  175.9040  136.1020 C   0  0  0  0  0  2  0  0  0  0  0  0
  183.6120  174.7040  136.7200 N   0  0  0  0  0  0  0  0  0  0  0  0
  184.1080  173.4000  136.3710 C   0  0  0  0  0  0  0  0  0  0  0  0
  182.6280  174.8690  137.7770 C   0  0  0  0  0  1  0  0  0  0  0  0
  183.5500  172.1710  137.0070 C   0  0  0  0  0  1  0  0  0  0  0  0
  185.0260  173.2770  135.5180 O   0  0  0  0  0  0  0  0  0  0  0  0
  1 12  2  0  0  0  0
  3 15  2  0  0  0  0
  4  5  1  0  0  0  0
  5 19  1  0  0  0  0
  6  5  2  0  0  0  0
  6 13  1  0  0  0  0
  7 10  1  0  0  0  0
  7  3  1  1  0  0  0
  7 11  1  0  0  0  0
  8 17  1  0  0  0  0
  8 11  1  0  0  0  0
  9  1  1  6  0  0  0
  9  4  1  0  0  0  0
 10 11  1  0  0  0  0
 10  9  1  0  0  0  0
 11  6  1  0  0  0  0
 12 14  1  0  0  0  0
 13 20  2  0  0  0  0
 16 26  1  0  0  0  0
 16 15  1  0  0  0  0
 17 16  2  0  0  0  0
 18  3  1  0  0  0  0
 18 14  1  0  0  0  0
 19  2  2  0  0  0  0
 20  2  1  0  0  0  0
 21 22  1  0  0  0  0
 23 25  1  0  0  0  0
 23 21  2  0  0  0  0
 24 22  1  0  0  0  0
 24 12  1  0  0  0  0
 25 24  2  0  0  0  0
 27 28  1  0  0  0  0
 27 26  1  0  0  0  0
 28 30  1  0  0  0  0
 29 28  1  0  0  0  0
 29 31  1  0  0  0  0
 32 29  2  0  0  0  0
M  END
>  <MODEL>
3

>  <REMARK>
 VINA RESULT:      -6.1      2.039      2.594
  Name = 
  4 active torsions:
  status: ('A' for Active; 'I' for Inactive)
    1  A    between atoms: N_2  and  C_7
    2  A    between atoms: C_7  and  C_16
    3  A    between atoms: C_16  and  C_24
    4  A    between atoms: C_18  and  C_30
                            x       y       z     vdW  Elec       q    Type
                         _______ _______ _______ _____ _____    ______ ____

>  <TORSDO>
F 4

$$$$
=
 OpenBabel10222416043D

 32 37  0  0  1  0  0  0  0  0999 V2000
  182.8360  177.7140  136.5830 C   0  0  0  0  0  3  0  0  0  0  0  0
  185.9200  172.7210  137.8450 N   0  0  0  0  0  0  0  0  0  0  0  0
  186.1840  177.8600  137.9170 C   0  0  0  0  0  0  0  0  0  0  0  0
  183.8130  175.5820  136.8870 N   0  0  0  0  0  2  0  0  0  0  0  0
  184.9500  174.7350  136.9970 C   0  0  0  0  0  0  0  0  0  0  0  0
  186.2150  175.1840  136.5860 C   0  0  0  0  0  0  0  0  0  0  0  0
  185.9460  177.8880  136.4130 C   0  0  2  0  0  3  0  0  0  0  0  0
  187.7610  176.7950  135.2940 C   0  0  0  0  0  2  0  0  0  0  0  0
  183.8220  176.6980  136.2230 C   0  0  2  0  0  3  0  0  0  0  0  0
  185.0290  177.1600  135.4540 C   0  0  2  0  0  3  0  0  0  0  0  0
  186.3700  176.4980  135.8110 C   0  0  1  0  0  0  0  0  0  0  0  0
  182.8640  178.2460  137.8100 C   0  0  0  0  0  0  0  0  0  0  0  0
  187.3210  174.3460  136.8030 C   0  0  0  0  0  3  0  0  0  0  0  0
  183.8480  177.8060  138.7590 N   0  0  0  0  0  2  0  0  0  0  0  0
  187.4700  177.8220  138.3700 C   0  0  0  0  0  3  0  0  0  0  0  0
  188.6950  177.5800  137.5280 C   0  0  0  0  0  0  0  0  0  0  0  0
  188.4990  177.1780  136.3030 C   0  0  0  0  0  3  0  0  0  0  0  0
  185.1630  178.4270  138.8700 C   0  0  0  0  0  2  0  0  0  0  0  0
  184.8250  173.5020  137.6430 C   0  0  0  0  0  3  0  0  0  0  0  0
  187.1550  173.1150  137.4410 C   0  0  0  0  0  3  0  0  0  0  0  0
  180.9050  181.2140  138.8720 N   0  0  0  0  0  0  0  0  0  0  0  0
  182.2210  180.6620  138.5960 C   0  0  0  0  0  3  0  0  0  0  0  0
  180.0310  180.2860  138.6640 C   0  0  0  0  0  2  0  0  0  0  0  0
  181.8810  179.2680  138.2030 C   0  0  0  0  0  0  0  0  0  0  0  0
  180.6090  179.0580  138.2430 N   0  0  0  0  0  0  0  0  0  0  0  0
  190.0570  177.5630  138.1260 C   0  0  0  0  0  2  0  0  0  0  0  0
  190.1190  176.5480  139.2560 C   0  0  0  0  0  2  0  0  0  0  0  0
  190.6760  177.1610  140.4530 N   0  0  0  0  0  0  0  0  0  0  0  0
  189.8670  177.3680  141.6230 C   0  0  0  0  0  0  0  0  0  0  0  0
  192.1000  177.4560  140.4680 C   0  0  0  0  0  1  0  0  0  0  0  0
  190.4390  177.9940  142.8510 C   0  0  0  0  0  1  0  0  0  0  0  0
  188.6560  177.0250  141.6270 O   0  0  0  0  0  0  0  0  0  0  0  0
  1 12  2  0  0  0  0
  3 15  2  0  0  0  0
  3 18  1  0  0  0  0
  4  5  1  0  0  0  0
  5 19  2  0  0  0  0
  6 13  2  0  0  0  0
  6  5  1  0  0  0  0
  7  3  1  1  0  0  0
  8 11  1  0  0  0  0
  8 17  1  0  0  0  0
  9  1  1  1  0  0  0
  9  4  1  0  0  0  0
 10 11  1  0  0  0  0
 10  9  1  0  0  0  0
 10  7  1  0  0  0  0
 11  7  1  0  0  0  0
 11  6  1  0  0  0  0
 12 24  1  0  0  0  0
 12 14  1  0  0  0  0
 13 20  1  0  0  0  0
 14 18  1  0  0  0  0
 16 26  1  0  0  0  0
 16 15  1  0  0  0  0
 17 16  2  0  0  0  0
 19  2  1  0  0  0  0
 20  2  2  0  0  0  0
 22 21  2  0  0  0  0
 23 21  1  0  0  0  0
 24 25  2  0  0  0  0
 24 22  1  0  0  0  0
 25 23  1  0  0  0  0
 26 27  1  0  0  0  0
 27 28  1  0  0  0  0
 28 30  1  0  0  0  0
 28 29  1  0  0  0  0
 29 32  2  0  0  0  0
 29 31  1  0  0  0  0
M  END
>  <MODEL>
4

>  <REMARK>
 VINA RESULT:      -5.9      3.144      7.973
  Name = 
  4 active torsions:
  status: ('A' for Active; 'I' for Inactive)
    1  A    between atoms: N_2  and  C_7
    2  A    between atoms: C_7  and  C_16
    3  A    between atoms: C_16  and  C_24
    4  A    between atoms: C_18  and  C_30
                            x       y       z     vdW  Elec       q    Type
                         _______ _______ _______ _____ _____    ______ ____

>  <TORSDO>
F 4

$$$$
=
 OpenBabel10222416043D

 32 37  0  0  1  0  0  0  0  0999 V2000
  181.5540  176.8920  138.2530 C   0  0  0  0  0  3  0  0  0  0  0  0
  185.8610  172.7570  137.6360 N   0  0  0  0  0  0  0  0  0  0  0  0
  185.0420  177.8070  138.1910 C   0  0  0  0  0  0  0  0  0  0  0  0
  182.9960  175.0490  137.9070 N   0  0  0  0  0  2  0  0  0  0  0  0
  184.2310  174.4970  137.4690 C   0  0  0  0  0  0  0  0  0  0  0  0
  185.0950  175.2440  136.6530 C   0  0  0  0  0  0  0  0  0  0  0  0
  184.2170  177.8090  136.9100 C   0  0  2  0  0  3  0  0  0  0  0  0
  185.6100  177.2050  135.0570 C   0  0  0  0  0  2  0  0  0  0  0  0
  182.5000  176.1480  137.4250 C   0  0  2  0  0  3  0  0  0  0  0  0
  183.1660  176.9020  136.3060 C   0  0  2  0  0  3  0  0  0  0  0  0
  184.6430  176.5730  136.0350 C   0  0  1  0  0  0  0  0  0  0  0  0
  181.9630  177.3890  139.4260 C   0  0  0  0  0  0  0  0  0  0  0  0
  186.3450  174.6910  136.3260 C   0  0  0  0  0  3  0  0  0  0  0  0
  183.3150  177.1790  139.8600 N   0  0  0  0  0  2  0  0  0  0  0  0
  186.3780  178.0690  138.1010 C   0  0  0  0  0  3  0  0  0  0  0  0
  187.1790  178.1440  136.8270 C   0  0  0  0  0  0  0  0  0  0  0  0
  186.5940  177.7330  135.7380 C   0  0  0  0  0  3  0  0  0  0  0  0
  184.3990  178.0940  139.5230 C   0  0  0  0  0  2  0  0  0  0  0  0
  184.6410  173.2580  137.9660 C   0  0  0  0  0  3  0  0  0  0  0  0
  186.7140  173.4440  136.8320 C   0  0  0  0  0  3  0  0  0  0  0  0
  179.3120  178.7030  141.6670 N   0  0  0  0  0  0  0  0  0  0  0  0
  179.8590  177.5440  140.9810 C   0  0  0  0  0  3  0  0  0  0  0  0
  180.0550  179.7210  141.3860 C   0  0  0  0  0  2  0  0  0  0  0  0
  181.0310  178.1380  140.2840 C   0  0  0  0  0  0  0  0  0  0  0  0
  181.1390  179.4010  140.5230 N   0  0  0  0  0  0  0  0  0  0  0  0
  188.6360  178.4420  136.8440 C   0  0  0  0  0  2  0  0  0  0  0  0
  189.0380  179.0060  138.1970 C   0  0  0  0  0  2  0  0  0  0  0  0
  189.7380  177.9950  138.9760 N   0  0  0  0  0  0  0  0  0  0  0  0
  189.4320  177.7870  140.3650 C   0  0  0  0  0  0  0  0  0  0  0  0
  190.6760  177.1270  138.2810 C   0  0  0  0  0  1  0  0  0  0  0  0
  190.1480  176.7480  141.1620 C   0  0  0  0  0  1  0  0  0  0  0  0
  188.5520  178.4860  140.9330 O   0  0  0  0  0  0  0  0  0  0  0  0
  1 12  2  0  0  0  0
  2 19  1  0  0  0  0
  3 18  1  0  0  0  0
  5  4  1  0  0  0  0
  5 19  2  0  0  0  0
  6  5  1  0  0  0  0
  7  3  1  1  0  0  0
  8 17  1  0  0  0  0
  8 11  1  0  0  0  0
  9  4  1  0  0  0  0
  9  1  1  1  0  0  0
 10  7  1  0  0  0  0
 10  9  1  0  0  0  0
 11 10  1  0  0  0  0
 11  6  1  0  0  0  0
 11  7  1  0  0  0  0
 12 14  1  0  0  0  0
 12 24  1  0  0  0  0
 13  6  2  0  0  0  0
 13 20  1  0  0  0  0
 15  3  2  0  0  0  0
 16 26  1  0  0  0  0
 16 15  1  0  0  0  0
 17 16  2  0  0  0  0
 18 14  1  0  0  0  0
 20  2  2  0  0  0  0
 22 21  2  0  0  0  0
 23 21  1  0  0  0  0
 24 25  2  0  0  0  0
 24 22  1  0  0  0  0
 25 23  1  0  0  0  0
 26 27  1  0  0  0  0
 27 28  1  0  0  0  0
 28 29  1  0  0  0  0
 29 32  2  0  0  0  0
 29 31  1  0  0  0  0
 30 28  1  0  0  0  0
M  END
>  <MODEL>
5

>  <REMARK>
 VINA RESULT:      -5.8      3.116      8.308
  Name = 
  4 active torsions:
  status: ('A' for Active; 'I' for Inactive)
    1  A    between atoms: N_2  and  C_7
    2  A    between atoms: C_7  and  C_16
    3  A    between atoms: C_16  and  C_24
    4  A    between atoms: C_18  and  C_30
                            x       y       z     vdW  Elec       q    Type
                         _______ _______ _______ _____ _____    ______ ____

>  <TORSDO>
F 4

$$$$
=
 OpenBabel10222416043D

 32 37  0  0  1  0  0  0  0  0999 V2000
  184.1300  177.0250  134.7240 C   0  0  0  0  0  3  0  0  0  0  0  0
  187.8880  172.7360  136.5960 N   0  0  0  0  0  0  0  0  0  0  0  0
  186.4460  177.6050  137.4280 C   0  0  0  0  0  0  0  0  0  0  0  0
  185.5340  175.1740  135.1630 N   0  0  0  0  0  2  0  0  0  0  0  0
  186.7420  174.6150  135.6640 C   0  0  0  0  0  0  0  0  0  0  0  0
  187.8510  175.4350  135.9260 C   0  0  0  0  0  0  0  0  0  0  0  0
  186.8230  177.9560  135.9940 C   0  0  2  0  0  3  0  0  0  0  0  0
  189.1770  177.6350  135.6830 C   0  0  0  0  0  2  0  0  0  0  0  0
  185.4460  176.3910  134.7210 C   0  0  2  0  0  3  0  0  0  0  0  0
  186.6410  177.3010  134.6420 C   0  0  2  0  0  3  0  0  0  0  0  0
  187.8690  176.9020  135.4760 C   0  0  1  0  0  0  0  0  0  0  0  0
  183.5020  177.2210  135.8890 C   0  0  0  0  0  0  0  0  0  0  0  0
  188.9870  174.8510  136.5100 C   0  0  0  0  0  3  0  0  0  0  0  0
  184.1180  176.7980  137.1140 N   0  0  0  0  0  2  0  0  0  0  0  0
  187.3900  177.7550  138.4020 C   0  0  0  0  0  3  0  0  0  0  0  0
  188.8540  178.0250  138.1770 C   0  0  0  0  0  0  0  0  0  0  0  0
  189.2940  177.9120  136.9550 C   0  0  0  0  0  3  0  0  0  0  0  0
  185.0110  177.6590  137.8830 C   0  0  0  0  0  2  0  0  0  0  0  0
  186.7750  173.2660  136.0240 C   0  0  0  0  0  3  0  0  0  0  0  0
  188.9860  173.4960  136.8430 C   0  0  0  0  0  3  0  0  0  0  0  0
  180.1610  178.6670  136.6120 N   0  0  0  0  0  0  0  0  0  0  0  0
  181.3290  177.9810  137.1410 C   0  0  0  0  0  2  0  0  0  0  0  0
  180.3520  178.8660  135.3500 C   0  0  0  0  0  3  0  0  0  0  0  0
  182.1740  177.8530  135.9230 C   0  0  0  0  0  0  0  0  0  0  0  0
  181.6010  178.3690  134.8890 N   0  0  0  0  0  0  0  0  0  0  0  0
  189.7980  178.1760  139.3170 C   0  0  0  0  0  2  0  0  0  0  0  0
  189.2470  177.4770  140.5480 C   0  0  0  0  0  2  0  0  0  0  0  0
  190.3280  177.1410  141.4630 N   0  0  0  0  0  0  0  0  0  0  0  0
  190.0780  176.3820  142.6580 C   0  0  0  0  0  0  0  0  0  0  0  0
  191.6830  177.5020  141.0780 C   0  0  0  0  0  1  0  0  0  0  0  0
  191.1870  176.0360  143.5940 C   0  0  0  0  0  1  0  0  0  0  0  0
  188.9110  175.9970  142.9340 O   0  0  0  0  0  0  0  0  0  0  0  0
  1 12  2  0  0  0  0
  2 20  1  0  0  0  0
  3 18  1  0  0  0  0
  3 15  2  0  0  0  0
  4  5  1  0  0  0  0
  5  6  2  0  0  0  0
  5 19  1  0  0  0  0
  6 13  1  0  0  0  0
  7  3  1  1  0  0  0
  8 17  1  0  0  0  0
  9  1  1  1  0  0  0
  9  4  1  0  0  0  0
 10  9  1  0  0  0  0
 10 11  1  0  0  0  0
 10  7  1  0  0  0  0
 11  8  1  0  0  0  0
 11  6  1  0  0  0  0
 11  7  1  0  0  0  0
 12 24  1  0  0  0  0
 12 14  1  0  0  0  0
 13 20  2  0  0  0  0
 14 18  1  0  0  0  0
 16 15  1  0  0  0  0
 16 26  1  0  0  0  0
 17 16  2  0  0  0  0
 19  2  2  0  0  0  0
 21 22  1  0  0  0  0
 23 21  2  0  0  0  0
 24 22  1  0  0  0  0
 25 23  1  0  0  0  0
 25 24  2  0  0  0  0
 26 27  1  0  0  0  0
 27 28  1  0  0  0  0
 28 29  1  0  0  0  0
 29 32  2  0  0  0  0
 29 31  1  0  0  0  0
 30 28  1  0  0  0  0
M  END
>  <MODEL>
6

>  <REMARK>
 VINA RESULT:      -5.8      2.724      7.442
  Name = 
  4 active torsions:
  status: ('A' for Active; 'I' for Inactive)
    1  A    between atoms: N_2  and  C_7
    2  A    between atoms: C_7  and  C_16
    3  A    between atoms: C_16  and  C_24
    4  A    between atoms: C_18  and  C_30
                            x       y       z     vdW  Elec       q    Type
                         _______ _______ _______ _____ _____    ______ ____

>  <TORSDO>
F 4

$$$$
=
 OpenBabel10222416043D

 32 37  0  0  1  0  0  0  0  0999 V2000
  182.6570  177.6660  136.6430 C   0  0  0  0  0  3  0  0  0  0  0  0
  185.8080  172.7050  137.8590 N   0  0  0  0  0  0  0  0  0  0  0  0
  186.0900  177.8410  137.7340 C   0  0  0  0  0  0  0  0  0  0  0  0
  183.6470  175.5400  136.9520 N   0  0  0  0  0  2  0  0  0  0  0  0
  184.7860  174.6930  137.0110 C   0  0  0  0  0  0  0  0  0  0  0  0
  186.0200  175.1210  136.4970 C   0  0  0  0  0  0  0  0  0  0  0  0
  185.7480  177.8190  136.2490 C   0  0  2  0  0  3  0  0  0  0  0  0
  187.4770  176.6780  135.0450 C   0  0  0  0  0  2  0  0  0  0  0  0
  183.6120  176.6330  136.2510 C   0  0  2  0  0  3  0  0  0  0  0  0
  184.7630  177.0620  135.3830 C   0  0  2  0  0  3  0  0  0  0  0  0
  186.1240  176.4070  135.6680 C   0  0  1  0  0  0  0  0  0  0  0  0
  182.7720  178.2400  137.8460 C   0  0  0  0  0  0  0  0  0  0  0  0
  187.1380  174.2850  136.6660 C   0  0  0  0  0  3  0  0  0  0  0  0
  183.8190  177.8280  138.7380 N   0  0  0  0  0  2  0  0  0  0  0  0
  187.4050  177.8130  138.0970 C   0  0  0  0  0  3  0  0  0  0  0  0
  188.5670  177.5350  137.1790 C   0  0  0  0  0  0  0  0  0  0  0  0
  188.2840  177.0930  135.9860 C   0  0  0  0  0  3  0  0  0  0  0  0
  185.1400  178.4450  138.7350 C   0  0  0  0  0  2  0  0  0  0  0  0
  184.7040  173.4830  137.7070 C   0  0  0  0  0  3  0  0  0  0  0  0
  187.0130  173.0780  137.3550 C   0  0  0  0  0  3  0  0  0  0  0  0
  180.9000  181.2510  138.9440 N   0  0  0  0  0  0  0  0  0  0  0  0
  182.1930  180.6820  138.6010 C   0  0  0  0  0  3  0  0  0  0  0  0
  180.0100  180.3240  138.8190 C   0  0  0  0  0  2  0  0  0  0  0  0
  181.8210  179.2800  138.2700 C   0  0  0  0  0  0  0  0  0  0  0  0
  180.5540  179.0790  138.3980 N   0  0  0  0  0  0  0  0  0  0  0  0
  189.9670  177.5330  137.6820 C   0  0  0  0  0  2  0  0  0  0  0  0
  190.2530  176.2400  138.4270 C   0  0  0  0  0  2  0  0  0  0  0  0
  191.5240  175.6790  137.9940 N   0  0  0  0  0  0  0  0  0  0  0  0
  191.5960  174.3650  137.4150 C   0  0  0  0  0  0  0  0  0  0  0  0
  192.7020  176.5290  138.0630 C   0  0  0  0  0  1  0  0  0  0  0  0
  192.8990  173.7920  136.9680 C   0  0  0  0  0  1  0  0  0  0  0  0
  190.5520  173.6740  137.2780 O   0  0  0  0  0  0  0  0  0  0  0  0
  1 12  2  0  0  0  0
  3 15  2  0  0  0  0
  3 18  1  0  0  0  0
  4  5  1  0  0  0  0
  5 19  2  0  0  0  0
  6 13  2  0  0  0  0
  6  5  1  0  0  0  0
  7  3  1  1  0  0  0
  8 11  1  0  0  0  0
  8 17  1  0  0  0  0
  9  1  1  1  0  0  0
  9  4  1  0  0  0  0
 10 11  1  0  0  0  0
 10  7  1  0  0  0  0
 10  9  1  0  0  0  0
 11  7  1  0  0  0  0
 11  6  1  0  0  0  0
 12 24  1  0  0  0  0
 12 14  1  0  0  0  0
 13 20  1  0  0  0  0
 16 26  1  0  0  0  0
 16 15  1  0  0  0  0
 17 16  2  0  0  0  0
 18 14  1  0  0  0  0
 19  2  1  0  0  0  0
 20  2  2  0  0  0  0
 22 21  2  0  0  0  0
 23 21  1  0  0  0  0
 24 25  2  0  0  0  0
 24 22  1  0  0  0  0
 25 23  1  0  0  0  0
 26 27  1  0  0  0  0
 28 30  1  0  0  0  0
 28 27  1  0  0  0  0
 29 28  1  0  0  0  0
 31 29  1  0  0  0  0
 32 29  2  0  0  0  0
M  END
>  <MODEL>
7

>  <REMARK>
 VINA RESULT:      -5.6      2.747      8.438
  Name = 
  4 active torsions:
  status: ('A' for Active; 'I' for Inactive)
    1  A    between atoms: N_2  and  C_7
    2  A    between atoms: C_7  and  C_16
    3  A    between atoms: C_16  and  C_24
    4  A    between atoms: C_18  and  C_30
                            x       y       z     vdW  Elec       q    Type
                         _______ _______ _______ _____ _____    ______ ____

>  <TORSDO>
F 4

$$$$
=
 OpenBabel10222416043D

 32 37  0  0  1  0  0  0  0  0999 V2000
  191.2390  176.5100  136.9380 C   0  0  0  0  0  3  0  0  0  0  0  0
  186.8800  178.5770  140.5090 N   0  0  0  0  0  0  0  0  0  0  0  0
  187.8770  175.2200  136.7380 C   0  0  0  0  0  0  0  0  0  0  0  0
  189.7360  177.5900  138.4100 N   0  0  0  0  0  2  0  0  0  0  0  0
  188.4230  177.9890  138.7800 C   0  0  0  0  0  0  0  0  0  0  0  0
  187.3770  177.9520  137.8440 C   0  0  0  0  0  0  0  0  0  0  0  0
  188.3220  176.3680  135.8410 C   0  0  2  0  0  3  0  0  0  0  0  0
  186.4700  177.8320  135.4320 C   0  0  0  0  0  2  0  0  0  0  0  0
  190.0950  177.3850  137.1790 C   0  0  2  0  0  3  0  0  0  0  0  0
  189.1580  177.6160  136.0260 C   0  0  2  0  0  3  0  0  0  0  0  0
  187.6600  177.6970  136.3580 C   0  0  1  0  0  0  0  0  0  0  0  0
  191.1710  175.2270  137.3120 C   0  0  0  0  0  0  0  0  0  0  0  0
  186.0800  178.2640  138.2840 C   0  0  0  0  0  3  0  0  0  0  0  0
  189.9870  174.7300  137.9530 N   0  0  0  0  0  2  0  0  0  0  0  0
  186.5700  174.8300  136.6910 C   0  0  0  0  0  3  0  0  0  0  0  0
  185.4540  175.5690  136.0000 C   0  0  0  0  0  0  0  0  0  0  0  0
  185.7150  176.7740  135.5800 C   0  0  0  0  0  3  0  0  0  0  0  0
  188.8610  174.1800  137.2050 C   0  0  0  0  0  2  0  0  0  0  0  0
  188.1490  178.2880  140.1170 C   0  0  0  0  0  3  0  0  0  0  0  0
  185.8480  178.5710  139.6250 C   0  0  0  0  0  3  0  0  0  0  0  0
  193.6630  172.6750  136.2850 N   0  0  0  0  0  0  0  0  0  0  0  0
  192.3330  173.2250  136.0820 C   0  0  0  0  0  3  0  0  0  0  0  0
  194.2380  173.3540  137.2210 C   0  0  0  0  0  2  0  0  0  0  0  0
  192.3100  174.3230  137.0860 C   0  0  0  0  0  0  0  0  0  0  0  0
  193.4180  174.3920  137.7420 N   0  0  0  0  0  0  0  0  0  0  0  0
  184.0600  175.0500  136.0090 C   0  0  0  0  0  2  0  0  0  0  0  0
  183.4800  175.1330  137.4110 C   0  0  0  0  0  2  0  0  0  0  0  0
  182.6360  176.3130  137.5370 N   0  0  0  0  0  0  0  0  0  0  0  0
  182.4590  176.9650  138.8060 C   0  0  0  0  0  0  0  0  0  0  0  0
  182.0650  176.8750  136.3240 C   0  0  0  0  0  1  0  0  0  0  0  0
  181.5960  178.1750  138.9340 C   0  0  0  0  0  1  0  0  0  0  0  0
  183.0330  176.5190  139.8350 O   0  0  0  0  0  0  0  0  0  0  0  0
  1 12  2  0  0  0  0
  3 18  1  0  0  0  0
  4  5  1  0  0  0  0
  5 19  2  0  0  0  0
  6 13  2  0  0  0  0
  6  5  1  0  0  0  0
  7 10  1  0  0  0  0
  7 11  1  0  0  0  0
  7  3  1  1  0  0  0
  8 17  1  0  0  0  0
  8 11  1  0  0  0  0
  9  1  1  1  0  0  0
  9  4  1  0  0  0  0
 10 11  1  0  0  0  0
 10  9  1  0  0  0  0
 11  6  1  0  0  0  0
 12 14  1  0  0  0  0
 13 20  1  0  0  0  0
 15  3  2  0  0  0  0
 16 26  1  0  0  0  0
 16 15  1  0  0  0  0
 17 16  2  0  0  0  0
 18 14  1  0  0  0  0
 19  2  1  0  0  0  0
 20  2  2  0  0  0  0
 21 23  1  0  0  0  0
 22 21  2  0  0  0  0
 22 24  1  0  0  0  0
 23 25  1  0  0  0  0
 24 12  1  0  0  0  0
 24 25  2  0  0  0  0
 26 27  1  0  0  0  0
 27 28  1  0  0  0  0
 28 29  1  0  0  0  0
 29 31  1  0  0  0  0
 29 32  2  0  0  0  0
 30 28  1  0  0  0  0
M  END
>  <MODEL>
8

>  <REMARK>
 VINA RESULT:      -5.6      1.702      2.264
  Name = 
  4 active torsions:
  status: ('A' for Active; 'I' for Inactive)
    1  A    between atoms: N_2  and  C_7
    2  A    between atoms: C_7  and  C_16
    3  A    between atoms: C_16  and  C_24
    4  A    between atoms: C_18  and  C_30
                            x       y       z     vdW  Elec       q    Type
                         _______ _______ _______ _____ _____    ______ ____

>  <TORSDO>
F 4

$$$$
=
 OpenBabel10222416043D

 32 37  0  0  1  0  0  0  0  0999 V2000
  192.0580  175.8890  136.5680 C   0  0  0  0  0  3  0  0  0  0  0  0
  187.5090  178.3500  139.6130 N   0  0  0  0  0  0  0  0  0  0  0  0
  188.7080  174.5740  136.3290 C   0  0  0  0  0  0  0  0  0  0  0  0
  190.4770  177.1310  137.8130 N   0  0  0  0  0  2  0  0  0  0  0  0
  189.1460  177.5660  138.0570 C   0  0  0  0  0  0  0  0  0  0  0  0
  188.1560  177.4160  137.0740 C   0  0  0  0  0  0  0  0  0  0  0  0
  189.2090  175.6090  135.3290 C   0  0  2  0  0  3  0  0  0  0  0  0
  187.3880  177.0080  134.6450 C   0  0  0  0  0  2  0  0  0  0  0  0
  190.9060  176.7820  136.6380 C   0  0  2  0  0  3  0  0  0  0  0  0
  190.0370  176.8730  135.4130 C   0  0  2  0  0  3  0  0  0  0  0  0
  188.5220  176.9880  135.6470 C   0  0  1  0  0  0  0  0  0  0  0  0
  191.9640  174.6590  137.0860 C   0  0  0  0  0  0  0  0  0  0  0  0
  186.8370  177.7740  137.3980 C   0  0  0  0  0  3  0  0  0  0  0  0
  190.7430  174.2380  137.7120 N   0  0  0  0  0  2  0  0  0  0  0  0
  187.4050  174.1770  136.2540 C   0  0  0  0  0  3  0  0  0  0  0  0
  186.3330  174.8250  135.4180 C   0  0  0  0  0  0  0  0  0  0  0  0
  186.6220  175.9730  134.8740 C   0  0  0  0  0  3  0  0  0  0  0  0
  189.6610  173.5990  136.9720 C   0  0  0  0  0  2  0  0  0  0  0  0
  188.7980  178.0220  139.3320 C   0  0  0  0  0  3  0  0  0  0  0  0
  186.5300  178.2370  138.6780 C   0  0  0  0  0  3  0  0  0  0  0  0
  195.1340  172.7500  137.3790 N   0  0  0  0  0  0  0  0  0  0  0  0
  194.3780  173.9210  137.7920 C   0  0  0  0  0  2  0  0  0  0  0  0
  194.4040  172.0730  136.5570 C   0  0  0  0  0  3  0  0  0  0  0  0
  193.1110  173.7380  137.0350 C   0  0  0  0  0  0  0  0  0  0  0  0
  193.1330  172.6640  136.3210 N   0  0  0  0  0  0  0  0  0  0  0  0
  184.9390  174.3060  135.4080 C   0  0  0  0  0  2  0  0  0  0  0  0
  184.4510  174.0910  136.8310 C   0  0  0  0  0  2  0  0  0  0  0  0
  183.0500  173.6940  136.8280 N   0  0  0  0  0  0  0  0  0  0  0  0
  182.6730  172.3080  136.8440 C   0  0  0  0  0  0  0  0  0  0  0  0
  182.0460  174.7420  136.9200 C   0  0  0  0  0  1  0  0  0  0  0  0
  181.2370  171.9020  136.8450 C   0  0  0  0  0  1  0  0  0  0  0  0
  183.5550  171.4090  136.8560 O   0  0  0  0  0  0  0  0  0  0  0  0
  1 12  2  0  0  0  0
  3 18  1  0  0  0  0
  4  5  1  0  0  0  0
  5 19  2  0  0  0  0
  6 13  2  0  0  0  0
  6  5  1  0  0  0  0
  7 10  1  0  0  0  0
  7 11  1  0  0  0  0
  7  3  1  1  0  0  0
  8 17  1  0  0  0  0
  8 11  1  0  0  0  0
  9  1  1  1  0  0  0
  9  4  1  0  0  0  0
 10 11  1  0  0  0  0
 10  9  1  0  0  0  0
 11  6  1  0  0  0  0
 12 14  1  0  0  0  0
 13 20  1  0  0  0  0
 15  3  2  0  0  0  0
 16 15  1  0  0  0  0
 17 16  2  0  0  0  0
 18 14  1  0  0  0  0
 19  2  1  0  0  0  0
 20  2  2  0  0  0  0
 21 22  1  0  0  0  0
 23 21  2  0  0  0  0
 24 12  1  0  0  0  0
 24 22  1  0  0  0  0
 25 23  1  0  0  0  0
 25 24  2  0  0  0  0
 26 16  1  0  0  0  0
 26 27  1  0  0  0  0
 28 27  1  0  0  0  0
 28 29  1  0  0  0  0
 28 30  1  0  0  0  0
 29 31  1  0  0  0  0
 29 32  2  0  0  0  0
M  END
>  <MODEL>
9

>  <REMARK>
 VINA RESULT:      -5.3      2.825      3.519
  Name = 
  4 active torsions:
  status: ('A' for Active; 'I' for Inactive)
    1  A    between atoms: N_2  and  C_7
    2  A    between atoms: C_7  and  C_16
    3  A    between atoms: C_16  and  C_24
    4  A    between atoms: C_18  and  C_30
                            x       y       z     vdW  Elec       q    Type
                         _______ _______ _______ _____ _____    ______ ____

>  <TORSDO>
F 4

$$$$
