=
 OpenBabel10222416043D

 32 34  0  0  0  0  0  0  0  0999 V2000
  188.0570  177.8610  142.0230 C   0  0  0  0  0  0  0  0  0  0  0  0
  187.3440  177.1700  143.0540 N   0  0  0  0  0  2  0  0  0  0  0  0
  187.7210  179.0330  141.6970 O   0  0  0  0  0  0  0  0  0  0  0  0
  186.5530  178.9020  147.4740 F   0  0  0  0  0  0  0  0  0  0  0  0
  183.0620  179.1380  144.3310 N   0  0  0  0  0  0  0  0  0  0  0  0
  182.5570  178.9560  143.0790 C   0  0  0  0  0  0  0  0  0  0  0  0
  183.3730  178.3750  142.0950 C   0  0  0  0  0  0  0  0  0  0  0  0
  184.6390  177.9960  142.4110 N   0  0  0  0  0  0  0  0  0  0  0  0
  182.8710  178.1660  140.7090 C   0  0  0  0  0  1  0  0  0  0  0  0
  184.8180  178.9880  145.8940 N   0  0  0  0  0  0  0  0  0  0  0  0
  185.1380  178.1580  143.6650 C   0  0  0  0  0  0  0  0  0  0  0  0
  186.9300  178.0490  145.2840 C   0  0  0  0  0  3  0  0  0  0  0  0
  184.3280  178.7620  144.6470 C   0  0  0  0  0  0  0  0  0  0  0  0
  186.0930  178.6510  146.2260 C   0  0  0  0  0  0  0  0  0  0  0  0
  186.4520  177.7760  143.9990 C   0  0  0  0  0  0  0  0  0  0  0  0
  181.2470  179.3430  142.7560 O   0  0  0  0  0  0  0  0  0  0  0  0
  180.0880  178.6220  143.0740 C   0  0  0  0  0  0  0  0  0  0  0  0
  179.2670  179.0510  144.2360 C   0  0  0  0  0  1  0  0  0  0  0  0
  179.7250  177.6220  142.4000 O   0  0  0  0  0  0  0  0  0  0  0  0
  189.0910  177.1950  141.3560 O   0  0  0  0  0  0  0  0  0  0  0  0
  191.3130  177.5270  140.8200 O   0  0  0  0  0  0  0  0  0  0  0  0
  190.4490  177.2570  141.6990 C   0  0  0  0  0  0  0  0  0  0  0  0
  191.2060  175.6960  143.4680 C   0  0  0  0  0  3  0  0  0  0  0  0
  190.6950  179.4680  143.7870 C   0  0  0  0  0  1  0  0  0  0  0  0
  191.6260  175.3930  144.7630 C   0  0  0  0  0  3  0  0  0  0  0  0
  191.4270  177.7220  145.3660 C   0  0  0  0  0  3  0  0  0  0  0  0
  190.8890  177.0130  143.0970 C   0  0  0  0  0  0  0  0  0  0  0  0
  191.0040  178.0370  144.0700 C   0  0  0  0  0  0  0  0  0  0  0  0
  191.7390  176.4040  145.7210 C   0  0  0  0  0  0  0  0  0  0  0  0
  192.1820  176.0830  147.0870 C   0  0  0  0  0  0  0  0  0  0  0  0
  192.0930  177.0360  148.0950 O   0  0  0  0  0  1  0  0  0  0  0  0
  192.6440  174.9420  147.3570 O   0  0  0  0  0  0  0  0  0  0  0  0
  1  2  1  0  0  0  0
  2 15  1  0  0  0  0
  3  1  2  0  0  0  0
  5 13  1  0  0  0  0
  6  5  2  0  0  0  0
  7  8  2  0  0  0  0
  7  6  1  0  0  0  0
  8 11  1  0  0  0  0
  9  7  1  0  0  0  0
 10 14  1  0  0  0  0
 11 15  2  0  0  0  0
 11 13  1  0  0  0  0
 12 14  2  0  0  0  0
 13 10  2  0  0  0  0
 14  4  1  0  0  0  0
 15 12  1  0  0  0  0
 16 17  1  0  0  0  0
 16  6  1  0  0  0  0
 17 18  1  0  0  0  0
 19 17  2  0  0  0  0
 20 22  1  0  0  0  0
 20  1  1  0  0  0  0
 21 22  2  0  0  0  0
 22 27  1  0  0  0  0
 23 25  1  0  0  0  0
 24 28  1  0  0  0  0
 25 29  2  0  0  0  0
 26 29  1  0  0  0  0
 27 23  2  0  0  0  0
 27 28  1  0  0  0  0
 28 26  2  0  0  0  0
 29 30  1  0  0  0  0
 30 32  2  0  0  0  0
 30 31  1  0  0  0  0
M  END
>  <MODEL>
1

>  <REMARK>
 VINA RESULT:      -9.3      0.000      0.000
  Name = 
  7 active torsions:
  status: ('A' for Active; 'I' for Inactive)
    1  A    between atoms: C_5  and  O_10
    2  A    between atoms: C_6  and  C_21
    3  A    between atoms: O_10  and  C_15
    4  A    between atoms: C_17  and  C_29
    5  A    between atoms: C_19  and  O_30
    6  A    between atoms: N_22  and  C_31
    7  A    between atoms: C_29  and  O_30
                            x       y       z     vdW  Elec       q    Type
                         _______ _______ _______ _____ _____    ______ ____

>  <TORSDO>
F 7

$$$$
=
 OpenBabel10222416043D

 32 34  0  0  0  0  0  0  0  0999 V2000
  191.6020  177.3640  141.7290 C   0  0  0  0  0  0  0  0  0  0  0  0
  190.3130  176.8570  141.3700 N   0  0  0  0  0  2  0  0  0  0  0  0
  192.3470  177.8790  140.8500 O   0  0  0  0  0  0  0  0  0  0  0  0
  190.1090  176.5930  136.5690 F   0  0  0  0  0  0  0  0  0  0  0  0
  186.5050  178.5780  138.8470 N   0  0  0  0  0  0  0  0  0  0  0  0
  185.8600  178.9450  139.9900 C   0  0  0  0  0  0  0  0  0  0  0  0
  186.4740  178.6940  141.2270 C   0  0  0  0  0  0  0  0  0  0  0  0
  187.6980  178.1060  141.2620 N   0  0  0  0  0  0  0  0  0  0  0  0
  185.8040  179.0650  142.5040 C   0  0  0  0  0  1  0  0  0  0  0  0
  188.3320  177.6000  137.7270 N   0  0  0  0  0  0  0  0  0  0  0  0
  188.3520  177.7580  140.1220 C   0  0  0  0  0  0  0  0  0  0  0  0
  190.1960  176.7300  138.9440 C   0  0  0  0  0  3  0  0  0  0  0  0
  187.7270  177.9880  138.8810 C   0  0  0  0  0  0  0  0  0  0  0  0
  189.5400  176.9770  137.7350 C   0  0  0  0  0  0  0  0  0  0  0  0
  189.6170  177.1390  140.1480 C   0  0  0  0  0  0  0  0  0  0  0  0
  184.5980  179.5580  139.9520 O   0  0  0  0  0  0  0  0  0  0  0  0
  183.3940  178.9180  139.6280 C   0  0  0  0  0  0  0  0  0  0  0  0
  183.1590  177.5340  140.1150 C   0  0  0  0  0  1  0  0  0  0  0  0
  182.5090  179.4850  138.9350 O   0  0  0  0  0  0  0  0  0  0  0  0
  192.0350  177.2290  143.0530 O   0  0  0  0  0  0  0  0  0  0  0  0
  191.8680  175.1050  143.9460 O   0  0  0  0  0  0  0  0  0  0  0  0
  191.5190  176.3170  143.9850 C   0  0  0  0  0  0  0  0  0  0  0  0
  189.3390  177.3110  144.6140 C   0  0  0  0  0  3  0  0  0  0  0  0
  192.0860  176.0970  146.9750 C   0  0  0  0  0  1  0  0  0  0  0  0
  188.3930  177.7500  145.5410 C   0  0  0  0  0  3  0  0  0  0  0  0
  189.8660  177.1060  147.3410 C   0  0  0  0  0  3  0  0  0  0  0  0
  190.5620  176.7630  145.0300 C   0  0  0  0  0  0  0  0  0  0  0  0
  190.8220  176.6630  146.4210 C   0  0  0  0  0  0  0  0  0  0  0  0
  188.6500  177.6510  146.9110 C   0  0  0  0  0  0  0  0  0  0  0  0
  187.6520  178.1150  147.8870 C   0  0  0  0  0  0  0  0  0  0  0  0
  186.4220  178.5980  147.4550 O   0  0  0  0  0  0  0  0  0  0  0  0
  187.9000  178.0800  149.1210 O   0  0  0  0  0  1  0  0  0  0  0  0
  1 20  1  0  0  0  0
  2  1  1  0  0  0  0
  3  1  2  0  0  0  0
  4 14  1  0  0  0  0
  5 13  1  0  0  0  0
  5  6  2  0  0  0  0
  6  7  1  0  0  0  0
  7  8  2  0  0  0  0
  7  9  1  0  0  0  0
 10 14  2  0  0  0  0
 10 13  1  0  0  0  0
 11 15  1  0  0  0  0
 11  8  1  0  0  0  0
 12 15  2  0  0  0  0
 13 11  2  0  0  0  0
 14 12  1  0  0  0  0
 15  2  1  0  0  0  0
 16  6  1  0  0  0  0
 17 16  1  0  0  0  0
 17 18  1  0  0  0  0
 19 17  2  0  0  0  0
 20 22  1  0  0  0  0
 21 22  2  0  0  0  0
 22 27  1  0  0  0  0
 23 27  2  0  0  0  0
 23 25  1  0  0  0  0
 25 29  2  0  0  0  0
 27 28  1  0  0  0  0
 28 24  1  0  0  0  0
 28 26  2  0  0  0  0
 29 26  1  0  0  0  0
 29 30  1  0  0  0  0
 30 32  1  0  0  0  0
 31 30  2  0  0  0  0
M  END
>  <MODEL>
2

>  <REMARK>
 VINA RESULT:      -9.0      3.645      5.315
  Name = 
  7 active torsions:
  status: ('A' for Active; 'I' for Inactive)
    1  A    between atoms: C_5  and  O_10
    2  A    between atoms: C_6  and  C_21
    3  A    between atoms: O_10  and  C_15
    4  A    between atoms: C_17  and  C_29
    5  A    between atoms: C_19  and  O_30
    6  A    between atoms: N_22  and  C_31
    7  A    between atoms: C_29  and  O_30
                            x       y       z     vdW  Elec       q    Type
                         _______ _______ _______ _____ _____    ______ ____

>  <TORSDO>
F 7

$$$$
=
 OpenBabel10222416043D

 32 34  0  0  0  0  0  0  0  0999 V2000
  191.4260  176.7760  144.1040 C   0  0  0  0  0  0  0  0  0  0  0  0
  190.9610  177.7470  143.1620 N   0  0  0  0  0  2  0  0  0  0  0  0
  191.6790  175.5990  143.7280 O   0  0  0  0  0  0  0  0  0  0  0  0
  193.5180  176.7000  139.2210 F   0  0  0  0  0  0  0  0  0  0  0  0
  188.9930  177.8710  138.6950 N   0  0  0  0  0  0  0  0  0  0  0  0
  187.7710  178.2050  139.1960 C   0  0  0  0  0  0  0  0  0  0  0  0
  187.6210  178.3380  140.5860 C   0  0  0  0  0  0  0  0  0  0  0  0
  188.6920  178.1450  141.3990 N   0  0  0  0  0  0  0  0  0  0  0  0
  186.3030  178.6890  141.1840 C   0  0  0  0  0  1  0  0  0  0  0  0
  191.2630  177.3100  138.9820 N   0  0  0  0  0  0  0  0  0  0  0  0
  189.9170  177.8330  140.8990 C   0  0  0  0  0  0  0  0  0  0  0  0
  192.2410  177.2210  141.1610 C   0  0  0  0  0  3  0  0  0  0  0  0
  190.0640  177.6770  139.5060 C   0  0  0  0  0  0  0  0  0  0  0  0
  192.3420  177.0760  139.7750 C   0  0  0  0  0  0  0  0  0  0  0  0
  191.0310  177.6230  141.7340 C   0  0  0  0  0  0  0  0  0  0  0  0
  186.6670  178.4090  138.3550 O   0  0  0  0  0  0  0  0  0  0  0  0
  186.3560  177.6410  137.2250 C   0  0  0  0  0  0  0  0  0  0  0  0
  186.8520  178.0800  135.8950 C   0  0  0  0  0  1  0  0  0  0  0  0
  185.6660  176.5910  137.3080 O   0  0  0  0  0  0  0  0  0  0  0  0
  191.5420  177.1450  145.4490 O   0  0  0  0  0  0  0  0  0  0  0  0
  190.9680  176.1970  147.4770 O   0  0  0  0  0  0  0  0  0  0  0  0
  190.6110  176.8460  146.4550 C   0  0  0  0  0  0  0  0  0  0  0  0
  188.5210  177.0190  145.1350 C   0  0  0  0  0  3  0  0  0  0  0  0
  189.1230  178.3080  148.6800 C   0  0  0  0  0  1  0  0  0  0  0  0
  187.1940  177.4070  144.9530 C   0  0  0  0  0  3  0  0  0  0  0  0
  187.1720  178.3540  147.1730 C   0  0  0  0  0  3  0  0  0  0  0  0
  189.1990  177.2900  146.3350 C   0  0  0  0  0  0  0  0  0  0  0  0
  188.5030  177.9700  147.3660 C   0  0  0  0  0  0  0  0  0  0  0  0
  186.5100  178.0770  145.9700 C   0  0  0  0  0  0  0  0  0  0  0  0
  185.1100  178.4860  145.7760 C   0  0  0  0  0  0  0  0  0  0  0  0
  184.6310  178.7620  144.5010 O   0  0  0  0  0  0  0  0  0  0  0  0
  184.3320  178.5890  146.7620 O   0  0  0  0  0  1  0  0  0  0  0  0
  1 20  1  0  0  0  0
  2  1  1  0  0  0  0
  3  1  2  0  0  0  0
  4 14  1  0  0  0  0
  5  6  2  0  0  0  0
  5 13  1  0  0  0  0
  6  7  1  0  0  0  0
  7  9  1  0  0  0  0
  7  8  2  0  0  0  0
 10 13  2  0  0  0  0
 10 14  1  0  0  0  0
 11  8  1  0  0  0  0
 11 15  2  0  0  0  0
 12 15  1  0  0  0  0
 13 11  1  0  0  0  0
 14 12  2  0  0  0  0
 15  2  1  0  0  0  0
 16  6  1  0  0  0  0
 17 19  2  0  0  0  0
 17 16  1  0  0  0  0
 18 17  1  0  0  0  0
 20 22  1  0  0  0  0
 22 21  2  0  0  0  0
 23 27  1  0  0  0  0
 25 23  2  0  0  0  0
 25 29  1  0  0  0  0
 26 28  1  0  0  0  0
 27 22  1  0  0  0  0
 27 28  2  0  0  0  0
 28 24  1  0  0  0  0
 29 26  2  0  0  0  0
 30 29  1  0  0  0  0
 30 32  1  0  0  0  0
 31 30  2  0  0  0  0
M  END
>  <MODEL>
3

>  <REMARK>
 VINA RESULT:      -8.7      3.763      6.724
  Name = 
  7 active torsions:
  status: ('A' for Active; 'I' for Inactive)
    1  A    between atoms: C_5  and  O_10
    2  A    between atoms: C_6  and  C_21
    3  A    between atoms: O_10  and  C_15
    4  A    between atoms: C_17  and  C_29
    5  A    between atoms: C_19  and  O_30
    6  A    between atoms: N_22  and  C_31
    7  A    between atoms: C_29  and  O_30
                            x       y       z     vdW  Elec       q    Type
                         _______ _______ _______ _____ _____    ______ ____

>  <TORSDO>
F 7

$$$$
=
 OpenBabel10222416043D

 32 34  0  0  0  0  0  0  0  0999 V2000
  184.8410  178.9750  143.4430 C   0  0  0  0  0  0  0  0  0  0  0  0
  185.5990  179.5070  142.3520 N   0  0  0  0  0  2  0  0  0  0  0  0
  183.8050  178.2900  143.2200 O   0  0  0  0  0  0  0  0  0  0  0  0
  182.9650  179.1290  138.3420 F   0  0  0  0  0  0  0  0  0  0  0  0
  187.4240  177.6370  138.2280 N   0  0  0  0  0  0  0  0  0  0  0  0
  188.6470  177.4590  138.8000 C   0  0  0  0  0  0  0  0  0  0  0  0
  188.8350  177.8450  140.1360 C   0  0  0  0  0  0  0  0  0  0  0  0
  187.7970  178.3760  140.8340 N   0  0  0  0  0  0  0  0  0  0  0  0
  190.1560  177.6810  140.8040 C   0  0  0  0  0  1  0  0  0  0  0  0
  185.1870  178.3700  138.3160 N   0  0  0  0  0  0  0  0  0  0  0  0
  186.5700  178.5370  140.2710 C   0  0  0  0  0  0  0  0  0  0  0  0
  184.2800  179.3090  140.3170 C   0  0  0  0  0  3  0  0  0  0  0  0
  186.3860  178.1690  138.9230 C   0  0  0  0  0  0  0  0  0  0  0  0
  184.1420  178.9320  138.9800 C   0  0  0  0  0  0  0  0  0  0  0  0
  185.4900  179.0940  140.9830 C   0  0  0  0  0  0  0  0  0  0  0  0
  189.7170  176.9040  138.0800 O   0  0  0  0  0  0  0  0  0  0  0  0
  189.9050  175.5380  137.8310 C   0  0  0  0  0  0  0  0  0  0  0  0
  188.9850  174.8420  136.8950 C   0  0  0  0  0  1  0  0  0  0  0  0
  190.8320  174.8870  138.3800 O   0  0  0  0  0  0  0  0  0  0  0  0
  185.2410  179.2740  144.7500 O   0  0  0  0  0  0  0  0  0  0  0  0
  184.9760  177.8600  146.5580 O   0  0  0  0  0  0  0  0  0  0  0  0
  185.7380  178.3470  145.6780 C   0  0  0  0  0  0  0  0  0  0  0  0
  187.6780  177.4690  144.4100 C   0  0  0  0  0  3  0  0  0  0  0  0
  187.5770  178.4110  148.1110 C   0  0  0  0  0  1  0  0  0  0  0  0
  189.0050  177.0550  144.2970 C   0  0  0  0  0  3  0  0  0  0  0  0
  189.3480  177.5320  146.6370 C   0  0  0  0  0  3  0  0  0  0  0  0
  187.1610  177.9220  145.6350 C   0  0  0  0  0  0  0  0  0  0  0  0
  188.0190  177.9500  146.7630 C   0  0  0  0  0  0  0  0  0  0  0  0
  189.8490  177.0830  145.4100 C   0  0  0  0  0  0  0  0  0  0  0  0
  191.2480  176.6450  145.2880 C   0  0  0  0  0  0  0  0  0  0  0  0
  192.0740  176.6170  146.4070 O   0  0  0  0  0  1  0  0  0  0  0  0
  191.7120  176.2900  144.1720 O   0  0  0  0  0  0  0  0  0  0  0  0
  1 20  1  0  0  0  0
  2  1  1  0  0  0  0
  3  1  2  0  0  0  0
  4 14  1  0  0  0  0
  5  6  2  0  0  0  0
  5 13  1  0  0  0  0
  6  7  1  0  0  0  0
  7  9  1  0  0  0  0
  7  8  2  0  0  0  0
 10 13  2  0  0  0  0
 10 14  1  0  0  0  0
 11  8  1  0  0  0  0
 11 15  2  0  0  0  0
 12 15  1  0  0  0  0
 13 11  1  0  0  0  0
 14 12  2  0  0  0  0
 15  2  1  0  0  0  0
 16  6  1  0  0  0  0
 17 16  1  0  0  0  0
 17 19  2  0  0  0  0
 18 17  1  0  0  0  0
 20 22  1  0  0  0  0
 22 21  2  0  0  0  0
 23 27  1  0  0  0  0
 25 23  2  0  0  0  0
 25 29  1  0  0  0  0
 26 28  1  0  0  0  0
 27 22  1  0  0  0  0
 27 28  2  0  0  0  0
 28 24  1  0  0  0  0
 29 26  2  0  0  0  0
 30 29  1  0  0  0  0
 30 31  1  0  0  0  0
 32 30  2  0  0  0  0
M  END
>  <MODEL>
4

>  <REMARK>
 VINA RESULT:      -8.6      3.380      6.558
  Name = 
  7 active torsions:
  status: ('A' for Active; 'I' for Inactive)
    1  A    between atoms: C_5  and  O_10
    2  A    between atoms: C_6  and  C_21
    3  A    between atoms: O_10  and  C_15
    4  A    between atoms: C_17  and  C_29
    5  A    between atoms: C_19  and  O_30
    6  A    between atoms: N_22  and  C_31
    7  A    between atoms: C_29  and  O_30
                            x       y       z     vdW  Elec       q    Type
                         _______ _______ _______ _____ _____    ______ ____

>  <TORSDO>
F 7

$$$$
=
 OpenBabel10222416043D

 32 34  0  0  0  0  0  0  0  0999 V2000
  185.1260  178.6930  141.3450 C   0  0  0  0  0  0  0  0  0  0  0  0
  186.2120  179.0190  140.4720 N   0  0  0  0  0  2  0  0  0  0  0  0
  184.2360  177.8790  140.9740 O   0  0  0  0  0  0  0  0  0  0  0  0
  185.1760  177.5130  136.0200 F   0  0  0  0  0  0  0  0  0  0  0  0
  189.3400  176.3300  137.8600 N   0  0  0  0  0  0  0  0  0  0  0  0
  190.2720  176.3750  138.8520 C   0  0  0  0  0  0  0  0  0  0  0  0
  189.9800  177.0840  140.0270 C   0  0  0  0  0  0  0  0  0  0  0  0
  188.7760  177.7000  140.1590 N   0  0  0  0  0  0  0  0  0  0  0  0
  190.9710  177.1720  141.1360 C   0  0  0  0  0  1  0  0  0  0  0  0
  187.2400  176.9160  136.9680 N   0  0  0  0  0  0  0  0  0  0  0  0
  187.8360  177.6400  139.1780 C   0  0  0  0  0  0  0  0  0  0  0  0
  185.7020  178.2510  138.2210 C   0  0  0  0  0  3  0  0  0  0  0  0
  188.1370  176.9460  137.9890 C   0  0  0  0  0  0  0  0  0  0  0  0
  186.0420  177.5530  137.0590 C   0  0  0  0  0  0  0  0  0  0  0  0
  186.5890  178.2810  139.3010 C   0  0  0  0  0  0  0  0  0  0  0  0
  191.5130  175.7340  138.7180 O   0  0  0  0  0  0  0  0  0  0  0  0
  192.6300  176.2590  138.0540 C   0  0  0  0  0  0  0  0  0  0  0  0
  192.7800  176.0210  136.5950 C   0  0  0  0  0  1  0  0  0  0  0  0
  193.5080  176.9260  138.6620 O   0  0  0  0  0  0  0  0  0  0  0  0
  185.0440  179.3340  142.5870 O   0  0  0  0  0  0  0  0  0  0  0  0
  183.4890  178.3880  144.0090 O   0  0  0  0  0  0  0  0  0  0  0  0
  184.6880  178.7170  143.7950 C   0  0  0  0  0  0  0  0  0  0  0  0
  185.5050  178.9600  146.1210 C   0  0  0  0  0  3  0  0  0  0  0  0
  187.2050  177.0780  143.2650 C   0  0  0  0  0  1  0  0  0  0  0  0
  186.4260  178.7390  147.1450 C   0  0  0  0  0  3  0  0  0  0  0  0
  187.8000  177.4630  145.6270 C   0  0  0  0  0  3  0  0  0  0  0  0
  185.7130  178.4400  144.8340 C   0  0  0  0  0  0  0  0  0  0  0  0
  186.8840  177.6790  144.5920 C   0  0  0  0  0  0  0  0  0  0  0  0
  187.5800  177.9890  146.9050 C   0  0  0  0  0  0  0  0  0  0  0  0
  188.5500  177.7570  147.9870 C   0  0  0  0  0  0  0  0  0  0  0  0
  189.7620  177.1320  147.7190 O   0  0  0  0  0  0  0  0  0  0  0  0
  188.2930  178.1220  149.1650 O   0  0  0  0  0  1  0  0  0  0  0  0
  1 20  1  0  0  0  0
  2  1  1  0  0  0  0
  3  1  2  0  0  0  0
  4 14  1  0  0  0  0
  5 13  1  0  0  0  0
  5  6  2  0  0  0  0
  6  7  1  0  0  0  0
  7  8  2  0  0  0  0
  7  9  1  0  0  0  0
 10 14  2  0  0  0  0
 10 13  1  0  0  0  0
 11 15  1  0  0  0  0
 11  8  1  0  0  0  0
 12 15  2  0  0  0  0
 13 11  2  0  0  0  0
 14 12  1  0  0  0  0
 15  2  1  0  0  0  0
 16  6  1  0  0  0  0
 17 19  2  0  0  0  0
 17 16  1  0  0  0  0
 18 17  1  0  0  0  0
 20 22  1  0  0  0  0
 22 21  2  0  0  0  0
 22 27  1  0  0  0  0
 23 25  1  0  0  0  0
 24 28  1  0  0  0  0
 26 29  1  0  0  0  0
 27 23  2  0  0  0  0
 28 27  1  0  0  0  0
 28 26  2  0  0  0  0
 29 25  2  0  0  0  0
 29 30  1  0  0  0  0
 30 32  1  0  0  0  0
 31 30  2  0  0  0  0
M  END
>  <MODEL>
5

>  <REMARK>
 VINA RESULT:      -8.5      3.761      7.872
  Name = 
  7 active torsions:
  status: ('A' for Active; 'I' for Inactive)
    1  A    between atoms: C_5  and  O_10
    2  A    between atoms: C_6  and  C_21
    3  A    between atoms: O_10  and  C_15
    4  A    between atoms: C_17  and  C_29
    5  A    between atoms: C_19  and  O_30
    6  A    between atoms: N_22  and  C_31
    7  A    between atoms: C_29  and  O_30
                            x       y       z     vdW  Elec       q    Type
                         _______ _______ _______ _____ _____    ______ ____

>  <TORSDO>
F 7

$$$$
=
 OpenBabel10222416043D

 32 34  0  0  0  0  0  0  0  0999 V2000
  185.8170  177.6750  138.2490 C   0  0  0  0  0  0  0  0  0  0  0  0
  186.9940  178.3200  138.7440 N   0  0  0  0  0  2  0  0  0  0  0  0
  185.9150  176.6530  137.5150 O   0  0  0  0  0  0  0  0  0  0  0  0
  190.9540  177.0130  136.3400 F   0  0  0  0  0  0  0  0  0  0  0  0
  190.8850  176.4280  141.0070 N   0  0  0  0  0  0  0  0  0  0  0  0
  190.2910  176.5550  142.2260 C   0  0  0  0  0  0  0  0  0  0  0  0
  189.0030  177.1080  142.2990 C   0  0  0  0  0  0  0  0  0  0  0  0
  188.3720  177.4930  141.1590 N   0  0  0  0  0  0  0  0  0  0  0  0
  188.3160  177.2790  143.6090 C   0  0  0  0  0  1  0  0  0  0  0  0
  190.8880  176.7090  138.6680 N   0  0  0  0  0  0  0  0  0  0  0  0
  188.9550  177.3490  139.9400 C   0  0  0  0  0  0  0  0  0  0  0  0
  189.0030  177.6550  137.5420 C   0  0  0  0  0  3  0  0  0  0  0  0
  190.2570  176.8140  139.8670 C   0  0  0  0  0  0  0  0  0  0  0  0
  190.2930  177.1200  137.5160 C   0  0  0  0  0  0  0  0  0  0  0  0
  188.3120  177.7530  138.7540 C   0  0  0  0  0  0  0  0  0  0  0  0
  190.9420  176.1510  143.4010 O   0  0  0  0  0  0  0  0  0  0  0  0
  191.5040  177.0120  144.3540 C   0  0  0  0  0  0  0  0  0  0  0  0
  191.6000  176.5610  145.7660 C   0  0  0  0  0  1  0  0  0  0  0  0
  191.9280  178.1560  144.0430 O   0  0  0  0  0  0  0  0  0  0  0  0
  184.5680  178.2310  138.5500 O   0  0  0  0  0  0  0  0  0  0  0  0
  184.1820  180.4800  138.9100 O   0  0  0  0  0  0  0  0  0  0  0  0
  184.3520  179.3280  139.3970 C   0  0  0  0  0  0  0  0  0  0  0  0
  185.4970  179.3770  141.5930 C   0  0  0  0  0  3  0  0  0  0  0  0
  181.8410  178.5010  140.9190 C   0  0  0  0  0  1  0  0  0  0  0  0
  185.5350  179.2290  142.9800 C   0  0  0  0  0  3  0  0  0  0  0  0
  183.2000  178.6210  142.9730 C   0  0  0  0  0  3  0  0  0  0  0  0
  184.3140  179.1500  140.8710 C   0  0  0  0  0  0  0  0  0  0  0  0
  183.1500  178.7660  141.5830 C   0  0  0  0  0  0  0  0  0  0  0  0
  184.3860  178.8500  143.6790 C   0  0  0  0  0  0  0  0  0  0  0  0
  184.4290  178.6950  145.1420 C   0  0  0  0  0  0  0  0  0  0  0  0
  185.5730  178.2060  145.7620 O   0  0  0  0  0  0  0  0  0  0  0  0
  183.4310  179.0020  145.8460 O   0  0  0  0  0  1  0  0  0  0  0  0
  1 20  1  0  0  0  0
  1  2  1  0  0  0  0
  2 15  1  0  0  0  0
  3  1  2  0  0  0  0
  4 14  1  0  0  0  0
  5  6  2  0  0  0  0
  6  7  1  0  0  0  0
  6 16  1  0  0  0  0
  7  9  1  0  0  0  0
  8  7  2  0  0  0  0
 10 13  1  0  0  0  0
 11  8  1  0  0  0  0
 12 15  2  0  0  0  0
 13 11  2  0  0  0  0
 13  5  1  0  0  0  0
 14 12  1  0  0  0  0
 14 10  2  0  0  0  0
 15 11  1  0  0  0  0
 16 17  1  0  0  0  0
 17 18  1  0  0  0  0
 19 17  2  0  0  0  0
 20 22  1  0  0  0  0
 21 22  2  0  0  0  0
 22 27  1  0  0  0  0
 23 25  1  0  0  0  0
 24 28  1  0  0  0  0
 25 29  2  0  0  0  0
 26 29  1  0  0  0  0
 27 28  1  0  0  0  0
 27 23  2  0  0  0  0
 28 26  2  0  0  0  0
 29 30  1  0  0  0  0
 30 31  2  0  0  0  0
 30 32  1  0  0  0  0
M  END
>  <MODEL>
6

>  <REMARK>
 VINA RESULT:      -8.4      3.716      8.272
  Name = 
  7 active torsions:
  status: ('A' for Active; 'I' for Inactive)
    1  A    between atoms: C_5  and  O_10
    2  A    between atoms: C_6  and  C_21
    3  A    between atoms: O_10  and  C_15
    4  A    between atoms: C_17  and  C_29
    5  A    between atoms: C_19  and  O_30
    6  A    between atoms: N_22  and  C_31
    7  A    between atoms: C_29  and  O_30
                            x       y       z     vdW  Elec       q    Type
                         _______ _______ _______ _____ _____    ______ ____

>  <TORSDO>
F 7

$$$$
=
 OpenBabel10222416043D

 32 34  0  0  0  0  0  0  0  0999 V2000
  186.9840  177.4910  145.6330 C   0  0  0  0  0  0  0  0  0  0  0  0
  187.6990  176.8200  144.5910 N   0  0  0  0  0  2  0  0  0  0  0  0
  187.6060  177.9830  146.6140 O   0  0  0  0  0  0  0  0  0  0  0  0
  192.1790  176.6830  146.3440 F   0  0  0  0  0  0  0  0  0  0  0  0
  191.6160  177.2660  141.7110 N   0  0  0  0  0  0  0  0  0  0  0  0
  190.8390  177.3530  140.5960 C   0  0  0  0  0  0  0  0  0  0  0  0
  189.4440  177.2760  140.7320 C   0  0  0  0  0  0  0  0  0  0  0  0
  188.8970  177.1280  141.9680 N   0  0  0  0  0  0  0  0  0  0  0  0
  188.5510  177.3550  139.5430 C   0  0  0  0  0  1  0  0  0  0  0  0
  191.8720  176.9960  144.0370 N   0  0  0  0  0  0  0  0  0  0  0  0
  189.6700  177.0610  143.0830 C   0  0  0  0  0  0  0  0  0  0  0  0
  189.9690  176.7530  145.4630 C   0  0  0  0  0  3  0  0  0  0  0  0
  191.0720  177.1170  142.9450 C   0  0  0  0  0  0  0  0  0  0  0  0
  191.3530  176.8120  145.2800 C   0  0  0  0  0  0  0  0  0  0  0  0
  189.1140  176.9000  144.3670 C   0  0  0  0  0  0  0  0  0  0  0  0
  191.4040  177.5120  139.3210 O   0  0  0  0  0  0  0  0  0  0  0  0
  192.3070  176.6250  138.7190 C   0  0  0  0  0  0  0  0  0  0  0  0
  191.7800  175.4570  137.9680 C   0  0  0  0  0  1  0  0  0  0  0  0
  193.5530  176.7940  138.7990 O   0  0  0  0  0  0  0  0  0  0  0  0
  185.5860  177.5410  145.5670 O   0  0  0  0  0  0  0  0  0  0  0  0
  184.3580  179.4780  145.8410 O   0  0  0  0  0  0  0  0  0  0  0  0
  184.8370  178.6120  145.0580 C   0  0  0  0  0  0  0  0  0  0  0  0
  185.7210  178.8710  142.7580 C   0  0  0  0  0  3  0  0  0  0  0  0
  182.0560  178.6280  143.8060 C   0  0  0  0  0  1  0  0  0  0  0  0
  185.5750  179.0000  141.3770 C   0  0  0  0  0  3  0  0  0  0  0  0
  183.1770  178.8840  141.6250 C   0  0  0  0  0  3  0  0  0  0  0  0
  184.6020  178.7460  143.5980 C   0  0  0  0  0  0  0  0  0  0  0  0
  183.3110  178.7540  143.0110 C   0  0  0  0  0  0  0  0  0  0  0  0
  184.3020  179.0080  140.8010 C   0  0  0  0  0  0  0  0  0  0  0  0
  184.1500  179.1450  139.3440 C   0  0  0  0  0  0  0  0  0  0  0  0
  184.1810  180.4020  138.7510 O   0  0  0  0  0  1  0  0  0  0  0  0
  183.9920  178.1270  138.6190 O   0  0  0  0  0  0  0  0  0  0  0  0
  1  3  2  0  0  0  0
  2  1  1  0  0  0  0
  5 13  1  0  0  0  0
  6  7  1  0  0  0  0
  6  5  2  0  0  0  0
  7  8  2  0  0  0  0
  8 11  1  0  0  0  0
  9  7  1  0  0  0  0
 10 14  1  0  0  0  0
 11 15  2  0  0  0  0
 13 11  1  0  0  0  0
 13 10  2  0  0  0  0
 14 12  2  0  0  0  0
 14  4  1  0  0  0  0
 15  2  1  0  0  0  0
 15 12  1  0  0  0  0
 16  6  1  0  0  0  0
 17 19  2  0  0  0  0
 17 16  1  0  0  0  0
 18 17  1  0  0  0  0
 20  1  1  0  0  0  0
 22 20  1  0  0  0  0
 22 21  2  0  0  0  0
 23 27  1  0  0  0  0
 25 23  2  0  0  0  0
 26 28  1  0  0  0  0
 27 22  1  0  0  0  0
 28 27  2  0  0  0  0
 28 24  1  0  0  0  0
 29 25  1  0  0  0  0
 29 26  2  0  0  0  0
 30 29  1  0  0  0  0
 31 30  1  0  0  0  0
 32 30  2  0  0  0  0
M  END
>  <MODEL>
7

>  <REMARK>
 VINA RESULT:      -8.3      2.999      8.439
  Name = 
  7 active torsions:
  status: ('A' for Active; 'I' for Inactive)
    1  A    between atoms: C_5  and  O_10
    2  A    between atoms: C_6  and  C_21
    3  A    between atoms: O_10  and  C_15
    4  A    between atoms: C_17  and  C_29
    5  A    between atoms: C_19  and  O_30
    6  A    between atoms: N_22  and  C_31
    7  A    between atoms: C_29  and  O_30
                            x       y       z     vdW  Elec       q    Type
                         _______ _______ _______ _____ _____    ______ ____

>  <TORSDO>
F 7

$$$$
=
 OpenBabel10222416043D

 32 34  0  0  0  0  0  0  0  0999 V2000
  185.8560  178.9460  141.8160 C   0  0  0  0  0  0  0  0  0  0  0  0
  186.3850  177.8660  142.5900 N   0  0  0  0  0  2  0  0  0  0  0  0
  185.2950  179.9210  142.3880 O   0  0  0  0  0  0  0  0  0  0  0  0
  184.6840  178.2470  147.0770 F   0  0  0  0  0  0  0  0  0  0  0  0
  189.3010  177.5590  146.4940 N   0  0  0  0  0  0  0  0  0  0  0  0
  190.3940  177.3360  145.7130 C   0  0  0  0  0  0  0  0  0  0  0  0
  190.2340  177.2850  144.3190 C   0  0  0  0  0  0  0  0  0  0  0  0
  189.0010  177.4700  143.7770 N   0  0  0  0  0  0  0  0  0  0  0  0
  191.3960  177.0330  143.4220 C   0  0  0  0  0  1  0  0  0  0  0  0
  186.9890  177.9260  146.7600 N   0  0  0  0  0  0  0  0  0  0  0  0
  187.9130  177.7120  144.5550 C   0  0  0  0  0  0  0  0  0  0  0  0
  185.5400  178.0570  144.8640 C   0  0  0  0  0  3  0  0  0  0  0  0
  188.0690  177.7420  145.9550 C   0  0  0  0  0  0  0  0  0  0  0  0
  185.7400  178.0780  146.2460 C   0  0  0  0  0  0  0  0  0  0  0  0
  186.6300  177.8960  144.0030 C   0  0  0  0  0  0  0  0  0  0  0  0
  191.6680  177.1520  146.2730 O   0  0  0  0  0  0  0  0  0  0  0  0
  192.1330  175.9660  146.8560 C   0  0  0  0  0  0  0  0  0  0  0  0
  192.6470  175.9990  148.2490 C   0  0  0  0  0  1  0  0  0  0  0  0
  192.1280  174.8740  146.2280 O   0  0  0  0  0  0  0  0  0  0  0  0
  185.9260  178.8720  140.4200 O   0  0  0  0  0  0  0  0  0  0  0  0
  184.5560  180.1860  139.1030 O   0  0  0  0  0  0  0  0  0  0  0  0
  184.8430  179.0390  139.5440 C   0  0  0  0  0  0  0  0  0  0  0  0
  184.4470  177.1420  138.0000 C   0  0  0  0  0  3  0  0  0  0  0  0
  182.3030  178.1660  140.9910 C   0  0  0  0  0  1  0  0  0  0  0  0
  183.7270  176.0370  137.5470 C   0  0  0  0  0  3  0  0  0  0  0  0
  182.1290  176.3540  139.3270 C   0  0  0  0  0  3  0  0  0  0  0  0
  184.0240  177.8740  139.1220 C   0  0  0  0  0  0  0  0  0  0  0  0
  182.8430  177.4640  139.7910 C   0  0  0  0  0  0  0  0  0  0  0  0
  182.5630  175.6350  138.2070 C   0  0  0  0  0  0  0  0  0  0  0  0
  181.8050  174.4690  137.7280 C   0  0  0  0  0  0  0  0  0  0  0  0
  182.4550  173.4370  137.0600 O   0  0  0  0  0  0  0  0  0  0  0  0
  180.5620  174.3930  137.9170 O   0  0  0  0  0  1  0  0  0  0  0  0
  1  3  2  0  0  0  0
  1  2  1  0  0  0  0
  2 15  1  0  0  0  0
  6 16  1  0  0  0  0
  6  5  2  0  0  0  0
  7  6  1  0  0  0  0
  8  7  2  0  0  0  0
  8 11  1  0  0  0  0
  9  7  1  0  0  0  0
 11 13  1  0  0  0  0
 12 14  2  0  0  0  0
 13  5  1  0  0  0  0
 13 10  2  0  0  0  0
 14 10  1  0  0  0  0
 14  4  1  0  0  0  0
 15 11  2  0  0  0  0
 15 12  1  0  0  0  0
 16 17  1  0  0  0  0
 17 18  1  0  0  0  0
 19 17  2  0  0  0  0
 20  1  1  0  0  0  0
 21 22  2  0  0  0  0
 22 20  1  0  0  0  0
 23 27  1  0  0  0  0
 25 23  2  0  0  0  0
 25 29  1  0  0  0  0
 26 28  1  0  0  0  0
 27 22  1  0  0  0  0
 27 28  2  0  0  0  0
 28 24  1  0  0  0  0
 29 26  2  0  0  0  0
 30 32  1  0  0  0  0
 30 29  1  0  0  0  0
 31 30  2  0  0  0  0
M  END
>  <MODEL>
8

>  <REMARK>
 VINA RESULT:      -8.3      2.773      8.761
  Name = 
  7 active torsions:
  status: ('A' for Active; 'I' for Inactive)
    1  A    between atoms: C_5  and  O_10
    2  A    between atoms: C_6  and  C_21
    3  A    between atoms: O_10  and  C_15
    4  A    between atoms: C_17  and  C_29
    5  A    between atoms: C_19  and  O_30
    6  A    between atoms: N_22  and  C_31
    7  A    between atoms: C_29  and  O_30
                            x       y       z     vdW  Elec       q    Type
                         _______ _______ _______ _____ _____    ______ ____

>  <TORSDO>
F 7

$$$$
=
 OpenBabel10222416043D

 32 34  0  0  0  0  0  0  0  0999 V2000
  186.9840  177.5150  145.7500 C   0  0  0  0  0  0  0  0  0  0  0  0
  187.6230  177.0680  144.5500 N   0  0  0  0  0  2  0  0  0  0  0  0
  187.6500  177.6380  146.8150 O   0  0  0  0  0  0  0  0  0  0  0  0
  192.0740  176.5750  146.3130 F   0  0  0  0  0  0  0  0  0  0  0  0
  191.5650  177.1360  141.6710 N   0  0  0  0  0  0  0  0  0  0  0  0
  190.7980  177.2720  140.5530 C   0  0  0  0  0  0  0  0  0  0  0  0
  189.4020  177.3170  140.6890 C   0  0  0  0  0  0  0  0  0  0  0  0
  188.8440  177.2340  141.9250 N   0  0  0  0  0  0  0  0  0  0  0  0
  188.5200  177.4540  139.4960 C   0  0  0  0  0  1  0  0  0  0  0  0
  191.7960  176.8790  144.0010 N   0  0  0  0  0  0  0  0  0  0  0  0
  189.6080  177.1180  143.0430 C   0  0  0  0  0  0  0  0  0  0  0  0
  189.8790  176.8200  145.4270 C   0  0  0  0  0  3  0  0  0  0  0  0
  191.0090  177.0510  142.9060 C   0  0  0  0  0  0  0  0  0  0  0  0
  191.2620  176.7580  145.2460 C   0  0  0  0  0  0  0  0  0  0  0  0
  189.0390  177.0240  144.3280 C   0  0  0  0  0  0  0  0  0  0  0  0
  191.3760  177.3630  139.2770 O   0  0  0  0  0  0  0  0  0  0  0  0
  191.7890  176.2770  138.4950 C   0  0  0  0  0  0  0  0  0  0  0  0
  193.1150  176.3310  137.8270 C   0  0  0  0  0  1  0  0  0  0  0  0
  191.0660  175.2570  138.3440 O   0  0  0  0  0  0  0  0  0  0  0  0
  185.6060  177.7610  145.7290 O   0  0  0  0  0  0  0  0  0  0  0  0
  185.3200  180.0530  145.7290 O   0  0  0  0  0  0  0  0  0  0  0  0
  184.9990  178.9310  145.2500 C   0  0  0  0  0  0  0  0  0  0  0  0
  182.6270  179.0050  144.5360 C   0  0  0  0  0  3  0  0  0  0  0  0
  185.6920  178.5210  142.3080 C   0  0  0  0  0  1  0  0  0  0  0  0
  181.6150  178.9560  143.5780 C   0  0  0  0  0  3  0  0  0  0  0  0
  183.2700  178.6300  141.8530 C   0  0  0  0  0  3  0  0  0  0  0  0
  183.9770  178.8680  144.1740 C   0  0  0  0  0  0  0  0  0  0  0  0
  184.2940  178.6770  142.8050 C   0  0  0  0  0  0  0  0  0  0  0  0
  181.9290  178.7680  142.2300 C   0  0  0  0  0  0  0  0  0  0  0  0
  180.8600  178.7160  141.2210 C   0  0  0  0  0  0  0  0  0  0  0  0
  180.4970  177.5040  140.6460 O   0  0  0  0  0  0  0  0  0  0  0  0
  180.2620  179.7680  140.8690 O   0  0  0  0  0  1  0  0  0  0  0  0
  1  3  2  0  0  0  0
  2  1  1  0  0  0  0
  5 13  1  0  0  0  0
  6  7  1  0  0  0  0
  6  5  2  0  0  0  0
  7  8  2  0  0  0  0
  8 11  1  0  0  0  0
  9  7  1  0  0  0  0
 10 14  1  0  0  0  0
 11 15  2  0  0  0  0
 13 11  1  0  0  0  0
 13 10  2  0  0  0  0
 14 12  2  0  0  0  0
 14  4  1  0  0  0  0
 15  2  1  0  0  0  0
 15 12  1  0  0  0  0
 16  6  1  0  0  0  0
 17 16  1  0  0  0  0
 18 17  1  0  0  0  0
 19 17  2  0  0  0  0
 20  1  1  0  0  0  0
 22 21  2  0  0  0  0
 22 20  1  0  0  0  0
 24 28  1  0  0  0  0
 25 23  2  0  0  0  0
 26 29  2  0  0  0  0
 26 28  1  0  0  0  0
 27 23  1  0  0  0  0
 27 22  1  0  0  0  0
 28 27  2  0  0  0  0
 29 25  1  0  0  0  0
 30 29  1  0  0  0  0
 31 30  2  0  0  0  0
 32 30  1  0  0  0  0
M  END
>  <MODEL>
9

>  <REMARK>
 VINA RESULT:      -8.2      2.760      8.712
  Name = 
  7 active torsions:
  status: ('A' for Active; 'I' for Inactive)
    1  A    between atoms: C_5  and  O_10
    2  A    between atoms: C_6  and  C_21
    3  A    between atoms: O_10  and  C_15
    4  A    between atoms: C_17  and  C_29
    5  A    between atoms: C_19  and  O_30
    6  A    between atoms: N_22  and  C_31
    7  A    between atoms: C_29  and  O_30
                            x       y       z     vdW  Elec       q    Type
                         _______ _______ _______ _____ _____    ______ ____

>  <TORSDO>
F 7

$$$$
