=
 OpenBabel10222416203D

 46 48  0  0  1  0  0  0  0  0999 V2000
  184.1200  178.4210  140.6470 C   0  0  0  0  0  0  0  0  0  0  0  0
  187.9520  173.7910  135.7410 C   0  0  2  0  0  3  0  0  0  0  0  0
  183.4030  175.6310  136.0570 C   0  0  0  0  0  2  0  0  0  0  0  0
  186.1100  172.2950  135.4680 O   0  0  0  0  0  0  0  0  0  0  0  0
  185.5580  174.5290  135.8700 N   0  0  0  0  0  2  0  0  0  0  0  0
  184.8090  178.1460  141.8320 O   0  0  0  0  0  0  0  0  0  0  0  0
  183.1100  177.9190  137.5110 S   0  0  0  0  0  0  0  0  0  0  0  0
  184.1210  174.3030  135.8990 C   0  0  0  0  0  2  0  0  0  0  0  0
  187.0550  178.5080  140.0700 N   0  0  0  0  0  0  0  0  0  0  0  0
  183.1170  177.5000  140.2040 N   0  0  0  0  0  2  0  0  0  0  0  0
  184.3400  179.4860  140.0040 O   0  0  0  0  0  0  0  0  0  0  0  0
  182.1980  177.7370  139.0880 C   0  0  1  0  0  3  0  0  0  0  0  0
  190.0280  176.9890  138.9050 C   0  0  2  0  0  3  0  0  0  0  0  0
  190.7230  173.1860  135.7880 N   0  0  0  0  0  0  0  0  0  0  0  0
  185.9990  178.7720  142.2290 C   0  0  0  0  0  2  0  0  0  0  0  0
  186.4990  173.4750  135.6750 C   0  0  0  0  0  0  0  0  0  0  0  0
  188.2060  178.4820  139.3550 O   0  0  0  0  0  0  0  0  0  0  0  0
  183.5900  176.1680  137.4640 C   0  0  0  0  0  2  0  0  0  0  0  0
  188.5850  177.1380  139.3570 C   0  0  0  0  0  2  0  0  0  0  0  0
  190.0730  173.6280  137.0320 C   0  0  2  0  0  3  0  0  0  0  0  0
  190.2940  175.5920  138.5980 N   0  0  0  0  0  2  0  0  0  0  0  0
  190.0810  173.0180  134.6670 C   0  0  0  0  0  3  0  0  0  0  0  0
  188.6670  173.2360  134.5940 N   0  0  0  0  0  2  0  0  0  0  0  0
  187.0520  178.9530  141.4270 C   0  0  0  0  0  3  0  0  0  0  0  0
  188.5770  173.2860  137.0370 C   0  0  0  0  0  2  0  0  0  0  0  0
  190.2700  175.0970  137.2600 C   0  0  0  0  0  0  0  0  0  0  0  0
  190.3400  175.8940  136.2840 O   0  0  0  0  0  0  0  0  0  0  0  0
  181.2590  178.8860  139.3710 C   0  0  0  0  0  0  0  0  0  0  0  0
  180.3160  179.1360  141.7260 O   0  0  0  0  0  0  0  0  0  0  0  0
  180.7740  179.0140  140.5800 C   0  0  0  0  0  0  0  0  0  0  0  0
  180.4970  179.5280  138.2430 C   0  0  0  0  0  2  0  0  0  0  0  0
  180.0020  181.9470  138.7530 C   0  0  0  0  0  1  0  0  0  0  0  0
  180.7700  181.3130  136.4840 C   0  0  0  0  0  1  0  0  0  0  0  0
  182.1910  181.1740  138.3530 F   0  0  0  0  0  0  0  0  0  0  0  0
  180.8780  180.9890  137.9630 C   0  0  0  0  0  0  0  0  0  0  0  0
  191.1940  177.5940  140.1780 S   0  0  0  0  0  0  0  0  0  0  0  0
  190.3400  177.4650  142.7640 C   0  0  0  0  0  3  0  0  0  0  0  0
  190.3290  176.8660  141.5750 C   0  0  0  0  0  3  0  0  0  0  0  0
  189.6150  176.8690  143.9320 C   0  0  1  0  0  3  0  0  0  0  0  0
  190.5460  176.9420  146.3110 C   0  0  0  0  0  2  0  0  0  0  0  0
  190.6240  176.2810  144.9460 C   0  0  0  0  0  3  0  0  0  0  0  0
  191.6910  177.2760  145.3690 C   0  0  0  0  0  2  0  0  0  0  0  0
  188.6030  177.8700  144.5020 C   0  0  0  0  0  2  0  0  0  0  0  0
  187.3100  177.1850  144.9160 C   0  0  0  0  0  2  0  0  0  0  0  0
  186.9550  177.5600  146.2110 O   0  0  0  0  0  0  0  0  0  0  0  0
  185.9400  178.5010  146.0300 C   0  0  0  0  0  1  0  0  0  0  0  0
  1  6  1  0  0  0  0
  2 25  1  1  0  0  0
  3 18  1  0  0  0  0
  4 16  2  0  0  0  0
  5  8  1  0  0  0  0
  6 15  1  0  0  0  0
  7 12  1  0  0  0  0
  8  3  1  0  0  0  0
  9 24  2  0  0  0  0
 10  1  1  0  0  0  0
 11  1  2  0  0  0  0
 12 28  1  1  0  0  0
 12 10  1  0  0  0  0
 13 19  1  0  0  0  0
 13 36  1  1  0  0  0
 14 20  1  0  0  0  0
 16  2  1  0  0  0  0
 16  5  1  0  0  0  0
 17 19  1  0  0  0  0
 17  9  1  0  0  0  0
 18  7  1  0  0  0  0
 20 25  1  6  0  0  0
 20 26  1  0  0  0  0
 21 13  1  0  0  0  0
 22 14  2  0  0  0  0
 23 22  1  0  0  0  0
 23  2  1  0  0  0  0
 24 15  1  0  0  0  0
 26 21  1  0  0  0  0
 27 26  2  0  0  0  0
 28 30  2  0  0  0  0
 30 29  2  0  0  0  0
 31 28  1  0  0  0  0
 33 35  1  0  0  0  0
 35 31  1  0  0  0  0
 35 34  1  0  0  0  0
 35 32  1  0  0  0  0
 36 38  1  0  0  0  0
 38 37  2  0  0  0  0
 39 37  1  6  0  0  0
 39 43  1  0  0  0  0
 39 41  1  0  0  0  0
 41 42  1  0  0  0  0
 41 40  1  0  0  0  0
 42 40  1  0  0  0  0
 43 44  1  0  0  0  0
 44 45  1  0  0  0  0
 46 45  1  0  0  0  0
M  END
>  <MODEL>
1

>  <REMARK>
 VINA RESULT:      -7.7      0.000      0.000
  Name = 
  10 active torsions:
  status: ('A' for Active; 'I' for Inactive)
    1  A    between atoms: C_4  and  C_32
    2  A    between atoms: O_11  and  C_26
    3  A    between atoms: C_13  and  C_32
    4  A    between atoms: C_14  and  S_16
    5  A    between atoms: S_16  and  C_23
    6  A    between atoms: C_19  and  C_20
    7  A    between atoms: C_19  and  C_25
    8  A    between atoms: C_25  and  C_38
    9  A    between atoms: C_26  and  C_36
   10  A    between atoms: C_32  and  C_36
                            x       y       z     vdW  Elec       q    Type
                         _______ _______ _______ _____ _____    ______ ____

>  <TORSDO>
F 10

$$$$
=
 OpenBabel10222416203D

 46 48  0  0  1  0  0  0  0  0999 V2000
  188.7640  176.3920  137.7170 C   0  0  0  0  0  0  0  0  0  0  0  0
  187.2220  178.1390  145.1170 C   0  0  2  0  0  3  0  0  0  0  0  0
  191.2480  177.1390  142.4750 C   0  0  0  0  0  2  0  0  0  0  0  0
  188.7670  176.5350  145.9810 O   0  0  0  0  0  0  0  0  0  0  0  0
  189.3310  177.4880  143.9230 N   0  0  0  0  0  2  0  0  0  0  0  0
  187.5620  175.7760  137.3550 O   0  0  0  0  0  0  0  0  0  0  0  0
  191.0870  177.5820  139.7900 S   0  0  0  0  0  0  0  0  0  0  0  0
  190.5350  176.6930  143.7400 C   0  0  0  0  0  2  0  0  0  0  0  0
  186.5050  178.0950  138.6920 N   0  0  0  0  0  2  0  0  0  0  0  0
  189.7340  175.6340  138.4480 N   0  0  0  0  0  2  0  0  0  0  0  0
  189.0140  177.5780  137.3630 O   0  0  0  0  0  0  0  0  0  0  0  0
  191.0980  176.0810  138.7430 C   0  0  1  0  0  3  0  0  0  0  0  0
  184.2960  179.1420  141.2470 C   0  0  2  0  0  3  0  0  0  0  0  0
  184.7200  178.9330  146.1910 N   0  0  0  0  0  0  0  0  0  0  0  0
  186.4160  176.4550  136.9180 C   0  0  0  0  0  3  0  0  0  0  0  0
  188.4770  177.3400  145.0560 C   0  0  0  0  0  0  0  0  0  0  0  0
  185.8460  179.0290  139.4210 O   0  0  0  0  0  0  0  0  0  0  0  0
  190.4750  176.6900  141.2490 C   0  0  0  0  0  2  0  0  0  0  0  0
  185.3500  178.3240  140.5200 C   0  0  0  0  0  2  0  0  0  0  0  0
  184.7400  178.1580  144.9410 C   0  0  2  0  0  3  0  0  0  0  0  0
  184.0400  178.5470  142.5490 N   0  0  0  0  0  2  0  0  0  0  0  0
  185.7950  179.2430  146.8570 C   0  0  0  0  0  3  0  0  0  0  0  0
  187.0850  178.8100  146.4080 N   0  0  0  0  0  2  0  0  0  0  0  0
  185.9100  177.5340  137.5210 C   0  0  0  0  0  3  0  0  0  0  0  0
  185.9950  177.2780  144.8450 C   0  0  0  0  0  2  0  0  0  0  0  0
  184.6430  179.0510  143.7410 C   0  0  0  0  0  0  0  0  0  0  0  0
  185.1500  180.2080  143.7580 O   0  0  0  0  0  0  0  0  0  0  0  0
  191.9190  176.2360  137.4840 C   0  0  0  0  0  0  0  0  0  0  0  0
  190.9130  175.4670  135.2720 O   0  0  0  0  0  0  0  0  0  0  0  0
  191.4030  175.8400  136.3480 C   0  0  0  0  0  0  0  0  0  0  0  0
  193.4190  176.3300  137.5740 C   0  0  0  0  0  2  0  0  0  0  0  0
  195.1290  174.8610  138.7010 C   0  0  0  0  0  1  0  0  0  0  0  0
  194.8840  174.7760  136.2360 C   0  0  0  0  0  1  0  0  0  0  0  0
  193.2020  173.9780  137.6730 F   0  0  0  0  0  0  0  0  0  0  0  0
  194.1470  174.9790  137.5480 C   0  0  0  0  0  0  0  0  0  0  0  0
  182.7470  179.2500  140.2800 S   0  0  0  0  0  0  0  0  0  0  0  0
  181.5680  176.9920  139.3100 C   0  0  0  0  0  3  0  0  0  0  0  0
  182.5240  177.4760  140.1000 C   0  0  0  0  0  3  0  0  0  0  0  0
  181.3790  175.5140  139.1470 C   0  0  1  0  0  3  0  0  0  0  0  0
  179.3520  175.6970  140.6930 C   0  0  0  0  0  2  0  0  0  0  0  0
  179.9020  175.1310  139.3950 C   0  0  0  0  0  3  0  0  0  0  0  0
  179.7170  174.2240  140.6000 C   0  0  0  0  0  2  0  0  0  0  0  0
  181.9770  175.0410  137.8170 C   0  0  0  0  0  2  0  0  0  0  0  0
  183.4290  174.6160  137.9740 C   0  0  0  0  0  2  0  0  0  0  0  0
  183.6780  173.4590  137.2380 O   0  0  0  0  0  0  0  0  0  0  0  0
  184.9290  173.0300  137.6860 C   0  0  0  0  0  1  0  0  0  0  0  0
  1 10  1  0  0  0  0
  2 25  1  1  0  0  0
  2 23  1  0  0  0  0
  3  8  1  0  0  0  0
  5 16  1  0  0  0  0
  6  1  1  0  0  0  0
  7 18  1  0  0  0  0
  8  5  1  0  0  0  0
  9 17  1  0  0  0  0
 10 12  1  0  0  0  0
 11  1  2  0  0  0  0
 12 28  1  6  0  0  0
 12  7  1  0  0  0  0
 13 36  1  6  0  0  0
 13 21  1  0  0  0  0
 14 22  2  0  0  0  0
 15  6  1  0  0  0  0
 15 24  2  0  0  0  0
 16  2  1  0  0  0  0
 16  4  2  0  0  0  0
 17 19  1  0  0  0  0
 18  3  1  0  0  0  0
 19 13  1  0  0  0  0
 20 25  1  6  0  0  0
 20 14  1  0  0  0  0
 21 26  1  0  0  0  0
 23 22  1  0  0  0  0
 24  9  1  0  0  0  0
 26 27  2  0  0  0  0
 26 20  1  0  0  0  0
 28 31  1  0  0  0  0
 29 30  2  0  0  0  0
 30 28  2  0  0  0  0
 33 35  1  0  0  0  0
 35 31  1  0  0  0  0
 35 34  1  0  0  0  0
 35 32  1  0  0  0  0
 37 38  2  0  0  0  0
 38 36  1  0  0  0  0
 39 43  1  6  0  0  0
 39 37  1  0  0  0  0
 39 41  1  0  0  0  0
 41 42  1  0  0  0  0
 41 40  1  0  0  0  0
 42 40  1  0  0  0  0
 43 44  1  0  0  0  0
 45 46  1  0  0  0  0
 45 44  1  0  0  0  0
M  END
>  <MODEL>
2

>  <REMARK>
 VINA RESULT:      -6.8      3.366     10.246
  Name = 
  10 active torsions:
  status: ('A' for Active; 'I' for Inactive)
    1  A    between atoms: C_4  and  C_32
    2  A    between atoms: O_11  and  C_26
    3  A    between atoms: C_13  and  C_32
    4  A    between atoms: C_14  and  S_16
    5  A    between atoms: S_16  and  C_23
    6  A    between atoms: C_19  and  C_20
    7  A    between atoms: C_19  and  C_25
    8  A    between atoms: C_25  and  C_38
    9  A    between atoms: C_26  and  C_36
   10  A    between atoms: C_32  and  C_36
                            x       y       z     vdW  Elec       q    Type
                         _______ _______ _______ _____ _____    ______ ____

>  <TORSDO>
F 10

$$$$
=
 OpenBabel10222416203D

 46 48  0  0  1  0  0  0  0  0999 V2000
  184.8980  178.6910  143.9930 C   0  0  0  0  0  0  0  0  0  0  0  0
  188.0010  176.8660  137.1200 C   0  0  2  0  0  3  0  0  0  0  0  0
  189.4920  176.8250  141.8060 C   0  0  0  0  0  2  0  0  0  0  0  0
  190.1160  177.8490  137.6390 O   0  0  0  0  0  0  0  0  0  0  0  0
  188.9390  176.9500  139.4460 N   0  0  0  0  0  2  0  0  0  0  0  0
  183.9810  179.6690  143.5950 O   0  0  0  0  0  0  0  0  0  0  0  0
  187.5420  176.6820  143.7060 S   0  0  0  0  0  0  0  0  0  0  0  0
  189.9130  177.3560  140.4470 C   0  0  0  0  0  2  0  0  0  0  0  0
  183.4130  177.6730  141.6020 N   0  0  0  0  0  0  0  0  0  0  0  0
  186.2750  179.0550  144.1400 N   0  0  0  0  0  2  0  0  0  0  0  0
  184.5130  177.5190  144.2660 O   0  0  0  0  0  0  0  0  0  0  0  0
  187.3120  178.1930  144.7130 C   0  0  1  0  0  3  0  0  0  0  0  0
  183.1550  177.1280  138.1180 C   0  0  2  0  0  3  0  0  0  0  0  0
  186.6640  176.7760  134.6210 N   0  0  0  0  0  0  0  0  0  0  0  0
  182.6880  179.4080  143.1210 C   0  0  0  0  0  2  0  0  0  0  0  0
  189.0900  177.2510  138.0600 C   0  0  0  0  0  0  0  0  0  0  0  0
  183.1380  176.9230  140.5070 O   0  0  0  0  0  0  0  0  0  0  0  0
  188.2860  177.5890  142.3200 C   0  0  0  0  0  2  0  0  0  0  0  0
  183.6820  177.6490  139.4450 C   0  0  0  0  0  2  0  0  0  0  0  0
  186.1050  177.6130  135.6940 C   0  0  2  0  0  3  0  0  0  0  0  0
  183.9700  177.6590  137.0360 N   0  0  0  0  0  2  0  0  0  0  0  0
  187.7700  176.1010  134.7440 C   0  0  0  0  0  3  0  0  0  0  0  0
  188.5330  176.1610  135.9560 N   0  0  0  0  0  2  0  0  0  0  0  0
  182.4010  178.4850  142.2000 C   0  0  0  0  0  3  0  0  0  0  0  0
  187.1940  178.0780  136.6700 C   0  0  0  0  0  2  0  0  0  0  0  0
  185.0170  176.8960  136.4350 C   0  0  0  0  0  0  0  0  0  0  0  0
  185.0610  175.6440  136.5890 O   0  0  0  0  0  0  0  0  0  0  0  0
  187.0560  177.9050  146.1740 C   0  0  0  0  0  0  0  0  0  0  0  0
  185.7320  179.6050  147.5350 O   0  0  0  0  0  0  0  0  0  0  0  0
  186.3770  178.7780  146.8730 C   0  0  0  0  0  0  0  0  0  0  0  0
  187.9600  176.9640  146.9230 C   0  0  0  0  0  2  0  0  0  0  0  0
  190.3860  176.4030  147.3220 C   0  0  0  0  0  1  0  0  0  0  0  0
  189.3710  178.3350  148.4980 C   0  0  0  0  0  1  0  0  0  0  0  0
  189.7220  178.3500  146.1730 F   0  0  0  0  0  0  0  0  0  0  0  0
  189.3610  177.5200  147.2170 C   0  0  0  0  0  0  0  0  0  0  0  0
  181.3990  177.5750  137.8720 S   0  0  0  0  0  0  0  0  0  0  0  0
  180.5770  180.1440  138.2700 C   0  0  0  0  0  3  0  0  0  0  0  0
  181.5620  179.2680  138.4560 C   0  0  0  0  0  3  0  0  0  0  0  0
  180.7000  181.5550  138.7600 C   0  0  1  0  0  3  0  0  0  0  0  0
  180.2410  183.4810  137.1440 C   0  0  0  0  0  2  0  0  0  0  0  0
  181.2560  182.4660  137.6410 C   0  0  0  0  0  3  0  0  0  0  0  0
  180.5640  182.2550  136.3050 C   0  0  0  0  0  2  0  0  0  0  0  0
  179.3880  182.0150  139.4050 C   0  0  0  0  0  2  0  0  0  0  0  0
  178.9310  181.0540  140.4930 C   0  0  0  0  0  2  0  0  0  0  0  0
  179.9160  180.9240  141.4700 O   0  0  0  0  0  0  0  0  0  0  0  0
  179.2390  180.4040  142.5740 C   0  0  0  0  0  1  0  0  0  0  0  0
  1 10  1  0  0  0  0
  1 11  2  0  0  0  0
  2 25  1  6  0  0  0
  2 16  1  0  0  0  0
  3 18  1  0  0  0  0
  4 16  2  0  0  0  0
  5  8  1  0  0  0  0
  6  1  1  0  0  0  0
  7 12  1  0  0  0  0
  8  3  1  0  0  0  0
  9 24  2  0  0  0  0
 10 12  1  0  0  0  0
 12 28  1  1  0  0  0
 13 36  1  6  0  0  0
 13 19  1  0  0  0  0
 14 22  2  0  0  0  0
 14 20  1  0  0  0  0
 15  6  1  0  0  0  0
 16  5  1  0  0  0  0
 17  9  1  0  0  0  0
 18  7  1  0  0  0  0
 19 17  1  0  0  0  0
 20 26  1  0  0  0  0
 20 25  1  1  0  0  0
 21 13  1  0  0  0  0
 22 23  1  0  0  0  0
 23  2  1  0  0  0  0
 24 15  1  0  0  0  0
 26 27  2  0  0  0  0
 26 21  1  0  0  0  0
 28 30  2  0  0  0  0
 28 31  1  0  0  0  0
 30 29  2  0  0  0  0
 31 35  1  0  0  0  0
 34 35  1  0  0  0  0
 35 32  1  0  0  0  0
 35 33  1  0  0  0  0
 36 38  1  0  0  0  0
 37 38  2  0  0  0  0
 39 37  1  6  0  0  0
 39 43  1  0  0  0  0
 40 41  1  0  0  0  0
 41 39  1  0  0  0  0
 42 40  1  0  0  0  0
 42 41  1  0  0  0  0
 43 44  1  0  0  0  0
 44 45  1  0  0  0  0
 45 46  1  0  0  0  0
M  END
>  <MODEL>
3

>  <REMARK>
 VINA RESULT:      -6.8      2.878      8.614
  Name = 
  10 active torsions:
  status: ('A' for Active; 'I' for Inactive)
    1  A    between atoms: C_4  and  C_32
    2  A    between atoms: O_11  and  C_26
    3  A    between atoms: C_13  and  C_32
    4  A    between atoms: C_14  and  S_16
    5  A    between atoms: S_16  and  C_23
    6  A    between atoms: C_19  and  C_20
    7  A    between atoms: C_19  and  C_25
    8  A    between atoms: C_25  and  C_38
    9  A    between atoms: C_26  and  C_36
   10  A    between atoms: C_32  and  C_36
                            x       y       z     vdW  Elec       q    Type
                         _______ _______ _______ _____ _____    ______ ____

>  <TORSDO>
F 10

$$$$
=
 OpenBabel10222416203D

 46 48  0  0  1  0  0  0  0  0999 V2000
  185.2910  178.9740  138.2300 C   0  0  0  0  0  0  0  0  0  0  0  0
  188.8880  177.4560  144.9350 C   0  0  2  0  0  3  0  0  0  0  0  0
  184.2360  178.1020  143.4740 C   0  0  0  0  0  2  0  0  0  0  0  0
  187.5080  178.9470  146.1920 O   0  0  0  0  0  0  0  0  0  0  0  0
  186.4920  177.9250  144.3530 N   0  0  0  0  0  2  0  0  0  0  0  0
  186.3000  179.6760  137.5640 O   0  0  0  0  0  0  0  0  0  0  0  0
  183.7090  177.6350  140.8400 S   0  0  0  0  0  0  0  0  0  0  0  0
  185.2230  178.6200  144.5050 C   0  0  0  0  0  2  0  0  0  0  0  0
  187.8560  177.4660  138.5530 N   0  0  0  0  0  2  0  0  0  0  0  0
  184.4950  179.6640  139.2000 N   0  0  0  0  0  2  0  0  0  0  0  0
  185.0500  177.7660  137.9470 O   0  0  0  0  0  0  0  0  0  0  0  0
  183.3000  179.1160  139.8450 C   0  0  1  0  0  3  0  0  0  0  0  0
  190.7430  176.6310  140.4150 C   0  0  2  0  0  3  0  0  0  0  0  0
  191.6400  176.8760  145.2940 N   0  0  0  0  0  0  0  0  0  0  0  0
  187.3380  179.0830  136.8320 C   0  0  0  0  0  3  0  0  0  0  0  0
  187.6030  178.1550  145.2170 C   0  0  0  0  0  0  0  0  0  0  0  0
  188.7570  176.5970  139.0720 O   0  0  0  0  0  0  0  0  0  0  0  0
  184.6150  178.5930  142.0880 C   0  0  0  0  0  2  0  0  0  0  0  0
  189.4720  177.3550  140.0030 C   0  0  0  0  0  2  0  0  0  0  0  0
  191.2260  177.6300  144.1010 C   0  0  2  0  0  3  0  0  0  0  0  0
  191.2900  177.2630  141.6060 N   0  0  0  0  0  2  0  0  0  0  0  0
  190.8110  176.4930  146.2220 C   0  0  0  0  0  3  0  0  0  0  0  0
  189.4180  176.8170  146.1370 N   0  0  0  0  0  2  0  0  0  0  0  0
  188.0700  178.0560  137.2690 C   0  0  0  0  0  3  0  0  0  0  0  0
  189.9260  178.4070  144.3510 C   0  0  0  0  0  2  0  0  0  0  0  0
  191.0690  176.7290  142.9120 C   0  0  0  0  0  0  0  0  0  0  0  0
  190.6790  175.5380  143.0550 O   0  0  0  0  0  0  0  0  0  0  0  0
  182.1870  178.8790  138.8510 C   0  0  0  0  0  0  0  0  0  0  0  0
  181.3570  176.4960  138.4970 O   0  0  0  0  0  0  0  0  0  0  0  0
  181.7610  177.6560  138.6680 C   0  0  0  0  0  0  0  0  0  0  0  0
  181.9410  179.8750  137.7480 C   0  0  0  0  0  2  0  0  0  0  0  0
  180.4030  181.0190  139.3860 C   0  0  0  0  0  1  0  0  0  0  0  0
  180.6190  181.9150  137.0850 C   0  0  0  0  0  1  0  0  0  0  0  0
  182.3940  182.0240  138.6240 F   0  0  0  0  0  0  0  0  0  0  0  0
  181.3520  181.2130  138.2150 C   0  0  0  0  0  0  0  0  0  0  0  0
  191.9810  176.6310  139.0690 S   0  0  0  0  0  0  0  0  0  0  0  0
  191.1440  175.4540  136.7570 C   0  0  0  0  0  3  0  0  0  0  0  0
  191.1750  175.3610  138.0840 C   0  0  0  0  0  3  0  0  0  0  0  0
  190.4810  174.3960  135.9270 C   0  0  1  0  0  3  0  0  0  0  0  0
  191.2280  172.1530  134.9550 C   0  0  0  0  0  2  0  0  0  0  0  0
  191.5340  173.6350  135.0880 C   0  0  0  0  0  3  0  0  0  0  0  0
  192.3230  172.6220  135.9000 C   0  0  0  0  0  2  0  0  0  0  0  0
  189.5670  173.5260  136.7980 C   0  0  0  0  0  2  0  0  0  0  0  0
  188.1230  173.5790  136.3210 C   0  0  0  0  0  2  0  0  0  0  0  0
  187.3640  174.3930  137.1600 O   0  0  0  0  0  0  0  0  0  0  0  0
  186.1940  174.6360  136.4370 C   0  0  0  0  0  1  0  0  0  0  0  0
  1 10  1  0  0  0  0
  2 25  1  1  0  0  0
  2 16  1  0  0  0  0
  2 23  1  0  0  0  0
  3  8  1  0  0  0  0
  5  8  1  0  0  0  0
  5 16  1  0  0  0  0
  6  1  1  0  0  0  0
  7 18  1  0  0  0  0
  9 17  1  0  0  0  0
 10 12  1  0  0  0  0
 11  1  2  0  0  0  0
 12 28  1  6  0  0  0
 12  7  1  0  0  0  0
 13 36  1  6  0  0  0
 13 21  1  0  0  0  0
 14 22  2  0  0  0  0
 15 24  2  0  0  0  0
 15  6  1  0  0  0  0
 16  4  2  0  0  0  0
 17 19  1  0  0  0  0
 18  3  1  0  0  0  0
 19 13  1  0  0  0  0
 20 25  1  1  0  0  0
 20 14  1  0  0  0  0
 21 26  1  0  0  0  0
 23 22  1  0  0  0  0
 24  9  1  0  0  0  0
 26 27  2  0  0  0  0
 26 20  1  0  0  0  0
 29 30  2  0  0  0  0
 30 28  2  0  0  0  0
 31 35  1  0  0  0  0
 31 28  1  0  0  0  0
 33 35  1  0  0  0  0
 35 34  1  0  0  0  0
 35 32  1  0  0  0  0
 37 38  2  0  0  0  0
 38 36  1  0  0  0  0
 39 37  1  1  0  0  0
 39 43  1  0  0  0  0
 40 41  1  0  0  0  0
 40 42  1  0  0  0  0
 41 42  1  0  0  0  0
 41 39  1  0  0  0  0
 44 43  1  0  0  0  0
 44 45  1  0  0  0  0
 46 45  1  0  0  0  0
M  END
>  <MODEL>
4

>  <REMARK>
 VINA RESULT:      -6.7      2.558      7.075
  Name = 
  10 active torsions:
  status: ('A' for Active; 'I' for Inactive)
    1  A    between atoms: C_4  and  C_32
    2  A    between atoms: O_11  and  C_26
    3  A    between atoms: C_13  and  C_32
    4  A    between atoms: C_14  and  S_16
    5  A    between atoms: S_16  and  C_23
    6  A    between atoms: C_19  and  C_20
    7  A    between atoms: C_19  and  C_25
    8  A    between atoms: C_25  and  C_38
    9  A    between atoms: C_26  and  C_36
   10  A    between atoms: C_32  and  C_36
                            x       y       z     vdW  Elec       q    Type
                         _______ _______ _______ _____ _____    ______ ____

>  <TORSDO>
F 10

$$$$
=
 OpenBabel10222416203D

 46 48  0  0  1  0  0  0  0  0999 V2000
  188.5930  176.9430  143.5240 C   0  0  0  0  0  0  0  0  0  0  0  0
  183.9200  177.4560  137.3520 C   0  0  2  0  0  3  0  0  0  0  0  0
  183.5650  178.4350  142.1580 C   0  0  0  0  0  2  0  0  0  0  0  0
  182.0130  176.6330  138.5320 O   0  0  0  0  0  0  0  0  0  0  0  0
  183.5550  177.8440  139.8040 N   0  0  0  0  0  2  0  0  0  0  0  0
  189.4170  175.8890  143.1200 O   0  0  0  0  0  0  0  0  0  0  0  0
  185.9010  178.9080  143.4830 S   0  0  0  0  0  0  0  0  0  0  0  0
  182.8530  177.6590  141.0650 C   0  0  0  0  0  2  0  0  0  0  0  0
  189.4500  177.4480  140.7020 N   0  0  0  0  0  0  0  0  0  0  0  0
  187.2990  176.6410  144.0590 N   0  0  0  0  0  2  0  0  0  0  0  0
  188.9980  178.1380  143.4680 O   0  0  0  0  0  0  0  0  0  0  0  0
  186.4010  177.6170  144.6800 C   0  0  1  0  0  3  0  0  0  0  0  0
  188.8710  177.3000  137.2170 C   0  0  2  0  0  3  0  0  0  0  0  0
  184.6340  177.0320  134.6400 N   0  0  0  0  0  0  0  0  0  0  0  0
  190.5570  176.0270  142.3150 C   0  0  0  0  0  2  0  0  0  0  0  0
  183.0930  177.2810  138.5770 C   0  0  0  0  0  0  0  0  0  0  0  0
  189.4410  177.9650  139.4490 O   0  0  0  0  0  0  0  0  0  0  0  0
  184.8790  177.7630  142.5130 C   0  0  0  0  0  2  0  0  0  0  0  0
  188.6830  177.0570  138.7050 C   0  0  0  0  0  2  0  0  0  0  0  0
  185.4510  176.4090  135.6930 C   0  0  2  0  0  3  0  0  0  0  0  0
  187.8410  176.5840  136.4800 N   0  0  0  0  0  2  0  0  0  0  0  0
  183.5690  177.7400  134.8860 C   0  0  0  0  0  3  0  0  0  0  0  0
  183.1130  177.9310  136.2310 N   0  0  0  0  0  2  0  0  0  0  0  0
  190.5950  176.7480  141.1910 C   0  0  0  0  0  3  0  0  0  0  0  0
  184.6330  176.1640  136.9680 C   0  0  0  0  0  2  0  0  0  0  0  0
  186.6620  177.2360  136.0050 C   0  0  0  0  0  0  0  0  0  0  0  0
  186.6210  178.4940  135.9200 O   0  0  0  0  0  0  0  0  0  0  0  0
  186.9840  178.1780  145.9570 C   0  0  0  0  0  0  0  0  0  0  0  0
  185.5570  179.7670  147.3500 O   0  0  0  0  0  0  0  0  0  0  0  0
  186.2520  178.9940  146.6720 C   0  0  0  0  0  0  0  0  0  0  0  0
  188.4770  178.2420  146.1350 C   0  0  0  0  0  2  0  0  0  0  0  0
  189.1980  178.2530  148.5510 C   0  0  0  0  0  1  0  0  0  0  0  0
  190.3390  176.7490  146.9450 C   0  0  0  0  0  1  0  0  0  0  0  0
  188.1000  176.4090  147.5800 F   0  0  0  0  0  0  0  0  0  0  0  0
  189.0170  177.4050  147.3040 C   0  0  0  0  0  0  0  0  0  0  0  0
  190.5320  176.7800  136.6570 S   0  0  0  0  0  0  0  0  0  0  0  0
  190.0810  174.0930  136.7760 C   0  0  0  0  0  3  0  0  0  0  0  0
  190.0130  175.1830  136.0140 C   0  0  0  0  0  3  0  0  0  0  0  0
  189.6430  172.7600  136.2510 C   0  0  1  0  0  3  0  0  0  0  0  0
  187.5180  171.4440  135.7200 C   0  0  0  0  0  2  0  0  0  0  0  0
  188.1550  172.5120  136.5910 C   0  0  0  0  0  3  0  0  0  0  0  0
  187.2140  172.9110  135.4670 C   0  0  0  0  0  2  0  0  0  0  0  0
  190.0240  172.6140  134.7730 C   0  0  0  0  0  2  0  0  0  0  0  0
  191.2640  171.7500  134.5970 C   0  0  0  0  0  2  0  0  0  0  0  0
  192.4150  172.5330  134.6700 O   0  0  0  0  0  0  0  0  0  0  0  0
  193.1680  171.9430  135.6870 C   0  0  0  0  0  1  0  0  0  0  0  0
  1 10  1  0  0  0  0
  2 25  1  6  0  0  0
  2 16  1  0  0  0  0
  3 18  1  0  0  0  0
  4 16  2  0  0  0  0
  5  8  1  0  0  0  0
  6  1  1  0  0  0  0
  7 12  1  0  0  0  0
  8  3  1  0  0  0  0
  9 24  2  0  0  0  0
 10 12  1  0  0  0  0
 11  1  2  0  0  0  0
 12 28  1  1  0  0  0
 13 36  1  6  0  0  0
 13 19  1  0  0  0  0
 14 22  2  0  0  0  0
 14 20  1  0  0  0  0
 15  6  1  0  0  0  0
 16  5  1  0  0  0  0
 17  9  1  0  0  0  0
 18  7  1  0  0  0  0
 19 17  1  0  0  0  0
 20 26  1  0  0  0  0
 20 25  1  1  0  0  0
 21 13  1  0  0  0  0
 22 23  1  0  0  0  0
 23  2  1  0  0  0  0
 24 15  1  0  0  0  0
 26 21  1  0  0  0  0
 27 26  2  0  0  0  0
 28 31  1  0  0  0  0
 28 30  2  0  0  0  0
 30 29  2  0  0  0  0
 31 35  1  0  0  0  0
 33 35  1  0  0  0  0
 35 34  1  0  0  0  0
 35 32  1  0  0  0  0
 38 36  1  0  0  0  0
 38 37  2  0  0  0  0
 39 43  1  6  0  0  0
 39 41  1  0  0  0  0
 39 37  1  0  0  0  0
 40 41  1  0  0  0  0
 42 40  1  0  0  0  0
 42 41  1  0  0  0  0
 44 45  1  0  0  0  0
 44 43  1  0  0  0  0
 45 46  1  0  0  0  0
M  END
>  <MODEL>
5

>  <REMARK>
 VINA RESULT:      -6.4      3.379      8.194
  Name = 
  10 active torsions:
  status: ('A' for Active; 'I' for Inactive)
    1  A    between atoms: C_4  and  C_32
    2  A    between atoms: O_11  and  C_26
    3  A    between atoms: C_13  and  C_32
    4  A    between atoms: C_14  and  S_16
    5  A    between atoms: S_16  and  C_23
    6  A    between atoms: C_19  and  C_20
    7  A    between atoms: C_19  and  C_25
    8  A    between atoms: C_25  and  C_38
    9  A    between atoms: C_26  and  C_36
   10  A    between atoms: C_32  and  C_36
                            x       y       z     vdW  Elec       q    Type
                         _______ _______ _______ _____ _____    ______ ____

>  <TORSDO>
F 10

$$$$
=
 OpenBabel10222416203D

 46 48  0  0  1  0  0  0  0  0999 V2000
  186.4170  178.4480  145.0300 C   0  0  0  0  0  0  0  0  0  0  0  0
  187.8730  177.2290  137.5070 C   0  0  2  0  0  3  0  0  0  0  0  0
  190.2050  176.3780  141.7520 C   0  0  0  0  0  2  0  0  0  0  0  0
  190.1650  177.8810  137.6850 O   0  0  0  0  0  0  0  0  0  0  0  0
  189.2380  176.8860  139.5850 N   0  0  0  0  0  2  0  0  0  0  0  0
  185.5890  179.5710  144.9400 O   0  0  0  0  0  0  0  0  0  0  0  0
  188.6500  176.2040  143.9850 S   0  0  0  0  0  0  0  0  0  0  0  0
  190.4310  177.0360  140.4030 C   0  0  0  0  0  2  0  0  0  0  0  0
  184.3780  177.9440  142.8980 N   0  0  0  0  0  0  0  0  0  0  0  0
  187.8350  178.6260  144.9300 N   0  0  0  0  0  2  0  0  0  0  0  0
  185.9310  177.3020  145.2450 O   0  0  0  0  0  0  0  0  0  0  0  0
  188.8300  177.5810  145.1780 C   0  0  1  0  0  3  0  0  0  0  0  0
  183.3910  177.9120  139.5030 C   0  0  2  0  0  3  0  0  0  0  0  0
  186.0880  177.6360  135.3420 N   0  0  0  0  0  0  0  0  0  0  0  0
  184.2060  179.5290  144.7160 C   0  0  0  0  0  2  0  0  0  0  0  0
  189.1640  177.3540  138.2400 C   0  0  0  0  0  0  0  0  0  0  0  0
  183.7970  177.3880  141.8070 O   0  0  0  0  0  0  0  0  0  0  0  0
  189.2380  177.1990  142.5850 C   0  0  0  0  0  2  0  0  0  0  0  0
  184.2270  178.1830  140.7430 C   0  0  0  0  0  2  0  0  0  0  0  0
  185.8650  178.3780  136.5930 C   0  0  2  0  0  3  0  0  0  0  0  0
  184.0520  178.4880  138.3420 N   0  0  0  0  0  2  0  0  0  0  0  0
  187.0910  176.8270  135.1600 C   0  0  0  0  0  3  0  0  0  0  0  0
  188.0700  176.6320  136.1880 N   0  0  0  0  0  2  0  0  0  0  0  0
  183.6230  178.7790  143.7770 C   0  0  0  0  0  3  0  0  0  0  0  0
  187.1740  178.5760  137.3690 C   0  0  0  0  0  2  0  0  0  0  0  0
  184.8470  177.6980  137.4580 C   0  0  0  0  0  0  0  0  0  0  0  0
  184.7430  176.4400  137.4610 O   0  0  0  0  0  0  0  0  0  0  0  0
  188.8180  177.1280  146.6200 C   0  0  0  0  0  0  0  0  0  0  0  0
  187.8380  178.6920  148.3780 O   0  0  0  0  0  0  0  0  0  0  0  0
  188.3160  177.9310  147.5230 C   0  0  0  0  0  0  0  0  0  0  0  0
  189.7900  176.0770  147.0850 C   0  0  0  0  0  2  0  0  0  0  0  0
  191.6800  177.1300  145.7910 C   0  0  0  0  0  1  0  0  0  0  0  0
  192.1810  175.3820  147.4750 C   0  0  0  0  0  1  0  0  0  0  0  0
  191.3800  177.5040  148.0980 F   0  0  0  0  0  0  0  0  0  0  0  0
  191.2560  176.5330  147.1220 C   0  0  0  0  0  0  0  0  0  0  0  0
  181.7000  178.5900  139.6740 S   0  0  0  0  0  0  0  0  0  0  0  0
  180.9110  180.5330  137.9330 C   0  0  0  0  0  3  0  0  0  0  0  0
  181.9470  179.9740  138.5540 C   0  0  0  0  0  3  0  0  0  0  0  0
  181.1060  181.6920  137.0030 C   0  0  1  0  0  3  0  0  0  0  0  0
  179.4480  180.2520  135.6970 C   0  0  0  0  0  2  0  0  0  0  0  0
  180.4310  181.4070  135.6410 C   0  0  0  0  0  3  0  0  0  0  0  0
  180.8130  180.0570  135.0580 C   0  0  0  0  0  2  0  0  0  0  0  0
  180.7010  183.0030  137.6880 C   0  0  0  0  0  2  0  0  0  0  0  0
  181.5560  184.1690  137.2160 C   0  0  0  0  0  2  0  0  0  0  0  0
  180.8090  185.3460  137.2080 O   0  0  0  0  0  0  0  0  0  0  0  0
  179.4960  184.9210  137.4180 C   0  0  0  0  0  1  0  0  0  0  0  0
  1 11  2  0  0  0  0
  2 25  1  6  0  0  0
  2 16  1  0  0  0  0
  3 18  1  0  0  0  0
  4 16  2  0  0  0  0
  5  8  1  0  0  0  0
  6  1  1  0  0  0  0
  7 12  1  0  0  0  0
  8  3  1  0  0  0  0
  9 24  2  0  0  0  0
 10  1  1  0  0  0  0
 10 12  1  0  0  0  0
 12 28  1  1  0  0  0
 13 36  1  1  0  0  0
 13 19  1  0  0  0  0
 14 20  1  0  0  0  0
 15  6  1  0  0  0  0
 16  5  1  0  0  0  0
 17  9  1  0  0  0  0
 18  7  1  0  0  0  0
 19 17  1  0  0  0  0
 20 25  1  1  0  0  0
 20 26  1  0  0  0  0
 21 13  1  0  0  0  0
 22 14  2  0  0  0  0
 22 23  1  0  0  0  0
 23  2  1  0  0  0  0
 24 15  1  0  0  0  0
 26 27  2  0  0  0  0
 26 21  1  0  0  0  0
 28 31  1  0  0  0  0
 28 30  2  0  0  0  0
 30 29  2  0  0  0  0
 31 35  1  0  0  0  0
 32 35  1  0  0  0  0
 35 33  1  0  0  0  0
 35 34  1  0  0  0  0
 37 38  2  0  0  0  0
 38 36  1  0  0  0  0
 39 43  1  1  0  0  0
 39 37  1  0  0  0  0
 41 40  1  0  0  0  0
 41 39  1  0  0  0  0
 42 41  1  0  0  0  0
 42 40  1  0  0  0  0
 44 43  1  0  0  0  0
 45 44  1  0  0  0  0
 45 46  1  0  0  0  0
M  END
>  <MODEL>
6

>  <REMARK>
 VINA RESULT:      -6.4      3.307      9.513
  Name = 
  10 active torsions:
  status: ('A' for Active; 'I' for Inactive)
    1  A    between atoms: C_4  and  C_32
    2  A    between atoms: O_11  and  C_26
    3  A    between atoms: C_13  and  C_32
    4  A    between atoms: C_14  and  S_16
    5  A    between atoms: S_16  and  C_23
    6  A    between atoms: C_19  and  C_20
    7  A    between atoms: C_19  and  C_25
    8  A    between atoms: C_25  and  C_38
    9  A    between atoms: C_26  and  C_36
   10  A    between atoms: C_32  and  C_36
                            x       y       z     vdW  Elec       q    Type
                         _______ _______ _______ _____ _____    ______ ____

>  <TORSDO>
F 10

$$$$
=
 OpenBabel10222416203D

 46 48  0  0  1  0  0  0  0  0999 V2000
  188.4760  176.9750  143.9310 C   0  0  0  0  0  0  0  0  0  0  0  0
  181.6730  179.2880  141.0030 C   0  0  2  0  0  3  0  0  0  0  0  0
  183.6770  178.9590  145.4820 C   0  0  0  0  0  2  0  0  0  0  0  0
  180.3970  178.2490  142.7350 O   0  0  0  0  0  0  0  0  0  0  0  0
  182.5160  179.0190  143.3510 N   0  0  0  0  0  2  0  0  0  0  0  0
  188.8530  176.0380  142.9640 O   0  0  0  0  0  0  0  0  0  0  0  0
  186.4010  178.9760  145.6040 S   0  0  0  0  0  0  0  0  0  0  0  0
  182.4370  178.5300  144.7190 C   0  0  0  0  0  2  0  0  0  0  0  0
  188.0400  178.1850  141.2280 N   0  0  0  0  0  0  0  0  0  0  0  0
  187.5310  176.5880  144.9350 N   0  0  0  0  0  2  0  0  0  0  0  0
  188.9960  178.1270  143.9510 O   0  0  0  0  0  0  0  0  0  0  0  0
  187.1750  177.3940  146.1050 C   0  0  1  0  0  3  0  0  0  0  0  0
  185.9400  178.9950  138.5010 C   0  0  2  0  0  3  0  0  0  0  0  0
  181.0140  179.5790  138.2600 N   0  0  0  0  0  0  0  0  0  0  0  0
  189.5140  176.3460  141.7670 C   0  0  0  0  0  2  0  0  0  0  0  0
  181.4690  178.8230  142.4020 C   0  0  0  0  0  0  0  0  0  0  0  0
  187.5500  179.0180  140.2780 O   0  0  0  0  0  0  0  0  0  0  0  0
  184.8850  178.1690  145.0130 C   0  0  0  0  0  2  0  0  0  0  0  0
  186.4060  178.3700  139.8060 C   0  0  0  0  0  2  0  0  0  0  0  0
  182.1080  178.6680  138.6330 C   0  0  2  0  0  3  0  0  0  0  0  0
  184.5900  178.5400  138.2060 N   0  0  0  0  0  2  0  0  0  0  0  0
  180.3000  180.2330  139.1310 C   0  0  0  0  0  3  0  0  0  0  0  0
  180.5340  180.0740  140.5360 N   0  0  0  0  0  2  0  0  0  0  0  0
  189.1560  177.3390  140.9480 C   0  0  0  0  0  3  0  0  0  0  0  0
  181.9230  178.1210  140.0550 C   0  0  0  0  0  2  0  0  0  0  0  0
  183.4430  179.3370  138.5040 C   0  0  0  0  0  0  0  0  0  0  0  0
  183.5680  180.5730  138.7270 O   0  0  0  0  0  0  0  0  0  0  0  0
  188.3500  177.5730  147.0390 C   0  0  0  0  0  0  0  0  0  0  0  0
  187.8990  178.3250  149.4320 O   0  0  0  0  0  0  0  0  0  0  0  0
  188.1190  177.9600  148.2670 C   0  0  0  0  0  0  0  0  0  0  0  0
  189.7240  177.8200  146.4770 C   0  0  0  0  0  2  0  0  0  0  0  0
  191.6410  177.1780  147.9830 C   0  0  0  0  0  1  0  0  0  0  0  0
  191.6320  176.4100  145.6260 C   0  0  0  0  0  1  0  0  0  0  0  0
  190.0820  175.5960  147.1960 F   0  0  0  0  0  0  0  0  0  0  0  0
  190.7600  176.7410  146.8240 C   0  0  0  0  0  0  0  0  0  0  0  0
  187.0670  178.5840  137.1210 S   0  0  0  0  0  0  0  0  0  0  0  0
  187.7680  175.9840  136.6910 C   0  0  0  0  0  3  0  0  0  0  0  0
  187.2760  176.8550  137.5690 C   0  0  0  0  0  3  0  0  0  0  0  0
  187.9540  174.5430  137.0580 C   0  0  1  0  0  3  0  0  0  0  0  0
  185.9910  172.9970  137.5920 C   0  0  0  0  0  2  0  0  0  0  0  0
  186.7880  173.6930  136.5030 C   0  0  0  0  0  3  0  0  0  0  0  0
  186.9710  172.2040  136.7430 C   0  0  0  0  0  2  0  0  0  0  0  0
  189.3630  174.0710  136.6810 C   0  0  0  0  0  2  0  0  0  0  0  0
  190.4070  175.1410  136.9610 C   0  0  0  0  0  2  0  0  0  0  0  0
  190.7130  175.1760  138.3210 O   0  0  0  0  0  0  0  0  0  0  0  0
  191.8440  175.9900  138.3980 C   0  0  0  0  0  1  0  0  0  0  0  0
  1 11  2  0  0  0  0
  1 10  1  0  0  0  0
  2 25  1  6  0  0  0
  2 16  1  0  0  0  0
  5  8  1  0  0  0  0
  6  1  1  0  0  0  0
  7 12  1  0  0  0  0
  8  3  1  0  0  0  0
 10 12  1  0  0  0  0
 12 28  1  6  0  0  0
 13 36  1  6  0  0  0
 13 19  1  0  0  0  0
 14 20  1  0  0  0  0
 14 22  2  0  0  0  0
 15  6  1  0  0  0  0
 16  4  2  0  0  0  0
 16  5  1  0  0  0  0
 17  9  1  0  0  0  0
 18  3  1  0  0  0  0
 18  7  1  0  0  0  0
 19 17  1  0  0  0  0
 20 25  1  1  0  0  0
 21 13  1  0  0  0  0
 21 26  1  0  0  0  0
 22 23  1  0  0  0  0
 23  2  1  0  0  0  0
 24  9  2  0  0  0  0
 24 15  1  0  0  0  0
 26 20  1  0  0  0  0
 26 27  2  0  0  0  0
 28 30  2  0  0  0  0
 30 29  2  0  0  0  0
 31 35  1  0  0  0  0
 31 28  1  0  0  0  0
 33 35  1  0  0  0  0
 35 34  1  0  0  0  0
 35 32  1  0  0  0  0
 36 38  1  0  0  0  0
 37 39  1  0  0  0  0
 37 38  2  0  0  0  0
 39 43  1  6  0  0  0
 41 42  1  0  0  0  0
 41 39  1  0  0  0  0
 41 40  1  0  0  0  0
 42 40  1  0  0  0  0
 43 44  1  0  0  0  0
 44 45  1  0  0  0  0
 45 46  1  0  0  0  0
M  END
>  <MODEL>
7

>  <REMARK>
 VINA RESULT:      -6.3      3.466      9.283
  Name = 
  10 active torsions:
  status: ('A' for Active; 'I' for Inactive)
    1  A    between atoms: C_4  and  C_32
    2  A    between atoms: O_11  and  C_26
    3  A    between atoms: C_13  and  C_32
    4  A    between atoms: C_14  and  S_16
    5  A    between atoms: S_16  and  C_23
    6  A    between atoms: C_19  and  C_20
    7  A    between atoms: C_19  and  C_25
    8  A    between atoms: C_25  and  C_38
    9  A    between atoms: C_26  and  C_36
   10  A    between atoms: C_32  and  C_36
                            x       y       z     vdW  Elec       q    Type
                         _______ _______ _______ _____ _____    ______ ____

>  <TORSDO>
F 10

$$$$
=
 OpenBabel10222416203D

 46 48  0  0  1  0  0  0  0  0999 V2000
  188.5310  176.8940  144.0310 C   0  0  0  0  0  0  0  0  0  0  0  0
  181.8070  179.2970  140.9950 C   0  0  2  0  0  3  0  0  0  0  0  0
  183.7590  179.0030  145.5000 C   0  0  0  0  0  2  0  0  0  0  0  0
  180.4930  178.3140  142.7310 O   0  0  0  0  0  0  0  0  0  0  0  0
  182.6210  179.0510  143.3560 N   0  0  0  0  0  2  0  0  0  0  0  0
  188.8970  175.9330  143.0840 O   0  0  0  0  0  0  0  0  0  0  0  0
  186.4810  178.9650  145.6500 S   0  0  0  0  0  0  0  0  0  0  0  0
  182.5180  178.5860  144.7310 C   0  0  0  0  0  2  0  0  0  0  0  0
  188.1470  178.0670  141.3040 N   0  0  0  0  0  0  0  0  0  0  0  0
  187.5680  176.5440  145.0320 N   0  0  0  0  0  2  0  0  0  0  0  0
  189.0740  178.0340  144.0380 O   0  0  0  0  0  0  0  0  0  0  0  0
  187.2180  177.3760  146.1840 C   0  0  1  0  0  3  0  0  0  0  0  0
  186.0910  178.8740  138.5430 C   0  0  2  0  0  3  0  0  0  0  0  0
  181.1810  179.5550  138.2410 N   0  0  0  0  0  0  0  0  0  0  0  0
  189.5770  176.2070  141.8880 C   0  0  0  0  0  2  0  0  0  0  0  0
  181.5800  178.8590  142.4000 C   0  0  0  0  0  0  0  0  0  0  0  0
  187.6840  178.8930  140.3360 O   0  0  0  0  0  0  0  0  0  0  0  0
  184.9550  178.1800  145.0560 C   0  0  0  0  0  2  0  0  0  0  0  0
  186.5320  178.2620  139.8620 C   0  0  0  0  0  2  0  0  0  0  0  0
  182.2520  178.6280  138.6400 C   0  0  2  0  0  3  0  0  0  0  0  0
  184.7350  178.4420  138.2410 N   0  0  0  0  0  2  0  0  0  0  0  0
  180.4730  180.2380  139.0940 C   0  0  0  0  0  3  0  0  0  0  0  0
  180.6900  180.0990  140.5030 N   0  0  0  0  0  2  0  0  0  0  0  0
  189.2470  177.1930  141.0500 C   0  0  0  0  0  3  0  0  0  0  0  0
  182.0420  178.1090  140.0700 C   0  0  0  0  0  2  0  0  0  0  0  0
  183.6030  179.2670  138.5140 C   0  0  0  0  0  0  0  0  0  0  0  0
  183.7500  180.5040  138.7180 O   0  0  0  0  0  0  0  0  0  0  0  0
  188.3860  177.5460  147.1270 C   0  0  0  0  0  0  0  0  0  0  0  0
  187.9210  178.2800  149.5230 O   0  0  0  0  0  0  0  0  0  0  0  0
  188.1480  177.9240  148.3570 C   0  0  0  0  0  0  0  0  0  0  0  0
  189.7650  177.7970  146.5760 C   0  0  0  0  0  2  0  0  0  0  0  0
  191.6820  177.1910  148.0960 C   0  0  0  0  0  1  0  0  0  0  0  0
  191.6790  176.3790  145.7540 C   0  0  0  0  0  1  0  0  0  0  0  0
  190.1300  175.5890  147.3370 F   0  0  0  0  0  0  0  0  0  0  0  0
  190.8050  176.7290  146.9450 C   0  0  0  0  0  0  0  0  0  0  0  0
  187.2230  178.4160  137.1810 S   0  0  0  0  0  0  0  0  0  0  0  0
  186.8040  175.7460  136.8180 C   0  0  0  0  0  3  0  0  0  0  0  0
  186.2960  176.9670  136.6570 C   0  0  0  0  0  3  0  0  0  0  0  0
  186.0350  174.5320  136.3920 C   0  0  1  0  0  3  0  0  0  0  0  0
  187.8600  172.8010  136.8460 C   0  0  0  0  0  2  0  0  0  0  0  0
  186.4750  173.3020  137.2180 C   0  0  0  0  0  3  0  0  0  0  0  0
  186.6270  172.0450  136.3780 C   0  0  0  0  0  2  0  0  0  0  0  0
  184.5300  174.8270  136.3820 C   0  0  0  0  0  2  0  0  0  0  0  0
  183.8340  174.2240  137.5930 C   0  0  0  0  0  2  0  0  0  0  0  0
  183.1350  175.2070  138.2900 O   0  0  0  0  0  0  0  0  0  0  0  0
  181.8040  175.0180  137.9100 C   0  0  0  0  0  1  0  0  0  0  0  0
  1 11  2  0  0  0  0
  1 10  1  0  0  0  0
  2 25  1  6  0  0  0
  2 16  1  0  0  0  0
  5  8  1  0  0  0  0
  6  1  1  0  0  0  0
  7 12  1  0  0  0  0
  8  3  1  0  0  0  0
 10 12  1  0  0  0  0
 12 28  1  6  0  0  0
 13 36  1  6  0  0  0
 13 19  1  0  0  0  0
 14 20  1  0  0  0  0
 14 22  2  0  0  0  0
 15  6  1  0  0  0  0
 16  4  2  0  0  0  0
 16  5  1  0  0  0  0
 17  9  1  0  0  0  0
 18  3  1  0  0  0  0
 18  7  1  0  0  0  0
 19 17  1  0  0  0  0
 20 25  1  1  0  0  0
 21 26  1  0  0  0  0
 21 13  1  0  0  0  0
 22 23  1  0  0  0  0
 23  2  1  0  0  0  0
 24  9  2  0  0  0  0
 24 15  1  0  0  0  0
 26 20  1  0  0  0  0
 26 27  2  0  0  0  0
 28 30  2  0  0  0  0
 30 29  2  0  0  0  0
 31 35  1  0  0  0  0
 31 28  1  0  0  0  0
 33 35  1  0  0  0  0
 35 34  1  0  0  0  0
 35 32  1  0  0  0  0
 38 37  2  0  0  0  0
 38 36  1  0  0  0  0
 39 43  1  1  0  0  0
 39 37  1  0  0  0  0
 39 41  1  0  0  0  0
 40 41  1  0  0  0  0
 42 40  1  0  0  0  0
 42 41  1  0  0  0  0
 43 44  1  0  0  0  0
 44 45  1  0  0  0  0
 46 45  1  0  0  0  0
M  END
>  <MODEL>
8

>  <REMARK>
 VINA RESULT:      -6.3      3.493      9.353
  Name = 
  10 active torsions:
  status: ('A' for Active; 'I' for Inactive)
    1  A    between atoms: C_4  and  C_32
    2  A    between atoms: O_11  and  C_26
    3  A    between atoms: C_13  and  C_32
    4  A    between atoms: C_14  and  S_16
    5  A    between atoms: S_16  and  C_23
    6  A    between atoms: C_19  and  C_20
    7  A    between atoms: C_19  and  C_25
    8  A    between atoms: C_25  and  C_38
    9  A    between atoms: C_26  and  C_36
   10  A    between atoms: C_32  and  C_36
                            x       y       z     vdW  Elec       q    Type
                         _______ _______ _______ _____ _____    ______ ____

>  <TORSDO>
F 10

$$$$
=
 OpenBabel10222416203D

 46 48  0  0  1  0  0  0  0  0999 V2000
  185.3210  178.9870  138.1910 C   0  0  0  0  0  0  0  0  0  0  0  0
  188.7740  177.5350  144.9850 C   0  0  2  0  0  3  0  0  0  0  0  0
  184.1500  178.1010  143.4070 C   0  0  0  0  0  2  0  0  0  0  0  0
  187.3380  179.0030  146.2060 O   0  0  0  0  0  0  0  0  0  0  0  0
  186.3860  177.9620  144.3430 N   0  0  0  0  0  2  0  0  0  0  0  0
  186.3340  179.7070  137.5500 O   0  0  0  0  0  0  0  0  0  0  0  0
  183.6970  177.6230  140.7620 S   0  0  0  0  0  0  0  0  0  0  0  0
  185.1020  178.6360  144.4620 C   0  0  0  0  0  2  0  0  0  0  0  0
  187.9020  177.5240  138.5790 N   0  0  0  0  0  2  0  0  0  0  0  0
  184.4890  179.6640  139.1400 N   0  0  0  0  0  2  0  0  0  0  0  0
  185.1070  177.7760  137.9030 O   0  0  0  0  0  0  0  0  0  0  0  0
  183.2870  179.0960  139.7550 C   0  0  1  0  0  3  0  0  0  0  0  0
  190.7550  176.7390  140.5140 C   0  0  2  0  0  3  0  0  0  0  0  0
  191.5260  177.0020  145.4140 N   0  0  0  0  0  0  0  0  0  0  0  0
  187.4000  179.1310  136.8440 C   0  0  0  0  0  3  0  0  0  0  0  0
  187.4710  178.2120  145.2350 C   0  0  0  0  0  0  0  0  0  0  0  0
  188.8050  176.6710  139.1210 O   0  0  0  0  0  0  0  0  0  0  0  0
  184.5550  178.5970  142.0320 C   0  0  0  0  0  2  0  0  0  0  0  0
  189.4830  177.4410  140.0690 C   0  0  0  0  0  2  0  0  0  0  0  0
  191.1280  177.7480  144.2100 C   0  0  2  0  0  3  0  0  0  0  0  0
  191.2620  177.3810  141.7180 N   0  0  0  0  0  2  0  0  0  0  0  0
  190.6800  176.6050  146.3210 C   0  0  0  0  0  3  0  0  0  0  0  0
  189.2840  176.9060  146.2010 N   0  0  0  0  0  2  0  0  0  0  0  0
  188.1380  178.1160  137.3010 C   0  0  0  0  0  3  0  0  0  0  0  0
  189.8100  178.5030  144.4260 C   0  0  0  0  0  2  0  0  0  0  0  0
  191.0170  176.8450  143.0180 C   0  0  0  0  0  0  0  0  0  0  0  0
  190.6430  175.6460  143.1530 O   0  0  0  0  0  0  0  0  0  0  0  0
  182.2040  178.8400  138.7340 C   0  0  0  0  0  0  0  0  0  0  0  0
  181.2490  180.8240  137.4490 O   0  0  0  0  0  0  0  0  0  0  0  0
  181.7130  179.8590  138.0750 C   0  0  0  0  0  0  0  0  0  0  0  0
  181.3560  177.6000  138.8330 C   0  0  0  0  0  2  0  0  0  0  0  0
  180.1580  176.2940  137.0400 C   0  0  0  0  0  1  0  0  0  0  0  0
  182.1930  175.3430  138.0880 C   0  0  0  0  0  1  0  0  0  0  0  0
  182.2910  177.2330  136.6930 F   0  0  0  0  0  0  0  0  0  0  0  0
  181.5070  176.6260  137.6560 C   0  0  0  0  0  0  0  0  0  0  0  0
  192.0260  176.7590  139.2000 S   0  0  0  0  0  0  0  0  0  0  0  0
  191.2520  175.3350  137.0070 C   0  0  0  0  0  3  0  0  0  0  0  0
  191.4070  175.3130  138.3290 C   0  0  0  0  0  3  0  0  0  0  0  0
  190.7450  174.1320  136.2720 C   0  0  1  0  0  3  0  0  0  0  0  0
  188.2070  174.1710  136.5750 C   0  0  0  0  0  2  0  0  0  0  0  0
  189.3690  174.4340  135.6330 C   0  0  0  0  0  3  0  0  0  0  0  0
  188.5120  173.1930  135.4520 C   0  0  0  0  0  2  0  0  0  0  0  0
  191.8190  173.5920  135.3210 C   0  0  0  0  0  2  0  0  0  0  0  0
  192.8980  172.8260  136.0700 C   0  0  0  0  0  2  0  0  0  0  0  0
  194.1100  173.5100  136.0100 O   0  0  0  0  0  0  0  0  0  0  0  0
  195.0040  172.6870  136.6980 C   0  0  0  0  0  1  0  0  0  0  0  0
  1 10  1  0  0  0  0
  2 25  1  1  0  0  0
  2 16  1  0  0  0  0
  2 23  1  0  0  0  0
  3  8  1  0  0  0  0
  5  8  1  0  0  0  0
  5 16  1  0  0  0  0
  6  1  1  0  0  0  0
  7 18  1  0  0  0  0
  9 17  1  0  0  0  0
 10 12  1  0  0  0  0
 11  1  2  0  0  0  0
 12 28  1  6  0  0  0
 12  7  1  0  0  0  0
 13 36  1  6  0  0  0
 13 21  1  0  0  0  0
 14 22  2  0  0  0  0
 15 24  2  0  0  0  0
 15  6  1  0  0  0  0
 16  4  2  0  0  0  0
 17 19  1  0  0  0  0
 18  3  1  0  0  0  0
 19 13  1  0  0  0  0
 20 25  1  1  0  0  0
 20 14  1  0  0  0  0
 21 26  1  0  0  0  0
 23 22  1  0  0  0  0
 24  9  1  0  0  0  0
 26 27  2  0  0  0  0
 26 20  1  0  0  0  0
 28 31  1  0  0  0  0
 29 30  2  0  0  0  0
 30 28  2  0  0  0  0
 32 35  1  0  0  0  0
 34 35  1  0  0  0  0
 35 33  1  0  0  0  0
 35 31  1  0  0  0  0
 37 38  2  0  0  0  0
 38 36  1  0  0  0  0
 39 43  1  6  0  0  0
 39 37  1  0  0  0  0
 41 39  1  0  0  0  0
 41 40  1  0  0  0  0
 42 41  1  0  0  0  0
 42 40  1  0  0  0  0
 43 44  1  0  0  0  0
 45 44  1  0  0  0  0
 45 46  1  0  0  0  0
M  END
>  <MODEL>
9

>  <REMARK>
 VINA RESULT:      -6.1      2.847      7.568
  Name = 
  10 active torsions:
  status: ('A' for Active; 'I' for Inactive)
    1  A    between atoms: C_4  and  C_32
    2  A    between atoms: O_11  and  C_26
    3  A    between atoms: C_13  and  C_32
    4  A    between atoms: C_14  and  S_16
    5  A    between atoms: S_16  and  C_23
    6  A    between atoms: C_19  and  C_20
    7  A    between atoms: C_19  and  C_25
    8  A    between atoms: C_25  and  C_38
    9  A    between atoms: C_26  and  C_36
   10  A    between atoms: C_32  and  C_36
                            x       y       z     vdW  Elec       q    Type
                         _______ _______ _______ _____ _____    ______ ____

>  <TORSDO>
F 10

$$$$
