=
 OpenBabel10222418533D

 33 37  0  0  1  0  0  0  0  0999 V2000
  185.3660  178.0770  143.2410 C   0  0  0  0  0  0  0  0  0  0  0  0
  187.4310  178.2600  147.6620 N   0  0  0  0  0  0  0  0  0  0  0  0
  187.7590  177.1280  143.5380 C   0  0  2  0  0  0  0  0  0  0  0  0
  186.6430  177.6150  142.8790 N   0  0  0  0  0  0  0  0  0  0  0  0
  188.0830  178.0040  142.5230 C   0  0  0  0  0  0  0  0  0  0  0  0
  183.9850  178.8030  145.0800 C   0  0  0  0  0  3  0  0  0  0  0  0
  187.9470  175.7710  143.2730 O   0  0  0  0  0  1  0  0  0  0  0  0
  184.3290  178.2890  142.3350 C   0  0  0  0  0  3  0  0  0  0  0  0
  188.7200  177.3940  145.8460 C   0  0  0  0  0  3  0  0  0  0  0  0
  187.6320  177.5600  144.9880 C   0  0  0  0  0  0  0  0  0  0  0  0
  188.5990  177.7540  147.1890 C   0  0  0  0  0  3  0  0  0  0  0  0
  182.9300  179.0180  144.1820 C   0  0  0  0  0  3  0  0  0  0  0  0
  185.2170  178.3290  144.6090 C   0  0  0  0  0  0  0  0  0  0  0  0
  188.9130  178.6880  141.8710 O   0  0  0  0  0  0  0  0  0  0  0  0
  183.0980  178.7690  142.8120 C   0  0  0  0  0  0  0  0  0  0  0  0
  186.3470  178.4380  146.8600 C   0  0  0  0  0  3  0  0  0  0  0  0
  186.4050  178.0980  145.5030 C   0  0  0  0  0  0  0  0  0  0  0  0
  181.9510  179.0110  141.8750 C   0  0  1  0  0  3  0  0  0  0  0  0
  182.1990  179.1610  139.3130 C   0  0  0  0  0  0  0  0  0  0  0  0
  182.2410  178.4470  140.5620 N   0  0  0  0  0  2  0  0  0  0  0  0
  181.4130  180.1770  139.1100 N   0  0  0  0  0  0  0  0  0  0  0  0
  183.0220  178.7170  138.2340 N   0  0  0  0  0  2  0  0  0  0  0  0
  179.6480  181.8070  139.4000 C   0  0  0  0  0  2  0  0  0  0  0  0
  180.4620  180.7180  140.0690 C   0  0  0  0  0  3  0  0  0  0  0  0
  179.0550  180.4290  139.5880 C   0  0  0  0  0  2  0  0  0  0  0  0
  183.9300  177.5900  138.3700 C   0  0  0  0  0  2  0  0  0  0  0  0
  185.6670  178.9920  139.1040 O   0  0  0  0  0  0  0  0  0  0  0  0
  185.3380  178.0770  138.3660 C   0  0  0  0  0  0  0  0  0  0  0  0
  186.3420  177.4370  137.4650 C   0  0  0  0  0  2  0  0  0  0  0  0
  187.0990  178.4940  136.6850 C   0  0  0  0  0  1  0  0  0  0  0  0
  180.6670  178.4020  142.4160 C   0  0  0  0  0  2  0  0  0  0  0  0
  179.2410  178.8780  144.3810 C   0  0  0  0  0  1  0  0  0  0  0  0
  179.8290  179.4560  143.1120 C   0  0  0  0  0  2  0  0  0  0  0  0
  1 13  1  0  0  0  0
  3  7  1  6  0  0  0
  3 10  1  0  0  0  0
  4  1  1  0  0  0  0
  4  3  1  0  0  0  0
  5  4  1  0  0  0  0
  5  3  1  0  0  0  0
  8 15  1  0  0  0  0
  8  1  2  0  0  0  0
  9 11  2  0  0  0  0
 10 17  2  0  0  0  0
 10  9  1  0  0  0  0
 11  2  1  0  0  0  0
 12  6  1  0  0  0  0
 13  6  2  0  0  0  0
 13 17  1  0  0  0  0
 14  5  2  0  0  0  0
 15 12  2  0  0  0  0
 16  2  2  0  0  0  0
 17 16  1  0  0  0  0
 18 31  1  1  0  0  0
 18 15  1  0  0  0  0
 19 20  1  0  0  0  0
 20 18  1  0  0  0  0
 21 19  2  0  0  0  0
 21 24  1  0  0  0  0
 22 26  1  0  0  0  0
 22 19  1  0  0  0  0
 23 25  1  0  0  0  0
 23 24  1  0  0  0  0
 25 24  1  0  0  0  0
 28 26  1  0  0  0  0
 28 27  2  0  0  0  0
 29 28  1  0  0  0  0
 30 29  1  0  0  0  0
 31 33  1  0  0  0  0
 33 32  1  0  0  0  0
M  END
>  <MODEL>
1

>  <REMARK>
 VINA RESULT:      -8.7      0.000      0.000
  Name = 
  8 active torsions:
  status: ('A' for Active; 'I' for Inactive)
    1  A    between atoms: C_2  and  C_10
    2  A    between atoms: C_2  and  C_30
    3  A    between atoms: N_5  and  C_30
    4  A    between atoms: N_8  and  C_20
    5  A    between atoms: N_13  and  C_14
    6  A    between atoms: C_14  and  C_19
    7  A    between atoms: C_19  and  C_27
    8  A    between atoms: C_29  and  C_30
                            x       y       z     vdW  Elec       q    Type
                         _______ _______ _______ _____ _____    ______ ____

>  <TORSDO>
F 8

$$$$
=
 OpenBabel10222418533D

 33 37  0  0  1  0  0  0  0  0999 V2000
  186.9110  177.9690  143.4800 C   0  0  0  0  0  0  0  0  0  0  0  0
  187.6560  178.0430  148.3050 N   0  0  0  0  0  0  0  0  0  0  0  0
  189.2350  177.2710  144.3920 C   0  0  2  0  0  0  0  0  0  0  0  0
  188.2870  177.6800  143.4680 N   0  0  0  0  0  0  0  0  0  0  0  0
  189.7080  178.2530  143.5460 C   0  0  0  0  0  0  0  0  0  0  0  0
  185.0020  178.3950  144.8890 C   0  0  0  0  0  3  0  0  0  0  0  0
  189.6600  175.9680  144.1330 O   0  0  0  0  0  1  0  0  0  0  0  0
  186.1420  178.1330  142.3300 C   0  0  0  0  0  3  0  0  0  0  0  0
  189.4900  177.4670  146.8850 C   0  0  0  0  0  3  0  0  0  0  0  0
  188.6640  177.5760  145.7660 C   0  0  0  0  0  0  0  0  0  0  0  0
  188.9640  177.7080  148.1550 C   0  0  0  0  0  3  0  0  0  0  0  0
  184.2130  178.5590  143.7430 C   0  0  0  0  0  3  0  0  0  0  0  0
  186.3660  178.0980  144.7610 C   0  0  0  0  0  0  0  0  0  0  0  0
  190.5890  179.0730  143.1810 O   0  0  0  0  0  0  0  0  0  0  0  0
  184.7770  178.4350  142.4640 C   0  0  0  0  0  0  0  0  0  0  0  0
  186.8180  178.1600  147.2400 C   0  0  0  0  0  3  0  0  0  0  0  0
  187.2850  177.9330  145.9400 C   0  0  0  0  0  0  0  0  0  0  0  0
  183.9070  178.6200  141.2560 C   0  0  1  0  0  3  0  0  0  0  0  0
  184.8860  179.1150  138.9230 C   0  0  0  0  0  0  0  0  0  0  0  0
  184.6340  178.2520  140.0470 N   0  0  0  0  0  2  0  0  0  0  0  0
  184.0880  180.0880  138.5900 N   0  0  0  0  0  0  0  0  0  0  0  0
  186.0350  178.8760  138.1110 N   0  0  0  0  0  2  0  0  0  0  0  0
  182.1270  181.4990  138.4590 C   0  0  0  0  0  2  0  0  0  0  0  0
  182.8420  180.4280  139.2590 C   0  0  0  0  0  3  0  0  0  0  0  0
  181.6810  180.0580  138.3590 C   0  0  0  0  0  2  0  0  0  0  0  0
  186.9810  177.8120  138.4070 C   0  0  0  0  0  2  0  0  0  0  0  0
  188.8000  179.2510  138.0280 O   0  0  0  0  0  0  0  0  0  0  0  0
  188.3060  178.4000  138.7500 C   0  0  0  0  0  0  0  0  0  0  0  0
  189.0210  177.9510  139.9820 C   0  0  0  0  0  2  0  0  0  0  0  0
  190.3150  177.2500  139.6140 C   0  0  0  0  0  1  0  0  0  0  0  0
  182.6420  177.7810  141.3610 C   0  0  0  0  0  2  0  0  0  0  0  0
  180.1940  178.1020  141.1970 C   0  0  0  0  0  1  0  0  0  0  0  0
  181.4720  178.6350  141.8080 C   0  0  0  0  0  2  0  0  0  0  0  0
  1 13  1  0  0  0  0
  3  7  1  6  0  0  0
  3 10  1  0  0  0  0
  4  1  1  0  0  0  0
  4  5  1  0  0  0  0
  4  3  1  0  0  0  0
  5  3  1  0  0  0  0
  8 15  1  0  0  0  0
  8  1  2  0  0  0  0
  9 11  2  0  0  0  0
 10 17  2  0  0  0  0
 10  9  1  0  0  0  0
 11  2  1  0  0  0  0
 12  6  1  0  0  0  0
 13  6  2  0  0  0  0
 13 17  1  0  0  0  0
 14  5  2  0  0  0  0
 15 12  2  0  0  0  0
 16  2  2  0  0  0  0
 17 16  1  0  0  0  0
 18 31  1  1  0  0  0
 18 15  1  0  0  0  0
 19 20  1  0  0  0  0
 20 18  1  0  0  0  0
 21 19  2  0  0  0  0
 21 24  1  0  0  0  0
 22 26  1  0  0  0  0
 22 19  1  0  0  0  0
 23 24  1  0  0  0  0
 25 23  1  0  0  0  0
 25 24  1  0  0  0  0
 26 28  1  0  0  0  0
 27 28  2  0  0  0  0
 28 29  1  0  0  0  0
 30 29  1  0  0  0  0
 31 33  1  0  0  0  0
 32 33  1  0  0  0  0
M  END
>  <MODEL>
2

>  <REMARK>
 VINA RESULT:      -8.5      1.776      2.337
  Name = 
  8 active torsions:
  status: ('A' for Active; 'I' for Inactive)
    1  A    between atoms: C_2  and  C_10
    2  A    between atoms: C_2  and  C_30
    3  A    between atoms: N_5  and  C_30
    4  A    between atoms: N_8  and  C_20
    5  A    between atoms: N_13  and  C_14
    6  A    between atoms: C_14  and  C_19
    7  A    between atoms: C_19  and  C_27
    8  A    between atoms: C_29  and  C_30
                            x       y       z     vdW  Elec       q    Type
                         _______ _______ _______ _____ _____    ______ ____

>  <TORSDO>
F 8

$$$$
=
 OpenBabel10222418533D

 33 37  0  0  1  0  0  0  0  0999 V2000
  185.2880  178.0500  143.1080 C   0  0  0  0  0  0  0  0  0  0  0  0
  187.2500  178.2930  147.5730 N   0  0  0  0  0  0  0  0  0  0  0  0
  187.6870  177.1380  143.4650 C   0  0  2  0  0  0  0  0  0  0  0  0
  186.5790  177.6040  142.7770 N   0  0  0  0  0  0  0  0  0  0  0  0
  188.0220  178.0120  142.4520 C   0  0  0  0  0  0  0  0  0  0  0  0
  183.8560  178.7680  144.9110 C   0  0  0  0  0  3  0  0  0  0  0  0
  187.9010  175.7830  143.2140 O   0  0  0  0  0  1  0  0  0  0  0  0
  184.2690  178.2410  142.1780 C   0  0  0  0  0  3  0  0  0  0  0  0
  188.5920  177.4340  145.7920 C   0  0  0  0  0  3  0  0  0  0  0  0
  187.5220  177.5780  144.9090 C   0  0  0  0  0  0  0  0  0  0  0  0
  188.4360  177.8010  147.1290 C   0  0  0  0  0  3  0  0  0  0  0  0
  182.8190  178.9620  143.9880 C   0  0  0  0  0  3  0  0  0  0  0  0
  185.1050  178.3090  144.4700 C   0  0  0  0  0  0  0  0  0  0  0  0
  188.8560  178.7040  141.8140 O   0  0  0  0  0  0  0  0  0  0  0  0
  183.0210  178.7060  142.6230 C   0  0  0  0  0  0  0  0  0  0  0  0
  186.1830  178.4490  146.7450 C   0  0  0  0  0  3  0  0  0  0  0  0
  186.2750  178.1020  145.3920 C   0  0  0  0  0  0  0  0  0  0  0  0
  181.8920  178.9260  141.6600 C   0  0  1  0  0  3  0  0  0  0  0  0
  182.3020  178.1830  139.2250 C   0  0  0  0  0  0  0  0  0  0  0  0
  181.9350  177.9320  140.5940 N   0  0  0  0  0  2  0  0  0  0  0  0
  182.1150  179.3340  138.6470 N   0  0  0  0  0  0  0  0  0  0  0  0
  182.8580  177.1210  138.4510 N   0  0  0  0  0  2  0  0  0  0  0  0
  181.7610  181.7140  138.3910 C   0  0  0  0  0  2  0  0  0  0  0  0
  181.4990  180.5000  139.2600 C   0  0  0  0  0  3  0  0  0  0  0  0
  180.4150  181.0280  138.3420 C   0  0  0  0  0  2  0  0  0  0  0  0
  183.1020  175.8030  139.0130 C   0  0  0  0  0  2  0  0  0  0  0  0
  182.2560  174.4590  137.2800 O   0  0  0  0  0  0  0  0  0  0  0  0
  183.2400  174.8060  137.9150 C   0  0  0  0  0  0  0  0  0  0  0  0
  184.5830  174.2410  137.5880 C   0  0  0  0  0  2  0  0  0  0  0  0
  184.5300  172.7260  137.5790 C   0  0  0  0  0  1  0  0  0  0  0  0
  180.5480  178.8500  142.3680 C   0  0  0  0  0  2  0  0  0  0  0  0
  178.9310  180.6210  141.7580 C   0  0  0  0  0  1  0  0  0  0  0  0
  180.0470  180.2400  142.7070 C   0  0  0  0  0  2  0  0  0  0  0  0
  1 13  1  0  0  0  0
  3  7  1  6  0  0  0
  3 10  1  0  0  0  0
  4  1  1  0  0  0  0
  4  3  1  0  0  0  0
  5  4  1  0  0  0  0
  5  3  1  0  0  0  0
  8 15  1  0  0  0  0
  8  1  2  0  0  0  0
  9 11  2  0  0  0  0
 10 17  2  0  0  0  0
 10  9  1  0  0  0  0
 11  2  1  0  0  0  0
 12  6  1  0  0  0  0
 13  6  2  0  0  0  0
 13 17  1  0  0  0  0
 14  5  2  0  0  0  0
 15 12  2  0  0  0  0
 16  2  2  0  0  0  0
 17 16  1  0  0  0  0
 18 31  1  1  0  0  0
 18 15  1  0  0  0  0
 19 20  1  0  0  0  0
 20 18  1  0  0  0  0
 21 19  2  0  0  0  0
 21 24  1  0  0  0  0
 22 26  1  0  0  0  0
 22 19  1  0  0  0  0
 23 24  1  0  0  0  0
 25 23  1  0  0  0  0
 25 24  1  0  0  0  0
 27 28  2  0  0  0  0
 28 26  1  0  0  0  0
 29 28  1  0  0  0  0
 30 29  1  0  0  0  0
 31 33  1  0  0  0  0
 32 33  1  0  0  0  0
M  END
>  <MODEL>
3

>  <REMARK>
 VINA RESULT:      -8.3      1.789      2.038
  Name = 
  8 active torsions:
  status: ('A' for Active; 'I' for Inactive)
    1  A    between atoms: C_2  and  C_10
    2  A    between atoms: C_2  and  C_30
    3  A    between atoms: N_5  and  C_30
    4  A    between atoms: N_8  and  C_20
    5  A    between atoms: N_13  and  C_14
    6  A    between atoms: C_14  and  C_19
    7  A    between atoms: C_19  and  C_27
    8  A    between atoms: C_29  and  C_30
                            x       y       z     vdW  Elec       q    Type
                         _______ _______ _______ _____ _____    ______ ____

>  <TORSDO>
F 8

$$$$
=
 OpenBabel10222418533D

 33 37  0  0  1  0  0  0  0  0999 V2000
  189.2240  177.7470  142.7060 C   0  0  0  0  0  0  0  0  0  0  0  0
  187.2470  177.7950  147.1700 N   0  0  0  0  0  0  0  0  0  0  0  0
  190.7620  177.3480  144.7530 C   0  0  2  0  0  0  0  0  0  0  0  0
  190.4150  177.6490  143.4470 N   0  0  0  0  0  0  0  0  0  0  0  0
  191.4840  178.4070  144.2430 C   0  0  0  0  0  0  0  0  0  0  0  0
  186.8200  177.8720  142.8520 C   0  0  0  0  0  3  0  0  0  0  0  0
  191.4240  176.1230  144.8290 O   0  0  0  0  0  1  0  0  0  0  0  0
  189.1780  177.8350  141.3170 C   0  0  0  0  0  3  0  0  0  0  0  0
  189.6120  177.5110  146.9830 C   0  0  0  0  0  3  0  0  0  0  0  0
  189.5100  177.5360  145.5920 C   0  0  0  0  0  0  0  0  0  0  0  0
  188.4610  177.6450  147.7610 C   0  0  0  0  0  3  0  0  0  0  0  0
  186.7560  177.9570  141.4540 C   0  0  0  0  0  3  0  0  0  0  0  0
  188.0650  177.7660  143.4880 C   0  0  0  0  0  0  0  0  0  0  0  0
  192.3090  179.3490  144.3640 O   0  0  0  0  0  0  0  0  0  0  0  0
  187.9290  177.9450  140.6840 C   0  0  0  0  0  0  0  0  0  0  0  0
  187.1040  177.8250  145.8190 C   0  0  0  0  0  3  0  0  0  0  0  0
  188.2200  177.6970  144.9830 C   0  0  0  0  0  0  0  0  0  0  0  0
  187.8270  178.0410  139.1910 C   0  0  1  0  0  3  0  0  0  0  0  0
  185.4600  177.9230  138.1730 C   0  0  0  0  0  0  0  0  0  0  0  0
  186.5470  178.6240  138.8060 N   0  0  0  0  0  2  0  0  0  0  0  0
  185.6440  176.8960  137.3960 N   0  0  0  0  0  0  0  0  0  0  0  0
  184.1270  178.3920  138.3700 N   0  0  0  0  0  2  0  0  0  0  0  0
  186.8310  174.8180  137.0350 C   0  0  0  0  0  2  0  0  0  0  0  0
  186.9340  176.3300  137.0300 C   0  0  0  0  0  3  0  0  0  0  0  0
  186.7890  175.5730  135.7260 C   0  0  0  0  0  2  0  0  0  0  0  0
  183.8270  179.5310  139.2210 C   0  0  0  0  0  2  0  0  0  0  0  0
  181.5410  180.0320  139.4320 O   0  0  0  0  0  0  0  0  0  0  0  0
  182.4790  179.3610  139.8320 C   0  0  0  0  0  0  0  0  0  0  0  0
  182.2800  178.3640  140.9250 C   0  0  0  0  0  2  0  0  0  0  0  0
  183.2140  178.6570  142.0830 C   0  0  0  0  0  1  0  0  0  0  0  0
  188.9580  178.8830  138.6200 C   0  0  0  0  0  2  0  0  0  0  0  0
  190.4480  177.0860  137.8000 C   0  0  0  0  0  1  0  0  0  0  0  0
  189.5410  178.2240  137.3850 C   0  0  0  0  0  2  0  0  0  0  0  0
  1  4  1  0  0  0  0
  1 13  1  0  0  0  0
  2 11  1  0  0  0  0
  3  7  1  1  0  0  0
  3 10  1  0  0  0  0
  4  5  1  0  0  0  0
  4  3  1  0  0  0  0
  5 14  2  0  0  0  0
  5  3  1  0  0  0  0
  6 13  2  0  0  0  0
  8  1  2  0  0  0  0
  9 11  2  0  0  0  0
 10  9  1  0  0  0  0
 12  6  1  0  0  0  0
 13 17  1  0  0  0  0
 15  8  1  0  0  0  0
 15 12  2  0  0  0  0
 16  2  2  0  0  0  0
 17 10  2  0  0  0  0
 17 16  1  0  0  0  0
 18 31  1  1  0  0  0
 18 15  1  0  0  0  0
 19 22  1  0  0  0  0
 19 20  1  0  0  0  0
 20 18  1  0  0  0  0
 21 19  2  0  0  0  0
 22 26  1  0  0  0  0
 24 23  1  0  0  0  0
 24 21  1  0  0  0  0
 25 24  1  0  0  0  0
 25 23  1  0  0  0  0
 26 28  1  0  0  0  0
 27 28  2  0  0  0  0
 28 29  1  0  0  0  0
 29 30  1  0  0  0  0
 33 32  1  0  0  0  0
 33 31  1  0  0  0  0
M  END
>  <MODEL>
4

>  <REMARK>
 VINA RESULT:      -8.1      2.450      5.717
  Name = 
  8 active torsions:
  status: ('A' for Active; 'I' for Inactive)
    1  A    between atoms: C_2  and  C_10
    2  A    between atoms: C_2  and  C_30
    3  A    between atoms: N_5  and  C_30
    4  A    between atoms: N_8  and  C_20
    5  A    between atoms: N_13  and  C_14
    6  A    between atoms: C_14  and  C_19
    7  A    between atoms: C_19  and  C_27
    8  A    between atoms: C_29  and  C_30
                            x       y       z     vdW  Elec       q    Type
                         _______ _______ _______ _____ _____    ______ ____

>  <TORSDO>
F 8

$$$$
=
 OpenBabel10222418533D

 33 37  0  0  1  0  0  0  0  0999 V2000
  184.5740  178.1780  142.0060 C   0  0  0  0  0  0  0  0  0  0  0  0
  180.1640  179.2200  143.8250 N   0  0  0  0  0  0  0  0  0  0  0  0
  182.6160  178.5950  140.3610 C   0  0  2  0  0  0  0  0  0  0  0  0
  183.8570  178.1630  140.7970 N   0  0  0  0  0  0  0  0  0  0  0  0
  182.9470  177.3510  139.8670 C   0  0  0  0  0  0  0  0  0  0  0  0
  184.4130  178.5400  144.3850 C   0  0  0  0  0  3  0  0  0  0  0  0
  182.7380  179.6680  139.4770 O   0  0  0  0  0  1  0  0  0  0  0  0
  185.9310  177.8810  142.1090 C   0  0  0  0  0  3  0  0  0  0  0  0
  180.3900  179.0120  141.4540 C   0  0  0  0  0  3  0  0  0  0  0  0
  181.7600  178.7860  141.6000 C   0  0  0  0  0  0  0  0  0  0  0  0
  179.6030  179.2270  142.5870 C   0  0  0  0  0  3  0  0  0  0  0  0
  185.7790  178.2480  144.5050 C   0  0  0  0  0  3  0  0  0  0  0  0
  183.8010  178.5060  143.1240 C   0  0  0  0  0  0  0  0  0  0  0  0
  182.6730  176.3000  139.2320 O   0  0  0  0  0  0  0  0  0  0  0  0
  186.5390  177.9130  143.3750 C   0  0  0  0  0  0  0  0  0  0  0  0
  181.4930  179.0040  144.0100 C   0  0  0  0  0  3  0  0  0  0  0  0
  182.3370  178.7800  142.9150 C   0  0  0  0  0  0  0  0  0  0  0  0
  187.9980  177.6020  143.5360 C   0  0  1  0  0  3  0  0  0  0  0  0
  189.7320  177.3050  141.6520 C   0  0  0  0  0  0  0  0  0  0  0  0
  188.7460  178.0650  142.3740 N   0  0  0  0  0  2  0  0  0  0  0  0
  190.4590  176.3830  142.2130 N   0  0  0  0  0  0  0  0  0  0  0  0
  189.9560  177.5950  140.2720 N   0  0  0  0  0  2  0  0  0  0  0  0
  191.6800  175.2510  143.9690 C   0  0  0  0  0  2  0  0  0  0  0  0
  190.4150  176.0080  143.6180 C   0  0  0  0  0  3  0  0  0  0  0  0
  191.5410  176.7060  144.3530 C   0  0  0  0  0  2  0  0  0  0  0  0
  189.1910  178.6080  139.5630 C   0  0  0  0  0  2  0  0  0  0  0  0
  186.9820  178.3730  138.7990 O   0  0  0  0  0  0  0  0  0  0  0  0
  188.1280  177.9550  138.7490 C   0  0  0  0  0  0  0  0  0  0  0  0
  188.4700  176.7980  137.8700 C   0  0  0  0  0  2  0  0  0  0  0  0
  189.2800  177.2660  136.6760 C   0  0  0  0  0  1  0  0  0  0  0  0
  188.5580  178.2530  144.7920 C   0  0  0  0  0  2  0  0  0  0  0  0
  189.3100  177.6100  147.0600 C   0  0  0  0  0  1  0  0  0  0  0  0
  188.2320  177.4190  146.0150 C   0  0  0  0  0  2  0  0  0  0  0  0
  1  8  2  0  0  0  0
  1 13  1  0  0  0  0
  2 16  1  0  0  0  0
  3  7  1  6  0  0  0
  3  4  1  0  0  0  0
  3 10  1  0  0  0  0
  4  1  1  0  0  0  0
  5  3  1  0  0  0  0
  5  4  1  0  0  0  0
  6 12  1  0  0  0  0
  8 15  1  0  0  0  0
  9 10  2  0  0  0  0
  9 11  1  0  0  0  0
 10 17  1  0  0  0  0
 11  2  2  0  0  0  0
 13  6  2  0  0  0  0
 14  5  2  0  0  0  0
 15 18  1  0  0  0  0
 15 12  2  0  0  0  0
 17 13  1  0  0  0  0
 17 16  2  0  0  0  0
 18 31  1  1  0  0  0
 19 21  2  0  0  0  0
 19 20  1  0  0  0  0
 20 18  1  0  0  0  0
 21 24  1  0  0  0  0
 22 19  1  0  0  0  0
 23 25  1  0  0  0  0
 24 23  1  0  0  0  0
 24 25  1  0  0  0  0
 26 22  1  0  0  0  0
 28 27  2  0  0  0  0
 28 26  1  0  0  0  0
 29 28  1  0  0  0  0
 30 29  1  0  0  0  0
 31 33  1  0  0  0  0
 33 32  1  0  0  0  0
M  END
>  <MODEL>
5

>  <REMARK>
 VINA RESULT:      -7.7      2.271      7.286
  Name = 
  8 active torsions:
  status: ('A' for Active; 'I' for Inactive)
    1  A    between atoms: C_2  and  C_10
    2  A    between atoms: C_2  and  C_30
    3  A    between atoms: N_5  and  C_30
    4  A    between atoms: N_8  and  C_20
    5  A    between atoms: N_13  and  C_14
    6  A    between atoms: C_14  and  C_19
    7  A    between atoms: C_19  and  C_27
    8  A    between atoms: C_29  and  C_30
                            x       y       z     vdW  Elec       q    Type
                         _______ _______ _______ _____ _____    ______ ____

>  <TORSDO>
F 8

$$$$
=
 OpenBabel10222418533D

 33 37  0  0  1  0  0  0  0  0999 V2000
  190.1100  177.4900  141.9180 C   0  0  0  0  0  0  0  0  0  0  0  0
  186.7320  177.6400  145.4420 N   0  0  0  0  0  0  0  0  0  0  0  0
  190.8720  177.2580  144.3850 C   0  0  2  0  0  0  0  0  0  0  0  0
  190.9800  177.4830  143.0230 N   0  0  0  0  0  0  0  0  0  0  0  0
  191.6920  178.3260  144.0870 C   0  0  0  0  0  0  0  0  0  0  0  0
  187.7970  177.5040  141.2370 C   0  0  0  0  0  3  0  0  0  0  0  0
  191.5060  176.0700  144.7500 O   0  0  0  0  0  1  0  0  0  0  0  0
  190.5360  177.5140  140.5930 C   0  0  0  0  0  3  0  0  0  0  0  0
  189.0280  177.4630  146.0820 C   0  0  0  0  0  3  0  0  0  0  0  0
  189.4040  177.4210  144.7380 C   0  0  0  0  0  0  0  0  0  0  0  0
  187.6780  177.5750  146.4150 C   0  0  0  0  0  3  0  0  0  0  0  0
  188.2090  177.5240  139.8970 C   0  0  0  0  0  3  0  0  0  0  0  0
  188.7540  177.4880  142.2610 C   0  0  0  0  0  0  0  0  0  0  0  0
  192.3970  179.3120  144.4250 O   0  0  0  0  0  0  0  0  0  0  0  0
  189.5730  177.5350  139.5700 C   0  0  0  0  0  0  0  0  0  0  0  0
  187.0570  177.6020  144.1220 C   0  0  0  0  0  3  0  0  0  0  0  0
  188.3940  177.4930  143.7210 C   0  0  0  0  0  0  0  0  0  0  0  0
  189.9830  177.5600  138.1270 C   0  0  1  0  0  3  0  0  0  0  0  0
  190.1370  175.0450  137.5750 C   0  0  0  0  0  0  0  0  0  0  0  0
  189.5340  176.3470  137.4530 N   0  0  0  0  0  2  0  0  0  0  0  0
  191.4020  174.8780  137.8300 N   0  0  0  0  0  0  0  0  0  0  0  0
  189.3290  173.8870  137.3700 N   0  0  0  0  0  2  0  0  0  0  0  0
  193.7730  175.3430  137.9540 C   0  0  0  0  0  2  0  0  0  0  0  0
  192.3810  175.9400  137.9960 C   0  0  0  0  0  3  0  0  0  0  0  0
  193.2170  176.0450  136.7370 C   0  0  0  0  0  2  0  0  0  0  0  0
  187.9080  173.9790  137.0810 C   0  0  0  0  0  2  0  0  0  0  0  0
  188.2440  171.9270  135.9850 O   0  0  0  0  0  0  0  0  0  0  0  0
  187.4370  172.7050  136.4690 C   0  0  0  0  0  0  0  0  0  0  0  0
  185.9790  172.3810  136.4570 C   0  0  0  0  0  2  0  0  0  0  0  0
  185.2930  172.9940  137.6620 C   0  0  0  0  0  1  0  0  0  0  0  0
  189.4070  178.7760  137.4170 C   0  0  0  0  0  2  0  0  0  0  0  0
  187.0890  178.5500  136.5830 C   0  0  0  0  0  1  0  0  0  0  0  0
  188.5500  178.3490  136.2420 C   0  0  0  0  0  2  0  0  0  0  0  0
  1 13  1  0  0  0  0
  1  4  1  0  0  0  0
  2 11  1  0  0  0  0
  3 10  1  0  0  0  0
  3  7  1  1  0  0  0
  4  5  1  0  0  0  0
  4  3  1  0  0  0  0
  5  3  1  0  0  0  0
  5 14  2  0  0  0  0
  6 13  2  0  0  0  0
  8  1  2  0  0  0  0
  9 11  2  0  0  0  0
 10  9  1  0  0  0  0
 12  6  1  0  0  0  0
 13 17  1  0  0  0  0
 15 12  2  0  0  0  0
 15  8  1  0  0  0  0
 16  2  2  0  0  0  0
 17 16  1  0  0  0  0
 17 10  2  0  0  0  0
 18 31  1  6  0  0  0
 18 15  1  0  0  0  0
 19 21  2  0  0  0  0
 20 19  1  0  0  0  0
 20 18  1  0  0  0  0
 21 24  1  0  0  0  0
 22 19  1  0  0  0  0
 23 24  1  0  0  0  0
 25 23  1  0  0  0  0
 25 24  1  0  0  0  0
 26 22  1  0  0  0  0
 27 28  2  0  0  0  0
 28 26  1  0  0  0  0
 29 28  1  0  0  0  0
 29 30  1  0  0  0  0
 33 32  1  0  0  0  0
 33 31  1  0  0  0  0
M  END
>  <MODEL>
6

>  <REMARK>
 VINA RESULT:      -7.5      4.992      7.653
  Name = 
  8 active torsions:
  status: ('A' for Active; 'I' for Inactive)
    1  A    between atoms: C_2  and  C_10
    2  A    between atoms: C_2  and  C_30
    3  A    between atoms: N_5  and  C_30
    4  A    between atoms: N_8  and  C_20
    5  A    between atoms: N_13  and  C_14
    6  A    between atoms: C_14  and  C_19
    7  A    between atoms: C_19  and  C_27
    8  A    between atoms: C_29  and  C_30
                            x       y       z     vdW  Elec       q    Type
                         _______ _______ _______ _____ _____    ______ ____

>  <TORSDO>
F 8

$$$$
=
 OpenBabel10222418533D

 33 37  0  0  1  0  0  0  0  0999 V2000
  189.1520  177.3480  140.3840 C   0  0  0  0  0  0  0  0  0  0  0  0
  193.5740  176.6000  138.4520 N   0  0  0  0  0  0  0  0  0  0  0  0
  189.3510  177.0170  137.8210 C   0  0  2  0  0  0  0  0  0  0  0  0
  188.7800  177.3830  139.0280 N   0  0  0  0  0  0  0  0  0  0  0  0
  188.7000  178.2300  137.7530 C   0  0  0  0  0  0  0  0  0  0  0  0
  190.9920  177.0390  141.9120 C   0  0  0  0  0  3  0  0  0  0  0  0
  188.6900  175.9230  137.2630 O   0  0  0  0  0  1  0  0  0  0  0  0
  188.2690  177.5660  141.4380 C   0  0  0  0  0  3  0  0  0  0  0  0
  191.7030  176.7510  136.9720 C   0  0  0  0  0  3  0  0  0  0  0  0
  190.8460  176.8990  138.0630 C   0  0  0  0  0  0  0  0  0  0  0  0
  193.0740  176.6040  137.1880 C   0  0  0  0  0  3  0  0  0  0  0  0
  190.1150  177.2520  142.9850 C   0  0  0  0  0  3  0  0  0  0  0  0
  190.5090  177.0870  140.5970 C   0  0  0  0  0  0  0  0  0  0  0  0
  188.3770  179.2840  137.1460 O   0  0  0  0  0  0  0  0  0  0  0  0
  188.7580  177.5210  142.7540 C   0  0  0  0  0  0  0  0  0  0  0  0
  192.7730  176.7410  139.5410 C   0  0  0  0  0  3  0  0  0  0  0  0
  191.3890  176.8950  139.3920 C   0  0  0  0  0  0  0  0  0  0  0  0
  187.8450  177.7490  143.9230 C   0  0  1  0  0  3  0  0  0  0  0  0
  185.3610  178.4390  143.9400 C   0  0  0  0  0  0  0  0  0  0  0  0
  186.4530  177.6040  143.5140 N   0  0  0  0  0  2  0  0  0  0  0  0
  185.3440  179.0400  145.0940 N   0  0  0  0  0  0  0  0  0  0  0  0
  184.2280  178.5870  143.0850 N   0  0  0  0  0  2  0  0  0  0  0  0
  185.9580  179.7610  147.3210 C   0  0  0  0  0  2  0  0  0  0  0  0
  186.3760  178.9450  146.1150 C   0  0  0  0  0  3  0  0  0  0  0  0
  185.8010  178.2580  147.3370 C   0  0  0  0  0  2  0  0  0  0  0  0
  184.1590  177.9510  141.7790 C   0  0  0  0  0  2  0  0  0  0  0  0
  185.4400  179.7510  140.9780 O   0  0  0  0  0  0  0  0  0  0  0  0
  184.5830  178.9180  140.7280 C   0  0  0  0  0  0  0  0  0  0  0  0
  183.9650  178.8580  139.3710 C   0  0  0  0  0  2  0  0  0  0  0  0
  184.9660  178.3370  138.3580 C   0  0  0  0  0  1  0  0  0  0  0  0
  188.1470  176.7710  145.0490 C   0  0  0  0  0  2  0  0  0  0  0  0
  189.1730  176.8340  147.2990 C   0  0  0  0  0  1  0  0  0  0  0  0
  189.3460  177.2370  145.8510 C   0  0  0  0  0  2  0  0  0  0  0  0
  1 13  2  0  0  0  0
  1  8  1  0  0  0  0
  2 16  1  0  0  0  0
  3  7  1  6  0  0  0
  3 10  1  0  0  0  0
  3  4  1  0  0  0  0
  4  1  1  0  0  0  0
  5  3  1  0  0  0  0
  5  4  1  0  0  0  0
  6 12  2  0  0  0  0
  8 15  2  0  0  0  0
  9 11  1  0  0  0  0
  9 10  2  0  0  0  0
 10 17  1  0  0  0  0
 11  2  2  0  0  0  0
 13  6  1  0  0  0  0
 14  5  2  0  0  0  0
 15 12  1  0  0  0  0
 15 18  1  0  0  0  0
 17 16  2  0  0  0  0
 17 13  1  0  0  0  0
 18 31  1  1  0  0  0
 19 21  2  0  0  0  0
 20 18  1  0  0  0  0
 20 19  1  0  0  0  0
 21 24  1  0  0  0  0
 22 19  1  0  0  0  0
 23 25  1  0  0  0  0
 24 23  1  0  0  0  0
 24 25  1  0  0  0  0
 26 22  1  0  0  0  0
 28 27  2  0  0  0  0
 28 26  1  0  0  0  0
 29 28  1  0  0  0  0
 30 29  1  0  0  0  0
 31 33  1  0  0  0  0
 33 32  1  0  0  0  0
M  END
>  <MODEL>
7

>  <REMARK>
 VINA RESULT:      -7.3      3.196      7.220
  Name = 
  8 active torsions:
  status: ('A' for Active; 'I' for Inactive)
    1  A    between atoms: C_2  and  C_10
    2  A    between atoms: C_2  and  C_30
    3  A    between atoms: N_5  and  C_30
    4  A    between atoms: N_8  and  C_20
    5  A    between atoms: N_13  and  C_14
    6  A    between atoms: C_14  and  C_19
    7  A    between atoms: C_19  and  C_27
    8  A    between atoms: C_29  and  C_30
                            x       y       z     vdW  Elec       q    Type
                         _______ _______ _______ _____ _____    ______ ____

>  <TORSDO>
F 8

$$$$
=
 OpenBabel10222418533D

 33 37  0  0  1  0  0  0  0  0999 V2000
  186.6070  178.2170  142.1280 C   0  0  0  0  0  0  0  0  0  0  0  0
  185.8880  178.2440  146.9580 N   0  0  0  0  0  0  0  0  0  0  0  0
  188.4870  177.3220  143.6720 C   0  0  2  0  0  0  0  0  0  0  0  0
  187.8950  177.8090  142.5190 N   0  0  0  0  0  0  0  0  0  0  0  0
  189.2720  178.2540  143.0270 C   0  0  0  0  0  0  0  0  0  0  0  0
  184.4090  178.8150  142.9180 C   0  0  0  0  0  3  0  0  0  0  0  0
  188.8570  175.9850  143.5210 O   0  0  0  0  0  1  0  0  0  0  0  0
  186.2310  178.4440  140.8070 C   0  0  0  0  0  3  0  0  0  0  0  0
  188.0050  177.5030  146.1330 C   0  0  0  0  0  3  0  0  0  0  0  0
  187.5620  177.6800  144.8220 C   0  0  0  0  0  0  0  0  0  0  0  0
  187.1480  177.7940  147.1950 C   0  0  0  0  0  3  0  0  0  0  0  0
  184.0130  179.0440  141.5930 C   0  0  0  0  0  3  0  0  0  0  0  0
  185.7190  178.3980  143.1930 C   0  0  0  0  0  0  0  0  0  0  0  0
  190.2880  178.9930  142.9580 O   0  0  0  0  0  0  0  0  0  0  0  0
  184.9190  178.8660  140.5370 C   0  0  0  0  0  0  0  0  0  0  0  0
  185.4180  178.4300  145.6960 C   0  0  0  0  0  3  0  0  0  0  0  0
  186.2290  178.1580  144.5870 C   0  0  0  0  0  0  0  0  0  0  0  0
  184.4660  179.1220  139.1300 C   0  0  1  0  0  3  0  0  0  0  0  0
  184.5720  176.8310  137.9510 C   0  0  0  0  0  0  0  0  0  0  0  0
  183.8600  177.9200  138.5660 N   0  0  0  0  0  2  0  0  0  0  0  0
  185.7100  176.9900  137.3410 N   0  0  0  0  0  0  0  0  0  0  0  0
  183.9920  175.5270  137.9720 N   0  0  0  0  0  2  0  0  0  0  0  0
  187.9010  178.0020  137.1700 C   0  0  0  0  0  2  0  0  0  0  0  0
  186.4070  178.2540  137.1620 C   0  0  0  0  0  3  0  0  0  0  0  0
  187.1790  178.2140  135.8590 C   0  0  0  0  0  2  0  0  0  0  0  0
  182.7240  175.2560  138.6290 C   0  0  0  0  0  2  0  0  0  0  0  0
  181.4470  174.1180  137.0180 O   0  0  0  0  0  0  0  0  0  0  0  0
  181.6400  175.1670  137.6120 C   0  0  0  0  0  0  0  0  0  0  0  0
  180.7880  176.3600  137.3280 C   0  0  0  0  0  2  0  0  0  0  0  0
  181.2590  177.0550  136.0650 C   0  0  0  0  0  1  0  0  0  0  0  0
  183.4630  180.2650  139.0790 C   0  0  0  0  0  2  0  0  0  0  0  0
  181.0170  180.0900  139.4040 C   0  0  0  0  0  1  0  0  0  0  0  0
  182.1610  179.8030  138.4560 C   0  0  0  0  0  2  0  0  0  0  0  0
  1  4  1  0  0  0  0
  1 13  1  0  0  0  0
  2 11  1  0  0  0  0
  3  7  1  6  0  0  0
  3 10  1  0  0  0  0
  4  5  1  0  0  0  0
  4  3  1  0  0  0  0
  5  3  1  0  0  0  0
  6 13  2  0  0  0  0
  8  1  2  0  0  0  0
  9 11  2  0  0  0  0
 10  9  1  0  0  0  0
 12  6  1  0  0  0  0
 13 17  1  0  0  0  0
 14  5  2  0  0  0  0
 15  8  1  0  0  0  0
 15 12  2  0  0  0  0
 16  2  2  0  0  0  0
 17 10  2  0  0  0  0
 17 16  1  0  0  0  0
 18 31  1  1  0  0  0
 18 15  1  0  0  0  0
 19 22  1  0  0  0  0
 19 20  1  0  0  0  0
 20 18  1  0  0  0  0
 21 19  2  0  0  0  0
 22 26  1  0  0  0  0
 24 23  1  0  0  0  0
 24 21  1  0  0  0  0
 25 24  1  0  0  0  0
 25 23  1  0  0  0  0
 27 28  2  0  0  0  0
 28 26  1  0  0  0  0
 29 28  1  0  0  0  0
 30 29  1  0  0  0  0
 33 31  1  0  0  0  0
 33 32  1  0  0  0  0
M  END
>  <MODEL>
8

>  <REMARK>
 VINA RESULT:      -7.2      2.189      4.161
  Name = 
  8 active torsions:
  status: ('A' for Active; 'I' for Inactive)
    1  A    between atoms: C_2  and  C_10
    2  A    between atoms: C_2  and  C_30
    3  A    between atoms: N_5  and  C_30
    4  A    between atoms: N_8  and  C_20
    5  A    between atoms: N_13  and  C_14
    6  A    between atoms: C_14  and  C_19
    7  A    between atoms: C_19  and  C_27
    8  A    between atoms: C_29  and  C_30
                            x       y       z     vdW  Elec       q    Type
                         _______ _______ _______ _____ _____    ______ ____

>  <TORSDO>
F 8

$$$$
=
 OpenBabel10222418533D

 33 37  0  0  1  0  0  0  0  0999 V2000
  187.4720  178.1690  141.1570 C   0  0  0  0  0  0  0  0  0  0  0  0
  187.6890  177.1200  145.9210 N   0  0  0  0  0  0  0  0  0  0  0  0
  185.5350  178.9480  142.6920 C   0  0  2  0  0  0  0  0  0  0  0  0
  186.1950  178.6330  141.5160 N   0  0  0  0  0  0  0  0  0  0  0  0
  184.7380  178.2520  141.8080 C   0  0  0  0  0  0  0  0  0  0  0  0
  189.5140  177.1890  141.9840 C   0  0  0  0  0  3  0  0  0  0  0  0
  185.3070  180.3210  142.7890 O   0  0  0  0  0  1  0  0  0  0  0  0
  187.9590  178.1650  139.8520 C   0  0  0  0  0  3  0  0  0  0  0  0
  185.7440  178.2370  145.0950 C   0  0  0  0  0  3  0  0  0  0  0  0
  186.3010  178.2720  143.8160 C   0  0  0  0  0  0  0  0  0  0  0  0
  186.4580  177.6510  146.1410 C   0  0  0  0  0  3  0  0  0  0  0  0
  190.0200  177.1810  140.6770 C   0  0  0  0  0  3  0  0  0  0  0  0
  188.2270  177.6860  142.2300 C   0  0  0  0  0  0  0  0  0  0  0  0
  183.6700  177.6590  141.5070 O   0  0  0  0  0  0  0  0  0  0  0  0
  189.2470  177.6610  139.6090 C   0  0  0  0  0  0  0  0  0  0  0  0
  188.2660  177.1330  144.6900 C   0  0  0  0  0  3  0  0  0  0  0  0
  187.6010  177.7040  143.5980 C   0  0  0  0  0  0  0  0  0  0  0  0
  189.8160  177.6360  138.2210 C   0  0  1  0  0  3  0  0  0  0  0  0
  190.0820  175.1490  137.5940 C   0  0  0  0  0  0  0  0  0  0  0  0
  189.4090  176.4200  137.5280 N   0  0  0  0  0  2  0  0  0  0  0  0
  191.3620  175.0420  137.8020 N   0  0  0  0  0  0  0  0  0  0  0  0
  189.3300  173.9550  137.3840 N   0  0  0  0  0  2  0  0  0  0  0  0
  193.7070  175.6140  137.9760 C   0  0  0  0  0  2  0  0  0  0  0  0
  192.2900  176.1510  137.9650 C   0  0  0  0  0  3  0  0  0  0  0  0
  193.1540  176.2600  136.7260 C   0  0  0  0  0  2  0  0  0  0  0  0
  187.8960  173.9790  137.1440 C   0  0  0  0  0  2  0  0  0  0  0  0
  188.3050  171.9180  136.0930 O   0  0  0  0  0  0  0  0  0  0  0  0
  187.4680  172.6910  136.5310 C   0  0  0  0  0  0  0  0  0  0  0  0
  186.0170  172.3470  136.4610 C   0  0  0  0  0  2  0  0  0  0  0  0
  185.2620  173.0140  137.5950 C   0  0  0  0  0  1  0  0  0  0  0  0
  189.3620  178.8490  137.4240 C   0  0  0  0  0  2  0  0  0  0  0  0
  187.1760  178.6200  136.2880 C   0  0  0  0  0  1  0  0  0  0  0  0
  188.6690  178.4170  136.1470 C   0  0  0  0  0  2  0  0  0  0  0  0
  1  4  1  0  0  0  0
  1 13  1  0  0  0  0
  2 11  1  0  0  0  0
  3  7  1  1  0  0  0
  3 10  1  0  0  0  0
  4  5  1  0  0  0  0
  4  3  1  0  0  0  0
  5  3  1  0  0  0  0
  6 13  2  0  0  0  0
  8  1  2  0  0  0  0
  9 11  2  0  0  0  0
 10  9  1  0  0  0  0
 12  6  1  0  0  0  0
 13 17  1  0  0  0  0
 14  5  2  0  0  0  0
 15  8  1  0  0  0  0
 15 12  2  0  0  0  0
 16  2  2  0  0  0  0
 17 10  2  0  0  0  0
 17 16  1  0  0  0  0
 18 31  1  6  0  0  0
 18 15  1  0  0  0  0
 19 21  2  0  0  0  0
 20 19  1  0  0  0  0
 20 18  1  0  0  0  0
 21 24  1  0  0  0  0
 22 19  1  0  0  0  0
 24 23  1  0  0  0  0
 25 24  1  0  0  0  0
 25 23  1  0  0  0  0
 26 22  1  0  0  0  0
 27 28  2  0  0  0  0
 28 26  1  0  0  0  0
 29 28  1  0  0  0  0
 29 30  1  0  0  0  0
 33 32  1  0  0  0  0
 33 31  1  0  0  0  0
M  END
>  <MODEL>
9

>  <REMARK>
 VINA RESULT:      -7.2      4.022      7.614
  Name = 
  8 active torsions:
  status: ('A' for Active; 'I' for Inactive)
    1  A    between atoms: C_2  and  C_10
    2  A    between atoms: C_2  and  C_30
    3  A    between atoms: N_5  and  C_30
    4  A    between atoms: N_8  and  C_20
    5  A    between atoms: N_13  and  C_14
    6  A    between atoms: C_14  and  C_19
    7  A    between atoms: C_19  and  C_27
    8  A    between atoms: C_29  and  C_30
                            x       y       z     vdW  Elec       q    Type
                         _______ _______ _______ _____ _____    ______ ____

>  <TORSDO>
F 8

$$$$
