=
 OpenBabel10222418343D

 62 66  0  0  1  0  0  0  0  0999 V2000
  193.0530  176.1710  136.1400 C   0  0  0  0  0  0  0  0  0  0  0  0
  191.4560  175.9460  135.6540 S   0  0  0  0  0  0  0  0  0  0  0  0
  190.7990  176.0720  137.2010 C   0  0  0  0  0  0  0  0  0  0  0  0
  189.1580  176.3370  138.9850 N   0  0  0  0  0  0  0  0  0  0  0  0
  191.5480  176.2560  139.5830 C   0  0  0  0  0  2  0  0  0  0  0  0
  194.2240  176.3750  138.2500 F   0  0  0  0  0  0  0  0  0  0  0  0
  193.0850  176.2830  137.5290 C   0  0  0  0  0  0  0  0  0  0  0  0
  191.8200  176.2430  138.1140 C   0  0  0  0  0  0  0  0  0  0  0  0
  189.3890  175.8110  137.6360 C   0  0  1  0  0  3  0  0  0  0  0  0
  190.0920  176.5330  139.8800 C   0  0  0  0  0  0  0  0  0  0  0  0
  194.2190  176.0750  135.2180 C   0  0  0  0  0  2  0  0  0  0  0  0
  196.1590  177.2900  135.2840 N   0  0  0  0  0  1  0  0  0  0  0  0
  195.4830  176.2450  135.9260 N   0  0  0  0  0  0  0  0  0  0  0  0
  196.2910  175.0350  135.7450 C   0  0  0  0  0  3  0  0  0  0  0  0
  195.4880  173.8900  135.8570 O   0  0  0  0  0  0  0  0  0  0  0  0
  195.8680  173.2930  137.0660 C   0  0  0  0  0  1  0  0  0  0  0  0
  197.2970  174.9890  136.7180 O   0  0  0  0  0  0  0  0  0  0  0  0
  198.4900  174.8960  135.9960 C   0  0  0  0  0  1  0  0  0  0  0  0
  188.3840  176.4260  136.6740 C   0  0  0  0  0  2  0  0  0  0  0  0
  187.7630  175.1660  135.5460 S   0  0  0  0  0  0  0  0  0  0  0  0
  186.6850  173.8540  137.4850 F   0  0  0  0  0  0  0  0  0  0  0  0
  186.4960  174.5420  136.3220 C   0  0  2  0  0  3  0  0  0  0  0  0
  185.1410  174.6160  135.6970 C   0  0  0  0  0  2  0  0  0  0  0  0
  184.5920  176.0040  135.7830 C   0  0  0  0  0  0  0  0  0  0  0  0
  183.6640  176.3650  136.8240 N   0  0  0  0  0  0  0  0  0  0  0  0
  184.9920  176.8710  134.9570 O   0  0  0  0  0  0  0  0  0  0  0  0
  183.5190  177.7760  137.1870 C   0  0  1  0  0  3  0  0  0  0  0  0
  182.0800  178.2290  137.0310 C   0  0  0  0  0  1  0  0  0  0  0  0
  184.0120  178.0590  138.6030 C   0  0  0  0  0  2  0  0  0  0  0  0
  183.4920  179.3940  139.1090 C   0  0  0  0  0  2  0  0  0  0  0  0
  184.5010  180.3500  139.0420 O   0  0  0  0  0  1  0  0  0  0  0  0
  182.9450  175.3090  137.5430 C   0  0  0  0  0  2  0  0  0  0  0  0
  179.8400  174.3430  137.9370 C   0  0  1  0  0  3  0  0  0  0  0  0
  180.5350  175.2560  136.9440 C   0  0  0  0  0  2  0  0  0  0  0  0
  181.7680  173.1680  136.9930 C   0  0  0  0  0  2  0  0  0  0  0  0
  181.8910  174.6460  136.6600 C   0  0  2  0  0  3  0  0  0  0  0  0
  180.4910  172.9830  137.7940 C   0  0  0  0  0  2  0  0  0  0  0  0
  180.0510  174.8300  139.2940 N   0  0  0  0  0  2  0  0  0  0  0  0
  179.5410  176.0860  139.7600 C   0  0  0  0  0  0  0  0  0  0  0  0
  178.9420  176.8670  138.9760 O   0  0  0  0  0  0  0  0  0  0  0  0
  179.6890  176.4500  141.1950 C   0  0  0  0  0  2  0  0  0  0  0  0
  179.4820  177.9450  141.3910 C   0  0  0  0  0  2  0  0  0  0  0  0
  179.2920  178.2430  142.8070 N   0  0  0  0  0  1  0  0  0  0  0  0
  189.7600  177.0110  141.1470 O   0  0  0  0  0  0  0  0  0  0  0  0
  189.1020  176.5600  144.2750 C   0  0  1  0  0  3  0  0  0  0  0  0
  190.3330  176.4900  142.3390 C   0  0  1  0  0  3  0  0  0  0  0  0
  190.8350  177.5990  143.1700 C   0  0  0  0  0  0  0  0  0  0  0  0
  189.3330  175.8240  143.0820 O   0  0  0  0  0  0  0  0  0  0  0  0
  191.9020  178.3390  142.8780 C   0  0  0  0  0  2  0  0  0  0  0  0
  190.0950  177.7000  144.4200 C   0  0  0  0  0  2  0  0  0  0  0  0
  187.6530  177.0620  144.3510 C   0  0  1  0  0  3  0  0  0  0  0  0
  186.6790  178.6110  148.2460 C   0  0  0  0  0  3  0  0  0  0  0  0
  187.9200  178.0040  148.0200 C   0  0  0  0  0  3  0  0  0  0  0  0
  185.7420  178.7020  147.2120 C   0  0  0  0  0  3  0  0  0  0  0  0
  186.0450  178.1840  145.9520 C   0  0  0  0  0  3  0  0  0  0  0  0
  187.2840  177.5650  145.7200 C   0  0  0  0  0  0  0  0  0  0  0  0
  188.2220  177.4850  146.7580 C   0  0  0  0  0  3  0  0  0  0  0  0
  187.4420  178.0510  143.3850 O   0  0  0  0  0  0  0  0  0  0  0  0
  186.5120  177.4930  142.5040 C   0  0  0  0  0  2  0  0  0  0  0  0
  185.5940  179.6380  142.4490 C   0  0  0  0  0  1  0  0  0  0  0  0
  187.1340  178.9950  140.8240 C   0  0  0  0  0  1  0  0  0  0  0  0
  186.0080  178.5260  141.6110 N   0  0  0  0  0  0  0  0  0  0  0  0
  1  7  2  0  0  0  0
  2  1  1  0  0  0  0
  2  3  1  0  0  0  0
  3  9  1  0  0  0  0
  3  8  2  0  0  0  0
  4 10  2  0  0  0  0
  5 10  1  0  0  0  0
  7  8  1  0  0  0  0
  7  6  1  0  0  0  0
  8  5  1  0  0  0  0
  9 19  1  6  0  0  0
  9  4  1  0  0  0  0
 10 44  1  0  0  0  0
 11 13  1  0  0  0  0
 11  1  1  0  0  0  0
 12 13  1  0  0  0  0
 14 15  1  0  0  0  0
 14 13  1  0  0  0  0
 14 17  1  0  0  0  0
 15 16  1  0  0  0  0
 18 17  1  0  0  0  0
 20 22  1  0  0  0  0
 20 19  1  0  0  0  0
 22 21  1  6  0  0  0
 23 24  1  0  0  0  0
 23 22  1  0  0  0  0
 24 25  1  0  0  0  0
 25 27  1  0  0  0  0
 25 32  1  0  0  0  0
 26 24  2  0  0  0  0
 27 28  1  1  0  0  0
 27 29  1  0  0  0  0
 29 30  1  0  0  0  0
 31 30  1  0  0  0  0
 33 38  1  1  0  0  0
 34 33  1  0  0  0  0
 35 37  1  0  0  0  0
 36 34  1  0  0  0  0
 36 35  1  0  0  0  0
 36 32  1  1  0  0  0
 37 33  1  0  0  0  0
 38 39  1  0  0  0  0
 39 41  1  0  0  0  0
 40 39  2  0  0  0  0
 41 42  1  0  0  0  0
 42 43  1  0  0  0  0
 45 51  1  6  0  0  0
 45 50  1  0  0  0  0
 46 44  1  6  0  0  0
 46 48  1  0  0  0  0
 46 47  1  0  0  0  0
 47 50  1  0  0  0  0
 48 45  1  0  0  0  0
 49 47  2  0  0  0  0
 51 58  1  6  0  0  0
 51 56  1  0  0  0  0
 53 52  1  0  0  0  0
 54 52  2  0  0  0  0
 55 54  1  0  0  0  0
 56 55  2  0  0  0  0
 56 57  1  0  0  0  0
 57 53  2  0  0  0  0
 59 58  1  0  0  0  0
 61 62  1  0  0  0  0
 62 60  1  0  0  0  0
 62 59  1  0  0  0  0
M  END
>  <MODEL>
1

>  <REMARK>
 VINA RESULT:      -6.3      0.000      0.000
  Name = 
  24 active torsions:
  status: ('A' for Active; 'I' for Inactive)
    1  A    between atoms: C_1  and  C_24
    2  A    between atoms: C_2  and  N_8
    3  A    between atoms: C_3  and  C_11
    4  A    between atoms: O_6  and  C_10
    5  A    between atoms: C_7  and  C_57
    6  A    between atoms: C_10  and  O_20
    7  A    between atoms: C_10  and  N_59
    8  A    between atoms: C_11  and  C_55
    9  A    between atoms: N_12  and  C_19
   10  A    between atoms: N_12  and  C_61
   11  A    between atoms: C_16  and  C_44
   12  A    between atoms: C_19  and  C_35
   13  A    between atoms: C_24  and  N_59
   14  A    between atoms: C_25  and  C_47
   15  A    between atoms: O_27  and  C_28
   16  A    between atoms: O_27  and  C_47
   17  A    between atoms: C_28  and  N_42
   18  A    between atoms: C_30  and  O_48
   19  A    between atoms: C_36  and  C_47
   20  A    between atoms: C_37  and  S_45
   21  A    between atoms: C_37  and  C_58
   22  A    between atoms: C_44  and  C_49
   23  A    between atoms: O_48  and  C_60
   24  A    between atoms: C_57  and  C_61
                            x       y       z     vdW  Elec       q    Type
                         _______ _______ _______ _____ _____    ______ ____

>  <TORSDO>
F 24

$$$$
=
 OpenBabel10222418343D

 62 66  0  0  1  0  0  0  0  0999 V2000
  192.4490  176.1520  136.4010 C   0  0  0  0  0  0  0  0  0  0  0  0
  190.9180  176.3590  135.7290 S   0  0  0  0  0  0  0  0  0  0  0  0
  190.1260  176.5720  137.2020 C   0  0  0  0  0  0  0  0  0  0  0  0
  188.3930  177.1550  138.8150 N   0  0  0  0  0  0  0  0  0  0  0  0
  190.5980  176.4460  139.6580 C   0  0  0  0  0  2  0  0  0  0  0  0
  193.3650  175.9530  138.6340 F   0  0  0  0  0  0  0  0  0  0  0  0
  192.3360  176.1850  137.7900 C   0  0  0  0  0  0  0  0  0  0  0  0
  191.0370  176.4360  138.2300 C   0  0  0  0  0  0  0  0  0  0  0  0
  188.6530  176.6540  137.4610 C   0  0  1  0  0  3  0  0  0  0  0  0
  189.2280  177.0660  139.8170 C   0  0  0  0  0  0  0  0  0  0  0  0
  193.6610  175.8100  135.6040 C   0  0  0  0  0  2  0  0  0  0  0  0
  195.5450  177.1110  135.5230 N   0  0  0  0  0  1  0  0  0  0  0  0
  194.8890  176.1580  136.3120 N   0  0  0  0  0  0  0  0  0  0  0  0
  195.7530  174.9750  136.3650 C   0  0  0  0  0  3  0  0  0  0  0  0
  194.9810  173.8030  136.3440 O   0  0  0  0  0  0  0  0  0  0  0  0
  195.3220  173.1610  135.1470 C   0  0  0  0  0  1  0  0  0  0  0  0
  196.5170  175.0020  137.5390 O   0  0  0  0  0  0  0  0  0  0  0  0
  196.3830  173.7200  138.0830 C   0  0  0  0  0  1  0  0  0  0  0  0
  187.9550  177.5470  136.4480 C   0  0  0  0  0  2  0  0  0  0  0  0
  186.4210  178.1850  137.1460 S   0  0  0  0  0  0  0  0  0  0  0  0
  185.0100  176.9030  135.4110 F   0  0  0  0  0  0  0  0  0  0  0  0
  185.3180  177.0860  136.7270 C   0  0  2  0  0  3  0  0  0  0  0  0
  184.5560  176.3660  137.7920 C   0  0  0  0  0  2  0  0  0  0  0  0
  184.1000  175.0270  137.3040 C   0  0  0  0  0  0  0  0  0  0  0  0
  182.7840  174.8570  136.7450 N   0  0  0  0  0  0  0  0  0  0  0  0
  184.9060  174.0560  137.3450 O   0  0  0  0  0  0  0  0  0  0  0  0
  182.5310  173.7190  135.8600 C   0  0  1  0  0  3  0  0  0  0  0  0
  183.6250  173.5900  134.8180 C   0  0  0  0  0  1  0  0  0  0  0  0
  182.3790  172.4120  136.6330 C   0  0  0  0  0  2  0  0  0  0  0  0
  180.9200  172.1240  136.9440 C   0  0  0  0  0  2  0  0  0  0  0  0
  180.1190  172.5490  135.8880 O   0  0  0  0  0  1  0  0  0  0  0  0
  181.7530  175.8640  137.0160 C   0  0  0  0  0  2  0  0  0  0  0  0
  180.1400  178.6330  136.3370 C   0  0  1  0  0  3  0  0  0  0  0  0
  181.4990  178.0870  135.9370 C   0  0  0  0  0  2  0  0  0  0  0  0
  179.8570  176.3660  135.4580 C   0  0  0  0  0  2  0  0  0  0  0  0
  181.3340  176.5940  135.7430 C   0  0  2  0  0  3  0  0  0  0  0  0
  179.1160  177.6360  135.8340 C   0  0  0  0  0  2  0  0  0  0  0  0
  180.0460  178.7200  137.7880 N   0  0  0  0  0  2  0  0  0  0  0  0
  180.9800  179.4550  138.5880 C   0  0  0  0  0  0  0  0  0  0  0  0
  181.9840  180.0040  138.0620 O   0  0  0  0  0  0  0  0  0  0  0  0
  180.7380  179.6020  140.0480 C   0  0  0  0  0  2  0  0  0  0  0  0
  180.0180  180.9100  140.3420 C   0  0  0  0  0  2  0  0  0  0  0  0
  179.5320  180.9160  141.7180 N   0  0  0  0  0  1  0  0  0  0  0  0
  188.8690  177.5500  141.0750 O   0  0  0  0  0  0  0  0  0  0  0  0
  187.7100  177.3760  144.0820 C   0  0  1  0  0  3  0  0  0  0  0  0
  188.9570  176.7630  142.2550 C   0  0  1  0  0  3  0  0  0  0  0  0
  189.8480  177.4270  143.2240 C   0  0  0  0  0  0  0  0  0  0  0  0
  187.6780  176.6730  142.8480 O   0  0  0  0  0  0  0  0  0  0  0  0
  191.1670  177.5290  143.0910 C   0  0  0  0  0  2  0  0  0  0  0  0
  189.1170  177.8420  144.4140 C   0  0  0  0  0  2  0  0  0  0  0  0
  186.7140  178.5440  144.0870 C   0  0  1  0  0  3  0  0  0  0  0  0
  184.1820  178.4120  140.6110 C   0  0  0  0  0  3  0  0  0  0  0  0
  185.4800  178.9290  140.5170 C   0  0  0  0  0  3  0  0  0  0  0  0
  183.6950  177.9530  141.8370 C   0  0  0  0  0  3  0  0  0  0  0  0
  184.5040  178.0110  142.9730 C   0  0  0  0  0  3  0  0  0  0  0  0
  185.8050  178.5360  142.8890 C   0  0  0  0  0  0  0  0  0  0  0  0
  186.2900  178.9870  141.6540 C   0  0  0  0  0  3  0  0  0  0  0  0
  185.9730  178.5310  145.2740 O   0  0  0  0  0  0  0  0  0  0  0  0
  186.7550  177.7990  146.1710 C   0  0  0  0  0  2  0  0  0  0  0  0
  187.8050  178.1740  148.2210 C   0  0  0  0  0  1  0  0  0  0  0  0
  186.2570  179.7160  147.4140 C   0  0  0  0  0  1  0  0  0  0  0  0
  186.5370  178.2950  147.5220 N   0  0  0  0  0  0  0  0  0  0  0  0
  1  7  2  0  0  0  0
  2  1  1  0  0  0  0
  2  3  1  0  0  0  0
  3  9  1  0  0  0  0
  3  8  2  0  0  0  0
  4 10  2  0  0  0  0
  5 10  1  0  0  0  0
  7  8  1  0  0  0  0
  7  6  1  0  0  0  0
  8  5  1  0  0  0  0
  9 19  1  6  0  0  0
  9  4  1  0  0  0  0
 10 44  1  0  0  0  0
 11 13  1  0  0  0  0
 11  1  1  0  0  0  0
 12 13  1  0  0  0  0
 13 14  1  0  0  0  0
 14 17  1  0  0  0  0
 15 14  1  0  0  0  0
 16 15  1  0  0  0  0
 17 18  1  0  0  0  0
 19 20  1  0  0  0  0
 22 21  1  6  0  0  0
 22 20  1  0  0  0  0
 22 23  1  0  0  0  0
 24 26  2  0  0  0  0
 24 23  1  0  0  0  0
 25 32  1  0  0  0  0
 25 24  1  0  0  0  0
 27 28  1  6  0  0  0
 27 29  1  0  0  0  0
 27 25  1  0  0  0  0
 29 30  1  0  0  0  0
 31 30  1  0  0  0  0
 33 38  1  1  0  0  0
 34 33  1  0  0  0  0
 35 36  1  0  0  0  0
 35 37  1  0  0  0  0
 36 34  1  0  0  0  0
 36 32  1  1  0  0  0
 37 33  1  0  0  0  0
 38 39  1  0  0  0  0
 39 41  1  0  0  0  0
 40 39  2  0  0  0  0
 41 42  1  0  0  0  0
 42 43  1  0  0  0  0
 45 51  1  6  0  0  0
 45 50  1  0  0  0  0
 46 44  1  6  0  0  0
 46 48  1  0  0  0  0
 46 47  1  0  0  0  0
 47 50  1  0  0  0  0
 48 45  1  0  0  0  0
 49 47  2  0  0  0  0
 51 58  1  1  0  0  0
 52 54  1  0  0  0  0
 53 52  2  0  0  0  0
 53 57  1  0  0  0  0
 54 55  2  0  0  0  0
 56 55  1  0  0  0  0
 56 51  1  0  0  0  0
 57 56  2  0  0  0  0
 58 59  1  0  0  0  0
 59 62  1  0  0  0  0
 61 62  1  0  0  0  0
 62 60  1  0  0  0  0
M  END
>  <MODEL>
2

>  <REMARK>
 VINA RESULT:      -5.9      2.062      3.747
  Name = 
  24 active torsions:
  status: ('A' for Active; 'I' for Inactive)
    1  A    between atoms: C_1  and  C_24
    2  A    between atoms: C_2  and  N_8
    3  A    between atoms: C_3  and  C_11
    4  A    between atoms: O_6  and  C_10
    5  A    between atoms: C_7  and  C_57
    6  A    between atoms: C_10  and  O_20
    7  A    between atoms: C_10  and  N_59
    8  A    between atoms: C_11  and  C_55
    9  A    between atoms: N_12  and  C_19
   10  A    between atoms: N_12  and  C_61
   11  A    between atoms: C_16  and  C_44
   12  A    between atoms: C_19  and  C_35
   13  A    between atoms: C_24  and  N_59
   14  A    between atoms: C_25  and  C_47
   15  A    between atoms: O_27  and  C_28
   16  A    between atoms: O_27  and  C_47
   17  A    between atoms: C_28  and  N_42
   18  A    between atoms: C_30  and  O_48
   19  A    between atoms: C_36  and  C_47
   20  A    between atoms: C_37  and  S_45
   21  A    between atoms: C_37  and  C_58
   22  A    between atoms: C_44  and  C_49
   23  A    between atoms: O_48  and  C_60
   24  A    between atoms: C_57  and  C_61
                            x       y       z     vdW  Elec       q    Type
                         _______ _______ _______ _____ _____    ______ ____

>  <TORSDO>
F 24

$$$$
=
 OpenBabel10222418343D

 62 66  0  0  1  0  0  0  0  0999 V2000
  187.2890  177.8350  144.6130 C   0  0  0  0  0  0  0  0  0  0  0  0
  188.2350  177.8030  143.2190 S   0  0  0  0  0  0  0  0  0  0  0  0
  186.9580  178.0830  142.1550 C   0  0  0  0  0  0  0  0  0  0  0  0
  185.7510  178.6420  140.1110 N   0  0  0  0  0  0  0  0  0  0  0  0
  184.4600  178.2700  142.1780 C   0  0  0  0  0  2  0  0  0  0  0  0
  184.9250  177.9730  145.1180 F   0  0  0  0  0  0  0  0  0  0  0  0
  185.9550  178.0020  144.2450 C   0  0  0  0  0  0  0  0  0  0  0  0
  185.7790  178.1560  142.8700 C   0  0  0  0  0  0  0  0  0  0  0  0
  186.9670  178.0310  140.6580 C   0  0  1  0  0  3  0  0  0  0  0  0
  184.6170  178.7500  140.7530 C   0  0  0  0  0  0  0  0  0  0  0  0
  187.8170  177.5440  145.9760 C   0  0  0  0  0  2  0  0  0  0  0  0
  189.7540  178.1530  144.9140 N   0  0  0  0  0  1  0  0  0  0  0  0
  189.1440  178.1190  146.1750 N   0  0  0  0  0  0  0  0  0  0  0  0
  189.9320  177.2070  147.0090 C   0  0  0  0  0  3  0  0  0  0  0  0
  190.1050  177.7440  148.2930 O   0  0  0  0  0  0  0  0  0  0  0  0
  188.8470  178.2430  148.6540 C   0  0  0  0  0  1  0  0  0  0  0  0
  191.1870  176.9990  146.4240 O   0  0  0  0  0  0  0  0  0  0  0  0
  191.8090  176.0470  147.2380 C   0  0  0  0  0  1  0  0  0  0  0  0
  188.1880  178.7320  140.0820 C   0  0  0  0  0  2  0  0  0  0  0  0
  189.5830  177.5930  140.0330 S   0  0  0  0  0  0  0  0  0  0  0  0
  188.4640  176.1810  138.1890 F   0  0  0  0  0  0  0  0  0  0  0  0
  189.5200  176.9660  138.5490 C   0  0  2  0  0  3  0  0  0  0  0  0
  190.6780  177.1490  137.6230 C   0  0  0  0  0  2  0  0  0  0  0  0
  191.6780  176.0510  137.8010 C   0  0  0  0  0  0  0  0  0  0  0  0
  191.9670  175.1380  136.7260 N   0  0  0  0  0  0  0  0  0  0  0  0
  192.3040  175.9660  138.8950 O   0  0  0  0  0  0  0  0  0  0  0  0
  193.2380  174.4110  136.7340 C   0  0  1  0  0  3  0  0  0  0  0  0
  194.0210  174.6760  135.4630 C   0  0  0  0  0  1  0  0  0  0  0  0
  194.0850  174.7480  137.9580 C   0  0  0  0  0  2  0  0  0  0  0  0
  195.4460  174.0770  137.8850 C   0  0  0  0  0  2  0  0  0  0  0  0
  195.5200  173.0520  138.8230 O   0  0  0  0  0  1  0  0  0  0  0  0
  191.0180  175.0130  135.6150 C   0  0  0  0  0  2  0  0  0  0  0  0
  187.9150  174.0070  135.3190 C   0  0  1  0  0  3  0  0  0  0  0  0
  189.2040  173.6570  134.5960 C   0  0  0  0  0  2  0  0  0  0  0  0
  189.6240  173.4380  136.9750 C   0  0  0  0  0  2  0  0  0  0  0  0
  190.3060  173.6630  135.6340 C   0  0  2  0  0  3  0  0  0  0  0  0
  188.1360  173.6580  136.7760 C   0  0  0  0  0  2  0  0  0  0  0  0
  187.6530  175.4350  135.2060 N   0  0  0  0  0  2  0  0  0  0  0  0
  186.3460  176.0030  135.3570 C   0  0  0  0  0  0  0  0  0  0  0  0
  185.3400  175.2650  135.5220 O   0  0  0  0  0  0  0  0  0  0  0  0
  186.1850  177.4820  135.3560 C   0  0  0  0  0  2  0  0  0  0  0  0
  186.4820  178.0530  136.7350 C   0  0  0  0  0  2  0  0  0  0  0  0
  187.4900  179.1030  136.6370 N   0  0  0  0  0  1  0  0  0  0  0  0
  183.5090  179.3230  140.1290 O   0  0  0  0  0  0  0  0  0  0  0  0
  181.4040  180.0460  137.7910 C   0  0  1  0  0  3  0  0  0  0  0  0
  183.4320  179.5110  138.7220 C   0  0  1  0  0  3  0  0  0  0  0  0
  182.8760  178.3000  138.0930 C   0  0  0  0  0  0  0  0  0  0  0  0
  182.5480  180.5770  138.4440 O   0  0  0  0  0  0  0  0  0  0  0  0
  183.5160  177.1390  137.9890 C   0  0  0  0  0  2  0  0  0  0  0  0
  181.5820  178.5710  137.4790 C   0  0  0  0  0  2  0  0  0  0  0  0
  180.1270  180.2990  138.6060 C   0  0  1  0  0  3  0  0  0  0  0  0
  180.0740  178.4150  142.4740 C   0  0  0  0  0  3  0  0  0  0  0  0
  180.2950  179.7920  142.3650 C   0  0  0  0  0  3  0  0  0  0  0  0
  179.8870  177.6400  141.3250 C   0  0  0  0  0  3  0  0  0  0  0  0
  179.9230  178.2420  140.0660 C   0  0  0  0  0  3  0  0  0  0  0  0
  180.1530  179.6230  139.9490 C   0  0  0  0  0  0  0  0  0  0  0  0
  180.3300  180.3950  141.1050 C   0  0  0  0  0  3  0  0  0  0  0  0
  179.9190  181.6750  138.7460 O   0  0  0  0  0  0  0  0  0  0  0  0
  179.4870  182.0990  137.4870 C   0  0  0  0  0  2  0  0  0  0  0  0
  178.9320  183.9470  138.7990 C   0  0  0  0  0  1  0  0  0  0  0  0
  180.7160  184.0790  137.3070 C   0  0  0  0  0  1  0  0  0  0  0  0
  179.3740  183.5500  137.4730 N   0  0  0  0  0  0  0  0  0  0  0  0
  1 11  1  0  0  0  0
  2  1  1  0  0  0  0
  3  8  2  0  0  0  0
  3  2  1  0  0  0  0
  4  9  1  0  0  0  0
  4 10  2  0  0  0  0
  5  8  1  0  0  0  0
  7  1  2  0  0  0  0
  7  6  1  0  0  0  0
  8  7  1  0  0  0  0
  9 19  1  6  0  0  0
  9  3  1  0  0  0  0
 10  5  1  0  0  0  0
 11 13  1  0  0  0  0
 12 13  1  0  0  0  0
 13 14  1  0  0  0  0
 14 15  1  0  0  0  0
 15 16  1  0  0  0  0
 17 14  1  0  0  0  0
 17 18  1  0  0  0  0
 20 19  1  0  0  0  0
 22 21  1  1  0  0  0
 22 20  1  0  0  0  0
 23 24  1  0  0  0  0
 23 22  1  0  0  0  0
 24 26  2  0  0  0  0
 25 27  1  0  0  0  0
 25 24  1  0  0  0  0
 27 28  1  6  0  0  0
 27 29  1  0  0  0  0
 30 29  1  0  0  0  0
 30 31  1  0  0  0  0
 32 25  1  0  0  0  0
 33 38  1  1  0  0  0
 33 37  1  0  0  0  0
 34 33  1  0  0  0  0
 34 36  1  0  0  0  0
 36 32  1  1  0  0  0
 36 35  1  0  0  0  0
 37 35  1  0  0  0  0
 38 39  1  0  0  0  0
 39 40  2  0  0  0  0
 41 39  1  0  0  0  0
 41 42  1  0  0  0  0
 43 42  1  0  0  0  0
 44 10  1  0  0  0  0
 45 48  1  0  0  0  0
 45 51  1  1  0  0  0
 46 44  1  1  0  0  0
 47 46  1  0  0  0  0
 48 46  1  0  0  0  0
 49 47  2  0  0  0  0
 50 45  1  0  0  0  0
 50 47  1  0  0  0  0
 51 58  1  1  0  0  0
 51 56  1  0  0  0  0
 53 52  1  0  0  0  0
 54 52  2  0  0  0  0
 55 54  1  0  0  0  0
 56 55  2  0  0  0  0
 56 57  1  0  0  0  0
 57 53  2  0  0  0  0
 59 58  1  0  0  0  0
 61 62  1  0  0  0  0
 62 59  1  0  0  0  0
 62 60  1  0  0  0  0
M  END
>  <MODEL>
3

>  <REMARK>
 VINA RESULT:      -5.7      3.309      9.457
  Name = 
  24 active torsions:
  status: ('A' for Active; 'I' for Inactive)
    1  A    between atoms: C_1  and  C_24
    2  A    between atoms: C_2  and  N_8
    3  A    between atoms: C_3  and  C_11
    4  A    between atoms: O_6  and  C_10
    5  A    between atoms: C_7  and  C_57
    6  A    between atoms: C_10  and  O_20
    7  A    between atoms: C_10  and  N_59
    8  A    between atoms: C_11  and  C_55
    9  A    between atoms: N_12  and  C_19
   10  A    between atoms: N_12  and  C_61
   11  A    between atoms: C_16  and  C_44
   12  A    between atoms: C_19  and  C_35
   13  A    between atoms: C_24  and  N_59
   14  A    between atoms: C_25  and  C_47
   15  A    between atoms: O_27  and  C_28
   16  A    between atoms: O_27  and  C_47
   17  A    between atoms: C_28  and  N_42
   18  A    between atoms: C_30  and  O_48
   19  A    between atoms: C_36  and  C_47
   20  A    between atoms: C_37  and  S_45
   21  A    between atoms: C_37  and  C_58
   22  A    between atoms: C_44  and  C_49
   23  A    between atoms: O_48  and  C_60
   24  A    between atoms: C_57  and  C_61
                            x       y       z     vdW  Elec       q    Type
                         _______ _______ _______ _____ _____    ______ ____

>  <TORSDO>
F 24

$$$$
=
 OpenBabel10222418343D

 62 66  0  0  1  0  0  0  0  0999 V2000
  192.0710  175.2430  136.4910 C   0  0  0  0  0  0  0  0  0  0  0  0
  191.8710  176.0090  137.9790 S   0  0  0  0  0  0  0  0  0  0  0  0
  190.2010  176.1910  137.8410 C   0  0  0  0  0  0  0  0  0  0  0  0
  187.8780  176.6080  138.4520 N   0  0  0  0  0  0  0  0  0  0  0  0
  188.3760  175.8480  136.1610 C   0  0  0  0  0  2  0  0  0  0  0  0
  190.6610  174.7190  134.5940 F   0  0  0  0  0  0  0  0  0  0  0  0
  190.8350  175.1850  135.8500 C   0  0  0  0  0  0  0  0  0  0  0  0
  189.7910  175.7020  136.6170 C   0  0  0  0  0  0  0  0  0  0  0  0
  189.2740  176.9590  138.7320 C   0  0  1  0  0  3  0  0  0  0  0  0
  187.4420  176.1260  137.3170 C   0  0  0  0  0  0  0  0  0  0  0  0
  193.3980  174.8750  135.9230 C   0  0  0  0  0  2  0  0  0  0  0  0
  195.5490  175.6040  136.2200 N   0  0  0  0  0  1  0  0  0  0  0  0
  194.4670  175.0340  136.9040 N   0  0  0  0  0  0  0  0  0  0  0  0
  194.8940  173.7060  137.3540 C   0  0  0  0  0  3  0  0  0  0  0  0
  195.2690  173.7440  138.7050 O   0  0  0  0  0  0  0  0  0  0  0  0
  196.6610  173.9020  138.6950 C   0  0  0  0  0  1  0  0  0  0  0  0
  195.9830  173.2750  136.5860 O   0  0  0  0  0  0  0  0  0  0  0  0
  195.6120  172.0110  136.1150 C   0  0  0  0  0  1  0  0  0  0  0  0
  189.5740  176.7090  140.2010 C   0  0  0  0  0  2  0  0  0  0  0  0
  189.3930  178.2400  141.1350 S   0  0  0  0  0  0  0  0  0  0  0  0
  187.0280  177.5750  141.9140 F   0  0  0  0  0  0  0  0  0  0  0  0
  188.3100  177.8750  142.2710 C   0  0  2  0  0  3  0  0  0  0  0  0
  188.6880  177.9910  143.7120 C   0  0  0  0  0  2  0  0  0  0  0  0
  189.9100  177.1810  144.0070 C   0  0  0  0  0  0  0  0  0  0  0  0
  190.4270  177.0890  145.3480 N   0  0  0  0  0  0  0  0  0  0  0  0
  190.4560  176.5360  143.0670 O   0  0  0  0  0  0  0  0  0  0  0  0
  191.2850  175.9580  145.7020 C   0  0  1  0  0  3  0  0  0  0  0  0
  191.8710  175.3140  144.4610 C   0  0  0  0  0  1  0  0  0  0  0  0
  192.3980  176.3600  146.6650 C   0  0  0  0  0  2  0  0  0  0  0  0
  192.2490  175.6540  148.0020 C   0  0  0  0  0  2  0  0  0  0  0  0
  193.1540  176.1810  148.9190 O   0  0  0  0  0  1  0  0  0  0  0  0
  190.0230  178.0880  146.3420 C   0  0  0  0  0  2  0  0  0  0  0  0
  186.9960  177.6010  147.4960 C   0  0  1  0  0  3  0  0  0  0  0  0
  188.1670  176.6800  147.2040 C   0  0  0  0  0  2  0  0  0  0  0  0
  188.9960  178.4900  148.5910 C   0  0  0  0  0  2  0  0  0  0  0  0
  189.4250  177.4330  147.5840 C   0  0  2  0  0  3  0  0  0  0  0  0
  187.4830  178.5950  148.5300 C   0  0  0  0  0  2  0  0  0  0  0  0
  186.6150  178.3200  146.2870 N   0  0  0  0  0  2  0  0  0  0  0  0
  185.2610  178.6780  145.9870 C   0  0  0  0  0  0  0  0  0  0  0  0
  184.3180  178.3120  146.7360 O   0  0  0  0  0  0  0  0  0  0  0  0
  184.9730  179.5240  144.7970 C   0  0  0  0  0  2  0  0  0  0  0  0
  184.3010  178.7020  143.7060 C   0  0  0  0  0  2  0  0  0  0  0  0
  182.8510  178.8410  143.7960 N   0  0  0  0  0  1  0  0  0  0  0  0
  186.0860  175.8520  137.1450 O   0  0  0  0  0  0  0  0  0  0  0  0
  183.1770  175.7370  135.7500 C   0  0  1  0  0  3  0  0  0  0  0  0
  185.4680  175.8010  135.8650 C   0  0  1  0  0  3  0  0  0  0  0  0
  185.0560  174.4160  135.5730 C   0  0  0  0  0  0  0  0  0  0  0  0
  184.3010  176.5960  135.8820 O   0  0  0  0  0  0  0  0  0  0  0  0
  185.8940  173.4190  135.3040 C   0  0  0  0  0  2  0  0  0  0  0  0
  183.6060  174.3040  135.4850 C   0  0  0  0  0  2  0  0  0  0  0  0
  182.2540  175.8310  136.9740 C   0  0  1  0  0  3  0  0  0  0  0  0
  183.2120  179.0470  139.6670 C   0  0  0  0  0  3  0  0  0  0  0  0
  182.6290  179.3200  138.4240 C   0  0  0  0  0  3  0  0  0  0  0  0
  183.5040  177.7300  140.0330 C   0  0  0  0  0  3  0  0  0  0  0  0
  183.2130  176.6840  139.1560 C   0  0  0  0  0  3  0  0  0  0  0  0
  182.6360  176.9500  137.9030 C   0  0  0  0  0  0  0  0  0  0  0  0
  182.3380  178.2730  137.5460 C   0  0  0  0  0  3  0  0  0  0  0  0
  180.9260  175.9610  136.5580 O   0  0  0  0  0  0  0  0  0  0  0  0
  180.3910  174.6750  136.6690 C   0  0  0  0  0  2  0  0  0  0  0  0
  178.9910  174.9750  138.5110 C   0  0  0  0  0  1  0  0  0  0  0  0
  179.9950  172.9060  138.1450 C   0  0  0  0  0  1  0  0  0  0  0  0
  180.2210  174.3380  138.0750 N   0  0  0  0  0  0  0  0  0  0  0  0
  1  2  1  0  0  0  0
  3  2  1  0  0  0  0
  3  9  1  0  0  0  0
  4  9  1  0  0  0  0
  5  8  1  0  0  0  0
  5 10  1  0  0  0  0
  6  7  1  0  0  0  0
  7  1  2  0  0  0  0
  7  8  1  0  0  0  0
  8  3  2  0  0  0  0
  9 19  1  1  0  0  0
 10  4  2  0  0  0  0
 11  1  1  0  0  0  0
 11 13  1  0  0  0  0
 12 13  1  0  0  0  0
 13 14  1  0  0  0  0
 14 15  1  0  0  0  0
 16 15  1  0  0  0  0
 17 14  1  0  0  0  0
 18 17  1  0  0  0  0
 19 20  1  0  0  0  0
 20 22  1  0  0  0  0
 22 21  1  1  0  0  0
 22 23  1  0  0  0  0
 23 24  1  0  0  0  0
 24 25  1  0  0  0  0
 25 27  1  0  0  0  0
 25 32  1  0  0  0  0
 26 24  2  0  0  0  0
 27 28  1  6  0  0  0
 27 29  1  0  0  0  0
 29 30  1  0  0  0  0
 30 31  1  0  0  0  0
 33 38  1  6  0  0  0
 33 37  1  0  0  0  0
 34 33  1  0  0  0  0
 34 36  1  0  0  0  0
 36 32  1  6  0  0  0
 36 35  1  0  0  0  0
 37 35  1  0  0  0  0
 39 38  1  0  0  0  0
 39 40  2  0  0  0  0
 41 39  1  0  0  0  0
 42 43  1  0  0  0  0
 42 41  1  0  0  0  0
 44 10  1  0  0  0  0
 45 48  1  0  0  0  0
 45 51  1  1  0  0  0
 46 48  1  0  0  0  0
 46 44  1  1  0  0  0
 47 46  1  0  0  0  0
 49 47  2  0  0  0  0
 50 47  1  0  0  0  0
 50 45  1  0  0  0  0
 51 58  1  6  0  0  0
 51 56  1  0  0  0  0
 52 54  1  0  0  0  0
 53 52  2  0  0  0  0
 55 54  2  0  0  0  0
 56 55  1  0  0  0  0
 57 56  2  0  0  0  0
 57 53  1  0  0  0  0
 58 59  1  0  0  0  0
 59 62  1  0  0  0  0
 62 61  1  0  0  0  0
 62 60  1  0  0  0  0
M  END
>  <MODEL>
4

>  <REMARK>
 VINA RESULT:      -5.3      2.531      8.567
  Name = 
  24 active torsions:
  status: ('A' for Active; 'I' for Inactive)
    1  A    between atoms: C_1  and  C_24
    2  A    between atoms: C_2  and  N_8
    3  A    between atoms: C_3  and  C_11
    4  A    between atoms: O_6  and  C_10
    5  A    between atoms: C_7  and  C_57
    6  A    between atoms: C_10  and  O_20
    7  A    between atoms: C_10  and  N_59
    8  A    between atoms: C_11  and  C_55
    9  A    between atoms: N_12  and  C_19
   10  A    between atoms: N_12  and  C_61
   11  A    between atoms: C_16  and  C_44
   12  A    between atoms: C_19  and  C_35
   13  A    between atoms: C_24  and  N_59
   14  A    between atoms: C_25  and  C_47
   15  A    between atoms: O_27  and  C_28
   16  A    between atoms: O_27  and  C_47
   17  A    between atoms: C_28  and  N_42
   18  A    between atoms: C_30  and  O_48
   19  A    between atoms: C_36  and  C_47
   20  A    between atoms: C_37  and  S_45
   21  A    between atoms: C_37  and  C_58
   22  A    between atoms: C_44  and  C_49
   23  A    between atoms: O_48  and  C_60
   24  A    between atoms: C_57  and  C_61
                            x       y       z     vdW  Elec       q    Type
                         _______ _______ _______ _____ _____    ______ ____

>  <TORSDO>
F 24

$$$$
=
 OpenBabel10222418343D

 62 66  0  0  1  0  0  0  0  0999 V2000
  192.3520  176.3390  136.4320 C   0  0  0  0  0  0  0  0  0  0  0  0
  190.7330  176.3320  135.9650 S   0  0  0  0  0  0  0  0  0  0  0  0
  190.1170  176.4380  137.5300 C   0  0  0  0  0  0  0  0  0  0  0  0
  188.5420  176.7800  139.3600 N   0  0  0  0  0  0  0  0  0  0  0  0
  190.9140  176.3840  139.9040 C   0  0  0  0  0  2  0  0  0  0  0  0
  193.5670  176.2720  138.5260 F   0  0  0  0  0  0  0  0  0  0  0  0
  192.4160  176.3590  137.8240 C   0  0  0  0  0  0  0  0  0  0  0  0
  191.1620  176.4310  138.4310 C   0  0  0  0  0  0  0  0  0  0  0  0
  188.6920  176.3170  137.9770 C   0  0  1  0  0  3  0  0  0  0  0  0
  189.5040  176.8090  140.2460 C   0  0  0  0  0  0  0  0  0  0  0  0
  193.4870  176.1650  135.4820 C   0  0  0  0  0  2  0  0  0  0  0  0
  195.6170  176.9260  135.8400 N   0  0  0  0  0  1  0  0  0  0  0  0
  194.7380  175.8900  136.1790 N   0  0  0  0  0  0  0  0  0  0  0  0
  195.3100  174.6490  135.6470 C   0  0  0  0  0  3  0  0  0  0  0  0
  194.3050  173.6900  135.4540 O   0  0  0  0  0  0  0  0  0  0  0  0
  194.9860  172.4850  135.2350 C   0  0  0  0  0  1  0  0  0  0  0  0
  196.2610  174.1460  136.5450 O   0  0  0  0  0  0  0  0  0  0  0  0
  195.5700  173.9990  137.7520 C   0  0  0  0  0  1  0  0  0  0  0  0
  187.7540  177.1030  137.0750 C   0  0  0  0  0  2  0  0  0  0  0  0
  186.5910  178.0500  138.0760 S   0  0  0  0  0  0  0  0  0  0  0  0
  184.8470  178.0580  136.1780 F   0  0  0  0  0  0  0  0  0  0  0  0
  185.1520  177.6780  137.4520 C   0  0  2  0  0  3  0  0  0  0  0  0
  184.1200  177.0320  138.3180 C   0  0  0  0  0  2  0  0  0  0  0  0
  182.8680  177.8500  138.3520 C   0  0  0  0  0  0  0  0  0  0  0  0
  181.5770  177.2160  138.4290 N   0  0  0  0  0  0  0  0  0  0  0  0
  182.9610  179.1090  138.3610 O   0  0  0  0  0  0  0  0  0  0  0  0
  180.4390  177.9840  138.9370 C   0  0  1  0  0  3  0  0  0  0  0  0
  179.1330  177.2710  138.6460 C   0  0  0  0  0  1  0  0  0  0  0  0
  180.5620  178.2760  140.4300 C   0  0  0  0  0  2  0  0  0  0  0  0
  180.6030  179.7710  140.6950 C   0  0  0  0  0  2  0  0  0  0  0  0
  180.6410  180.0070  142.0660 O   0  0  0  0  0  1  0  0  0  0  0  0
  181.4490  175.8010  138.0690 C   0  0  0  0  0  2  0  0  0  0  0  0
  180.7790  173.4890  135.8470 C   0  0  1  0  0  3  0  0  0  0  0  0
  179.9830  174.1200  136.9750 C   0  0  0  0  0  2  0  0  0  0  0  0
  180.8890  175.9250  135.6310 C   0  0  0  0  0  2  0  0  0  0  0  0
  180.3640  175.5850  137.0170 C   0  0  2  0  0  3  0  0  0  0  0  0
  181.1510  174.6170  134.9060 C   0  0  0  0  0  2  0  0  0  0  0  0
  181.9960  172.8860  136.3730 N   0  0  0  0  0  2  0  0  0  0  0  0
  182.7210  171.8610  135.6810 C   0  0  0  0  0  0  0  0  0  0  0  0
  182.2820  171.3800  134.6040 O   0  0  0  0  0  0  0  0  0  0  0  0
  184.0240  171.3910  136.2250 C   0  0  0  0  0  2  0  0  0  0  0  0
  184.5080  172.3200  137.3290 C   0  0  0  0  0  2  0  0  0  0  0  0
  185.9210  172.6290  137.1390 N   0  0  0  0  0  1  0  0  0  0  0  0
  189.2470  177.2430  141.5470 O   0  0  0  0  0  0  0  0  0  0  0  0
  188.0050  177.0470  144.5190 C   0  0  1  0  0  3  0  0  0  0  0  0
  189.1310  176.3490  142.6460 C   0  0  1  0  0  3  0  0  0  0  0  0
  190.1210  176.7050  143.6770 C   0  0  0  0  0  0  0  0  0  0  0  0
  187.8490  176.4880  143.2230 O   0  0  0  0  0  0  0  0  0  0  0  0
  191.4340  176.5260  143.5600 C   0  0  0  0  0  2  0  0  0  0  0  0
  189.4710  177.1580  144.8990 C   0  0  0  0  0  2  0  0  0  0  0  0
  187.2890  178.4010  144.6340 C   0  0  1  0  0  3  0  0  0  0  0  0
  183.7230  178.4590  142.2270 C   0  0  0  0  0  3  0  0  0  0  0  0
  184.9810  178.3790  141.6190 C   0  0  0  0  0  3  0  0  0  0  0  0
  183.6180  178.5380  143.6180 C   0  0  0  0  0  3  0  0  0  0  0  0
  184.7720  178.5390  144.4040 C   0  0  0  0  0  3  0  0  0  0  0  0
  186.0390  178.4690  143.8010 C   0  0  0  0  0  0  0  0  0  0  0  0
  186.1360  178.3810  142.4050 C   0  0  0  0  0  3  0  0  0  0  0  0
  187.0070  178.6770  145.9760 O   0  0  0  0  0  0  0  0  0  0  0  0
  187.0160  177.4290  146.6040 C   0  0  0  0  0  2  0  0  0  0  0  0
  188.5620  176.8180  148.2420 C   0  0  0  0  0  1  0  0  0  0  0  0
  187.7150  178.9870  148.1990 C   0  0  0  0  0  1  0  0  0  0  0  0
  187.3560  177.5940  148.0100 N   0  0  0  0  0  0  0  0  0  0  0  0
  1  7  2  0  0  0  0
  2  1  1  0  0  0  0
  2  3  1  0  0  0  0
  3  9  1  0  0  0  0
  3  8  2  0  0  0  0
  4 10  2  0  0  0  0
  5 10  1  0  0  0  0
  7  8  1  0  0  0  0
  7  6  1  0  0  0  0
  8  5  1  0  0  0  0
  9 19  1  6  0  0  0
  9  4  1  0  0  0  0
 10 44  1  0  0  0  0
 11 13  1  0  0  0  0
 11  1  1  0  0  0  0
 12 13  1  0  0  0  0
 14 13  1  0  0  0  0
 14 17  1  0  0  0  0
 15 14  1  0  0  0  0
 16 15  1  0  0  0  0
 17 18  1  0  0  0  0
 19 20  1  0  0  0  0
 22 21  1  1  0  0  0
 22 20  1  0  0  0  0
 22 23  1  0  0  0  0
 23 24  1  0  0  0  0
 24 26  2  0  0  0  0
 24 25  1  0  0  0  0
 25 27  1  0  0  0  0
 27 28  1  1  0  0  0
 27 29  1  0  0  0  0
 29 30  1  0  0  0  0
 30 31  1  0  0  0  0
 32 25  1  0  0  0  0
 33 38  1  1  0  0  0
 33 34  1  0  0  0  0
 34 36  1  0  0  0  0
 35 36  1  0  0  0  0
 36 32  1  1  0  0  0
 37 35  1  0  0  0  0
 37 33  1  0  0  0  0
 39 41  1  0  0  0  0
 39 38  1  0  0  0  0
 40 39  2  0  0  0  0
 41 42  1  0  0  0  0
 43 42  1  0  0  0  0
 45 51  1  6  0  0  0
 45 50  1  0  0  0  0
 46 44  1  6  0  0  0
 46 48  1  0  0  0  0
 46 47  1  0  0  0  0
 47 50  1  0  0  0  0
 48 45  1  0  0  0  0
 49 47  2  0  0  0  0
 51 58  1  1  0  0  0
 52 54  1  0  0  0  0
 53 52  2  0  0  0  0
 53 57  1  0  0  0  0
 54 55  2  0  0  0  0
 56 55  1  0  0  0  0
 56 51  1  0  0  0  0
 57 56  2  0  0  0  0
 58 59  1  0  0  0  0
 59 62  1  0  0  0  0
 62 61  1  0  0  0  0
 62 60  1  0  0  0  0
M  END
>  <MODEL>
5

>  <REMARK>
 VINA RESULT:      -5.3      2.218      3.923
  Name = 
  24 active torsions:
  status: ('A' for Active; 'I' for Inactive)
    1  A    between atoms: C_1  and  C_24
    2  A    between atoms: C_2  and  N_8
    3  A    between atoms: C_3  and  C_11
    4  A    between atoms: O_6  and  C_10
    5  A    between atoms: C_7  and  C_57
    6  A    between atoms: C_10  and  O_20
    7  A    between atoms: C_10  and  N_59
    8  A    between atoms: C_11  and  C_55
    9  A    between atoms: N_12  and  C_19
   10  A    between atoms: N_12  and  C_61
   11  A    between atoms: C_16  and  C_44
   12  A    between atoms: C_19  and  C_35
   13  A    between atoms: C_24  and  N_59
   14  A    between atoms: C_25  and  C_47
   15  A    between atoms: O_27  and  C_28
   16  A    between atoms: O_27  and  C_47
   17  A    between atoms: C_28  and  N_42
   18  A    between atoms: C_30  and  O_48
   19  A    between atoms: C_36  and  C_47
   20  A    between atoms: C_37  and  S_45
   21  A    between atoms: C_37  and  C_58
   22  A    between atoms: C_44  and  C_49
   23  A    between atoms: O_48  and  C_60
   24  A    between atoms: C_57  and  C_61
                            x       y       z     vdW  Elec       q    Type
                         _______ _______ _______ _____ _____    ______ ____

>  <TORSDO>
F 24

$$$$
=
 OpenBabel10222418343D

 62 66  0  0  1  0  0  0  0  0999 V2000
  191.5160  176.4450  136.7580 C   0  0  0  0  0  0  0  0  0  0  0  0
  191.0930  176.7420  138.3620 S   0  0  0  0  0  0  0  0  0  0  0  0
  189.5060  177.1990  138.0260 C   0  0  0  0  0  0  0  0  0  0  0  0
  187.1530  177.7450  138.3600 N   0  0  0  0  0  0  0  0  0  0  0  0
  188.0270  177.6530  136.0560 C   0  0  0  0  0  2  0  0  0  0  0  0
  190.4690  176.7330  134.5940 F   0  0  0  0  0  0  0  0  0  0  0  0
  190.4310  176.7650  135.9430 C   0  0  0  0  0  0  0  0  0  0  0  0
  189.3060  177.1700  136.6600 C   0  0  0  0  0  0  0  0  0  0  0  0
  188.4920  177.7870  138.9580 C   0  0  1  0  0  3  0  0  0  0  0  0
  186.9110  177.7010  137.0750 C   0  0  0  0  0  0  0  0  0  0  0  0
  192.8920  176.0770  136.3210 C   0  0  0  0  0  2  0  0  0  0  0  0
  193.8950  176.0010  138.3790 N   0  0  0  0  0  1  0  0  0  0  0  0
  193.5480  175.1980  137.2850 N   0  0  0  0  0  0  0  0  0  0  0  0
  194.7980  174.7060  136.6980 C   0  0  0  0  0  3  0  0  0  0  0  0
  195.5820  175.7780  136.2470 O   0  0  0  0  0  0  0  0  0  0  0  0
  196.8960  175.2920  136.2380 C   0  0  0  0  0  1  0  0  0  0  0  0
  194.5110  173.8600  135.6200 O   0  0  0  0  0  0  0  0  0  0  0  0
  195.0470  172.6210  135.9840 C   0  0  0  0  0  1  0  0  0  0  0  0
  188.4720  177.0610  140.2930 C   0  0  0  0  0  2  0  0  0  0  0  0
  188.2040  178.2400  141.6300 S   0  0  0  0  0  0  0  0  0  0  0  0
  185.9580  177.1410  142.2520 F   0  0  0  0  0  0  0  0  0  0  0  0
  187.2250  177.4600  142.6450 C   0  0  2  0  0  3  0  0  0  0  0  0
  187.6710  177.2040  144.0470 C   0  0  0  0  0  2  0  0  0  0  0  0
  189.0730  176.6840  144.0720 C   0  0  0  0  0  0  0  0  0  0  0  0
  189.9330  176.9380  145.1990 N   0  0  0  0  0  0  0  0  0  0  0  0
  189.4780  175.9750  143.1080 O   0  0  0  0  0  0  0  0  0  0  0  0
  191.0780  176.0570  145.4310 C   0  0  1  0  0  3  0  0  0  0  0  0
  191.9720  175.9980  144.2070 C   0  0  0  0  0  1  0  0  0  0  0  0
  191.8860  176.4750  146.6560 C   0  0  0  0  0  2  0  0  0  0  0  0
  192.2340  175.2750  147.5200 C   0  0  0  0  0  2  0  0  0  0  0  0
  193.2710  175.6010  148.3880 O   0  0  0  0  0  1  0  0  0  0  0  0
  189.5990  178.0250  146.1250 C   0  0  0  0  0  2  0  0  0  0  0  0
  186.8480  178.1890  147.8960 C   0  0  1  0  0  3  0  0  0  0  0  0
  187.7000  177.0400  147.3870 C   0  0  0  0  0  2  0  0  0  0  0  0
  189.1780  178.5880  148.5290 C   0  0  0  0  0  2  0  0  0  0  0  0
  189.1440  177.4880  147.4790 C   0  0  2  0  0  3  0  0  0  0  0  0
  187.7470  179.0260  148.7820 C   0  0  0  0  0  2  0  0  0  0  0  0
  186.3920  179.0030  146.7770 N   0  0  0  0  0  2  0  0  0  0  0  0
  185.3870  178.5680  145.8540 C   0  0  0  0  0  0  0  0  0  0  0  0
  184.9030  177.4080  145.9310 O   0  0  0  0  0  0  0  0  0  0  0  0
  184.8850  179.5100  144.8180 C   0  0  0  0  0  2  0  0  0  0  0  0
  183.7380  178.8850  144.0370 C   0  0  0  0  0  2  0  0  0  0  0  0
  182.4870  179.5650  144.3540 N   0  0  0  0  0  1  0  0  0  0  0  0
  185.5970  177.6930  136.6090 O   0  0  0  0  0  0  0  0  0  0  0  0
  182.8810  175.9590  136.4040 C   0  0  1  0  0  3  0  0  0  0  0  0
  185.0340  176.5870  135.9150 C   0  0  1  0  0  3  0  0  0  0  0  0
  185.0830  175.3900  136.7740 C   0  0  0  0  0  0  0  0  0  0  0  0
  183.6750  176.8550  135.6390 O   0  0  0  0  0  0  0  0  0  0  0  0
  186.1940  174.7340  137.0950 C   0  0  0  0  0  2  0  0  0  0  0  0
  183.7430  174.9360  137.1230 C   0  0  0  0  0  2  0  0  0  0  0  0
  181.9700  176.7150  137.3820 C   0  0  1  0  0  3  0  0  0  0  0  0
  179.2860  174.1930  139.6050 C   0  0  0  0  0  3  0  0  0  0  0  0
  179.9720  175.2300  140.2480 C   0  0  0  0  0  3  0  0  0  0  0  0
  179.4820  173.9590  138.2420 C   0  0  0  0  0  3  0  0  0  0  0  0
  180.3660  174.7620  137.5190 C   0  0  0  0  0  3  0  0  0  0  0  0
  181.0650  175.7990  138.1580 C   0  0  0  0  0  0  0  0  0  0  0  0
  180.8570  176.0330  139.5250 C   0  0  0  0  0  3  0  0  0  0  0  0
  182.7450  177.4970  138.2450 O   0  0  0  0  0  0  0  0  0  0  0  0
  182.0200  178.6820  138.3970 C   0  0  0  0  0  2  0  0  0  0  0  0
  182.0420  180.3950  139.9820 C   0  0  0  0  0  1  0  0  0  0  0  0
  183.8890  178.9930  139.7660 C   0  0  0  0  0  1  0  0  0  0  0  0
  182.8660  179.6940  139.0120 N   0  0  0  0  0  0  0  0  0  0  0  0
  1  2  1  0  0  0  0
  3  2  1  0  0  0  0
  3  9  1  0  0  0  0
  4  9  1  0  0  0  0
  5  8  1  0  0  0  0
  5 10  1  0  0  0  0
  6  7  1  0  0  0  0
  7  8  1  0  0  0  0
  7  1  2  0  0  0  0
  8  3  2  0  0  0  0
  9 19  1  1  0  0  0
 10  4  2  0  0  0  0
 11  1  1  0  0  0  0
 11 13  1  0  0  0  0
 13 12  1  0  0  0  0
 14 13  1  0  0  0  0
 15 14  1  0  0  0  0
 16 15  1  0  0  0  0
 17 18  1  0  0  0  0
 17 14  1  0  0  0  0
 19 20  1  0  0  0  0
 20 22  1  0  0  0  0
 22 21  1  1  0  0  0
 22 23  1  0  0  0  0
 23 24  1  0  0  0  0
 24 25  1  0  0  0  0
 25 27  1  0  0  0  0
 25 32  1  0  0  0  0
 26 24  2  0  0  0  0
 27 28  1  6  0  0  0
 27 29  1  0  0  0  0
 29 30  1  0  0  0  0
 30 31  1  0  0  0  0
 33 38  1  6  0  0  0
 33 37  1  0  0  0  0
 34 36  1  0  0  0  0
 34 33  1  0  0  0  0
 35 37  1  0  0  0  0
 36 32  1  6  0  0  0
 36 35  1  0  0  0  0
 39 40  2  0  0  0  0
 39 38  1  0  0  0  0
 41 39  1  0  0  0  0
 42 43  1  0  0  0  0
 42 41  1  0  0  0  0
 44 10  1  0  0  0  0
 45 50  1  0  0  0  0
 45 51  1  1  0  0  0
 46 44  1  1  0  0  0
 46 47  1  0  0  0  0
 47 49  2  0  0  0  0
 47 50  1  0  0  0  0
 48 46  1  0  0  0  0
 48 45  1  0  0  0  0
 51 56  1  0  0  0  0
 51 58  1  1  0  0  0
 52 53  1  0  0  0  0
 54 52  2  0  0  0  0
 55 56  2  0  0  0  0
 55 54  1  0  0  0  0
 56 57  1  0  0  0  0
 57 53  2  0  0  0  0
 58 59  1  0  0  0  0
 59 62  1  0  0  0  0
 62 61  1  0  0  0  0
 62 60  1  0  0  0  0
M  END
>  <MODEL>
6

>  <REMARK>
 VINA RESULT:      -4.5      2.595      8.426
  Name = 
  24 active torsions:
  status: ('A' for Active; 'I' for Inactive)
    1  A    between atoms: C_1  and  C_24
    2  A    between atoms: C_2  and  N_8
    3  A    between atoms: C_3  and  C_11
    4  A    between atoms: O_6  and  C_10
    5  A    between atoms: C_7  and  C_57
    6  A    between atoms: C_10  and  O_20
    7  A    between atoms: C_10  and  N_59
    8  A    between atoms: C_11  and  C_55
    9  A    between atoms: N_12  and  C_19
   10  A    between atoms: N_12  and  C_61
   11  A    between atoms: C_16  and  C_44
   12  A    between atoms: C_19  and  C_35
   13  A    between atoms: C_24  and  N_59
   14  A    between atoms: C_25  and  C_47
   15  A    between atoms: O_27  and  C_28
   16  A    between atoms: O_27  and  C_47
   17  A    between atoms: C_28  and  N_42
   18  A    between atoms: C_30  and  O_48
   19  A    between atoms: C_36  and  C_47
   20  A    between atoms: C_37  and  S_45
   21  A    between atoms: C_37  and  C_58
   22  A    between atoms: C_44  and  C_49
   23  A    between atoms: O_48  and  C_60
   24  A    between atoms: C_57  and  C_61
                            x       y       z     vdW  Elec       q    Type
                         _______ _______ _______ _____ _____    ______ ____

>  <TORSDO>
F 24

$$$$
=
 OpenBabel10222418343D

 62 66  0  0  1  0  0  0  0  0999 V2000
  186.8510  177.1130  145.0720 C   0  0  0  0  0  0  0  0  0  0  0  0
  185.4340  177.9280  144.6640 S   0  0  0  0  0  0  0  0  0  0  0  0
  185.9380  178.3560  143.1130 C   0  0  0  0  0  0  0  0  0  0  0  0
  185.8530  179.1280  140.8020 N   0  0  0  0  0  0  0  0  0  0  0  0
  187.9870  178.2570  141.6770 C   0  0  0  0  0  2  0  0  0  0  0  0
  189.0220  176.7680  144.0560 F   0  0  0  0  0  0  0  0  0  0  0  0
  187.7520  177.2270  144.0150 C   0  0  0  0  0  0  0  0  0  0  0  0
  187.2290  177.9100  142.9160 C   0  0  0  0  0  0  0  0  0  0  0  0
  185.2650  179.2720  142.1380 C   0  0  1  0  0  3  0  0  0  0  0  0
  187.0640  178.6950  140.5620 C   0  0  0  0  0  0  0  0  0  0  0  0
  187.1140  176.5390  146.4210 C   0  0  0  0  0  2  0  0  0  0  0  0
  186.7880  178.7300  147.0050 N   0  0  0  0  0  1  0  0  0  0  0  0
  187.4790  177.5720  147.3850 N   0  0  0  0  0  0  0  0  0  0  0  0
  188.9100  177.8600  147.2480 C   0  0  0  0  0  3  0  0  0  0  0  0
  189.5580  176.8120  146.5780 O   0  0  0  0  0  0  0  0  0  0  0  0
  190.8370  176.7500  147.1460 C   0  0  0  0  0  1  0  0  0  0  0  0
  189.4820  178.0200  148.5160 O   0  0  0  0  0  0  0  0  0  0  0  0
  188.4350  178.4700  149.3270 C   0  0  0  0  0  1  0  0  0  0  0  0
  183.7690  179.0080  142.0630 C   0  0  0  0  0  2  0  0  0  0  0  0
  183.3980  177.9820  140.6280 S   0  0  0  0  0  0  0  0  0  0  0  0
  181.1340  179.1620  140.2750 F   0  0  0  0  0  0  0  0  0  0  0  0
  182.3680  178.8760  139.7690 C   0  0  2  0  0  3  0  0  0  0  0  0
  182.7270  179.2770  138.3750 C   0  0  0  0  0  2  0  0  0  0  0  0
  182.0380  180.5490  137.9950 C   0  0  0  0  0  0  0  0  0  0  0  0
  180.9440  180.5420  137.0590 N   0  0  0  0  0  0  0  0  0  0  0  0
  182.3980  181.6270  138.5470 O   0  0  0  0  0  0  0  0  0  0  0  0
  179.9970  181.6580  137.0650 C   0  0  1  0  0  3  0  0  0  0  0  0
  179.8320  182.2200  138.4630 C   0  0  0  0  0  1  0  0  0  0  0  0
  180.4050  182.7640  136.0950 C   0  0  0  0  0  2  0  0  0  0  0  0
  180.5490  184.0960  136.8110 C   0  0  0  0  0  2  0  0  0  0  0  0
  181.8940  184.4460  136.8930 O   0  0  0  0  0  1  0  0  0  0  0  0
  180.7630  179.3860  136.1750 C   0  0  0  0  0  2  0  0  0  0  0  0
  179.2970  176.5760  137.0020 C   0  0  1  0  0  3  0  0  0  0  0  0
  179.1150  178.0200  137.4330 C   0  0  0  0  0  2  0  0  0  0  0  0
  179.0530  177.9750  135.0090 C   0  0  0  0  0  2  0  0  0  0  0  0
  179.3250  178.8770  136.2030 C   0  0  2  0  0  3  0  0  0  0  0  0
  179.0420  176.5420  135.5090 C   0  0  0  0  0  2  0  0  0  0  0  0
  180.6660  176.1490  137.2610 N   0  0  0  0  0  2  0  0  0  0  0  0
  181.0910  174.7850  137.1530 C   0  0  0  0  0  0  0  0  0  0  0  0
  180.2620  173.8720  136.8970 O   0  0  0  0  0  0  0  0  0  0  0  0
  182.5330  174.4520  137.3070 C   0  0  0  0  0  2  0  0  0  0  0  0
  183.3320  175.6950  137.6700 C   0  0  0  0  0  2  0  0  0  0  0  0
  184.7080  175.5610  137.2020 N   0  0  0  0  0  1  0  0  0  0  0  0
  187.5370  178.6240  139.2520 O   0  0  0  0  0  0  0  0  0  0  0  0
  189.3950  176.5260  137.6500 C   0  0  1  0  0  3  0  0  0  0  0  0
  187.4560  177.4400  138.4690 C   0  0  1  0  0  3  0  0  0  0  0  0
  187.5660  177.7870  137.0410 C   0  0  0  0  0  0  0  0  0  0  0  0
  188.5450  176.5990  138.7860 O   0  0  0  0  0  0  0  0  0  0  0  0
  186.6260  178.4170  136.3410 C   0  0  0  0  0  2  0  0  0  0  0  0
  188.7800  177.2340  136.4560 C   0  0  0  0  0  2  0  0  0  0  0  0
  190.7970  177.0680  137.9650 C   0  0  1  0  0  3  0  0  0  0  0  0
  191.6780  177.0150  142.1760 C   0  0  0  0  0  3  0  0  0  0  0  0
  190.5210  176.3950  141.6910 C   0  0  0  0  0  3  0  0  0  0  0  0
  192.5460  177.6690  141.2970 C   0  0  0  0  0  3  0  0  0  0  0  0
  192.2550  177.7070  139.9320 C   0  0  0  0  0  3  0  0  0  0  0  0
  191.0910  177.0950  139.4390 C   0  0  0  0  0  0  0  0  0  0  0  0
  190.2300  176.4330  140.3250 C   0  0  0  0  0  3  0  0  0  0  0  0
  191.7600  176.3190  137.2800 O   0  0  0  0  0  0  0  0  0  0  0  0
  191.5310  174.9990  137.6770 C   0  0  0  0  0  2  0  0  0  0  0  0
  191.0870  173.9400  135.6450 C   0  0  0  0  0  1  0  0  0  0  0  0
  193.2220  174.7640  136.0810 C   0  0  0  0  0  1  0  0  0  0  0  0
  192.0890  174.0890  136.6880 N   0  0  0  0  0  0  0  0  0  0  0  0
  1 11  1  0  0  0  0
  2  1  1  0  0  0  0
  3  2  1  0  0  0  0
  4  9  1  0  0  0  0
  5  8  1  0  0  0  0
  7  6  1  0  0  0  0
  7  1  2  0  0  0  0
  8  3  2  0  0  0  0
  8  7  1  0  0  0  0
  9 19  1  6  0  0  0
  9  3  1  0  0  0  0
 10  4  2  0  0  0  0
 10  5  1  0  0  0  0
 11 13  1  0  0  0  0
 12 13  1  0  0  0  0
 14 13  1  0  0  0  0
 14 17  1  0  0  0  0
 15 16  1  0  0  0  0
 15 14  1  0  0  0  0
 17 18  1  0  0  0  0
 20 19  1  0  0  0  0
 22 21  1  6  0  0  0
 22 20  1  0  0  0  0
 23 22  1  0  0  0  0
 24 23  1  0  0  0  0
 24 26  2  0  0  0  0
 25 27  1  0  0  0  0
 25 24  1  0  0  0  0
 27 28  1  1  0  0  0
 29 30  1  0  0  0  0
 29 27  1  0  0  0  0
 30 31  1  0  0  0  0
 32 25  1  0  0  0  0
 33 38  1  6  0  0  0
 33 34  1  0  0  0  0
 35 37  1  0  0  0  0
 35 36  1  0  0  0  0
 36 32  1  6  0  0  0
 36 34  1  0  0  0  0
 37 33  1  0  0  0  0
 39 38  1  0  0  0  0
 39 41  1  0  0  0  0
 40 39  2  0  0  0  0
 41 42  1  0  0  0  0
 43 42  1  0  0  0  0
 44 10  1  0  0  0  0
 45 51  1  1  0  0  0
 45 48  1  0  0  0  0
 46 48  1  0  0  0  0
 46 44  1  1  0  0  0
 47 46  1  0  0  0  0
 49 47  2  0  0  0  0
 50 47  1  0  0  0  0
 50 45  1  0  0  0  0
 51 58  1  6  0  0  0
 51 56  1  0  0  0  0
 53 52  1  0  0  0  0
 54 52  2  0  0  0  0
 55 54  1  0  0  0  0
 56 55  2  0  0  0  0
 56 57  1  0  0  0  0
 57 53  2  0  0  0  0
 58 59  1  0  0  0  0
 60 62  1  0  0  0  0
 61 62  1  0  0  0  0
 62 59  1  0  0  0  0
M  END
>  <MODEL>
7

>  <REMARK>
 VINA RESULT:      -4.4      3.439      8.097
  Name = 
  24 active torsions:
  status: ('A' for Active; 'I' for Inactive)
    1  A    between atoms: C_1  and  C_24
    2  A    between atoms: C_2  and  N_8
    3  A    between atoms: C_3  and  C_11
    4  A    between atoms: O_6  and  C_10
    5  A    between atoms: C_7  and  C_57
    6  A    between atoms: C_10  and  O_20
    7  A    between atoms: C_10  and  N_59
    8  A    between atoms: C_11  and  C_55
    9  A    between atoms: N_12  and  C_19
   10  A    between atoms: N_12  and  C_61
   11  A    between atoms: C_16  and  C_44
   12  A    between atoms: C_19  and  C_35
   13  A    between atoms: C_24  and  N_59
   14  A    between atoms: C_25  and  C_47
   15  A    between atoms: O_27  and  C_28
   16  A    between atoms: O_27  and  C_47
   17  A    between atoms: C_28  and  N_42
   18  A    between atoms: C_30  and  O_48
   19  A    between atoms: C_36  and  C_47
   20  A    between atoms: C_37  and  S_45
   21  A    between atoms: C_37  and  C_58
   22  A    between atoms: C_44  and  C_49
   23  A    between atoms: O_48  and  C_60
   24  A    between atoms: C_57  and  C_61
                            x       y       z     vdW  Elec       q    Type
                         _______ _______ _______ _____ _____    ______ ____

>  <TORSDO>
F 24

$$$$
=
 OpenBabel10222418343D

 62 66  0  0  1  0  0  0  0  0999 V2000
  187.7680  177.4710  145.0770 C   0  0  0  0  0  0  0  0  0  0  0  0
  188.3680  177.5960  143.5080 S   0  0  0  0  0  0  0  0  0  0  0  0
  186.8850  177.9690  142.8000 C   0  0  0  0  0  0  0  0  0  0  0  0
  185.2480  178.7220  141.1560 N   0  0  0  0  0  0  0  0  0  0  0  0
  184.4610  178.1210  143.4140 C   0  0  0  0  0  2  0  0  0  0  0  0
  185.5850  177.5270  146.1230 F   0  0  0  0  0  0  0  0  0  0  0  0
  186.3880  177.6590  145.0440 C   0  0  0  0  0  0  0  0  0  0  0  0
  185.9030  177.9530  143.7700 C   0  0  0  0  0  0  0  0  0  0  0  0
  186.5500  178.0730  141.3430 C   0  0  1  0  0  3  0  0  0  0  0  0
  184.2930  178.7490  142.0490 C   0  0  0  0  0  0  0  0  0  0  0  0
  188.5920  177.0480  146.2450 C   0  0  0  0  0  2  0  0  0  0  0  0
  190.5470  176.7710  145.0840 N   0  0  0  0  0  1  0  0  0  0  0  0
  189.9720  177.5070  146.1270 N   0  0  0  0  0  0  0  0  0  0  0  0
  190.6920  177.1510  147.3540 C   0  0  0  0  0  3  0  0  0  0  0  0
  191.1500  175.8270  147.2850 O   0  0  0  0  0  0  0  0  0  0  0  0
  192.4940  175.8840  147.6780 C   0  0  0  0  0  1  0  0  0  0  0  0
  189.8400  177.2870  148.4570 O   0  0  0  0  0  0  0  0  0  0  0  0
  189.5070  178.6450  148.4870 C   0  0  0  0  0  1  0  0  0  0  0  0
  187.6140  178.8440  140.5790 C   0  0  0  0  0  2  0  0  0  0  0  0
  188.3360  177.7950  139.3030 S   0  0  0  0  0  0  0  0  0  0  0  0
  186.0850  177.6320  138.0580 F   0  0  0  0  0  0  0  0  0  0  0  0
  187.3880  178.0360  138.0220 C   0  0  2  0  0  3  0  0  0  0  0  0
  187.9770  178.5850  136.7640 C   0  0  0  0  0  2  0  0  0  0  0  0
  187.7440  177.6520  135.6180 C   0  0  0  0  0  0  0  0  0  0  0  0
  188.4700  176.4130  135.5180 N   0  0  0  0  0  0  0  0  0  0  0  0
  186.8630  177.9460  134.7610 O   0  0  0  0  0  0  0  0  0  0  0  0
  187.9150  175.3280  134.7070 C   0  0  1  0  0  3  0  0  0  0  0  0
  188.5300  173.9960  135.0910 C   0  0  0  0  0  1  0  0  0  0  0  0
  186.3940  175.2560  134.8070 C   0  0  0  0  0  2  0  0  0  0  0  0
  185.9070  173.8190  134.7490 C   0  0  0  0  0  2  0  0  0  0  0  0
  184.8660  173.6340  135.6540 O   0  0  0  0  0  1  0  0  0  0  0  0
  189.7070  176.2420  136.2860 C   0  0  0  0  0  2  0  0  0  0  0  0
  192.8880  175.5120  136.5740 C   0  0  1  0  0  3  0  0  0  0  0  0
  191.6150  174.6860  136.6160 C   0  0  0  0  0  2  0  0  0  0  0  0
  191.5430  176.0260  134.5950 C   0  0  0  0  0  2  0  0  0  0  0  0
  190.6700  175.2810  135.5940 C   0  0  2  0  0  3  0  0  0  0  0  0
  192.9220  176.1730  135.2110 C   0  0  0  0  0  2  0  0  0  0  0  0
  192.8460  176.5440  137.6020 N   0  0  0  0  0  2  0  0  0  0  0  0
  192.0570  176.4270  138.7930 C   0  0  0  0  0  0  0  0  0  0  0  0
  191.2950  175.4400  138.9640 O   0  0  0  0  0  0  0  0  0  0  0  0
  192.1710  177.4660  139.8520 C   0  0  0  0  0  2  0  0  0  0  0  0
  191.4460  177.0240  141.1150 C   0  0  0  0  0  2  0  0  0  0  0  0
  191.9040  177.8080  142.2560 N   0  0  0  0  0  1  0  0  0  0  0  0
  183.0780  179.3700  141.7580 O   0  0  0  0  0  0  0  0  0  0  0  0
  180.9710  178.7370  139.3970 C   0  0  1  0  0  3  0  0  0  0  0  0
  181.8850  178.6410  141.5000 C   0  0  1  0  0  3  0  0  0  0  0  0
  180.7310  179.5580  141.5360 C   0  0  0  0  0  0  0  0  0  0  0  0
  181.9500  178.0930  140.2000 O   0  0  0  0  0  0  0  0  0  0  0  0
  180.2490  180.1230  142.6390 C   0  0  0  0  0  2  0  0  0  0  0  0
  180.1000  179.6640  140.2270 C   0  0  0  0  0  2  0  0  0  0  0  0
  181.6140  179.4770  138.2150 C   0  0  1  0  0  3  0  0  0  0  0  0
  182.6410  176.7420  135.0560 C   0  0  0  0  0  3  0  0  0  0  0  0
  183.0670  176.4960  136.3660 C   0  0  0  0  0  3  0  0  0  0  0  0
  181.8950  177.8870  134.7630 C   0  0  0  0  0  3  0  0  0  0  0  0
  181.5750  178.7890  135.7800 C   0  0  0  0  0  3  0  0  0  0  0  0
  182.0060  178.5530  137.0960 C   0  0  0  0  0  0  0  0  0  0  0  0
  182.7470  177.3980  137.3840 C   0  0  0  0  0  3  0  0  0  0  0  0
  180.7520  180.4770  137.7550 O   0  0  0  0  0  0  0  0  0  0  0  0
  181.2220  181.6520  138.3490 C   0  0  0  0  0  2  0  0  0  0  0  0
  180.4090  182.3140  136.2640 C   0  0  0  0  0  1  0  0  0  0  0  0
  179.5190  183.2460  138.2040 C   0  0  0  0  0  1  0  0  0  0  0  0
  180.7560  182.8020  137.5880 N   0  0  0  0  0  0  0  0  0  0  0  0
  1 11  1  0  0  0  0
  2  1  1  0  0  0  0
  3  2  1  0  0  0  0
  3  8  2  0  0  0  0
  4  9  1  0  0  0  0
  4 10  2  0  0  0  0
  5  8  1  0  0  0  0
  7  1  2  0  0  0  0
  7  6  1  0  0  0  0
  8  7  1  0  0  0  0
  9 19  1  6  0  0  0
  9  3  1  0  0  0  0
 10  5  1  0  0  0  0
 12 13  1  0  0  0  0
 13 11  1  0  0  0  0
 13 14  1  0  0  0  0
 14 17  1  0  0  0  0
 15 14  1  0  0  0  0
 15 16  1  0  0  0  0
 17 18  1  0  0  0  0
 20 19  1  0  0  0  0
 22 21  1  6  0  0  0
 22 20  1  0  0  0  0
 23 22  1  0  0  0  0
 24 23  1  0  0  0  0
 25 24  1  0  0  0  0
 25 32  1  0  0  0  0
 26 24  2  0  0  0  0
 27 29  1  0  0  0  0
 27 28  1  1  0  0  0
 27 25  1  0  0  0  0
 30 29  1  0  0  0  0
 30 31  1  0  0  0  0
 33 34  1  0  0  0  0
 33 38  1  1  0  0  0
 35 37  1  0  0  0  0
 35 36  1  0  0  0  0
 36 32  1  1  0  0  0
 36 34  1  0  0  0  0
 37 33  1  0  0  0  0
 38 39  1  0  0  0  0
 39 40  2  0  0  0  0
 39 41  1  0  0  0  0
 41 42  1  0  0  0  0
 42 43  1  0  0  0  0
 44 10  1  0  0  0  0
 45 51  1  6  0  0  0
 45 48  1  0  0  0  0
 45 50  1  0  0  0  0
 46 47  1  0  0  0  0
 46 44  1  6  0  0  0
 47 49  2  0  0  0  0
 48 46  1  0  0  0  0
 50 47  1  0  0  0  0
 51 58  1  6  0  0  0
 52 53  1  0  0  0  0
 53 57  2  0  0  0  0
 54 52  2  0  0  0  0
 54 55  1  0  0  0  0
 55 56  2  0  0  0  0
 56 57  1  0  0  0  0
 56 51  1  0  0  0  0
 58 59  1  0  0  0  0
 60 62  1  0  0  0  0
 62 61  1  0  0  0  0
 62 59  1  0  0  0  0
M  END
>  <MODEL>
8

>  <REMARK>
 VINA RESULT:      -4.4      3.312      9.860
  Name = 
  24 active torsions:
  status: ('A' for Active; 'I' for Inactive)
    1  A    between atoms: C_1  and  C_24
    2  A    between atoms: C_2  and  N_8
    3  A    between atoms: C_3  and  C_11
    4  A    between atoms: O_6  and  C_10
    5  A    between atoms: C_7  and  C_57
    6  A    between atoms: C_10  and  O_20
    7  A    between atoms: C_10  and  N_59
    8  A    between atoms: C_11  and  C_55
    9  A    between atoms: N_12  and  C_19
   10  A    between atoms: N_12  and  C_61
   11  A    between atoms: C_16  and  C_44
   12  A    between atoms: C_19  and  C_35
   13  A    between atoms: C_24  and  N_59
   14  A    between atoms: C_25  and  C_47
   15  A    between atoms: O_27  and  C_28
   16  A    between atoms: O_27  and  C_47
   17  A    between atoms: C_28  and  N_42
   18  A    between atoms: C_30  and  O_48
   19  A    between atoms: C_36  and  C_47
   20  A    between atoms: C_37  and  S_45
   21  A    between atoms: C_37  and  C_58
   22  A    between atoms: C_44  and  C_49
   23  A    between atoms: O_48  and  C_60
   24  A    between atoms: C_57  and  C_61
                            x       y       z     vdW  Elec       q    Type
                         _______ _______ _______ _____ _____    ______ ____

>  <TORSDO>
F 24

$$$$
=
 OpenBabel10222418343D

 62 66  0  0  1  0  0  0  0  0999 V2000
  193.8300  176.3360  136.6180 C   0  0  0  0  0  0  0  0  0  0  0  0
  192.3330  176.0280  135.9080 S   0  0  0  0  0  0  0  0  0  0  0  0
  191.4520  176.1410  137.3400 C   0  0  0  0  0  0  0  0  0  0  0  0
  189.5560  176.3480  138.8600 N   0  0  0  0  0  0  0  0  0  0  0  0
  191.8340  176.3900  139.8020 C   0  0  0  0  0  2  0  0  0  0  0  0
  194.6680  176.6220  138.8720 F   0  0  0  0  0  0  0  0  0  0  0  0
  193.6530  176.4670  137.9940 C   0  0  0  0  0  0  0  0  0  0  0  0
  192.3180  176.3730  138.3890 C   0  0  0  0  0  0  0  0  0  0  0  0
  190.0070  175.8180  137.5690 C   0  0  1  0  0  3  0  0  0  0  0  0
  190.3390  176.6000  139.8780 C   0  0  0  0  0  0  0  0  0  0  0  0
  195.1210  176.2850  135.8770 C   0  0  0  0  0  2  0  0  0  0  0  0
  197.3440  175.7610  136.0520 N   0  0  0  0  0  1  0  0  0  0  0  0
  196.0770  175.3890  136.5200 N   0  0  0  0  0  0  0  0  0  0  0  0
  195.8290  174.0220  136.0510 C   0  0  0  0  0  3  0  0  0  0  0  0
  195.5950  173.1670  137.1380 O   0  0  0  0  0  0  0  0  0  0  0  0
  196.7210  173.3020  137.9600 C   0  0  0  0  0  1  0  0  0  0  0  0
  196.9400  173.5620  135.3330 O   0  0  0  0  0  0  0  0  0  0  0  0
  196.6220  172.2450  134.9860 C   0  0  0  0  0  1  0  0  0  0  0  0
  189.1270  176.3710  136.4600 C   0  0  0  0  0  2  0  0  0  0  0  0
  188.8100  175.0910  135.2310 S   0  0  0  0  0  0  0  0  0  0  0  0
  187.3910  173.7340  136.9010 F   0  0  0  0  0  0  0  0  0  0  0  0
  187.4300  174.4170  135.7210 C   0  0  2  0  0  3  0  0  0  0  0  0
  186.2380  174.4420  134.8190 C   0  0  0  0  0  2  0  0  0  0  0  0
  185.3350  175.5830  135.1650 C   0  0  0  0  0  0  0  0  0  0  0  0
  184.3130  175.4350  136.1680 N   0  0  0  0  0  0  0  0  0  0  0  0
  185.5150  176.6970  134.5970 O   0  0  0  0  0  0  0  0  0  0  0  0
  183.7840  176.6310  136.8240 C   0  0  1  0  0  3  0  0  0  0  0  0
  182.3260  176.8450  136.4650 C   0  0  0  0  0  1  0  0  0  0  0  0
  183.9530  176.5780  138.3400 C   0  0  0  0  0  2  0  0  0  0  0  0
  182.9140  175.6710  138.9770 C   0  0  0  0  0  2  0  0  0  0  0  0
  182.0940  176.4110  139.8230 O   0  0  0  0  0  1  0  0  0  0  0  0
  183.8800  174.0890  136.5590 C   0  0  0  0  0  2  0  0  0  0  0  0
  182.1130  171.7400  135.1150 C   0  0  1  0  0  3  0  0  0  0  0  0
  182.8750  172.9460  134.5970 C   0  0  0  0  0  2  0  0  0  0  0  0
  184.3840  171.6950  136.0250 C   0  0  0  0  0  2  0  0  0  0  0  0
  184.1230  173.0760  135.4440 C   0  0  2  0  0  3  0  0  0  0  0  0
  183.1280  170.8670  135.8240 C   0  0  0  0  0  2  0  0  0  0  0  0
  181.1000  172.1640  136.0730 N   0  0  0  0  0  2  0  0  0  0  0  0
  180.3450  173.3730  135.9250 C   0  0  0  0  0  0  0  0  0  0  0  0
  180.5860  174.1700  134.9810 O   0  0  0  0  0  0  0  0  0  0  0  0
  179.2410  173.6680  136.8780 C   0  0  0  0  0  2  0  0  0  0  0  0
  179.5290  174.9460  137.6520 C   0  0  0  0  0  2  0  0  0  0  0  0
  179.0550  176.1040  136.9010 N   0  0  0  0  0  1  0  0  0  0  0  0
  189.8030  177.0770  141.0730 O   0  0  0  0  0  0  0  0  0  0  0  0
  188.8960  176.8030  144.1590 C   0  0  1  0  0  3  0  0  0  0  0  0
  190.3000  176.6880  142.3470 C   0  0  1  0  0  3  0  0  0  0  0  0
  190.6460  177.8900  143.1280 C   0  0  0  0  0  0  0  0  0  0  0  0
  189.2850  176.0030  143.0520 O   0  0  0  0  0  0  0  0  0  0  0  0
  191.6800  178.6860  142.8710 C   0  0  0  0  0  2  0  0  0  0  0  0
  189.7900  178.0230  144.2990 C   0  0  0  0  0  2  0  0  0  0  0  0
  187.4150  177.1970  144.0720 C   0  0  1  0  0  3  0  0  0  0  0  0
  185.8880  178.8910  147.7200 C   0  0  0  0  0  3  0  0  0  0  0  0
  185.0710  178.8080  146.5870 C   0  0  0  0  0  3  0  0  0  0  0  0
  187.2100  178.4410  147.6680 C   0  0  0  0  0  3  0  0  0  0  0  0
  187.7180  177.9080  146.4820 C   0  0  0  0  0  3  0  0  0  0  0  0
  186.9060  177.8290  145.3380 C   0  0  0  0  0  0  0  0  0  0  0  0
  185.5790  178.2750  145.4000 C   0  0  0  0  0  3  0  0  0  0  0  0
  187.2130  178.0440  142.9770 O   0  0  0  0  0  0  0  0  0  0  0  0
  185.8570  177.9060  142.6670 C   0  0  0  0  0  2  0  0  0  0  0  0
  186.0240  178.9490  140.5860 C   0  0  0  0  0  1  0  0  0  0  0  0
  183.9820  178.9170  141.7060 C   0  0  0  0  0  1  0  0  0  0  0  0
  185.4130  179.0600  141.9000 N   0  0  0  0  0  0  0  0  0  0  0  0
  1  7  2  0  0  0  0
  2  1  1  0  0  0  0
  2  3  1  0  0  0  0
  3  9  1  0  0  0  0
  3  8  2  0  0  0  0
  4 10  2  0  0  0  0
  5 10  1  0  0  0  0
  7  8  1  0  0  0  0
  7  6  1  0  0  0  0
  8  5  1  0  0  0  0
  9 19  1  6  0  0  0
  9  4  1  0  0  0  0
 10 44  1  0  0  0  0
 11 13  1  0  0  0  0
 11  1  1  0  0  0  0
 12 13  1  0  0  0  0
 14 13  1  0  0  0  0
 14 15  1  0  0  0  0
 15 16  1  0  0  0  0
 17 14  1  0  0  0  0
 18 17  1  0  0  0  0
 20 22  1  0  0  0  0
 20 19  1  0  0  0  0
 22 21  1  6  0  0  0
 23 24  1  0  0  0  0
 23 22  1  0  0  0  0
 24 25  1  0  0  0  0
 25 32  1  0  0  0  0
 25 27  1  0  0  0  0
 26 24  2  0  0  0  0
 27 28  1  1  0  0  0
 27 29  1  0  0  0  0
 29 30  1  0  0  0  0
 30 31  1  0  0  0  0
 33 37  1  0  0  0  0
 33 38  1  1  0  0  0
 34 33  1  0  0  0  0
 34 36  1  0  0  0  0
 36 35  1  0  0  0  0
 36 32  1  1  0  0  0
 37 35  1  0  0  0  0
 39 38  1  0  0  0  0
 39 41  1  0  0  0  0
 40 39  2  0  0  0  0
 41 42  1  0  0  0  0
 43 42  1  0  0  0  0
 45 51  1  6  0  0  0
 45 50  1  0  0  0  0
 46 44  1  6  0  0  0
 46 48  1  0  0  0  0
 46 47  1  0  0  0  0
 47 50  1  0  0  0  0
 48 45  1  0  0  0  0
 49 47  2  0  0  0  0
 51 58  1  6  0  0  0
 51 56  1  0  0  0  0
 53 52  2  0  0  0  0
 54 52  1  0  0  0  0
 55 54  2  0  0  0  0
 56 57  2  0  0  0  0
 56 55  1  0  0  0  0
 57 53  1  0  0  0  0
 59 58  1  0  0  0  0
 60 62  1  0  0  0  0
 61 62  1  0  0  0  0
 62 59  1  0  0  0  0
M  END
>  <MODEL>
9

>  <REMARK>
 VINA RESULT:      -4.3      1.782      2.403
  Name = 
  24 active torsions:
  status: ('A' for Active; 'I' for Inactive)
    1  A    between atoms: C_1  and  C_24
    2  A    between atoms: C_2  and  N_8
    3  A    between atoms: C_3  and  C_11
    4  A    between atoms: O_6  and  C_10
    5  A    between atoms: C_7  and  C_57
    6  A    between atoms: C_10  and  O_20
    7  A    between atoms: C_10  and  N_59
    8  A    between atoms: C_11  and  C_55
    9  A    between atoms: N_12  and  C_19
   10  A    between atoms: N_12  and  C_61
   11  A    between atoms: C_16  and  C_44
   12  A    between atoms: C_19  and  C_35
   13  A    between atoms: C_24  and  N_59
   14  A    between atoms: C_25  and  C_47
   15  A    between atoms: O_27  and  C_28
   16  A    between atoms: O_27  and  C_47
   17  A    between atoms: C_28  and  N_42
   18  A    between atoms: C_30  and  O_48
   19  A    between atoms: C_36  and  C_47
   20  A    between atoms: C_37  and  S_45
   21  A    between atoms: C_37  and  C_58
   22  A    between atoms: C_44  and  C_49
   23  A    between atoms: O_48  and  C_60
   24  A    between atoms: C_57  and  C_61
                            x       y       z     vdW  Elec       q    Type
                         _______ _______ _______ _____ _____    ______ ____

>  <TORSDO>
F 24

$$$$
