=
 OpenBabel10222421173D

 37 40  0  0  1  0  0  0  0  0999 V2000
  188.3820  178.0110  140.9220 C   0  0  0  0  0  0  0  0  0  0  0  0
  186.8750  176.1920  144.4330 F   0  0  0  0  0  0  0  0  0  0  0  0
  187.2510  178.4170  141.4950 C   0  0  0  0  0  3  0  0  0  0  0  0
  187.4010  176.8060  143.3410 C   0  0  0  0  0  0  0  0  0  0  0  0
  189.1710  176.9220  141.5320 C   0  0  0  0  0  0  0  0  0  0  0  0
  186.7410  177.8210  142.7470 C   0  0  0  0  0  0  0  0  0  0  0  0
  190.2260  176.5210  140.9690 O   0  0  0  0  0  0  0  0  0  0  0  0
  188.7000  176.2530  142.8020 C   0  0  1  0  0  3  0  0  0  0  0  0
  183.3560  179.0390  143.6820 C   0  0  0  0  0  0  0  0  0  0  0  0
  184.1880  178.5040  142.6440 C   0  0  0  0  0  0  0  0  0  0  0  0
  181.4440  178.8690  142.1060 C   0  0  0  0  0  3  0  0  0  0  0  0
  181.8940  179.3070  143.4910 C   0  0  0  0  0  2  0  0  0  0  0  0
  183.7130  178.1070  141.4640 C   0  0  0  0  0  3  0  0  0  0  0  0
  185.3520  178.7420  144.5370 N   0  0  0  0  0  0  0  0  0  0  0  0
  184.0300  179.1660  144.7760 N   0  0  0  0  0  0  0  0  0  0  0  0
  182.2730  178.3220  141.1910 C   0  0  0  0  0  3  0  0  0  0  0  0
  185.4810  178.3620  143.3000 C   0  0  0  0  0  0  0  0  0  0  0  0
  189.9120  177.3920  144.6170 C   0  0  0  0  0  3  0  0  0  0  0  0
  189.7380  176.3030  143.8780 C   0  0  0  0  0  3  0  0  0  0  0  0
  192.0600  177.9970  145.3470 O   0  0  0  0  0  0  0  0  0  0  0  0
  190.9520  177.4770  145.6460 C   0  0  0  0  0  0  0  0  0  0  0  0
  190.7490  176.8860  147.0140 C   0  0  1  0  0  3  0  0  0  0  0  0
  191.9720  176.8280  147.6800 O   0  0  0  0  0  1  0  0  0  0  0  0
  189.7680  177.7050  147.8370 C   0  0  0  0  0  2  0  0  0  0  0  0
  187.6660  177.5600  148.9320 O   0  0  0  0  0  0  0  0  0  0  0  0
  188.3910  177.0680  147.8320 C   0  0  1  0  0  3  0  0  0  0  0  0
  187.3600  178.1140  147.6740 C   0  0  0  0  0  2  0  0  0  0  0  0
  188.8010  178.6250  139.6290 C   0  0  0  0  0  2  0  0  0  0  0  0
  187.7030  178.5500  138.6770 N   0  0  0  0  0  2  0  0  0  0  0  0
  188.0970  177.6510  137.6010 C   0  0  0  0  0  2  0  0  0  0  0  0
  189.5520  177.8910  137.2260 C   0  0  0  0  0  2  0  0  0  0  0  0
  190.1270  176.6760  136.5210 C   0  0  0  0  0  2  0  0  0  0  0  0
  190.8930  175.8250  137.5210 C   0  0  0  0  0  2  0  0  0  0  0  0
  192.2880  175.5360  137.0010 C   0  0  0  0  0  2  0  0  0  0  0  0
  192.9730  176.8280  138.8820 O   0  0  0  0  0  1  0  0  0  0  0  0
  193.2940  175.9830  138.0050 C   0  0  0  0  0  0  0  0  0  0  0  0
  194.5740  175.4400  138.0010 O   0  0  0  0  0  0  0  0  0  0  0  0
  1  3  2  0  0  0  0
  1  5  1  0  0  0  0
  3  6  1  0  0  0  0
  4  2  1  0  0  0  0
  5  8  1  0  0  0  0
  6 17  1  0  0  0  0
  6  4  2  0  0  0  0
  7  5  2  0  0  0  0
  8  4  1  0  0  0  0
  8 19  1  1  0  0  0
  9 15  2  0  0  0  0
 10 17  1  0  0  0  0
 10  9  1  0  0  0  0
 11 12  1  0  0  0  0
 12  9  1  0  0  0  0
 13 10  2  0  0  0  0
 14 15  1  0  0  0  0
 16 13  1  0  0  0  0
 16 11  2  0  0  0  0
 17 14  2  0  0  0  0
 18 21  1  0  0  0  0
 19 18  2  0  0  0  0
 20 21  2  0  0  0  0
 21 22  1  0  0  0  0
 22 23  1  1  0  0  0
 22 24  1  0  0  0  0
 26 24  1  1  0  0  0
 26 25  1  0  0  0  0
 27 26  1  0  0  0  0
 27 25  1  0  0  0  0
 28  1  1  0  0  0  0
 29 28  1  0  0  0  0
 30 29  1  0  0  0  0
 31 30  1  0  0  0  0
 32 31  1  0  0  0  0
 32 33  1  0  0  0  0
 34 33  1  0  0  0  0
 34 36  1  0  0  0  0
 36 35  1  0  0  0  0
 37 36  2  0  0  0  0
M  END
>  <MODEL>
1

>  <REMARK>
 VINA RESULT:      -8.1      0.000      0.000
  Name = 
  14 active torsions:
  status: ('A' for Active; 'I' for Inactive)
    1  A    between atoms: C_3  and  C_9
    2  A    between atoms: C_6  and  C_28
    3  A    between atoms: C_8  and  C_30
    4  A    between atoms: C_8  and  C_37
    5  A    between atoms: C_9  and  N_13
    6  A    between atoms: N_13  and  C_20
    7  A    between atoms: C_15  and  C_33
    8  A    between atoms: C_16  and  C_30
    9  A    between atoms: C_20  and  C_35
   10  A    between atoms: C_22  and  C_32
   11  A    between atoms: C_24  and  C_28
   12  A    between atoms: C_24  and  C_33
   13  A    between atoms: C_26  and  C_34
   14  A    between atoms: C_35  and  C_37
                            x       y       z     vdW  Elec       q    Type
                         _______ _______ _______ _____ _____    ______ ____

>  <TORSDO>
F 14

$$$$
=
 OpenBabel10222421173D

 37 40  0  0  1  0  0  0  0  0999 V2000
  185.3790  178.8480  145.1410 C   0  0  0  0  0  0  0  0  0  0  0  0
  184.1290  177.9190  141.2070 F   0  0  0  0  0  0  0  0  0  0  0  0
  186.2460  178.7220  144.1390 C   0  0  0  0  0  3  0  0  0  0  0  0
  184.5100  178.2760  142.4620 C   0  0  0  0  0  0  0  0  0  0  0  0
  183.9320  178.7020  144.8900 C   0  0  0  0  0  0  0  0  0  0  0  0
  185.8170  178.4450  142.7530 C   0  0  0  0  0  0  0  0  0  0  0  0
  183.1170  178.7930  145.8490 O   0  0  0  0  0  0  0  0  0  0  0  0
  183.4210  178.4000  143.5020 C   0  0  1  0  0  3  0  0  0  0  0  0
  188.7150  177.8790  140.4950 C   0  0  0  0  0  0  0  0  0  0  0  0
  188.1720  177.6970  141.8100 C   0  0  2  0  0  3  0  0  0  0  0  0
  190.6630  176.5180  141.2150 C   0  0  0  0  0  3  0  0  0  0  0  0
  190.0470  177.3270  140.0860 C   0  0  0  0  0  3  0  0  0  0  0  0
  188.7550  176.9420  142.7390 C   0  0  0  0  0  3  0  0  0  0  0  0
  186.7170  178.7800  140.5040 N   0  0  0  0  0  0  0  0  0  0  0  0
  187.8670  178.4960  139.7420 N   0  0  0  0  0  0  0  0  0  0  0  0
  190.0710  176.3440  142.4170 C   0  0  0  0  0  3  0  0  0  0  0  0
  186.8670  178.3400  141.7180 C   0  0  0  0  0  0  0  0  0  0  0  0
  181.2300  179.0390  142.5800 C   0  0  0  0  0  3  0  0  0  0  0  0
  182.4170  179.4100  143.0430 C   0  0  0  0  0  3  0  0  0  0  0  0
  179.7240  180.8120  142.9010 O   0  0  0  0  0  0  0  0  0  0  0  0
  180.2490  180.0100  142.0850 C   0  0  0  0  0  0  0  0  0  0  0  0
  179.8050  180.0080  140.6480 C   0  0  1  0  0  3  0  0  0  0  0  0
  179.8540  181.3080  140.1460 O   0  0  0  0  0  1  0  0  0  0  0  0
  180.6810  179.1080  139.7930 C   0  0  0  0  0  2  0  0  0  0  0  0
  182.8510  179.7910  139.1120 O   0  0  0  0  0  0  0  0  0  0  0  0
  181.4860  179.9210  138.7970 C   0  0  1  0  0  3  0  0  0  0  0  0
  182.3770  179.0270  138.0290 C   0  0  0  0  0  2  0  0  0  0  0  0
  185.8960  179.0720  146.5230 C   0  0  0  0  0  2  0  0  0  0  0  0
  186.5910  177.8780  146.9820 N   0  0  0  0  0  2  0  0  0  0  0  0
  187.4590  178.2570  148.0880 C   0  0  0  0  0  2  0  0  0  0  0  0
  188.9170  178.1630  147.6630 C   0  0  0  0  0  2  0  0  0  0  0  0
  189.0340  177.4730  146.3160 C   0  0  0  0  0  2  0  0  0  0  0  0
  190.4600  176.9830  146.1200 C   0  0  0  0  0  2  0  0  0  0  0  0
  191.1090  176.7120  147.4630 C   0  0  0  0  0  2  0  0  0  0  0  0
  193.1860  175.7720  148.1540 O   0  0  0  0  0  1  0  0  0  0  0  0
  192.2860  175.8190  147.2750 C   0  0  0  0  0  0  0  0  0  0  0  0
  192.3740  175.0080  146.1480 O   0  0  0  0  0  0  0  0  0  0  0  0
  1 28  1  0  0  0  0
  2  4  1  0  0  0  0
  3  1  2  0  0  0  0
  4  6  2  0  0  0  0
  4  8  1  0  0  0  0
  5  1  1  0  0  0  0
  5  7  2  0  0  0  0
  6  3  1  0  0  0  0
  8 19  1  6  0  0  0
  8  5  1  0  0  0  0
  9 10  1  0  0  0  0
 10 13  1  6  0  0  0
 11 16  1  0  0  0  0
 12  9  1  0  0  0  0
 12 11  2  0  0  0  0
 14 17  2  0  0  0  0
 15  9  2  0  0  0  0
 15 14  1  0  0  0  0
 16 13  2  0  0  0  0
 17 10  1  0  0  0  0
 17  6  1  0  0  0  0
 18 19  2  0  0  0  0
 21 18  1  0  0  0  0
 21 20  2  0  0  0  0
 22 23  1  6  0  0  0
 22 21  1  0  0  0  0
 24 22  1  0  0  0  0
 26 25  1  0  0  0  0
 26 24  1  1  0  0  0
 27 26  1  0  0  0  0
 27 25  1  0  0  0  0
 28 29  1  0  0  0  0
 29 30  1  0  0  0  0
 31 30  1  0  0  0  0
 32 31  1  0  0  0  0
 33 32  1  0  0  0  0
 33 34  1  0  0  0  0
 36 34  1  0  0  0  0
 36 35  1  0  0  0  0
 37 36  2  0  0  0  0
M  END
>  <MODEL>
2

>  <REMARK>
 VINA RESULT:      -8.0      3.485      8.791
  Name = 
  14 active torsions:
  status: ('A' for Active; 'I' for Inactive)
    1  A    between atoms: C_3  and  C_9
    2  A    between atoms: C_6  and  C_28
    3  A    between atoms: C_8  and  C_30
    4  A    between atoms: C_8  and  C_37
    5  A    between atoms: C_9  and  N_13
    6  A    between atoms: N_13  and  C_20
    7  A    between atoms: C_15  and  C_33
    8  A    between atoms: C_16  and  C_30
    9  A    between atoms: C_20  and  C_35
   10  A    between atoms: C_22  and  C_32
   11  A    between atoms: C_24  and  C_28
   12  A    between atoms: C_24  and  C_33
   13  A    between atoms: C_26  and  C_34
   14  A    between atoms: C_35  and  C_37
                            x       y       z     vdW  Elec       q    Type
                         _______ _______ _______ _____ _____    ______ ____

>  <TORSDO>
F 14

$$$$
=
 OpenBabel10222421173D

 37 40  0  0  1  0  0  0  0  0999 V2000
  188.9530  178.1330  140.2410 C   0  0  0  0  0  0  0  0  0  0  0  0
  187.6210  175.9840  143.6340 F   0  0  0  0  0  0  0  0  0  0  0  0
  187.7730  178.3740  140.8080 C   0  0  0  0  0  3  0  0  0  0  0  0
  188.0870  176.7070  142.5820 C   0  0  0  0  0  0  0  0  0  0  0  0
  189.8570  177.1190  140.8180 C   0  0  0  0  0  0  0  0  0  0  0  0
  187.3180  177.6640  142.0210 C   0  0  0  0  0  0  0  0  0  0  0  0
  190.9620  176.8740  140.2600 O   0  0  0  0  0  0  0  0  0  0  0  0
  189.4510  176.3390  142.0460 C   0  0  1  0  0  3  0  0  0  0  0  0
  184.2260  178.5760  143.8700 C   0  0  0  0  0  0  0  0  0  0  0  0
  185.6010  178.1810  143.9650 C   0  0  2  0  0  3  0  0  0  0  0  0
  184.2300  178.8380  146.3390 C   0  0  0  0  0  3  0  0  0  0  0  0
  183.3950  178.9100  145.0710 C   0  0  0  0  0  3  0  0  0  0  0  0
  186.2780  178.1770  145.1110 C   0  0  0  0  0  3  0  0  0  0  0  0
  184.9720  178.3260  141.8250 N   0  0  0  0  0  0  0  0  0  0  0  0
  183.8700  178.6670  142.6320 N   0  0  0  0  0  0  0  0  0  0  0  0
  185.5400  178.5080  146.3510 C   0  0  0  0  0  3  0  0  0  0  0  0
  185.9940  178.0240  142.5700 C   0  0  0  0  0  0  0  0  0  0  0  0
  190.2110  177.1890  144.2280 C   0  0  0  0  0  3  0  0  0  0  0  0
  190.4580  176.4620  143.1450 C   0  0  0  0  0  3  0  0  0  0  0  0
  192.1200  178.2060  145.1410 O   0  0  0  0  0  0  0  0  0  0  0  0
  191.2010  177.3590  145.2960 C   0  0  0  0  0  0  0  0  0  0  0  0
  191.1840  176.4890  146.5220 C   0  0  1  0  0  3  0  0  0  0  0  0
  192.4910  176.1480  146.8660 O   0  0  0  0  0  1  0  0  0  0  0  0
  190.5240  177.1920  147.6970 C   0  0  0  0  0  2  0  0  0  0  0  0
  188.2580  176.9280  148.3570 O   0  0  0  0  0  0  0  0  0  0  0  0
  189.0780  177.5300  147.3850 C   0  0  1  0  0  3  0  0  0  0  0  0
  188.4980  178.3080  148.4990 C   0  0  0  0  0  2  0  0  0  0  0  0
  189.3150  178.8530  138.9860 C   0  0  0  0  0  2  0  0  0  0  0  0
  188.2100  178.7730  138.0430 N   0  0  0  0  0  2  0  0  0  0  0  0
  188.3710  177.5560  137.2580 C   0  0  0  0  0  2  0  0  0  0  0  0
  187.0480  176.8090  137.1760 C   0  0  0  0  0  2  0  0  0  0  0  0
  186.0090  177.6460  136.4520 C   0  0  0  0  0  2  0  0  0  0  0  0
  184.6350  177.3670  137.0380 C   0  0  0  0  0  2  0  0  0  0  0  0
  184.5910  177.7910  138.4930 C   0  0  0  0  0  2  0  0  0  0  0  0
  184.5070  180.1200  138.9890 O   0  0  0  0  0  1  0  0  0  0  0  0
  183.8810  179.0950  138.6080 C   0  0  0  0  0  0  0  0  0  0  0  0
  182.5380  179.1930  138.2590 O   0  0  0  0  0  0  0  0  0  0  0  0
  1  3  2  0  0  0  0
  1  5  1  0  0  0  0
  3  6  1  0  0  0  0
  4  2  1  0  0  0  0
  5  8  1  0  0  0  0
  6 17  1  0  0  0  0
  6  4  2  0  0  0  0
  7  5  2  0  0  0  0
  8  4  1  0  0  0  0
  8 19  1  1  0  0  0
  9 10  1  0  0  0  0
  9 12  1  0  0  0  0
 10 13  1  6  0  0  0
 11 16  1  0  0  0  0
 12 11  2  0  0  0  0
 13 16  2  0  0  0  0
 14 17  2  0  0  0  0
 14 15  1  0  0  0  0
 15  9  2  0  0  0  0
 17 10  1  0  0  0  0
 18 21  1  0  0  0  0
 19 18  2  0  0  0  0
 20 21  2  0  0  0  0
 21 22  1  0  0  0  0
 22 23  1  1  0  0  0
 22 24  1  0  0  0  0
 25 27  1  0  0  0  0
 26 24  1  1  0  0  0
 26 25  1  0  0  0  0
 26 27  1  0  0  0  0
 28  1  1  0  0  0  0
 29 28  1  0  0  0  0
 30 29  1  0  0  0  0
 31 30  1  0  0  0  0
 32 33  1  0  0  0  0
 32 31  1  0  0  0  0
 33 34  1  0  0  0  0
 34 36  1  0  0  0  0
 36 35  1  0  0  0  0
 37 36  2  0  0  0  0
M  END
>  <MODEL>
3

>  <REMARK>
 VINA RESULT:      -8.0      2.395      4.021
  Name = 
  14 active torsions:
  status: ('A' for Active; 'I' for Inactive)
    1  A    between atoms: C_3  and  C_9
    2  A    between atoms: C_6  and  C_28
    3  A    between atoms: C_8  and  C_30
    4  A    between atoms: C_8  and  C_37
    5  A    between atoms: C_9  and  N_13
    6  A    between atoms: N_13  and  C_20
    7  A    between atoms: C_15  and  C_33
    8  A    between atoms: C_16  and  C_30
    9  A    between atoms: C_20  and  C_35
   10  A    between atoms: C_22  and  C_32
   11  A    between atoms: C_24  and  C_28
   12  A    between atoms: C_24  and  C_33
   13  A    between atoms: C_26  and  C_34
   14  A    between atoms: C_35  and  C_37
                            x       y       z     vdW  Elec       q    Type
                         _______ _______ _______ _____ _____    ______ ____

>  <TORSDO>
F 14

$$$$
=
 OpenBabel10222421173D

 37 40  0  0  1  0  0  0  0  0999 V2000
  188.3780  177.3430  143.1660 C   0  0  0  0  0  0  0  0  0  0  0  0
  186.1190  179.3770  140.2230 F   0  0  0  0  0  0  0  0  0  0  0  0
  187.1080  177.6890  143.3680 C   0  0  0  0  0  3  0  0  0  0  0  0
  186.8370  178.6710  141.1350 C   0  0  0  0  0  0  0  0  0  0  0  0
  189.0260  177.6320  141.8720 C   0  0  0  0  0  0  0  0  0  0  0  0
  186.2960  178.3570  142.3300 C   0  0  0  0  0  0  0  0  0  0  0  0
  190.2380  177.3280  141.6960 O   0  0  0  0  0  0  0  0  0  0  0  0
  188.2630  178.3290  140.7710 C   0  0  1  0  0  3  0  0  0  0  0  0
  182.6430  178.9140  142.7270 C   0  0  0  0  0  0  0  0  0  0  0  0
  183.6900  178.4200  141.8820 C   0  0  0  0  0  0  0  0  0  0  0  0
  181.0200  178.0660  141.0500 C   0  0  0  0  0  3  0  0  0  0  0  0
  181.1920  178.8110  142.3640 C   0  0  0  0  0  2  0  0  0  0  0  0
  183.4590  177.7430  140.7590 C   0  0  0  0  0  3  0  0  0  0  0  0
  184.5340  179.2160  143.7920 N   0  0  0  0  0  0  0  0  0  0  0  0
  183.1340  179.3640  143.8330 N   0  0  0  0  0  0  0  0  0  0  0  0
  182.0520  177.5800  140.3270 C   0  0  0  0  0  3  0  0  0  0  0  0
  184.8930  178.6810  142.6620 C   0  0  0  0  0  0  0  0  0  0  0  0
  188.9690  177.9380  138.4450 C   0  0  0  0  0  3  0  0  0  0  0  0
  188.2680  177.5400  139.5000 C   0  0  0  0  0  3  0  0  0  0  0  0
  187.9110  177.2370  136.4700 O   0  0  0  0  0  0  0  0  0  0  0  0
  188.9530  177.2040  137.1760 C   0  0  0  0  0  0  0  0  0  0  0  0
  190.1190  176.3550  136.7500 C   0  0  1  0  0  3  0  0  0  0  0  0
  190.4570  176.6600  135.4330 O   0  0  0  0  0  1  0  0  0  0  0  0
  191.3290  176.5790  137.6420 C   0  0  0  0  0  2  0  0  0  0  0  0
  193.6990  176.7330  137.6630 O   0  0  0  0  0  0  0  0  0  0  0  0
  192.6150  176.2570  136.9030 C   0  0  1  0  0  3  0  0  0  0  0  0
  193.4450  175.3490  137.7200 C   0  0  0  0  0  2  0  0  0  0  0  0
  189.1470  176.7220  144.2830 C   0  0  0  0  0  2  0  0  0  0  0  0
  189.9090  177.7490  144.9790 N   0  0  0  0  0  2  0  0  0  0  0  0
  190.6160  177.1180  146.0850 C   0  0  0  0  0  2  0  0  0  0  0  0
  189.6350  176.7460  147.1870 C   0  0  0  0  0  2  0  0  0  0  0  0
  189.2520  177.9750  147.9920 C   0  0  0  0  0  2  0  0  0  0  0  0
  187.7620  177.9390  148.2920 C   0  0  0  0  0  2  0  0  0  0  0  0
  186.9680  177.9660  147.0000 C   0  0  0  0  0  2  0  0  0  0  0  0
  184.6140  178.3230  146.9300 O   0  0  0  0  0  0  0  0  0  0  0  0
  185.7500  178.8030  147.1840 C   0  0  0  0  0  0  0  0  0  0  0  0
  185.8610  180.1010  147.6740 O   0  0  0  0  0  1  0  0  0  0  0  0
  1  3  2  0  0  0  0
  1 28  1  0  0  0  0
  2  4  1  0  0  0  0
  4  6  2  0  0  0  0
  5  1  1  0  0  0  0
  6 17  1  0  0  0  0
  6  3  1  0  0  0  0
  7  5  2  0  0  0  0
  8 19  1  6  0  0  0
  8  4  1  0  0  0  0
  8  5  1  0  0  0  0
  9 15  2  0  0  0  0
 10 17  1  0  0  0  0
 10  9  1  0  0  0  0
 11 12  1  0  0  0  0
 12  9  1  0  0  0  0
 13 10  2  0  0  0  0
 14 15  1  0  0  0  0
 16 13  1  0  0  0  0
 16 11  2  0  0  0  0
 17 14  2  0  0  0  0
 18 19  2  0  0  0  0
 20 21  2  0  0  0  0
 21 18  1  0  0  0  0
 22 23  1  6  0  0  0
 22 21  1  0  0  0  0
 22 24  1  0  0  0  0
 25 27  1  0  0  0  0
 26 24  1  1  0  0  0
 26 25  1  0  0  0  0
 26 27  1  0  0  0  0
 28 29  1  0  0  0  0
 29 30  1  0  0  0  0
 30 31  1  0  0  0  0
 31 32  1  0  0  0  0
 32 33  1  0  0  0  0
 34 36  1  0  0  0  0
 34 33  1  0  0  0  0
 35 36  2  0  0  0  0
 36 37  1  0  0  0  0
M  END
>  <MODEL>
4

>  <REMARK>
 VINA RESULT:      -7.8      2.091      7.784
  Name = 
  14 active torsions:
  status: ('A' for Active; 'I' for Inactive)
    1  A    between atoms: C_3  and  C_9
    2  A    between atoms: C_6  and  C_28
    3  A    between atoms: C_8  and  C_30
    4  A    between atoms: C_8  and  C_37
    5  A    between atoms: C_9  and  N_13
    6  A    between atoms: N_13  and  C_20
    7  A    between atoms: C_15  and  C_33
    8  A    between atoms: C_16  and  C_30
    9  A    between atoms: C_20  and  C_35
   10  A    between atoms: C_22  and  C_32
   11  A    between atoms: C_24  and  C_28
   12  A    between atoms: C_24  and  C_33
   13  A    between atoms: C_26  and  C_34
   14  A    between atoms: C_35  and  C_37
                            x       y       z     vdW  Elec       q    Type
                         _______ _______ _______ _____ _____    ______ ____

>  <TORSDO>
F 14

$$$$
=
 OpenBabel10222421173D

 37 40  0  0  1  0  0  0  0  0999 V2000
  186.8530  178.5810  141.3050 C   0  0  0  0  0  0  0  0  0  0  0  0
  183.1830  178.8900  143.3890 F   0  0  0  0  0  0  0  0  0  0  0  0
  186.7970  178.5810  142.6350 C   0  0  0  0  0  3  0  0  0  0  0  0
  184.3480  178.7310  142.7070 C   0  0  0  0  0  0  0  0  0  0  0  0
  185.6090  178.6500  140.5120 C   0  0  0  0  0  0  0  0  0  0  0  0
  185.5180  178.6400  143.3730 C   0  0  0  0  0  0  0  0  0  0  0  0
  185.6690  178.6800  139.2520 O   0  0  0  0  0  0  0  0  0  0  0  0
  184.2660  178.7330  141.1990 C   0  0  1  0  0  3  0  0  0  0  0  0
  186.1600  178.4230  147.0270 C   0  0  0  0  0  0  0  0  0  0  0  0
  186.6550  178.1480  145.7090 C   0  0  0  0  0  0  0  0  0  0  0  0
  188.3450  177.6360  147.9070 C   0  0  0  0  0  3  0  0  0  0  0  0
  186.9610  178.1520  148.2650 C   0  0  0  0  0  2  0  0  0  0  0  0
  187.8970  177.7290  145.4720 C   0  0  0  0  0  3  0  0  0  0  0  0
  184.6410  179.1130  145.6060 N   0  0  0  0  0  0  0  0  0  0  0  0
  185.0020  178.9880  146.9620 N   0  0  0  0  0  0  0  0  0  0  0  0
  188.7660  177.4480  146.6370 C   0  0  0  0  0  3  0  0  0  0  0  0
  185.5770  178.6200  144.8490 C   0  0  0  0  0  0  0  0  0  0  0  0
  182.1840  177.9140  140.1720 C   0  0  0  0  0  3  0  0  0  0  0  0
  183.3440  177.6410  140.7560 C   0  0  0  0  0  3  0  0  0  0  0  0
  180.0360  176.9680  140.1020 O   0  0  0  0  0  0  0  0  0  0  0  0
  181.2460  176.8600  139.7710 C   0  0  0  0  0  0  0  0  0  0  0  0
  181.7180  175.6270  139.0520 C   0  0  1  0  0  3  0  0  0  0  0  0
  180.6420  174.7600  138.8660 O   0  0  0  0  0  1  0  0  0  0  0  0
  182.3270  175.9660  137.7020 C   0  0  0  0  0  2  0  0  0  0  0  0
  183.9350  174.2180  137.7230 O   0  0  0  0  0  0  0  0  0  0  0  0
  183.8040  175.6180  137.6700 C   0  0  1  0  0  3  0  0  0  0  0  0
  184.1010  174.8210  136.4620 C   0  0  0  0  0  2  0  0  0  0  0  0
  188.1850  178.5750  140.6350 C   0  0  0  0  0  2  0  0  0  0  0  0
  188.7280  177.2240  140.6440 N   0  0  0  0  0  2  0  0  0  0  0  0
  190.1790  177.3190  140.7230 C   0  0  0  0  0  2  0  0  0  0  0  0
  190.6120  177.5010  142.1710 C   0  0  0  0  0  2  0  0  0  0  0  0
  190.1980  176.3000  143.0030 C   0  0  0  0  0  2  0  0  0  0  0  0
  191.3580  175.8740  143.8880 C   0  0  0  0  0  2  0  0  0  0  0  0
  191.5910  176.9030  144.9770 C   0  0  0  0  0  2  0  0  0  0  0  0
  191.9870  176.8340  147.3250 O   0  0  0  0  0  1  0  0  0  0  0  0
  192.0130  176.2150  146.2290 C   0  0  0  0  0  0  0  0  0  0  0  0
  192.3960  174.8780  146.1960 O   0  0  0  0  0  0  0  0  0  0  0  0
  1  3  2  0  0  0  0
  3  6  1  0  0  0  0
  4  6  2  0  0  0  0
  4  2  1  0  0  0  0
  5  8  1  0  0  0  0
  5  1  1  0  0  0  0
  6 17  1  0  0  0  0
  7  5  2  0  0  0  0
  8 19  1  1  0  0  0
  8  4  1  0  0  0  0
  9 12  1  0  0  0  0
 10  9  1  0  0  0  0
 11 12  1  0  0  0  0
 13 10  2  0  0  0  0
 13 16  1  0  0  0  0
 14 15  1  0  0  0  0
 15  9  2  0  0  0  0
 16 11  2  0  0  0  0
 17 14  2  0  0  0  0
 17 10  1  0  0  0  0
 18 19  2  0  0  0  0
 21 20  2  0  0  0  0
 21 18  1  0  0  0  0
 22 23  1  6  0  0  0
 22 21  1  0  0  0  0
 24 22  1  0  0  0  0
 26 24  1  6  0  0  0
 26 25  1  0  0  0  0
 27 26  1  0  0  0  0
 27 25  1  0  0  0  0
 28 29  1  0  0  0  0
 28  1  1  0  0  0  0
 29 30  1  0  0  0  0
 30 31  1  0  0  0  0
 31 32  1  0  0  0  0
 32 33  1  0  0  0  0
 33 34  1  0  0  0  0
 34 36  1  0  0  0  0
 36 35  1  0  0  0  0
 37 36  2  0  0  0  0
M  END
>  <MODEL>
5

>  <REMARK>
 VINA RESULT:      -7.7      3.477      7.688
  Name = 
  14 active torsions:
  status: ('A' for Active; 'I' for Inactive)
    1  A    between atoms: C_3  and  C_9
    2  A    between atoms: C_6  and  C_28
    3  A    between atoms: C_8  and  C_30
    4  A    between atoms: C_8  and  C_37
    5  A    between atoms: C_9  and  N_13
    6  A    between atoms: N_13  and  C_20
    7  A    between atoms: C_15  and  C_33
    8  A    between atoms: C_16  and  C_30
    9  A    between atoms: C_20  and  C_35
   10  A    between atoms: C_22  and  C_32
   11  A    between atoms: C_24  and  C_28
   12  A    between atoms: C_24  and  C_33
   13  A    between atoms: C_26  and  C_34
   14  A    between atoms: C_35  and  C_37
                            x       y       z     vdW  Elec       q    Type
                         _______ _______ _______ _____ _____    ______ ____

>  <TORSDO>
F 14

$$$$
=
 OpenBabel10222421173D

 37 40  0  0  1  0  0  0  0  0999 V2000
  184.0110  178.7020  144.1680 C   0  0  0  0  0  0  0  0  0  0  0  0
  184.3150  178.0820  139.9930 F   0  0  0  0  0  0  0  0  0  0  0  0
  185.1880  178.5980  143.5560 C   0  0  0  0  0  3  0  0  0  0  0  0
  184.2030  178.3410  141.3230 C   0  0  0  0  0  0  0  0  0  0  0  0
  182.7620  178.6410  143.3830 C   0  0  0  0  0  0  0  0  0  0  0  0
  185.3070  178.4300  142.0930 C   0  0  0  0  0  0  0  0  0  0  0  0
  181.6480  178.7110  143.9710 O   0  0  0  0  0  0  0  0  0  0  0  0
  182.8060  178.4510  141.8860 C   0  0  1  0  0  3  0  0  0  0  0  0
  188.8310  177.8720  141.0500 C   0  0  0  0  0  0  0  0  0  0  0  0
  187.8300  177.6370  142.0510 C   0  0  2  0  0  3  0  0  0  0  0  0
  190.3400  176.3890  142.3500 C   0  0  0  0  0  3  0  0  0  0  0  0
  190.2090  177.2880  141.1310 C   0  0  0  0  0  3  0  0  0  0  0  0
  188.0080  176.8050  143.0750 C   0  0  0  0  0  3  0  0  0  0  0  0
  186.9930  178.8550  140.3740 N   0  0  0  0  0  0  0  0  0  0  0  0
  188.3410  178.5670  140.0800 N   0  0  0  0  0  0  0  0  0  0  0  0
  189.3370  176.1710  143.2280 C   0  0  0  0  0  3  0  0  0  0  0  0
  186.6680  178.3390  141.5220 C   0  0  0  0  0  0  0  0  0  0  0  0
  181.1880  179.2510  140.2110 C   0  0  0  0  0  3  0  0  0  0  0  0
  182.0700  179.5340  141.1620 C   0  0  0  0  0  3  0  0  0  0  0  0
  179.3370  180.6450  139.8330 O   0  0  0  0  0  0  0  0  0  0  0  0
  180.4890  180.2980  139.4600 C   0  0  0  0  0  0  0  0  0  0  0  0
  181.0840  180.8990  138.2170 C   0  0  1  0  0  3  0  0  0  0  0  0
  181.3310  179.8900  137.2870 O   0  0  0  0  0  1  0  0  0  0  0  0
  180.1610  181.9360  137.5990 C   0  0  0  0  0  2  0  0  0  0  0  0
  180.9770  183.6300  136.1490 O   0  0  0  0  0  0  0  0  0  0  0  0
  180.8460  183.2870  137.5070 C   0  0  1  0  0  3  0  0  0  0  0  0
  179.9410  184.2600  136.8640 C   0  0  0  0  0  2  0  0  0  0  0  0
  183.9730  178.8150  145.6550 C   0  0  0  0  0  2  0  0  0  0  0  0
  185.3000  179.1510  146.1510 N   0  0  0  0  0  2  0  0  0  0  0  0
  185.7810  178.0330  146.9510 C   0  0  0  0  0  2  0  0  0  0  0  0
  187.2940  177.9170  146.8300 C   0  0  0  0  0  2  0  0  0  0  0  0
  187.9550  178.1790  148.1710 C   0  0  0  0  0  2  0  0  0  0  0  0
  189.4430  177.8840  148.0680 C   0  0  0  0  0  2  0  0  0  0  0  0
  189.6980  176.8560  146.9830 C   0  0  0  0  0  2  0  0  0  0  0  0
  191.9280  176.1540  147.4420 O   0  0  0  0  0  1  0  0  0  0  0  0
  191.1570  176.8000  146.6850 C   0  0  0  0  0  0  0  0  0  0  0  0
  191.6630  177.4270  145.5500 O   0  0  0  0  0  0  0  0  0  0  0  0
  1 28  1  0  0  0  0
  2  4  1  0  0  0  0
  3  1  2  0  0  0  0
  4  8  1  0  0  0  0
  4  6  2  0  0  0  0
  5  7  2  0  0  0  0
  5  1  1  0  0  0  0
  6  3  1  0  0  0  0
  8 19  1  6  0  0  0
  8  5  1  0  0  0  0
  9 12  1  0  0  0  0
  9 10  1  0  0  0  0
 10 13  1  6  0  0  0
 11 16  1  0  0  0  0
 12 11  2  0  0  0  0
 13 16  2  0  0  0  0
 14 17  2  0  0  0  0
 15 14  1  0  0  0  0
 15  9  2  0  0  0  0
 17 10  1  0  0  0  0
 17  6  1  0  0  0  0
 18 19  2  0  0  0  0
 21 20  2  0  0  0  0
 21 18  1  0  0  0  0
 22 23  1  6  0  0  0
 22 21  1  0  0  0  0
 24 22  1  0  0  0  0
 25 27  1  0  0  0  0
 25 26  1  0  0  0  0
 26 24  1  6  0  0  0
 27 26  1  0  0  0  0
 28 29  1  0  0  0  0
 29 30  1  0  0  0  0
 31 30  1  0  0  0  0
 31 32  1  0  0  0  0
 33 32  1  0  0  0  0
 34 33  1  0  0  0  0
 36 34  1  0  0  0  0
 36 35  1  0  0  0  0
 37 36  2  0  0  0  0
M  END
>  <MODEL>
6

>  <REMARK>
 VINA RESULT:      -7.6      4.299      9.518
  Name = 
  14 active torsions:
  status: ('A' for Active; 'I' for Inactive)
    1  A    between atoms: C_3  and  C_9
    2  A    between atoms: C_6  and  C_28
    3  A    between atoms: C_8  and  C_30
    4  A    between atoms: C_8  and  C_37
    5  A    between atoms: C_9  and  N_13
    6  A    between atoms: N_13  and  C_20
    7  A    between atoms: C_15  and  C_33
    8  A    between atoms: C_16  and  C_30
    9  A    between atoms: C_20  and  C_35
   10  A    between atoms: C_22  and  C_32
   11  A    between atoms: C_24  and  C_28
   12  A    between atoms: C_24  and  C_33
   13  A    between atoms: C_26  and  C_34
   14  A    between atoms: C_35  and  C_37
                            x       y       z     vdW  Elec       q    Type
                         _______ _______ _______ _____ _____    ______ ____

>  <TORSDO>
F 14

$$$$
=
 OpenBabel10222421173D

 37 40  0  0  1  0  0  0  0  0999 V2000
  188.4590  178.0710  140.5750 C   0  0  0  0  0  0  0  0  0  0  0  0
  187.4010  176.3780  144.3060 F   0  0  0  0  0  0  0  0  0  0  0  0
  187.3550  178.4330  141.2240 C   0  0  0  0  0  3  0  0  0  0  0  0
  187.7840  176.9560  143.1370 C   0  0  0  0  0  0  0  0  0  0  0  0
  189.3770  177.0810  141.1720 C   0  0  0  0  0  0  0  0  0  0  0  0
  187.0000  177.8840  142.5490 C   0  0  0  0  0  0  0  0  0  0  0  0
  190.4070  176.7190  140.5390 O   0  0  0  0  0  0  0  0  0  0  0  0
  189.0690  176.4620  142.5150 C   0  0  1  0  0  3  0  0  0  0  0  0
  183.6360  178.9750  143.6910 C   0  0  0  0  0  0  0  0  0  0  0  0
  184.4300  178.5040  142.5940 C   0  0  0  0  0  0  0  0  0  0  0  0
  181.6560  178.8190  142.2020 C   0  0  0  0  0  3  0  0  0  0  0  0
  182.1610  179.2130  143.5800 C   0  0  0  0  0  2  0  0  0  0  0  0
  183.9090  178.1420  141.4230 C   0  0  0  0  0  3  0  0  0  0  0  0
  185.6770  178.6970  144.4380 N   0  0  0  0  0  0  0  0  0  0  0  0
  184.3590  179.0760  144.7560 N   0  0  0  0  0  0  0  0  0  0  0  0
  182.4530  178.3300  141.2270 C   0  0  0  0  0  3  0  0  0  0  0  0
  185.7560  178.3700  143.1820 C   0  0  0  0  0  0  0  0  0  0  0  0
  189.9590  176.7610  144.7910 C   0  0  0  0  0  3  0  0  0  0  0  0
  190.1900  176.6520  143.4880 C   0  0  0  0  0  3  0  0  0  0  0  0
  192.0590  177.6290  145.3840 O   0  0  0  0  0  0  0  0  0  0  0  0
  191.0380  176.9920  145.7560 C   0  0  0  0  0  0  0  0  0  0  0  0
  190.9810  176.4150  147.1440 C   0  0  1  0  0  3  0  0  0  0  0  0
  191.8430  177.1270  147.9770 O   0  0  0  0  0  1  0  0  0  0  0  0
  189.5740  176.4690  147.7150 C   0  0  0  0  0  2  0  0  0  0  0  0
  187.9720  178.2060  147.4730 O   0  0  0  0  0  0  0  0  0  0  0  0
  189.1950  177.8890  148.0930 C   0  0  1  0  0  3  0  0  0  0  0  0
  187.9230  177.8820  148.8420 C   0  0  0  0  0  2  0  0  0  0  0  0
  188.7180  178.6300  139.2170 C   0  0  0  0  0  2  0  0  0  0  0  0
  187.4820  178.6290  138.4470 N   0  0  0  0  0  2  0  0  0  0  0  0
  187.4260  177.3900  137.6820 C   0  0  0  0  0  2  0  0  0  0  0  0
  186.0550  177.2350  137.0420 C   0  0  0  0  0  2  0  0  0  0  0  0
  184.9780  177.8080  137.9460 C   0  0  0  0  0  2  0  0  0  0  0  0
  183.7820  176.8710  137.9660 C   0  0  0  0  0  2  0  0  0  0  0  0
  182.5450  177.5920  137.4680 C   0  0  0  0  0  2  0  0  0  0  0  0
  181.6840  177.3850  135.2550 O   0  0  0  0  0  0  0  0  0  0  0  0
  181.9340  176.8170  136.3510 C   0  0  0  0  0  0  0  0  0  0  0  0
  181.6780  175.4580  136.5020 O   0  0  0  0  0  1  0  0  0  0  0  0
  1  5  1  0  0  0  0
  1  3  2  0  0  0  0
  3  6  1  0  0  0  0
  4  2  1  0  0  0  0
  5  8  1  0  0  0  0
  6  4  2  0  0  0  0
  6 17  1  0  0  0  0
  7  5  2  0  0  0  0
  8  4  1  0  0  0  0
  8 19  1  1  0  0  0
  9 15  2  0  0  0  0
 10 17  1  0  0  0  0
 10  9  1  0  0  0  0
 11 12  1  0  0  0  0
 12  9  1  0  0  0  0
 13 10  2  0  0  0  0
 14 15  1  0  0  0  0
 16 13  1  0  0  0  0
 16 11  2  0  0  0  0
 17 14  2  0  0  0  0
 18 21  1  0  0  0  0
 19 18  2  0  0  0  0
 20 21  2  0  0  0  0
 21 22  1  0  0  0  0
 22 24  1  0  0  0  0
 22 23  1  1  0  0  0
 25 26  1  0  0  0  0
 25 27  1  0  0  0  0
 26 24  1  6  0  0  0
 26 27  1  0  0  0  0
 28  1  1  0  0  0  0
 29 28  1  0  0  0  0
 30 29  1  0  0  0  0
 31 30  1  0  0  0  0
 31 32  1  0  0  0  0
 32 33  1  0  0  0  0
 34 33  1  0  0  0  0
 35 36  2  0  0  0  0
 36 37  1  0  0  0  0
 36 34  1  0  0  0  0
M  END
>  <MODEL>
7

>  <REMARK>
 VINA RESULT:      -7.5      2.753      4.185
  Name = 
  14 active torsions:
  status: ('A' for Active; 'I' for Inactive)
    1  A    between atoms: C_3  and  C_9
    2  A    between atoms: C_6  and  C_28
    3  A    between atoms: C_8  and  C_30
    4  A    between atoms: C_8  and  C_37
    5  A    between atoms: C_9  and  N_13
    6  A    between atoms: N_13  and  C_20
    7  A    between atoms: C_15  and  C_33
    8  A    between atoms: C_16  and  C_30
    9  A    between atoms: C_20  and  C_35
   10  A    between atoms: C_22  and  C_32
   11  A    between atoms: C_24  and  C_28
   12  A    between atoms: C_24  and  C_33
   13  A    between atoms: C_26  and  C_34
   14  A    between atoms: C_35  and  C_37
                            x       y       z     vdW  Elec       q    Type
                         _______ _______ _______ _____ _____    ______ ____

>  <TORSDO>
F 14

$$$$
=
 OpenBabel10222421173D

 37 40  0  0  1  0  0  0  0  0999 V2000
  190.3120  177.4900  141.4460 C   0  0  0  0  0  0  0  0  0  0  0  0
  187.4690  178.6270  138.5260 F   0  0  0  0  0  0  0  0  0  0  0  0
  189.0680  177.8340  141.7720 C   0  0  0  0  0  3  0  0  0  0  0  0
  188.3740  178.2020  139.4470 C   0  0  0  0  0  0  0  0  0  0  0  0
  190.7240  177.4600  140.0290 C   0  0  0  0  0  0  0  0  0  0  0  0
  188.0540  178.1860  140.7580 C   0  0  0  0  0  0  0  0  0  0  0  0
  191.9120  177.1620  139.7280 O   0  0  0  0  0  0  0  0  0  0  0  0
  189.7460  177.8260  138.9380 C   0  0  1  0  0  3  0  0  0  0  0  0
  184.8210  178.9300  142.4340 C   0  0  0  0  0  0  0  0  0  0  0  0
  186.1350  178.3720  142.5690 C   0  0  2  0  0  3  0  0  0  0  0  0
  184.5120  178.5430  144.8670 C   0  0  0  0  0  3  0  0  0  0  0  0
  183.8640  179.0330  143.5820 C   0  0  0  0  0  3  0  0  0  0  0  0
  186.6490  177.9970  143.7380 C   0  0  0  0  0  3  0  0  0  0  0  0
  185.8160  179.1360  140.4920 N   0  0  0  0  0  0  0  0  0  0  0  0
  184.6440  179.3780  141.2360 N   0  0  0  0  0  0  0  0  0  0  0  0
  185.7780  178.0760  144.9330 C   0  0  0  0  0  3  0  0  0  0  0  0
  186.7000  178.5380  141.2350 C   0  0  0  0  0  0  0  0  0  0  0  0
  189.6190  177.0080  136.6200 C   0  0  0  0  0  3  0  0  0  0  0  0
  189.6100  176.7390  137.9200 C   0  0  0  0  0  3  0  0  0  0  0  0
  190.4120  175.2000  135.3480 O   0  0  0  0  0  0  0  0  0  0  0  0
  189.4430  175.9620  135.6070 C   0  0  0  0  0  0  0  0  0  0  0  0
  188.1660  175.8410  134.8230 C   0  0  1  0  0  3  0  0  0  0  0  0
  187.6410  174.5600  134.9880 O   0  0  0  0  0  1  0  0  0  0  0  0
  187.1360  176.8660  135.2690 C   0  0  0  0  0  2  0  0  0  0  0  0
  185.9760  176.1910  137.2290 O   0  0  0  0  0  0  0  0  0  0  0  0
  185.8980  176.1850  135.8240 C   0  0  1  0  0  3  0  0  0  0  0  0
  185.1260  177.1460  136.6380 C   0  0  0  0  0  2  0  0  0  0  0  0
  191.2930  177.2020  142.5330 C   0  0  0  0  0  2  0  0  0  0  0  0
  190.9900  175.9100  143.1320 N   0  0  0  0  0  2  0  0  0  0  0  0
  191.6800  175.8310  144.4120 C   0  0  0  0  0  2  0  0  0  0  0  0
  191.6050  177.1710  145.1290 C   0  0  0  0  0  2  0  0  0  0  0  0
  190.8090  177.0410  146.4150 C   0  0  0  0  0  2  0  0  0  0  0  0
  189.3300  177.2200  146.1160 C   0  0  0  0  0  2  0  0  0  0  0  0
  188.4990  176.7650  147.2990 C   0  0  0  0  0  2  0  0  0  0  0  0
  187.1590  178.6000  148.0190 O   0  0  0  0  0  0  0  0  0  0  0  0
  188.2130  177.9300  148.1830 C   0  0  0  0  0  0  0  0  0  0  0  0
  189.0880  178.2560  149.2150 O   0  0  0  0  0  1  0  0  0  0  0  0
  1  3  2  0  0  0  0
  1 28  1  0  0  0  0
  2  4  1  0  0  0  0
  4  6  2  0  0  0  0
  5  1  1  0  0  0  0
  6 17  1  0  0  0  0
  6  3  1  0  0  0  0
  7  5  2  0  0  0  0
  8 19  1  6  0  0  0
  8  4  1  0  0  0  0
  8  5  1  0  0  0  0
  9 10  1  0  0  0  0
  9 12  1  0  0  0  0
 10 13  1  1  0  0  0
 11 16  1  0  0  0  0
 12 11  2  0  0  0  0
 13 16  2  0  0  0  0
 14 17  2  0  0  0  0
 14 15  1  0  0  0  0
 15  9  2  0  0  0  0
 17 10  1  0  0  0  0
 18 19  2  0  0  0  0
 20 21  2  0  0  0  0
 21 18  1  0  0  0  0
 22 23  1  1  0  0  0
 22 24  1  0  0  0  0
 22 21  1  0  0  0  0
 26 24  1  6  0  0  0
 26 27  1  0  0  0  0
 26 25  1  0  0  0  0
 27 25  1  0  0  0  0
 28 29  1  0  0  0  0
 29 30  1  0  0  0  0
 30 31  1  0  0  0  0
 31 32  1  0  0  0  0
 33 32  1  0  0  0  0
 33 34  1  0  0  0  0
 34 36  1  0  0  0  0
 35 36  2  0  0  0  0
 36 37  1  0  0  0  0
M  END
>  <MODEL>
8

>  <REMARK>
 VINA RESULT:      -7.5      2.734      7.968
  Name = 
  14 active torsions:
  status: ('A' for Active; 'I' for Inactive)
    1  A    between atoms: C_3  and  C_9
    2  A    between atoms: C_6  and  C_28
    3  A    between atoms: C_8  and  C_30
    4  A    between atoms: C_8  and  C_37
    5  A    between atoms: C_9  and  N_13
    6  A    between atoms: N_13  and  C_20
    7  A    between atoms: C_15  and  C_33
    8  A    between atoms: C_16  and  C_30
    9  A    between atoms: C_20  and  C_35
   10  A    between atoms: C_22  and  C_32
   11  A    between atoms: C_24  and  C_28
   12  A    between atoms: C_24  and  C_33
   13  A    between atoms: C_26  and  C_34
   14  A    between atoms: C_35  and  C_37
                            x       y       z     vdW  Elec       q    Type
                         _______ _______ _______ _____ _____    ______ ____

>  <TORSDO>
F 14

$$$$
=
 OpenBabel10222421173D

 37 40  0  0  1  0  0  0  0  0999 V2000
  186.6570  178.4040  141.7720 C   0  0  0  0  0  0  0  0  0  0  0  0
  185.0290  179.0120  145.6300 F   0  0  0  0  0  0  0  0  0  0  0  0
  187.2940  178.0140  142.8740 C   0  0  0  0  0  3  0  0  0  0  0  0
  185.5120  178.7690  144.3830 C   0  0  0  0  0  0  0  0  0  0  0  0
  185.3260  179.0350  141.8710 C   0  0  0  0  0  0  0  0  0  0  0  0
  186.7130  178.1770  144.2230 C   0  0  0  0  0  0  0  0  0  0  0  0
  184.7400  179.4300  140.8260 O   0  0  0  0  0  0  0  0  0  0  0  0
  184.6790  179.2520  143.2180 C   0  0  1  0  0  3  0  0  0  0  0  0
  189.1200  176.9980  146.7980 C   0  0  0  0  0  0  0  0  0  0  0  0
  188.9220  177.3570  145.4240 C   0  0  0  0  0  0  0  0  0  0  0  0
  191.5370  176.7510  146.2870 C   0  0  0  0  0  3  0  0  0  0  0  0
  190.4610  176.6220  147.3520 C   0  0  0  0  0  2  0  0  0  0  0  0
  189.9240  177.4850  144.5550 C   0  0  0  0  0  3  0  0  0  0  0  0
  187.0150  177.5630  146.5710 N   0  0  0  0  0  0  0  0  0  0  0  0
  188.0180  177.1280  147.4580 N   0  0  0  0  0  0  0  0  0  0  0  0
  191.2880  177.1460  145.0190 C   0  0  0  0  0  3  0  0  0  0  0  0
  187.5050  177.6930  145.3730 C   0  0  0  0  0  0  0  0  0  0  0  0
  182.2200  179.3560  143.1530 C   0  0  0  0  0  3  0  0  0  0  0  0
  183.3220  178.6280  143.2940 C   0  0  0  0  0  3  0  0  0  0  0  0
  180.5560  178.2060  144.3450 O   0  0  0  0  0  0  0  0  0  0  0  0
  180.8810  178.7720  143.2680 C   0  0  0  0  0  0  0  0  0  0  0  0
  179.9290  178.7660  142.1040 C   0  0  1  0  0  3  0  0  0  0  0  0
  180.1730  179.8780  141.3000 O   0  0  0  0  0  1  0  0  0  0  0  0
  180.0730  177.5030  141.2700 C   0  0  0  0  0  2  0  0  0  0  0  0
  182.1900  177.2790  140.2180 O   0  0  0  0  0  0  0  0  0  0  0  0
  180.8870  177.7700  140.0170 C   0  0  1  0  0  3  0  0  0  0  0  0
  181.3300  176.4890  139.4310 C   0  0  0  0  0  2  0  0  0  0  0  0
  187.3350  178.2540  140.4520 C   0  0  0  0  0  2  0  0  0  0  0  0
  188.6460  177.6510  140.6430 N   0  0  0  0  0  2  0  0  0  0  0  0
  189.2310  177.4110  139.3310 C   0  0  0  0  0  2  0  0  0  0  0  0
  189.0750  178.6470  138.4570 C   0  0  0  0  0  2  0  0  0  0  0  0
  188.8840  178.2480  137.0040 C   0  0  0  0  0  2  0  0  0  0  0  0
  187.4240  178.4210  136.6190 C   0  0  0  0  0  2  0  0  0  0  0  0
  186.7330  177.0720  136.5730 C   0  0  0  0  0  2  0  0  0  0  0  0
  184.4730  177.1280  135.8190 O   0  0  0  0  0  0  0  0  0  0  0  0
  185.2700  177.2570  136.7860 C   0  0  0  0  0  0  0  0  0  0  0  0
  184.7780  177.5320  138.0580 O   0  0  0  0  0  1  0  0  0  0  0  0
  1  5  1  0  0  0  0
  1  3  2  0  0  0  0
  3  6  1  0  0  0  0
  4  2  1  0  0  0  0
  5  8  1  0  0  0  0
  6  4  2  0  0  0  0
  6 17  1  0  0  0  0
  7  5  2  0  0  0  0
  8 19  1  6  0  0  0
  8  4  1  0  0  0  0
  9 12  1  0  0  0  0
  9 15  2  0  0  0  0
 10  9  1  0  0  0  0
 11 12  1  0  0  0  0
 13 16  1  0  0  0  0
 13 10  2  0  0  0  0
 14 15  1  0  0  0  0
 16 11  2  0  0  0  0
 17 10  1  0  0  0  0
 17 14  2  0  0  0  0
 18 21  1  0  0  0  0
 18 19  2  0  0  0  0
 21 20  2  0  0  0  0
 22 23  1  6  0  0  0
 22 21  1  0  0  0  0
 24 22  1  0  0  0  0
 26 25  1  0  0  0  0
 26 24  1  1  0  0  0
 27 26  1  0  0  0  0
 27 25  1  0  0  0  0
 28 29  1  0  0  0  0
 28  1  1  0  0  0  0
 30 29  1  0  0  0  0
 31 30  1  0  0  0  0
 32 31  1  0  0  0  0
 33 32  1  0  0  0  0
 34 33  1  0  0  0  0
 34 36  1  0  0  0  0
 35 36  2  0  0  0  0
 36 37  1  0  0  0  0
M  END
>  <MODEL>
9

>  <REMARK>
 VINA RESULT:      -7.4      4.010      7.496
  Name = 
  14 active torsions:
  status: ('A' for Active; 'I' for Inactive)
    1  A    between atoms: C_3  and  C_9
    2  A    between atoms: C_6  and  C_28
    3  A    between atoms: C_8  and  C_30
    4  A    between atoms: C_8  and  C_37
    5  A    between atoms: C_9  and  N_13
    6  A    between atoms: N_13  and  C_20
    7  A    between atoms: C_15  and  C_33
    8  A    between atoms: C_16  and  C_30
    9  A    between atoms: C_20  and  C_35
   10  A    between atoms: C_22  and  C_32
   11  A    between atoms: C_24  and  C_28
   12  A    between atoms: C_24  and  C_33
   13  A    between atoms: C_26  and  C_34
   14  A    between atoms: C_35  and  C_37
                            x       y       z     vdW  Elec       q    Type
                         _______ _______ _______ _____ _____    ______ ____

>  <TORSDO>
F 14

$$$$
