=
 OpenBabel10222416383D

 30 36  0  0  1  0  0  0  0  0999 V2000
  187.4450  176.5620  147.0030 C   0  0  0  0  0  2  0  0  0  0  0  0
  186.6800  177.5610  146.1480 C   0  0  1  0  0  0  0  0  0  0  0  0
  188.5050  177.9170  140.8860 C   0  0  0  0  0  0  0  0  0  0  0  0
  183.5670  178.5710  143.4580 C   0  0  0  0  0  0  0  0  0  0  0  0
  188.1890  178.6690  139.7540 C   0  0  0  0  0  3  0  0  0  0  0  0
  189.1210  178.6780  138.7040 C   0  0  0  0  0  3  0  0  0  0  0  0
  182.4470  179.0090  144.0890 F   0  0  0  0  0  0  0  0  0  0  0  0
  187.7780  177.7520  142.0160 N   0  0  0  0  0  0  0  0  0  0  0  0
  186.4660  178.2560  142.3660 C   0  0  0  0  0  0  0  0  0  0  0  0
  186.0340  178.0900  143.6510 C   0  0  0  0  0  0  0  0  0  0  0  0
  188.0270  176.4810  144.1440 C   0  0  0  0  0  2  0  0  0  0  0  0
  187.6860  178.5580  145.5120 C   0  0  1  0  0  3  0  0  0  0  0  0
  185.6880  178.9720  141.3250 C   0  0  0  0  0  3  0  0  0  0  0  0
  189.6850  177.2160  140.9660 C   0  0  0  0  0  0  0  0  0  0  0  0
  187.0100  177.5040  144.6600 C   0  0  2  0  0  0  0  0  0  0  0  0
  184.7020  178.5190  144.1530 C   0  0  0  0  0  3  0  0  0  0  0  0
  183.5000  178.0950  142.0420 C   0  0  2  0  0  3  0  0  0  0  0  0
  189.7030  176.5800  142.1930 C   0  0  0  0  0  0  0  0  0  0  0  0
  186.9330  178.9050  146.7700 C   0  0  2  0  0  0  0  0  0  0  0  0
  183.8200  179.6890  140.1730 F   0  0  0  0  0  0  0  0  0  0  0  0
  190.7630  175.6880  142.7440 C   0  0  0  0  0  1  0  0  0  0  0  0
  188.5150  176.9410  142.8100 C   0  0  0  0  0  0  0  0  0  0  0  0
  191.8250  176.5160  139.9710 N   0  0  0  0  0  1  0  0  0  0  0  0
  190.2900  177.9710  138.8010 N   0  0  0  0  0  0  0  0  0  0  0  0
  190.5990  177.2360  139.9090 C   0  0  0  0  0  0  0  0  0  0  0  0
  187.5790  178.7130  148.1260 C   0  0  0  0  0  2  0  0  0  0  0  0
  184.3650  178.9560  141.1770 C   0  0  0  0  0  0  0  0  0  0  0  0
  182.0670  178.0550  141.5330 C   0  0  0  0  0  1  0  0  0  0  0  0
  187.6180  177.2140  148.3630 C   0  0  0  0  0  2  0  0  0  0  0  0
  185.8130  179.8200  146.6470 N   0  0  0  0  0  1  0  0  0  0  0  0
  1 29  1  0  0  0  0
  2 19  1  0  0  0  0
  2  1  1  1  0  0  0
  3 14  1  0  0  0  0
  3  8  1  0  0  0  0
  4  7  1  0  0  0  0
  4 16  2  0  0  0  0
  5  3  2  0  0  0  0
  6 24  2  0  0  0  0
  6  5  1  0  0  0  0
  8  9  1  0  0  0  0
  8 22  1  0  0  0  0
  9 10  2  0  0  0  0
 10 16  1  0  0  0  0
 10 15  1  0  0  0  0
 11 15  1  0  0  0  0
 12  2  1  0  0  0  0
 12 19  1  0  0  0  0
 13  9  1  0  0  0  0
 14 18  1  0  0  0  0
 15 12  1  0  0  0  0
 15  2  1  0  0  0  0
 17  4  1  0  0  0  0
 18 21  1  0  0  0  0
 18 22  2  0  0  0  0
 19 26  1  0  0  0  0
 20 27  1  0  0  0  0
 22 11  1  0  0  0  0
 24 25  1  0  0  0  0
 25 23  1  0  0  0  0
 25 14  2  0  0  0  0
 26 29  1  0  0  0  0
 27 13  2  0  0  0  0
 27 17  1  0  0  0  0
 28 17  1  0  0  0  0
 30 19  1  0  0  0  0
M  END
>  <MODEL>
1

>  <REMARK>
 VINA RESULT:      -9.1      0.000      0.000
  Name = 
  0 active torsions:
  status: ('A' for Active; 'I' for Inactive)
                            x       y       z     vdW  Elec       q    Type
                         _______ _______ _______ _____ _____    ______ ____

>  <TORSDO>
F 0

$$$$
=
 OpenBabel10222416383D

 30 36  0  0  1  0  0  0  0  0999 V2000
  183.6100  179.9160  139.3110 C   0  0  0  0  0  2  0  0  0  0  0  0
  183.6370  179.1250  140.6100 C   0  0  1  0  0  0  0  0  0  0  0  0
  188.6730  177.1270  141.9500 C   0  0  0  0  0  0  0  0  0  0  0  0
  184.1600  178.8360  144.8040 C   0  0  0  0  0  0  0  0  0  0  0  0
  189.2120  176.3430  142.9700 C   0  0  0  0  0  3  0  0  0  0  0  0
  190.4860  175.7910  142.7570 C   0  0  0  0  0  3  0  0  0  0  0  0
  182.9970  178.9690  145.4900 F   0  0  0  0  0  0  0  0  0  0  0  0
  187.4760  177.7590  141.9180 N   0  0  0  0  0  0  0  0  0  0  0  0
  186.4380  177.8500  142.9240 C   0  0  0  0  0  0  0  0  0  0  0  0
  185.2430  178.4050  142.5680 C   0  0  0  0  0  0  0  0  0  0  0  0
  186.2630  179.2300  140.3140 C   0  0  0  0  0  2  0  0  0  0  0  0
  184.2540  177.7260  140.3370 C   0  0  1  0  0  3  0  0  0  0  0  0
  186.7140  177.2860  144.2690 C   0  0  0  0  0  3  0  0  0  0  0  0
  189.3660  177.3460  140.7820 C   0  0  0  0  0  0  0  0  0  0  0  0
  185.0350  178.7710  141.1060 C   0  0  2  0  0  0  0  0  0  0  0  0
  184.0960  178.5990  143.4950 C   0  0  0  0  0  3  0  0  0  0  0  0
  185.4730  179.0240  145.4960 C   0  0  2  0  0  3  0  0  0  0  0  0
  188.5770  178.1520  139.9820 C   0  0  0  0  0  0  0  0  0  0  0  0
  182.7610  177.9270  140.3740 C   0  0  2  0  0  0  0  0  0  0  0  0
  186.6060  177.0990  146.5680 F   0  0  0  0  0  0  0  0  0  0  0  0
  188.8930  178.6790  138.6240 C   0  0  0  0  0  1  0  0  0  0  0  0
  187.4210  178.3780  140.7150 C   0  0  0  0  0  0  0  0  0  0  0  0
  191.3670  177.0070  139.3900 N   0  0  0  0  0  1  0  0  0  0  0  0
  191.1610  176.0240  141.5880 N   0  0  0  0  0  0  0  0  0  0  0  0
  190.6320  176.7900  140.5910 C   0  0  0  0  0  0  0  0  0  0  0  0
  181.9840  178.1230  139.0880 C   0  0  0  0  0  2  0  0  0  0  0  0
  186.2660  177.7580  145.4310 C   0  0  0  0  0  0  0  0  0  0  0  0
  185.2850  179.4910  146.9320 C   0  0  0  0  0  1  0  0  0  0  0  0
  182.3280  179.5180  138.6000 C   0  0  0  0  0  2  0  0  0  0  0  0
  182.0560  177.4820  141.5620 N   0  0  0  0  0  1  0  0  0  0  0  0
  2  1  1  6  0  0  0
  2 15  1  0  0  0  0
  3  5  1  0  0  0  0
  4  7  1  0  0  0  0
  4 17  1  0  0  0  0
  6  5  2  0  0  0  0
  8  3  1  0  0  0  0
  8  9  1  0  0  0  0
  9 13  1  0  0  0  0
 10  9  2  0  0  0  0
 10 16  1  0  0  0  0
 11 22  1  0  0  0  0
 11 15  1  0  0  0  0
 12 19  1  0  0  0  0
 12  2  1  0  0  0  0
 12 15  1  0  0  0  0
 13 27  2  0  0  0  0
 14  3  2  0  0  0  0
 15 10  1  0  0  0  0
 16  4  2  0  0  0  0
 17 28  1  0  0  0  0
 18 22  2  0  0  0  0
 18 14  1  0  0  0  0
 19  2  1  0  0  0  0
 19 30  1  0  0  0  0
 21 18  1  0  0  0  0
 22  8  1  0  0  0  0
 23 25  1  0  0  0  0
 24  6  1  0  0  0  0
 25 14  1  0  0  0  0
 25 24  2  0  0  0  0
 26 19  1  0  0  0  0
 27 17  1  0  0  0  0
 27 20  1  0  0  0  0
 29 26  1  0  0  0  0
 29  1  1  0  0  0  0
M  END
>  <MODEL>
2

>  <REMARK>
 VINA RESULT:      -8.6      1.911      5.224
  Name = 
  0 active torsions:
  status: ('A' for Active; 'I' for Inactive)
                            x       y       z     vdW  Elec       q    Type
                         _______ _______ _______ _____ _____    ______ ____

>  <TORSDO>
F 0

$$$$
=
 OpenBabel10222416383D

 30 36  0  0  1  0  0  0  0  0999 V2000
  184.6270  177.5650  137.2250 C   0  0  0  0  0  2  0  0  0  0  0  0
  183.3280  177.6010  138.0150 C   0  0  1  0  0  0  0  0  0  0  0  0
  184.0070  178.6130  143.4620 C   0  0  0  0  0  0  0  0  0  0  0  0
  180.0110  179.6540  139.6690 C   0  0  0  0  0  0  0  0  0  0  0  0
  183.1820  178.7100  144.5830 C   0  0  0  0  0  3  0  0  0  0  0  0
  183.7980  178.6570  145.8440 C   0  0  0  0  0  3  0  0  0  0  0  0
  178.9310  179.6570  138.8470 F   0  0  0  0  0  0  0  0  0  0  0  0
  183.6540  178.6380  142.1550 N   0  0  0  0  0  0  0  0  0  0  0  0
  182.3560  178.8140  141.5380 C   0  0  0  0  0  0  0  0  0  0  0  0
  182.2500  178.6180  140.1910 C   0  0  0  0  0  0  0  0  0  0  0  0
  184.8470  178.5320  139.9700 C   0  0  0  0  0  2  0  0  0  0  0  0
  183.4310  176.6070  139.2030 C   0  0  1  0  0  3  0  0  0  0  0  0
  181.2030  179.1440  142.4130 C   0  0  0  0  0  3  0  0  0  0  0  0
  185.3680  178.4680  143.5910 C   0  0  0  0  0  0  0  0  0  0  0  0
  183.4730  178.1010  139.4490 C   0  0  2  0  0  0  0  0  0  0  0  0
  180.9960  178.7950  139.4110 C   0  0  0  0  0  3  0  0  0  0  0  0
  180.1140  180.6410  140.7870 C   0  0  2  0  0  3  0  0  0  0  0  0
  185.8970  178.4030  142.3160 C   0  0  0  0  0  0  0  0  0  0  0  0
  182.7540  176.2170  137.9150 C   0  0  2  0  0  0  0  0  0  0  0  0
  179.1900  180.0980  143.0210 F   0  0  0  0  0  0  0  0  0  0  0  0
  187.3300  178.2610  141.9290 C   0  0  0  0  0  1  0  0  0  0  0  0
  184.8100  178.5040  141.4620 C   0  0  0  0  0  0  0  0  0  0  0  0
  187.3690  178.2710  145.0110 N   0  0  0  0  0  1  0  0  0  0  0  0
  185.1560  178.5140  145.9530 N   0  0  0  0  0  0  0  0  0  0  0  0
  185.9610  178.4190  144.8550 C   0  0  0  0  0  0  0  0  0  0  0  0
  183.5100  175.4380  136.8590 C   0  0  0  0  0  2  0  0  0  0  0  0
  180.1680  179.9200  142.0960 C   0  0  0  0  0  0  0  0  0  0  0  0
  178.9720  181.6470  140.7510 C   0  0  0  0  0  1  0  0  0  0  0  0
  184.4930  176.4160  136.2410 C   0  0  0  0  0  2  0  0  0  0  0  0
  181.3020  176.1910  137.9040 N   0  0  0  0  0  1  0  0  0  0  0  0
  2  1  1  6  0  0  0
  2 12  1  0  0  0  0
  2 15  1  0  0  0  0
  3 14  2  0  0  0  0
  3  5  1  0  0  0  0
  4 17  1  0  0  0  0
  5  6  2  0  0  0  0
  6 24  1  0  0  0  0
  7  4  1  0  0  0  0
  8  3  1  0  0  0  0
  9  8  1  0  0  0  0
  9 13  1  0  0  0  0
 10  9  2  0  0  0  0
 11 22  1  0  0  0  0
 12 15  1  0  0  0  0
 14 25  1  0  0  0  0
 15 11  1  0  0  0  0
 15 10  1  0  0  0  0
 16  4  2  0  0  0  0
 16 10  1  0  0  0  0
 17 27  1  0  0  0  0
 18 14  1  0  0  0  0
 19  2  1  0  0  0  0
 19 12  1  0  0  0  0
 21 18  1  0  0  0  0
 22  8  1  0  0  0  0
 22 18  2  0  0  0  0
 25 23  1  0  0  0  0
 25 24  2  0  0  0  0
 26 19  1  0  0  0  0
 27 13  2  0  0  0  0
 27 20  1  0  0  0  0
 28 17  1  0  0  0  0
 29 26  1  0  0  0  0
 29  1  1  0  0  0  0
 30 19  1  0  0  0  0
M  END
>  <MODEL>
3

>  <REMARK>
 VINA RESULT:      -7.8      3.293      7.143
  Name = 
  0 active torsions:
  status: ('A' for Active; 'I' for Inactive)
                            x       y       z     vdW  Elec       q    Type
                         _______ _______ _______ _____ _____    ______ ____

>  <TORSDO>
F 0

$$$$
=
 OpenBabel10222416383D

 30 36  0  0  1  0  0  0  0  0999 V2000
  192.6760  173.6060  136.9400 C   0  0  0  0  0  2  0  0  0  0  0  0
  192.3210  174.9280  137.6030 C   0  0  1  0  0  0  0  0  0  0  0  0
  186.9460  176.3480  137.1070 C   0  0  0  0  0  0  0  0  0  0  0  0
  190.9750  177.2110  140.9090 C   0  0  0  0  0  0  0  0  0  0  0  0
  186.1460  177.4260  137.4850 C   0  0  0  0  0  3  0  0  0  0  0  0
  184.8880  177.5420  136.8720 C   0  0  0  0  0  3  0  0  0  0  0  0
  191.9930  177.6660  141.6840 F   0  0  0  0  0  0  0  0  0  0  0  0
  188.1840  176.0250  137.5490 N   0  0  0  0  0  0  0  0  0  0  0  0
  189.0130  176.6550  138.5550 C   0  0  0  0  0  0  0  0  0  0  0  0
  190.3050  176.2310  138.6850 C   0  0  0  0  0  0  0  0  0  0  0  0
  189.8250  174.1980  137.1230 C   0  0  0  0  0  2  0  0  0  0  0  0
  191.6300  175.8490  136.5610 C   0  0  1  0  0  3  0  0  0  0  0  0
  188.4290  177.7630  139.3520 C   0  0  0  0  0  3  0  0  0  0  0  0
  186.5170  175.4390  136.1690 C   0  0  0  0  0  0  0  0  0  0  0  0
  190.8250  175.2170  137.6770 C   0  0  2  0  0  0  0  0  0  0  0  0
  191.2650  176.7540  139.6920 C   0  0  0  0  0  3  0  0  0  0  0  0
  189.5800  177.1610  141.4450 C   0  0  2  0  0  3  0  0  0  0  0  0
  187.5210  174.5020  136.0150 C   0  0  0  0  0  0  0  0  0  0  0  0
  193.1010  175.9770  136.8630 C   0  0  2  0  0  0  0  0  0  0  0  0
  188.0750  179.1120  141.1920 F   0  0  0  0  0  0  0  0  0  0  0  0
  187.5270  173.3080  135.1220 C   0  0  0  0  0  1  0  0  0  0  0  0
  188.5310  174.9020  136.8770 C   0  0  0  0  0  0  0  0  0  0  0  0
  184.7970  174.6400  134.6000 N   0  0  0  0  0  1  0  0  0  0  0  0
  184.4760  176.6250  135.9420 N   0  0  0  0  0  0  0  0  0  0  0  0
  185.2610  175.5710  135.5720 C   0  0  0  0  0  0  0  0  0  0  0  0
  194.1260  175.3030  135.9750 C   0  0  0  0  0  2  0  0  0  0  0  0
  188.6910  178.0420  140.6280 C   0  0  0  0  0  0  0  0  0  0  0  0
  189.5340  177.5360  142.9190 C   0  0  0  0  0  1  0  0  0  0  0  0
  194.0240  173.8170  136.2720 C   0  0  0  0  0  2  0  0  0  0  0  0
  193.5160  177.0880  137.7000 N   0  0  0  0  0  1  0  0  0  0  0  0
  2  1  1  6  0  0  0
  2 15  1  0  0  0  0
  3  5  1  0  0  0  0
  3  8  1  0  0  0  0
  4 17  1  0  0  0  0
  4  7  1  0  0  0  0
  6  5  2  0  0  0  0
  8  9  1  0  0  0  0
  9 10  2  0  0  0  0
  9 13  1  0  0  0  0
 10 16  1  0  0  0  0
 11 15  1  0  0  0  0
 12 19  1  0  0  0  0
 12  2  1  0  0  0  0
 12 15  1  0  0  0  0
 13 27  2  0  0  0  0
 14  3  2  0  0  0  0
 15 10  1  0  0  0  0
 16  4  2  0  0  0  0
 17 28  1  0  0  0  0
 18 14  1  0  0  0  0
 18 22  2  0  0  0  0
 19  2  1  0  0  0  0
 19 30  1  0  0  0  0
 21 18  1  0  0  0  0
 22 11  1  0  0  0  0
 22  8  1  0  0  0  0
 23 25  1  0  0  0  0
 24  6  1  0  0  0  0
 25 24  2  0  0  0  0
 25 14  1  0  0  0  0
 26 29  1  0  0  0  0
 26 19  1  0  0  0  0
 27 20  1  0  0  0  0
 27 17  1  0  0  0  0
 29  1  1  0  0  0  0
M  END
>  <MODEL>
4

>  <REMARK>
 VINA RESULT:      -7.7      4.407      8.298
  Name = 
  0 active torsions:
  status: ('A' for Active; 'I' for Inactive)
                            x       y       z     vdW  Elec       q    Type
                         _______ _______ _______ _____ _____    ______ ____

>  <TORSDO>
F 0

$$$$
=
 OpenBabel10222416383D

 30 36  0  0  1  0  0  0  0  0999 V2000
  185.3380  177.5020  136.8010 C   0  0  0  0  0  2  0  0  0  0  0  0
  183.9220  177.6150  137.3470 C   0  0  1  0  0  0  0  0  0  0  0  0
  183.6760  178.8290  142.7890 C   0  0  0  0  0  0  0  0  0  0  0  0
  180.4540  179.8480  138.3150 C   0  0  0  0  0  0  0  0  0  0  0  0
  182.6720  179.0020  143.7430 C   0  0  0  0  0  3  0  0  0  0  0  0
  183.0550  178.9800  145.0940 C   0  0  0  0  0  3  0  0  0  0  0  0
  179.5360  179.8540  137.3150 F   0  0  0  0  0  0  0  0  0  0  0  0
  183.5600  178.8120  141.4400 N   0  0  0  0  0  0  0  0  0  0  0  0
  182.3980  179.0070  140.5980 C   0  0  0  0  0  0  0  0  0  0  0  0
  182.5220  178.7580  139.2610 C   0  0  0  0  0  0  0  0  0  0  0  0
  185.1120  178.5740  139.5060 C   0  0  0  0  0  2  0  0  0  0  0  0
  183.7740  176.6680  138.5690 C   0  0  1  0  0  3  0  0  0  0  0  0
  181.1250  179.4130  141.2430 C   0  0  0  0  0  3  0  0  0  0  0  0
  184.9860  178.6440  143.1620 C   0  0  0  0  0  0  0  0  0  0  0  0
  183.8340  178.1690  138.7650 C   0  0  2  0  0  0  0  0  0  0  0  0
  181.4330  178.9460  138.2660 C   0  0  0  0  0  3  0  0  0  0  0  0
  180.4000  180.8770  139.3980 C   0  0  2  0  0  3  0  0  0  0  0  0
  185.7280  178.5070  142.0040 C   0  0  0  0  0  0  0  0  0  0  0  0
  183.3180  176.2480  137.1960 C   0  0  2  0  0  0  0  0  0  0  0  0
  179.0770  180.4590  141.4510 F   0  0  0  0  0  0  0  0  0  0  0  0
  187.1990  178.2990  141.8810 C   0  0  0  0  0  1  0  0  0  0  0  0
  184.8120  178.6100  140.9670 C   0  0  0  0  0  0  0  0  0  0  0  0
  186.6980  178.4370  144.9190 N   0  0  0  0  0  1  0  0  0  0  0  0
  184.3660  178.7960  145.4460 N   0  0  0  0  0  0  0  0  0  0  0  0
  185.3460  178.6270  144.5120 C   0  0  0  0  0  0  0  0  0  0  0  0
  184.2150  175.4000  136.3180 C   0  0  0  0  0  2  0  0  0  0  0  0
  180.1940  180.2100  140.7210 C   0  0  0  0  0  0  0  0  0  0  0  0
  179.3250  181.9190  139.1260 C   0  0  0  0  0  1  0  0  0  0  0  0
  185.3300  176.3180  135.8500 C   0  0  0  0  0  2  0  0  0  0  0  0
  181.8910  176.2720  136.9290 N   0  0  0  0  0  1  0  0  0  0  0  0
  2  1  1  6  0  0  0
  2 12  1  0  0  0  0
  2 15  1  0  0  0  0
  3 14  2  0  0  0  0
  3  5  1  0  0  0  0
  4 17  1  0  0  0  0
  5  6  2  0  0  0  0
  6 24  1  0  0  0  0
  7  4  1  0  0  0  0
  8  3  1  0  0  0  0
  9 13  1  0  0  0  0
  9  8  1  0  0  0  0
 10  9  2  0  0  0  0
 11 22  1  0  0  0  0
 12 15  1  0  0  0  0
 14 25  1  0  0  0  0
 15 10  1  0  0  0  0
 15 11  1  0  0  0  0
 16  4  2  0  0  0  0
 16 10  1  0  0  0  0
 17 27  1  0  0  0  0
 18 14  1  0  0  0  0
 19  2  1  0  0  0  0
 19 12  1  0  0  0  0
 21 18  1  0  0  0  0
 22  8  1  0  0  0  0
 22 18  2  0  0  0  0
 25 23  1  0  0  0  0
 25 24  2  0  0  0  0
 26 19  1  0  0  0  0
 27 13  2  0  0  0  0
 27 20  1  0  0  0  0
 28 17  1  0  0  0  0
 29 26  1  0  0  0  0
 29  1  1  0  0  0  0
 30 19  1  0  0  0  0
M  END
>  <MODEL>
5

>  <REMARK>
 VINA RESULT:      -7.5      3.577      7.423
  Name = 
  0 active torsions:
  status: ('A' for Active; 'I' for Inactive)
                            x       y       z     vdW  Elec       q    Type
                         _______ _______ _______ _____ _____    ______ ____

>  <TORSDO>
F 0

$$$$
=
 OpenBabel10222416383D

 30 36  0  0  1  0  0  0  0  0999 V2000
  189.4610  178.4340  144.5910 C   0  0  0  0  0  2  0  0  0  0  0  0
  189.3380  177.8360  143.1970 C   0  0  1  0  0  0  0  0  0  0  0  0
  184.2240  178.2390  140.9970 C   0  0  0  0  0  0  0  0  0  0  0  0
  189.4520  178.1400  138.9730 C   0  0  0  0  0  0  0  0  0  0  0  0
  183.5960  177.8380  139.8180 C   0  0  0  0  0  3  0  0  0  0  0  0
  182.1920  177.8530  139.7970 C   0  0  0  0  0  3  0  0  0  0  0  0
  190.6680  177.8320  138.4550 F   0  0  0  0  0  0  0  0  0  0  0  0
  185.5500  178.3100  141.2610 N   0  0  0  0  0  0  0  0  0  0  0  0
  186.6900  178.0420  140.4090 C   0  0  0  0  0  0  0  0  0  0  0  0
  187.9300  178.0160  140.9790 C   0  0  0  0  0  0  0  0  0  0  0  0
  186.9640  179.0030  143.1920 C   0  0  0  0  0  2  0  0  0  0  0  0
  188.1770  176.8050  143.1900 C   0  0  1  0  0  3  0  0  0  0  0  0
  186.4410  177.7570  138.9740 C   0  0  0  0  0  3  0  0  0  0  0  0
  183.4930  178.6300  142.0940 C   0  0  0  0  0  0  0  0  0  0  0  0
  188.0200  178.1400  142.4930 C   0  0  2  0  0  0  0  0  0  0  0  0
  189.1960  177.7900  140.2330 C   0  0  0  0  0  3  0  0  0  0  0  0
  188.4600  178.9150  138.1650 C   0  0  2  0  0  3  0  0  0  0  0  0
  184.3920  178.9650  143.0890 C   0  0  0  0  0  0  0  0  0  0  0  0
  189.6080  176.3680  143.3600 C   0  0  2  0  0  0  0  0  0  0  0  0
  186.8480  177.7340  136.7010 F   0  0  0  0  0  0  0  0  0  0  0  0
  184.0910  179.4610  144.4620 C   0  0  0  0  0  1  0  0  0  0  0  0
  185.6460  178.7480  142.5390 C   0  0  0  0  0  0  0  0  0  0  0  0
  181.3210  179.0430  143.1770 N   0  0  0  0  0  1  0  0  0  0  0  0
  181.4810  178.2480  140.8990 N   0  0  0  0  0  0  0  0  0  0  0  0
  182.0970  178.6400  142.0530 C   0  0  0  0  0  0  0  0  0  0  0  0
  190.1720  176.1140  144.7430 C   0  0  0  0  0  2  0  0  0  0  0  0
  187.2270  178.0950  137.9530 C   0  0  0  0  0  0  0  0  0  0  0  0
  189.0550  179.3780  136.8440 C   0  0  0  0  0  1  0  0  0  0  0  0
  190.3380  177.4800  145.3830 C   0  0  0  0  0  2  0  0  0  0  0  0
  190.2640  175.7690  142.2110 N   0  0  0  0  0  1  0  0  0  0  0  0
  1 29  1  0  0  0  0
  2 19  1  0  0  0  0
  2  1  1  1  0  0  0
  3  8  1  0  0  0  0
  3 14  1  0  0  0  0
  4 16  2  0  0  0  0
  5  3  2  0  0  0  0
  6  5  1  0  0  0  0
  6 24  2  0  0  0  0
  7  4  1  0  0  0  0
  8 22  1  0  0  0  0
  9 10  2  0  0  0  0
  9  8  1  0  0  0  0
 10 15  1  0  0  0  0
 12  2  1  0  0  0  0
 12 19  1  0  0  0  0
 13  9  1  0  0  0  0
 14 18  1  0  0  0  0
 15 12  1  0  0  0  0
 15 11  1  0  0  0  0
 15  2  1  0  0  0  0
 16 10  1  0  0  0  0
 17  4  1  0  0  0  0
 18 21  1  0  0  0  0
 19 26  1  0  0  0  0
 20 27  1  0  0  0  0
 22 18  2  0  0  0  0
 22 11  1  0  0  0  0
 24 25  1  0  0  0  0
 25 14  2  0  0  0  0
 25 23  1  0  0  0  0
 26 29  1  0  0  0  0
 27 17  1  0  0  0  0
 27 13  2  0  0  0  0
 28 17  1  0  0  0  0
 30 19  1  0  0  0  0
M  END
>  <MODEL>
6

>  <REMARK>
 VINA RESULT:      -7.3      2.922      5.999
  Name = 
  0 active torsions:
  status: ('A' for Active; 'I' for Inactive)
                            x       y       z     vdW  Elec       q    Type
                         _______ _______ _______ _____ _____    ______ ____

>  <TORSDO>
F 0

$$$$
=
 OpenBabel10222416383D

 30 36  0  0  1  0  0  0  0  0999 V2000
  187.9920  176.2520  136.2160 C   0  0  0  0  0  2  0  0  0  0  0  0
  187.9220  177.2610  137.3520 C   0  0  1  0  0  0  0  0  0  0  0  0
  182.7360  178.8630  138.6530 C   0  0  0  0  0  0  0  0  0  0  0  0
  187.5550  178.2560  141.4540 C   0  0  0  0  0  0  0  0  0  0  0  0
  182.1480  179.7530  139.5520 C   0  0  0  0  0  3  0  0  0  0  0  0
  180.8060  180.1010  139.3310 C   0  0  0  0  0  3  0  0  0  0  0  0
  188.7560  178.3910  142.0720 F   0  0  0  0  0  0  0  0  0  0  0  0
  184.0020  178.3810  138.6540 N   0  0  0  0  0  0  0  0  0  0  0  0
  185.0870  178.6010  139.5870 C   0  0  0  0  0  0  0  0  0  0  0  0
  186.3270  178.1360  139.2550 C   0  0  0  0  0  0  0  0  0  0  0  0
  185.3200  176.7930  137.2590 C   0  0  0  0  0  2  0  0  0  0  0  0
  187.1190  178.5020  136.8780 C   0  0  1  0  0  3  0  0  0  0  0  0
  184.8020  179.3680  140.8250 C   0  0  0  0  0  3  0  0  0  0  0  0
  182.0260  178.3510  137.5930 C   0  0  0  0  0  0  0  0  0  0  0  0
  186.5140  177.5320  137.8710 C   0  0  2  0  0  0  0  0  0  0  0  0
  187.5290  178.2530  140.1220 C   0  0  0  0  0  3  0  0  0  0  0  0
  186.3110  178.0460  142.2550 C   0  0  2  0  0  3  0  0  0  0  0  0
  182.8750  177.5100  136.8980 C   0  0  0  0  0  0  0  0  0  0  0  0
  188.6250  178.4890  136.8480 C   0  0  2  0  0  0  0  0  0  0  0  0
  184.9890  179.9880  143.0420 F   0  0  0  0  0  0  0  0  0  0  0  0
  182.5680  176.7070  135.6800 C   0  0  0  0  0  1  0  0  0  0  0  0
  184.0820  177.5610  137.5790 C   0  0  0  0  0  0  0  0  0  0  0  0
  179.9370  178.1880  136.3020 N   0  0  0  0  0  1  0  0  0  0  0  0
  180.1140  179.5780  138.2710 N   0  0  0  0  0  0  0  0  0  0  0  0
  180.6910  178.7080  137.3920 C   0  0  0  0  0  0  0  0  0  0  0  0
  189.3620  178.1520  135.5680 C   0  0  0  0  0  2  0  0  0  0  0  0
  185.3590  179.1750  142.0200 C   0  0  0  0  0  0  0  0  0  0  0  0
  186.6210  177.8780  143.7360 C   0  0  0  0  0  1  0  0  0  0  0  0
  189.1780  176.6600  135.3600 C   0  0  0  0  0  2  0  0  0  0  0  0
  189.3200  179.2260  137.8880 N   0  0  0  0  0  1  0  0  0  0  0  0
  2  1  1  6  0  0  0
  2 15  1  0  0  0  0
  3  8  1  0  0  0  0
  3  5  1  0  0  0  0
  4  7  1  0  0  0  0
  4 17  1  0  0  0  0
  6  5  2  0  0  0  0
  8  9  1  0  0  0  0
  9 13  1  0  0  0  0
 10  9  2  0  0  0  0
 10 16  1  0  0  0  0
 11 22  1  0  0  0  0
 11 15  1  0  0  0  0
 12  2  1  0  0  0  0
 12 15  1  0  0  0  0
 13 27  2  0  0  0  0
 14  3  2  0  0  0  0
 15 10  1  0  0  0  0
 16  4  2  0  0  0  0
 17 28  1  0  0  0  0
 18 22  2  0  0  0  0
 18 14  1  0  0  0  0
 19 12  1  0  0  0  0
 19  2  1  0  0  0  0
 19 30  1  0  0  0  0
 21 18  1  0  0  0  0
 22  8  1  0  0  0  0
 23 25  1  0  0  0  0
 24  6  1  0  0  0  0
 25 14  1  0  0  0  0
 25 24  2  0  0  0  0
 26 19  1  0  0  0  0
 27 17  1  0  0  0  0
 27 20  1  0  0  0  0
 29 26  1  0  0  0  0
 29  1  1  0  0  0  0
M  END
>  <MODEL>
7

>  <REMARK>
 VINA RESULT:      -7.0      3.936      7.994
  Name = 
  0 active torsions:
  status: ('A' for Active; 'I' for Inactive)
                            x       y       z     vdW  Elec       q    Type
                         _______ _______ _______ _____ _____    ______ ____

>  <TORSDO>
F 0

$$$$
=
 OpenBabel10222416383D

 30 36  0  0  1  0  0  0  0  0999 V2000
  189.4280  178.1140  137.1570 C   0  0  0  0  0  2  0  0  0  0  0  0
  187.9890  177.8000  137.5390 C   0  0  1  0  0  0  0  0  0  0  0  0
  187.0060  177.9770  143.0300 C   0  0  0  0  0  0  0  0  0  0  0  0
  184.0070  178.9650  138.3960 C   0  0  0  0  0  0  0  0  0  0  0  0
  185.9160  177.7460  143.8710 C   0  0  0  0  0  3  0  0  0  0  0  0
  186.1810  177.5830  145.2400 C   0  0  0  0  0  3  0  0  0  0  0  0
  183.2010  178.9280  137.3050 F   0  0  0  0  0  0  0  0  0  0  0  0
  187.0080  178.1630  141.6890 N   0  0  0  0  0  0  0  0  0  0  0  0
  185.9070  178.2230  140.7500 C   0  0  0  0  0  0  0  0  0  0  0  0
  186.1970  178.2420  139.4160 C   0  0  0  0  0  0  0  0  0  0  0  0
  188.7220  178.6270  139.9420 C   0  0  0  0  0  2  0  0  0  0  0  0
  187.9820  176.6510  138.5830 C   0  0  1  0  0  3  0  0  0  0  0  0
  184.5240  178.2050  141.2890 C   0  0  0  0  0  3  0  0  0  0  0  0
  188.2860  178.0400  143.5270 C   0  0  0  0  0  0  0  0  0  0  0  0
  187.6500  178.0680  139.0010 C   0  0  2  0  0  0  0  0  0  0  0  0
  185.1810  178.3380  138.3350 C   0  0  0  0  0  3  0  0  0  0  0  0
  183.6100  179.7530  139.6040 C   0  0  2  0  0  3  0  0  0  0  0  0
  189.1300  178.2800  142.4590 C   0  0  0  0  0  0  0  0  0  0  0  0
  187.7590  176.3760  137.1180 C   0  0  2  0  0  0  0  0  0  0  0  0
  182.2700  178.6950  141.3990 F   0  0  0  0  0  0  0  0  0  0  0  0
  190.6120  178.4450  142.4860 C   0  0  0  0  0  1  0  0  0  0  0  0
  188.3050  178.3420  141.3460 C   0  0  0  0  0  0  0  0  0  0  0  0
  189.8460  177.9410  145.4290 N   0  0  0  0  0  1  0  0  0  0  0  0
  187.4630  177.6520  145.7170 N   0  0  0  0  0  0  0  0  0  0  0  0
  188.5280  177.8780  144.8930 C   0  0  0  0  0  0  0  0  0  0  0  0
  188.9080  175.9230  136.2410 C   0  0  0  0  0  2  0  0  0  0  0  0
  183.4690  178.8410  140.7810 C   0  0  0  0  0  0  0  0  0  0  0  0
  182.3350  180.5470  139.3590 C   0  0  0  0  0  1  0  0  0  0  0  0
  189.7930  177.1410  136.0490 C   0  0  0  0  0  2  0  0  0  0  0  0
  186.3980  176.1120  136.6880 N   0  0  0  0  0  1  0  0  0  0  0  0
  2  1  1  6  0  0  0
  2 12  1  0  0  0  0
  2 15  1  0  0  0  0
  3 14  2  0  0  0  0
  3  5  1  0  0  0  0
  4 17  1  0  0  0  0
  5  6  2  0  0  0  0
  6 24  1  0  0  0  0
  7  4  1  0  0  0  0
  8  3  1  0  0  0  0
  9 13  1  0  0  0  0
  9  8  1  0  0  0  0
 10  9  2  0  0  0  0
 11 22  1  0  0  0  0
 12 15  1  0  0  0  0
 14 25  1  0  0  0  0
 15 10  1  0  0  0  0
 15 11  1  0  0  0  0
 16  4  2  0  0  0  0
 16 10  1  0  0  0  0
 17 27  1  0  0  0  0
 18 21  1  0  0  0  0
 18 14  1  0  0  0  0
 19  2  1  0  0  0  0
 19 12  1  0  0  0  0
 22  8  1  0  0  0  0
 22 18  2  0  0  0  0
 25 23  1  0  0  0  0
 25 24  2  0  0  0  0
 26 19  1  0  0  0  0
 27 13  2  0  0  0  0
 27 20  1  0  0  0  0
 28 17  1  0  0  0  0
 29 26  1  0  0  0  0
 29  1  1  0  0  0  0
 30 19  1  0  0  0  0
M  END
>  <MODEL>
8

>  <REMARK>
 VINA RESULT:      -6.9      2.299      6.301
  Name = 
  0 active torsions:
  status: ('A' for Active; 'I' for Inactive)
                            x       y       z     vdW  Elec       q    Type
                         _______ _______ _______ _____ _____    ______ ____

>  <TORSDO>
F 0

$$$$
=
 OpenBabel10222416383D

 30 36  0  0  1  0  0  0  0  0999 V2000
  184.6150  179.8530  143.5440 C   0  0  0  0  0  2  0  0  0  0  0  0
  185.8160  178.9730  143.8580 C   0  0  1  0  0  0  0  0  0  0  0  0
  188.5140  177.1130  139.3400 C   0  0  0  0  0  0  0  0  0  0  0  0
  189.9490  178.4120  144.6020 C   0  0  0  0  0  0  0  0  0  0  0  0
  189.6060  176.2840  139.0840 C   0  0  0  0  0  3  0  0  0  0  0  0
  189.7610  175.8070  137.7720 C   0  0  0  0  0  3  0  0  0  0  0  0
  190.2550  178.4440  145.9240 F   0  0  0  0  0  0  0  0  0  0  0  0
  188.1540  177.6920  140.5100 N   0  0  0  0  0  0  0  0  0  0  0  0
  188.8000  177.6650  141.8060 C   0  0  0  0  0  0  0  0  0  0  0  0
  188.1280  178.1890  142.8720 C   0  0  0  0  0  0  0  0  0  0  0  0
  186.3390  179.2170  141.2770 C   0  0  0  0  0  2  0  0  0  0  0  0
  185.6690  177.6270  143.0990 C   0  0  1  0  0  3  0  0  0  0  0  0
  190.1320  177.0190  141.9110 C   0  0  0  0  0  3  0  0  0  0  0  0
  187.6260  177.4460  138.3440 C   0  0  0  0  0  0  0  0  0  0  0  0
  186.6940  178.6490  142.6540 C   0  0  2  0  0  0  0  0  0  0  0  0
  188.6710  178.2660  144.2540 C   0  0  0  0  0  3  0  0  0  0  0  0
  191.0160  178.6090  143.5730 C   0  0  2  0  0  3  0  0  0  0  0  0
  186.6690  178.2710  138.9060 C   0  0  0  0  0  0  0  0  0  0  0  0
  185.2610  177.7570  144.5430 C   0  0  2  0  0  0  0  0  0  0  0  0
  192.2760  176.6660  142.6940 F   0  0  0  0  0  0  0  0  0  0  0  0
  185.5020  178.9060  138.2310 C   0  0  0  0  0  1  0  0  0  0  0  0
  187.0270  178.3920  140.2400 C   0  0  0  0  0  0  0  0  0  0  0  0
  186.8920  177.2970  136.0000 N   0  0  0  0  0  1  0  0  0  0  0  0
  188.8670  176.1520  136.7930 N   0  0  0  0  0  0  0  0  0  0  0  0
  187.7990  176.9630  137.0450 C   0  0  0  0  0  0  0  0  0  0  0  0
  183.8120  178.0080  144.9080 C   0  0  0  0  0  2  0  0  0  0  0  0
  191.1270  177.3880  142.7170 C   0  0  0  0  0  0  0  0  0  0  0  0
  192.3500  178.9640  144.2130 C   0  0  0  0  0  1  0  0  0  0  0  0
  183.5270  179.4490  144.5240 C   0  0  0  0  0  2  0  0  0  0  0  0
  186.1520  177.1980  145.5430 N   0  0  0  0  0  1  0  0  0  0  0  0
  1 29  1  0  0  0  0
  2  1  1  6  0  0  0
  2 19  1  0  0  0  0
  3  8  1  0  0  0  0
  4  7  1  0  0  0  0
  5  3  1  0  0  0  0
  6  5  2  0  0  0  0
  8  9  1  0  0  0  0
  9 13  1  0  0  0  0
  9 10  2  0  0  0  0
 10 16  1  0  0  0  0
 11 15  1  0  0  0  0
 12  2  1  0  0  0  0
 12 19  1  0  0  0  0
 13 27  2  0  0  0  0
 14 18  1  0  0  0  0
 14  3  2  0  0  0  0
 15 10  1  0  0  0  0
 15 12  1  0  0  0  0
 15  2  1  0  0  0  0
 16  4  2  0  0  0  0
 17 28  1  0  0  0  0
 17  4  1  0  0  0  0
 18 22  2  0  0  0  0
 19 26  1  0  0  0  0
 19 30  1  0  0  0  0
 20 27  1  0  0  0  0
 21 18  1  0  0  0  0
 22  8  1  0  0  0  0
 22 11  1  0  0  0  0
 23 25  1  0  0  0  0
 24 25  2  0  0  0  0
 24  6  1  0  0  0  0
 25 14  1  0  0  0  0
 27 17  1  0  0  0  0
 29 26  1  0  0  0  0
M  END
>  <MODEL>
9

>  <REMARK>
 VINA RESULT:      -6.4      3.090      5.206
  Name = 
  0 active torsions:
  status: ('A' for Active; 'I' for Inactive)
                            x       y       z     vdW  Elec       q    Type
                         _______ _______ _______ _____ _____    ______ ____

>  <TORSDO>
F 0

$$$$
