=
 OpenBabel10222419103D

 50 54  0  0  1  0  0  0  0  0999 V2000
  188.3870  177.6470  138.2960 C   0  0  0  0  0  0  0  0  0  0  0  0
  192.5790  176.8660  138.7260 C   0  0  0  0  0  2  0  0  0  0  0  0
  189.8270  176.3380  142.3770 C   0  0  0  0  0  2  0  0  0  0  0  0
  189.2160  174.3570  136.6430 O   0  0  0  0  0  1  0  0  0  0  0  0
  190.2470  177.0550  139.8530 C   0  0  0  0  0  0  0  0  0  0  0  0
  190.7040  176.1020  137.5530 C   0  0  0  0  0  0  0  0  0  0  0  0
  185.9140  177.8470  137.9640 C   0  0  0  0  0  0  0  0  0  0  0  0
  186.9260  175.6730  137.4690 C   0  0  0  0  0  3  0  0  0  0  0  0
  189.1870  178.7780  141.9840 C   0  0  0  0  0  2  0  0  0  0  0  0
  192.0320  177.0740  141.5700 O   0  0  0  0  0  1  0  0  0  0  0  0
  191.7190  176.1820  135.4050 O   0  0  0  0  0  1  0  0  0  0  0  0
  189.3500  175.5760  137.3230 C   0  0  0  0  0  0  0  0  0  0  0  0
  188.2980  178.3610  140.8030 C   0  0  1  0  0  3  0  0  0  0  0  0
  193.0660  176.3230  137.3730 C   0  0  2  0  0  3  0  0  0  0  0  0
  189.0090  177.5970  139.6930 C   0  0  0  0  0  0  0  0  0  0  0  0
  189.3530  177.6490  143.0200 C   0  0  2  0  0  3  0  0  0  0  0  0
  187.0930  178.4260  138.2120 C   0  0  0  0  0  3  0  0  0  0  0  0
  191.0980  176.7100  138.6720 C   0  0  0  0  0  0  0  0  0  0  0  0
  188.2560  176.2720  137.6670 C   0  0  2  0  0  3  0  0  0  0  0  0
  185.8250  176.4130  137.6060 C   0  0  0  0  0  3  0  0  0  0  0  0
  190.7790  176.5560  141.1990 C   0  0  1  0  0  3  0  0  0  0  0  0
  187.0040  177.6840  141.2430 C   0  0  0  0  0  1  0  0  0  0  0  0
  191.8470  175.6800  136.7060 C   0  0  1  0  0  3  0  0  0  0  0  0
  190.0640  177.9850  144.3580 C   0  0  1  0  0  3  0  0  0  0  0  0
  190.6020  179.2730  144.2880 O   0  0  0  0  0  1  0  0  0  0  0  0
  189.3060  177.8230  145.7050 C   0  0  1  0  0  3  0  0  0  0  0  0
  187.8850  177.2460  145.6680 C   0  0  0  0  0  2  0  0  0  0  0  0
  187.1570  177.8780  146.7570 N   0  0  0  0  0  2  0  0  0  0  0  0
  185.9490  179.7820  147.2690 O   0  0  0  0  0  0  0  0  0  0  0  0
  186.0530  178.7620  146.5300 C   0  0  0  0  0  0  0  0  0  0  0  0
  183.6780  178.5790  146.2890 F   0  0  0  0  0  0  0  0  0  0  0  0
  184.9010  178.3720  145.6550 C   0  0  1  0  0  3  0  0  0  0  0  0
  184.9660  179.1130  144.3190 C   0  0  2  0  0  3  0  0  0  0  0  0
  185.0050  180.4890  144.5260 F   0  0  0  0  0  0  0  0  0  0  0  0
  183.8310  178.7320  143.4140 C   0  0  0  0  0  0  0  0  0  0  0  0
  184.0590  177.9190  142.4670 O   0  0  0  0  0  0  0  0  0  0  0  0
  182.5060  179.2190  143.6250 N   0  0  0  0  0  1  0  0  0  0  0  0
  190.1530  177.1860  146.8060 C   0  0  0  0  0  2  0  0  0  0  0  0
  191.4560  176.6280  146.2330 C   0  0  0  0  0  2  0  0  0  0  0  0
  192.1360  175.7410  147.2570 C   0  0  0  0  0  1  0  0  0  0  0  0
  184.7060  178.7300  137.8740 C   0  0  2  0  0  3  0  0  0  0  0  0
  184.7680  179.7940  138.8780 N   0  0  0  0  0  1  0  0  0  0  0  0
  182.5550  177.8950  136.8080 C   0  0  0  0  0  3  0  0  0  0  0  0
  181.6210  176.9860  139.2750 C   0  0  0  0  0  3  0  0  0  0  0  0
  183.3910  177.9890  137.9360 C   0  0  0  0  0  0  0  0  0  0  0  0
  182.9050  177.5360  139.1770 C   0  0  0  0  0  3  0  0  0  0  0  0
  180.8060  176.8910  138.1480 C   0  0  0  0  0  3  0  0  0  0  0  0
  181.2700  177.3580  136.9130 C   0  0  0  0  0  3  0  0  0  0  0  0
  193.8990  173.9030  137.6000 C   0  0  0  0  0  1  0  0  0  0  0  0
  194.2950  175.3900  137.5130 C   0  0  0  0  0  2  0  0  0  0  0  0
  1 15  2  0  0  0  0
  3 16  1  0  0  0  0
  4 12  1  0  0  0  0
  5 21  1  0  0  0  0
  6 18  1  0  0  0  0
  7 17  2  0  0  0  0
  8 20  2  0  0  0  0
  9 16  1  0  0  0  0
 12  6  2  0  0  0  0
 12 19  1  0  0  0  0
 13 22  1  1  0  0  0
 13  9  1  0  0  0  0
 14 50  1  1  0  0  0
 14  2  1  0  0  0  0
 15  5  1  0  0  0  0
 15 13  1  0  0  0  0
 16 24  1  1  0  0  0
 17  1  1  0  0  0  0
 18  2  1  0  0  0  0
 18  5  2  0  0  0  0
 19  8  1  1  0  0  0
 19  1  1  0  0  0  0
 20  7  1  0  0  0  0
 21 10  1  1  0  0  0
 21  3  1  0  0  0  0
 23 11  1  6  0  0  0
 23 14  1  0  0  0  0
 23  6  1  0  0  0  0
 24 25  1  6  0  0  0
 24 26  1  0  0  0  0
 26 27  1  6  0  0  0
 26 38  1  0  0  0  0
 27 28  1  0  0  0  0
 30 28  1  0  0  0  0
 30 29  2  0  0  0  0
 32 31  1  1  0  0  0
 32 30  1  0  0  0  0
 33 34  1  1  0  0  0
 33 32  1  0  0  0  0
 35 37  1  0  0  0  0
 35 33  1  0  0  0  0
 36 35  2  0  0  0  0
 39 38  1  0  0  0  0
 39 40  1  0  0  0  0
 41 45  1  0  0  0  0
 41  7  1  0  0  0  0
 41 42  1  1  0  0  0
 43 48  2  0  0  0  0
 43 45  1  0  0  0  0
 45 46  2  0  0  0  0
 46 44  1  0  0  0  0
 47 44  2  0  0  0  0
 48 47  1  0  0  0  0
 50 49  1  0  0  0  0
M  END
>  <MODEL>
1

>  <REMARK>
 VINA RESULT:      -8.7      0.000      0.000
  Name = 
  12 active torsions:
  status: ('A' for Active; 'I' for Inactive)
    1  A    between atoms: C_4  and  C_6
    2  A    between atoms: C_4  and  C_30
    3  A    between atoms: C_6  and  C_13
    4  A    between atoms: C_6  and  C_50
    5  A    between atoms: C_11  and  C_14
    6  A    between atoms: N_12  and  C_13
    7  A    between atoms: C_14  and  C_16
    8  A    between atoms: C_15  and  C_22
    9  A    between atoms: C_22  and  C_31
   10  A    between atoms: C_27  and  C_48
   11  A    between atoms: C_31  and  C_47
   12  A    between atoms: C_41  and  C_50
                            x       y       z     vdW  Elec       q    Type
                         _______ _______ _______ _____ _____    ______ ____

>  <TORSDO>
F 12

$$$$
=
 OpenBabel10222419103D

 50 54  0  0  1  0  0  0  0  0999 V2000
  184.5860  179.0640  138.9520 C   0  0  0  0  0  0  0  0  0  0  0  0
  188.8050  178.5550  139.5090 C   0  0  0  0  0  2  0  0  0  0  0  0
  185.9480  177.3870  142.9240 C   0  0  0  0  0  2  0  0  0  0  0  0
  185.7500  176.0680  136.9730 O   0  0  0  0  0  1  0  0  0  0  0  0
  186.4180  178.4310  140.5260 C   0  0  0  0  0  0  0  0  0  0  0  0
  187.0510  177.7980  138.1570 C   0  0  0  0  0  0  0  0  0  0  0  0
  182.1210  179.1150  138.5160 C   0  0  0  0  0  0  0  0  0  0  0  0
  183.3270  177.0990  137.8250 C   0  0  0  0  0  3  0  0  0  0  0  0
  185.1310  179.8010  142.7830 C   0  0  0  0  0  2  0  0  0  0  0  0
  188.1190  178.3780  142.3250 O   0  0  0  0  0  1  0  0  0  0  0  0
  188.1480  178.2120  136.0900 O   0  0  0  0  0  1  0  0  0  0  0  0
  185.7550  177.2030  137.7970 C   0  0  0  0  0  0  0  0  0  0  0  0
  184.3310  179.4620  141.5170 C   0  0  1  0  0  3  0  0  0  0  0  0
  189.3920  178.2160  138.1290 C   0  0  2  0  0  3  0  0  0  0  0  0
  185.1490  178.8940  140.3650 C   0  0  0  0  0  0  0  0  0  0  0  0
  185.3430  178.5710  143.6890 C   0  0  2  0  0  3  0  0  0  0  0  0
  183.2380  179.7470  138.8910 C   0  0  0  0  0  3  0  0  0  0  0  0
  187.3450  178.2960  139.3590 C   0  0  0  0  0  0  0  0  0  0  0  0
  184.5940  177.7690  138.1620 C   0  0  2  0  0  3  0  0  0  0  0  0
  182.1650  177.7320  137.9890 C   0  0  0  0  0  3  0  0  0  0  0  0
  186.9300  177.8160  141.8310 C   0  0  1  0  0  3  0  0  0  0  0  0
  183.0780  178.6420  141.8060 C   0  0  0  0  0  1  0  0  0  0  0  0
  188.2590  177.5690  137.3290 C   0  0  1  0  0  3  0  0  0  0  0  0
  185.9650  178.7970  145.0930 C   0  0  1  0  0  3  0  0  0  0  0  0
  184.9450  178.9840  146.0290 O   0  0  0  0  0  1  0  0  0  0  0  0
  186.9960  177.7830  145.6590 C   0  0  1  0  0  3  0  0  0  0  0  0
  188.4750  177.9800  145.3010 C   0  0  0  0  0  2  0  0  0  0  0  0
  188.9370  176.7150  144.7540 N   0  0  0  0  0  2  0  0  0  0  0  0
  190.4080  175.8380  143.1990 O   0  0  0  0  0  0  0  0  0  0  0  0
  190.2630  176.5400  144.2400 C   0  0  0  0  0  0  0  0  0  0  0  0
  191.8140  178.2600  144.8520 F   0  0  0  0  0  0  0  0  0  0  0  0
  191.4720  176.9220  145.0390 C   0  0  1  0  0  3  0  0  0  0  0  0
  191.2580  176.6060  146.5200 C   0  0  2  0  0  3  0  0  0  0  0  0
  191.2080  177.7800  147.2670 F   0  0  0  0  0  0  0  0  0  0  0  0
  192.3070  175.6720  147.0480 C   0  0  0  0  0  0  0  0  0  0  0  0
  192.6520  174.6840  146.3310 O   0  0  0  0  0  0  0  0  0  0  0  0
  192.9510  175.8980  148.3010 N   0  0  0  0  0  1  0  0  0  0  0  0
  186.8040  177.4870  147.1460 C   0  0  0  0  0  2  0  0  0  0  0  0
  187.4650  178.5670  148.0040 C   0  0  0  0  0  2  0  0  0  0  0  0
  188.5080  177.9440  148.9100 C   0  0  0  0  0  1  0  0  0  0  0  0
  180.8510  179.9090  138.4650 C   0  0  2  0  0  3  0  0  0  0  0  0
  179.7020  179.0310  138.2340 N   0  0  0  0  0  1  0  0  0  0  0  0
  180.8740  182.3930  137.9230 C   0  0  0  0  0  3  0  0  0  0  0  0
  180.5870  181.8560  135.2000 C   0  0  0  0  0  3  0  0  0  0  0  0
  180.8760  181.0560  137.4820 C   0  0  0  0  0  0  0  0  0  0  0  0
  180.7200  180.7980  136.1070 C   0  0  0  0  0  3  0  0  0  0  0  0
  180.5950  183.1760  135.6500 C   0  0  0  0  0  3  0  0  0  0  0  0
  180.7280  183.4450  137.0160 C   0  0  0  0  0  3  0  0  0  0  0  0
  191.0940  177.0800  139.6820 C   0  0  0  0  0  1  0  0  0  0  0  0
  190.6850  177.3690  138.2240 C   0  0  0  0  0  2  0  0  0  0  0  0
  1 15  2  0  0  0  0
  3 16  1  0  0  0  0
  4 12  1  0  0  0  0
  5 21  1  0  0  0  0
  6 18  1  0  0  0  0
  7 17  2  0  0  0  0
  8 20  2  0  0  0  0
  9 16  1  0  0  0  0
 12  6  2  0  0  0  0
 12 19  1  0  0  0  0
 13 22  1  1  0  0  0
 13  9  1  0  0  0  0
 14 50  1  1  0  0  0
 14  2  1  0  0  0  0
 15  5  1  0  0  0  0
 15 13  1  0  0  0  0
 16 24  1  1  0  0  0
 17  1  1  0  0  0  0
 18  2  1  0  0  0  0
 18  5  2  0  0  0  0
 19  8  1  1  0  0  0
 19  1  1  0  0  0  0
 20  7  1  0  0  0  0
 21 10  1  1  0  0  0
 21  3  1  0  0  0  0
 23 11  1  6  0  0  0
 23 14  1  0  0  0  0
 23  6  1  0  0  0  0
 24 26  1  0  0  0  0
 24 25  1  1  0  0  0
 26 27  1  1  0  0  0
 26 38  1  0  0  0  0
 28 27  1  0  0  0  0
 29 30  2  0  0  0  0
 30 28  1  0  0  0  0
 30 32  1  0  0  0  0
 32 31  1  1  0  0  0
 32 33  1  0  0  0  0
 33 35  1  0  0  0  0
 33 34  1  1  0  0  0
 35 37  1  0  0  0  0
 36 35  2  0  0  0  0
 38 39  1  0  0  0  0
 39 40  1  0  0  0  0
 41 42  1  6  0  0  0
 41  7  1  0  0  0  0
 44 47  2  0  0  0  0
 44 46  1  0  0  0  0
 45 43  1  0  0  0  0
 45 41  1  0  0  0  0
 46 45  2  0  0  0  0
 47 48  1  0  0  0  0
 48 43  2  0  0  0  0
 50 49  1  0  0  0  0
M  END
>  <MODEL>
2

>  <REMARK>
 VINA RESULT:      -8.7      3.075      5.319
  Name = 
  12 active torsions:
  status: ('A' for Active; 'I' for Inactive)
    1  A    between atoms: C_4  and  C_6
    2  A    between atoms: C_4  and  C_30
    3  A    between atoms: C_6  and  C_13
    4  A    between atoms: C_6  and  C_50
    5  A    between atoms: C_11  and  C_14
    6  A    between atoms: N_12  and  C_13
    7  A    between atoms: C_14  and  C_16
    8  A    between atoms: C_15  and  C_22
    9  A    between atoms: C_22  and  C_31
   10  A    between atoms: C_27  and  C_48
   11  A    between atoms: C_31  and  C_47
   12  A    between atoms: C_41  and  C_50
                            x       y       z     vdW  Elec       q    Type
                         _______ _______ _______ _____ _____    ______ ____

>  <TORSDO>
F 12

$$$$
=
 OpenBabel10222419103D

 50 54  0  0  1  0  0  0  0  0999 V2000
  190.5890  176.3810  140.2580 C   0  0  0  0  0  0  0  0  0  0  0  0
  192.0150  175.3860  136.3400 C   0  0  0  0  0  2  0  0  0  0  0  0
  188.7900  178.6410  136.7800 C   0  0  0  0  0  2  0  0  0  0  0  0
  194.0380  177.8400  139.7810 O   0  0  0  0  0  1  0  0  0  0  0  0
  190.3570  176.7530  137.8000 C   0  0  0  0  0  0  0  0  0  0  0  0
  192.7710  176.2530  138.3780 C   0  0  0  0  0  0  0  0  0  0  0  0
  189.9630  177.1360  142.5620 C   0  0  0  0  0  0  0  0  0  0  0  0
  191.9410  178.1720  141.5560 C   0  0  0  0  0  3  0  0  0  0  0  0
  187.4250  176.8320  137.9570 C   0  0  0  0  0  2  0  0  0  0  0  0
  189.6180  176.7520  135.4370 O   0  0  0  0  0  1  0  0  0  0  0  0
  194.6220  174.7780  138.5920 O   0  0  0  0  0  1  0  0  0  0  0  0
  192.8450  177.1410  139.5490 C   0  0  0  0  0  0  0  0  0  0  0  0
  188.2790  177.0030  139.2210 C   0  0  1  0  0  3  0  0  0  0  0  0
  193.4910  174.9850  136.4990 C   0  0  2  0  0  3  0  0  0  0  0  0
  189.7750  176.7880  139.0290 C   0  0  0  0  0  0  0  0  0  0  0  0
  187.3850  178.1140  137.1000 C   0  0  2  0  0  3  0  0  0  0  0  0
  189.7920  176.2910  141.5400 C   0  0  0  0  0  3  0  0  0  0  0  0
  191.6980  176.1190  137.5990 C   0  0  0  0  0  0  0  0  0  0  0  0
  191.8400  177.2240  140.4340 C   0  0  2  0  0  3  0  0  0  0  0  0
  191.0610  178.1300  142.5570 C   0  0  0  0  0  3  0  0  0  0  0  0
  189.8220  177.5260  136.5920 C   0  0  1  0  0  3  0  0  0  0  0  0
  187.9650  178.2870  139.9830 C   0  0  0  0  0  1  0  0  0  0  0  0
  193.9980  175.7060  137.7500 C   0  0  1  0  0  3  0  0  0  0  0  0
  186.4080  178.1550  135.8940 C   0  0  1  0  0  3  0  0  0  0  0  0
  187.1150  178.4850  134.7340 O   0  0  0  0  0  1  0  0  0  0  0  0
  185.4850  176.9410  135.5990 C   0  0  1  0  0  3  0  0  0  0  0  0
  184.0000  177.2140  135.3250 C   0  0  0  0  0  2  0  0  0  0  0  0
  183.2520  176.3990  136.2700 N   0  0  0  0  0  2  0  0  0  0  0  0
  183.4520  175.3610  138.3280 O   0  0  0  0  0  0  0  0  0  0  0  0
  183.4930  176.4470  137.6820 C   0  0  0  0  0  0  0  0  0  0  0  0
  182.5490  178.6310  137.9540 F   0  0  0  0  0  0  0  0  0  0  0  0
  183.5110  177.7440  138.4320 C   0  0  1  0  0  3  0  0  0  0  0  0
  183.3420  177.4990  139.9330 C   0  0  2  0  0  3  0  0  0  0  0  0
  181.9980  177.3330  140.2520 F   0  0  0  0  0  0  0  0  0  0  0  0
  183.9630  178.5940  140.7490 C   0  0  0  0  0  0  0  0  0  0  0  0
  183.8060  178.5730  142.0080 O   0  0  0  0  0  0  0  0  0  0  0  0
  184.7590  179.6170  140.1520 N   0  0  0  0  0  1  0  0  0  0  0  0
  186.0790  175.9550  134.5940 C   0  0  0  0  0  2  0  0  0  0  0  0
  186.2540  174.5750  135.2260 C   0  0  0  0  0  2  0  0  0  0  0  0
  187.6450  174.0440  134.9420 C   0  0  0  0  0  1  0  0  0  0  0  0
  189.1330  176.9250  143.7920 C   0  0  2  0  0  3  0  0  0  0  0  0
  188.0090  177.8620  143.8230 N   0  0  0  0  0  1  0  0  0  0  0  0
  191.2220  176.4360  145.1550 C   0  0  0  0  0  3  0  0  0  0  0  0
  189.9490  177.2530  147.5000 C   0  0  0  0  0  3  0  0  0  0  0  0
  189.9180  176.9610  145.0820 C   0  0  0  0  0  0  0  0  0  0  0  0
  189.2820  177.3600  146.2730 C   0  0  0  0  0  3  0  0  0  0  0  0
  191.2440  176.7390  147.5570 C   0  0  0  0  0  3  0  0  0  0  0  0
  191.8780  176.3190  146.3820 C   0  0  0  0  0  3  0  0  0  0  0  0
  194.7900  176.7130  135.1110 C   0  0  0  0  0  1  0  0  0  0  0  0
  194.3200  175.2490  135.2170 C   0  0  0  0  0  2  0  0  0  0  0  0
  1 19  1  0  0  0  0
  1 17  1  0  0  0  0
  2 14  1  0  0  0  0
  2 18  1  0  0  0  0
  3 16  1  0  0  0  0
  5 15  1  0  0  0  0
  6 12  2  0  0  0  0
  7 41  1  0  0  0  0
  8 20  2  0  0  0  0
  9 13  1  0  0  0  0
 12  4  1  0  0  0  0
 12 19  1  0  0  0  0
 13 22  1  6  0  0  0
 14 50  1  6  0  0  0
 14 23  1  0  0  0  0
 15 13  1  0  0  0  0
 15  1  2  0  0  0  0
 16 24  1  6  0  0  0
 16  9  1  0  0  0  0
 17  7  2  0  0  0  0
 18  5  2  0  0  0  0
 18  6  1  0  0  0  0
 19  8  1  6  0  0  0
 20  7  1  0  0  0  0
 21 10  1  6  0  0  0
 21  3  1  0  0  0  0
 21  5  1  0  0  0  0
 23  6  1  0  0  0  0
 23 11  1  1  0  0  0
 24 25  1  6  0  0  0
 26 38  1  6  0  0  0
 26 24  1  0  0  0  0
 27 26  1  0  0  0  0
 27 28  1  0  0  0  0
 28 30  1  0  0  0  0
 30 29  2  0  0  0  0
 30 32  1  0  0  0  0
 32 31  1  6  0  0  0
 32 33  1  0  0  0  0
 33 34  1  6  0  0  0
 33 35  1  0  0  0  0
 35 36  2  0  0  0  0
 37 35  1  0  0  0  0
 38 39  1  0  0  0  0
 40 39  1  0  0  0  0
 41 42  1  1  0  0  0
 41 45  1  0  0  0  0
 43 48  1  0  0  0  0
 44 47  1  0  0  0  0
 45 43  2  0  0  0  0
 45 46  1  0  0  0  0
 46 44  2  0  0  0  0
 48 47  2  0  0  0  0
 49 50  1  0  0  0  0
M  END
>  <MODEL>
3

>  <REMARK>
 VINA RESULT:      -7.8      2.502      7.655
  Name = 
  12 active torsions:
  status: ('A' for Active; 'I' for Inactive)
    1  A    between atoms: C_4  and  C_6
    2  A    between atoms: C_4  and  C_30
    3  A    between atoms: C_6  and  C_13
    4  A    between atoms: C_6  and  C_50
    5  A    between atoms: C_11  and  C_14
    6  A    between atoms: N_12  and  C_13
    7  A    between atoms: C_14  and  C_16
    8  A    between atoms: C_15  and  C_22
    9  A    between atoms: C_22  and  C_31
   10  A    between atoms: C_27  and  C_48
   11  A    between atoms: C_31  and  C_47
   12  A    between atoms: C_41  and  C_50
                            x       y       z     vdW  Elec       q    Type
                         _______ _______ _______ _____ _____    ______ ____

>  <TORSDO>
F 12

$$$$
=
 OpenBabel10222419103D

 50 54  0  0  1  0  0  0  0  0999 V2000
  184.6340  178.9010  138.9390 C   0  0  0  0  0  0  0  0  0  0  0  0
  188.8740  178.5290  139.4400 C   0  0  0  0  0  2  0  0  0  0  0  0
  186.1060  177.3630  142.9270 C   0  0  0  0  0  2  0  0  0  0  0  0
  185.8550  175.8920  137.0150 O   0  0  0  0  0  1  0  0  0  0  0  0
  186.5080  178.3610  140.4980 C   0  0  0  0  0  0  0  0  0  0  0  0
  187.1220  177.6880  138.1350 C   0  0  0  0  0  0  0  0  0  0  0  0
  182.1630  178.8700  138.5410 C   0  0  0  0  0  0  0  0  0  0  0  0
  183.4160  176.8730  137.8800 C   0  0  0  0  0  3  0  0  0  0  0  0
  185.2160  179.7490  142.7420 C   0  0  0  0  0  2  0  0  0  0  0  0
  188.2380  178.4020  142.2700 O   0  0  0  0  0  1  0  0  0  0  0  0
  188.1750  178.0830  136.0410 O   0  0  0  0  0  1  0  0  0  0  0  0
  185.8400  177.0470  137.8100 C   0  0  0  0  0  0  0  0  0  0  0  0
  184.4070  179.3550  141.4970 C   0  0  1  0  0  3  0  0  0  0  0  0
  189.4500  178.1740  138.0590 C   0  0  2  0  0  3  0  0  0  0  0  0
  185.2230  178.7820  140.3460 C   0  0  0  0  0  0  0  0  0  0  0  0
  185.4780  178.5480  143.6730 C   0  0  2  0  0  3  0  0  0  0  0  0
  183.2660  179.5430  138.8830 C   0  0  0  0  0  3  0  0  0  0  0  0
  187.4200  178.2240  139.3200 C   0  0  0  0  0  0  0  0  0  0  0  0
  184.6680  177.5870  138.1800 C   0  0  2  0  0  3  0  0  0  0  0  0
  182.2380  177.4750  138.0470 C   0  0  0  0  0  3  0  0  0  0  0  0
  187.0580  177.7930  141.8090 C   0  0  1  0  0  3  0  0  0  0  0  0
  183.1830  178.5060  141.8260 C   0  0  0  0  0  1  0  0  0  0  0  0
  188.3250  177.4740  137.2930 C   0  0  1  0  0  3  0  0  0  0  0  0
  186.1150  178.8270  145.0610 C   0  0  1  0  0  3  0  0  0  0  0  0
  185.1100  179.1500  145.9780 O   0  0  0  0  0  1  0  0  0  0  0  0
  187.0720  177.7840  145.7020 C   0  0  1  0  0  3  0  0  0  0  0  0
  188.5780  177.9380  145.4530 C   0  0  0  0  0  2  0  0  0  0  0  0
  189.2420  177.4880  146.6660 N   0  0  0  0  0  2  0  0  0  0  0  0
  190.4070  175.6880  147.5350 O   0  0  0  0  0  0  0  0  0  0  0  0
  190.3500  176.5790  146.6410 C   0  0  0  0  0  0  0  0  0  0  0  0
  192.6850  176.1910  146.2760 F   0  0  0  0  0  0  0  0  0  0  0  0
  191.5500  176.8280  145.7770 C   0  0  1  0  0  3  0  0  0  0  0  0
  191.2680  176.4100  144.3330 C   0  0  2  0  0  3  0  0  0  0  0  0
  192.0140  175.2840  143.9970 F   0  0  0  0  0  0  0  0  0  0  0  0
  191.5160  177.5330  143.3700 C   0  0  0  0  0  0  0  0  0  0  0  0
  191.5310  177.2730  142.1290 O   0  0  0  0  0  0  0  0  0  0  0  0
  191.6820  178.8800  143.8140 N   0  0  0  0  0  1  0  0  0  0  0  0
  186.7620  177.4960  147.1700 C   0  0  0  0  0  2  0  0  0  0  0  0
  187.2760  178.6250  148.0640 C   0  0  0  0  0  2  0  0  0  0  0  0
  188.0020  178.0490  149.2630 C   0  0  0  0  0  1  0  0  0  0  0  0
  180.8690  179.6250  138.4920 C   0  0  2  0  0  3  0  0  0  0  0  0
  181.0790  180.9760  137.9670 N   0  0  0  0  0  1  0  0  0  0  0  0
  179.9020  180.8610  140.4920 C   0  0  0  0  0  3  0  0  0  0  0  0
  179.2210  178.4500  141.7210 C   0  0  0  0  0  3  0  0  0  0  0  0
  180.1170  179.6530  139.8020 C   0  0  0  0  0  0  0  0  0  0  0  0
  179.7790  178.4420  140.4370 C   0  0  0  0  0  3  0  0  0  0  0  0
  179.0060  179.6550  142.3900 C   0  0  0  0  0  3  0  0  0  0  0  0
  179.3570  180.8620  141.7780 C   0  0  0  0  0  3  0  0  0  0  0  0
  190.5500  175.8550  137.9500 C   0  0  0  0  0  1  0  0  0  0  0  0
  190.7690  177.3670  138.1540 C   0  0  0  0  0  2  0  0  0  0  0  0
  1 15  2  0  0  0  0
  3 16  1  0  0  0  0
  4 12  1  0  0  0  0
  5 21  1  0  0  0  0
  6 18  1  0  0  0  0
  7 17  2  0  0  0  0
  8 20  2  0  0  0  0
  9 16  1  0  0  0  0
 12  6  2  0  0  0  0
 12 19  1  0  0  0  0
 13 22  1  1  0  0  0
 13  9  1  0  0  0  0
 14 50  1  1  0  0  0
 14  2  1  0  0  0  0
 15  5  1  0  0  0  0
 15 13  1  0  0  0  0
 16 24  1  1  0  0  0
 17  1  1  0  0  0  0
 18  2  1  0  0  0  0
 18  5  2  0  0  0  0
 19  8  1  1  0  0  0
 19  1  1  0  0  0  0
 20  7  1  0  0  0  0
 21 10  1  1  0  0  0
 21  3  1  0  0  0  0
 23 11  1  6  0  0  0
 23 14  1  0  0  0  0
 23  6  1  0  0  0  0
 24 26  1  0  0  0  0
 24 25  1  1  0  0  0
 26 27  1  1  0  0  0
 26 38  1  0  0  0  0
 27 28  1  0  0  0  0
 30 28  1  0  0  0  0
 30 29  2  0  0  0  0
 32 31  1  1  0  0  0
 32 30  1  0  0  0  0
 33 34  1  6  0  0  0
 33 32  1  0  0  0  0
 35 37  1  0  0  0  0
 35 33  1  0  0  0  0
 36 35  2  0  0  0  0
 38 39  1  0  0  0  0
 39 40  1  0  0  0  0
 41 42  1  1  0  0  0
 41  7  1  0  0  0  0
 41 45  1  0  0  0  0
 43 48  1  0  0  0  0
 44 47  1  0  0  0  0
 45 46  1  0  0  0  0
 45 43  2  0  0  0  0
 46 44  2  0  0  0  0
 48 47  2  0  0  0  0
 49 50  1  0  0  0  0
M  END
>  <MODEL>
4

>  <REMARK>
 VINA RESULT:      -7.4      3.002      4.918
  Name = 
  12 active torsions:
  status: ('A' for Active; 'I' for Inactive)
    1  A    between atoms: C_4  and  C_6
    2  A    between atoms: C_4  and  C_30
    3  A    between atoms: C_6  and  C_13
    4  A    between atoms: C_6  and  C_50
    5  A    between atoms: C_11  and  C_14
    6  A    between atoms: N_12  and  C_13
    7  A    between atoms: C_14  and  C_16
    8  A    between atoms: C_15  and  C_22
    9  A    between atoms: C_22  and  C_31
   10  A    between atoms: C_27  and  C_48
   11  A    between atoms: C_31  and  C_47
   12  A    between atoms: C_41  and  C_50
                            x       y       z     vdW  Elec       q    Type
                         _______ _______ _______ _____ _____    ______ ____

>  <TORSDO>
F 12

$$$$
=
 OpenBabel10222419103D

 50 54  0  0  1  0  0  0  0  0999 V2000
  189.0170  178.2270  141.4330 C   0  0  0  0  0  0  0  0  0  0  0  0
  188.7830  178.2410  145.7120 C   0  0  0  0  0  2  0  0  0  0  0  0
  185.0030  177.2620  143.2760 C   0  0  0  0  0  2  0  0  0  0  0  0
  190.6930  175.1250  142.7810 O   0  0  0  0  0  1  0  0  0  0  0  0
  187.5480  178.0100  143.4400 C   0  0  0  0  0  0  0  0  0  0  0  0
  189.8630  177.1270  143.9600 C   0  0  0  0  0  0  0  0  0  0  0  0
  189.2320  177.9610  138.9530 C   0  0  0  0  0  0  0  0  0  0  0  0
  189.7650  176.0050  140.3270 C   0  0  0  0  0  2  0  0  0  0  0  0
  185.3780  179.5360  142.1770 C   0  0  0  0  0  2  0  0  0  0  0  0
  185.9180  178.3820  145.2670 O   0  0  0  0  0  1  0  0  0  0  0  0
  192.0570  177.3660  144.8420 O   0  0  0  0  0  1  0  0  0  0  0  0
  190.0250  176.3570  142.7180 C   0  0  0  0  0  0  0  0  0  0  0  0
  186.5120  178.9450  141.3290 C   0  0  1  0  0  3  0  0  0  0  0  0
  190.1560  177.7790  146.2290 C   0  0  2  0  0  3  0  0  0  0  0  0
  187.6510  178.3120  142.1170 C   0  0  0  0  0  0  0  0  0  0  0  0
  184.3450  178.4710  142.5980 C   0  0  2  0  0  3  0  0  0  0  0  0
  189.0430  178.7510  140.0140 C   0  0  0  0  0  3  0  0  0  0  0  0
  188.7660  177.8130  144.2850 C   0  0  0  0  0  0  0  0  0  0  0  0
  189.6330  176.8430  141.5300 C   0  0  0  0  0  0  0  0  0  0  0  0
  189.5790  176.5300  139.1150 C   0  0  0  0  0  3  0  0  0  0  0  0
  186.2260  177.6370  144.1170 C   0  0  1  0  0  3  0  0  0  0  0  0
  186.0080  178.0460  140.2040 C   0  0  0  0  0  1  0  0  0  0  0  0
  190.7610  176.9130  145.1210 C   0  0  1  0  0  3  0  0  0  0  0  0
  183.0430  178.9510  143.2940 C   0  0  1  0  0  3  0  0  0  0  0  0
  183.2520  180.2180  143.8470 O   0  0  0  0  0  1  0  0  0  0  0  0
  181.6980  178.9510  142.5170 C   0  0  1  0  0  3  0  0  0  0  0  0
  181.6970  178.4190  141.0780 C   0  0  0  0  0  2  0  0  0  0  0  0
  182.0450  179.5440  140.2250 N   0  0  0  0  0  2  0  0  0  0  0  0
  183.6600  180.2550  138.7290 O   0  0  0  0  0  0  0  0  0  0  0  0
  182.7900  179.3830  139.0110 C   0  0  0  0  0  0  0  0  0  0  0  0
  181.8020  179.0200  136.8600 F   0  0  0  0  0  0  0  0  0  0  0  0
  182.3790  178.3940  137.9620 C   0  0  1  0  0  3  0  0  0  0  0  0
  183.5690  177.5260  137.5480 C   0  0  2  0  0  3  0  0  0  0  0  0
  183.6910  177.4940  136.1620 F   0  0  0  0  0  0  0  0  0  0  0  0
  183.4720  176.1410  138.1160 C   0  0  0  0  0  0  0  0  0  0  0  0
  182.6860  175.9410  139.0920 O   0  0  0  0  0  0  0  0  0  0  0  0
  184.1980  175.0470  137.5570 N   0  0  0  0  0  1  0  0  0  0  0  0
  180.5270  178.4010  143.3300 C   0  0  0  0  0  2  0  0  0  0  0  0
  179.6290  179.5360  143.8230 C   0  0  0  0  0  2  0  0  0  0  0  0
  179.3140  180.4830  142.6820 C   0  0  0  0  0  1  0  0  0  0  0  0
  189.2690  178.6040  137.5990 C   0  0  2  0  0  3  0  0  0  0  0  0
  188.6780  179.9430  137.6480 N   0  0  0  0  0  1  0  0  0  0  0  0
  187.2820  177.4590  136.5030 C   0  0  0  0  0  3  0  0  0  0  0  0
  188.9490  176.2440  134.6240 C   0  0  0  0  0  3  0  0  0  0  0  0
  188.6550  177.7690  136.5000 C   0  0  0  0  0  0  0  0  0  0  0  0
  189.4870  177.1420  135.5540 C   0  0  0  0  0  3  0  0  0  0  0  0
  187.5850  175.9520  134.6340 C   0  0  0  0  0  3  0  0  0  0  0  0
  186.7510  176.5530  135.5830 C   0  0  0  0  0  3  0  0  0  0  0  0
  188.7800  177.4580  148.3740 C   0  0  0  0  0  1  0  0  0  0  0  0
  190.0700  177.0920  147.6140 C   0  0  0  0  0  2  0  0  0  0  0  0
  1 19  1  0  0  0  0
  1 15  1  0  0  0  0
  2 14  1  0  0  0  0
  3 21  1  0  0  0  0
  5 21  1  0  0  0  0
  5 18  1  0  0  0  0
  6 18  2  0  0  0  0
  6 23  1  0  0  0  0
  7 20  2  0  0  0  0
  7 17  1  0  0  0  0
  8 19  1  0  0  0  0
  9 16  1  0  0  0  0
 12  4  1  0  0  0  0
 12  6  1  0  0  0  0
 13 22  1  6  0  0  0
 13 15  1  0  0  0  0
 13  9  1  0  0  0  0
 14 50  1  1  0  0  0
 15  5  2  0  0  0  0
 16  3  1  0  0  0  0
 16 24  1  1  0  0  0
 17  1  2  0  0  0  0
 18  2  1  0  0  0  0
 19 12  2  0  0  0  0
 20  8  1  0  0  0  0
 21 10  1  6  0  0  0
 23 11  1  6  0  0  0
 23 14  1  0  0  0  0
 24 25  1  6  0  0  0
 26 27  1  6  0  0  0
 26 24  1  0  0  0  0
 26 38  1  0  0  0  0
 28 27  1  0  0  0  0
 29 30  2  0  0  0  0
 30 28  1  0  0  0  0
 32 31  1  6  0  0  0
 32 30  1  0  0  0  0
 33 34  1  6  0  0  0
 33 32  1  0  0  0  0
 33 35  1  0  0  0  0
 35 36  2  0  0  0  0
 37 35  1  0  0  0  0
 38 39  1  0  0  0  0
 40 39  1  0  0  0  0
 41 42  1  1  0  0  0
 41  7  1  0  0  0  0
 44 47  2  0  0  0  0
 44 46  1  0  0  0  0
 45 43  1  0  0  0  0
 45 41  1  0  0  0  0
 46 45  2  0  0  0  0
 47 48  1  0  0  0  0
 48 43  2  0  0  0  0
 50 49  1  0  0  0  0
M  END
>  <MODEL>
5

>  <REMARK>
 VINA RESULT:      -7.2      3.336      7.275
  Name = 
  12 active torsions:
  status: ('A' for Active; 'I' for Inactive)
    1  A    between atoms: C_4  and  C_6
    2  A    between atoms: C_4  and  C_30
    3  A    between atoms: C_6  and  C_13
    4  A    between atoms: C_6  and  C_50
    5  A    between atoms: C_11  and  C_14
    6  A    between atoms: N_12  and  C_13
    7  A    between atoms: C_14  and  C_16
    8  A    between atoms: C_15  and  C_22
    9  A    between atoms: C_22  and  C_31
   10  A    between atoms: C_27  and  C_48
   11  A    between atoms: C_31  and  C_47
   12  A    between atoms: C_41  and  C_50
                            x       y       z     vdW  Elec       q    Type
                         _______ _______ _______ _____ _____    ______ ____

>  <TORSDO>
F 12

$$$$
=
 OpenBabel10222419103D

 50 54  0  0  1  0  0  0  0  0999 V2000
  190.6310  176.3800  140.3170 C   0  0  0  0  0  0  0  0  0  0  0  0
  192.0290  175.4850  136.3650 C   0  0  0  0  0  2  0  0  0  0  0  0
  188.8050  178.7240  136.9100 C   0  0  0  0  0  2  0  0  0  0  0  0
  194.0750  177.8540  139.8520 O   0  0  0  0  0  1  0  0  0  0  0  0
  190.3810  176.8130  137.8710 C   0  0  0  0  0  0  0  0  0  0  0  0
  192.8000  176.3020  138.4190 C   0  0  0  0  0  0  0  0  0  0  0  0
  190.0210  177.0770  142.6430 C   0  0  0  0  0  0  0  0  0  0  0  0
  191.9910  178.1400  141.6490 C   0  0  0  0  0  3  0  0  0  0  0  0
  187.4500  176.8850  138.0500 C   0  0  0  0  0  2  0  0  0  0  0  0
  189.6250  176.8710  135.5130 O   0  0  0  0  0  1  0  0  0  0  0  0
  194.6530  174.8230  138.5830 O   0  0  0  0  0  1  0  0  0  0  0  0
  192.8810  177.1600  139.6110 C   0  0  0  0  0  0  0  0  0  0  0  0
  188.3130  177.0250  139.3130 C   0  0  1  0  0  3  0  0  0  0  0  0
  193.5070  175.0820  136.5030 C   0  0  2  0  0  3  0  0  0  0  0  0
  189.8070  176.8170  139.1040 C   0  0  0  0  0  0  0  0  0  0  0  0
  187.4020  178.1880  137.2260 C   0  0  2  0  0  3  0  0  0  0  0  0
  189.8430  176.2570  141.6020 C   0  0  0  0  0  3  0  0  0  0  0  0
  191.7200  176.1860  137.6440 C   0  0  0  0  0  0  0  0  0  0  0  0
  191.8820  177.2200  140.5050 C   0  0  2  0  0  3  0  0  0  0  0  0
  191.1180  178.0720  142.6550 C   0  0  0  0  0  3  0  0  0  0  0  0
  189.8360  177.6150  136.6860 C   0  0  1  0  0  3  0  0  0  0  0  0
  188.0030  178.2900  140.1090 C   0  0  0  0  0  1  0  0  0  0  0  0
  194.0230  175.7720  137.7680 C   0  0  1  0  0  3  0  0  0  0  0  0
  186.4170  178.2580  136.0290 C   0  0  1  0  0  3  0  0  0  0  0  0
  187.1130  178.0260  134.8390 O   0  0  0  0  0  1  0  0  0  0  0  0
  185.1210  177.4010  136.0360 C   0  0  1  0  0  3  0  0  0  0  0  0
  185.0500  176.1930  135.0920 C   0  0  0  0  0  2  0  0  0  0  0  0
  184.8380  175.0270  135.9340 N   0  0  0  0  0  2  0  0  0  0  0  0
  184.6610  172.7230  135.8320 O   0  0  0  0  0  0  0  0  0  0  0  0
  185.3780  173.7390  135.6110 C   0  0  0  0  0  0  0  0  0  0  0  0
  187.4860  174.7750  135.1440 F   0  0  0  0  0  0  0  0  0  0  0  0
  186.8300  173.5540  135.2910 C   0  0  1  0  0  3  0  0  0  0  0  0
  187.5070  172.6850  136.3510 C   0  0  2  0  0  3  0  0  0  0  0  0
  186.9050  172.8710  137.5920 F   0  0  0  0  0  0  0  0  0  0  0  0
  188.9840  172.9400  136.4210 C   0  0  0  0  0  0  0  0  0  0  0  0
  189.4630  173.4310  137.4880 O   0  0  0  0  0  0  0  0  0  0  0  0
  189.8570  172.5980  135.3450 N   0  0  0  0  0  1  0  0  0  0  0  0
  184.6270  177.0580  137.4410 C   0  0  0  0  0  2  0  0  0  0  0  0
  183.9080  178.2530  138.0680 C   0  0  0  0  0  2  0  0  0  0  0  0
  183.2050  177.8260  139.3410 C   0  0  0  0  0  1  0  0  0  0  0  0
  189.2000  176.8340  143.8730 C   0  0  2  0  0  3  0  0  0  0  0  0
  188.0380  177.7230  143.9020 N   0  0  0  0  0  1  0  0  0  0  0  0
  191.2790  176.3670  145.2590 C   0  0  0  0  0  3  0  0  0  0  0  0
  190.0110  177.2840  147.5700 C   0  0  0  0  0  3  0  0  0  0  0  0
  189.9830  176.9060  145.1640 C   0  0  0  0  0  0  0  0  0  0  0  0
  189.3490  177.3560  146.3380 C   0  0  0  0  0  3  0  0  0  0  0  0
  191.2990  176.7560  147.6490 C   0  0  0  0  0  3  0  0  0  0  0  0
  191.9300  176.2860  146.4920 C   0  0  0  0  0  3  0  0  0  0  0  0
  195.0540  176.7350  135.2900 C   0  0  0  0  0  1  0  0  0  0  0  0
  194.3260  175.3780  135.2230 C   0  0  0  0  0  2  0  0  0  0  0  0
  1 19  1  0  0  0  0
  1 17  1  0  0  0  0
  2 14  1  0  0  0  0
  2 18  1  0  0  0  0
  3 16  1  0  0  0  0
  5 15  1  0  0  0  0
  6 12  2  0  0  0  0
  7 20  1  0  0  0  0
  7 41  1  0  0  0  0
  8 20  2  0  0  0  0
  9 13  1  0  0  0  0
 12  4  1  0  0  0  0
 12 19  1  0  0  0  0
 13 22  1  6  0  0  0
 14 50  1  6  0  0  0
 14 23  1  0  0  0  0
 15 13  1  0  0  0  0
 15  1  2  0  0  0  0
 16 24  1  6  0  0  0
 16  9  1  0  0  0  0
 17  7  2  0  0  0  0
 18  5  2  0  0  0  0
 18  6  1  0  0  0  0
 19  8  1  6  0  0  0
 21 10  1  6  0  0  0
 21  3  1  0  0  0  0
 21  5  1  0  0  0  0
 23  6  1  0  0  0  0
 23 11  1  1  0  0  0
 24 25  1  6  0  0  0
 24 26  1  0  0  0  0
 26 27  1  6  0  0  0
 26 38  1  0  0  0  0
 27 28  1  0  0  0  0
 30 29  2  0  0  0  0
 30 28  1  0  0  0  0
 32 31  1  1  0  0  0
 32 30  1  0  0  0  0
 32 33  1  0  0  0  0
 33 35  1  0  0  0  0
 33 34  1  1  0  0  0
 35 36  2  0  0  0  0
 37 35  1  0  0  0  0
 38 39  1  0  0  0  0
 39 40  1  0  0  0  0
 41 42  1  1  0  0  0
 41 45  1  0  0  0  0
 43 48  1  0  0  0  0
 44 47  1  0  0  0  0
 45 43  2  0  0  0  0
 45 46  1  0  0  0  0
 46 44  2  0  0  0  0
 48 47  2  0  0  0  0
 50 49  1  0  0  0  0
M  END
>  <MODEL>
6

>  <REMARK>
 VINA RESULT:      -6.9      3.690      8.504
  Name = 
  12 active torsions:
  status: ('A' for Active; 'I' for Inactive)
    1  A    between atoms: C_4  and  C_6
    2  A    between atoms: C_4  and  C_30
    3  A    between atoms: C_6  and  C_13
    4  A    between atoms: C_6  and  C_50
    5  A    between atoms: C_11  and  C_14
    6  A    between atoms: N_12  and  C_13
    7  A    between atoms: C_14  and  C_16
    8  A    between atoms: C_15  and  C_22
    9  A    between atoms: C_22  and  C_31
   10  A    between atoms: C_27  and  C_48
   11  A    between atoms: C_31  and  C_47
   12  A    between atoms: C_41  and  C_50
                            x       y       z     vdW  Elec       q    Type
                         _______ _______ _______ _____ _____    ______ ____

>  <TORSDO>
F 12

$$$$
=
 OpenBabel10222419103D

 50 54  0  0  1  0  0  0  0  0999 V2000
  182.4340  176.3910  138.5530 C   0  0  0  0  0  0  0  0  0  0  0  0
  184.3560  178.2570  141.8990 C   0  0  0  0  0  2  0  0  0  0  0  0
  186.0370  178.9780  137.6750 C   0  0  0  0  0  2  0  0  0  0  0  0
  180.3140  179.2720  139.7590 O   0  0  0  0  0  1  0  0  0  0  0  0
  184.3470  177.7860  139.3440 C   0  0  0  0  0  0  0  0  0  0  0  0
  182.3040  178.2250  140.7740 C   0  0  0  0  0  0  0  0  0  0  0  0
  181.1470  175.5170  136.5920 C   0  0  0  0  0  0  0  0  0  0  0  0
  180.4480  177.6810  137.4990 C   0  0  0  0  0  2  0  0  0  0  0  0
  186.2430  176.4360  137.5520 C   0  0  0  0  0  2  0  0  0  0  0  0
  186.5660  178.6290  140.0530 O   0  0  0  0  0  1  0  0  0  0  0  0
  180.9760  177.8690  142.7120 O   0  0  0  0  0  1  0  0  0  0  0  0
  181.3480  178.3300  139.6620 C   0  0  0  0  0  0  0  0  0  0  0  0
  184.7300  176.3190  137.3190 C   0  0  1  0  0  3  0  0  0  0  0  0
  183.2540  178.5520  142.9300 C   0  0  2  0  0  3  0  0  0  0  0  0
  183.8560  176.9350  138.4040 C   0  0  0  0  0  0  0  0  0  0  0  0
  186.8060  177.7910  137.0780 C   0  0  2  0  0  3  0  0  0  0  0  0
  182.0610  175.3240  137.5490 C   0  0  0  0  0  3  0  0  0  0  0  0
  183.6150  178.0270  140.6270 C   0  0  0  0  0  0  0  0  0  0  0  0
  181.3920  177.4940  138.6130 C   0  0  0  0  0  0  0  0  0  0  0  0
  180.3310  176.7520  136.5500 C   0  0  0  0  0  3  0  0  0  0  0  0
  185.5390  178.7160  139.0980 C   0  0  1  0  0  3  0  0  0  0  0  0
  184.3100  176.7450  135.9160 C   0  0  0  0  0  1  0  0  0  0  0  0
  181.9520  178.6910  142.1370 C   0  0  1  0  0  3  0  0  0  0  0  0
  188.3470  177.9790  137.0720 C   0  0  1  0  0  3  0  0  0  0  0  0
  188.6530  179.3180  137.3340 O   0  0  0  0  0  1  0  0  0  0  0  0
  189.2460  177.0700  137.9550 C   0  0  1  0  0  3  0  0  0  0  0  0
  189.0560  177.1260  139.4760 C   0  0  0  0  0  2  0  0  0  0  0  0
  190.3570  176.8460  140.0620 N   0  0  0  0  0  2  0  0  0  0  0  0
  191.7360  177.4810  141.8070 O   0  0  0  0  0  0  0  0  0  0  0  0
  190.6180  177.0050  141.4620 C   0  0  0  0  0  0  0  0  0  0  0  0
  190.4760  175.6590  143.4380 F   0  0  0  0  0  0  0  0  0  0  0  0
  189.7370  176.3780  142.5010 C   0  0  1  0  0  3  0  0  0  0  0  0
  188.8660  177.4380  143.1770 C   0  0  2  0  0  3  0  0  0  0  0  0
  188.8060  178.5900  142.3980 F   0  0  0  0  0  0  0  0  0  0  0  0
  189.3410  177.7460  144.5660 C   0  0  0  0  0  0  0  0  0  0  0  0
  190.2570  178.6120  144.7140 O   0  0  0  0  0  0  0  0  0  0  0  0
  188.7560  177.1320  145.7130 N   0  0  0  0  0  1  0  0  0  0  0  0
  189.3430  175.6330  137.4440 C   0  0  0  0  0  2  0  0  0  0  0  0
  190.7310  175.3550  136.8670 C   0  0  0  0  0  2  0  0  0  0  0  0
  190.8670  176.0040  135.5050 C   0  0  0  0  0  1  0  0  0  0  0  0
  180.8410  174.3700  135.6750 C   0  0  2  0  0  3  0  0  0  0  0  0
  179.4750  173.8890  135.8900 N   0  0  0  0  0  1  0  0  0  0  0  0
  181.6630  172.1630  136.6300 C   0  0  0  0  0  3  0  0  0  0  0  0
  184.0560  172.3780  135.2120 C   0  0  0  0  0  3  0  0  0  0  0  0
  181.8410  173.2400  135.7420 C   0  0  0  0  0  0  0  0  0  0  0  0
  183.0570  173.3440  135.0400 C   0  0  0  0  0  3  0  0  0  0  0  0
  183.8640  171.3120  136.0900 C   0  0  0  0  0  3  0  0  0  0  0  0
  182.6680  171.2100  136.8090 C   0  0  0  0  0  3  0  0  0  0  0  0
  184.6780  179.4300  144.8800 C   0  0  0  0  0  1  0  0  0  0  0  0
  183.5950  179.7620  143.8350 C   0  0  0  0  0  2  0  0  0  0  0  0
  1 19  1  0  0  0  0
  2 14  1  0  0  0  0
  3 21  1  0  0  0  0
  5 18  1  0  0  0  0
  6 23  1  0  0  0  0
  7 17  1  0  0  0  0
  8 19  1  0  0  0  0
 12  4  1  0  0  0  0
 12  6  1  0  0  0  0
 13 22  1  6  0  0  0
 13  9  1  0  0  0  0
 13 15  1  0  0  0  0
 14 50  1  6  0  0  0
 15  1  1  0  0  0  0
 15  5  2  0  0  0  0
 16 24  1  1  0  0  0
 16  9  1  0  0  0  0
 16  3  1  0  0  0  0
 17  1  2  0  0  0  0
 18  6  2  0  0  0  0
 18  2  1  0  0  0  0
 19 12  2  0  0  0  0
 20  7  2  0  0  0  0
 20  8  1  0  0  0  0
 21  5  1  0  0  0  0
 21 10  1  1  0  0  0
 23 11  1  1  0  0  0
 23 14  1  0  0  0  0
 24 25  1  1  0  0  0
 24 26  1  0  0  0  0
 26 38  1  6  0  0  0
 26 27  1  0  0  0  0
 27 28  1  0  0  0  0
 28 30  1  0  0  0  0
 30 29  2  0  0  0  0
 30 32  1  0  0  0  0
 32 33  1  0  0  0  0
 32 31  1  1  0  0  0
 33 34  1  6  0  0  0
 33 35  1  0  0  0  0
 35 36  2  0  0  0  0
 35 37  1  0  0  0  0
 39 38  1  0  0  0  0
 40 39  1  0  0  0  0
 41 45  1  0  0  0  0
 41 42  1  1  0  0  0
 41  7  1  0  0  0  0
 43 48  1  0  0  0  0
 44 47  1  0  0  0  0
 45 43  2  0  0  0  0
 46 44  2  0  0  0  0
 46 45  1  0  0  0  0
 47 48  2  0  0  0  0
 50 49  1  0  0  0  0
M  END
>  <MODEL>
7

>  <REMARK>
 VINA RESULT:      -6.9      3.124      7.817
  Name = 
  12 active torsions:
  status: ('A' for Active; 'I' for Inactive)
    1  A    between atoms: C_4  and  C_6
    2  A    between atoms: C_4  and  C_30
    3  A    between atoms: C_6  and  C_13
    4  A    between atoms: C_6  and  C_50
    5  A    between atoms: C_11  and  C_14
    6  A    between atoms: N_12  and  C_13
    7  A    between atoms: C_14  and  C_16
    8  A    between atoms: C_15  and  C_22
    9  A    between atoms: C_22  and  C_31
   10  A    between atoms: C_27  and  C_48
   11  A    between atoms: C_31  and  C_47
   12  A    between atoms: C_41  and  C_50
                            x       y       z     vdW  Elec       q    Type
                         _______ _______ _______ _____ _____    ______ ____

>  <TORSDO>
F 12

$$$$
=
 OpenBabel10222419103D

 50 54  0  0  1  0  0  0  0  0999 V2000
  182.1760  176.7460  139.8170 C   0  0  0  0  0  0  0  0  0  0  0  0
  185.0470  178.3420  142.5710 C   0  0  0  0  0  2  0  0  0  0  0  0
  185.6090  179.1130  138.0690 C   0  0  0  0  0  2  0  0  0  0  0  0
  180.6740  179.7150  141.5990 O   0  0  0  0  0  1  0  0  0  0  0  0
  184.3310  177.9750  140.1010 C   0  0  0  0  0  0  0  0  0  0  0  0
  182.7750  178.4950  142.0290 C   0  0  0  0  0  0  0  0  0  0  0  0
  180.3570  176.0400  138.2500 C   0  0  0  0  0  0  0  0  0  0  0  0
  180.0880  178.2100  139.3530 C   0  0  0  0  0  2  0  0  0  0  0  0
  185.5810  176.5700  137.8440 C   0  0  0  0  0  2  0  0  0  0  0  0
  186.7160  178.6350  140.2140 O   0  0  0  0  0  1  0  0  0  0  0  0
  181.9790  178.1530  144.2430 O   0  0  0  0  0  1  0  0  0  0  0  0
  181.5710  178.7090  141.2130 C   0  0  0  0  0  0  0  0  0  0  0  0
  184.0560  176.5660  138.0170 C   0  0  1  0  0  3  0  0  0  0  0  0
  184.2800  178.6700  143.8630 C   0  0  2  0  0  3  0  0  0  0  0  0
  183.5470  177.1970  139.3070 C   0  0  0  0  0  0  0  0  0  0  0  0
  186.1020  177.9010  137.2660 C   0  0  2  0  0  3  0  0  0  0  0  0
  181.4720  175.7480  138.9260 C   0  0  0  0  0  3  0  0  0  0  0  0
  183.9820  178.2130  141.5360 C   0  0  0  0  0  0  0  0  0  0  0  0
  181.2740  177.9140  140.1730 C   0  0  0  0  0  0  0  0  0  0  0  0
  179.6550  177.3290  138.4500 C   0  0  0  0  0  3  0  0  0  0  0  0
  185.4840  178.8300  139.5670 C   0  0  1  0  0  3  0  0  0  0  0  0
  183.3150  177.0750  136.7850 C   0  0  0  0  0  1  0  0  0  0  0  0
  182.8300  178.9300  143.4460 C   0  0  1  0  0  3  0  0  0  0  0  0
  187.5960  177.9840  136.8550 C   0  0  1  0  0  3  0  0  0  0  0  0
  188.0830  179.2650  137.1280 O   0  0  0  0  0  1  0  0  0  0  0  0
  188.6080  176.9310  137.3860 C   0  0  1  0  0  3  0  0  0  0  0  0
  188.6660  176.6840  138.8990 C   0  0  0  0  0  2  0  0  0  0  0  0
  190.0740  176.5810  139.2440 N   0  0  0  0  0  2  0  0  0  0  0  0
  191.7570  177.7090  140.3620 O   0  0  0  0  0  0  0  0  0  0  0  0
  190.6170  177.1670  140.4340 C   0  0  0  0  0  0  0  0  0  0  0  0
  190.1990  175.5950  142.1910 F   0  0  0  0  0  0  0  0  0  0  0  0
  190.0120  176.9130  141.7820 C   0  0  1  0  0  3  0  0  0  0  0  0
  190.5640  177.8980  142.8130 C   0  0  2  0  0  3  0  0  0  0  0  0
  191.9090  177.6430  143.0610 F   0  0  0  0  0  0  0  0  0  0  0  0
  189.7650  177.8820  144.0820 C   0  0  0  0  0  0  0  0  0  0  0  0
  190.3050  178.3210  145.1430 O   0  0  0  0  0  0  0  0  0  0  0  0
  188.4090  177.4360  144.1110 N   0  0  0  0  0  1  0  0  0  0  0  0
  188.5970  175.6250  136.5940 C   0  0  0  0  0  2  0  0  0  0  0  0
  190.0190  175.2000  136.2280 C   0  0  0  0  0  2  0  0  0  0  0  0
  190.2830  173.7900  136.7170 C   0  0  0  0  0  1  0  0  0  0  0  0
  179.7340  174.9550  137.4240 C   0  0  2  0  0  3  0  0  0  0  0  0
  178.9340  174.0610  138.2650 N   0  0  0  0  0  1  0  0  0  0  0  0
  181.3820  173.0500  137.0830 C   0  0  0  0  0  3  0  0  0  0  0  0
  182.1290  174.0700  134.5950 C   0  0  0  0  0  3  0  0  0  0  0  0
  180.7160  174.1810  136.5750 C   0  0  0  0  0  0  0  0  0  0  0  0
  181.1080  174.6930  135.3240 C   0  0  0  0  0  3  0  0  0  0  0  0
  182.7750  172.9450  135.1060 C   0  0  0  0  0  3  0  0  0  0  0  0
  182.4080  172.4400  136.3580 C   0  0  0  0  0  3  0  0  0  0  0  0
  185.4870  179.3420  146.0290 C   0  0  0  0  0  1  0  0  0  0  0  0
  184.9380  179.8170  144.6700 C   0  0  0  0  0  2  0  0  0  0  0  0
  1 19  1  0  0  0  0
  2 14  1  0  0  0  0
  3 21  1  0  0  0  0
  5 18  1  0  0  0  0
  6 23  1  0  0  0  0
  7 20  2  0  0  0  0
  7 17  1  0  0  0  0
  8 19  1  0  0  0  0
  9 13  1  0  0  0  0
 12  4  1  0  0  0  0
 12  6  1  0  0  0  0
 13 22  1  6  0  0  0
 13 15  1  0  0  0  0
 14 50  1  6  0  0  0
 15  1  1  0  0  0  0
 15  5  2  0  0  0  0
 16 24  1  1  0  0  0
 16  9  1  0  0  0  0
 16  3  1  0  0  0  0
 17  1  2  0  0  0  0
 18  6  2  0  0  0  0
 18  2  1  0  0  0  0
 19 12  2  0  0  0  0
 20  8  1  0  0  0  0
 21  5  1  0  0  0  0
 21 10  1  6  0  0  0
 23 14  1  0  0  0  0
 23 11  1  1  0  0  0
 24 25  1  1  0  0  0
 24 26  1  0  0  0  0
 26 38  1  6  0  0  0
 26 27  1  0  0  0  0
 27 28  1  0  0  0  0
 28 30  1  0  0  0  0
 29 30  2  0  0  0  0
 30 32  1  0  0  0  0
 32 31  1  1  0  0  0
 32 33  1  0  0  0  0
 33 34  1  1  0  0  0
 33 35  1  0  0  0  0
 35 37  1  0  0  0  0
 35 36  2  0  0  0  0
 39 38  1  0  0  0  0
 39 40  1  0  0  0  0
 41  7  1  0  0  0  0
 41 42  1  1  0  0  0
 44 47  2  0  0  0  0
 44 46  1  0  0  0  0
 45 43  1  0  0  0  0
 45 41  1  0  0  0  0
 46 45  2  0  0  0  0
 47 48  1  0  0  0  0
 48 43  2  0  0  0  0
 50 49  1  0  0  0  0
M  END
>  <MODEL>
8

>  <REMARK>
 VINA RESULT:      -6.9      3.029      7.958
  Name = 
  12 active torsions:
  status: ('A' for Active; 'I' for Inactive)
    1  A    between atoms: C_4  and  C_6
    2  A    between atoms: C_4  and  C_30
    3  A    between atoms: C_6  and  C_13
    4  A    between atoms: C_6  and  C_50
    5  A    between atoms: C_11  and  C_14
    6  A    between atoms: N_12  and  C_13
    7  A    between atoms: C_14  and  C_16
    8  A    between atoms: C_15  and  C_22
    9  A    between atoms: C_22  and  C_31
   10  A    between atoms: C_27  and  C_48
   11  A    between atoms: C_31  and  C_47
   12  A    between atoms: C_41  and  C_50
                            x       y       z     vdW  Elec       q    Type
                         _______ _______ _______ _____ _____    ______ ____

>  <TORSDO>
F 12

$$$$
=
 OpenBabel10222419103D

 50 54  0  0  1  0  0  0  0  0999 V2000
  190.5660  176.4930  140.5800 C   0  0  0  0  0  0  0  0  0  0  0  0
  191.9010  175.4660  136.6390 C   0  0  0  0  0  2  0  0  0  0  0  0
  188.7650  178.7980  137.1320 C   0  0  0  0  0  2  0  0  0  0  0  0
  194.0400  177.8680  140.0450 O   0  0  0  0  0  1  0  0  0  0  0  0
  190.3020  176.8720  138.1260 C   0  0  0  0  0  0  0  0  0  0  0  0
  192.7120  176.3140  138.6640 C   0  0  0  0  0  0  0  0  0  0  0  0
  189.9970  177.2620  142.8930 C   0  0  0  0  0  0  0  0  0  0  0  0
  191.9820  178.2510  141.8550 C   0  0  0  0  0  3  0  0  0  0  0  0
  187.3750  177.0230  138.3310 C   0  0  0  0  0  2  0  0  0  0  0  0
  189.5240  176.8910  135.7750 O   0  0  0  0  0  1  0  0  0  0  0  0
  194.5300  174.7930  138.8460 O   0  0  0  0  0  1  0  0  0  0  0  0
  192.8270  177.1980  139.8330 C   0  0  0  0  0  0  0  0  0  0  0  0
  188.2540  177.1720  139.5820 C   0  0  1  0  0  3  0  0  0  0  0  0
  193.3690  175.0290  136.7720 C   0  0  2  0  0  3  0  0  0  0  0  0
  189.7410  176.9210  139.3640 C   0  0  0  0  0  0  0  0  0  0  0  0
  187.3520  178.3060  137.4750 C   0  0  2  0  0  3  0  0  0  0  0  0
  189.7870  176.4220  141.8740 C   0  0  0  0  0  3  0  0  0  0  0  0
  191.6230  176.2060  137.9020 C   0  0  0  0  0  0  0  0  0  0  0  0
  191.8390  177.3050  140.7350 C   0  0  2  0  0  3  0  0  0  0  0  0
  191.1180  178.2290  142.8700 C   0  0  0  0  0  3  0  0  0  0  0  0
  189.7650  177.6580  136.9270 C   0  0  1  0  0  3  0  0  0  0  0  0
  187.9840  178.4630  140.3490 C   0  0  0  0  0  1  0  0  0  0  0  0
  193.9150  175.7370  138.0150 C   0  0  1  0  0  3  0  0  0  0  0  0
  186.3570  178.3710  136.2860 C   0  0  1  0  0  3  0  0  0  0  0  0
  187.0690  178.5000  135.0900 O   0  0  0  0  0  1  0  0  0  0  0  0
  185.2730  177.2710  136.1170 C   0  0  1  0  0  3  0  0  0  0  0  0
  183.9110  177.4910  136.7870 C   0  0  0  0  0  2  0  0  0  0  0  0
  184.1880  177.9530  138.1380 N   0  0  0  0  0  2  0  0  0  0  0  0
  184.1890  179.8670  139.4370 O   0  0  0  0  0  0  0  0  0  0  0  0
  183.5140  179.0780  138.7170 C   0  0  0  0  0  0  0  0  0  0  0  0
  181.5270  179.5070  139.9830 F   0  0  0  0  0  0  0  0  0  0  0  0
  182.0190  179.1810  138.7210 C   0  0  1  0  0  3  0  0  0  0  0  0
  181.5470  180.1820  137.6660 C   0  0  2  0  0  3  0  0  0  0  0  0
  180.8620  181.2350  138.2640 F   0  0  0  0  0  0  0  0  0  0  0  0
  180.7130  179.5240  136.6070 C   0  0  0  0  0  0  0  0  0  0  0  0
  181.2430  179.2880  135.4780 O   0  0  0  0  0  0  0  0  0  0  0  0
  179.3680  179.1170  136.8550 N   0  0  0  0  0  1  0  0  0  0  0  0
  185.1280  176.7770  134.6780 C   0  0  0  0  0  2  0  0  0  0  0  0
  185.3650  175.2690  134.5960 C   0  0  0  0  0  2  0  0  0  0  0  0
  186.5700  174.8860  135.4330 C   0  0  0  0  0  1  0  0  0  0  0  0
  189.1830  177.0700  144.1370 C   0  0  2  0  0  3  0  0  0  0  0  0
  188.3070  178.2220  144.3630 N   0  0  0  0  0  1  0  0  0  0  0  0
  189.6550  177.2740  146.6260 C   0  0  0  0  0  3  0  0  0  0  0  0
  192.0560  175.8820  146.3400 C   0  0  0  0  0  3  0  0  0  0  0  0
  189.9980  176.7470  145.3680 C   0  0  0  0  0  0  0  0  0  0  0  0
  191.2160  176.0550  145.2330 C   0  0  0  0  0  3  0  0  0  0  0  0
  191.7010  176.4030  147.5840 C   0  0  0  0  0  3  0  0  0  0  0  0
  190.5020  177.1110  147.7240 C   0  0  0  0  0  3  0  0  0  0  0  0
  194.8220  176.6750  135.4380 C   0  0  0  0  0  1  0  0  0  0  0  0
  194.1830  175.2730  135.4770 C   0  0  0  0  0  2  0  0  0  0  0  0
  1 19  1  0  0  0  0
  1 17  1  0  0  0  0
  2 14  1  0  0  0  0
  2 18  1  0  0  0  0
  3 16  1  0  0  0  0
  5 15  1  0  0  0  0
  6 12  2  0  0  0  0
  7 41  1  0  0  0  0
  8 20  2  0  0  0  0
  9 13  1  0  0  0  0
 12  4  1  0  0  0  0
 12 19  1  0  0  0  0
 13 22  1  6  0  0  0
 14 50  1  6  0  0  0
 14 23  1  0  0  0  0
 15 13  1  0  0  0  0
 15  1  2  0  0  0  0
 16 24  1  6  0  0  0
 16  9  1  0  0  0  0
 17  7  2  0  0  0  0
 18  5  2  0  0  0  0
 18  6  1  0  0  0  0
 19  8  1  6  0  0  0
 20  7  1  0  0  0  0
 21 10  1  6  0  0  0
 21  3  1  0  0  0  0
 21  5  1  0  0  0  0
 23  6  1  0  0  0  0
 23 11  1  1  0  0  0
 24 25  1  6  0  0  0
 26 38  1  6  0  0  0
 26 24  1  0  0  0  0
 26 27  1  0  0  0  0
 27 28  1  0  0  0  0
 28 30  1  0  0  0  0
 30 32  1  0  0  0  0
 30 29  2  0  0  0  0
 32 31  1  1  0  0  0
 33 34  1  1  0  0  0
 33 32  1  0  0  0  0
 35 37  1  0  0  0  0
 35 33  1  0  0  0  0
 36 35  2  0  0  0  0
 39 38  1  0  0  0  0
 39 40  1  0  0  0  0
 41 42  1  1  0  0  0
 41 45  1  0  0  0  0
 43 48  1  0  0  0  0
 44 47  1  0  0  0  0
 45 43  2  0  0  0  0
 46 45  1  0  0  0  0
 46 44  2  0  0  0  0
 47 48  2  0  0  0  0
 49 50  1  0  0  0  0
M  END
>  <MODEL>
9

>  <REMARK>
 VINA RESULT:      -6.7      2.836      7.788
  Name = 
  12 active torsions:
  status: ('A' for Active; 'I' for Inactive)
    1  A    between atoms: C_4  and  C_6
    2  A    between atoms: C_4  and  C_30
    3  A    between atoms: C_6  and  C_13
    4  A    between atoms: C_6  and  C_50
    5  A    between atoms: C_11  and  C_14
    6  A    between atoms: N_12  and  C_13
    7  A    between atoms: C_14  and  C_16
    8  A    between atoms: C_15  and  C_22
    9  A    between atoms: C_22  and  C_31
   10  A    between atoms: C_27  and  C_48
   11  A    between atoms: C_31  and  C_47
   12  A    between atoms: C_41  and  C_50
                            x       y       z     vdW  Elec       q    Type
                         _______ _______ _______ _____ _____    ______ ____

>  <TORSDO>
F 12

$$$$
