=
 OpenBabel10222417313D

 59 65  0  0  1  0  0  0  0  0999 V2000
  186.8340  177.7830  144.7160 C   0  0  0  0  0  0  0  0  0  0  0  0
  184.6770  178.8780  144.0020 C   0  0  0  0  0  0  0  0  0  0  0  0
  186.8920  177.0000  143.4430 C   0  0  0  0  0  2  0  0  0  0  0  0
  186.1170  178.7820  141.9410 C   0  0  0  0  0  3  0  0  0  0  0  0
  184.8390  178.9700  142.6540 C   0  0  0  0  0  0  0  0  0  0  0  0
  185.6690  179.2890  146.2990 C   0  0  0  0  0  1  0  0  0  0  0  0
  185.7960  178.6210  144.9620 C   0  0  0  0  0  0  0  0  0  0  0  0
  183.8010  179.3470  141.8720 F   0  0  0  0  0  0  0  0  0  0  0  0
  187.0760  177.9310  142.2940 C   0  0  0  0  0  0  0  0  0  0  0  0
  189.2790  177.8540  140.8370 C   0  0  0  0  0  0  0  0  0  0  0  0
  188.2840  177.8910  141.5180 C   0  0  0  0  0  0  0  0  0  0  0  0
  190.4670  177.7970  139.9830 C   0  0  0  0  0  2  0  0  0  0  0  0
  190.9030  176.3570  139.7810 C   0  0  0  0  0  2  0  0  0  0  0  0
  191.9750  175.9560  136.1900 N   0  0  0  0  0  2  0  0  0  0  0  0
  191.6390  176.2140  138.4860 C   0  0  0  0  0  0  0  0  0  0  0  0
  191.0480  175.9010  137.2470 N   0  0  0  0  0  0  0  0  0  0  0  0
  192.9140  176.4430  138.3030 C   0  0  0  0  0  0  0  0  0  0  0  0
  193.8030  176.8280  139.3070 O   0  0  0  0  0  1  0  0  0  0  0  0
  193.2570  176.2740  136.8540 C   0  0  1  0  0  3  0  0  0  0  0  0
  189.6280  175.6840  137.0300 C   0  0  0  0  0  1  0  0  0  0  0  0
  196.5470  174.4410  135.8160 C   0  0  0  0  0  2  0  0  0  0  0  0
  194.6300  172.8170  135.7160 C   0  0  2  0  0  3  0  0  0  0  0  0
  195.5590  175.5980  135.9490 C   0  0  1  0  0  3  0  0  0  0  0  0
  195.3080  176.2450  134.5940 C   0  0  0  0  0  1  0  0  0  0  0  0
  194.2640  175.1330  136.6420 C   0  0  2  0  0  3  0  0  0  0  0  0
  193.6260  173.9700  135.8750 C   0  0  0  0  0  2  0  0  0  0  0  0
  195.9370  173.2700  135.0500 C   0  0  0  0  0  2  0  0  0  0  0  0
  194.0620  171.6710  135.1000 O   0  0  0  0  0  0  0  0  0  0  0  0
  193.7230  170.7310  136.1000 C   0  0  0  0  0  1  0  0  0  0  0  0
  187.9550  177.5930  145.6640 C   0  0  0  0  0  0  0  0  0  0  0  0
  187.7500  177.1340  146.8130 O   0  0  0  0  0  0  0  0  0  0  0  0
  189.3460  177.9660  145.2770 C   0  0  0  0  0  2  0  0  0  0  0  0
  190.0840  176.7860  144.8510 N   0  0  0  0  0  2  0  0  0  0  0  0
  191.9250  178.0750  145.4840 O   0  0  0  0  0  1  0  0  0  0  0  0
  191.3630  176.7950  145.5490 C   0  0  1  0  0  3  0  0  0  0  0  0
  191.9290  175.2040  147.2730 O   0  0  0  0  0  0  0  0  0  0  0  0
  192.8080  175.5000  148.3460 C   0  0  0  0  0  2  0  0  0  0  0  0
  193.1480  177.5610  149.6120 N   0  0  0  0  0  2  0  0  0  0  0  0
  192.5470  176.8920  148.6880 C   0  0  0  0  0  0  0  0  0  0  0  0
  191.5800  177.3990  147.8870 O   0  0  0  0  0  0  0  0  0  0  0  0
  191.1700  176.3740  147.0020 C   0  0  1  0  0  3  0  0  0  0  0  0
  183.4210  179.1130  144.5930 O   0  0  0  0  0  0  0  0  0  0  0  0
  182.3750  178.2790  144.4790 O   0  0  0  0  0  0  0  0  0  0  0  0
  181.3570  179.0400  143.8940 C   0  0  0  0  0  2  0  0  0  0  0  0
  179.0910  178.5450  144.5160 O   0  0  0  0  0  1  0  0  0  0  0  0
  180.1220  178.1820  143.6440 C   0  0  1  0  0  3  0  0  0  0  0  0
  180.5470  178.4420  140.0090 C   0  0  2  0  0  0  0  0  0  0  0  0
  183.0830  175.9510  138.5510 C   0  0  0  0  0  2  0  0  0  0  0  0
  182.4370  179.3350  138.8110 O   0  0  0  0  0  0  0  0  0  0  0  0
  180.6440  179.0570  141.3650 C   0  0  0  0  0  2  0  0  0  0  0  0
  181.9300  178.3660  139.3600 C   0  0  0  0  0  0  0  0  0  0  0  0
  179.6590  178.2640  142.1910 C   0  0  1  0  0  3  0  0  0  0  0  0
  181.6230  176.1940  138.7710 C   0  0  1  0  0  3  0  0  0  0  0  0
  179.5060  176.9780  141.6390 O   0  0  0  0  0  0  0  0  0  0  0  0
  179.6000  179.2590  139.1440 C   0  0  0  0  0  1  0  0  0  0  0  0
  180.7270  175.8050  139.9250 C   0  0  0  0  0  2  0  0  0  0  0  0
  182.6780  177.0800  139.4770 C   0  0  1  0  0  0  0  0  0  0  0  0
  182.9670  176.7410  140.7920 F   0  0  0  0  0  0  0  0  0  0  0  0
  179.8910  177.0580  140.2910 C   0  0  2  0  0  3  0  0  0  0  0  0
  1  7  2  0  0  0  0
  1 30  1  0  0  0  0
  2 42  1  0  0  0  0
  2  7  1  0  0  0  0
  3  1  1  0  0  0  0
  4  9  2  0  0  0  0
  4  5  1  0  0  0  0
  5  2  2  0  0  0  0
  7  6  1  0  0  0  0
  8  5  1  0  0  0  0
  9  3  1  0  0  0  0
 10 11  3  0  0  0  0
 11  9  1  0  0  0  0
 12 10  1  0  0  0  0
 13 12  1  0  0  0  0
 14 16  1  0  0  0  0
 15 13  1  0  0  0  0
 16 15  1  0  0  0  0
 17 15  2  0  0  0  0
 17 18  1  0  0  0  0
 19 14  1  6  0  0  0
 19 17  1  0  0  0  0
 20 16  1  0  0  0  0
 21 23  1  0  0  0  0
 22 28  1  6  0  0  0
 22 26  1  0  0  0  0
 23 24  1  6  0  0  0
 23 25  1  0  0  0  0
 25 26  1  6  0  0  0
 25 19  1  0  0  0  0
 27 22  1  0  0  0  0
 27 21  1  0  0  0  0
 28 29  1  0  0  0  0
 30 31  2  0  0  0  0
 32 30  1  0  0  0  0
 33 32  1  0  0  0  0
 33 35  1  0  0  0  0
 35 34  1  1  0  0  0
 36 37  1  0  0  0  0
 37 39  1  0  0  0  0
 39 38  2  0  0  0  0
 40 39  1  0  0  0  0
 41 35  1  6  0  0  0
 41 36  1  0  0  0  0
 41 40  1  0  0  0  0
 43 42  1  0  0  0  0
 44 43  1  0  0  0  0
 46 44  1  0  0  0  0
 46 45  1  1  0  0  0
 47 55  1  6  0  0  0
 47 59  1  0  0  0  0
 47 50  1  0  0  0  0
 48 57  1  0  0  0  0
 49 51  2  0  0  0  0
 50 52  1  0  0  0  0
 51 57  1  0  0  0  0
 51 47  1  0  0  0  0
 52 46  1  1  0  0  0
 53 48  1  1  0  0  0
 53 57  1  0  0  0  0
 53 56  1  0  0  0  0
 54 52  1  0  0  0  0
 57 58  1  1  0  0  0
 59 56  1  1  0  0  0
 59 54  1  0  0  0  0
M  END
>  <MODEL>
1

>  <REMARK>
 VINA RESULT:      -8.7      0.000      0.000
  Name = 
  16 active torsions:
  status: ('A' for Active; 'I' for Inactive)
    1  A    between atoms: C_1  and  C_18
    2  A    between atoms: C_3  and  C_46
    3  A    between atoms: O_4  and  C_34
    4  A    between atoms: O_4  and  O_50
    5  A    between atoms: C_6  and  O_50
    6  A    between atoms: N_9  and  C_27
    7  A    between atoms: N_9  and  C_32
    8  A    between atoms: C_14  and  C_26
    9  A    between atoms: C_15  and  O_42
   10  A    between atoms: C_18  and  C_27
   11  A    between atoms: C_23  and  C_25
   12  A    between atoms: C_25  and  C_34
   13  A    between atoms: C_26  and  C_46
   14  A    between atoms: C_32  and  C_38
   15  A    between atoms: C_33  and  C_49
   16  A    between atoms: C_56  and  C_59
                            x       y       z     vdW  Elec       q    Type
                         _______ _______ _______ _____ _____    ______ ____

>  <TORSDO>
F 16

$$$$
=
 OpenBabel10222417313D

 59 65  0  0  1  0  0  0  0  0999 V2000
  184.4070  178.5060  141.5080 C   0  0  0  0  0  0  0  0  0  0  0  0
  183.3830  178.9540  143.7700 C   0  0  0  0  0  0  0  0  0  0  0  0
  183.3270  177.5240  141.1820 C   0  0  0  0  0  2  0  0  0  0  0  0
  181.4550  178.7740  142.1630 C   0  0  0  0  0  3  0  0  0  0  0  0
  182.0540  178.8160  143.5100 C   0  0  0  0  0  0  0  0  0  0  0  0
  185.5890  180.0030  143.0880 C   0  0  0  0  0  1  0  0  0  0  0  0
  184.4260  179.1330  142.7110 C   0  0  0  0  0  0  0  0  0  0  0  0
  181.1650  178.8030  144.5300 F   0  0  0  0  0  0  0  0  0  0  0  0
  182.0210  178.2340  141.0870 C   0  0  0  0  0  0  0  0  0  0  0  0
  180.7430  178.3320  138.7760 C   0  0  0  0  0  0  0  0  0  0  0  0
  181.3260  178.3060  139.8320 C   0  0  0  0  0  0  0  0  0  0  0  0
  180.0450  178.3280  137.4890 C   0  0  0  0  0  2  0  0  0  0  0  0
  178.9310  177.2970  137.4970 C   0  0  0  0  0  2  0  0  0  0  0  0
  180.1180  173.7300  137.7800 N   0  0  0  0  0  2  0  0  0  0  0  0
  179.4910  175.9250  137.2870 C   0  0  0  0  0  0  0  0  0  0  0  0
  179.6940  174.9670  138.3000 N   0  0  0  0  0  0  0  0  0  0  0  0
  179.7890  175.3900  136.1300 C   0  0  0  0  0  0  0  0  0  0  0  0
  179.6610  176.0370  134.9010 O   0  0  0  0  0  1  0  0  0  0  0  0
  180.2410  173.9740  136.3270 C   0  0  1  0  0  3  0  0  0  0  0  0
  179.3750  175.1570  139.7030 C   0  0  0  0  0  1  0  0  0  0  0  0
  183.3590  172.3430  134.6320 C   0  0  0  0  0  2  0  0  0  0  0  0
  184.1140  173.7340  136.5850 C   0  0  2  0  0  3  0  0  0  0  0  0
  181.9120  172.4600  135.1080 C   0  0  1  0  0  3  0  0  0  0  0  0
  181.5140  171.2320  135.9140 C   0  0  0  0  0  1  0  0  0  0  0  0
  181.6960  173.7790  135.8740 C   0  0  2  0  0  3  0  0  0  0  0  0
  182.6600  173.8810  137.0610 C   0  0  0  0  0  2  0  0  0  0  0  0
  184.3410  172.4360  135.7960 C   0  0  0  0  0  2  0  0  0  0  0  0
  185.0590  173.9210  137.6280 O   0  0  0  0  0  0  0  0  0  0  0  0
  186.0300  172.8960  137.5590 C   0  0  0  0  0  1  0  0  0  0  0  0
  185.4240  178.7480  140.4600 C   0  0  0  0  0  0  0  0  0  0  0  0
  186.6180  178.9780  140.7690 O   0  0  0  0  0  0  0  0  0  0  0  0
  185.0430  178.7450  139.0190 C   0  0  0  0  0  2  0  0  0  0  0  0
  186.2340  178.7080  138.1830 N   0  0  0  0  0  2  0  0  0  0  0  0
  186.2850  177.8650  136.0060 O   0  0  0  0  0  1  0  0  0  0  0  0
  186.1490  177.5130  137.3530 C   0  0  1  0  0  3  0  0  0  0  0  0
  187.8960  176.0310  136.5940 O   0  0  0  0  0  0  0  0  0  0  0  0
  189.2770  176.3220  136.7330 C   0  0  0  0  0  2  0  0  0  0  0  0
  190.5000  177.4610  138.5140 N   0  0  0  0  0  2  0  0  0  0  0  0
  189.4010  177.0110  138.0100 C   0  0  0  0  0  0  0  0  0  0  0  0
  188.1890  177.1230  138.6030 O   0  0  0  0  0  0  0  0  0  0  0  0
  187.2340  176.5190  137.7530 C   0  0  1  0  0  3  0  0  0  0  0  0
  183.8540  179.0230  145.0950 O   0  0  0  0  0  0  0  0  0  0  0  0
  184.4980  178.0180  145.7110 O   0  0  0  0  0  0  0  0  0  0  0  0
  185.0430  178.5820  146.8680 C   0  0  0  0  0  2  0  0  0  0  0  0
  187.1430  178.7230  148.0240 O   0  0  0  0  0  1  0  0  0  0  0  0
  186.5610  178.6810  146.7540 C   0  0  1  0  0  3  0  0  0  0  0  0
  188.5750  177.1750  144.0830 C   0  0  2  0  0  0  0  0  0  0  0  0
  192.1850  178.4820  143.9230 C   0  0  0  0  0  2  0  0  0  0  0  0
  189.3060  178.2080  142.0330 O   0  0  0  0  0  0  0  0  0  0  0  0
  187.3960  177.9850  144.5070 C   0  0  0  0  0  2  0  0  0  0  0  0
  189.5180  178.0180  143.2230 C   0  0  0  0  0  0  0  0  0  0  0  0
  187.1430  177.5370  145.9260 C   0  0  1  0  0  3  0  0  0  0  0  0
  191.3310  177.3580  144.4220 C   0  0  1  0  0  3  0  0  0  0  0  0
  188.3410  177.0660  146.4950 O   0  0  0  0  0  0  0  0  0  0  0  0
  188.1040  175.9520  143.3110 C   0  0  0  0  0  1  0  0  0  0  0  0
  190.6300  177.1720  145.7480 C   0  0  0  0  0  2  0  0  0  0  0  0
  190.6810  178.6630  143.9010 C   0  0  1  0  0  0  0  0  0  0  0  0
  190.2990  179.5750  144.8760 F   0  0  0  0  0  0  0  0  0  0  0  0
  189.1860  176.7010  145.4340 C   0  0  2  0  0  3  0  0  0  0  0  0
  1  7  2  0  0  0  0
  2 42  1  0  0  0  0
  3  1  1  0  0  0  0
  4  5  1  0  0  0  0
  5  2  2  0  0  0  0
  5  8  1  0  0  0  0
  7  6  1  0  0  0  0
  7  2  1  0  0  0  0
  9  3  1  0  0  0  0
  9  4  2  0  0  0  0
 10 11  3  0  0  0  0
 11  9  1  0  0  0  0
 12 13  1  0  0  0  0
 12 10  1  0  0  0  0
 14 16  1  0  0  0  0
 15 13  1  0  0  0  0
 15 16  1  0  0  0  0
 16 20  1  0  0  0  0
 17 15  2  0  0  0  0
 18 17  1  0  0  0  0
 19 17  1  1  0  0  0
 19 14  1  0  0  0  0
 21 23  1  0  0  0  0
 21 27  1  0  0  0  0
 22 26  1  0  0  0  0
 22 28  1  1  0  0  0
 23 25  1  0  0  0  0
 23 24  1  1  0  0  0
 25 19  1  0  0  0  0
 25 26  1  1  0  0  0
 27 22  1  0  0  0  0
 29 28  1  0  0  0  0
 30 31  2  0  0  0  0
 30  1  1  0  0  0  0
 32 30  1  0  0  0  0
 33 32  1  0  0  0  0
 35 34  1  6  0  0  0
 35 33  1  0  0  0  0
 36 37  1  0  0  0  0
 36 41  1  0  0  0  0
 37 39  1  0  0  0  0
 39 38  2  0  0  0  0
 39 40  1  0  0  0  0
 41 35  1  6  0  0  0
 41 40  1  0  0  0  0
 42 43  1  0  0  0  0
 43 44  1  0  0  0  0
 46 44  1  0  0  0  0
 46 45  1  1  0  0  0
 47 55  1  6  0  0  0
 47 50  1  0  0  0  0
 47 59  1  0  0  0  0
 49 51  2  0  0  0  0
 50 52  1  0  0  0  0
 51 57  1  0  0  0  0
 51 47  1  0  0  0  0
 52 54  1  0  0  0  0
 52 46  1  1  0  0  0
 53 48  1  1  0  0  0
 53 56  1  0  0  0  0
 57 48  1  0  0  0  0
 57 53  1  0  0  0  0
 57 58  1  1  0  0  0
 59 56  1  1  0  0  0
 59 54  1  0  0  0  0
M  END
>  <MODEL>
2

>  <REMARK>
 VINA RESULT:      -7.9      3.946      9.584
  Name = 
  16 active torsions:
  status: ('A' for Active; 'I' for Inactive)
    1  A    between atoms: C_1  and  C_18
    2  A    between atoms: C_3  and  C_46
    3  A    between atoms: O_4  and  C_34
    4  A    between atoms: O_4  and  O_50
    5  A    between atoms: C_6  and  O_50
    6  A    between atoms: N_9  and  C_27
    7  A    between atoms: N_9  and  C_32
    8  A    between atoms: C_14  and  C_26
    9  A    between atoms: C_15  and  O_42
   10  A    between atoms: C_18  and  C_27
   11  A    between atoms: C_23  and  C_25
   12  A    between atoms: C_25  and  C_34
   13  A    between atoms: C_26  and  C_46
   14  A    between atoms: C_32  and  C_38
   15  A    between atoms: C_33  and  C_49
   16  A    between atoms: C_56  and  C_59
                            x       y       z     vdW  Elec       q    Type
                         _______ _______ _______ _____ _____    ______ ____

>  <TORSDO>
F 16

$$$$
=
 OpenBabel10222417313D

 59 65  0  0  1  0  0  0  0  0999 V2000
  184.6020  178.6140  141.9930 C   0  0  0  0  0  0  0  0  0  0  0  0
  183.3520  179.0150  144.1470 C   0  0  0  0  0  0  0  0  0  0  0  0
  183.5470  177.6630  141.5250 C   0  0  0  0  0  2  0  0  0  0  0  0
  181.6020  178.9190  142.3410 C   0  0  0  0  0  3  0  0  0  0  0  0
  182.0550  178.9110  143.7450 C   0  0  0  0  0  0  0  0  0  0  0  0
  185.6330  180.0420  143.7340 C   0  0  0  0  0  1  0  0  0  0  0  0
  184.5030  179.2050  143.2100 C   0  0  0  0  0  0  0  0  0  0  0  0
  181.0630  178.8850  144.6650 F   0  0  0  0  0  0  0  0  0  0  0  0
  182.2690  178.4000  141.3150 C   0  0  0  0  0  0  0  0  0  0  0  0
  181.2380  178.5900  138.8900 C   0  0  0  0  0  0  0  0  0  0  0  0
  181.7120  178.5210  139.9970 C   0  0  0  0  0  0  0  0  0  0  0  0
  180.6630  178.6350  137.5440 C   0  0  0  0  0  2  0  0  0  0  0  0
  179.4460  177.7310  137.4600 C   0  0  0  0  0  2  0  0  0  0  0  0
  180.2390  174.0490  137.6140 N   0  0  0  0  0  2  0  0  0  0  0  0
  179.8660  176.3180  137.2040 C   0  0  0  0  0  0  0  0  0  0  0  0
  179.9290  175.3010  138.1770 N   0  0  0  0  0  0  0  0  0  0  0  0
  180.1490  175.8040  136.0340 C   0  0  0  0  0  0  0  0  0  0  0  0
  180.1360  176.5130  134.8330 O   0  0  0  0  0  1  0  0  0  0  0  0
  180.4420  174.3410  136.1790 C   0  0  1  0  0  3  0  0  0  0  0  0
  179.5800  175.4630  139.5770 C   0  0  0  0  0  1  0  0  0  0  0  0
  183.4520  172.3770  134.6510 C   0  0  0  0  0  2  0  0  0  0  0  0
  184.2830  173.8410  136.5180 C   0  0  2  0  0  3  0  0  0  0  0  0
  182.0120  172.6300  135.0940 C   0  0  1  0  0  3  0  0  0  0  0  0
  181.5170  171.4920  135.9750 C   0  0  0  0  0  1  0  0  0  0  0  0
  181.8840  174.0110  135.7660 C   0  0  2  0  0  3  0  0  0  0  0  0
  182.8380  174.1250  136.9590 C   0  0  0  0  0  2  0  0  0  0  0  0
  184.4250  172.4790  135.8230 C   0  0  0  0  0  2  0  0  0  0  0  0
  185.2270  174.0310  137.5630 O   0  0  0  0  0  0  0  0  0  0  0  0
  186.1400  172.9520  137.5600 C   0  0  0  0  0  1  0  0  0  0  0  0
  185.7270  178.8670  141.0660 C   0  0  0  0  0  0  0  0  0  0  0  0
  185.5450  179.4990  139.9980 O   0  0  0  0  0  0  0  0  0  0  0  0
  187.0930  178.3550  141.3740 C   0  0  0  0  0  2  0  0  0  0  0  0
  188.0900  179.0840  140.6040 N   0  0  0  0  0  2  0  0  0  0  0  0
  188.9980  176.9800  141.0520 O   0  0  0  0  0  1  0  0  0  0  0  0
  189.1950  178.1700  140.3420 C   0  0  1  0  0  3  0  0  0  0  0  0
  188.5760  176.7030  138.5290 O   0  0  0  0  0  0  0  0  0  0  0  0
  187.6060  177.0410  137.5520 C   0  0  0  0  0  2  0  0  0  0  0  0
  187.0740  179.1800  136.5000 N   0  0  0  0  0  2  0  0  0  0  0  0
  187.7730  178.4690  137.3170 C   0  0  0  0  0  0  0  0  0  0  0  0
  188.7730  178.9570  138.0880 O   0  0  0  0  0  0  0  0  0  0  0  0
  189.2970  177.8850  138.8480 C   0  0  1  0  0  3  0  0  0  0  0  0
  183.6810  179.0370  145.5160 O   0  0  0  0  0  0  0  0  0  0  0  0
  184.1510  177.9730  146.1870 O   0  0  0  0  0  0  0  0  0  0  0  0
  185.3770  178.3840  146.7210 C   0  0  0  0  0  2  0  0  0  0  0  0
  186.4230  176.9900  145.0700 O   0  0  0  0  0  1  0  0  0  0  0  0
  186.4650  177.3600  146.4170 C   0  0  1  0  0  3  0  0  0  0  0  0
  190.1290  177.2900  146.5780 C   0  0  2  0  0  0  0  0  0  0  0  0
  191.8290  176.6340  143.1950 C   0  0  0  0  0  2  0  0  0  0  0  0
  191.5720  175.3690  146.3980 O   0  0  0  0  0  0  0  0  0  0  0  0
  188.8100  176.7270  146.9890 C   0  0  0  0  0  2  0  0  0  0  0  0
  190.9410  176.2410  145.8160 C   0  0  0  0  0  0  0  0  0  0  0  0
  187.8520  177.8770  146.7950 C   0  0  1  0  0  3  0  0  0  0  0  0
  191.4360  177.7110  144.1570 C   0  0  1  0  0  3  0  0  0  0  0  0
  188.3490  178.7460  145.8060 O   0  0  0  0  0  0  0  0  0  0  0  0
  190.8910  177.7600  147.8070 C   0  0  0  0  0  1  0  0  0  0  0  0
  190.1720  178.5360  144.2450 C   0  0  0  0  0  2  0  0  0  0  0  0
  190.8870  176.2730  144.3250 C   0  0  1  0  0  0  0  0  0  0  0  0
  189.6090  176.0550  143.8270 F   0  0  0  0  0  0  0  0  0  0  0  0
  189.7360  178.5380  145.7330 C   0  0  2  0  0  3  0  0  0  0  0  0
  1  7  2  0  0  0  0
  2 42  1  0  0  0  0
  3  1  1  0  0  0  0
  4  5  1  0  0  0  0
  5  2  2  0  0  0  0
  5  8  1  0  0  0  0
  7  6  1  0  0  0  0
  7  2  1  0  0  0  0
  9  3  1  0  0  0  0
  9  4  2  0  0  0  0
 10 11  3  0  0  0  0
 11  9  1  0  0  0  0
 12 10  1  0  0  0  0
 13 12  1  0  0  0  0
 14 16  1  0  0  0  0
 15 13  1  0  0  0  0
 15 16  1  0  0  0  0
 16 20  1  0  0  0  0
 17 15  2  0  0  0  0
 18 17  1  0  0  0  0
 19 17  1  1  0  0  0
 19 14  1  0  0  0  0
 21 23  1  0  0  0  0
 21 27  1  0  0  0  0
 22 26  1  0  0  0  0
 22 28  1  1  0  0  0
 23 25  1  0  0  0  0
 23 24  1  1  0  0  0
 25 19  1  0  0  0  0
 25 26  1  1  0  0  0
 27 22  1  0  0  0  0
 29 28  1  0  0  0  0
 30 32  1  0  0  0  0
 30  1  1  0  0  0  0
 31 30  2  0  0  0  0
 33 32  1  0  0  0  0
 35 33  1  0  0  0  0
 35 34  1  1  0  0  0
 36 41  1  0  0  0  0
 37 36  1  0  0  0  0
 38 39  2  0  0  0  0
 39 37  1  0  0  0  0
 39 40  1  0  0  0  0
 40 41  1  0  0  0  0
 41 35  1  1  0  0  0
 42 43  1  0  0  0  0
 43 44  1  0  0  0  0
 46 45  1  6  0  0  0
 46 44  1  0  0  0  0
 47 50  1  0  0  0  0
 47 55  1  1  0  0  0
 48 57  1  0  0  0  0
 51 49  2  0  0  0  0
 51 47  1  0  0  0  0
 52 46  1  6  0  0  0
 52 50  1  0  0  0  0
 53 48  1  6  0  0  0
 53 56  1  0  0  0  0
 53 57  1  0  0  0  0
 54 52  1  0  0  0  0
 57 58  1  6  0  0  0
 57 51  1  0  0  0  0
 59 56  1  6  0  0  0
 59 54  1  0  0  0  0
 59 47  1  0  0  0  0
M  END
>  <MODEL>
3

>  <REMARK>
 VINA RESULT:      -7.7      4.173      9.590
  Name = 
  16 active torsions:
  status: ('A' for Active; 'I' for Inactive)
    1  A    between atoms: C_1  and  C_18
    2  A    between atoms: C_3  and  C_46
    3  A    between atoms: O_4  and  C_34
    4  A    between atoms: O_4  and  O_50
    5  A    between atoms: C_6  and  O_50
    6  A    between atoms: N_9  and  C_27
    7  A    between atoms: N_9  and  C_32
    8  A    between atoms: C_14  and  C_26
    9  A    between atoms: C_15  and  O_42
   10  A    between atoms: C_18  and  C_27
   11  A    between atoms: C_23  and  C_25
   12  A    between atoms: C_25  and  C_34
   13  A    between atoms: C_26  and  C_46
   14  A    between atoms: C_32  and  C_38
   15  A    between atoms: C_33  and  C_49
   16  A    between atoms: C_56  and  C_59
                            x       y       z     vdW  Elec       q    Type
                         _______ _______ _______ _____ _____    ______ ____

>  <TORSDO>
F 16

$$$$
=
 OpenBabel10222417313D

 59 65  0  0  1  0  0  0  0  0999 V2000
  186.8030  177.7210  144.8500 C   0  0  0  0  0  0  0  0  0  0  0  0
  184.6470  178.8070  144.1190 C   0  0  0  0  0  0  0  0  0  0  0  0
  186.8620  176.9220  143.5870 C   0  0  0  0  0  2  0  0  0  0  0  0
  186.0900  178.6830  142.0610 C   0  0  0  0  0  3  0  0  0  0  0  0
  184.8110  178.8810  142.7690 C   0  0  0  0  0  0  0  0  0  0  0  0
  185.6360  179.2490  146.4110 C   0  0  0  0  0  1  0  0  0  0  0  0
  185.7650  178.5630  145.0830 C   0  0  0  0  0  0  0  0  0  0  0  0
  183.7740  179.2470  141.9810 F   0  0  0  0  0  0  0  0  0  0  0  0
  187.0490  177.8380  142.4270 C   0  0  0  0  0  0  0  0  0  0  0  0
  189.2540  177.7390  140.9740 C   0  0  0  0  0  0  0  0  0  0  0  0
  188.2570  177.7870  141.6520 C   0  0  0  0  0  0  0  0  0  0  0  0
  190.4430  177.6660  140.1230 C   0  0  0  0  0  2  0  0  0  0  0  0
  190.5600  176.2870  139.4980 C   0  0  0  0  0  2  0  0  0  0  0  0
  189.1380  177.1520  136.1160 N   0  0  0  0  0  2  0  0  0  0  0  0
  189.9950  176.2960  138.1120 C   0  0  0  0  0  0  0  0  0  0  0  0
  189.4830  177.4300  137.4520 N   0  0  0  0  0  0  0  0  0  0  0  0
  189.9760  175.2790  137.2880 C   0  0  0  0  0  0  0  0  0  0  0  0
  190.4550  174.0050  137.5910 O   0  0  0  0  0  1  0  0  0  0  0  0
  189.4090  175.7060  135.9680 C   0  0  1  0  0  3  0  0  0  0  0  0
  189.4380  178.7710  138.0080 C   0  0  0  0  0  1  0  0  0  0  0  0
  185.8170  175.0270  134.5940 C   0  0  0  0  0  2  0  0  0  0  0  0
  186.2570  173.5030  136.5430 C   0  0  2  0  0  3  0  0  0  0  0  0
  187.0610  175.8390  134.9480 C   0  0  1  0  0  3  0  0  0  0  0  0
  186.6830  177.0640  135.7690 C   0  0  0  0  0  1  0  0  0  0  0  0
  188.1120  174.9510  135.6420 C   0  0  2  0  0  3  0  0  0  0  0  0
  187.5250  174.2950  136.8960 C   0  0  0  0  0  2  0  0  0  0  0  0
  185.2080  174.3670  135.8280 C   0  0  0  0  0  2  0  0  0  0  0  0
  185.7250  172.7900  137.6510 O   0  0  0  0  0  0  0  0  0  0  0  0
  184.3470  172.5620  137.4330 C   0  0  0  0  0  1  0  0  0  0  0  0
  187.9230  177.5440  145.8010 C   0  0  0  0  0  0  0  0  0  0  0  0
  187.7250  177.0450  146.9350 O   0  0  0  0  0  0  0  0  0  0  0  0
  189.3020  177.9780  145.4380 C   0  0  0  0  0  2  0  0  0  0  0  0
  190.0390  176.8690  144.8470 N   0  0  0  0  0  2  0  0  0  0  0  0
  191.9420  178.0700  145.4700 O   0  0  0  0  0  1  0  0  0  0  0  0
  191.3380  176.8090  145.5050 C   0  0  1  0  0  3  0  0  0  0  0  0
  191.9870  175.2010  147.1830 O   0  0  0  0  0  0  0  0  0  0  0  0
  192.8570  175.5080  148.2600 C   0  0  0  0  0  2  0  0  0  0  0  0
  193.1090  177.5490  149.5800 N   0  0  0  0  0  2  0  0  0  0  0  0
  192.5340  176.8770  148.6400 C   0  0  0  0  0  0  0  0  0  0  0  0
  191.5400  177.3590  147.8580 O   0  0  0  0  0  0  0  0  0  0  0  0
  191.1730  176.3400  146.9470 C   0  0  1  0  0  3  0  0  0  0  0  0
  183.3900  179.0500  144.7050 O   0  0  0  0  0  0  0  0  0  0  0  0
  182.3300  178.2380  144.5610 O   0  0  0  0  0  0  0  0  0  0  0  0
  181.3620  179.0060  143.9060 C   0  0  0  0  0  2  0  0  0  0  0  0
  179.0800  178.5690  144.5140 O   0  0  0  0  0  1  0  0  0  0  0  0
  180.1060  178.1790  143.6480 C   0  0  1  0  0  3  0  0  0  0  0  0
  180.5570  178.4830  140.0200 C   0  0  2  0  0  0  0  0  0  0  0  0
  183.1280  176.0320  138.5550 C   0  0  0  0  0  2  0  0  0  0  0  0
  182.4490  179.4060  138.8470 O   0  0  0  0  0  0  0  0  0  0  0  0
  180.6380  179.0840  141.3840 C   0  0  0  0  0  2  0  0  0  0  0  0
  181.9470  178.4270  139.3820 C   0  0  0  0  0  0  0  0  0  0  0  0
  179.6540  178.2740  142.1930 C   0  0  1  0  0  3  0  0  0  0  0  0
  181.6640  176.2590  138.7660 C   0  0  1  0  0  3  0  0  0  0  0  0
  179.5180  176.9920  141.6260 O   0  0  0  0  0  0  0  0  0  0  0  0
  179.6100  179.3000  139.1560 C   0  0  0  0  0  1  0  0  0  0  0  0
  180.7630  175.8490  139.9090 C   0  0  0  0  0  2  0  0  0  0  0  0
  182.7060  177.1470  139.4900 C   0  0  1  0  0  0  0  0  0  0  0  0
  182.9870  176.7960  140.8040 F   0  0  0  0  0  0  0  0  0  0  0  0
  179.9120  177.0910  140.2820 C   0  0  2  0  0  3  0  0  0  0  0  0
  1  7  2  0  0  0  0
  1 30  1  0  0  0  0
  2 42  1  0  0  0  0
  2  7  1  0  0  0  0
  3  1  1  0  0  0  0
  4  9  2  0  0  0  0
  4  5  1  0  0  0  0
  5  2  2  0  0  0  0
  7  6  1  0  0  0  0
  8  5  1  0  0  0  0
  9  3  1  0  0  0  0
 10 11  3  0  0  0  0
 11  9  1  0  0  0  0
 12 10  1  0  0  0  0
 13 12  1  0  0  0  0
 14 16  1  0  0  0  0
 15 13  1  0  0  0  0
 16 20  1  0  0  0  0
 16 15  1  0  0  0  0
 17 18  1  0  0  0  0
 17 15  2  0  0  0  0
 19 14  1  1  0  0  0
 19 17  1  0  0  0  0
 21 23  1  0  0  0  0
 21 27  1  0  0  0  0
 22 26  1  0  0  0  0
 22 28  1  1  0  0  0
 23 25  1  0  0  0  0
 23 24  1  1  0  0  0
 25 19  1  0  0  0  0
 25 26  1  1  0  0  0
 27 22  1  0  0  0  0
 29 28  1  0  0  0  0
 30 31  2  0  0  0  0
 32 30  1  0  0  0  0
 33 32  1  0  0  0  0
 33 35  1  0  0  0  0
 35 34  1  1  0  0  0
 36 37  1  0  0  0  0
 37 39  1  0  0  0  0
 39 38  2  0  0  0  0
 40 39  1  0  0  0  0
 41 35  1  6  0  0  0
 41 36  1  0  0  0  0
 41 40  1  0  0  0  0
 43 42  1  0  0  0  0
 44 43  1  0  0  0  0
 46 44  1  0  0  0  0
 46 45  1  1  0  0  0
 47 55  1  6  0  0  0
 47 59  1  0  0  0  0
 47 50  1  0  0  0  0
 48 57  1  0  0  0  0
 49 51  2  0  0  0  0
 50 52  1  0  0  0  0
 51 57  1  0  0  0  0
 51 47  1  0  0  0  0
 52 46  1  1  0  0  0
 53 48  1  1  0  0  0
 53 57  1  0  0  0  0
 53 56  1  0  0  0  0
 54 52  1  0  0  0  0
 57 58  1  1  0  0  0
 59 56  1  1  0  0  0
 59 54  1  0  0  0  0
M  END
>  <MODEL>
4

>  <REMARK>
 VINA RESULT:      -7.7      2.421      3.636
  Name = 
  16 active torsions:
  status: ('A' for Active; 'I' for Inactive)
    1  A    between atoms: C_1  and  C_18
    2  A    between atoms: C_3  and  C_46
    3  A    between atoms: O_4  and  C_34
    4  A    between atoms: O_4  and  O_50
    5  A    between atoms: C_6  and  O_50
    6  A    between atoms: N_9  and  C_27
    7  A    between atoms: N_9  and  C_32
    8  A    between atoms: C_14  and  C_26
    9  A    between atoms: C_15  and  O_42
   10  A    between atoms: C_18  and  C_27
   11  A    between atoms: C_23  and  C_25
   12  A    between atoms: C_25  and  C_34
   13  A    between atoms: C_26  and  C_46
   14  A    between atoms: C_32  and  C_38
   15  A    between atoms: C_33  and  C_49
   16  A    between atoms: C_56  and  C_59
                            x       y       z     vdW  Elec       q    Type
                         _______ _______ _______ _____ _____    ______ ____

>  <TORSDO>
F 16

$$$$
=
 OpenBabel10222417313D

 59 65  0  0  1  0  0  0  0  0999 V2000
  184.8830  178.4900  141.4480 C   0  0  0  0  0  0  0  0  0  0  0  0
  184.3720  178.9460  143.8760 C   0  0  0  0  0  0  0  0  0  0  0  0
  183.6860  177.6020  141.3330 C   0  0  0  0  0  2  0  0  0  0  0  0
  182.1530  178.9590  142.6890 C   0  0  0  0  0  3  0  0  0  0  0  0
  183.0110  178.9170  143.8880 C   0  0  0  0  0  0  0  0  0  0  0  0
  186.4730  179.8470  142.7780 C   0  0  0  0  0  1  0  0  0  0  0  0
  185.1920  179.0780  142.6310 C   0  0  0  0  0  0  0  0  0  0  0  0
  182.3460  178.9410  145.0660 F   0  0  0  0  0  0  0  0  0  0  0  0
  182.4470  178.4100  141.5140 C   0  0  0  0  0  0  0  0  0  0  0  0
  180.7330  178.7320  139.5290 C   0  0  0  0  0  0  0  0  0  0  0  0
  181.5230  178.5710  140.4260 C   0  0  0  0  0  0  0  0  0  0  0  0
  179.7540  178.9510  138.4620 C   0  0  0  0  0  2  0  0  0  0  0  0
  180.4600  179.2790  137.1590 C   0  0  0  0  0  2  0  0  0  0  0  0
  181.1090  176.1650  135.1370 N   0  0  0  0  0  2  0  0  0  0  0  0
  181.0040  178.0330  136.5350 C   0  0  0  0  0  0  0  0  0  0  0  0
  180.2960  177.1900  135.6550 N   0  0  0  0  0  0  0  0  0  0  0  0
  182.2330  177.5960  136.6450 C   0  0  0  0  0  0  0  0  0  0  0  0
  183.2290  178.2160  137.4000 O   0  0  0  0  0  1  0  0  0  0  0  0
  182.4120  176.3670  135.8070 C   0  0  1  0  0  3  0  0  0  0  0  0
  178.9340  177.4090  135.2040 C   0  0  0  0  0  1  0  0  0  0  0  0
  184.5750  173.6500  137.5950 C   0  0  0  0  0  2  0  0  0  0  0  0
  182.2890  172.7130  137.1330 C   0  0  2  0  0  3  0  0  0  0  0  0
  184.2730  174.8360  136.6800 C   0  0  1  0  0  3  0  0  0  0  0  0
  184.8430  174.5950  135.2900 C   0  0  0  0  0  1  0  0  0  0  0  0
  182.7640  175.1440  136.6680 C   0  0  2  0  0  3  0  0  0  0  0  0
  181.9630  173.9130  136.2310 C   0  0  0  0  0  2  0  0  0  0  0  0
  183.7930  172.4080  137.1780 C   0  0  0  0  0  2  0  0  0  0  0  0
  181.5000  171.5690  136.8380 O   0  0  0  0  0  0  0  0  0  0  0  0
  180.1350  171.9380  136.8430 C   0  0  0  0  0  1  0  0  0  0  0  0
  185.6860  178.6860  140.2200 C   0  0  0  0  0  0  0  0  0  0  0  0
  185.3080  179.4870  139.3310 O   0  0  0  0  0  0  0  0  0  0  0  0
  186.9450  177.9170  140.0060 C   0  0  0  0  0  2  0  0  0  0  0  0
  187.9180  178.7330  139.2940 N   0  0  0  0  0  2  0  0  0  0  0  0
  189.4680  178.5190  137.5610 O   0  0  0  0  0  1  0  0  0  0  0  0
  188.2550  178.0330  138.0610 C   0  0  1  0  0  3  0  0  0  0  0  0
  187.5840  175.8250  137.3580 O   0  0  0  0  0  0  0  0  0  0  0  0
  188.4530  174.9220  136.6930 C   0  0  0  0  0  2  0  0  0  0  0  0
  190.8470  174.5180  136.9590 N   0  0  0  0  0  2  0  0  0  0  0  0
  189.7650  175.1360  137.2900 C   0  0  0  0  0  0  0  0  0  0  0  0
  189.6940  176.0910  138.2480 O   0  0  0  0  0  0  0  0  0  0  0  0
  188.3520  176.5330  138.3190 C   0  0  1  0  0  3  0  0  0  0  0  0
  185.1030  178.9410  145.0790 O   0  0  0  0  0  0  0  0  0  0  0  0
  185.5110  177.8220  145.6990 O   0  0  0  0  0  0  0  0  0  0  0  0
  186.8570  177.6740  145.3480 C   0  0  0  0  0  2  0  0  0  0  0  0
  187.2770  178.2240  147.6470 O   0  0  0  0  0  1  0  0  0  0  0  0
  187.7550  178.3980  146.3450 C   0  0  1  0  0  3  0  0  0  0  0  0
  190.6210  176.7120  144.7960 C   0  0  2  0  0  0  0  0  0  0  0  0
  191.1120  177.5610  141.0810 C   0  0  0  0  0  2  0  0  0  0  0  0
  190.5790  174.8960  143.2130 O   0  0  0  0  0  0  0  0  0  0  0  0
  189.2990  176.6370  145.4820 C   0  0  0  0  0  2  0  0  0  0  0  0
  190.5280  176.1050  143.3950 C   0  0  0  0  0  0  0  0  0  0  0  0
  189.2080  177.9430  146.2340 C   0  0  1  0  0  3  0  0  0  0  0  0
  191.5790  177.8910  142.4630 C   0  0  1  0  0  3  0  0  0  0  0  0
  189.9900  178.9170  145.5850 O   0  0  0  0  0  0  0  0  0  0  0  0
  191.6690  175.9820  145.6210 C   0  0  0  0  0  1  0  0  0  0  0  0
  191.0900  178.9350  143.4420 C   0  0  0  0  0  2  0  0  0  0  0  0
  190.3050  177.0370  142.2510 C   0  0  1  0  0  0  0  0  0  0  0  0
  189.1000  177.7220  142.3410 F   0  0  0  0  0  0  0  0  0  0  0  0
  190.9480  178.2350  144.8170 C   0  0  2  0  0  3  0  0  0  0  0  0
  1  7  2  0  0  0  0
  2  5  2  0  0  0  0
  2 42  1  0  0  0  0
  3  1  1  0  0  0  0
  3  9  1  0  0  0  0
  4  5  1  0  0  0  0
  5  8  1  0  0  0  0
  7  6  1  0  0  0  0
  7  2  1  0  0  0  0
  9  4  2  0  0  0  0
 10 11  3  0  0  0  0
 11  9  1  0  0  0  0
 12 10  1  0  0  0  0
 13 12  1  0  0  0  0
 14 16  1  0  0  0  0
 15 17  2  0  0  0  0
 15 13  1  0  0  0  0
 16 15  1  0  0  0  0
 17 18  1  0  0  0  0
 19 14  1  1  0  0  0
 19 17  1  0  0  0  0
 19 25  1  0  0  0  0
 20 16  1  0  0  0  0
 22 28  1  6  0  0  0
 22 27  1  0  0  0  0
 23 24  1  6  0  0  0
 23 21  1  0  0  0  0
 25 26  1  6  0  0  0
 25 23  1  0  0  0  0
 26 22  1  0  0  0  0
 27 21  1  0  0  0  0
 28 29  1  0  0  0  0
 30  1  1  0  0  0  0
 31 30  2  0  0  0  0
 32 30  1  0  0  0  0
 33 32  1  0  0  0  0
 35 34  1  1  0  0  0
 35 33  1  0  0  0  0
 36 41  1  0  0  0  0
 37 39  1  0  0  0  0
 37 36  1  0  0  0  0
 38 39  2  0  0  0  0
 39 40  1  0  0  0  0
 40 41  1  0  0  0  0
 41 35  1  6  0  0  0
 42 43  1  0  0  0  0
 44 43  1  0  0  0  0
 44 46  1  0  0  0  0
 46 45  1  1  0  0  0
 47 59  1  0  0  0  0
 47 50  1  0  0  0  0
 47 55  1  1  0  0  0
 48 57  1  0  0  0  0
 49 51  2  0  0  0  0
 50 52  1  0  0  0  0
 51 47  1  0  0  0  0
 52 46  1  6  0  0  0
 53 48  1  6  0  0  0
 53 56  1  0  0  0  0
 54 52  1  0  0  0  0
 57 58  1  1  0  0  0
 57 53  1  0  0  0  0
 57 51  1  0  0  0  0
 59 56  1  6  0  0  0
 59 54  1  0  0  0  0
M  END
>  <MODEL>
5

>  <REMARK>
 VINA RESULT:      -7.5      3.717      9.497
  Name = 
  16 active torsions:
  status: ('A' for Active; 'I' for Inactive)
    1  A    between atoms: C_1  and  C_18
    2  A    between atoms: C_3  and  C_46
    3  A    between atoms: O_4  and  C_34
    4  A    between atoms: O_4  and  O_50
    5  A    between atoms: C_6  and  O_50
    6  A    between atoms: N_9  and  C_27
    7  A    between atoms: N_9  and  C_32
    8  A    between atoms: C_14  and  C_26
    9  A    between atoms: C_15  and  O_42
   10  A    between atoms: C_18  and  C_27
   11  A    between atoms: C_23  and  C_25
   12  A    between atoms: C_25  and  C_34
   13  A    between atoms: C_26  and  C_46
   14  A    between atoms: C_32  and  C_38
   15  A    between atoms: C_33  and  C_49
   16  A    between atoms: C_56  and  C_59
                            x       y       z     vdW  Elec       q    Type
                         _______ _______ _______ _____ _____    ______ ____

>  <TORSDO>
F 16

$$$$
=
 OpenBabel10222417313D

 59 65  0  0  1  0  0  0  0  0999 V2000
  182.7820  178.9420  138.7720 C   0  0  0  0  0  0  0  0  0  0  0  0
  180.7910  177.5690  138.0560 C   0  0  0  0  0  0  0  0  0  0  0  0
  181.9860  179.5780  139.8670 C   0  0  0  0  0  2  0  0  0  0  0  0
  180.7570  177.5720  140.5720 C   0  0  0  0  0  3  0  0  0  0  0  0
  180.1620  177.3430  139.2410 C   0  0  0  0  0  0  0  0  0  0  0  0
  182.9670  177.5170  136.7550 C   0  0  0  0  0  1  0  0  0  0  0  0
  182.2070  178.0390  137.9380 C   0  0  0  0  0  0  0  0  0  0  0  0
  178.9310  176.7810  139.2570 F   0  0  0  0  0  0  0  0  0  0  0  0
  181.6110  178.5460  140.8750 C   0  0  0  0  0  0  0  0  0  0  0  0
  182.5650  178.7060  143.3330 C   0  0  0  0  0  0  0  0  0  0  0  0
  182.1340  178.6150  142.2100 C   0  0  0  0  0  0  0  0  0  0  0  0
  183.0850  178.8540  144.6940 C   0  0  0  0  0  2  0  0  0  0  0  0
  184.4090  179.5970  144.6740 C   0  0  0  0  0  2  0  0  0  0  0  0
  186.8490  177.1250  146.1380 N   0  0  0  0  0  2  0  0  0  0  0  0
  185.5370  178.6570  144.9600 C   0  0  0  0  0  0  0  0  0  0  0  0
  185.7950  178.0550  146.2080 N   0  0  0  0  0  0  0  0  0  0  0  0
  186.3870  178.1910  144.0800 C   0  0  0  0  0  0  0  0  0  0  0  0
  186.3930  178.5330  142.7280 O   0  0  0  0  0  1  0  0  0  0  0  0
  187.3120  177.2110  144.7360 C   0  0  1  0  0  3  0  0  0  0  0  0
  184.9970  178.2420  147.4060 C   0  0  0  0  0  1  0  0  0  0  0  0
  190.7260  178.3950  143.2520 C   0  0  0  0  0  2  0  0  0  0  0  0
  191.1300  177.2840  145.4710 C   0  0  2  0  0  3  0  0  0  0  0  0
  189.2940  177.8610  143.2460 C   0  0  1  0  0  3  0  0  0  0  0  0
  189.2040  176.5820  142.4270 C   0  0  0  0  0  1  0  0  0  0  0  0
  188.7700  177.6920  144.6850 C   0  0  2  0  0  3  0  0  0  0  0  0
  189.6850  176.7620  145.4900 C   0  0  0  0  0  2  0  0  0  0  0  0
  191.6600  177.4830  144.0430 C   0  0  0  0  0  2  0  0  0  0  0  0
  192.0050  176.5170  146.2840 O   0  0  0  0  0  0  0  0  0  0  0  0
  191.7100  176.7680  147.6430 C   0  0  0  0  0  1  0  0  0  0  0  0
  184.2020  179.3440  138.6640 C   0  0  0  0  0  0  0  0  0  0  0  0
  184.5250  180.5570  138.6810 O   0  0  0  0  0  0  0  0  0  0  0  0
  185.2720  178.3170  138.5090 C   0  0  0  0  0  2  0  0  0  0  0  0
  186.5720  178.9600  138.3850 N   0  0  0  0  0  2  0  0  0  0  0  0
  188.4000  178.8630  136.9350 O   0  0  0  0  0  1  0  0  0  0  0  0
  187.4080  178.0980  137.5580 C   0  0  1  0  0  3  0  0  0  0  0  0
  188.3160  175.8630  137.6150 O   0  0  0  0  0  0  0  0  0  0  0  0
  189.7040  175.5900  137.7190 C   0  0  0  0  0  2  0  0  0  0  0  0
  191.4740  176.7440  138.9440 N   0  0  0  0  0  2  0  0  0  0  0  0
  190.2380  176.6230  138.5970 C   0  0  0  0  0  0  0  0  0  0  0  0
  189.2480  177.4540  139.0000 O   0  0  0  0  0  0  0  0  0  0  0  0
  188.0410  177.0050  138.4130 C   0  0  1  0  0  3  0  0  0  0  0  0
  180.1510  177.2810  136.8350 O   0  0  0  0  0  0  0  0  0  0  0  0
  180.4570  176.2260  136.0630 O   0  0  0  0  0  0  0  0  0  0  0  0
  179.8180  175.1330  136.6590 C   0  0  0  0  0  2  0  0  0  0  0  0
  180.5530  174.0990  134.6200 O   0  0  0  0  0  1  0  0  0  0  0  0
  180.1940  173.8390  135.9460 C   0  0  1  0  0  3  0  0  0  0  0  0
  183.5310  172.3660  136.3360 C   0  0  2  0  0  0  0  0  0  0  0  0
  186.4030  174.7300  135.3740 C   0  0  0  0  0  2  0  0  0  0  0  0
  185.0360  171.6550  134.5940 O   0  0  0  0  0  0  0  0  0  0  0  0
  182.1860  172.3570  135.6900 C   0  0  0  0  0  2  0  0  0  0  0  0
  184.6230  172.5760  135.2850 C   0  0  0  0  0  0  0  0  0  0  0  0
  181.3090  173.0920  136.6750 C   0  0  1  0  0  3  0  0  0  0  0  0
  185.6230  174.1900  136.5310 C   0  0  1  0  0  3  0  0  0  0  0  0
  182.0930  173.9800  137.4350 O   0  0  0  0  0  0  0  0  0  0  0  0
  183.7520  171.0560  137.0750 C   0  0  0  0  0  1  0  0  0  0  0  0
  184.3750  174.7170  137.2040 C   0  0  0  0  0  2  0  0  0  0  0  0
  185.1280  173.9650  135.0820 C   0  0  1  0  0  0  0  0  0  0  0  0
  184.1430  174.8380  134.6400 F   0  0  0  0  0  0  0  0  0  0  0  0
  183.4160  173.5120  137.3830 C   0  0  2  0  0  3  0  0  0  0  0  0
  1  3  1  0  0  0  0
  2  5  2  0  0  0  0
  3  9  1  0  0  0  0
  4  9  2  0  0  0  0
  5  8  1  0  0  0  0
  5  4  1  0  0  0  0
  6  7  1  0  0  0  0
  7  2  1  0  0  0  0
  7  1  2  0  0  0  0
  9 11  1  0  0  0  0
 10 12  1  0  0  0  0
 11 10  3  0  0  0  0
 13 12  1  0  0  0  0
 13 15  1  0  0  0  0
 14 16  1  0  0  0  0
 15 16  1  0  0  0  0
 16 20  1  0  0  0  0
 17 15  2  0  0  0  0
 18 17  1  0  0  0  0
 19 17  1  6  0  0  0
 19 14  1  0  0  0  0
 21 27  1  0  0  0  0
 22 26  1  0  0  0  0
 22 28  1  6  0  0  0
 23 24  1  1  0  0  0
 23 21  1  0  0  0  0
 23 25  1  0  0  0  0
 25 19  1  0  0  0  0
 25 26  1  1  0  0  0
 27 22  1  0  0  0  0
 28 29  1  0  0  0  0
 30 31  2  0  0  0  0
 30  1  1  0  0  0  0
 32 30  1  0  0  0  0
 33 32  1  0  0  0  0
 35 34  1  1  0  0  0
 35 33  1  0  0  0  0
 36 37  1  0  0  0  0
 36 41  1  0  0  0  0
 37 39  1  0  0  0  0
 39 38  2  0  0  0  0
 39 40  1  0  0  0  0
 41 35  1  6  0  0  0
 41 40  1  0  0  0  0
 42  2  1  0  0  0  0
 43 44  1  0  0  0  0
 43 42  1  0  0  0  0
 46 45  1  6  0  0  0
 46 44  1  0  0  0  0
 47 55  1  1  0  0  0
 47 59  1  0  0  0  0
 49 51  2  0  0  0  0
 50 47  1  0  0  0  0
 50 52  1  0  0  0  0
 51 47  1  0  0  0  0
 52 46  1  6  0  0  0
 52 54  1  0  0  0  0
 53 48  1  6  0  0  0
 53 56  1  0  0  0  0
 57 58  1  6  0  0  0
 57 51  1  0  0  0  0
 57 48  1  0  0  0  0
 57 53  1  0  0  0  0
 59 56  1  6  0  0  0
 59 54  1  0  0  0  0
M  END
>  <MODEL>
6

>  <REMARK>
 VINA RESULT:      -7.3      3.585      8.850
  Name = 
  16 active torsions:
  status: ('A' for Active; 'I' for Inactive)
    1  A    between atoms: C_1  and  C_18
    2  A    between atoms: C_3  and  C_46
    3  A    between atoms: O_4  and  C_34
    4  A    between atoms: O_4  and  O_50
    5  A    between atoms: C_6  and  O_50
    6  A    between atoms: N_9  and  C_27
    7  A    between atoms: N_9  and  C_32
    8  A    between atoms: C_14  and  C_26
    9  A    between atoms: C_15  and  O_42
   10  A    between atoms: C_18  and  C_27
   11  A    between atoms: C_23  and  C_25
   12  A    between atoms: C_25  and  C_34
   13  A    between atoms: C_26  and  C_46
   14  A    between atoms: C_32  and  C_38
   15  A    between atoms: C_33  and  C_49
   16  A    between atoms: C_56  and  C_59
                            x       y       z     vdW  Elec       q    Type
                         _______ _______ _______ _____ _____    ______ ____

>  <TORSDO>
F 16

$$$$
=
 OpenBabel10222417313D

 59 65  0  0  1  0  0  0  0  0999 V2000
  184.7480  178.5400  140.9930 C   0  0  0  0  0  0  0  0  0  0  0  0
  185.3000  178.6150  143.4540 C   0  0  0  0  0  0  0  0  0  0  0  0
  183.4880  177.7830  141.2690 C   0  0  0  0  0  2  0  0  0  0  0  0
  182.8190  179.0070  143.2900 C   0  0  0  0  0  3  0  0  0  0  0  0
  184.0640  178.6920  144.0180 C   0  0  0  0  0  0  0  0  0  0  0  0
  186.9050  179.5200  141.7120 C   0  0  0  0  0  1  0  0  0  0  0  0
  185.5760  178.8920  142.0090 C   0  0  0  0  0  0  0  0  0  0  0  0
  183.9240  178.5680  145.3580 F   0  0  0  0  0  0  0  0  0  0  0  0
  182.5480  178.6440  142.0400 C   0  0  0  0  0  0  0  0  0  0  0  0
  180.2720  179.4410  140.9590 C   0  0  0  0  0  0  0  0  0  0  0  0
  181.3040  179.0610  141.4550 C   0  0  0  0  0  0  0  0  0  0  0  0
  179.0330  179.9380  140.3580 C   0  0  0  0  0  2  0  0  0  0  0  0
  178.9310  179.4870  138.9120 C   0  0  0  0  0  2  0  0  0  0  0  0
  181.9670  177.5000  137.8900 N   0  0  0  0  0  2  0  0  0  0  0  0
  179.9560  178.4370  138.6210 C   0  0  0  0  0  0  0  0  0  0  0  0
  181.1440  178.6420  137.8920 N   0  0  0  0  0  0  0  0  0  0  0  0
  179.9430  177.2090  139.0740 C   0  0  0  0  0  0  0  0  0  0  0  0
  178.9380  176.6730  139.8800 O   0  0  0  0  0  1  0  0  0  0  0  0
  181.1830  176.4920  138.6350 C   0  0  1  0  0  3  0  0  0  0  0  0
  181.5650  179.9090  137.3210 C   0  0  0  0  0  1  0  0  0  0  0  0
  179.4870  173.2010  137.3900 C   0  0  0  0  0  2  0  0  0  0  0  0
  181.7810  173.3810  136.3790 C   0  0  2  0  0  3  0  0  0  0  0  0
  179.8230  174.3370  138.3550 C   0  0  1  0  0  3  0  0  0  0  0  0
  180.2700  173.7820  139.6990 C   0  0  0  0  0  1  0  0  0  0  0  0
  180.8530  175.2970  137.7280 C   0  0  2  0  0  3  0  0  0  0  0  0
  182.1240  174.5420  137.3260 C   0  0  0  0  0  2  0  0  0  0  0  0
  180.7370  172.4280  136.9780 C   0  0  0  0  0  2  0  0  0  0  0  0
  182.9320  172.7060  135.8930 O   0  0  0  0  0  0  0  0  0  0  0  0
  183.3810  171.7950  136.8760 C   0  0  0  0  0  1  0  0  0  0  0  0
  185.0230  178.8780  139.5790 C   0  0  0  0  0  0  0  0  0  0  0  0
  184.7050  180.0000  139.1170 O   0  0  0  0  0  0  0  0  0  0  0  0
  185.6610  177.8820  138.6710 C   0  0  0  0  0  2  0  0  0  0  0  0
  187.0820  177.7690  138.9690 N   0  0  0  0  0  2  0  0  0  0  0  0
  188.9260  179.0120  138.2590 O   0  0  0  0  0  1  0  0  0  0  0  0
  187.8110  178.2900  137.8200 C   0  0  1  0  0  3  0  0  0  0  0  0
  189.3320  177.5590  136.0950 O   0  0  0  0  0  0  0  0  0  0  0  0
  190.4130  176.6740  136.3350 C   0  0  0  0  0  2  0  0  0  0  0  0
  190.6090  174.7610  137.8420 N   0  0  0  0  0  2  0  0  0  0  0  0
  189.9280  175.7310  137.3340 C   0  0  0  0  0  0  0  0  0  0  0  0
  188.6470  176.0200  137.6680 O   0  0  0  0  0  0  0  0  0  0  0  0
  188.2460  177.1450  136.9110 C   0  0  1  0  0  3  0  0  0  0  0  0
  186.4350  178.3470  144.2410 O   0  0  0  0  0  0  0  0  0  0  0  0
  186.8960  177.1100  144.4880 O   0  0  0  0  0  0  0  0  0  0  0  0
  187.1030  177.0610  145.8710 C   0  0  0  0  0  2  0  0  0  0  0  0
  187.8180  178.4990  147.6560 O   0  0  0  0  0  1  0  0  0  0  0  0
  188.0400  178.1800  146.3130 C   0  0  1  0  0  3  0  0  0  0  0  0
  190.8460  176.5460  144.6060 C   0  0  2  0  0  0  0  0  0  0  0  0
  190.8480  177.0260  140.7930 C   0  0  0  0  0  2  0  0  0  0  0  0
  190.7780  174.5730  143.2240 O   0  0  0  0  0  0  0  0  0  0  0  0
  189.6190  176.4510  145.4490 C   0  0  0  0  0  2  0  0  0  0  0  0
  190.6480  175.7880  143.2920 C   0  0  0  0  0  0  0  0  0  0  0  0
  189.5050  177.8200  146.0750 C   0  0  1  0  0  3  0  0  0  0  0  0
  191.4370  177.5340  142.0720 C   0  0  1  0  0  3  0  0  0  0  0  0
  190.1270  178.7720  145.2450 O   0  0  0  0  0  0  0  0  0  0  0  0
  192.0360  175.9840  145.3680 C   0  0  0  0  0  1  0  0  0  0  0  0
  190.9760  178.6390  142.9950 C   0  0  0  0  0  2  0  0  0  0  0  0
  190.2230  176.5740  142.0970 C   0  0  1  0  0  0  0  0  0  0  0  0
  188.9830  177.1780  142.2620 F   0  0  0  0  0  0  0  0  0  0  0  0
  191.0460  178.0810  144.4390 C   0  0  2  0  0  3  0  0  0  0  0  0
  1  3  1  0  0  0  0
  1  7  2  0  0  0  0
  2  5  2  0  0  0  0
  2 42  1  0  0  0  0
  3  9  1  0  0  0  0
  4  5  1  0  0  0  0
  5  8  1  0  0  0  0
  6  7  1  0  0  0  0
  7  2  1  0  0  0  0
  9  4  2  0  0  0  0
 10 11  3  0  0  0  0
 11  9  1  0  0  0  0
 12 10  1  0  0  0  0
 13 12  1  0  0  0  0
 14 16  1  0  0  0  0
 15 13  1  0  0  0  0
 15 17  2  0  0  0  0
 16 15  1  0  0  0  0
 17 18  1  0  0  0  0
 19 14  1  6  0  0  0
 19 17  1  0  0  0  0
 20 16  1  0  0  0  0
 21 23  1  0  0  0  0
 22 28  1  1  0  0  0
 22 27  1  0  0  0  0
 22 26  1  0  0  0  0
 23 24  1  1  0  0  0
 25 26  1  1  0  0  0
 25 23  1  0  0  0  0
 25 19  1  0  0  0  0
 27 21  1  0  0  0  0
 28 29  1  0  0  0  0
 30  1  1  0  0  0  0
 31 30  2  0  0  0  0
 32 33  1  0  0  0  0
 32 30  1  0  0  0  0
 35 34  1  1  0  0  0
 35 33  1  0  0  0  0
 36 37  1  0  0  0  0
 36 41  1  0  0  0  0
 37 39  1  0  0  0  0
 39 40  1  0  0  0  0
 39 38  2  0  0  0  0
 41 40  1  0  0  0  0
 41 35  1  1  0  0  0
 42 43  1  0  0  0  0
 43 44  1  0  0  0  0
 44 46  1  0  0  0  0
 46 45  1  1  0  0  0
 47 55  1  1  0  0  0
 47 50  1  0  0  0  0
 48 57  1  0  0  0  0
 49 51  2  0  0  0  0
 50 52  1  0  0  0  0
 51 47  1  0  0  0  0
 52 46  1  6  0  0  0
 53 48  1  6  0  0  0
 53 57  1  0  0  0  0
 53 56  1  0  0  0  0
 54 52  1  0  0  0  0
 57 58  1  1  0  0  0
 57 51  1  0  0  0  0
 59 56  1  6  0  0  0
 59 47  1  0  0  0  0
 59 54  1  0  0  0  0
M  END
>  <MODEL>
7

>  <REMARK>
 VINA RESULT:      -7.2      3.650     10.171
  Name = 
  16 active torsions:
  status: ('A' for Active; 'I' for Inactive)
    1  A    between atoms: C_1  and  C_18
    2  A    between atoms: C_3  and  C_46
    3  A    between atoms: O_4  and  C_34
    4  A    between atoms: O_4  and  O_50
    5  A    between atoms: C_6  and  O_50
    6  A    between atoms: N_9  and  C_27
    7  A    between atoms: N_9  and  C_32
    8  A    between atoms: C_14  and  C_26
    9  A    between atoms: C_15  and  O_42
   10  A    between atoms: C_18  and  C_27
   11  A    between atoms: C_23  and  C_25
   12  A    between atoms: C_25  and  C_34
   13  A    between atoms: C_26  and  C_46
   14  A    between atoms: C_32  and  C_38
   15  A    between atoms: C_33  and  C_49
   16  A    between atoms: C_56  and  C_59
                            x       y       z     vdW  Elec       q    Type
                         _______ _______ _______ _____ _____    ______ ____

>  <TORSDO>
F 16

$$$$
=
 OpenBabel10222417313D

 59 65  0  0  1  0  0  0  0  0999 V2000
  186.4940  177.7150  137.6510 C   0  0  0  0  0  0  0  0  0  0  0  0
  184.6110  178.7130  139.0000 C   0  0  0  0  0  0  0  0  0  0  0  0
  187.4870  178.6130  138.3180 C   0  0  0  0  0  2  0  0  0  0  0  0
  186.5520  178.4880  140.5850 C   0  0  0  0  0  3  0  0  0  0  0  0
  185.2280  178.9970  140.1790 C   0  0  0  0  0  0  0  0  0  0  0  0
  184.1700  176.9960  137.1870 C   0  0  0  0  0  1  0  0  0  0  0  0
  185.1760  177.7940  137.9630 C   0  0  0  0  0  0  0  0  0  0  0  0
  184.5830  179.7230  141.1220 F   0  0  0  0  0  0  0  0  0  0  0  0
  187.5760  178.2690  139.7650 C   0  0  0  0  0  0  0  0  0  0  0  0
  189.8280  177.2840  140.7330 C   0  0  0  0  0  0  0  0  0  0  0  0
  188.7930  177.7330  140.3080 C   0  0  0  0  0  0  0  0  0  0  0  0
  191.0970  176.7320  141.2140 C   0  0  0  0  0  2  0  0  0  0  0  0
  191.8150  177.7450  142.0880 C   0  0  0  0  0  2  0  0  0  0  0  0
  190.9890  176.6100  145.5870 N   0  0  0  0  0  2  0  0  0  0  0  0
  191.3710  177.6100  143.5110 C   0  0  0  0  0  0  0  0  0  0  0  0
  191.3320  176.4030  144.2380 N   0  0  0  0  0  0  0  0  0  0  0  0
  191.0420  178.5960  144.3060 C   0  0  0  0  0  0  0  0  0  0  0  0
  191.0210  179.9400  143.9340 O   0  0  0  0  0  1  0  0  0  0  0  0
  190.7400  178.0650  145.6750 C   0  0  1  0  0  3  0  0  0  0  0  0
  191.7320  175.1060  143.7230 C   0  0  0  0  0  1  0  0  0  0  0  0
  187.5110  178.1990  147.8690 C   0  0  0  0  0  2  0  0  0  0  0  0
  186.8580  178.0340  145.4470 C   0  0  2  0  0  3  0  0  0  0  0  0
  188.9550  177.8580  147.5020 C   0  0  1  0  0  3  0  0  0  0  0  0
  189.2210  176.3740  147.7110 C   0  0  0  0  0  1  0  0  0  0  0  0
  189.2810  178.3330  146.0740 C   0  0  2  0  0  3  0  0  0  0  0  0
  188.3110  177.7150  145.0610 C   0  0  0  0  0  2  0  0  0  0  0  0
  186.5230  177.5900  146.8780 C   0  0  0  0  0  2  0  0  0  0  0  0
  185.9170  177.5720  144.4890 O   0  0  0  0  0  0  0  0  0  0  0  0
  185.0240  178.6220  144.1770 C   0  0  0  0  0  1  0  0  0  0  0  0
  187.0290  176.7550  136.6590 C   0  0  0  0  0  0  0  0  0  0  0  0
  186.6590  175.5560  136.6670 O   0  0  0  0  0  0  0  0  0  0  0  0
  188.0340  177.1900  135.6480 C   0  0  0  0  0  2  0  0  0  0  0  0
  189.3800  177.0650  136.1900 N   0  0  0  0  0  2  0  0  0  0  0  0
  189.8530  174.8430  135.6520 O   0  0  0  0  0  1  0  0  0  0  0  0
  189.5200  175.7070  136.7000 C   0  0  1  0  0  3  0  0  0  0  0  0
  191.2560  174.4070  137.7580 O   0  0  0  0  0  0  0  0  0  0  0  0
  192.6400  174.6550  137.5670 C   0  0  0  0  0  2  0  0  0  0  0  0
  193.8640  176.7490  137.2770 N   0  0  0  0  0  2  0  0  0  0  0  0
  192.7640  176.1030  137.4670 C   0  0  0  0  0  0  0  0  0  0  0  0
  191.5490  176.6880  137.5950 O   0  0  0  0  0  0  0  0  0  0  0  0
  190.5930  175.6630  137.7830 C   0  0  1  0  0  3  0  0  0  0  0  0
  183.3270  179.2170  138.7200 O   0  0  0  0  0  0  0  0  0  0  0  0
  182.2640  179.0350  139.5200 O   0  0  0  0  0  0  0  0  0  0  0  0
  181.2410  178.5820  138.6810 C   0  0  0  0  0  2  0  0  0  0  0  0
  179.7540  177.6030  140.2920 O   0  0  0  0  0  1  0  0  0  0  0  0
  180.6190  177.3050  139.2350 C   0  0  1  0  0  3  0  0  0  0  0  0
  180.3670  175.1130  136.3030 C   0  0  2  0  0  0  0  0  0  0  0  0
  182.4830  171.9160  136.5570 C   0  0  0  0  0  2  0  0  0  0  0  0
  182.0340  174.7310  134.6060 O   0  0  0  0  0  0  0  0  0  0  0  0
  180.7400  176.4280  136.9010 C   0  0  0  0  0  2  0  0  0  0  0  0
  181.6000  174.4300  135.7100 C   0  0  0  0  0  0  0  0  0  0  0  0
  179.8960  176.5090  138.1500 C   0  0  1  0  0  3  0  0  0  0  0  0
  181.1010  172.4630  136.7310 C   0  0  1  0  0  3  0  0  0  0  0  0
  179.5910  175.2100  138.5990 O   0  0  0  0  0  0  0  0  0  0  0  0
  179.3080  175.3200  135.2310 C   0  0  0  0  0  1  0  0  0  0  0  0
  180.4210  173.0440  137.9500 C   0  0  0  0  0  2  0  0  0  0  0  0
  182.3040  173.4210  136.5540 C   0  0  1  0  0  0  0  0  0  0  0  0
  182.8200  173.9620  137.7250 F   0  0  0  0  0  0  0  0  0  0  0  0
  179.7200  174.3500  137.4970 C   0  0  2  0  0  3  0  0  0  0  0  0
  1  7  2  0  0  0  0
  1  3  1  0  0  0  0
  2  5  2  0  0  0  0
  3  9  1  0  0  0  0
  5  4  1  0  0  0  0
  5  8  1  0  0  0  0
  6  7  1  0  0  0  0
  7  2  1  0  0  0  0
  9 11  1  0  0  0  0
  9  4  2  0  0  0  0
 10 12  1  0  0  0  0
 11 10  3  0  0  0  0
 12 13  1  0  0  0  0
 13 15  1  0  0  0  0
 14 19  1  0  0  0  0
 15 16  1  0  0  0  0
 15 17  2  0  0  0  0
 16 14  1  0  0  0  0
 18 17  1  0  0  0  0
 19 17  1  6  0  0  0
 19 25  1  0  0  0  0
 20 16  1  0  0  0  0
 22 28  1  6  0  0  0
 22 27  1  0  0  0  0
 23 24  1  6  0  0  0
 23 21  1  0  0  0  0
 25 26  1  6  0  0  0
 25 23  1  0  0  0  0
 26 22  1  0  0  0  0
 27 21  1  0  0  0  0
 29 28  1  0  0  0  0
 30 31  2  0  0  0  0
 30  1  1  0  0  0  0
 32 33  1  0  0  0  0
 32 30  1  0  0  0  0
 33 35  1  0  0  0  0
 35 34  1  6  0  0  0
 36 41  1  0  0  0  0
 37 36  1  0  0  0  0
 38 39  2  0  0  0  0
 39 37  1  0  0  0  0
 39 40  1  0  0  0  0
 40 41  1  0  0  0  0
 41 35  1  6  0  0  0
 42  2  1  0  0  0  0
 42 43  1  0  0  0  0
 44 46  1  0  0  0  0
 44 43  1  0  0  0  0
 46 45  1  1  0  0  0
 47 55  1  6  0  0  0
 47 50  1  0  0  0  0
 47 59  1  0  0  0  0
 49 51  2  0  0  0  0
 50 52  1  0  0  0  0
 51 47  1  0  0  0  0
 51 57  1  0  0  0  0
 52 54  1  0  0  0  0
 52 46  1  1  0  0  0
 53 48  1  1  0  0  0
 53 56  1  0  0  0  0
 57 48  1  0  0  0  0
 57 53  1  0  0  0  0
 57 58  1  1  0  0  0
 59 56  1  1  0  0  0
 59 54  1  0  0  0  0
M  END
>  <MODEL>
8

>  <REMARK>
 VINA RESULT:      -7.0      2.705      8.249
  Name = 
  16 active torsions:
  status: ('A' for Active; 'I' for Inactive)
    1  A    between atoms: C_1  and  C_18
    2  A    between atoms: C_3  and  C_46
    3  A    between atoms: O_4  and  C_34
    4  A    between atoms: O_4  and  O_50
    5  A    between atoms: C_6  and  O_50
    6  A    between atoms: N_9  and  C_27
    7  A    between atoms: N_9  and  C_32
    8  A    between atoms: C_14  and  C_26
    9  A    between atoms: C_15  and  O_42
   10  A    between atoms: C_18  and  C_27
   11  A    between atoms: C_23  and  C_25
   12  A    between atoms: C_25  and  C_34
   13  A    between atoms: C_26  and  C_46
   14  A    between atoms: C_32  and  C_38
   15  A    between atoms: C_33  and  C_49
   16  A    between atoms: C_56  and  C_59
                            x       y       z     vdW  Elec       q    Type
                         _______ _______ _______ _____ _____    ______ ____

>  <TORSDO>
F 16

$$$$
=
 OpenBabel10222417313D

 59 65  0  0  1  0  0  0  0  0999 V2000
  189.9090  176.7320  138.1180 C   0  0  0  0  0  0  0  0  0  0  0  0
  187.6650  177.8840  138.1030 C   0  0  0  0  0  0  0  0  0  0  0  0
  190.3510  177.5440  139.2940 C   0  0  0  0  0  2  0  0  0  0  0  0
  188.2270  177.4980  140.5250 C   0  0  0  0  0  3  0  0  0  0  0  0
  187.4580  178.1160  139.4280 C   0  0  0  0  0  0  0  0  0  0  0  0
  188.3010  176.2110  136.3070 C   0  0  0  0  0  1  0  0  0  0  0  0
  188.6810  176.9220  137.5730 C   0  0  0  0  0  0  0  0  0  0  0  0
  186.4230  178.8930  139.8250 F   0  0  0  0  0  0  0  0  0  0  0  0
  189.5200  177.1930  140.4800 C   0  0  0  0  0  0  0  0  0  0  0  0
  190.6300  175.9970  142.5590 C   0  0  0  0  0  0  0  0  0  0  0  0
  190.1200  176.5580  141.6200 C   0  0  0  0  0  0  0  0  0  0  0  0
  191.2470  175.2840  143.6790 C   0  0  0  0  0  2  0  0  0  0  0  0
  192.0550  176.2440  144.5340 C   0  0  0  0  0  2  0  0  0  0  0  0
  190.1120  177.3030  147.5850 N   0  0  0  0  0  2  0  0  0  0  0  0
  191.1720  176.9100  145.5420 C   0  0  0  0  0  0  0  0  0  0  0  0
  190.8660  176.3960  146.8180 N   0  0  0  0  0  0  0  0  0  0  0  0
  190.6330  178.0960  145.4200 C   0  0  0  0  0  0  0  0  0  0  0  0
  190.7710  178.9190  144.3030 O   0  0  0  0  0  1  0  0  0  0  0  0
  189.8900  178.4460  146.6740 C   0  0  1  0  0  3  0  0  0  0  0  0
  191.3730  175.1480  147.3590 C   0  0  0  0  0  1  0  0  0  0  0  0
  186.0440  178.5870  147.3410 C   0  0  0  0  0  2  0  0  0  0  0  0
  186.4420  178.0230  144.9240 C   0  0  2  0  0  3  0  0  0  0  0  0
  187.5190  178.3330  147.6430 C   0  0  1  0  0  3  0  0  0  0  0  0
  187.7180  176.9240  148.1840 C   0  0  0  0  0  1  0  0  0  0  0  0
  188.3880  178.6310  146.4070 C   0  0  2  0  0  3  0  0  0  0  0  0
  187.9340  177.7890  145.2090 C   0  0  0  0  0  2  0  0  0  0  0  0
  185.5640  177.7560  146.1540 C   0  0  0  0  0  2  0  0  0  0  0  0
  185.9890  177.3460  143.7610 O   0  0  0  0  0  0  0  0  0  0  0  0
  185.2830  178.2570  142.9430 C   0  0  0  0  0  1  0  0  0  0  0  0
  190.8700  175.7310  137.6030 C   0  0  0  0  0  0  0  0  0  0  0  0
  190.8060  174.5340  137.9750 O   0  0  0  0  0  0  0  0  0  0  0  0
  191.9470  176.1320  136.6520 C   0  0  0  0  0  2  0  0  0  0  0  0
  192.7240  174.9680  136.2520 N   0  0  0  0  0  2  0  0  0  0  0  0
  194.2950  176.5740  136.8870 O   0  0  0  0  0  1  0  0  0  0  0  0
  194.1060  175.2090  136.6470 C   0  0  1  0  0  3  0  0  0  0  0  0
  195.3710  173.3750  137.5730 O   0  0  0  0  0  0  0  0  0  0  0  0
  196.5130  173.5540  138.3950 C   0  0  0  0  0  2  0  0  0  0  0  0
  197.0210  175.2480  140.0800 N   0  0  0  0  0  2  0  0  0  0  0  0
  196.2290  174.7330  139.2030 C   0  0  0  0  0  0  0  0  0  0  0  0
  195.0050  175.2250  138.8990 O   0  0  0  0  0  0  0  0  0  0  0  0
  194.4430  174.4010  137.8960 C   0  0  1  0  0  3  0  0  0  0  0  0
  186.8510  178.4940  137.1300 O   0  0  0  0  0  0  0  0  0  0  0  0
  185.8640  177.8580  136.4780 O   0  0  0  0  0  0  0  0  0  0  0  0
  184.9920  177.4080  137.4750 C   0  0  0  0  0  2  0  0  0  0  0  0
  184.9720  175.0080  137.5430 O   0  0  0  0  0  1  0  0  0  0  0  0
  184.2960  176.1230  137.0390 C   0  0  1  0  0  3  0  0  0  0  0  0
  181.3560  177.1640  138.9720 C   0  0  2  0  0  0  0  0  0  0  0  0
  180.8360  180.9690  139.0970 C   0  0  0  0  0  2  0  0  0  0  0  0
  181.3200  178.2230  141.1360 O   0  0  0  0  0  0  0  0  0  0  0  0
  182.6860  176.4900  138.9110 C   0  0  0  0  0  2  0  0  0  0  0  0
  181.4100  178.3610  139.9240 C   0  0  0  0  0  0  0  0  0  0  0  0
  182.8270  176.1030  137.4590 C   0  0  1  0  0  3  0  0  0  0  0  0
  180.4000  179.7150  138.4060 C   0  0  1  0  0  3  0  0  0  0  0  0
  182.0660  176.9760  136.6600 O   0  0  0  0  0  0  0  0  0  0  0  0
  180.3000  176.1710  139.4290 C   0  0  0  0  0  1  0  0  0  0  0  0
  180.9350  179.0440  137.1610 C   0  0  0  0  0  2  0  0  0  0  0  0
  181.6440  179.7080  139.3270 C   0  0  1  0  0  0  0  0  0  0  0  0
  182.8710  179.8070  138.6820 F   0  0  0  0  0  0  0  0  0  0  0  0
  181.0770  177.5350  137.4860 C   0  0  2  0  0  3  0  0  0  0  0  0
  1  3  1  0  0  0  0
  2  5  2  0  0  0  0
  3  9  1  0  0  0  0
  5  8  1  0  0  0  0
  5  4  1  0  0  0  0
  6  7  1  0  0  0  0
  7  2  1  0  0  0  0
  7  1  2  0  0  0  0
  9  4  2  0  0  0  0
  9 11  1  0  0  0  0
 10 12  1  0  0  0  0
 11 10  3  0  0  0  0
 12 13  1  0  0  0  0
 13 15  1  0  0  0  0
 15 16  1  0  0  0  0
 16 20  1  0  0  0  0
 16 14  1  0  0  0  0
 17 15  2  0  0  0  0
 18 17  1  0  0  0  0
 19 17  1  6  0  0  0
 19 14  1  0  0  0  0
 21 23  1  0  0  0  0
 22 28  1  6  0  0  0
 22 26  1  0  0  0  0
 22 27  1  0  0  0  0
 23 24  1  6  0  0  0
 25 26  1  6  0  0  0
 25 19  1  0  0  0  0
 25 23  1  0  0  0  0
 27 21  1  0  0  0  0
 29 28  1  0  0  0  0
 30 31  2  0  0  0  0
 30  1  1  0  0  0  0
 32 30  1  0  0  0  0
 33 35  1  0  0  0  0
 33 32  1  0  0  0  0
 35 34  1  1  0  0  0
 36 41  1  0  0  0  0
 36 37  1  0  0  0  0
 37 39  1  0  0  0  0
 39 38  2  0  0  0  0
 40 39  1  0  0  0  0
 41 35  1  6  0  0  0
 41 40  1  0  0  0  0
 42  2  1  0  0  0  0
 43 42  1  0  0  0  0
 43 44  1  0  0  0  0
 46 44  1  0  0  0  0
 46 45  1  1  0  0  0
 47 55  1  1  0  0  0
 47 51  1  0  0  0  0
 48 57  1  0  0  0  0
 50 47  1  0  0  0  0
 51 49  2  0  0  0  0
 52 46  1  6  0  0  0
 52 50  1  0  0  0  0
 53 56  1  6  0  0  0
 53 48  1  0  0  0  0
 53 57  1  0  0  0  0
 54 52  1  0  0  0  0
 54 59  1  0  0  0  0
 57 58  1  6  0  0  0
 57 51  1  0  0  0  0
 59 56  1  1  0  0  0
 59 47  1  0  0  0  0
M  END
>  <MODEL>
9

>  <REMARK>
 VINA RESULT:      -6.9      2.388      8.726
  Name = 
  16 active torsions:
  status: ('A' for Active; 'I' for Inactive)
    1  A    between atoms: C_1  and  C_18
    2  A    between atoms: C_3  and  C_46
    3  A    between atoms: O_4  and  C_34
    4  A    between atoms: O_4  and  O_50
    5  A    between atoms: C_6  and  O_50
    6  A    between atoms: N_9  and  C_27
    7  A    between atoms: N_9  and  C_32
    8  A    between atoms: C_14  and  C_26
    9  A    between atoms: C_15  and  O_42
   10  A    between atoms: C_18  and  C_27
   11  A    between atoms: C_23  and  C_25
   12  A    between atoms: C_25  and  C_34
   13  A    between atoms: C_26  and  C_46
   14  A    between atoms: C_32  and  C_38
   15  A    between atoms: C_33  and  C_49
   16  A    between atoms: C_56  and  C_59
                            x       y       z     vdW  Elec       q    Type
                         _______ _______ _______ _____ _____    ______ ____

>  <TORSDO>
F 16

$$$$
