=
 OpenBabel10222416003D

 62 71  0  0  1  0  0  0  0  0999 V2000
  186.5240  178.2780  139.8170 C   0  0  1  0  0  3  0  0  0  0  0  0
  188.0480  178.2350  139.6860 C   0  0  2  0  0  3  0  0  0  0  0  0
  188.4130  178.7250  138.4180 O   0  0  0  0  0  0  0  0  0  0  0  0
  188.5940  177.3440  138.6080 C   0  0  2  0  0  3  0  0  0  0  0  0
  187.7080  175.6750  136.9740 C   0  0  0  0  0  3  0  0  0  0  0  0
  187.5800  176.5160  137.9530 N   0  0  0  0  0  0  0  0  0  0  0  0
  189.3700  173.2090  137.4570 O   0  0  0  0  0  1  0  0  0  0  0  0
  191.7050  176.0460  137.0180 C   0  0  0  0  0  0  0  0  0  0  0  0
  191.0450  176.9010  136.2940 N   0  0  0  0  0  0  0  0  0  0  0  0
  189.7000  176.6560  135.8720 C   0  0  0  0  0  0  0  0  0  0  0  0
  188.9900  175.3760  136.2510 C   0  0  1  0  0  3  0  0  0  0  0  0
  189.8560  174.4550  137.0780 C   0  0  0  0  0  0  0  0  0  0  0  0
  191.1000  174.7750  137.4190 C   0  0  0  0  0  3  0  0  0  0  0  0
  189.1190  177.5020  135.1390 O   0  0  0  0  0  0  0  0  0  0  0  0
  193.3720  176.4070  137.5730 S   0  0  0  0  0  0  0  0  0  0  0  0
  195.5760  174.9170  137.2240 N   0  0  0  0  0  2  0  0  0  0  0  0
  194.1720  174.9320  136.8300 C   0  0  2  0  0  3  0  0  0  0  0  0
  195.5100  175.6980  135.0620 C   0  0  0  0  0  2  0  0  0  0  0  0
  194.1950  175.0310  135.3330 C   0  0  0  0  0  2  0  0  0  0  0  0
  196.2710  175.7410  136.3120 N   0  0  0  0  0  0  0  0  0  0  0  0
  197.4720  173.6000  136.2570 C   0  0  0  0  0  1  0  0  0  0  0  0
  197.5610  175.1080  136.0740 C   0  0  0  0  0  2  0  0  0  0  0  0
  186.1260  178.7930  141.1310 N   0  0  0  0  0  2  0  0  0  0  0  0
  184.6790  178.6150  141.2560 C   0  0  0  0  0  2  0  0  0  0  0  0
  184.7780  179.0550  143.5970 C   0  0  0  0  0  3  0  0  0  0  0  0
  184.3130  178.2570  142.6510 C   0  0  0  0  0  3  0  0  0  0  0  0
  184.5370  178.8130  144.9510 O   0  0  0  0  0  0  0  0  0  0  0  0
  185.6110  178.5760  145.8180 C   0  0  0  0  0  0  0  0  0  0  0  0
  185.7540  179.3020  146.8430 O   0  0  0  0  0  0  0  0  0  0  0  0
  186.5750  177.4540  145.5490 C   0  0  0  0  0  2  0  0  0  0  0  0
  188.1080  176.3250  143.2880 C   0  0  0  0  0  2  0  0  0  0  0  0
  189.6070  178.2470  143.2050 C   0  0  1  0  0  3  0  0  0  0  0  0
  190.4690  178.7480  144.4160 C   0  0  0  0  0  2  0  0  0  0  0  0
  190.3150  177.0180  142.5480 C   0  0  1  0  0  3  0  0  0  0  0  0
  191.4570  176.6700  145.9280 O   0  0  0  0  0  0  0  0  0  0  0  0
  191.4480  176.8690  144.5840 C   0  0  1  0  0  3  0  0  0  0  0  0
  190.7120  175.9310  143.5970 C   0  0  1  0  0  3  0  0  0  0  0  0
  187.9960  177.9090  145.1730 C   0  0  2  0  0  3  0  0  0  0  0  0
  188.2010  177.7900  143.6520 C   0  0  2  0  0  3  0  0  0  0  0  0
  190.4920  177.6400  145.4880 C   0  0  2  0  0  0  0  0  0  0  0  0
  189.1000  177.0840  145.8500 C   0  0  0  0  0  2  0  0  0  0  0  0
  189.4360  175.8510  142.7250 C   0  0  1  0  0  3  0  0  0  0  0  0
  185.8600  179.0180  138.7320 N   0  0  0  0  0  2  0  0  0  0  0  0
  184.5240  178.6080  138.6170 N   0  0  0  0  0  2  0  0  0  0  0  0
  184.5680  177.2640  138.0720 C   0  0  0  0  0  2  0  0  0  0  0  0
  183.6890  177.1600  136.8360 C   0  0  0  0  0  2  0  0  0  0  0  0
  182.3270  176.6450  137.2530 C   0  0  0  0  0  2  0  0  0  0  0  0
  182.4630  176.0430  138.5060 O   0  0  0  0  0  0  0  0  0  0  0  0
  181.1710  176.0380  139.0470 C   0  0  1  0  0  3  0  0  0  0  0  0
  179.9420  178.0550  142.1000 C   0  0  0  0  0  3  0  0  0  0  0  0
  180.9700  177.2310  139.9850 C   0  0  2  0  0  3  0  0  0  0  0  0
  178.9330  180.3820  139.5410 O   0  0  0  0  0  1  0  0  0  0  0  0
  179.8820  179.5370  140.1230 C   0  0  1  0  0  0  0  0  0  0  0  0
  180.0750  176.8770  141.1800 C   0  0  0  0  0  2  0  0  0  0  0  0
  179.8130  179.2960  141.6100 C   0  0  0  0  0  0  0  0  0  0  0  0
  180.4070  178.4300  139.2070 C   0  0  1  0  0  3  0  0  0  0  0  0
  179.6880  180.4480  142.5430 C   0  0  0  0  0  1  0  0  0  0  0  0
  181.2600  179.6640  139.5200 C   0  0  0  0  0  2  0  0  0  0  0  0
  180.1570  176.0830  137.9150 C   0  0  0  0  0  2  0  0  0  0  0  0
  179.0550  175.0670  138.1400 C   0  0  0  0  0  2  0  0  0  0  0  0
  180.2790  173.2790  137.5400 O   0  0  0  0  0  1  0  0  0  0  0  0
  179.6250  173.8090  138.5970 N   0  0  0  0  0  2  0  0  0  0  0  0
  1 43  1  6  0  0  0
  1 23  1  0  0  0  0
  2  1  1  6  0  0  0
  3  4  1  0  0  0  0
  3  2  1  0  0  0  0
  4  6  1  6  0  0  0
  4  2  1  0  0  0  0
  5  6  2  0  0  0  0
  8 13  1  0  0  0  0
  8 15  1  0  0  0  0
  9  8  2  0  0  0  0
 10 11  1  0  0  0  0
 10  9  1  0  0  0  0
 11  5  1  1  0  0  0
 11 12  1  0  0  0  0
 12 13  2  0  0  0  0
 12  7  1  0  0  0  0
 14 10  2  0  0  0  0
 17 16  1  0  0  0  0
 17 15  1  1  0  0  0
 18 19  1  0  0  0  0
 18 20  1  0  0  0  0
 19 17  1  0  0  0  0
 20 16  1  0  0  0  0
 22 21  1  0  0  0  0
 22 20  1  0  0  0  0
 23 24  1  0  0  0  0
 24 26  1  0  0  0  0
 25 27  1  0  0  0  0
 26 25  2  0  0  0  0
 27 28  1  0  0  0  0
 28 29  2  0  0  0  0
 30 28  1  0  0  0  0
 31 39  1  0  0  0  0
 32 39  1  0  0  0  0
 32 33  1  1  0  0  0
 33 40  1  0  0  0  0
 34 42  1  0  0  0  0
 34 32  1  0  0  0  0
 34 37  1  0  0  0  0
 36 40  1  0  0  0  0
 36 35  1  0  0  0  0
 37 36  1  0  0  0  0
 38 30  1  0  0  0  0
 38 41  1  0  0  0  0
 39 38  1  0  0  0  0
 40 41  1  0  0  0  0
 40 35  1  0  0  0  0
 42 31  1  0  0  0  0
 42 37  1  0  0  0  0
 44 43  1  0  0  0  0
 45 44  1  0  0  0  0
 46 47  1  0  0  0  0
 46 45  1  0  0  0  0
 47 48  1  0  0  0  0
 48 49  1  0  0  0  0
 49 51  1  0  0  0  0
 51 54  1  0  0  0  0
 52 53  1  0  0  0  0
 53 55  1  0  0  0  0
 54 50  1  0  0  0  0
 55 50  2  0  0  0  0
 55 57  1  0  0  0  0
 56 58  1  0  0  0  0
 56 51  1  0  0  0  0
 56 53  1  0  0  0  0
 58 53  1  0  0  0  0
 59 60  1  0  0  0  0
 59 49  1  0  0  0  0
 60 62  1  0  0  0  0
 61 62  1  0  0  0  0
M  END
>  <MODEL>
1

>  <REMARK>
 VINA RESULT:      -7.7      0.000      0.000
  Name = 
  24 active torsions:
  status: ('A' for Active; 'I' for Inactive)
    1  A    between atoms: C_3  and  C_46
    2  A    between atoms: S_4  and  C_15
    3  A    between atoms: S_4  and  C_36
    4  A    between atoms: C_5  and  O_37
    5  A    between atoms: C_5  and  C_59
    6  A    between atoms: C_6  and  C_51
    7  A    between atoms: C_9  and  C_48
    8  A    between atoms: N_13  and  N_25
    9  A    between atoms: N_13  and  C_26
   10  A    between atoms: O_16  and  C_32
   11  A    between atoms: O_16  and  C_48
   12  A    between atoms: C_21  and  C_26
   13  A    between atoms: C_21  and  C_32
   14  A    between atoms: N_24  and  C_29
   15  A    between atoms: N_25  and  C_46
   16  A    between atoms: N_27  and  C_34
   17  A    between atoms: N_27  and  C_46
   18  A    between atoms: C_28  and  O_37
   19  A    between atoms: C_29  and  C_50
   20  A    between atoms: C_34  and  C_62
   21  A    between atoms: C_38  and  N_47
   22  A    between atoms: C_48  and  C_50
   23  A    between atoms: C_49  and  C_59
   24  A    between atoms: C_52  and  N_58
                            x       y       z     vdW  Elec       q    Type
                         _______ _______ _______ _____ _____    ______ ____

>  <TORSDO>
F 24

$$$$
=
 OpenBabel10222416003D

 62 71  0  0  1  0  0  0  0  0999 V2000
  186.4120  178.3750  139.9850 C   0  0  1  0  0  3  0  0  0  0  0  0
  187.9300  178.1800  139.9940 C   0  0  2  0  0  3  0  0  0  0  0  0
  188.4640  178.6870  138.7940 O   0  0  0  0  0  0  0  0  0  0  0  0
  188.4880  177.2870  138.9240 C   0  0  2  0  0  3  0  0  0  0  0  0
  187.6000  175.8670  137.0710 C   0  0  0  0  0  3  0  0  0  0  0  0
  187.4670  176.5980  138.1330 N   0  0  0  0  0  0  0  0  0  0  0  0
  189.1320  173.2910  137.3890 O   0  0  0  0  0  1  0  0  0  0  0  0
  191.6020  176.0450  137.3150 C   0  0  0  0  0  0  0  0  0  0  0  0
  191.0140  176.9920  136.6480 N   0  0  0  0  0  0  0  0  0  0  0  0
  189.6790  176.8510  136.1490 C   0  0  0  0  0  0  0  0  0  0  0  0
  188.8990  175.5750  136.3770 C   0  0  1  0  0  3  0  0  0  0  0  0
  189.6870  174.5430  137.1490 C   0  0  0  0  0  0  0  0  0  0  0  0
  190.9260  174.7720  137.5690 C   0  0  0  0  0  3  0  0  0  0  0  0
  189.1700  177.7870  135.4760 O   0  0  0  0  0  0  0  0  0  0  0  0
  193.2570  176.2760  137.9690 S   0  0  0  0  0  0  0  0  0  0  0  0
  195.0300  174.3210  138.4540 N   0  0  0  0  0  2  0  0  0  0  0  0
  193.8700  174.5840  137.6110 C   0  0  2  0  0  3  0  0  0  0  0  0
  195.8400  174.8220  136.3610 C   0  0  0  0  0  2  0  0  0  0  0  0
  194.3870  174.4880  136.2060 C   0  0  0  0  0  2  0  0  0  0  0  0
  196.1540  174.8590  137.7900 N   0  0  0  0  0  0  0  0  0  0  0  0
  197.6120  173.1670  136.7690 C   0  0  0  0  0  1  0  0  0  0  0  0
  197.2610  173.9430  138.0310 C   0  0  0  0  0  2  0  0  0  0  0  0
  185.9650  179.0600  141.2030 N   0  0  0  0  0  2  0  0  0  0  0  0
  184.5500  178.7410  141.3940 C   0  0  0  0  0  2  0  0  0  0  0  0
  184.6450  179.1500  143.7410 C   0  0  0  0  0  3  0  0  0  0  0  0
  184.2970  178.3000  142.7910 C   0  0  0  0  0  3  0  0  0  0  0  0
  184.4920  178.8460  145.0960 O   0  0  0  0  0  0  0  0  0  0  0  0
  185.6250  178.6640  145.9000 C   0  0  0  0  0  0  0  0  0  0  0  0
  185.8360  179.4550  146.8630 O   0  0  0  0  0  0  0  0  0  0  0  0
  186.5710  177.5260  145.6390 C   0  0  0  0  0  2  0  0  0  0  0  0
  188.0230  176.3390  143.3550 C   0  0  0  0  0  2  0  0  0  0  0  0
  189.5440  178.2390  143.1950 C   0  0  1  0  0  3  0  0  0  0  0  0
  190.4470  178.7500  144.3730 C   0  0  0  0  0  2  0  0  0  0  0  0
  190.2170  176.9900  142.5400 C   0  0  1  0  0  3  0  0  0  0  0  0
  191.4520  176.6850  145.8910 O   0  0  0  0  0  0  0  0  0  0  0  0
  191.4070  176.8610  144.5440 C   0  0  1  0  0  3  0  0  0  0  0  0
  190.6300  175.9150  143.5960 C   0  0  1  0  0  3  0  0  0  0  0  0
  187.9860  177.9550  145.2140 C   0  0  2  0  0  3  0  0  0  0  0  0
  188.1460  177.8080  143.6900 C   0  0  2  0  0  3  0  0  0  0  0  0
  190.4870  177.6590  145.4620 C   0  0  2  0  0  0  0  0  0  0  0  0
  189.0990  177.1270  145.8730 C   0  0  0  0  0  2  0  0  0  0  0  0
  189.3290  175.8380  142.7620 C   0  0  1  0  0  3  0  0  0  0  0  0
  185.9120  179.0530  138.7780 N   0  0  0  0  0  2  0  0  0  0  0  0
  184.5100  179.0360  138.7630 N   0  0  0  0  0  2  0  0  0  0  0  0
  184.1370  177.9130  137.9230 C   0  0  0  0  0  2  0  0  0  0  0  0
  182.7990  178.1700  137.2500 C   0  0  0  0  0  2  0  0  0  0  0  0
  181.6970  177.9410  138.2640 C   0  0  0  0  0  2  0  0  0  0  0  0
  180.4740  178.1130  137.6130 O   0  0  0  0  0  0  0  0  0  0  0  0
  179.5330  177.4800  138.4370 C   0  0  1  0  0  3  0  0  0  0  0  0
  179.9290  173.6670  138.8840 C   0  0  0  0  0  3  0  0  0  0  0  0
  179.4450  175.9870  138.1140 C   0  0  2  0  0  3  0  0  0  0  0  0
  181.3150  173.9150  135.5670 O   0  0  0  0  0  1  0  0  0  0  0  0
  180.3200  174.2080  136.5050 C   0  0  1  0  0  0  0  0  0  0  0  0
  180.0790  175.1230  139.2130 C   0  0  0  0  0  2  0  0  0  0  0  0
  180.0790  173.2290  137.6260 C   0  0  0  0  0  0  0  0  0  0  0  0
  180.0820  175.7000  136.7460 C   0  0  1  0  0  3  0  0  0  0  0  0
  179.9200  171.7810  137.3250 C   0  0  0  0  0  1  0  0  0  0  0  0
  179.1010  174.8720  135.9100 C   0  0  0  0  0  2  0  0  0  0  0  0
  179.9320  177.6810  139.8910 C   0  0  0  0  0  2  0  0  0  0  0  0
  179.5390  179.0650  140.3690 C   0  0  0  0  0  2  0  0  0  0  0  0
  180.9400  178.2820  141.9430 O   0  0  0  0  0  1  0  0  0  0  0  0
  180.2720  179.3990  141.5800 N   0  0  0  0  0  2  0  0  0  0  0  0
  1 43  1  6  0  0  0
  1 23  1  0  0  0  0
  2  1  1  6  0  0  0
  3  4  1  0  0  0  0
  3  2  1  0  0  0  0
  4  6  1  6  0  0  0
  4  2  1  0  0  0  0
  5  6  2  0  0  0  0
  8 13  1  0  0  0  0
  8 15  1  0  0  0  0
  9  8  2  0  0  0  0
 10 11  1  0  0  0  0
 10  9  1  0  0  0  0
 11  5  1  1  0  0  0
 11 12  1  0  0  0  0
 12  7  1  0  0  0  0
 12 13  2  0  0  0  0
 14 10  2  0  0  0  0
 17 15  1  1  0  0  0
 17 16  1  0  0  0  0
 18 20  1  0  0  0  0
 19 18  1  0  0  0  0
 19 17  1  0  0  0  0
 20 22  1  0  0  0  0
 20 16  1  0  0  0  0
 21 22  1  0  0  0  0
 23 24  1  0  0  0  0
 24 26  1  0  0  0  0
 25 27  1  0  0  0  0
 26 25  2  0  0  0  0
 27 28  1  0  0  0  0
 28 29  2  0  0  0  0
 30 28  1  0  0  0  0
 31 39  1  0  0  0  0
 32 39  1  0  0  0  0
 32 33  1  1  0  0  0
 33 40  1  0  0  0  0
 34 42  1  0  0  0  0
 34 32  1  0  0  0  0
 34 37  1  0  0  0  0
 36 40  1  0  0  0  0
 36 35  1  0  0  0  0
 37 36  1  0  0  0  0
 38 30  1  0  0  0  0
 38 41  1  0  0  0  0
 39 38  1  0  0  0  0
 40 41  1  0  0  0  0
 40 35  1  0  0  0  0
 42 31  1  0  0  0  0
 42 37  1  0  0  0  0
 44 43  1  0  0  0  0
 45 44  1  0  0  0  0
 46 45  1  0  0  0  0
 46 47  1  0  0  0  0
 48 47  1  0  0  0  0
 48 49  1  0  0  0  0
 49 59  1  0  0  0  0
 50 54  1  0  0  0  0
 51 49  1  0  0  0  0
 51 54  1  0  0  0  0
 52 53  1  0  0  0  0
 53 56  1  0  0  0  0
 53 55  1  0  0  0  0
 55 50  2  0  0  0  0
 56 51  1  0  0  0  0
 57 55  1  0  0  0  0
 58 53  1  0  0  0  0
 58 56  1  0  0  0  0
 59 60  1  0  0  0  0
 60 62  1  0  0  0  0
 62 61  1  0  0  0  0
M  END
>  <MODEL>
2

>  <REMARK>
 VINA RESULT:      -7.2      1.347      2.865
  Name = 
  24 active torsions:
  status: ('A' for Active; 'I' for Inactive)
    1  A    between atoms: C_3  and  C_46
    2  A    between atoms: S_4  and  C_15
    3  A    between atoms: S_4  and  C_36
    4  A    between atoms: C_5  and  O_37
    5  A    between atoms: C_5  and  C_59
    6  A    between atoms: C_6  and  C_51
    7  A    between atoms: C_9  and  C_48
    8  A    between atoms: N_13  and  N_25
    9  A    between atoms: N_13  and  C_26
   10  A    between atoms: O_16  and  C_32
   11  A    between atoms: O_16  and  C_48
   12  A    between atoms: C_21  and  C_26
   13  A    between atoms: C_21  and  C_32
   14  A    between atoms: N_24  and  C_29
   15  A    between atoms: N_25  and  C_46
   16  A    between atoms: N_27  and  C_34
   17  A    between atoms: N_27  and  C_46
   18  A    between atoms: C_28  and  O_37
   19  A    between atoms: C_29  and  C_50
   20  A    between atoms: C_34  and  C_62
   21  A    between atoms: C_38  and  N_47
   22  A    between atoms: C_48  and  C_50
   23  A    between atoms: C_49  and  C_59
   24  A    between atoms: C_52  and  N_58
                            x       y       z     vdW  Elec       q    Type
                         _______ _______ _______ _____ _____    ______ ____

>  <TORSDO>
F 24

$$$$
=
 OpenBabel10222416003D

 62 71  0  0  1  0  0  0  0  0999 V2000
  185.2260  178.8440  141.1620 C   0  0  1  0  0  3  0  0  0  0  0  0
  186.6820  178.3870  141.0510 C   0  0  2  0  0  3  0  0  0  0  0  0
  187.4030  179.3360  140.3010 O   0  0  0  0  0  0  0  0  0  0  0  0
  187.1810  178.1030  139.6640 C   0  0  2  0  0  3  0  0  0  0  0  0
  186.2260  177.9230  137.3640 C   0  0  0  0  0  3  0  0  0  0  0  0
  186.1380  178.1420  138.6380 N   0  0  0  0  0  0  0  0  0  0  0  0
  186.8680  175.1780  136.2990 O   0  0  0  0  0  1  0  0  0  0  0  0
  189.9960  176.5830  137.6890 C   0  0  0  0  0  0  0  0  0  0  0  0
  189.8370  177.8710  137.6110 N   0  0  0  0  0  0  0  0  0  0  0  0
  188.6320  178.4560  137.1030 C   0  0  0  0  0  0  0  0  0  0  0  0
  187.4910  177.5860  136.6270 C   0  0  1  0  0  3  0  0  0  0  0  0
  187.7930  176.1110  136.7520 C   0  0  0  0  0  0  0  0  0  0  0  0
  188.9480  175.6680  137.2370 C   0  0  0  0  0  3  0  0  0  0  0  0
  188.5460  179.7100  137.0150 O   0  0  0  0  0  0  0  0  0  0  0  0
  191.4980  175.8850  138.3780 S   0  0  0  0  0  0  0  0  0  0  0  0
  192.5640  173.7660  137.1230 N   0  0  0  0  0  2  0  0  0  0  0  0
  192.1130  175.1200  136.8270 C   0  0  2  0  0  3  0  0  0  0  0  0
  194.4530  175.0680  136.9720 C   0  0  0  0  0  2  0  0  0  0  0  0
  193.3350  175.8320  136.3270 C   0  0  0  0  0  2  0  0  0  0  0  0
  193.8930  173.8660  137.5900 N   0  0  0  0  0  0  0  0  0  0  0  0
  195.5850  172.1580  138.0900 C   0  0  0  0  0  1  0  0  0  0  0  0
  194.6110  172.7130  137.0610 C   0  0  0  0  0  2  0  0  0  0  0  0
  184.9930  179.5450  142.4300 N   0  0  0  0  0  2  0  0  0  0  0  0
  183.8580  178.8980  143.0890 C   0  0  0  0  0  2  0  0  0  0  0  0
  184.3700  179.0030  145.4160 C   0  0  0  0  0  3  0  0  0  0  0  0
  184.2920  178.2310  144.3450 C   0  0  0  0  0  3  0  0  0  0  0  0
  184.7960  178.5100  146.6510 O   0  0  0  0  0  0  0  0  0  0  0  0
  186.1540  178.5640  146.9900 C   0  0  0  0  0  0  0  0  0  0  0  0
  186.5990  179.5700  147.6130 O   0  0  0  0  0  0  0  0  0  0  0  0
  187.0730  177.4280  146.6400 C   0  0  0  0  0  2  0  0  0  0  0  0
  187.7820  176.5090  143.9210 C   0  0  0  0  0  2  0  0  0  0  0  0
  189.3580  178.3430  143.5960 C   0  0  1  0  0  3  0  0  0  0  0  0
  190.5730  178.6410  144.5420 C   0  0  0  0  0  2  0  0  0  0  0  0
  189.7340  177.1700  142.6350 C   0  0  1  0  0  3  0  0  0  0  0  0
  191.7680  176.3400  145.4680 O   0  0  0  0  0  0  0  0  0  0  0  0
  191.3890  176.7060  144.2150 C   0  0  1  0  0  3  0  0  0  0  0  0
  190.3200  175.9390  143.4000 C   0  0  1  0  0  3  0  0  0  0  0  0
  188.3590  177.8480  145.9070 C   0  0  2  0  0  3  0  0  0  0  0  0
  188.1060  177.9100  144.3900 C   0  0  2  0  0  3  0  0  0  0  0  0
  190.8070  177.4080  145.4380 C   0  0  2  0  0  0  0  0  0  0  0  0
  189.5350  176.8870  146.1360 C   0  0  0  0  0  2  0  0  0  0  0  0
  188.8450  176.0380  142.9430 C   0  0  1  0  0  3  0  0  0  0  0  0
  184.7710  179.6480  140.0170 N   0  0  0  0  0  2  0  0  0  0  0  0
  183.3770  179.5640  139.8930 N   0  0  0  0  0  2  0  0  0  0  0  0
  183.0910  178.1780  139.5730 C   0  0  0  0  0  2  0  0  0  0  0  0
  182.0380  178.0870  138.4810 C   0  0  0  0  0  2  0  0  0  0  0  0
  182.1040  179.3450  137.6400 C   0  0  0  0  0  2  0  0  0  0  0  0
  181.3320  179.1370  136.4960 O   0  0  0  0  0  0  0  0  0  0  0  0
  180.0840  179.7010  136.7950 C   0  0  1  0  0  3  0  0  0  0  0  0
  180.4760  182.9940  134.8220 C   0  0  0  0  0  3  0  0  0  0  0  0
  180.0850  181.2050  136.5110 C   0  0  2  0  0  3  0  0  0  0  0  0
  182.4180  183.9230  137.7110 O   0  0  0  0  0  1  0  0  0  0  0  0
  181.2690  183.3800  137.1300 C   0  0  1  0  0  0  0  0  0  0  0  0
  180.5340  181.5170  135.0770 C   0  0  0  0  0  2  0  0  0  0  0  0
  180.8540  183.8690  135.7650 C   0  0  0  0  0  0  0  0  0  0  0  0
  180.9600  181.9390  137.5380 C   0  0  1  0  0  3  0  0  0  0  0  0
  180.7820  185.3290  135.4900 C   0  0  0  0  0  1  0  0  0  0  0  0
  180.1590  183.1090  138.1180 C   0  0  0  0  0  2  0  0  0  0  0  0
  179.0150  179.0090  135.9640 C   0  0  0  0  0  2  0  0  0  0  0  0
  179.2720  177.5170  135.8920 C   0  0  0  0  0  2  0  0  0  0  0  0
  179.6610  175.7370  137.2090 O   0  0  0  0  0  1  0  0  0  0  0  0
  178.9710  176.8980  137.1740 N   0  0  0  0  0  2  0  0  0  0  0  0
  1 43  1  6  0  0  0
  1 23  1  0  0  0  0
  2  1  1  6  0  0  0
  3  2  1  0  0  0  0
  4  6  1  6  0  0  0
  4  3  1  0  0  0  0
  4  2  1  0  0  0  0
  5  6  2  0  0  0  0
  7 12  1  0  0  0  0
  8 15  1  0  0  0  0
  9  8  2  0  0  0  0
 10  9  1  0  0  0  0
 11 12  1  0  0  0  0
 11 10  1  0  0  0  0
 11  5  1  1  0  0  0
 12 13  2  0  0  0  0
 13  8  1  0  0  0  0
 14 10  2  0  0  0  0
 16 20  1  0  0  0  0
 17 16  1  0  0  0  0
 17 15  1  1  0  0  0
 18 20  1  0  0  0  0
 19 17  1  0  0  0  0
 19 18  1  0  0  0  0
 22 20  1  0  0  0  0
 22 21  1  0  0  0  0
 23 24  1  0  0  0  0
 24 26  1  0  0  0  0
 25 27  1  0  0  0  0
 26 25  2  0  0  0  0
 27 28  1  0  0  0  0
 28 29  2  0  0  0  0
 30 28  1  0  0  0  0
 31 39  1  0  0  0  0
 32 39  1  0  0  0  0
 32 33  1  1  0  0  0
 33 40  1  0  0  0  0
 34 42  1  0  0  0  0
 34 37  1  0  0  0  0
 34 32  1  0  0  0  0
 36 40  1  0  0  0  0
 36 35  1  0  0  0  0
 37 36  1  0  0  0  0
 38 41  1  0  0  0  0
 38 30  1  0  0  0  0
 39 38  1  0  0  0  0
 40 35  1  0  0  0  0
 40 41  1  0  0  0  0
 42 37  1  0  0  0  0
 42 31  1  0  0  0  0
 44 43  1  0  0  0  0
 45 44  1  0  0  0  0
 46 45  1  0  0  0  0
 47 46  1  0  0  0  0
 48 49  1  0  0  0  0
 48 47  1  0  0  0  0
 50 54  1  0  0  0  0
 50 55  2  0  0  0  0
 51 49  1  0  0  0  0
 51 56  1  0  0  0  0
 53 56  1  0  0  0  0
 53 52  1  0  0  0  0
 53 58  1  0  0  0  0
 54 51  1  0  0  0  0
 55 53  1  0  0  0  0
 56 58  1  0  0  0  0
 57 55  1  0  0  0  0
 59 49  1  0  0  0  0
 60 59  1  0  0  0  0
 60 62  1  0  0  0  0
 62 61  1  0  0  0  0
M  END
>  <MODEL>
3

>  <REMARK>
 VINA RESULT:      -7.0      2.538      3.249
  Name = 
  24 active torsions:
  status: ('A' for Active; 'I' for Inactive)
    1  A    between atoms: C_3  and  C_46
    2  A    between atoms: S_4  and  C_15
    3  A    between atoms: S_4  and  C_36
    4  A    between atoms: C_5  and  O_37
    5  A    between atoms: C_5  and  C_59
    6  A    between atoms: C_6  and  C_51
    7  A    between atoms: C_9  and  C_48
    8  A    between atoms: N_13  and  N_25
    9  A    between atoms: N_13  and  C_26
   10  A    between atoms: O_16  and  C_32
   11  A    between atoms: O_16  and  C_48
   12  A    between atoms: C_21  and  C_26
   13  A    between atoms: C_21  and  C_32
   14  A    between atoms: N_24  and  C_29
   15  A    between atoms: N_25  and  C_46
   16  A    between atoms: N_27  and  C_34
   17  A    between atoms: N_27  and  C_46
   18  A    between atoms: C_28  and  O_37
   19  A    between atoms: C_29  and  C_50
   20  A    between atoms: C_34  and  C_62
   21  A    between atoms: C_38  and  N_47
   22  A    between atoms: C_48  and  C_50
   23  A    between atoms: C_49  and  C_59
   24  A    between atoms: C_52  and  N_58
                            x       y       z     vdW  Elec       q    Type
                         _______ _______ _______ _____ _____    ______ ____

>  <TORSDO>
F 24

$$$$
=
 OpenBabel10222416003D

 62 71  0  0  1  0  0  0  0  0999 V2000
  184.6490  178.9190  140.9600 C   0  0  1  0  0  3  0  0  0  0  0  0
  183.3230  179.3870  140.3530 C   0  0  2  0  0  3  0  0  0  0  0  0
  182.2680  178.6860  140.9670 O   0  0  0  0  0  0  0  0  0  0  0  0
  182.5240  178.3430  139.6280 C   0  0  2  0  0  3  0  0  0  0  0  0
  183.0850  176.1640  138.5450 C   0  0  0  0  0  3  0  0  0  0  0  0
  183.2230  177.0670  139.4630 N   0  0  0  0  0  0  0  0  0  0  0  0
  183.7390  177.3100  135.8360 O   0  0  0  0  0  1  0  0  0  0  0  0
  180.3000  178.3760  136.6860 C   0  0  0  0  0  0  0  0  0  0  0  0
  179.8710  177.4670  137.5100 N   0  0  0  0  0  0  0  0  0  0  0  0
  180.6950  176.3710  137.9230 C   0  0  0  0  0  0  0  0  0  0  0  0
  182.1090  176.2280  137.4060 C   0  0  1  0  0  3  0  0  0  0  0  0
  182.4920  177.3310  136.4480 C   0  0  0  0  0  0  0  0  0  0  0  0
  181.6500  178.3070  136.1260 C   0  0  0  0  0  3  0  0  0  0  0  0
  180.2170  175.4970  138.6950 O   0  0  0  0  0  0  0  0  0  0  0  0
  179.2580  179.7630  136.2290 S   0  0  0  0  0  0  0  0  0  0  0  0
  180.5690  182.0040  136.9080 N   0  0  0  0  0  2  0  0  0  0  0  0
  180.6140  180.9540  135.8980 C   0  0  2  0  0  3  0  0  0  0  0  0
  179.6270  182.8840  135.0050 C   0  0  0  0  0  2  0  0  0  0  0  0
  180.3970  181.6650  134.5950 C   0  0  0  0  0  2  0  0  0  0  0  0
  179.6320  182.9630  136.4660 N   0  0  0  0  0  0  0  0  0  0  0  0
  181.5520  184.1430  137.4430 C   0  0  0  0  0  1  0  0  0  0  0  0
  180.1580  184.2680  136.8440 C   0  0  0  0  0  2  0  0  0  0  0  0
  184.4160  178.0600  142.1260 N   0  0  0  0  0  2  0  0  0  0  0  0
  183.9570  178.9170  143.2200 C   0  0  0  0  0  2  0  0  0  0  0  0
  184.7710  179.4140  145.4050 C   0  0  0  0  0  3  0  0  0  0  0  0
  184.5300  178.4660  144.5150 C   0  0  0  0  0  3  0  0  0  0  0  0
  185.3400  179.1300  146.6490 O   0  0  0  0  0  0  0  0  0  0  0  0
  186.4280  178.2520  146.7320 C   0  0  0  0  0  0  0  0  0  0  0  0
  186.9760  178.0460  147.8530 O   0  0  0  0  0  0  0  0  0  0  0  0
  186.9280  177.5390  145.5070 C   0  0  0  0  0  2  0  0  0  0  0  0
  188.3700  176.2700  143.2600 C   0  0  0  0  0  2  0  0  0  0  0  0
  189.8800  178.1700  143.0140 C   0  0  1  0  0  3  0  0  0  0  0  0
  190.7880  178.7300  144.1640 C   0  0  0  0  0  2  0  0  0  0  0  0
  190.5540  176.8990  142.4040 C   0  0  1  0  0  3  0  0  0  0  0  0
  191.8150  176.7310  145.7550 O   0  0  0  0  0  0  0  0  0  0  0  0
  191.7590  176.8540  144.4030 C   0  0  1  0  0  3  0  0  0  0  0  0
  190.9810  175.8690  143.4980 C   0  0  1  0  0  3  0  0  0  0  0  0
  188.3380  177.9580  145.0540 C   0  0  2  0  0  3  0  0  0  0  0  0
  188.4870  177.7520  143.5360 C   0  0  2  0  0  3  0  0  0  0  0  0
  190.8420  177.6830  145.2960 C   0  0  2  0  0  0  0  0  0  0  0  0
  189.4600  177.1620  145.7370 C   0  0  0  0  0  2  0  0  0  0  0  0
  189.6740  175.7520  142.6780 C   0  0  1  0  0  3  0  0  0  0  0  0
  185.5440  178.2690  139.9900 N   0  0  0  0  0  2  0  0  0  0  0  0
  186.8710  178.6570  140.2250 N   0  0  0  0  0  2  0  0  0  0  0  0
  187.5990  178.3300  139.0130 C   0  0  0  0  0  2  0  0  0  0  0  0
  189.0160  177.8870  139.3430 C   0  0  0  0  0  2  0  0  0  0  0  0
  189.6850  177.4200  138.0680 C   0  0  0  0  0  2  0  0  0  0  0  0
  190.1730  176.1300  138.2870 O   0  0  0  0  0  0  0  0  0  0  0  0
  190.1770  175.5250  137.0240 C   0  0  1  0  0  3  0  0  0  0  0  0
  193.0800  173.1130  136.2180 C   0  0  0  0  0  3  0  0  0  0  0  0
  191.5860  175.0600  136.6480 C   0  0  2  0  0  3  0  0  0  0  0  0
  194.8090  175.1730  138.6160 O   0  0  0  0  0  1  0  0  0  0  0  0
  193.9970  175.0240  137.4890 C   0  0  1  0  0  0  0  0  0  0  0  0
  191.7010  173.5300  136.6370 C   0  0  0  0  0  2  0  0  0  0  0  0
  194.1590  173.7850  136.6440 C   0  0  0  0  0  0  0  0  0  0  0  0
  192.6220  175.6870  137.5930 C   0  0  1  0  0  3  0  0  0  0  0  0
  195.5150  173.3550  136.2110 C   0  0  0  0  0  1  0  0  0  0  0  0
  193.7380  176.3170  136.7520 C   0  0  0  0  0  2  0  0  0  0  0  0
  189.2190  174.3440  137.0350 C   0  0  0  0  0  2  0  0  0  0  0  0
  187.9420  174.6820  136.2920 C   0  0  0  0  0  2  0  0  0  0  0  0
  185.7010  174.7830  136.4490 O   0  0  0  0  0  1  0  0  0  0  0  0
  186.8120  174.6580  137.2080 N   0  0  0  0  0  2  0  0  0  0  0  0
  1 43  1  6  0  0  0
  1 23  1  0  0  0  0
  2  1  1  1  0  0  0
  2  3  1  0  0  0  0
  4  6  1  1  0  0  0
  4  2  1  0  0  0  0
  4  3  1  0  0  0  0
  5  6  2  0  0  0  0
  7 12  1  0  0  0  0
  8  9  2  0  0  0  0
  9 10  1  0  0  0  0
 10 14  2  0  0  0  0
 11 10  1  0  0  0  0
 11  5  1  1  0  0  0
 12 11  1  0  0  0  0
 13 12  2  0  0  0  0
 13  8  1  0  0  0  0
 15  8  1  0  0  0  0
 17 15  1  1  0  0  0
 17 16  1  0  0  0  0
 18 20  1  0  0  0  0
 19 18  1  0  0  0  0
 19 17  1  0  0  0  0
 20 22  1  0  0  0  0
 20 16  1  0  0  0  0
 22 21  1  0  0  0  0
 23 24  1  0  0  0  0
 24 26  1  0  0  0  0
 25 27  1  0  0  0  0
 26 25  2  0  0  0  0
 27 28  1  0  0  0  0
 28 29  2  0  0  0  0
 30 28  1  0  0  0  0
 31 39  1  0  0  0  0
 32 39  1  0  0  0  0
 32 33  1  1  0  0  0
 33 40  1  0  0  0  0
 34 42  1  0  0  0  0
 34 32  1  0  0  0  0
 34 37  1  0  0  0  0
 36 40  1  0  0  0  0
 36 35  1  0  0  0  0
 37 36  1  0  0  0  0
 38 30  1  0  0  0  0
 38 41  1  0  0  0  0
 39 38  1  0  0  0  0
 40 41  1  0  0  0  0
 40 35  1  0  0  0  0
 42 31  1  0  0  0  0
 42 37  1  0  0  0  0
 43 44  1  0  0  0  0
 45 46  1  0  0  0  0
 45 44  1  0  0  0  0
 47 48  1  0  0  0  0
 47 46  1  0  0  0  0
 49 59  1  0  0  0  0
 49 48  1  0  0  0  0
 50 54  1  0  0  0  0
 50 55  2  0  0  0  0
 51 49  1  0  0  0  0
 51 56  1  0  0  0  0
 53 56  1  0  0  0  0
 53 52  1  0  0  0  0
 54 51  1  0  0  0  0
 55 53  1  0  0  0  0
 57 55  1  0  0  0  0
 58 53  1  0  0  0  0
 58 56  1  0  0  0  0
 60 59  1  0  0  0  0
 60 62  1  0  0  0  0
 61 62  1  0  0  0  0
M  END
>  <MODEL>
4

>  <REMARK>
 VINA RESULT:      -7.0      3.162      9.595
  Name = 
  24 active torsions:
  status: ('A' for Active; 'I' for Inactive)
    1  A    between atoms: C_3  and  C_46
    2  A    between atoms: S_4  and  C_15
    3  A    between atoms: S_4  and  C_36
    4  A    between atoms: C_5  and  O_37
    5  A    between atoms: C_5  and  C_59
    6  A    between atoms: C_6  and  C_51
    7  A    between atoms: C_9  and  C_48
    8  A    between atoms: N_13  and  N_25
    9  A    between atoms: N_13  and  C_26
   10  A    between atoms: O_16  and  C_32
   11  A    between atoms: O_16  and  C_48
   12  A    between atoms: C_21  and  C_26
   13  A    between atoms: C_21  and  C_32
   14  A    between atoms: N_24  and  C_29
   15  A    between atoms: N_25  and  C_46
   16  A    between atoms: N_27  and  C_34
   17  A    between atoms: N_27  and  C_46
   18  A    between atoms: C_28  and  O_37
   19  A    between atoms: C_29  and  C_50
   20  A    between atoms: C_34  and  C_62
   21  A    between atoms: C_38  and  N_47
   22  A    between atoms: C_48  and  C_50
   23  A    between atoms: C_49  and  C_59
   24  A    between atoms: C_52  and  N_58
                            x       y       z     vdW  Elec       q    Type
                         _______ _______ _______ _____ _____    ______ ____

>  <TORSDO>
F 24

$$$$
=
 OpenBabel10222416003D

 62 71  0  0  1  0  0  0  0  0999 V2000
  189.3910  177.9660  138.7570 C   0  0  1  0  0  3  0  0  0  0  0  0
  189.2220  176.4450  138.8120 C   0  0  2  0  0  3  0  0  0  0  0  0
  190.4550  175.8600  139.1590 O   0  0  0  0  0  0  0  0  0  0  0  0
  190.0400  175.6540  137.8320 C   0  0  2  0  0  3  0  0  0  0  0  0
  190.7760  176.3820  135.5590 C   0  0  0  0  0  3  0  0  0  0  0  0
  190.7510  176.4760  136.8520 N   0  0  0  0  0  0  0  0  0  0  0  0
  187.9360  176.6630  134.5940 O   0  0  0  0  0  1  0  0  0  0  0  0
  188.3920  173.1560  135.6810 C   0  0  0  0  0  0  0  0  0  0  0  0
  189.6660  172.9370  135.5500 N   0  0  0  0  0  0  0  0  0  0  0  0
  190.5670  173.9550  135.1000 C   0  0  0  0  0  0  0  0  0  0  0  0
  190.0610  175.3370  134.7520 C   0  0  1  0  0  3  0  0  0  0  0  0
  188.5660  175.4700  134.9300 C   0  0  0  0  0  0  0  0  0  0  0  0
  187.8150  174.4600  135.3530 C   0  0  0  0  0  3  0  0  0  0  0  0
  191.7880  173.6790  134.9550 O   0  0  0  0  0  0  0  0  0  0  0  0
  187.3000  171.8720  136.2960 S   0  0  0  0  0  0  0  0  0  0  0  0
  184.7740  172.5910  136.8470 N   0  0  0  0  0  2  0  0  0  0  0  0
  185.7280  172.6420  135.7460 C   0  0  2  0  0  3  0  0  0  0  0  0
  184.1970  170.8990  135.4010 C   0  0  0  0  0  2  0  0  0  0  0  0
  185.0920  171.8380  134.6500 C   0  0  0  0  0  2  0  0  0  0  0  0
  184.1570  171.3220  136.8010 N   0  0  0  0  0  0  0  0  0  0  0  0
  182.1870  172.7540  136.4900 C   0  0  0  0  0  1  0  0  0  0  0  0
  182.7620  171.5210  137.1710 C   0  0  0  0  0  2  0  0  0  0  0  0
  188.4690  178.5600  137.7840 N   0  0  0  0  0  2  0  0  0  0  0  0
  187.1920  177.8560  137.8990 C   0  0  0  0  0  2  0  0  0  0  0  0
  185.3200  177.2620  136.5470 C   0  0  0  0  0  3  0  0  0  0  0  0
  186.3730  178.0510  136.6740 C   0  0  0  0  0  3  0  0  0  0  0  0
  184.4870  177.3180  135.4270 O   0  0  0  0  0  0  0  0  0  0  0  0
  183.3990  176.4420  135.3260 C   0  0  0  0  0  0  0  0  0  0  0  0
  183.5210  175.3740  134.6590 O   0  0  0  0  0  0  0  0  0  0  0  0
  182.1030  176.7520  136.0210 C   0  0  0  0  0  2  0  0  0  0  0  0
  179.9680  176.0230  137.9300 C   0  0  0  0  0  2  0  0  0  0  0  0
  181.5210  175.9580  139.8090 C   0  0  1  0  0  3  0  0  0  0  0  0
  182.4300  177.1600  140.2460 C   0  0  0  0  0  2  0  0  0  0  0  0
  180.0740  176.1890  140.3510 C   0  0  1  0  0  3  0  0  0  0  0  0
  181.1560  179.5860  139.9790 O   0  0  0  0  0  0  0  0  0  0  0  0
  180.7420  178.4180  140.5370 C   0  0  1  0  0  3  0  0  0  0  0  0
  179.5310  177.6130  140.0070 C   0  0  1  0  0  3  0  0  0  0  0  0
  182.2230  176.9370  137.5440 C   0  0  2  0  0  3  0  0  0  0  0  0
  181.4290  175.8380  138.2720 C   0  0  2  0  0  3  0  0  0  0  0  0
  181.9100  178.4380  139.5570 C   0  0  2  0  0  0  0  0  0  0  0  0
  181.6910  178.2900  138.0380 C   0  0  0  0  0  2  0  0  0  0  0  0
  179.1830  176.3460  139.1900 C   0  0  1  0  0  3  0  0  0  0  0  0
  189.2740  178.6190  140.0710 N   0  0  0  0  0  2  0  0  0  0  0  0
  189.1250  177.6540  141.0770 N   0  0  0  0  0  2  0  0  0  0  0  0
  189.8130  178.1840  142.2390 C   0  0  0  0  0  2  0  0  0  0  0  0
  191.0860  177.4000  142.5110 C   0  0  0  0  0  2  0  0  0  0  0  0
  191.5130  177.6540  143.9420 C   0  0  0  0  0  2  0  0  0  0  0  0
  190.8070  176.7730  144.7630 O   0  0  0  0  0  0  0  0  0  0  0  0
  190.4970  177.5160  145.9090 C   0  0  1  0  0  3  0  0  0  0  0  0
  186.6820  177.7340  145.3710 C   0  0  0  0  0  3  0  0  0  0  0  0
  189.0020  177.4280  146.2260 C   0  0  2  0  0  3  0  0  0  0  0  0
  186.8420  179.5660  148.4690 O   0  0  0  0  0  1  0  0  0  0  0  0
  187.1760  178.4630  147.6800 C   0  0  1  0  0  0  0  0  0  0  0  0
  188.1380  177.8790  145.0410 C   0  0  0  0  0  2  0  0  0  0  0  0
  186.2210  178.0410  146.5920 C   0  0  0  0  0  0  0  0  0  0  0  0
  188.6780  178.2380  147.4890 C   0  0  1  0  0  3  0  0  0  0  0  0
  184.7740  177.8820  146.8960 C   0  0  0  0  0  1  0  0  0  0  0  0
  187.8640  177.3560  148.4440 C   0  0  0  0  0  2  0  0  0  0  0  0
  191.3140  176.9900  147.0790 C   0  0  0  0  0  2  0  0  0  0  0  0
  191.9850  175.6790  146.7180 C   0  0  0  0  0  2  0  0  0  0  0  0
  193.1280  176.3390  148.5380 O   0  0  0  0  0  1  0  0  0  0  0  0
  192.8340  175.2370  147.8140 N   0  0  0  0  0  2  0  0  0  0  0  0
  1 23  1  6  0  0  0
  1 43  1  0  0  0  0
  2  1  1  6  0  0  0
  2  3  1  0  0  0  0
  4  6  1  6  0  0  0
  4  2  1  0  0  0  0
  4  3  1  0  0  0  0
  5  6  2  0  0  0  0
  7 12  1  0  0  0  0
  8 15  1  0  0  0  0
  9  8  2  0  0  0  0
 10  9  1  0  0  0  0
 11 12  1  0  0  0  0
 11 10  1  0  0  0  0
 11  5  1  1  0  0  0
 12 13  2  0  0  0  0
 13  8  1  0  0  0  0
 14 10  2  0  0  0  0
 17 15  1  1  0  0  0
 17 16  1  0  0  0  0
 18 20  1  0  0  0  0
 19 18  1  0  0  0  0
 19 17  1  0  0  0  0
 20 16  1  0  0  0  0
 20 22  1  0  0  0  0
 21 22  1  0  0  0  0
 23 24  1  0  0  0  0
 25 26  2  0  0  0  0
 26 24  1  0  0  0  0
 27 25  1  0  0  0  0
 28 27  1  0  0  0  0
 28 30  1  0  0  0  0
 29 28  2  0  0  0  0
 30 38  1  0  0  0  0
 31 39  1  0  0  0  0
 31 42  1  0  0  0  0
 32 33  1  6  0  0  0
 32 34  1  0  0  0  0
 35 36  1  0  0  0  0
 37 34  1  0  0  0  0
 37 36  1  0  0  0  0
 38 41  1  0  0  0  0
 38 39  1  0  0  0  0
 39 32  1  0  0  0  0
 40 35  1  0  0  0  0
 40 33  1  0  0  0  0
 40 36  1  0  0  0  0
 41 40  1  0  0  0  0
 42 37  1  0  0  0  0
 42 34  1  0  0  0  0
 43 44  1  0  0  0  0
 44 45  1  0  0  0  0
 45 46  1  0  0  0  0
 46 47  1  0  0  0  0
 47 48  1  0  0  0  0
 48 49  1  0  0  0  0
 49 51  1  0  0  0  0
 49 59  1  0  0  0  0
 50 55  2  0  0  0  0
 51 56  1  0  0  0  0
 53 58  1  0  0  0  0
 53 52  1  0  0  0  0
 54 50  1  0  0  0  0
 54 51  1  0  0  0  0
 55 57  1  0  0  0  0
 55 53  1  0  0  0  0
 56 53  1  0  0  0  0
 56 58  1  0  0  0  0
 60 59  1  0  0  0  0
 60 62  1  0  0  0  0
 62 61  1  0  0  0  0
M  END
>  <MODEL>
5

>  <REMARK>
 VINA RESULT:      -6.5      2.985      9.573
  Name = 
  24 active torsions:
  status: ('A' for Active; 'I' for Inactive)
    1  A    between atoms: C_3  and  C_46
    2  A    between atoms: S_4  and  C_15
    3  A    between atoms: S_4  and  C_36
    4  A    between atoms: C_5  and  O_37
    5  A    between atoms: C_5  and  C_59
    6  A    between atoms: C_6  and  C_51
    7  A    between atoms: C_9  and  C_48
    8  A    between atoms: N_13  and  N_25
    9  A    between atoms: N_13  and  C_26
   10  A    between atoms: O_16  and  C_32
   11  A    between atoms: O_16  and  C_48
   12  A    between atoms: C_21  and  C_26
   13  A    between atoms: C_21  and  C_32
   14  A    between atoms: N_24  and  C_29
   15  A    between atoms: N_25  and  C_46
   16  A    between atoms: N_27  and  C_34
   17  A    between atoms: N_27  and  C_46
   18  A    between atoms: C_28  and  O_37
   19  A    between atoms: C_29  and  C_50
   20  A    between atoms: C_34  and  C_62
   21  A    between atoms: C_38  and  N_47
   22  A    between atoms: C_48  and  C_50
   23  A    between atoms: C_49  and  C_59
   24  A    between atoms: C_52  and  N_58
                            x       y       z     vdW  Elec       q    Type
                         _______ _______ _______ _____ _____    ______ ____

>  <TORSDO>
F 24

$$$$
=
 OpenBabel10222416003D

 62 71  0  0  1  0  0  0  0  0999 V2000
  187.0080  177.6100  138.0320 C   0  0  1  0  0  3  0  0  0  0  0  0
  187.1310  177.5760  136.5060 C   0  0  2  0  0  3  0  0  0  0  0  0
  186.2880  176.5670  136.0020 O   0  0  0  0  0  0  0  0  0  0  0  0
  187.6660  176.3050  135.9140 C   0  0  2  0  0  3  0  0  0  0  0  0
  189.1130  174.4800  136.8150 C   0  0  0  0  0  3  0  0  0  0  0  0
  188.1550  175.3470  136.9080 N   0  0  0  0  0  0  0  0  0  0  0  0
  189.1960  171.8720  135.3080 O   0  0  0  0  0  1  0  0  0  0  0  0
  192.6510  173.1890  135.4270 C   0  0  0  0  0  0  0  0  0  0  0  0
  192.5050  174.4750  135.5530 N   0  0  0  0  0  0  0  0  0  0  0  0
  191.2130  175.0840  135.6470 C   0  0  0  0  0  0  0  0  0  0  0  0
  189.9560  174.2460  135.5950 C   0  0  1  0  0  3  0  0  0  0  0  0
  190.2480  172.7720  135.4340 C   0  0  0  0  0  0  0  0  0  0  0  0
  191.4880  172.3040  135.3540 C   0  0  0  0  0  3  0  0  0  0  0  0
  191.1280  176.3390  135.7300 O   0  0  0  0  0  0  0  0  0  0  0  0
  194.2860  172.4540  135.3640 S   0  0  0  0  0  0  0  0  0  0  0  0
  195.2540  173.8710  137.4270 N   0  0  0  0  0  2  0  0  0  0  0  0
  194.6470  172.5740  137.1600 C   0  0  2  0  0  3  0  0  0  0  0  0
  196.9670  172.3380  137.4080 C   0  0  0  0  0  2  0  0  0  0  0  0
  195.6880  171.5720  137.5650 C   0  0  0  0  0  2  0  0  0  0  0  0
  196.6370  173.7430  137.1680 N   0  0  0  0  0  0  0  0  0  0  0  0
  196.5980  174.4990  139.5040 C   0  0  0  0  0  1  0  0  0  0  0  0
  197.3280  174.5440  138.1690 C   0  0  0  0  0  2  0  0  0  0  0  0
  187.8570  178.6620  138.6010 N   0  0  0  0  0  2  0  0  0  0  0  0
  189.1510  178.0590  138.9230 C   0  0  0  0  0  2  0  0  0  0  0  0
  190.2140  176.7920  140.6410 C   0  0  0  0  0  3  0  0  0  0  0  0
  189.1070  177.4060  140.2580 C   0  0  0  0  0  3  0  0  0  0  0  0
  190.2970  176.1110  141.8570 O   0  0  0  0  0  0  0  0  0  0  0  0
  190.5390  176.8240  143.0380 C   0  0  0  0  0  0  0  0  0  0  0  0
  191.6700  176.7360  143.5960 O   0  0  0  0  0  0  0  0  0  0  0  0
  189.4740  177.7060  143.6280 C   0  0  0  0  0  2  0  0  0  0  0  0
  186.8830  178.5720  144.7560 C   0  0  0  0  0  2  0  0  0  0  0  0
  186.8030  176.6870  146.3020 C   0  0  1  0  0  3  0  0  0  0  0  0
  187.9180  176.3610  147.3560 C   0  0  0  0  0  2  0  0  0  0  0  0
  185.9000  177.8370  146.8520 C   0  0  1  0  0  3  0  0  0  0  0  0
  188.9940  178.6340  148.4760 O   0  0  0  0  0  0  0  0  0  0  0  0
  187.7020  178.2660  148.2730 C   0  0  1  0  0  3  0  0  0  0  0  0
  186.7350  179.0570  147.3590 C   0  0  1  0  0  3  0  0  0  0  0  0
  188.9400  177.2370  144.9930 C   0  0  2  0  0  3  0  0  0  0  0  0
  187.4030  177.1670  144.9620 C   0  0  2  0  0  3  0  0  0  0  0  0
  188.8300  177.5970  147.4960 C   0  0  2  0  0  0  0  0  0  0  0  0
  189.3330  178.1640  146.1530 C   0  0  0  0  0  2  0  0  0  0  0  0
  186.0670  178.9990  145.9640 C   0  0  1  0  0  3  0  0  0  0  0  0
  185.6220  177.7270  138.5100 N   0  0  0  0  0  2  0  0  0  0  0  0
  185.0250  178.8790  137.9780 N   0  0  0  0  0  2  0  0  0  0  0  0
  184.3770  179.5400  139.0940 C   0  0  0  0  0  2  0  0  0  0  0  0
  183.8940  178.5210  140.1130 C   0  0  0  0  0  2  0  0  0  0  0  0
  182.5660  178.9870  140.6710 C   0  0  0  0  0  2  0  0  0  0  0  0
  181.7110  179.2340  139.5950 O   0  0  0  0  0  0  0  0  0  0  0  0
  180.5350  178.5360  139.8990 C   0  0  1  0  0  3  0  0  0  0  0  0
  180.6340  174.7510  139.1530 C   0  0  0  0  0  3  0  0  0  0  0  0
  180.4510  177.2360  139.0970 C   0  0  2  0  0  3  0  0  0  0  0  0
  182.7540  175.8360  136.4500 O   0  0  0  0  0  1  0  0  0  0  0  0
  181.5870  175.9440  137.2100 C   0  0  1  0  0  0  0  0  0  0  0  0
  180.7730  176.0080  139.9600 C   0  0  0  0  0  2  0  0  0  0  0  0
  181.0470  174.7050  137.8780 C   0  0  0  0  0  0  0  0  0  0  0  0
  181.3710  177.3070  137.8700 C   0  0  1  0  0  3  0  0  0  0  0  0
  180.8930  173.4480  137.0970 C   0  0  0  0  0  1  0  0  0  0  0  0
  180.5700  176.8980  136.6290 C   0  0  0  0  0  2  0  0  0  0  0  0
  180.5050  178.2380  141.3900 C   0  0  0  0  0  2  0  0  0  0  0  0
  179.1750  178.6460  141.9920 C   0  0  0  0  0  2  0  0  0  0  0  0
  180.3030  180.5370  142.4450 O   0  0  0  0  0  1  0  0  0  0  0  0
  179.3750  179.7050  142.9680 N   0  0  0  0  0  2  0  0  0  0  0  0
  1 43  1  6  0  0  0
  1 23  1  0  0  0  0
  2  1  1  1  0  0  0
  3  2  1  0  0  0  0
  4  3  1  0  0  0  0
  4  2  1  0  0  0  0
  4  6  1  1  0  0  0
  5  6  2  0  0  0  0
  7 12  1  0  0  0  0
  8  9  2  0  0  0  0
  9 10  1  0  0  0  0
 10 14  2  0  0  0  0
 11 10  1  0  0  0  0
 11  5  1  1  0  0  0
 12 11  1  0  0  0  0
 13  8  1  0  0  0  0
 13 12  2  0  0  0  0
 15  8  1  0  0  0  0
 17 15  1  6  0  0  0
 17 16  1  0  0  0  0
 17 19  1  0  0  0  0
 18 19  1  0  0  0  0
 20 18  1  0  0  0  0
 20 16  1  0  0  0  0
 20 22  1  0  0  0  0
 22 21  1  0  0  0  0
 23 24  1  0  0  0  0
 24 26  1  0  0  0  0
 25 27  1  0  0  0  0
 26 25  2  0  0  0  0
 27 28  1  0  0  0  0
 28 29  2  0  0  0  0
 28 30  1  0  0  0  0
 30 38  1  0  0  0  0
 31 39  1  0  0  0  0
 31 42  1  0  0  0  0
 32 34  1  0  0  0  0
 32 33  1  1  0  0  0
 33 40  1  0  0  0  0
 34 37  1  0  0  0  0
 36 35  1  0  0  0  0
 37 36  1  0  0  0  0
 38 41  1  0  0  0  0
 39 38  1  0  0  0  0
 39 32  1  0  0  0  0
 40 36  1  0  0  0  0
 40 35  1  0  0  0  0
 41 40  1  0  0  0  0
 42 34  1  0  0  0  0
 42 37  1  0  0  0  0
 44 43  1  0  0  0  0
 44 45  1  0  0  0  0
 45 46  1  0  0  0  0
 46 47  1  0  0  0  0
 48 49  1  0  0  0  0
 48 47  1  0  0  0  0
 49 59  1  0  0  0  0
 50 54  1  0  0  0  0
 51 49  1  0  0  0  0
 51 54  1  0  0  0  0
 52 53  1  0  0  0  0
 53 56  1  0  0  0  0
 53 55  1  0  0  0  0
 55 50  2  0  0  0  0
 56 51  1  0  0  0  0
 57 55  1  0  0  0  0
 58 53  1  0  0  0  0
 58 56  1  0  0  0  0
 59 60  1  0  0  0  0
 60 62  1  0  0  0  0
 61 62  1  0  0  0  0
M  END
>  <MODEL>
6

>  <REMARK>
 VINA RESULT:      -6.3      2.286      4.266
  Name = 
  24 active torsions:
  status: ('A' for Active; 'I' for Inactive)
    1  A    between atoms: C_3  and  C_46
    2  A    between atoms: S_4  and  C_15
    3  A    between atoms: S_4  and  C_36
    4  A    between atoms: C_5  and  O_37
    5  A    between atoms: C_5  and  C_59
    6  A    between atoms: C_6  and  C_51
    7  A    between atoms: C_9  and  C_48
    8  A    between atoms: N_13  and  N_25
    9  A    between atoms: N_13  and  C_26
   10  A    between atoms: O_16  and  C_32
   11  A    between atoms: O_16  and  C_48
   12  A    between atoms: C_21  and  C_26
   13  A    between atoms: C_21  and  C_32
   14  A    between atoms: N_24  and  C_29
   15  A    between atoms: N_25  and  C_46
   16  A    between atoms: N_27  and  C_34
   17  A    between atoms: N_27  and  C_46
   18  A    between atoms: C_28  and  O_37
   19  A    between atoms: C_29  and  C_50
   20  A    between atoms: C_34  and  C_62
   21  A    between atoms: C_38  and  N_47
   22  A    between atoms: C_48  and  C_50
   23  A    between atoms: C_49  and  C_59
   24  A    between atoms: C_52  and  N_58
                            x       y       z     vdW  Elec       q    Type
                         _______ _______ _______ _____ _____    ______ ____

>  <TORSDO>
F 24

$$$$
=
 OpenBabel10222416003D

 62 71  0  0  1  0  0  0  0  0999 V2000
  186.8930  178.2730  137.7340 C   0  0  1  0  0  3  0  0  0  0  0  0
  188.0880  178.8650  136.9810 C   0  0  2  0  0  3  0  0  0  0  0  0
  188.3530  178.0710  135.8490 O   0  0  0  0  0  0  0  0  0  0  0  0
  189.3040  177.9900  136.8810 C   0  0  2  0  0  3  0  0  0  0  0  0
  189.8240  175.6280  137.5030 C   0  0  0  0  0  3  0  0  0  0  0  0
  189.2200  176.7620  137.6730 N   0  0  0  0  0  0  0  0  0  0  0  0
  189.1190  173.8740  135.1570 O   0  0  0  0  0  1  0  0  0  0  0  0
  192.5960  173.0700  136.1320 C   0  0  0  0  0  0  0  0  0  0  0  0
  193.0310  174.1510  136.7080 N   0  0  0  0  0  0  0  0  0  0  0  0
  192.2000  175.3050  136.8790 C   0  0  0  0  0  0  0  0  0  0  0  0
  190.7720  175.3090  136.3830 C   0  0  1  0  0  3  0  0  0  0  0  0
  190.3820  174.0090  135.7210 C   0  0  0  0  0  0  0  0  0  0  0  0
  191.2310  172.9930  135.6110 C   0  0  0  0  0  3  0  0  0  0  0  0
  192.6840  176.3400  137.4110 O   0  0  0  0  0  0  0  0  0  0  0  0
  193.6480  171.6250  135.9810 S   0  0  0  0  0  0  0  0  0  0  0  0
  196.1200  172.5970  136.3610 N   0  0  0  0  0  2  0  0  0  0  0  0
  194.9570  172.1880  137.1380 C   0  0  2  0  0  3  0  0  0  0  0  0
  196.5910  170.5060  137.1930 C   0  0  0  0  0  2  0  0  0  0  0  0
  195.4440  171.0530  137.9890 C   0  0  0  0  0  2  0  0  0  0  0  0
  196.8710  171.4320  136.0950 N   0  0  0  0  0  0  0  0  0  0  0  0
  198.4730  173.2640  135.7700 C   0  0  0  0  0  1  0  0  0  0  0  0
  198.2760  171.8100  136.1740 C   0  0  0  0  0  2  0  0  0  0  0  0
  186.5680  176.9350  137.2290 N   0  0  0  0  0  2  0  0  0  0  0  0
  185.2660  177.0180  136.5680 C   0  0  0  0  0  2  0  0  0  0  0  0
  183.3150  175.6730  136.2960 C   0  0  0  0  0  3  0  0  0  0  0  0
  184.3590  175.9470  137.0600 C   0  0  0  0  0  3  0  0  0  0  0  0
  182.3680  174.7130  136.6590 O   0  0  0  0  0  0  0  0  0  0  0  0
  181.1030  175.1170  137.1030 C   0  0  0  0  0  0  0  0  0  0  0  0
  180.2500  175.5240  136.2630 O   0  0  0  0  0  0  0  0  0  0  0  0
  180.7490  175.0490  138.5620 C   0  0  0  0  0  2  0  0  0  0  0  0
  182.2850  177.3580  139.5850 C   0  0  0  0  0  2  0  0  0  0  0  0
  180.3800  178.8640  139.3550 C   0  0  1  0  0  3  0  0  0  0  0  0
  178.9840  178.6320  140.0330 C   0  0  0  0  0  2  0  0  0  0  0  0
  181.3700  179.4510  140.4120 C   0  0  1  0  0  3  0  0  0  0  0  0
  179.2120  177.5550  142.5560 O   0  0  0  0  0  0  0  0  0  0  0  0
  179.8560  178.5990  141.9710 C   0  0  1  0  0  3  0  0  0  0  0  0
  181.3860  178.6220  141.7360 C   0  0  1  0  0  3  0  0  0  0  0  0
  180.0970  176.3240  139.1230 C   0  0  2  0  0  3  0  0  0  0  0  0
  180.9880  177.5440  138.8300 C   0  0  2  0  0  3  0  0  0  0  0  0
  179.1450  177.5510  141.1210 C   0  0  2  0  0  0  0  0  0  0  0  0
  179.8680  176.2770  140.6410 C   0  0  0  0  0  2  0  0  0  0  0  0
  182.4420  178.4630  140.6160 C   0  0  1  0  0  3  0  0  0  0  0  0
  187.0630  178.2650  139.1950 N   0  0  0  0  0  2  0  0  0  0  0  0
  185.8140  178.3660  139.8250 N   0  0  0  0  0  2  0  0  0  0  0  0
  186.0110  179.2530  140.9560 C   0  0  0  0  0  2  0  0  0  0  0  0
  185.3420  178.6910  142.2000 C   0  0  0  0  0  2  0  0  0  0  0  0
  186.3900  177.9840  143.0340 C   0  0  0  0  0  2  0  0  0  0  0  0
  185.8060  177.6420  144.2550 O   0  0  0  0  0  0  0  0  0  0  0  0
  186.8580  177.1360  145.0300 C   0  0  1  0  0  3  0  0  0  0  0  0
  189.7150  176.1920  142.6130 C   0  0  0  0  0  3  0  0  0  0  0  0
  188.1870  177.2420  144.2780 C   0  0  2  0  0  3  0  0  0  0  0  0
  191.7380  176.8780  145.5150 O   0  0  0  0  0  1  0  0  0  0  0  0
  190.7160  177.2210  144.6250 C   0  0  1  0  0  0  0  0  0  0  0  0
  188.4290  176.0300  143.3680 C   0  0  0  0  0  2  0  0  0  0  0  0
  190.7980  176.7140  143.2070 C   0  0  0  0  0  0  0  0  0  0  0  0
  189.3450  177.4310  145.2690 C   0  0  1  0  0  3  0  0  0  0  0  0
  192.0600  176.8690  142.4350 C   0  0  0  0  0  1  0  0  0  0  0  0
  190.1920  178.6240  144.8130 C   0  0  0  0  0  2  0  0  0  0  0  0
  186.9290  177.9110  146.3370 C   0  0  0  0  0  2  0  0  0  0  0  0
  185.9540  179.0710  146.3270 C   0  0  0  0  0  2  0  0  0  0  0  0
  183.7800  179.3330  145.8190 O   0  0  0  0  0  1  0  0  0  0  0  0
  184.6060  178.5890  146.5870 N   0  0  0  0  0  2  0  0  0  0  0  0
  1 23  1  6  0  0  0
  1 43  1  0  0  0  0
  2  1  1  1  0  0  0
  3  4  1  0  0  0  0
  3  2  1  0  0  0  0
  4  2  1  0  0  0  0
  4  6  1  1  0  0  0
  5  6  2  0  0  0  0
  7 12  1  0  0  0  0
  8  9  2  0  0  0  0
  9 10  1  0  0  0  0
 10 14  2  0  0  0  0
 11 10  1  0  0  0  0
 11  5  1  1  0  0  0
 12 11  1  0  0  0  0
 13 12  2  0  0  0  0
 13  8  1  0  0  0  0
 15  8  1  0  0  0  0
 16 17  1  0  0  0  0
 17 15  1  6  0  0  0
 17 19  1  0  0  0  0
 18 19  1  0  0  0  0
 20 22  1  0  0  0  0
 20 16  1  0  0  0  0
 20 18  1  0  0  0  0
 21 22  1  0  0  0  0
 24 26  1  0  0  0  0
 24 23  1  0  0  0  0
 25 27  1  0  0  0  0
 25 26  2  0  0  0  0
 27 28  1  0  0  0  0
 28 30  1  0  0  0  0
 29 28  2  0  0  0  0
 30 38  1  0  0  0  0
 31 42  1  0  0  0  0
 32 33  1  1  0  0  0
 32 34  1  0  0  0  0
 33 40  1  0  0  0  0
 34 42  1  0  0  0  0
 34 37  1  0  0  0  0
 36 35  1  0  0  0  0
 37 36  1  0  0  0  0
 38 41  1  0  0  0  0
 39 38  1  0  0  0  0
 39 32  1  0  0  0  0
 39 31  1  0  0  0  0
 40 36  1  0  0  0  0
 40 35  1  0  0  0  0
 41 40  1  0  0  0  0
 42 37  1  0  0  0  0
 43 44  1  0  0  0  0
 44 45  1  0  0  0  0
 45 46  1  0  0  0  0
 46 47  1  0  0  0  0
 47 48  1  0  0  0  0
 48 49  1  0  0  0  0
 49 59  1  0  0  0  0
 50 55  2  0  0  0  0
 50 54  1  0  0  0  0
 51 49  1  0  0  0  0
 51 56  1  0  0  0  0
 53 58  1  0  0  0  0
 53 56  1  0  0  0  0
 53 52  1  0  0  0  0
 54 51  1  0  0  0  0
 55 53  1  0  0  0  0
 57 55  1  0  0  0  0
 58 56  1  0  0  0  0
 60 59  1  0  0  0  0
 60 62  1  0  0  0  0
 61 62  1  0  0  0  0
M  END
>  <MODEL>
7

>  <REMARK>
 VINA RESULT:      -6.3      2.080      7.966
  Name = 
  24 active torsions:
  status: ('A' for Active; 'I' for Inactive)
    1  A    between atoms: C_3  and  C_46
    2  A    between atoms: S_4  and  C_15
    3  A    between atoms: S_4  and  C_36
    4  A    between atoms: C_5  and  O_37
    5  A    between atoms: C_5  and  C_59
    6  A    between atoms: C_6  and  C_51
    7  A    between atoms: C_9  and  C_48
    8  A    between atoms: N_13  and  N_25
    9  A    between atoms: N_13  and  C_26
   10  A    between atoms: O_16  and  C_32
   11  A    between atoms: O_16  and  C_48
   12  A    between atoms: C_21  and  C_26
   13  A    between atoms: C_21  and  C_32
   14  A    between atoms: N_24  and  C_29
   15  A    between atoms: N_25  and  C_46
   16  A    between atoms: N_27  and  C_34
   17  A    between atoms: N_27  and  C_46
   18  A    between atoms: C_28  and  O_37
   19  A    between atoms: C_29  and  C_50
   20  A    between atoms: C_34  and  C_62
   21  A    between atoms: C_38  and  N_47
   22  A    between atoms: C_48  and  C_50
   23  A    between atoms: C_49  and  C_59
   24  A    between atoms: C_52  and  N_58
                            x       y       z     vdW  Elec       q    Type
                         _______ _______ _______ _____ _____    ______ ____

>  <TORSDO>
F 24

$$$$
=
 OpenBabel10222416003D

 62 71  0  0  1  0  0  0  0  0999 V2000
  190.2410  177.3370  141.1650 C   0  0  1  0  0  3  0  0  0  0  0  0
  190.2570  176.1360  142.1150 C   0  0  2  0  0  3  0  0  0  0  0  0
  188.9330  175.8190  142.4720 O   0  0  0  0  0  0  0  0  0  0  0  0
  189.7180  176.3790  143.4950 C   0  0  2  0  0  3  0  0  0  0  0  0
  188.2700  178.3560  143.9760 C   0  0  0  0  0  3  0  0  0  0  0  0
  189.4150  177.7830  143.7760 N   0  0  0  0  0  0  0  0  0  0  0  0
  186.5210  178.2250  141.5260 O   0  0  0  0  0  1  0  0  0  0  0  0
  184.3050  178.7740  144.4380 C   0  0  0  0  0  0  0  0  0  0  0  0
  184.9630  178.2830  145.4450 N   0  0  0  0  0  0  0  0  0  0  0  0
  186.2700  177.7170  145.2930 C   0  0  0  0  0  0  0  0  0  0  0  0
  186.9370  177.6660  143.9370 C   0  0  1  0  0  3  0  0  0  0  0  0
  186.0760  178.2520  142.8430 C   0  0  0  0  0  0  0  0  0  0  0  0
  184.8700  178.7530  143.0890 C   0  0  0  0  0  3  0  0  0  0  0  0
  186.8480  177.2200  146.2970 O   0  0  0  0  0  0  0  0  0  0  0  0
  182.6910  179.5210  144.6740 S   0  0  0  0  0  0  0  0  0  0  0  0
  181.6780  179.0570  142.2330 N   0  0  0  0  0  2  0  0  0  0  0  0
  181.7710  178.4130  143.5370 C   0  0  2  0  0  3  0  0  0  0  0  0
  179.6370  179.3450  143.2530 C   0  0  0  0  0  2  0  0  0  0  0  0
  180.3490  178.2470  143.9860 C   0  0  0  0  0  2  0  0  0  0  0  0
  180.5630  179.9220  142.2770 N   0  0  0  0  0  0  0  0  0  0  0  0
  179.3640  181.2130  140.5670 C   0  0  0  0  0  1  0  0  0  0  0  0
  179.9300  179.8580  140.9660 C   0  0  0  0  0  2  0  0  0  0  0  0
  191.5670  177.5550  140.5750 N   0  0  0  0  0  2  0  0  0  0  0  0
  191.7050  176.6320  139.4490 C   0  0  0  0  0  2  0  0  0  0  0  0
  193.1490  176.3960  137.5650 C   0  0  0  0  0  3  0  0  0  0  0  0
  193.0540  176.7550  138.8340 C   0  0  0  0  0  3  0  0  0  0  0  0
  194.3640  176.4310  136.8780 O   0  0  0  0  0  0  0  0  0  0  0  0
  194.3910  176.1780  135.5000 C   0  0  0  0  0  0  0  0  0  0  0  0
  194.0780  177.0990  134.6930 O   0  0  0  0  0  0  0  0  0  0  0  0
  194.8110  174.8320  134.9810 C   0  0  0  0  0  2  0  0  0  0  0  0
  197.2600  173.1960  135.2430 C   0  0  0  0  0  2  0  0  0  0  0  0
  196.7550  172.6190  137.5590 C   0  0  1  0  0  3  0  0  0  0  0  0
  195.4290  171.9230  138.0270 C   0  0  0  0  0  2  0  0  0  0  0  0
  197.7160  171.5410  136.9610 C   0  0  1  0  0  3  0  0  0  0  0  0
  194.5450  170.0380  136.2250 O   0  0  0  0  0  0  0  0  0  0  0  0
  195.7770  170.2550  136.7560 C   0  0  1  0  0  3  0  0  0  0  0  0
  197.0080  170.6390  135.8990 C   0  0  1  0  0  3  0  0  0  0  0  0
  195.0070  173.7590  136.0670 C   0  0  2  0  0  3  0  0  0  0  0  0
  196.4930  173.6700  136.4570 C   0  0  2  0  0  3  0  0  0  0  0  0
  194.7170  171.3500  136.7850 C   0  0  2  0  0  0  0  0  0  0  0  0
  194.5640  172.3560  135.6270 C   0  0  0  0  0  2  0  0  0  0  0  0
  197.9000  171.8500  135.5340 C   0  0  1  0  0  3  0  0  0  0  0  0
  189.2030  177.2530  140.1260 N   0  0  0  0  0  2  0  0  0  0  0  0
  188.9480  178.5260  139.5970 N   0  0  0  0  0  2  0  0  0  0  0  0
  188.7030  178.3250  138.1810 C   0  0  0  0  0  2  0  0  0  0  0  0
  187.3450  177.6800  137.9590 C   0  0  0  0  0  2  0  0  0  0  0  0
  186.9330  177.9050  136.5190 C   0  0  0  0  0  2  0  0  0  0  0  0
  186.1290  176.8320  136.1300 O   0  0  0  0  0  0  0  0  0  0  0  0
  186.8720  175.6880  136.4520 C   0  0  1  0  0  3  0  0  0  0  0  0
  185.3620  172.1470  136.1790 C   0  0  0  0  0  3  0  0  0  0  0  0
  185.9480  174.5030  136.7410 C   0  0  2  0  0  3  0  0  0  0  0  0
  182.2840  174.0070  135.9690 O   0  0  0  0  0  1  0  0  0  0  0  0
  183.5170  173.7430  136.5710 C   0  0  1  0  0  0  0  0  0  0  0  0
  186.2530  173.3030  135.8340 C   0  0  0  0  0  2  0  0  0  0  0  0
  184.0720  172.3440  136.4870 C   0  0  0  0  0  0  0  0  0  0  0  0
  184.4790  174.9320  136.6170 C   0  0  1  0  0  3  0  0  0  0  0  0
  183.2100  171.1820  136.8310 C   0  0  0  0  0  1  0  0  0  0  0  0
  183.7260  174.4790  137.8730 C   0  0  0  0  0  2  0  0  0  0  0  0
  187.8040  175.3600  135.2960 C   0  0  0  0  0  2  0  0  0  0  0  0
  189.2120  175.1060  135.7970 C   0  0  0  0  0  2  0  0  0  0  0  0
  190.9170  175.9420  134.5940 O   0  0  0  0  0  1  0  0  0  0  0  0
  190.0410  176.2790  135.5660 N   0  0  0  0  0  2  0  0  0  0  0  0
  1 43  1  6  0  0  0
  2  1  1  6  0  0  0
  2  3  1  0  0  0  0
  2  4  1  0  0  0  0
  3  4  1  0  0  0  0
  4  6  1  6  0  0  0
  6  5  2  0  0  0  0
  7 12  1  0  0  0  0
  8 15  1  0  0  0  0
  8  9  2  0  0  0  0
 10  9  1  0  0  0  0
 10 14  2  0  0  0  0
 11  5  1  1  0  0  0
 11 10  1  0  0  0  0
 12 13  2  0  0  0  0
 12 11  1  0  0  0  0
 13  8  1  0  0  0  0
 16 20  1  0  0  0  0
 16 17  1  0  0  0  0
 17 19  1  0  0  0  0
 17 15  1  1  0  0  0
 18 19  1  0  0  0  0
 20 18  1  0  0  0  0
 21 22  1  0  0  0  0
 22 20  1  0  0  0  0
 23  1  1  0  0  0  0
 24 23  1  0  0  0  0
 25 26  2  0  0  0  0
 26 24  1  0  0  0  0
 27 25  1  0  0  0  0
 28 27  1  0  0  0  0
 29 28  2  0  0  0  0
 30 28  1  0  0  0  0
 30 38  1  0  0  0  0
 31 42  1  0  0  0  0
 31 39  1  0  0  0  0
 32 33  1  6  0  0  0
 34 32  1  0  0  0  0
 35 36  1  0  0  0  0
 35 40  1  0  0  0  0
 36 40  1  0  0  0  0
 37 36  1  0  0  0  0
 37 34  1  0  0  0  0
 38 39  1  0  0  0  0
 39 32  1  0  0  0  0
 40 33  1  0  0  0  0
 41 38  1  0  0  0  0
 41 40  1  0  0  0  0
 42 37  1  0  0  0  0
 42 34  1  0  0  0  0
 44 43  1  0  0  0  0
 45 44  1  0  0  0  0
 46 45  1  0  0  0  0
 47 46  1  0  0  0  0
 48 49  1  0  0  0  0
 48 47  1  0  0  0  0
 49 51  1  0  0  0  0
 50 55  2  0  0  0  0
 52 53  1  0  0  0  0
 53 56  1  0  0  0  0
 53 58  1  0  0  0  0
 54 50  1  0  0  0  0
 54 51  1  0  0  0  0
 55 53  1  0  0  0  0
 55 57  1  0  0  0  0
 56 51  1  0  0  0  0
 56 58  1  0  0  0  0
 59 60  1  0  0  0  0
 59 49  1  0  0  0  0
 61 62  1  0  0  0  0
 62 60  1  0  0  0  0
M  END
>  <MODEL>
8

>  <REMARK>
 VINA RESULT:      -6.1      3.342     10.703
  Name = 
  24 active torsions:
  status: ('A' for Active; 'I' for Inactive)
    1  A    between atoms: C_3  and  C_46
    2  A    between atoms: S_4  and  C_15
    3  A    between atoms: S_4  and  C_36
    4  A    between atoms: C_5  and  O_37
    5  A    between atoms: C_5  and  C_59
    6  A    between atoms: C_6  and  C_51
    7  A    between atoms: C_9  and  C_48
    8  A    between atoms: N_13  and  N_25
    9  A    between atoms: N_13  and  C_26
   10  A    between atoms: O_16  and  C_32
   11  A    between atoms: O_16  and  C_48
   12  A    between atoms: C_21  and  C_26
   13  A    between atoms: C_21  and  C_32
   14  A    between atoms: N_24  and  C_29
   15  A    between atoms: N_25  and  C_46
   16  A    between atoms: N_27  and  C_34
   17  A    between atoms: N_27  and  C_46
   18  A    between atoms: C_28  and  O_37
   19  A    between atoms: C_29  and  C_50
   20  A    between atoms: C_34  and  C_62
   21  A    between atoms: C_38  and  N_47
   22  A    between atoms: C_48  and  C_50
   23  A    between atoms: C_49  and  C_59
   24  A    between atoms: C_52  and  N_58
                            x       y       z     vdW  Elec       q    Type
                         _______ _______ _______ _____ _____    ______ ____

>  <TORSDO>
F 24

$$$$
=
 OpenBabel10222416003D

 62 71  0  0  1  0  0  0  0  0999 V2000
  186.6850  177.6890  137.8280 C   0  0  1  0  0  3  0  0  0  0  0  0
  186.7020  177.5710  136.3020 C   0  0  2  0  0  3  0  0  0  0  0  0
  185.7810  176.5800  135.9100 O   0  0  0  0  0  0  0  0  0  0  0  0
  187.1370  176.2450  135.7470 C   0  0  2  0  0  3  0  0  0  0  0  0
  188.6910  174.5510  136.7220 C   0  0  0  0  0  3  0  0  0  0  0  0
  187.6460  175.3160  136.7570 N   0  0  0  0  0  0  0  0  0  0  0  0
  188.5840  172.3300  134.6870 O   0  0  0  0  0  1  0  0  0  0  0  0
  192.1510  172.9900  135.4170 C   0  0  0  0  0  0  0  0  0  0  0  0
  192.1790  174.2290  135.8110 N   0  0  0  0  0  0  0  0  0  0  0  0
  190.9880  175.0160  135.9170 C   0  0  0  0  0  0  0  0  0  0  0  0
  189.6390  174.4310  135.5630 C   0  0  1  0  0  3  0  0  0  0  0  0
  189.7310  172.9950  135.1070 C   0  0  0  0  0  0  0  0  0  0  0  0
  190.8910  172.3490  135.0420 C   0  0  0  0  0  3  0  0  0  0  0  0
  191.0770  176.2240  136.2680 O   0  0  0  0  0  0  0  0  0  0  0  0
  193.6560  172.0170  135.3450 S   0  0  0  0  0  0  0  0  0  0  0  0
  195.3200  173.8240  136.4250 N   0  0  0  0  0  2  0  0  0  0  0  0
  194.4480  172.7310  136.8380 C   0  0  2  0  0  3  0  0  0  0  0  0
  196.6820  172.0180  136.8340 C   0  0  0  0  0  2  0  0  0  0  0  0
  195.3630  171.7350  137.4880 C   0  0  0  0  0  2  0  0  0  0  0  0
  196.5560  173.2510  136.0560 N   0  0  0  0  0  0  0  0  0  0  0  0
  197.5270  175.4830  135.7320 C   0  0  0  0  0  1  0  0  0  0  0  0
  197.5950  174.1710  136.5000 C   0  0  0  0  0  2  0  0  0  0  0  0
  187.6230  178.7210  138.2830 N   0  0  0  0  0  2  0  0  0  0  0  0
  188.8860  178.0580  138.6050 C   0  0  0  0  0  2  0  0  0  0  0  0
  189.9470  176.8890  140.3920 C   0  0  0  0  0  3  0  0  0  0  0  0
  188.8360  177.4670  139.9680 C   0  0  0  0  0  3  0  0  0  0  0  0
  190.0240  176.2660  141.6400 O   0  0  0  0  0  0  0  0  0  0  0  0
  190.4910  176.9840  142.7480 C   0  0  0  0  0  0  0  0  0  0  0  0
  191.6940  176.8520  143.1130 O   0  0  0  0  0  0  0  0  0  0  0  0
  189.5800  177.9250  143.4860 C   0  0  0  0  0  2  0  0  0  0  0  0
  186.9240  178.5960  144.5970 C   0  0  0  0  0  2  0  0  0  0  0  0
  186.9430  176.6680  146.0920 C   0  0  1  0  0  3  0  0  0  0  0  0
  188.0630  176.3840  147.1530 C   0  0  0  0  0  2  0  0  0  0  0  0
  185.9620  177.7440  146.6580 C   0  0  1  0  0  3  0  0  0  0  0  0
  188.9790  178.6880  148.3490 O   0  0  0  0  0  0  0  0  0  0  0  0
  187.7150  178.2460  148.1170 C   0  0  1  0  0  3  0  0  0  0  0  0
  186.7120  178.9990  147.2100 C   0  0  1  0  0  3  0  0  0  0  0  0
  189.0580  177.3870  144.8300 C   0  0  2  0  0  3  0  0  0  0  0  0
  187.5290  177.2210  144.7740 C   0  0  2  0  0  3  0  0  0  0  0  0
  188.8930  177.6700  147.3390 C   0  0  2  0  0  0  0  0  0  0  0  0
  189.3760  178.3040  146.0200 C   0  0  0  0  0  2  0  0  0  0  0  0
  186.0670  178.9380  145.8040 C   0  0  1  0  0  3  0  0  0  0  0  0
  185.3420  177.9050  138.3880 N   0  0  0  0  0  2  0  0  0  0  0  0
  185.3430  179.0330  139.2190 N   0  0  0  0  0  2  0  0  0  0  0  0
  184.3640  178.7620  140.2560 C   0  0  0  0  0  2  0  0  0  0  0  0
  183.4870  177.5820  139.8680 C   0  0  0  0  0  2  0  0  0  0  0  0
  182.0670  177.8710  140.3070 C   0  0  0  0  0  2  0  0  0  0  0  0
  181.8000  179.2150  140.0380 O   0  0  0  0  0  0  0  0  0  0  0  0
  180.8620  179.1960  138.9970 C   0  0  1  0  0  3  0  0  0  0  0  0
  181.1660  182.8430  137.7690 C   0  0  0  0  0  3  0  0  0  0  0  0
  181.0920  180.3660  138.0370 C   0  0  2  0  0  3  0  0  0  0  0  0
  178.9860  181.6320  135.1680 O   0  0  0  0  0  1  0  0  0  0  0  0
  180.1240  181.5080  135.9690 C   0  0  1  0  0  0  0  0  0  0  0  0
  180.8850  181.7220  138.7260 C   0  0  0  0  0  2  0  0  0  0  0  0
  180.7790  182.7630  136.4880 C   0  0  0  0  0  0  0  0  0  0  0  0
  180.1880  180.2280  136.8040 C   0  0  1  0  0  3  0  0  0  0  0  0
  181.0730  183.8860  135.5570 C   0  0  0  0  0  1  0  0  0  0  0  0
  181.0460  180.3900  135.5440 C   0  0  0  0  0  2  0  0  0  0  0  0
  180.9730  177.8750  138.2520 C   0  0  0  0  0  2  0  0  0  0  0  0
  179.7760  176.9920  138.5450 C   0  0  0  0  0  2  0  0  0  0  0  0
  179.6090  177.0620  136.3040 O   0  0  0  0  0  1  0  0  0  0  0  0
  179.4130  176.2370  137.3560 N   0  0  0  0  0  2  0  0  0  0  0  0
  1 23  1  6  0  0  0
  1 43  1  0  0  0  0
  2  1  1  1  0  0  0
  3  2  1  0  0  0  0
  4  3  1  0  0  0  0
  4  2  1  0  0  0  0
  4  6  1  1  0  0  0
  5  6  2  0  0  0  0
  7 12  1  0  0  0  0
  8  9  2  0  0  0  0
  9 10  1  0  0  0  0
 10 14  2  0  0  0  0
 11 10  1  0  0  0  0
 11  5  1  1  0  0  0
 12 11  1  0  0  0  0
 13 12  2  0  0  0  0
 13  8  1  0  0  0  0
 15  8  1  0  0  0  0
 16 17  1  0  0  0  0
 17 15  1  6  0  0  0
 17 19  1  0  0  0  0
 18 19  1  0  0  0  0
 20 16  1  0  0  0  0
 20 22  1  0  0  0  0
 20 18  1  0  0  0  0
 21 22  1  0  0  0  0
 23 24  1  0  0  0  0
 24 26  1  0  0  0  0
 25 27  1  0  0  0  0
 26 25  2  0  0  0  0
 27 28  1  0  0  0  0
 28 29  2  0  0  0  0
 28 30  1  0  0  0  0
 30 38  1  0  0  0  0
 31 39  1  0  0  0  0
 31 42  1  0  0  0  0
 32 34  1  0  0  0  0
 32 33  1  1  0  0  0
 33 40  1  0  0  0  0
 34 37  1  0  0  0  0
 36 35  1  0  0  0  0
 37 36  1  0  0  0  0
 38 41  1  0  0  0  0
 39 38  1  0  0  0  0
 39 32  1  0  0  0  0
 40 36  1  0  0  0  0
 40 35  1  0  0  0  0
 41 40  1  0  0  0  0
 42 34  1  0  0  0  0
 42 37  1  0  0  0  0
 43 44  1  0  0  0  0
 44 45  1  0  0  0  0
 46 45  1  0  0  0  0
 46 47  1  0  0  0  0
 48 47  1  0  0  0  0
 49 48  1  0  0  0  0
 50 54  1  0  0  0  0
 51 54  1  0  0  0  0
 51 49  1  0  0  0  0
 52 53  1  0  0  0  0
 53 55  1  0  0  0  0
 53 56  1  0  0  0  0
 55 50  2  0  0  0  0
 56 51  1  0  0  0  0
 57 55  1  0  0  0  0
 58 53  1  0  0  0  0
 58 56  1  0  0  0  0
 59 60  1  0  0  0  0
 59 49  1  0  0  0  0
 61 62  1  0  0  0  0
 62 60  1  0  0  0  0
M  END
>  <MODEL>
9

>  <REMARK>
 VINA RESULT:      -6.1      2.500      4.005
  Name = 
  24 active torsions:
  status: ('A' for Active; 'I' for Inactive)
    1  A    between atoms: C_3  and  C_46
    2  A    between atoms: S_4  and  C_15
    3  A    between atoms: S_4  and  C_36
    4  A    between atoms: C_5  and  O_37
    5  A    between atoms: C_5  and  C_59
    6  A    between atoms: C_6  and  C_51
    7  A    between atoms: C_9  and  C_48
    8  A    between atoms: N_13  and  N_25
    9  A    between atoms: N_13  and  C_26
   10  A    between atoms: O_16  and  C_32
   11  A    between atoms: O_16  and  C_48
   12  A    between atoms: C_21  and  C_26
   13  A    between atoms: C_21  and  C_32
   14  A    between atoms: N_24  and  C_29
   15  A    between atoms: N_25  and  C_46
   16  A    between atoms: N_27  and  C_34
   17  A    between atoms: N_27  and  C_46
   18  A    between atoms: C_28  and  O_37
   19  A    between atoms: C_29  and  C_50
   20  A    between atoms: C_34  and  C_62
   21  A    between atoms: C_38  and  N_47
   22  A    between atoms: C_48  and  C_50
   23  A    between atoms: C_49  and  C_59
   24  A    between atoms: C_52  and  N_58
                            x       y       z     vdW  Elec       q    Type
                         _______ _______ _______ _____ _____    ______ ____

>  <TORSDO>
F 24

$$$$
