=
 OpenBabel10222421013D

 38 41  0  0  1  0  0  0  0  0999 V2000
  186.1950  178.0080  138.6270 C   0  0  0  0  0  0  0  0  0  0  0  0
  181.7770  177.7380  137.4150 C   0  0  0  0  0  0  0  0  0  0  0  0
  185.5130  177.3960  137.5190 N   0  0  0  0  0  0  0  0  0  0  0  0
  182.7430  178.8020  139.3930 C   0  0  0  0  0  3  0  0  0  0  0  0
  185.2730  178.6130  139.5620 N   0  0  0  0  0  0  0  0  0  0  0  0
  189.9020  175.8300  138.6560 S   0  0  0  0  0  0  0  0  0  0  0  0
  188.3010  177.7650  137.4170 C   0  0  0  0  0  0  0  0  0  0  0  0
  189.8430  176.9340  135.9960 C   0  0  0  0  0  0  0  0  0  0  0  0
  184.0020  178.3750  138.9590 C   0  0  0  0  0  0  0  0  0  0  0  0
  188.9830  177.1760  141.2840 C   0  0  0  0  0  2  0  0  0  0  0  0
  190.4810  177.1690  140.9820 C   0  0  0  0  0  2  0  0  0  0  0  0
  188.3470  178.5410  141.0510 C   0  0  0  0  0  2  0  0  0  0  0  0
  188.0830  178.4190  136.0890 C   0  0  0  0  0  3  0  0  0  0  0  0
  189.1360  177.7650  135.2470 C   0  0  0  0  0  3  0  0  0  0  0  0
  184.1480  177.6710  137.7920 C   0  0  0  0  0  0  0  0  0  0  0  0
  191.1570  175.9340  135.3940 Cl  0  0  0  0  0  0  0  0  0  0  0  0
  183.0580  177.3380  136.9890 C   0  0  0  0  0  3  0  0  0  0  0  0
  189.3210  176.9140  137.3460 C   0  0  2  0  0  3  0  0  0  0  0  0
  188.2630  178.8720  139.6320 N   0  0  0  0  0  2  0  0  0  0  0  0
  190.7780  177.1850  139.4890 C   0  0  0  0  0  2  0  0  0  0  0  0
  187.5450  178.1230  138.6350 C   0  0  1  0  0  3  0  0  0  0  0  0
  181.6280  178.4700  138.6120 C   0  0  0  0  0  3  0  0  0  0  0  0
  185.1380  178.2140  141.9570 C   0  0  0  0  0  2  0  0  0  0  0  0
  185.5330  178.9750  140.9260 C   0  0  0  0  0  2  0  0  0  0  0  0
  184.4390  178.9670  141.9730 C   0  0  0  0  0  2  0  0  0  0  0  0
  185.0690  179.1100  143.4190 C   0  0  0  0  0  2  0  0  0  0  0  0
  184.2100  178.4200  144.4630 C   0  0  0  0  0  2  0  0  0  0  0  0
  184.3740  179.0750  145.7520 N   0  0  0  0  0  2  0  0  0  0  0  0
  186.4450  177.8060  146.2780 N   0  0  0  0  0  2  0  0  0  0  0  0
  185.5400  178.8860  146.5540 C   0  0  0  0  0  0  0  0  0  0  0  0
  185.7440  179.6570  147.5300 O   0  0  0  0  0  0  0  0  0  0  0  0
  187.6480  177.5500  147.0660 C   0  0  0  0  0  2  0  0  0  0  0  0
  188.7850  177.0580  146.1790 C   0  0  2  0  0  3  0  0  0  0  0  0
  190.3050  177.0850  147.1150 Cl  0  0  0  0  0  0  0  0  0  0  0  0
  188.9200  177.9430  144.9450 C   0  0  0  0  0  2  0  0  0  0  0  0
  190.3860  178.1730  144.6310 C   0  0  0  0  0  1  0  0  0  0  0  0
  180.6140  177.4180  136.6460 N   0  0  0  0  0  2  0  0  0  0  0  0
  179.6310  178.4110  136.2430 C   0  0  0  0  0  1  0  0  0  0  0  0
  1  5  1  0  0  0  0
  2 22  1  0  0  0  0
  3 15  1  0  0  0  0
  3  1  2  0  0  0  0
  5 24  1  0  0  0  0
  6 20  1  0  0  0  0
  7 21  1  0  0  0  0
  9  4  1  0  0  0  0
  9  5  1  0  0  0  0
 11 10  1  0  0  0  0
 12 10  1  0  0  0  0
 13  7  2  0  0  0  0
 14  8  2  0  0  0  0
 14 13  1  0  0  0  0
 15  9  2  0  0  0  0
 16  8  1  0  0  0  0
 17  2  2  0  0  0  0
 17 15  1  0  0  0  0
 18  8  1  6  0  0  0
 18  7  1  0  0  0  0
 18  6  1  0  0  0  0
 19 12  1  0  0  0  0
 20 11  1  0  0  0  0
 21  1  1  6  0  0  0
 21 19  1  0  0  0  0
 22  4  2  0  0  0  0
 23 25  1  0  0  0  0
 24 23  1  0  0  0  0
 25 26  1  0  0  0  0
 26 27  1  0  0  0  0
 27 28  1  0  0  0  0
 28 30  1  0  0  0  0
 29 30  1  0  0  0  0
 29 32  1  0  0  0  0
 30 31  2  0  0  0  0
 33 32  1  0  0  0  0
 33 34  1  1  0  0  0
 35 33  1  0  0  0  0
 36 35  1  0  0  0  0
 37  2  1  0  0  0  0
 38 37  1  0  0  0  0
M  END
>  <MODEL>
1

>  <REMARK>
 VINA RESULT:      -8.3      0.000      0.000
  Name = 
  9 active torsions:
  status: ('A' for Active; 'I' for Inactive)
    1  A    between atoms: C_2  and  N_17
    2  A    between atoms: C_6  and  C_15
    3  A    between atoms: C_7  and  N_8
    4  A    between atoms: C_7  and  C_23
    5  A    between atoms: C_15  and  C_25
    6  A    between atoms: N_19  and  C_38
    7  A    between atoms: C_23  and  C_29
    8  A    between atoms: C_25  and  N_28
    9  A    between atoms: C_29  and  C_38
                            x       y       z     vdW  Elec       q    Type
                         _______ _______ _______ _____ _____    ______ ____

>  <TORSDO>
F 9

$$$$
=
 OpenBabel10222421013D

 38 41  0  0  1  0  0  0  0  0999 V2000
  186.7310  178.1680  141.5510 C   0  0  0  0  0  0  0  0  0  0  0  0
  190.5460  176.7010  143.6380 C   0  0  0  0  0  0  0  0  0  0  0  0
  186.9940  177.6250  142.8560 N   0  0  0  0  0  0  0  0  0  0  0  0
  190.2990  177.5600  141.3620 C   0  0  0  0  0  3  0  0  0  0  0  0
  187.9210  178.2030  140.7320 N   0  0  0  0  0  0  0  0  0  0  0  0
  182.5160  177.4180  141.1470 S   0  0  0  0  0  0  0  0  0  0  0  0
  184.5500  178.9250  142.3460 C   0  0  0  0  0  0  0  0  0  0  0  0
  182.6450  178.9990  143.5510 C   0  0  0  0  0  0  0  0  0  0  0  0
  188.9280  177.6900  141.6030 C   0  0  0  0  0  0  0  0  0  0  0  0
  184.1910  177.7560  138.5690 C   0  0  0  0  0  2  0  0  0  0  0  0
  182.7710  178.3210  138.5660 C   0  0  0  0  0  2  0  0  0  0  0  0
  185.2510  178.8420  138.6970 C   0  0  0  0  0  2  0  0  0  0  0  0
  184.8260  179.7440  143.5670 C   0  0  0  0  0  2  0  0  0  0  0  0
  183.5090  179.6880  144.2790 C   0  0  0  0  0  3  0  0  0  0  0  0
  188.3860  177.3550  142.8170 C   0  0  0  0  0  0  0  0  0  0  0  0
  180.9900  178.6610  144.0370 Cl  0  0  0  0  0  0  0  0  0  0  0  0
  189.1660  176.8620  143.8620 C   0  0  0  0  0  3  0  0  0  0  0  0
  183.2880  178.5050  142.3520 C   0  0  0  0  0  0  0  0  0  0  0  0
  185.2730  179.4320  140.0320 N   0  0  0  0  0  2  0  0  0  0  0  0
  182.3150  178.7680  139.9490 C   0  0  0  0  0  2  0  0  0  0  0  0
  185.5320  178.7270  141.2590 C   0  0  1  0  0  3  0  0  0  0  0  0
  191.1040  177.0550  142.3910 C   0  0  0  0  0  3  0  0  0  0  0  0
  188.8240  177.5770  138.5610 C   0  0  0  0  0  2  0  0  0  0  0  0
  187.9870  178.3190  139.3030 C   0  0  0  0  0  2  0  0  0  0  0  0
  189.3070  178.4840  138.5790 C   0  0  0  0  0  2  0  0  0  0  0  0
  189.0610  179.0770  137.1300 C   0  0  0  0  0  2  0  0  0  0  0  0
  188.9100  177.9710  136.1020 C   0  0  0  0  0  2  0  0  0  0  0  0
  187.5830  178.0250  135.5070 N   0  0  0  0  0  2  0  0  0  0  0  0
  187.1670  175.6070  135.9040 N   0  0  0  0  0  2  0  0  0  0  0  0
  186.6860  176.9150  135.5560 C   0  0  0  0  0  0  0  0  0  0  0  0
  185.4760  177.0910  135.2510 O   0  0  0  0  0  0  0  0  0  0  0  0
  186.3060  174.4290  135.9610 C   0  0  0  0  0  2  0  0  0  0  0  0
  186.5080  173.6700  137.2660 C   0  0  2  0  0  3  0  0  0  0  0  0
  187.6700  172.3420  136.9920 Cl  0  0  0  0  0  0  0  0  0  0  0  0
  185.1830  173.1040  137.7640 C   0  0  0  0  0  2  0  0  0  0  0  0
  184.0710  174.1100  137.5350 C   0  0  0  0  0  1  0  0  0  0  0  0
  191.4020  176.1870  144.6630 N   0  0  0  0  0  2  0  0  0  0  0  0
  191.4510  176.7410  146.0080 C   0  0  0  0  0  1  0  0  0  0  0  0
  1  3  2  0  0  0  0
  2 17  1  0  0  0  0
  2 37  1  0  0  0  0
  4  9  2  0  0  0  0
  4 22  1  0  0  0  0
  5  1  1  0  0  0  0
  5  9  1  0  0  0  0
  6 18  1  0  0  0  0
  7 18  2  0  0  0  0
  7 13  1  0  0  0  0
  8 16  1  0  0  0  0
  8 14  2  0  0  0  0
  9 15  1  0  0  0  0
 10 12  1  0  0  0  0
 11 10  1  0  0  0  0
 11 20  1  0  0  0  0
 12 19  1  0  0  0  0
 13 14  1  0  0  0  0
 15  3  1  0  0  0  0
 15 17  2  0  0  0  0
 18  8  1  0  0  0  0
 19 21  1  0  0  0  0
 20  6  1  0  0  0  0
 21  1  1  1  0  0  0
 21  7  1  0  0  0  0
 22  2  2  0  0  0  0
 23 25  1  0  0  0  0
 23 24  1  0  0  0  0
 24  5  1  0  0  0  0
 26 25  1  0  0  0  0
 27 26  1  0  0  0  0
 28 30  1  0  0  0  0
 28 27  1  0  0  0  0
 29 32  1  0  0  0  0
 30 29  1  0  0  0  0
 31 30  2  0  0  0  0
 32 33  1  0  0  0  0
 33 34  1  6  0  0  0
 33 35  1  0  0  0  0
 36 35  1  0  0  0  0
 37 38  1  0  0  0  0
M  END
>  <MODEL>
2

>  <REMARK>
 VINA RESULT:      -8.1      3.706      8.975
  Name = 
  9 active torsions:
  status: ('A' for Active; 'I' for Inactive)
    1  A    between atoms: C_2  and  N_17
    2  A    between atoms: C_6  and  C_15
    3  A    between atoms: C_7  and  N_8
    4  A    between atoms: C_7  and  C_23
    5  A    between atoms: C_15  and  C_25
    6  A    between atoms: N_19  and  C_38
    7  A    between atoms: C_23  and  C_29
    8  A    between atoms: C_25  and  N_28
    9  A    between atoms: C_29  and  C_38
                            x       y       z     vdW  Elec       q    Type
                         _______ _______ _______ _____ _____    ______ ____

>  <TORSDO>
F 9

$$$$
=
 OpenBabel10222421013D

 38 41  0  0  1  0  0  0  0  0999 V2000
  183.7140  178.2960  140.0420 C   0  0  0  0  0  0  0  0  0  0  0  0
  188.2890  178.3470  139.6900 C   0  0  0  0  0  0  0  0  0  0  0  0
  184.6200  178.1200  138.9400 N   0  0  0  0  0  0  0  0  0  0  0  0
  186.9190  178.7200  141.6810 C   0  0  0  0  0  3  0  0  0  0  0  0
  184.4120  178.5980  141.2710 N   0  0  0  0  0  0  0  0  0  0  0  0
  180.0870  179.3800  138.0040 S   0  0  0  0  0  0  0  0  0  0  0  0
  181.9210  177.3700  138.6690 C   0  0  0  0  0  0  0  0  0  0  0  0
  180.7230  176.8240  136.8370 C   0  0  0  0  0  0  0  0  0  0  0  0
  185.7840  178.5650  140.8790 C   0  0  0  0  0  0  0  0  0  0  0  0
  180.4160  180.2470  140.9540 C   0  0  0  0  0  2  0  0  0  0  0  0
  179.0180  179.8340  140.4920 C   0  0  0  0  0  2  0  0  0  0  0  0
  181.0880  179.1790  141.8070 C   0  0  0  0  0  2  0  0  0  0  0  0
  182.4220  176.0460  138.1860 C   0  0  0  0  0  2  0  0  0  0  0  0
  181.5760  175.8220  136.9700 C   0  0  0  0  0  3  0  0  0  0  0  0
  185.8930  178.2960  139.5390 C   0  0  0  0  0  0  0  0  0  0  0  0
  179.5690  176.9750  135.5190 Cl  0  0  0  0  0  0  0  0  0  0  0  0
  187.1310  178.1750  138.9100 C   0  0  0  0  0  3  0  0  0  0  0  0
  180.9390  177.8030  137.8820 C   0  0  0  0  0  0  0  0  0  0  0  0
  181.4790  178.0140  141.0190 N   0  0  0  0  0  2  0  0  0  0  0  0
  179.0520  178.7970  139.3780 C   0  0  0  0  0  2  0  0  0  0  0  0
  182.3950  178.0170  139.9100 C   0  0  1  0  0  3  0  0  0  0  0  0
  188.1760  178.6150  141.0720 C   0  0  0  0  0  3  0  0  0  0  0  0
  184.5290  179.2100  143.6230 C   0  0  2  0  0  3  0  0  0  0  0  0
  183.8630  179.1890  142.4580 C   0  0  0  0  0  2  0  0  0  0  0  0
  183.8530  178.4530  143.7810 C   0  0  0  0  0  1  0  0  0  0  0  0
  184.8260  179.1670  144.8090 C   0  0  0  0  0  2  0  0  0  0  0  0
  185.9260  178.2280  145.2660 C   0  0  0  0  0  2  0  0  0  0  0  0
  186.1840  178.4190  146.6850 N   0  0  0  0  0  2  0  0  0  0  0  0
  188.3350  177.1780  146.5930 N   0  0  0  0  0  2  0  0  0  0  0  0
  187.4230  178.0430  147.2870 C   0  0  0  0  0  0  0  0  0  0  0  0
  187.6880  178.4500  148.4500 O   0  0  0  0  0  0  0  0  0  0  0  0
  189.6120  176.7470  147.1560 C   0  0  0  0  0  2  0  0  0  0  0  0
  190.7750  177.2230  146.2940 C   0  0  2  0  0  3  0  0  0  0  0  0
  190.1630  177.6310  144.6670 Cl  0  0  0  0  0  0  0  0  0  0  0  0
  191.8400  176.1380  146.1900 C   0  0  0  0  0  2  0  0  0  0  0  0
  192.3390  175.7680  147.5730 C   0  0  0  0  0  1  0  0  0  0  0  0
  189.5910  178.2490  139.1060 N   0  0  0  0  0  2  0  0  0  0  0  0
  190.3930  177.0360  139.1520 C   0  0  0  0  0  1  0  0  0  0  0  0
  1  5  1  0  0  0  0
  2 22  1  0  0  0  0
  3 15  1  0  0  0  0
  3  1  2  0  0  0  0
  5 24  1  0  0  0  0
  6 20  1  0  0  0  0
  7 21  1  0  0  0  0
  8 14  2  0  0  0  0
  8 18  1  0  0  0  0
  9  5  1  0  0  0  0
  9  4  1  0  0  0  0
 10 12  1  0  0  0  0
 11 10  1  0  0  0  0
 13  7  1  0  0  0  0
 14 13  1  0  0  0  0
 15  9  2  0  0  0  0
 16  8  1  0  0  0  0
 17 15  1  0  0  0  0
 17  2  2  0  0  0  0
 18  6  1  0  0  0  0
 18  7  2  0  0  0  0
 19 12  1  0  0  0  0
 20 11  1  0  0  0  0
 21  1  1  1  0  0  0
 21 19  1  0  0  0  0
 22  4  2  0  0  0  0
 23 25  1  6  0  0  0
 23 26  1  0  0  0  0
 24 23  1  0  0  0  0
 26 27  1  0  0  0  0
 27 28  1  0  0  0  0
 28 30  1  0  0  0  0
 29 32  1  0  0  0  0
 29 30  1  0  0  0  0
 30 31  2  0  0  0  0
 33 34  1  6  0  0  0
 33 32  1  0  0  0  0
 35 33  1  0  0  0  0
 35 36  1  0  0  0  0
 37 38  1  0  0  0  0
 37  2  1  0  0  0  0
M  END
>  <MODEL>
3

>  <REMARK>
 VINA RESULT:      -8.1      3.162      6.300
  Name = 
  9 active torsions:
  status: ('A' for Active; 'I' for Inactive)
    1  A    between atoms: C_2  and  N_17
    2  A    between atoms: C_6  and  C_15
    3  A    between atoms: C_7  and  N_8
    4  A    between atoms: C_7  and  C_23
    5  A    between atoms: C_15  and  C_25
    6  A    between atoms: N_19  and  C_38
    7  A    between atoms: C_23  and  C_29
    8  A    between atoms: C_25  and  N_28
    9  A    between atoms: C_29  and  C_38
                            x       y       z     vdW  Elec       q    Type
                         _______ _______ _______ _____ _____    ______ ____

>  <TORSDO>
F 9

$$$$
=
 OpenBabel10222421013D

 38 41  0  0  1  0  0  0  0  0999 V2000
  186.8790  178.1650  141.6330 C   0  0  0  0  0  0  0  0  0  0  0  0
  190.6480  176.7850  143.8580 C   0  0  0  0  0  0  0  0  0  0  0  0
  187.1110  177.6530  142.9560 N   0  0  0  0  0  0  0  0  0  0  0  0
  190.4570  177.5920  141.5570 C   0  0  0  0  0  3  0  0  0  0  0  0
  188.0920  178.1950  140.8460 N   0  0  0  0  0  0  0  0  0  0  0  0
  182.6850  177.3610  141.1260 S   0  0  0  0  0  0  0  0  0  0  0  0
  184.6690  178.9150  142.3490 C   0  0  0  0  0  0  0  0  0  0  0  0
  182.7300  178.9950  143.4980 C   0  0  0  0  0  0  0  0  0  0  0  0
  189.0780  177.7120  141.7570 C   0  0  0  0  0  0  0  0  0  0  0  0
  184.4290  177.6620  138.5890 C   0  0  0  0  0  2  0  0  0  0  0  0
  183.0040  178.2110  138.5340 C   0  0  0  0  0  2  0  0  0  0  0  0
  185.4740  178.7620  138.7240 C   0  0  0  0  0  2  0  0  0  0  0  0
  184.9020  179.7640  143.5590 C   0  0  0  0  0  2  0  0  0  0  0  0
  183.5660  179.7080  144.2350 C   0  0  0  0  0  3  0  0  0  0  0  0
  188.5050  177.3980  142.9620 C   0  0  0  0  0  0  0  0  0  0  0  0
  181.0650  178.6500  143.9440 Cl  0  0  0  0  0  0  0  0  0  0  0  0
  189.2600  176.9360  144.0390 C   0  0  0  0  0  3  0  0  0  0  0  0
  183.4110  178.4820  142.3280 C   0  0  0  0  0  0  0  0  0  0  0  0
  185.4520  179.3800  140.0460 N   0  0  0  0  0  2  0  0  0  0  0  0
  182.5050  178.6820  139.8940 C   0  0  0  0  0  2  0  0  0  0  0  0
  185.6830  178.7040  141.2940 C   0  0  1  0  0  3  0  0  0  0  0  0
  191.2380  177.1170  142.6190 C   0  0  0  0  0  3  0  0  0  0  0  0
  188.5420  177.2290  138.6600 C   0  0  1  0  0  3  0  0  0  0  0  0
  188.1970  178.2810  139.4180 C   0  0  0  0  0  2  0  0  0  0  0  0
  189.4150  177.7690  138.6780 C   0  0  0  0  0  1  0  0  0  0  0  0
  189.0900  176.3800  137.9890 C   0  0  0  0  0  2  0  0  0  0  0  0
  190.3560  175.5850  137.7320 C   0  0  0  0  0  2  0  0  0  0  0  0
  191.5240  176.4170  137.9830 N   0  0  0  0  0  2  0  0  0  0  0  0
  193.1080  174.5810  137.4370 N   0  0  0  0  0  2  0  0  0  0  0  0
  192.8470  175.9710  137.6880 C   0  0  0  0  0  0  0  0  0  0  0  0
  193.7900  176.8070  137.6890 O   0  0  0  0  0  0  0  0  0  0  0  0
  194.4380  174.0580  137.1410 C   0  0  0  0  0  2  0  0  0  0  0  0
  195.0410  173.3790  138.3640 C   0  0  2  0  0  3  0  0  0  0  0  0
  196.1850  174.5020  139.1490 Cl  0  0  0  0  0  0  0  0  0  0  0  0
  195.7660  172.1000  137.9600 C   0  0  0  0  0  2  0  0  0  0  0  0
  197.1590  172.4300  137.4600 C   0  0  0  0  0  1  0  0  0  0  0  0
  191.4790  176.3020  144.9170 N   0  0  0  0  0  2  0  0  0  0  0  0
  191.3510  176.7530  146.2950 C   0  0  0  0  0  1  0  0  0  0  0  0
  1  3  2  0  0  0  0
  2 17  1  0  0  0  0
  2 37  1  0  0  0  0
  3 15  1  0  0  0  0
  4  9  2  0  0  0  0
  4 22  1  0  0  0  0
  5  1  1  0  0  0  0
  5  9  1  0  0  0  0
  6 18  1  0  0  0  0
  7 13  1  0  0  0  0
  8 16  1  0  0  0  0
  8 14  2  0  0  0  0
  9 15  1  0  0  0  0
 10 12  1  0  0  0  0
 11 10  1  0  0  0  0
 11 20  1  0  0  0  0
 12 19  1  0  0  0  0
 13 14  1  0  0  0  0
 15 17  2  0  0  0  0
 18  7  2  0  0  0  0
 18  8  1  0  0  0  0
 19 21  1  0  0  0  0
 20  6  1  0  0  0  0
 21  1  1  1  0  0  0
 21  7  1  0  0  0  0
 22  2  2  0  0  0  0
 23 25  1  6  0  0  0
 23 24  1  0  0  0  0
 24  5  1  0  0  0  0
 26 23  1  0  0  0  0
 27 28  1  0  0  0  0
 27 26  1  0  0  0  0
 29 30  1  0  0  0  0
 30 31  2  0  0  0  0
 30 28  1  0  0  0  0
 32 29  1  0  0  0  0
 32 33  1  0  0  0  0
 33 34  1  6  0  0  0
 35 33  1  0  0  0  0
 36 35  1  0  0  0  0
 37 38  1  0  0  0  0
M  END
>  <MODEL>
4

>  <REMARK>
 VINA RESULT:      -7.9      4.329      9.163
  Name = 
  9 active torsions:
  status: ('A' for Active; 'I' for Inactive)
    1  A    between atoms: C_2  and  N_17
    2  A    between atoms: C_6  and  C_15
    3  A    between atoms: C_7  and  N_8
    4  A    between atoms: C_7  and  C_23
    5  A    between atoms: C_15  and  C_25
    6  A    between atoms: N_19  and  C_38
    7  A    between atoms: C_23  and  C_29
    8  A    between atoms: C_25  and  N_28
    9  A    between atoms: C_29  and  C_38
                            x       y       z     vdW  Elec       q    Type
                         _______ _______ _______ _____ _____    ______ ____

>  <TORSDO>
F 9

$$$$
=
 OpenBabel10222421013D

 38 41  0  0  1  0  0  0  0  0999 V2000
  186.3220  178.2470  142.0700 C   0  0  0  0  0  0  0  0  0  0  0  0
  189.3960  177.1500  145.2950 C   0  0  0  0  0  0  0  0  0  0  0  0
  186.2070  177.7130  143.4000 N   0  0  0  0  0  0  0  0  0  0  0  0
  189.8040  178.0160  143.0450 C   0  0  0  0  0  3  0  0  0  0  0  0
  187.7020  178.4190  141.6740 N   0  0  0  0  0  0  0  0  0  0  0  0
  182.5600  177.0720  140.3490 S   0  0  0  0  0  0  0  0  0  0  0  0
  183.9360  178.7610  142.1100 C   0  0  0  0  0  0  0  0  0  0  0  0
  181.7480  178.6190  142.6400 C   0  0  0  0  0  0  0  0  0  0  0  0
  188.4230  177.9990  142.8320 C   0  0  0  0  0  0  0  0  0  0  0  0
  184.9290  177.6230  138.4380 C   0  0  0  0  0  2  0  0  0  0  0  0
  183.5340  178.0380  137.9700 C   0  0  0  0  0  2  0  0  0  0  0  0
  185.7740  178.8110  138.8810 C   0  0  0  0  0  2  0  0  0  0  0  0
  183.7190  179.5850  143.3400 C   0  0  0  0  0  2  0  0  0  0  0  0
  182.2570  179.3810  143.5940 C   0  0  0  0  0  3  0  0  0  0  0  0
  187.5580  177.5900  143.8130 C   0  0  0  0  0  0  0  0  0  0  0  0
  180.0680  178.1030  142.5750 Cl  0  0  0  0  0  0  0  0  0  0  0  0
  188.0080  177.1630  145.0620 C   0  0  0  0  0  3  0  0  0  0  0  0
  182.7880  178.2130  141.7180 C   0  0  0  0  0  0  0  0  0  0  0  0
  185.3050  179.3780  140.1410 N   0  0  0  0  0  2  0  0  0  0  0  0
  182.6160  178.4130  139.1260 C   0  0  0  0  0  2  0  0  0  0  0  0
  185.2290  178.6840  141.3980 C   0  0  1  0  0  3  0  0  0  0  0  0
  190.2850  177.5790  144.2860 C   0  0  0  0  0  3  0  0  0  0  0  0
  188.5740  177.5110  139.5930 C   0  0  0  0  0  2  0  0  0  0  0  0
  188.2100  178.5640  140.3400 C   0  0  0  0  0  2  0  0  0  0  0  0
  189.4850  177.8780  139.8960 C   0  0  0  0  0  2  0  0  0  0  0  0
  189.5850  177.8880  138.3150 C   0  0  0  0  0  2  0  0  0  0  0  0
  190.4970  176.7830  137.8160 C   0  0  0  0  0  2  0  0  0  0  0  0
  190.2100  176.4950  136.4190 N   0  0  0  0  0  2  0  0  0  0  0  0
  188.5500  174.7350  136.9910 N   0  0  0  0  0  2  0  0  0  0  0  0
  189.1550  175.6140  136.0300 C   0  0  0  0  0  0  0  0  0  0  0  0
  188.7900  175.5900  134.8240 O   0  0  0  0  0  0  0  0  0  0  0  0
  187.4770  173.8030  136.6570 C   0  0  0  0  0  2  0  0  0  0  0  0
  186.1310  174.3250  137.1440 C   0  0  2  0  0  3  0  0  0  0  0  0
  185.2590  173.0030  137.9680 Cl  0  0  0  0  0  0  0  0  0  0  0  0
  185.3030  174.8400  135.9730 C   0  0  0  0  0  2  0  0  0  0  0  0
  183.8290  174.6030  136.2360 C   0  0  0  0  0  1  0  0  0  0  0  0
  189.9270  176.7110  146.5490 N   0  0  0  0  0  2  0  0  0  0  0  0
  191.3440  176.4680  146.7700 C   0  0  0  0  0  1  0  0  0  0  0  0
  1  3  2  0  0  0  0
  2 37  1  0  0  0  0
  3 15  1  0  0  0  0
  4 22  1  0  0  0  0
  5  1  1  0  0  0  0
  5  9  1  0  0  0  0
  6 18  1  0  0  0  0
  7 13  1  0  0  0  0
  8 14  2  0  0  0  0
  9  4  2  0  0  0  0
  9 15  1  0  0  0  0
 10 12  1  0  0  0  0
 11 10  1  0  0  0  0
 11 20  1  0  0  0  0
 12 19  1  0  0  0  0
 13 14  1  0  0  0  0
 15 17  2  0  0  0  0
 16  8  1  0  0  0  0
 17  2  1  0  0  0  0
 18  7  2  0  0  0  0
 18  8  1  0  0  0  0
 19 21  1  0  0  0  0
 20  6  1  0  0  0  0
 21  1  1  1  0  0  0
 21  7  1  0  0  0  0
 22  2  2  0  0  0  0
 23 25  1  0  0  0  0
 23 24  1  0  0  0  0
 24  5  1  0  0  0  0
 26 25  1  0  0  0  0
 27 26  1  0  0  0  0
 28 27  1  0  0  0  0
 30 28  1  0  0  0  0
 30 29  1  0  0  0  0
 31 30  2  0  0  0  0
 32 29  1  0  0  0  0
 32 33  1  0  0  0  0
 33 34  1  6  0  0  0
 35 36  1  0  0  0  0
 35 33  1  0  0  0  0
 37 38  1  0  0  0  0
M  END
>  <MODEL>
5

>  <REMARK>
 VINA RESULT:      -7.8      3.940      9.042
  Name = 
  9 active torsions:
  status: ('A' for Active; 'I' for Inactive)
    1  A    between atoms: C_2  and  N_17
    2  A    between atoms: C_6  and  C_15
    3  A    between atoms: C_7  and  N_8
    4  A    between atoms: C_7  and  C_23
    5  A    between atoms: C_15  and  C_25
    6  A    between atoms: N_19  and  C_38
    7  A    between atoms: C_23  and  C_29
    8  A    between atoms: C_25  and  N_28
    9  A    between atoms: C_29  and  C_38
                            x       y       z     vdW  Elec       q    Type
                         _______ _______ _______ _____ _____    ______ ____

>  <TORSDO>
F 9

$$$$
=
 OpenBabel10222421013D

 38 41  0  0  1  0  0  0  0  0999 V2000
  186.7440  178.2050  141.5540 C   0  0  0  0  0  0  0  0  0  0  0  0
  190.5200  176.6230  143.6270 C   0  0  0  0  0  0  0  0  0  0  0  0
  186.9850  177.6040  142.8380 N   0  0  0  0  0  0  0  0  0  0  0  0
  190.3100  177.5810  141.3870 C   0  0  0  0  0  3  0  0  0  0  0  0
  187.9450  178.2670  140.7530 N   0  0  0  0  0  0  0  0  0  0  0  0
  182.5300  177.5030  141.0610 S   0  0  0  0  0  0  0  0  0  0  0  0
  184.5570  178.9420  142.3510 C   0  0  0  0  0  0  0  0  0  0  0  0
  182.6370  178.9790  143.5330 C   0  0  0  0  0  0  0  0  0  0  0  0
  188.9360  177.7100  141.6150 C   0  0  0  0  0  0  0  0  0  0  0  0
  184.2430  177.9390  138.5230 C   0  0  0  0  0  2  0  0  0  0  0  0
  182.8260  178.5140  138.5250 C   0  0  0  0  0  2  0  0  0  0  0  0
  185.3080  179.0120  138.7120 C   0  0  0  0  0  2  0  0  0  0  0  0
  184.8220  179.7070  143.6100 C   0  0  0  0  0  2  0  0  0  0  0  0
  183.4950  179.6290  144.3010 C   0  0  0  0  0  3  0  0  0  0  0  0
  188.3760  177.3270  142.8060 C   0  0  0  0  0  0  0  0  0  0  0  0
  180.9720  178.6320  143.9800 Cl  0  0  0  0  0  0  0  0  0  0  0  0
  189.1380  176.7840  143.8390 C   0  0  0  0  0  3  0  0  0  0  0  0
  183.2920  178.5320  142.3220 C   0  0  0  0  0  0  0  0  0  0  0  0
  185.3150  179.5430  140.0710 N   0  0  0  0  0  2  0  0  0  0  0  0
  182.3550  178.9040  139.9190 C   0  0  0  0  0  2  0  0  0  0  0  0
  185.5520  178.7840  141.2700 C   0  0  1  0  0  3  0  0  0  0  0  0
  191.0980  177.0260  142.4040 C   0  0  0  0  0  3  0  0  0  0  0  0
  188.1100  177.4060  138.4840 C   0  0  0  0  0  2  0  0  0  0  0  0
  188.0320  178.4430  139.3310 C   0  0  0  0  0  2  0  0  0  0  0  0
  189.0840  177.7340  138.5040 C   0  0  0  0  0  2  0  0  0  0  0  0
  188.8920  178.0770  136.9690 C   0  0  0  0  0  2  0  0  0  0  0  0
  188.8280  176.8150  136.1290 C   0  0  0  0  0  2  0  0  0  0  0  0
  190.0030  176.7300  135.2730 N   0  0  0  0  0  2  0  0  0  0  0  0
  191.2070  175.2380  136.8560 N   0  0  0  0  0  2  0  0  0  0  0  0
  191.0840  175.8420  135.5580 C   0  0  0  0  0  0  0  0  0  0  0  0
  191.9500  175.6260  134.6690 O   0  0  0  0  0  0  0  0  0  0  0  0
  192.2930  174.3320  137.2160 C   0  0  0  0  0  2  0  0  0  0  0  0
  193.4140  175.0810  137.9250 C   0  0  2  0  0  3  0  0  0  0  0  0
  192.8140  176.6850  138.4300 Cl  0  0  0  0  0  0  0  0  0  0  0  0
  194.6140  175.2460  136.9980 C   0  0  0  0  0  2  0  0  0  0  0  0
  195.4580  173.9860  137.0150 C   0  0  0  0  0  1  0  0  0  0  0  0
  191.3580  176.0600  144.6400 N   0  0  0  0  0  2  0  0  0  0  0  0
  191.6800  176.7510  145.8800 C   0  0  0  0  0  1  0  0  0  0  0  0
  1  3  2  0  0  0  0
  2 17  1  0  0  0  0
  2 37  1  0  0  0  0
  4  9  2  0  0  0  0
  4 22  1  0  0  0  0
  5  1  1  0  0  0  0
  5  9  1  0  0  0  0
  6 18  1  0  0  0  0
  7 13  1  0  0  0  0
  8 16  1  0  0  0  0
  8 14  2  0  0  0  0
  9 15  1  0  0  0  0
 10 11  1  0  0  0  0
 10 12  1  0  0  0  0
 11 20  1  0  0  0  0
 12 19  1  0  0  0  0
 13 14  1  0  0  0  0
 15  3  1  0  0  0  0
 15 17  2  0  0  0  0
 18  7  2  0  0  0  0
 18  8  1  0  0  0  0
 19 21  1  0  0  0  0
 20  6  1  0  0  0  0
 21  1  1  1  0  0  0
 21  7  1  0  0  0  0
 22  2  2  0  0  0  0
 23 25  1  0  0  0  0
 23 24  1  0  0  0  0
 24  5  1  0  0  0  0
 26 25  1  0  0  0  0
 27 26  1  0  0  0  0
 28 30  1  0  0  0  0
 28 27  1  0  0  0  0
 29 32  1  0  0  0  0
 30 29  1  0  0  0  0
 31 30  2  0  0  0  0
 32 33  1  0  0  0  0
 33 34  1  6  0  0  0
 35 36  1  0  0  0  0
 35 33  1  0  0  0  0
 37 38  1  0  0  0  0
M  END
>  <MODEL>
6

>  <REMARK>
 VINA RESULT:      -7.8      4.057      9.093
  Name = 
  9 active torsions:
  status: ('A' for Active; 'I' for Inactive)
    1  A    between atoms: C_2  and  N_17
    2  A    between atoms: C_6  and  C_15
    3  A    between atoms: C_7  and  N_8
    4  A    between atoms: C_7  and  C_23
    5  A    between atoms: C_15  and  C_25
    6  A    between atoms: N_19  and  C_38
    7  A    between atoms: C_23  and  C_29
    8  A    between atoms: C_25  and  N_28
    9  A    between atoms: C_29  and  C_38
                            x       y       z     vdW  Elec       q    Type
                         _______ _______ _______ _____ _____    ______ ____

>  <TORSDO>
F 9

$$$$
=
 OpenBabel10222421013D

 38 41  0  0  1  0  0  0  0  0999 V2000
  186.7430  178.1320  141.6240 C   0  0  0  0  0  0  0  0  0  0  0  0
  190.4770  176.5710  143.7870 C   0  0  0  0  0  0  0  0  0  0  0  0
  186.9630  177.5650  142.9270 N   0  0  0  0  0  0  0  0  0  0  0  0
  190.3040  177.4680  141.5190 C   0  0  0  0  0  3  0  0  0  0  0  0
  187.9550  178.1600  140.8360 N   0  0  0  0  0  0  0  0  0  0  0  0
  182.5290  177.4590  141.0970 S   0  0  0  0  0  0  0  0  0  0  0  0
  184.5550  178.9140  142.3730 C   0  0  0  0  0  0  0  0  0  0  0  0
  182.6200  179.0020  143.5290 C   0  0  0  0  0  0  0  0  0  0  0  0
  188.9300  177.6170  141.7260 C   0  0  0  0  0  0  0  0  0  0  0  0
  184.2770  177.8080  138.5700 C   0  0  0  0  0  2  0  0  0  0  0  0
  182.8660  178.3970  138.5390 C   0  0  0  0  0  2  0  0  0  0  0  0
  185.3510  178.8740  138.7430 C   0  0  0  0  0  2  0  0  0  0  0  0
  184.8120  179.7100  143.6130 C   0  0  0  0  0  2  0  0  0  0  0  0
  183.4760  179.6650  144.2900 C   0  0  0  0  0  3  0  0  0  0  0  0
  188.3500  177.2730  142.9200 C   0  0  0  0  0  0  0  0  0  0  0  0
  180.9470  178.6840  143.9650 Cl  0  0  0  0  0  0  0  0  0  0  0  0
  189.0940  176.7510  143.9770 C   0  0  0  0  0  3  0  0  0  0  0  0
  183.2860  178.5150  142.3390 C   0  0  0  0  0  0  0  0  0  0  0  0
  185.3470  179.4430  140.0870 N   0  0  0  0  0  2  0  0  0  0  0  0
  182.3820  178.8300  139.9160 C   0  0  0  0  0  2  0  0  0  0  0  0
  185.5610  178.7160  141.3090 C   0  0  1  0  0  3  0  0  0  0  0  0
  191.0740  176.9330  142.5600 C   0  0  0  0  0  3  0  0  0  0  0  0
  189.0090  177.6690  138.7000 C   0  0  2  0  0  3  0  0  0  0  0  0
  188.0600  178.2960  139.4120 C   0  0  0  0  0  2  0  0  0  0  0  0
  189.3760  178.6280  138.7400 C   0  0  0  0  0  1  0  0  0  0  0  0
  189.7090  177.5460  137.6300 C   0  0  0  0  0  2  0  0  0  0  0  0
  190.9340  176.7340  138.0060 C   0  0  0  0  0  2  0  0  0  0  0  0
  191.3920  175.9670  136.8560 N   0  0  0  0  0  2  0  0  0  0  0  0
  189.6980  174.1830  137.2100 N   0  0  0  0  0  2  0  0  0  0  0  0
  190.6900  174.8160  136.3870 C   0  0  0  0  0  0  0  0  0  0  0  0
  190.9810  174.3400  135.2570 O   0  0  0  0  0  0  0  0  0  0  0  0
  188.9530  172.9980  136.7940 C   0  0  0  0  0  2  0  0  0  0  0  0
  187.4580  173.2850  136.7420 C   0  0  2  0  0  3  0  0  0  0  0  0
  186.6140  171.8540  136.0870 Cl  0  0  0  0  0  0  0  0  0  0  0  0
  187.1780  174.4980  135.8630 C   0  0  0  0  0  2  0  0  0  0  0  0
  186.5690  175.6110  136.6940 C   0  0  0  0  0  1  0  0  0  0  0  0
  191.2970  176.0270  144.8260 N   0  0  0  0  0  2  0  0  0  0  0  0
  191.6120  176.7500  146.0480 C   0  0  0  0  0  1  0  0  0  0  0  0
  1  3  2  0  0  0  0
  2 17  1  0  0  0  0
  2 37  1  0  0  0  0
  4  9  2  0  0  0  0
  4 22  1  0  0  0  0
  5  1  1  0  0  0  0
  5  9  1  0  0  0  0
  6 18  1  0  0  0  0
  7 13  1  0  0  0  0
  8 16  1  0  0  0  0
  8 14  2  0  0  0  0
  9 15  1  0  0  0  0
 10 12  1  0  0  0  0
 11 10  1  0  0  0  0
 11 20  1  0  0  0  0
 12 19  1  0  0  0  0
 13 14  1  0  0  0  0
 15  3  1  0  0  0  0
 15 17  2  0  0  0  0
 18  7  2  0  0  0  0
 18  8  1  0  0  0  0
 19 21  1  0  0  0  0
 20  6  1  0  0  0  0
 21  1  1  1  0  0  0
 21  7  1  0  0  0  0
 22  2  2  0  0  0  0
 23 25  1  1  0  0  0
 23 24  1  0  0  0  0
 24  5  1  0  0  0  0
 26 27  1  0  0  0  0
 26 23  1  0  0  0  0
 28 27  1  0  0  0  0
 30 28  1  0  0  0  0
 30 29  1  0  0  0  0
 31 30  2  0  0  0  0
 32 29  1  0  0  0  0
 33 34  1  6  0  0  0
 33 32  1  0  0  0  0
 35 36  1  0  0  0  0
 35 33  1  0  0  0  0
 37 38  1  0  0  0  0
M  END
>  <MODEL>
7

>  <REMARK>
 VINA RESULT:      -7.7      3.992      9.136
  Name = 
  9 active torsions:
  status: ('A' for Active; 'I' for Inactive)
    1  A    between atoms: C_2  and  N_17
    2  A    between atoms: C_6  and  C_15
    3  A    between atoms: C_7  and  N_8
    4  A    between atoms: C_7  and  C_23
    5  A    between atoms: C_15  and  C_25
    6  A    between atoms: N_19  and  C_38
    7  A    between atoms: C_23  and  C_29
    8  A    between atoms: C_25  and  N_28
    9  A    between atoms: C_29  and  C_38
                            x       y       z     vdW  Elec       q    Type
                         _______ _______ _______ _____ _____    ______ ____

>  <TORSDO>
F 9

$$$$
=
 OpenBabel10222421013D

 38 41  0  0  1  0  0  0  0  0999 V2000
  188.6820  177.6920  140.5610 C   0  0  0  0  0  0  0  0  0  0  0  0
  191.5040  175.9880  137.3690 C   0  0  0  0  0  0  0  0  0  0  0  0
  189.8530  176.8600  140.6230 N   0  0  0  0  0  0  0  0  0  0  0  0
  189.5090  177.3660  137.0480 C   0  0  0  0  0  3  0  0  0  0  0  0
  188.3110  178.0000  139.1980 N   0  0  0  0  0  0  0  0  0  0  0  0
  186.8070  176.8130  144.3300 S   0  0  0  0  0  0  0  0  0  0  0  0
  188.8860  178.0970  142.9600 C   0  0  0  0  0  0  0  0  0  0  0  0
  189.4100  177.7560  145.1270 C   0  0  0  0  0  0  0  0  0  0  0  0
  189.3250  177.3500  138.4340 C   0  0  0  0  0  0  0  0  0  0  0  0
  185.0320  177.8780  142.0320 C   0  0  0  0  0  2  0  0  0  0  0  0
  184.7010  178.3400  143.4510 C   0  0  0  0  0  2  0  0  0  0  0  0
  185.7230  178.9600  141.2120 C   0  0  0  0  0  2  0  0  0  0  0  0
  190.2780  178.6040  143.1680 C   0  0  0  0  0  3  0  0  0  0  0  0
  190.5050  178.2940  144.6160 C   0  0  0  0  0  3  0  0  0  0  0  0
  190.2010  176.6930  139.2590 C   0  0  0  0  0  0  0  0  0  0  0  0
  189.2590  177.2100  146.7910 Cl  0  0  0  0  0  0  0  0  0  0  0  0
  191.3070  176.0050  138.7620 C   0  0  0  0  0  3  0  0  0  0  0  0
  188.4000  177.6140  144.1000 C   0  0  2  0  0  3  0  0  0  0  0  0
  187.0890  179.2020  141.6630 N   0  0  0  0  0  2  0  0  0  0  0  0
  185.9290  178.4020  144.3480 C   0  0  0  0  0  2  0  0  0  0  0  0
  188.1520  178.2330  141.6850 C   0  0  1  0  0  3  0  0  0  0  0  0
  190.6060  176.6710  136.5200 C   0  0  0  0  0  3  0  0  0  0  0  0
  186.1870  177.6810  138.0560 C   0  0  1  0  0  3  0  0  0  0  0  0
  187.0380  178.4690  138.7310 C   0  0  0  0  0  2  0  0  0  0  0  0
  186.5870  178.2530  137.3020 C   0  0  0  0  0  1  0  0  0  0  0  0
  185.7590  176.9070  137.1900 C   0  0  0  0  0  2  0  0  0  0  0  0
  184.4730  177.1160  136.4120 C   0  0  0  0  0  2  0  0  0  0  0  0
  183.5730  175.9930  136.6300 N   0  0  0  0  0  2  0  0  0  0  0  0
  182.6800  176.9530  138.7420 N   0  0  0  0  0  2  0  0  0  0  0  0
  182.5990  175.9960  137.6740 C   0  0  0  0  0  0  0  0  0  0  0  0
  181.6900  175.1230  137.6670 O   0  0  0  0  0  0  0  0  0  0  0  0
  181.7250  177.0030  139.8450 C   0  0  0  0  0  2  0  0  0  0  0  0
  181.3900  178.4430  140.2110 C   0  0  2  0  0  3  0  0  0  0  0  0
  182.5860  179.5290  139.4500 Cl  0  0  0  0  0  0  0  0  0  0  0  0
  181.4120  178.6280  141.7240 C   0  0  0  0  0  2  0  0  0  0  0  0
  180.3290  179.6030  142.1420 C   0  0  0  0  0  1  0  0  0  0  0  0
  192.6110  175.2890  136.7910 N   0  0  0  0  0  2  0  0  0  0  0  0
  193.6490  174.6510  137.5870 C   0  0  0  0  0  1  0  0  0  0  0  0
  1  3  2  0  0  0  0
  2 17  1  0  0  0  0
  4  9  2  0  0  0  0
  5  1  1  0  0  0  0
  6 20  1  0  0  0  0
  7 13  2  0  0  0  0
  8 16  1  0  0  0  0
  9  5  1  0  0  0  0
  9 15  1  0  0  0  0
 10 11  1  0  0  0  0
 11 20  1  0  0  0  0
 12 19  1  0  0  0  0
 12 10  1  0  0  0  0
 13 14  1  0  0  0  0
 14  8  2  0  0  0  0
 15  3  1  0  0  0  0
 17 15  2  0  0  0  0
 18  7  1  6  0  0  0
 18  6  1  0  0  0  0
 18  8  1  0  0  0  0
 19 21  1  0  0  0  0
 21  1  1  6  0  0  0
 21  7  1  0  0  0  0
 22  4  1  0  0  0  0
 22  2  2  0  0  0  0
 23 25  1  6  0  0  0
 23 24  1  0  0  0  0
 24  5  1  0  0  0  0
 26 23  1  0  0  0  0
 27 28  1  0  0  0  0
 27 26  1  0  0  0  0
 28 30  1  0  0  0  0
 29 32  1  0  0  0  0
 30 29  1  0  0  0  0
 31 30  2  0  0  0  0
 32 33  1  0  0  0  0
 33 34  1  6  0  0  0
 33 35  1  0  0  0  0
 35 36  1  0  0  0  0
 37  2  1  0  0  0  0
 37 38  1  0  0  0  0
M  END
>  <MODEL>
8

>  <REMARK>
 VINA RESULT:      -7.4      3.365      8.017
  Name = 
  9 active torsions:
  status: ('A' for Active; 'I' for Inactive)
    1  A    between atoms: C_2  and  N_17
    2  A    between atoms: C_6  and  C_15
    3  A    between atoms: C_7  and  N_8
    4  A    between atoms: C_7  and  C_23
    5  A    between atoms: C_15  and  C_25
    6  A    between atoms: N_19  and  C_38
    7  A    between atoms: C_23  and  C_29
    8  A    between atoms: C_25  and  N_28
    9  A    between atoms: C_29  and  C_38
                            x       y       z     vdW  Elec       q    Type
                         _______ _______ _______ _____ _____    ______ ____

>  <TORSDO>
F 9

$$$$
=
 OpenBabel10222421013D

 38 41  0  0  1  0  0  0  0  0999 V2000
  185.0640  178.4300  140.0720 C   0  0  0  0  0  0  0  0  0  0  0  0
  184.9800  178.6170  144.6570 C   0  0  0  0  0  0  0  0  0  0  0  0
  184.0090  178.3290  141.0440 N   0  0  0  0  0  0  0  0  0  0  0  0
  186.9160  178.7680  143.1690 C   0  0  0  0  0  3  0  0  0  0  0  0
  186.3610  178.5700  140.6960 N   0  0  0  0  0  0  0  0  0  0  0  0
  183.2780  176.5070  136.6660 S   0  0  0  0  0  0  0  0  0  0  0  0
  183.3820  178.7560  138.3330 C   0  0  0  0  0  0  0  0  0  0  0  0
  181.4130  178.6260  137.2420 C   0  0  0  0  0  0  0  0  0  0  0  0
  186.0480  178.5850  142.0880 C   0  0  0  0  0  0  0  0  0  0  0  0
  186.3650  176.6080  136.8310 C   0  0  0  0  0  2  0  0  0  0  0  0
  185.7270  176.7550  135.4490 C   0  0  0  0  0  2  0  0  0  0  0  0
  186.8790  177.9330  137.3790 C   0  0  0  0  0  2  0  0  0  0  0  0
  182.5400  179.9040  138.7940 C   0  0  0  0  0  2  0  0  0  0  0  0
  181.2720  179.6820  138.0260 C   0  0  0  0  0  3  0  0  0  0  0  0
  184.6980  178.4400  142.2780 C   0  0  0  0  0  0  0  0  0  0  0  0
  180.1490  177.9950  136.1960 Cl  0  0  0  0  0  0  0  0  0  0  0  0
  184.1270  178.4560  143.5490 C   0  0  0  0  0  3  0  0  0  0  0  0
  182.7180  178.0310  137.4370 C   0  0  0  0  0  0  0  0  0  0  0  0
  185.7910  178.8280  137.7600 N   0  0  0  0  0  2  0  0  0  0  0  0
  184.3500  177.4020  135.5050 C   0  0  0  0  0  2  0  0  0  0  0  0
  184.7860  178.5560  138.7520 C   0  0  1  0  0  3  0  0  0  0  0  0
  186.3690  178.7760  144.4590 C   0  0  0  0  0  3  0  0  0  0  0  0
  188.4860  177.3950  140.5590 C   0  0  1  0  0  3  0  0  0  0  0  0
  187.6420  178.3300  140.0970 C   0  0  0  0  0  2  0  0  0  0  0  0
  188.9070  178.2570  140.9260 C   0  0  0  0  0  1  0  0  0  0  0  0
  189.2720  176.7450  141.2300 C   0  0  0  0  0  2  0  0  0  0  0  0
  190.5840  176.6390  141.9840 C   0  0  0  0  0  2  0  0  0  0  0  0
  190.9810  177.9500  142.4770 N   0  0  0  0  0  2  0  0  0  0  0  0
  189.8550  177.6080  144.6670 N   0  0  0  0  0  2  0  0  0  0  0  0
  190.7580  178.3480  143.8300 C   0  0  0  0  0  0  0  0  0  0  0  0
  191.3330  179.3800  144.2680 O   0  0  0  0  0  0  0  0  0  0  0  0
  189.5740  177.9680  146.0540 C   0  0  0  0  0  2  0  0  0  0  0  0
  189.6560  176.7470  146.9610 C   0  0  2  0  0  3  0  0  0  0  0  0
  188.3030  176.7960  148.1250 Cl  0  0  0  0  0  0  0  0  0  0  0  0
  190.9830  176.7280  147.7110 C   0  0  0  0  0  2  0  0  0  0  0  0
  192.0440  176.0450  146.8690 C   0  0  0  0  0  1  0  0  0  0  0  0
  184.4610  178.6300  145.9890 N   0  0  0  0  0  2  0  0  0  0  0  0
  185.3070  178.7310  147.1700 C   0  0  0  0  0  1  0  0  0  0  0  0
  1  5  1  0  0  0  0
  1  3  2  0  0  0  0
  2 37  1  0  0  0  0
  3 15  1  0  0  0  0
  4 22  2  0  0  0  0
  5  9  1  0  0  0  0
  6 18  1  0  0  0  0
  7 21  1  0  0  0  0
  7 13  1  0  0  0  0
  8 18  1  0  0  0  0
  8 14  2  0  0  0  0
  9 15  2  0  0  0  0
  9  4  1  0  0  0  0
 10 12  1  0  0  0  0
 11 20  1  0  0  0  0
 11 10  1  0  0  0  0
 12 19  1  0  0  0  0
 14 13  1  0  0  0  0
 15 17  1  0  0  0  0
 16  8  1  0  0  0  0
 17  2  2  0  0  0  0
 18  7  2  0  0  0  0
 19 21  1  0  0  0  0
 20  6  1  0  0  0  0
 21  1  1  1  0  0  0
 22  2  1  0  0  0  0
 23 25  1  6  0  0  0
 23 26  1  0  0  0  0
 24 23  1  0  0  0  0
 24  5  1  0  0  0  0
 26 27  1  0  0  0  0
 27 28  1  0  0  0  0
 28 30  1  0  0  0  0
 29 32  1  0  0  0  0
 30 31  2  0  0  0  0
 30 29  1  0  0  0  0
 32 33  1  0  0  0  0
 33 35  1  0  0  0  0
 33 34  1  1  0  0  0
 36 35  1  0  0  0  0
 37 38  1  0  0  0  0
M  END
>  <MODEL>
9

>  <REMARK>
 VINA RESULT:      -7.3      2.976      6.107
  Name = 
  9 active torsions:
  status: ('A' for Active; 'I' for Inactive)
    1  A    between atoms: C_2  and  N_17
    2  A    between atoms: C_6  and  C_15
    3  A    between atoms: C_7  and  N_8
    4  A    between atoms: C_7  and  C_23
    5  A    between atoms: C_15  and  C_25
    6  A    between atoms: N_19  and  C_38
    7  A    between atoms: C_23  and  C_29
    8  A    between atoms: C_25  and  N_28
    9  A    between atoms: C_29  and  C_38
                            x       y       z     vdW  Elec       q    Type
                         _______ _______ _______ _____ _____    ______ ____

>  <TORSDO>
F 9

$$$$
