=
 OpenBabel10222420343D

 41 45  0  0  1  0  0  0  0  0999 V2000
  183.7240  177.9770  142.3590 C   0  0  0  0  0  3  0  0  0  0  0  0
  185.0820  179.3740  141.1480 C   0  0  0  0  0  3  0  0  0  0  0  0
  184.3660  178.7150  140.2520 C   0  0  0  0  0  0  0  0  0  0  0  0
  184.6740  178.8910  142.4570 C   0  0  0  0  0  0  0  0  0  0  0  0
  183.4270  177.7450  140.9130 C   0  0  2  0  0  3  0  0  0  0  0  0
  179.4420  176.3790  138.4810 N   0  0  0  0  0  0  0  0  0  0  0  0
  180.6530  175.5750  138.2640 C   0  0  0  0  0  2  0  0  0  0  0  0
  181.2560  178.8960  141.3280 C   0  0  0  0  0  3  0  0  0  0  0  0
  181.9830  178.0330  140.5970 C   0  0  0  0  0  0  0  0  0  0  0  0
  179.8030  179.1860  141.0220 C   0  0  0  0  0  2  0  0  0  0  0  0
  179.9340  177.6080  139.0970 C   0  0  2  0  0  3  0  0  0  0  0  0
  178.9310  176.7370  137.1670 C   0  0  0  0  0  1  0  0  0  0  0  0
  181.7020  176.1420  139.0940 N   0  0  0  0  0  2  0  0  0  0  0  0
  181.3020  177.2770  139.5320 C   0  0  2  0  0  3  0  0  0  0  0  0
  179.1170  178.0000  140.3270 C   0  0  0  0  0  2  0  0  0  0  0  0
  185.1990  179.4060  143.7510 C   0  0  0  0  0  2  0  0  0  0  0  0
  184.3650  178.8640  144.8990 C   0  0  0  0  0  2  0  0  0  0  0  0
  185.2510  179.0200  147.1050 O   0  0  0  0  0  1  0  0  0  0  0  0
  185.2640  178.2360  145.9510 C   0  0  2  0  0  3  0  0  0  0  0  0
  186.6590  178.1430  145.4390 C   0  0  0  0  0  3  0  0  0  0  0  0
  187.6880  178.1560  146.2750 C   0  0  0  0  0  3  0  0  0  0  0  0
  189.9790  177.1660  146.3420 C   0  0  0  0  0  0  0  0  0  0  0  0
  189.6800  176.4670  147.3520 O   0  0  0  0  0  0  0  0  0  0  0  0
  189.0170  178.0540  145.7710 N   0  0  0  0  0  2  0  0  0  0  0  0
  191.2530  177.0850  145.7730 O   0  0  0  0  0  0  0  0  0  0  0  0
  191.7310  175.9060  145.1340 C   0  0  0  0  0  2  0  0  0  0  0  0
  190.3630  175.6570  143.1950 O   0  0  0  0  0  0  0  0  0  0  0  0
  191.8980  177.3690  143.2520 O   0  0  0  0  0  0  0  0  0  0  0  0
  190.1030  176.4700  142.0930 C   0  0  0  0  0  2  0  0  0  0  0  0
  191.6400  176.0440  143.6250 C   0  0  0  0  0  3  0  0  0  0  0  0
  191.1510  177.5440  142.0910 C   0  0  0  0  0  2  0  0  0  0  0  0
  184.5110  178.9480  138.7790 C   0  0  0  0  0  2  0  0  0  0  0  0
  185.2150  177.7930  138.0850 C   0  0  0  0  0  2  0  0  0  0  0  0
  187.3350  175.5020  136.3940 O   0  0  0  0  0  1  0  0  0  0  0  0
  187.8070  176.8060  136.5380 C   0  0  2  0  0  3  0  0  0  0  0  0
  187.6330  177.2560  137.9790 C   0  0  2  0  0  3  0  0  0  0  0  0
  186.7300  177.7860  136.1100 C   0  0  0  0  0  2  0  0  0  0  0  0
  186.5630  178.2430  137.5500 C   0  0  1  0  0  3  0  0  0  0  0  0
  188.9620  179.5610  137.5930 O   0  0  0  0  0  1  0  0  0  0  0  0
  188.4280  178.8990  140.0190 O   0  0  0  0  0  1  0  0  0  0  0  0
  189.1410  178.1660  138.6130 P   0  0  0  0  0  0  0  0  0  0  0  0
  1  4  2  0  0  0  0
  2  4  1  0  0  0  0
  3  5  1  0  0  0  0
  3  2  2  0  0  0  0
  4 16  1  0  0  0  0
  5  9  1  1  0  0  0
  5  1  1  0  0  0  0
  6 11  1  0  0  0  0
  7  6  1  0  0  0  0
  7 13  1  0  0  0  0
  9  8  2  0  0  0  0
 10  8  1  0  0  0  0
 11 14  1  0  0  0  0
 11 15  1  1  0  0  0
 12  6  1  0  0  0  0
 14 13  1  1  0  0  0
 14  9  1  0  0  0  0
 15 10  1  0  0  0  0
 16 17  1  0  0  0  0
 17 19  1  0  0  0  0
 19 18  1  1  0  0  0
 20 19  1  0  0  0  0
 20 21  2  0  0  0  0
 22 23  2  0  0  0  0
 24 21  1  0  0  0  0
 24 22  1  0  0  0  0
 25 22  1  0  0  0  0
 26 25  1  0  0  0  0
 27 30  1  0  0  0  0
 28 30  1  0  0  0  0
 29 27  1  0  0  0  0
 30 26  1  0  0  0  0
 31 29  1  0  0  0  0
 31 28  1  0  0  0  0
 32  3  1  0  0  0  0
 33 32  1  0  0  0  0
 35 34  1  1  0  0  0
 35 36  1  0  0  0  0
 36 41  1  6  0  0  0
 37 35  1  0  0  0  0
 37 38  1  0  0  0  0
 38 36  1  0  0  0  0
 38 33  1  1  0  0  0
 39 41  1  0  0  0  0
 41 40  1  0  0  0  0
M  END
>  <MODEL>
1

>  <REMARK>
 VINA RESULT:      -7.9      0.000      0.000
  Name = 
  13 active torsions:
  status: ('A' for Active; 'I' for Inactive)
    1  A    between atoms: C_1  and  C_20
    2  A    between atoms: C_1  and  C_33
    3  A    between atoms: C_5  and  C_15
    4  A    between atoms: C_5  and  C_36
    5  A    between atoms: C_10  and  C_15
    6  A    between atoms: C_12  and  O_28
    7  A    between atoms: C_12  and  C_34
    8  A    between atoms: C_13  and  C_22
    9  A    between atoms: C_14  and  O_28
   10  A    between atoms: C_24  and  P_25
   11  A    between atoms: C_33  and  C_41
   12  A    between atoms: N_35  and  C_40
   13  A    between atoms: C_37  and  C_41
                            x       y       z     vdW  Elec       q    Type
                         _______ _______ _______ _____ _____    ______ ____

>  <TORSDO>
F 13

$$$$
=
 OpenBabel10222420343D

 41 45  0  0  1  0  0  0  0  0999 V2000
  188.6110  176.5070  142.9200 C   0  0  0  0  0  3  0  0  0  0  0  0
  187.3940  178.2840  142.1300 C   0  0  0  0  0  3  0  0  0  0  0  0
  186.7750  177.8950  143.2320 C   0  0  0  0  0  0  0  0  0  0  0  0
  188.5320  177.3980  141.9460 C   0  0  0  0  0  0  0  0  0  0  0  0
  187.4680  176.7170  143.8580 C   0  0  2  0  0  3  0  0  0  0  0  0
  191.2900  177.1690  146.8330 N   0  0  0  0  0  0  0  0  0  0  0  0
  191.5780  176.7740  145.4470 C   0  0  0  0  0  2  0  0  0  0  0  0
  187.1490  177.5650  146.1800 C   0  0  0  0  0  3  0  0  0  0  0  0
  187.9500  177.0070  145.2550 C   0  0  0  0  0  0  0  0  0  0  0  0
  187.6270  177.8670  147.5820 C   0  0  0  0  0  2  0  0  0  0  0  0
  189.8570  176.9300  146.9820 C   0  0  2  0  0  3  0  0  0  0  0  0
  191.9730  176.2180  147.6960 C   0  0  0  0  0  1  0  0  0  0  0  0
  190.3100  176.7200  144.7410 N   0  0  0  0  0  2  0  0  0  0  0  0
  189.3640  176.7860  145.6020 C   0  0  2  0  0  3  0  0  0  0  0  0
  189.1420  178.1150  147.6300 C   0  0  0  0  0  2  0  0  0  0  0  0
  189.5290  177.5160  140.8470 C   0  0  0  0  0  2  0  0  0  0  0  0
  188.8820  178.1500  139.6280 C   0  0  0  0  0  2  0  0  0  0  0  0
  187.8420  176.5620  138.1900 O   0  0  0  0  0  1  0  0  0  0  0  0
  189.0370  177.2430  138.4180 C   0  0  2  0  0  3  0  0  0  0  0  0
  190.1250  176.2550  138.6610 C   0  0  0  0  0  3  0  0  0  0  0  0
  190.8940  175.8390  137.6640 C   0  0  0  0  0  3  0  0  0  0  0  0
  193.3170  175.2500  137.7680 C   0  0  0  0  0  0  0  0  0  0  0  0
  193.6460  176.4030  137.3690 O   0  0  0  0  0  0  0  0  0  0  0  0
  191.9390  174.9030  137.9130 N   0  0  0  0  0  2  0  0  0  0  0  0
  194.2940  174.2950  138.0680 O   0  0  0  0  0  0  0  0  0  0  0  0
  195.6670  174.4780  137.7380 C   0  0  0  0  0  2  0  0  0  0  0  0
  197.8780  174.5460  138.6350 O   0  0  0  0  0  0  0  0  0  0  0  0
  196.1230  175.1980  139.9710 O   0  0  0  0  0  0  0  0  0  0  0  0
  198.4320  175.1140  139.7800 C   0  0  0  0  0  2  0  0  0  0  0  0
  196.5370  174.3100  138.9710 C   0  0  0  0  0  3  0  0  0  0  0  0
  197.2860  175.4720  140.6820 C   0  0  0  0  0  2  0  0  0  0  0  0
  185.5460  178.5800  143.7470 C   0  0  0  0  0  2  0  0  0  0  0  0
  184.7430  179.2270  142.6290 C   0  0  0  0  0  2  0  0  0  0  0  0
  183.1470  179.5460  139.4740 O   0  0  0  0  0  1  0  0  0  0  0  0
  182.6040  178.6180  140.3630 C   0  0  2  0  0  3  0  0  0  0  0  0
  182.4330  179.2600  141.7290 C   0  0  2  0  0  3  0  0  0  0  0  0
  183.7090  177.7410  140.9210 C   0  0  0  0  0  2  0  0  0  0  0  0
  183.5320  178.3760  142.2900 C   0  0  1  0  0  3  0  0  0  0  0  0
  180.3250  180.4490  142.8990 O   0  0  0  0  0  1  0  0  0  0  0  0
  179.8340  178.7290  141.0540 O   0  0  0  0  0  1  0  0  0  0  0  0
  180.7860  178.8220  142.5060 P   0  0  0  0  0  0  0  0  0  0  0  0
  1  5  1  0  0  0  0
  2  3  2  0  0  0  0
  3 32  1  0  0  0  0
  3  5  1  0  0  0  0
  4  2  1  0  0  0  0
  4  1  2  0  0  0  0
  5  9  1  1  0  0  0
  6 11  1  0  0  0  0
  6 12  1  0  0  0  0
  7  6  1  0  0  0  0
  8 10  1  0  0  0  0
  9 14  1  0  0  0  0
  9  8  2  0  0  0  0
 10 15  1  0  0  0  0
 11 15  1  6  0  0  0
 13  7  1  0  0  0  0
 14 13  1  6  0  0  0
 14 11  1  0  0  0  0
 16  4  1  0  0  0  0
 17 16  1  0  0  0  0
 19 18  1  1  0  0  0
 19 20  1  0  0  0  0
 19 17  1  0  0  0  0
 21 24  1  0  0  0  0
 21 20  2  0  0  0  0
 22 24  1  0  0  0  0
 22 25  1  0  0  0  0
 23 22  2  0  0  0  0
 26 25  1  0  0  0  0
 26 30  1  0  0  0  0
 27 30  1  0  0  0  0
 27 29  1  0  0  0  0
 28 31  1  0  0  0  0
 29 31  1  0  0  0  0
 30 28  1  0  0  0  0
 33 32  1  0  0  0  0
 35 34  1  6  0  0  0
 35 37  1  0  0  0  0
 35 36  1  0  0  0  0
 36 38  1  0  0  0  0
 36 41  1  1  0  0  0
 37 38  1  0  0  0  0
 38 33  1  6  0  0  0
 40 41  1  0  0  0  0
 41 39  1  0  0  0  0
M  END
>  <MODEL>
2

>  <REMARK>
 VINA RESULT:      -7.8      4.406      8.728
  Name = 
  13 active torsions:
  status: ('A' for Active; 'I' for Inactive)
    1  A    between atoms: C_1  and  C_20
    2  A    between atoms: C_1  and  C_33
    3  A    between atoms: C_5  and  C_15
    4  A    between atoms: C_5  and  C_36
    5  A    between atoms: C_10  and  C_15
    6  A    between atoms: C_12  and  O_28
    7  A    between atoms: C_12  and  C_34
    8  A    between atoms: C_13  and  C_22
    9  A    between atoms: C_14  and  O_28
   10  A    between atoms: C_24  and  P_25
   11  A    between atoms: C_33  and  C_41
   12  A    between atoms: N_35  and  C_40
   13  A    between atoms: C_37  and  C_41
                            x       y       z     vdW  Elec       q    Type
                         _______ _______ _______ _____ _____    ______ ____

>  <TORSDO>
F 13

$$$$
=
 OpenBabel10222420343D

 41 45  0  0  1  0  0  0  0  0999 V2000
  189.5450  176.6430  141.5480 C   0  0  0  0  0  3  0  0  0  0  0  0
  188.0320  178.3220  141.1550 C   0  0  0  0  0  3  0  0  0  0  0  0
  187.7220  177.8410  142.3470 C   0  0  0  0  0  0  0  0  0  0  0  0
  189.1660  177.5550  140.6670 C   0  0  0  0  0  0  0  0  0  0  0  0
  188.6390  176.7140  142.7330 C   0  0  2  0  0  3  0  0  0  0  0  0
  188.4690  177.3110  147.5570 N   0  0  0  0  0  0  0  0  0  0  0  0
  187.1870  177.0750  146.8780 C   0  0  0  0  0  2  0  0  0  0  0  0
  190.7510  176.9300  144.0390 C   0  0  0  0  0  3  0  0  0  0  0  0
  189.4090  177.0030  143.9950 C   0  0  0  0  0  0  0  0  0  0  0  0
  191.5310  177.2120  145.3040 C   0  0  0  0  0  2  0  0  0  0  0  0
  189.3820  177.6770  146.4790 C   0  0  2  0  0  3  0  0  0  0  0  0
  188.2960  178.4920  148.3890 C   0  0  0  0  0  1  0  0  0  0  0  0
  187.4730  176.9070  145.4640 N   0  0  0  0  0  2  0  0  0  0  0  0
  188.6840  177.2630  145.2500 C   0  0  2  0  0  3  0  0  0  0  0  0
  190.7040  176.9150  146.5640 C   0  0  0  0  0  2  0  0  0  0  0  0
  189.8650  177.8030  139.3760 C   0  0  0  0  0  2  0  0  0  0  0  0
  189.1440  177.0800  138.2510 C   0  0  0  0  0  2  0  0  0  0  0  0
  188.8120  179.3790  137.7250 O   0  0  0  0  0  1  0  0  0  0  0  0
  188.5300  178.0840  137.2890 C   0  0  2  0  0  3  0  0  0  0  0  0
  187.0540  177.8980  137.2330 C   0  0  0  0  0  3  0  0  0  0  0  0
  186.2970  178.1770  138.2850 C   0  0  0  0  0  3  0  0  0  0  0  0
  183.9750  178.9800  138.7270 C   0  0  0  0  0  0  0  0  0  0  0  0
  184.4100  180.0150  139.3050 O   0  0  0  0  0  0  0  0  0  0  0  0
  184.8840  178.0060  138.2120 N   0  0  0  0  0  2  0  0  0  0  0  0
  182.6000  178.7690  138.5860 O   0  0  0  0  0  0  0  0  0  0  0  0
  181.8620  179.2560  137.4700 C   0  0  0  0  0  2  0  0  0  0  0  0
  179.9970  179.3080  138.9570 O   0  0  0  0  0  0  0  0  0  0  0  0
  181.0130  181.2920  138.3890 O   0  0  0  0  0  0  0  0  0  0  0  0
  179.4570  180.2900  139.7850 C   0  0  0  0  0  2  0  0  0  0  0  0
  180.6370  180.0220  137.9340 C   0  0  0  0  0  3  0  0  0  0  0  0
  180.0680  181.5940  139.3630 C   0  0  0  0  0  2  0  0  0  0  0  0
  186.5940  178.3890  143.1670 C   0  0  0  0  0  2  0  0  0  0  0  0
  185.2370  178.0230  142.5860 C   0  0  0  0  0  2  0  0  0  0  0  0
  184.0660  178.6340  145.8800 O   0  0  0  0  0  1  0  0  0  0  0  0
  183.5570  179.4510  144.8710 C   0  0  2  0  0  3  0  0  0  0  0  0
  183.0990  178.5930  143.7030 C   0  0  2  0  0  3  0  0  0  0  0  0
  184.6980  179.9820  144.0230 C   0  0  0  0  0  2  0  0  0  0  0  0
  184.2340  179.1320  142.8530 C   0  0  1  0  0  3  0  0  0  0  0  0
  181.4300  178.0940  141.6550 O   0  0  0  0  0  1  0  0  0  0  0  0
  180.4100  178.1810  144.0130 O   0  0  0  0  0  1  0  0  0  0  0  0
  181.4490  179.1630  143.0240 P   0  0  0  0  0  0  0  0  0  0  0  0
  1  5  1  0  0  0  0
  2  3  2  0  0  0  0
  3  5  1  0  0  0  0
  3 32  1  0  0  0  0
  4  2  1  0  0  0  0
  4  1  2  0  0  0  0
  5  9  1  1  0  0  0
  6 12  1  0  0  0  0
  7  6  1  0  0  0  0
  8 10  1  0  0  0  0
  9  8  2  0  0  0  0
 10 15  1  0  0  0  0
 11 15  1  1  0  0  0
 11  6  1  0  0  0  0
 13  7  1  0  0  0  0
 14  9  1  1  0  0  0
 14 13  1  0  0  0  0
 14 11  1  0  0  0  0
 16  4  1  0  0  0  0
 17 16  1  0  0  0  0
 19 18  1  1  0  0  0
 19 17  1  0  0  0  0
 20 19  1  0  0  0  0
 20 21  2  0  0  0  0
 22 23  2  0  0  0  0
 24 21  1  0  0  0  0
 24 22  1  0  0  0  0
 25 22  1  0  0  0  0
 26 30  1  0  0  0  0
 26 25  1  0  0  0  0
 27 29  1  0  0  0  0
 28 31  1  0  0  0  0
 30 28  1  0  0  0  0
 30 27  1  0  0  0  0
 31 29  1  0  0  0  0
 33 32  1  0  0  0  0
 35 34  1  1  0  0  0
 36 41  1  6  0  0  0
 36 35  1  0  0  0  0
 37 35  1  0  0  0  0
 38 33  1  1  0  0  0
 38 36  1  0  0  0  0
 38 37  1  0  0  0  0
 39 41  1  0  0  0  0
 41 40  1  0  0  0  0
M  END
>  <MODEL>
3

>  <REMARK>
 VINA RESULT:      -7.6      3.369      9.661
  Name = 
  13 active torsions:
  status: ('A' for Active; 'I' for Inactive)
    1  A    between atoms: C_1  and  C_20
    2  A    between atoms: C_1  and  C_33
    3  A    between atoms: C_5  and  C_15
    4  A    between atoms: C_5  and  C_36
    5  A    between atoms: C_10  and  C_15
    6  A    between atoms: C_12  and  O_28
    7  A    between atoms: C_12  and  C_34
    8  A    between atoms: C_13  and  C_22
    9  A    between atoms: C_14  and  O_28
   10  A    between atoms: C_24  and  P_25
   11  A    between atoms: C_33  and  C_41
   12  A    between atoms: N_35  and  C_40
   13  A    between atoms: C_37  and  C_41
                            x       y       z     vdW  Elec       q    Type
                         _______ _______ _______ _____ _____    ______ ____

>  <TORSDO>
F 13

$$$$
=
 OpenBabel10222420343D

 41 45  0  0  1  0  0  0  0  0999 V2000
  183.2160  178.7890  142.2060 C   0  0  0  0  0  3  0  0  0  0  0  0
  181.0590  179.1130  142.9180 C   0  0  0  0  0  3  0  0  0  0  0  0
  181.0150  179.2220  141.6020 C   0  0  0  0  0  0  0  0  0  0  0  0
  182.4430  178.8530  143.2780 C   0  0  0  0  0  0  0  0  0  0  0  0
  182.3780  179.0390  140.9950 C   0  0  2  0  0  3  0  0  0  0  0  0
  184.8420  176.7890  137.4550 N   0  0  0  0  0  0  0  0  0  0  0  0
  185.4100  178.0500  137.9520 C   0  0  0  0  0  2  0  0  0  0  0  0
  181.6390  176.7990  140.1880 C   0  0  0  0  0  3  0  0  0  0  0  0
  182.4320  177.8750  140.0400 C   0  0  0  0  0  0  0  0  0  0  0  0
  181.6920  175.6230  139.2390 C   0  0  0  0  0  2  0  0  0  0  0  0
  183.4660  176.8000  137.9420 C   0  0  2  0  0  3  0  0  0  0  0  0
  184.7820  176.8940  136.0050 C   0  0  0  0  0  1  0  0  0  0  0  0
  184.5330  178.5320  139.0060 N   0  0  0  0  0  2  0  0  0  0  0  0
  183.4520  177.8470  138.9770 C   0  0  2  0  0  3  0  0  0  0  0  0
  183.0770  175.4720  138.5910 C   0  0  0  0  0  2  0  0  0  0  0  0
  182.9290  178.6140  144.6650 C   0  0  0  0  0  2  0  0  0  0  0  0
  184.2990  179.2440  144.8480 C   0  0  0  0  0  2  0  0  0  0  0  0
  185.3880  179.2540  146.9660 O   0  0  0  0  0  1  0  0  0  0  0  0
  185.1110  178.4510  145.8590 C   0  0  2  0  0  3  0  0  0  0  0  0
  186.3910  178.0040  145.2460 C   0  0  0  0  0  3  0  0  0  0  0  0
  186.5320  177.9670  143.9280 C   0  0  0  0  0  3  0  0  0  0  0  0
  188.1120  177.8400  141.9990 C   0  0  0  0  0  0  0  0  0  0  0  0
  187.2970  178.4510  141.2520 O   0  0  0  0  0  0  0  0  0  0  0  0
  187.7680  177.5490  143.3550 N   0  0  0  0  0  2  0  0  0  0  0  0
  189.3590  177.4360  141.5120 O   0  0  0  0  0  0  0  0  0  0  0  0
  190.0610  176.3180  142.0440 C   0  0  0  0  0  2  0  0  0  0  0  0
  191.3290  178.1690  142.8580 O   0  0  0  0  0  0  0  0  0  0  0  0
  190.8930  176.4160  144.2820 O   0  0  0  0  0  0  0  0  0  0  0  0
  191.7270  178.5740  144.1300 C   0  0  0  0  0  2  0  0  0  0  0  0
  191.1800  176.7780  142.9600 C   0  0  0  0  0  3  0  0  0  0  0  0
  191.5100  177.4020  145.0430 C   0  0  0  0  0  2  0  0  0  0  0  0
  179.7410  179.4910  140.8600 C   0  0  0  0  0  2  0  0  0  0  0  0
  179.5550  180.9710  140.5640 C   0  0  0  0  0  2  0  0  0  0  0  0
  182.3080  181.1550  138.3300 O   0  0  0  0  0  1  0  0  0  0  0  0
  181.0370  181.2940  137.7740 C   0  0  2  0  0  3  0  0  0  0  0  0
  180.2320  182.2990  138.5820 C   0  0  2  0  0  3  0  0  0  0  0  0
  180.1370  180.1810  138.2770 C   0  0  0  0  0  2  0  0  0  0  0  0
  179.3270  181.1860  139.0780 C   0  0  1  0  0  3  0  0  0  0  0  0
  180.3190  184.8430  137.7200 O   0  0  0  0  0  1  0  0  0  0  0  0
  179.9600  183.0110  135.9540 O   0  0  0  0  0  1  0  0  0  0  0  0
  179.2760  183.4750  137.4830 P   0  0  0  0  0  0  0  0  0  0  0  0
  1  4  2  0  0  0  0
  2  4  1  0  0  0  0
  3  2  2  0  0  0  0
  4 16  1  0  0  0  0
  5  9  1  6  0  0  0
  5  3  1  0  0  0  0
  5  1  1  0  0  0  0
  6 11  1  0  0  0  0
  6  7  1  0  0  0  0
  7 13  1  0  0  0  0
  9  8  2  0  0  0  0
 10  8  1  0  0  0  0
 11 15  1  1  0  0  0
 11 14  1  0  0  0  0
 12  6  1  0  0  0  0
 14 13  1  1  0  0  0
 14  9  1  0  0  0  0
 15 10  1  0  0  0  0
 16 17  1  0  0  0  0
 17 19  1  0  0  0  0
 19 18  1  1  0  0  0
 20 19  1  0  0  0  0
 21 20  2  0  0  0  0
 22 24  1  0  0  0  0
 23 22  2  0  0  0  0
 24 21  1  0  0  0  0
 25 22  1  0  0  0  0
 25 26  1  0  0  0  0
 26 30  1  0  0  0  0
 27 30  1  0  0  0  0
 27 29  1  0  0  0  0
 28 31  1  0  0  0  0
 29 31  1  0  0  0  0
 30 28  1  0  0  0  0
 32  3  1  0  0  0  0
 33 32  1  0  0  0  0
 35 37  1  0  0  0  0
 35 34  1  1  0  0  0
 35 36  1  0  0  0  0
 36 41  1  6  0  0  0
 36 38  1  0  0  0  0
 37 38  1  0  0  0  0
 38 33  1  1  0  0  0
 40 41  1  0  0  0  0
 41 39  1  0  0  0  0
M  END
>  <MODEL>
4

>  <REMARK>
 VINA RESULT:      -7.5      3.548      5.215
  Name = 
  13 active torsions:
  status: ('A' for Active; 'I' for Inactive)
    1  A    between atoms: C_1  and  C_20
    2  A    between atoms: C_1  and  C_33
    3  A    between atoms: C_5  and  C_15
    4  A    between atoms: C_5  and  C_36
    5  A    between atoms: C_10  and  C_15
    6  A    between atoms: C_12  and  O_28
    7  A    between atoms: C_12  and  C_34
    8  A    between atoms: C_13  and  C_22
    9  A    between atoms: C_14  and  O_28
   10  A    between atoms: C_24  and  P_25
   11  A    between atoms: C_33  and  C_41
   12  A    between atoms: N_35  and  C_40
   13  A    between atoms: C_37  and  C_41
                            x       y       z     vdW  Elec       q    Type
                         _______ _______ _______ _____ _____    ______ ____

>  <TORSDO>
F 13

$$$$
=
 OpenBabel10222420343D

 41 45  0  0  1  0  0  0  0  0999 V2000
  188.4100  176.5120  143.0990 C   0  0  0  0  0  3  0  0  0  0  0  0
  187.1170  178.2640  142.3750 C   0  0  0  0  0  3  0  0  0  0  0  0
  186.5700  177.8700  143.5120 C   0  0  0  0  0  0  0  0  0  0  0  0
  188.2580  177.3980  142.1280 C   0  0  0  0  0  0  0  0  0  0  0  0
  187.3190  176.7060  144.1010 C   0  0  2  0  0  3  0  0  0  0  0  0
  191.2980  177.1940  146.8570 N   0  0  0  0  0  0  0  0  0  0  0  0
  191.5110  176.7860  145.4610 C   0  0  0  0  0  2  0  0  0  0  0  0
  187.1270  177.5760  146.4280 C   0  0  0  0  0  3  0  0  0  0  0  0
  187.8770  177.0110  145.4670 C   0  0  0  0  0  0  0  0  0  0  0  0
  187.6810  177.8930  147.8000 C   0  0  0  0  0  2  0  0  0  0  0  0
  189.8770  176.9530  147.0870 C   0  0  2  0  0  3  0  0  0  0  0  0
  192.0300  176.2520  147.6890 C   0  0  0  0  0  1  0  0  0  0  0  0
  190.2050  176.7230  144.8260 N   0  0  0  0  0  2  0  0  0  0  0  0
  189.3090  176.7950  145.7370 C   0  0  2  0  0  3  0  0  0  0  0  0
  189.1960  178.1440  147.7610 C   0  0  0  0  0  2  0  0  0  0  0  0
  189.1870  177.5290  140.9720 C   0  0  0  0  0  2  0  0  0  0  0  0
  188.6270  178.5230  139.9690 C   0  0  0  0  0  2  0  0  0  0  0  0
  188.9720  179.3280  137.7550 O   0  0  0  0  0  1  0  0  0  0  0  0
  189.1500  178.2150  138.5760 C   0  0  2  0  0  3  0  0  0  0  0  0
  188.4110  177.0580  137.9990 C   0  0  0  0  0  3  0  0  0  0  0  0
  187.2030  177.2210  137.4750 C   0  0  0  0  0  3  0  0  0  0  0  0
  185.1030  175.9370  137.0630 C   0  0  0  0  0  0  0  0  0  0  0  0
  184.4290  176.7630  137.7400 O   0  0  0  0  0  0  0  0  0  0  0  0
  186.5130  176.1070  136.9150 N   0  0  0  0  0  2  0  0  0  0  0  0
  184.4830  174.8420  136.4540 O   0  0  0  0  0  0  0  0  0  0  0  0
  185.2160  173.7270  135.9580 C   0  0  0  0  0  2  0  0  0  0  0  0
  183.4520  172.6270  137.1300 O   0  0  0  0  0  0  0  0  0  0  0  0
  184.7520  171.3980  135.6840 O   0  0  0  0  0  0  0  0  0  0  0  0
  182.8410  171.3820  136.9960 C   0  0  0  0  0  2  0  0  0  0  0  0
  184.7430  172.4430  136.6170 C   0  0  0  0  0  3  0  0  0  0  0  0
  183.7290  170.5570  136.1110 C   0  0  0  0  0  2  0  0  0  0  0  0
  185.3610  178.5350  144.0960 C   0  0  0  0  0  2  0  0  0  0  0  0
  184.5600  179.2870  143.0450 C   0  0  0  0  0  2  0  0  0  0  0  0
  183.3520  179.5290  139.7160 O   0  0  0  0  0  1  0  0  0  0  0  0
  182.6800  178.6510  140.5660 C   0  0  2  0  0  3  0  0  0  0  0  0
  182.3720  179.3490  141.8810 C   0  0  2  0  0  3  0  0  0  0  0  0
  183.6850  177.7660  141.2800 C   0  0  0  0  0  2  0  0  0  0  0  0
  183.3700  178.4580  142.5960 C   0  0  1  0  0  3  0  0  0  0  0  0
  181.0690  178.6050  144.1110 O   0  0  0  0  0  1  0  0  0  0  0  0
  180.1330  180.6160  142.8140 O   0  0  0  0  0  1  0  0  0  0  0  0
  180.6340  178.9870  142.4730 P   0  0  0  0  0  0  0  0  0  0  0  0
  1  5  1  0  0  0  0
  2  3  2  0  0  0  0
  3 32  1  0  0  0  0
  3  5  1  0  0  0  0
  4  2  1  0  0  0  0
  4  1  2  0  0  0  0
  5  9  1  1  0  0  0
  6 11  1  0  0  0  0
  6 12  1  0  0  0  0
  7  6  1  0  0  0  0
  8 10  1  0  0  0  0
  9 14  1  0  0  0  0
  9  8  2  0  0  0  0
 11 15  1  6  0  0  0
 13  7  1  0  0  0  0
 14 13  1  6  0  0  0
 14 11  1  0  0  0  0
 15 10  1  0  0  0  0
 16  4  1  0  0  0  0
 17 16  1  0  0  0  0
 19 18  1  6  0  0  0
 19 17  1  0  0  0  0
 20 19  1  0  0  0  0
 21 20  2  0  0  0  0
 22 23  2  0  0  0  0
 24 22  1  0  0  0  0
 24 21  1  0  0  0  0
 25 22  1  0  0  0  0
 26 25  1  0  0  0  0
 26 30  1  0  0  0  0
 28 31  1  0  0  0  0
 28 30  1  0  0  0  0
 29 27  1  0  0  0  0
 30 27  1  0  0  0  0
 31 29  1  0  0  0  0
 33 32  1  0  0  0  0
 35 34  1  6  0  0  0
 35 37  1  0  0  0  0
 35 36  1  0  0  0  0
 36 41  1  1  0  0  0
 36 38  1  0  0  0  0
 37 38  1  0  0  0  0
 38 33  1  6  0  0  0
 41 40  1  0  0  0  0
 41 39  1  0  0  0  0
M  END
>  <MODEL>
5

>  <REMARK>
 VINA RESULT:      -7.5      3.820      9.385
  Name = 
  13 active torsions:
  status: ('A' for Active; 'I' for Inactive)
    1  A    between atoms: C_1  and  C_20
    2  A    between atoms: C_1  and  C_33
    3  A    between atoms: C_5  and  C_15
    4  A    between atoms: C_5  and  C_36
    5  A    between atoms: C_10  and  C_15
    6  A    between atoms: C_12  and  O_28
    7  A    between atoms: C_12  and  C_34
    8  A    between atoms: C_13  and  C_22
    9  A    between atoms: C_14  and  O_28
   10  A    between atoms: C_24  and  P_25
   11  A    between atoms: C_33  and  C_41
   12  A    between atoms: N_35  and  C_40
   13  A    between atoms: C_37  and  C_41
                            x       y       z     vdW  Elec       q    Type
                         _______ _______ _______ _____ _____    ______ ____

>  <TORSDO>
F 13

$$$$
=
 OpenBabel10222420343D

 41 45  0  0  1  0  0  0  0  0999 V2000
  185.6940  179.7230  142.1920 C   0  0  0  0  0  3  0  0  0  0  0  0
  183.8970  178.3110  142.3930 C   0  0  0  0  0  3  0  0  0  0  0  0
  184.2590  178.2420  141.1230 C   0  0  0  0  0  0  0  0  0  0  0  0
  184.7990  179.2490  143.0420 C   0  0  0  0  0  0  0  0  0  0  0  0
  185.4340  179.1370  140.8430 C   0  0  2  0  0  3  0  0  0  0  0  0
  188.0200  177.7200  136.9740 N   0  0  0  0  0  0  0  0  0  0  0  0
  186.7990  178.4910  136.7020 C   0  0  0  0  0  2  0  0  0  0  0  0
  187.6240  177.9890  141.1580 C   0  0  0  0  0  3  0  0  0  0  0  0
  186.6310  178.3740  140.3370 C   0  0  0  0  0  0  0  0  0  0  0  0
  188.8330  177.2290  140.6570 C   0  0  0  0  0  2  0  0  0  0  0  0
  187.8680  177.2850  138.3590 C   0  0  2  0  0  3  0  0  0  0  0  0
  187.9600  176.5260  136.1440 C   0  0  0  0  0  1  0  0  0  0  0  0
  186.2040  178.8230  137.9850 N   0  0  0  0  0  2  0  0  0  0  0  0
  186.7880  178.1330  138.8930 C   0  0  2  0  0  3  0  0  0  0  0  0
  189.1310  177.5360  139.1810 C   0  0  0  0  0  2  0  0  0  0  0  0
  184.7730  179.5840  144.4920 C   0  0  0  0  0  2  0  0  0  0  0  0
  184.4060  178.3510  145.3010 C   0  0  0  0  0  2  0  0  0  0  0  0
  185.3930  179.4750  147.1550 O   0  0  0  0  0  1  0  0  0  0  0  0
  185.3060  178.2360  146.5200 C   0  0  2  0  0  3  0  0  0  0  0  0
  186.6690  177.8010  146.1070 C   0  0  0  0  0  3  0  0  0  0  0  0
  187.5610  177.4240  147.0130 C   0  0  0  0  0  3  0  0  0  0  0  0
  190.0300  177.3010  147.3580 C   0  0  0  0  0  0  0  0  0  0  0  0
  189.9490  178.0020  148.4060 O   0  0  0  0  0  0  0  0  0  0  0  0
  188.8570  176.9970  146.6020 N   0  0  0  0  0  2  0  0  0  0  0  0
  191.2670  176.8180  146.9190 O   0  0  0  0  0  0  0  0  0  0  0  0
  191.4210  176.1220  145.6870 C   0  0  0  0  0  2  0  0  0  0  0  0
  190.4170  177.2540  143.8410 O   0  0  0  0  0  0  0  0  0  0  0  0
  192.0520  178.3360  145.0440 O   0  0  0  0  0  0  0  0  0  0  0  0
  190.4320  178.5770  143.4030 C   0  0  0  0  0  2  0  0  0  0  0  0
  191.6210  177.1010  144.5440 C   0  0  0  0  0  3  0  0  0  0  0  0
  191.5490  179.2610  144.1370 C   0  0  0  0  0  2  0  0  0  0  0  0
  183.5530  177.3660  140.1330 C   0  0  0  0  0  2  0  0  0  0  0  0
  183.0700  178.1480  138.9220 C   0  0  0  0  0  2  0  0  0  0  0  0
  180.8610  179.7180  141.2140 O   0  0  0  0  0  1  0  0  0  0  0  0
  180.2780  178.9720  140.1900 C   0  0  2  0  0  3  0  0  0  0  0  0
  180.9540  177.6150  140.0990 C   0  0  2  0  0  3  0  0  0  0  0  0
  180.8980  179.3620  138.8610 C   0  0  0  0  0  2  0  0  0  0  0  0
  181.5670  178.0010  138.7650 C   0  0  1  0  0  3  0  0  0  0  0  0
  180.8720  174.9360  139.8860 O   0  0  0  0  0  1  0  0  0  0  0  0
  179.2310  176.0400  141.5270 O   0  0  0  0  0  1  0  0  0  0  0  0
  179.7140  176.2310  139.8690 P   0  0  0  0  0  0  0  0  0  0  0  0
  1  4  2  0  0  0  0
  2  4  1  0  0  0  0
  3  2  2  0  0  0  0
  4 16  1  0  0  0  0
  5  9  1  1  0  0  0
  5  3  1  0  0  0  0
  5  1  1  0  0  0  0
  6 11  1  0  0  0  0
  7  6  1  0  0  0  0
  7 13  1  0  0  0  0
  9  8  2  0  0  0  0
 10  8  1  0  0  0  0
 11 14  1  0  0  0  0
 11 15  1  1  0  0  0
 12  6  1  0  0  0  0
 14 13  1  6  0  0  0
 14  9  1  0  0  0  0
 15 10  1  0  0  0  0
 16 17  1  0  0  0  0
 17 19  1  0  0  0  0
 19 18  1  6  0  0  0
 20 19  1  0  0  0  0
 20 21  2  0  0  0  0
 22 23  2  0  0  0  0
 24 21  1  0  0  0  0
 24 22  1  0  0  0  0
 25 22  1  0  0  0  0
 26 25  1  0  0  0  0
 27 30  1  0  0  0  0
 29 27  1  0  0  0  0
 29 31  1  0  0  0  0
 30 28  1  0  0  0  0
 30 26  1  0  0  0  0
 31 28  1  0  0  0  0
 32  3  1  0  0  0  0
 33 32  1  0  0  0  0
 35 34  1  1  0  0  0
 36 41  1  6  0  0  0
 36 35  1  0  0  0  0
 37 35  1  0  0  0  0
 38 37  1  0  0  0  0
 38 33  1  1  0  0  0
 38 36  1  0  0  0  0
 41 39  1  0  0  0  0
 41 40  1  0  0  0  0
M  END
>  <MODEL>
6

>  <REMARK>
 VINA RESULT:      -7.4      3.206      5.422
  Name = 
  13 active torsions:
  status: ('A' for Active; 'I' for Inactive)
    1  A    between atoms: C_1  and  C_20
    2  A    between atoms: C_1  and  C_33
    3  A    between atoms: C_5  and  C_15
    4  A    between atoms: C_5  and  C_36
    5  A    between atoms: C_10  and  C_15
    6  A    between atoms: C_12  and  O_28
    7  A    between atoms: C_12  and  C_34
    8  A    between atoms: C_13  and  C_22
    9  A    between atoms: C_14  and  O_28
   10  A    between atoms: C_24  and  P_25
   11  A    between atoms: C_33  and  C_41
   12  A    between atoms: N_35  and  C_40
   13  A    between atoms: C_37  and  C_41
                            x       y       z     vdW  Elec       q    Type
                         _______ _______ _______ _____ _____    ______ ____

>  <TORSDO>
F 13

$$$$
=
 OpenBabel10222420343D

 41 45  0  0  1  0  0  0  0  0999 V2000
  188.6350  176.7540  142.9120 C   0  0  0  0  0  3  0  0  0  0  0  0
  187.1670  178.4020  142.2850 C   0  0  0  0  0  3  0  0  0  0  0  0
  186.6520  177.8700  143.3800 C   0  0  0  0  0  0  0  0  0  0  0  0
  188.3990  177.6850  142.0020 C   0  0  0  0  0  0  0  0  0  0  0  0
  187.5170  176.7560  143.9020 C   0  0  2  0  0  3  0  0  0  0  0  0
  191.3790  177.1260  146.8360 N   0  0  0  0  0  0  0  0  0  0  0  0
  191.6470  176.7460  145.4420 C   0  0  0  0  0  2  0  0  0  0  0  0
  187.2350  177.5760  146.2390 C   0  0  0  0  0  3  0  0  0  0  0  0
  188.0190  177.0220  145.2970 C   0  0  0  0  0  0  0  0  0  0  0  0
  187.7340  177.8540  147.6390 C   0  0  0  0  0  2  0  0  0  0  0  0
  189.9460  176.9000  147.0000 C   0  0  2  0  0  3  0  0  0  0  0  0
  192.0620  176.1550  147.6770 C   0  0  0  0  0  1  0  0  0  0  0  0
  190.3690  176.7160  144.7500 N   0  0  0  0  0  2  0  0  0  0  0  0
  189.4350  176.7800  145.6240 C   0  0  2  0  0  3  0  0  0  0  0  0
  189.2520  178.0840  147.6720 C   0  0  0  0  0  2  0  0  0  0  0  0
  189.3240  177.9990  140.8780 C   0  0  0  0  0  2  0  0  0  0  0  0
  190.5620  177.1230  140.9680 C   0  0  0  0  0  2  0  0  0  0  0  0
  191.9670  177.1260  139.0440 O   0  0  0  0  0  1  0  0  0  0  0  0
  190.8610  176.4960  139.6150 C   0  0  2  0  0  3  0  0  0  0  0  0
  189.6880  176.6520  138.7120 C   0  0  0  0  0  3  0  0  0  0  0  0
  189.8590  176.8840  137.4180 C   0  0  0  0  0  3  0  0  0  0  0  0
  187.8840  178.1700  136.5950 C   0  0  0  0  0  0  0  0  0  0  0  0
  188.1030  179.0960  137.4260 O   0  0  0  0  0  0  0  0  0  0  0  0
  188.7270  177.0170  136.5630 N   0  0  0  0  0  2  0  0  0  0  0  0
  186.8120  178.2550  135.7010 O   0  0  0  0  0  0  0  0  0  0  0  0
  186.1590  177.1030  135.1790 C   0  0  0  0  0  2  0  0  0  0  0  0
  184.5420  177.5070  136.8880 O   0  0  0  0  0  0  0  0  0  0  0  0
  184.3500  175.6020  135.6140 O   0  0  0  0  0  0  0  0  0  0  0  0
  183.3080  176.9390  137.1950 C   0  0  0  0  0  2  0  0  0  0  0  0
  185.2440  176.4910  136.2250 C   0  0  0  0  0  3  0  0  0  0  0  0
  183.2170  175.6580  136.4180 C   0  0  0  0  0  2  0  0  0  0  0  0
  185.3690  178.3550  143.9830 C   0  0  0  0  0  2  0  0  0  0  0  0
  184.5720  179.2140  143.0120 C   0  0  0  0  0  2  0  0  0  0  0  0
  183.4930  179.7480  139.6730 O   0  0  0  0  0  1  0  0  0  0  0  0
  182.7950  178.7950  140.4140 C   0  0  2  0  0  3  0  0  0  0  0  0
  182.4310  179.3700  141.7720 C   0  0  2  0  0  3  0  0  0  0  0  0
  183.7780  177.8540  141.0850 C   0  0  0  0  0  2  0  0  0  0  0  0
  183.4070  178.4230  142.4440 C   0  0  1  0  0  3  0  0  0  0  0  0
  181.0130  178.6350  143.9350 O   0  0  0  0  0  1  0  0  0  0  0  0
  180.0810  180.5630  142.5140 O   0  0  0  0  0  1  0  0  0  0  0  0
  180.6730  178.9480  142.2610 P   0  0  0  0  0  0  0  0  0  0  0  0
  1  5  1  0  0  0  0
  2  3  2  0  0  0  0
  3  5  1  0  0  0  0
  3 32  1  0  0  0  0
  4  2  1  0  0  0  0
  4  1  2  0  0  0  0
  5  9  1  1  0  0  0
  6 11  1  0  0  0  0
  6 12  1  0  0  0  0
  7  6  1  0  0  0  0
  8 10  1  0  0  0  0
  9 14  1  0  0  0  0
  9  8  2  0  0  0  0
 10 15  1  0  0  0  0
 11 15  1  6  0  0  0
 13  7  1  0  0  0  0
 14 13  1  6  0  0  0
 14 11  1  0  0  0  0
 16 17  1  0  0  0  0
 16  4  1  0  0  0  0
 19 18  1  6  0  0  0
 19 17  1  0  0  0  0
 20 19  1  0  0  0  0
 21 20  2  0  0  0  0
 22 23  2  0  0  0  0
 24 22  1  0  0  0  0
 24 21  1  0  0  0  0
 25 22  1  0  0  0  0
 26 25  1  0  0  0  0
 26 30  1  0  0  0  0
 27 29  1  0  0  0  0
 28 30  1  0  0  0  0
 28 31  1  0  0  0  0
 30 27  1  0  0  0  0
 31 29  1  0  0  0  0
 33 32  1  0  0  0  0
 35 34  1  6  0  0  0
 35 37  1  0  0  0  0
 35 36  1  0  0  0  0
 36 41  1  1  0  0  0
 36 38  1  0  0  0  0
 37 38  1  0  0  0  0
 38 33  1  6  0  0  0
 41 40  1  0  0  0  0
 41 39  1  0  0  0  0
M  END
>  <MODEL>
7

>  <REMARK>
 VINA RESULT:      -7.3      3.683      9.197
  Name = 
  13 active torsions:
  status: ('A' for Active; 'I' for Inactive)
    1  A    between atoms: C_1  and  C_20
    2  A    between atoms: C_1  and  C_33
    3  A    between atoms: C_5  and  C_15
    4  A    between atoms: C_5  and  C_36
    5  A    between atoms: C_10  and  C_15
    6  A    between atoms: C_12  and  O_28
    7  A    between atoms: C_12  and  C_34
    8  A    between atoms: C_13  and  C_22
    9  A    between atoms: C_14  and  O_28
   10  A    between atoms: C_24  and  P_25
   11  A    between atoms: C_33  and  C_41
   12  A    between atoms: N_35  and  C_40
   13  A    between atoms: C_37  and  C_41
                            x       y       z     vdW  Elec       q    Type
                         _______ _______ _______ _____ _____    ______ ____

>  <TORSDO>
F 13

$$$$
=
 OpenBabel10222420343D

 41 45  0  0  1  0  0  0  0  0999 V2000
  187.7450  178.6430  141.0160 C   0  0  0  0  0  3  0  0  0  0  0  0
  188.2730  176.9540  142.4750 C   0  0  0  0  0  3  0  0  0  0  0  0
  187.2440  177.5800  143.0190 C   0  0  0  0  0  0  0  0  0  0  0  0
  188.5780  177.6390  141.2300 C   0  0  0  0  0  0  0  0  0  0  0  0
  186.7930  178.7310  142.1640 C   0  0  2  0  0  3  0  0  0  0  0  0
  182.0880  179.3470  143.2360 N   0  0  0  0  0  0  0  0  0  0  0  0
  183.0540  179.6980  144.2870 C   0  0  0  0  0  2  0  0  0  0  0  0
  185.0560  178.3600  140.4160 C   0  0  0  0  0  3  0  0  0  0  0  0
  185.3660  178.5830  141.7050 C   0  0  0  0  0  0  0  0  0  0  0  0
  183.6250  178.2180  139.9450 C   0  0  0  0  0  2  0  0  0  0  0  0
  182.8610  178.5400  142.2950 C   0  0  2  0  0  3  0  0  0  0  0  0
  181.1030  178.4670  143.8430 C   0  0  0  0  0  1  0  0  0  0  0  0
  184.3820  179.4580  143.7500 N   0  0  0  0  0  2  0  0  0  0  0  0
  184.2650  178.7980  142.6590 C   0  0  2  0  0  3  0  0  0  0  0  0
  182.6470  178.9830  140.8490 C   0  0  0  0  0  2  0  0  0  0  0  0
  189.6430  177.2260  140.2750 C   0  0  0  0  0  2  0  0  0  0  0  0
  189.6030  178.1130  139.0420 C   0  0  0  0  0  2  0  0  0  0  0  0
  189.3640  178.0950  136.6720 O   0  0  0  0  0  1  0  0  0  0  0  0
  189.3160  177.2800  137.8030 C   0  0  2  0  0  3  0  0  0  0  0  0
  187.9640  176.6650  137.9060 C   0  0  0  0  0  3  0  0  0  0  0  0
  187.3950  176.1040  136.8480 C   0  0  0  0  0  3  0  0  0  0  0  0
  184.9040  176.2550  136.7740 C   0  0  0  0  0  0  0  0  0  0  0  0
  184.9570  177.4940  136.5330 O   0  0  0  0  0  0  0  0  0  0  0  0
  186.1060  175.5070  136.9650 N   0  0  0  0  0  2  0  0  0  0  0  0
  183.6730  175.5990  136.8640 O   0  0  0  0  0  0  0  0  0  0  0  0
  183.2190  174.9860  138.0660 C   0  0  0  0  0  2  0  0  0  0  0  0
  181.0570  173.9920  137.8840 O   0  0  0  0  0  0  0  0  0  0  0  0
  181.4290  175.5310  139.5520 O   0  0  0  0  0  0  0  0  0  0  0  0
  179.9430  173.9590  138.7210 C   0  0  0  0  0  2  0  0  0  0  0  0
  181.7220  175.1770  138.2290 C   0  0  0  0  0  3  0  0  0  0  0  0
  180.1550  175.0150  139.7650 C   0  0  0  0  0  2  0  0  0  0  0  0
  186.6410  177.1520  144.3230 C   0  0  0  0  0  2  0  0  0  0  0  0
  187.3150  177.8230  145.5100 C   0  0  0  0  0  2  0  0  0  0  0  0
  189.1510  178.8120  148.3830 O   0  0  0  0  0  1  0  0  0  0  0  0
  189.4870  177.5830  147.8140 C   0  0  2  0  0  3  0  0  0  0  0  0
  189.6590  177.7460  146.3130 C   0  0  2  0  0  3  0  0  0  0  0  0
  188.2270  176.7730  147.5740 C   0  0  0  0  0  2  0  0  0  0  0  0
  188.4040  176.9270  146.0730 C   0  0  1  0  0  3  0  0  0  0  0  0
  191.9330  178.2090  144.9570 O   0  0  0  0  0  1  0  0  0  0  0  0
  192.1140  176.8580  147.1360 O   0  0  0  0  0  1  0  0  0  0  0  0
  191.1640  176.8300  145.6800 P   0  0  0  0  0  0  0  0  0  0  0  0
  1  4  2  0  0  0  0
  1  5  1  0  0  0  0
  2  3  2  0  0  0  0
  3 32  1  0  0  0  0
  4  2  1  0  0  0  0
  5  9  1  6  0  0  0
  5  3  1  0  0  0  0
  6 12  1  0  0  0  0
  6  7  1  0  0  0  0
  8  9  2  0  0  0  0
 10  8  1  0  0  0  0
 10 15  1  0  0  0  0
 11 15  1  6  0  0  0
 11 14  1  0  0  0  0
 11  6  1  0  0  0  0
 13  7  1  0  0  0  0
 14  9  1  6  0  0  0
 14 13  1  0  0  0  0
 16  4  1  0  0  0  0
 17 16  1  0  0  0  0
 19 18  1  6  0  0  0
 19 20  1  0  0  0  0
 19 17  1  0  0  0  0
 21 24  1  0  0  0  0
 21 20  2  0  0  0  0
 22 25  1  0  0  0  0
 22 24  1  0  0  0  0
 23 22  2  0  0  0  0
 25 26  1  0  0  0  0
 26 30  1  0  0  0  0
 27 30  1  0  0  0  0
 27 29  1  0  0  0  0
 28 31  1  0  0  0  0
 29 31  1  0  0  0  0
 30 28  1  0  0  0  0
 32 33  1  0  0  0  0
 35 34  1  1  0  0  0
 36 41  1  6  0  0  0
 36 35  1  0  0  0  0
 37 35  1  0  0  0  0
 38 33  1  1  0  0  0
 38 36  1  0  0  0  0
 38 37  1  0  0  0  0
 39 41  1  0  0  0  0
 41 40  1  0  0  0  0
M  END
>  <MODEL>
8

>  <REMARK>
 VINA RESULT:      -7.2      2.913      8.467
  Name = 
  13 active torsions:
  status: ('A' for Active; 'I' for Inactive)
    1  A    between atoms: C_1  and  C_20
    2  A    between atoms: C_1  and  C_33
    3  A    between atoms: C_5  and  C_15
    4  A    between atoms: C_5  and  C_36
    5  A    between atoms: C_10  and  C_15
    6  A    between atoms: C_12  and  O_28
    7  A    between atoms: C_12  and  C_34
    8  A    between atoms: C_13  and  C_22
    9  A    between atoms: C_14  and  O_28
   10  A    between atoms: C_24  and  P_25
   11  A    between atoms: C_33  and  C_41
   12  A    between atoms: N_35  and  C_40
   13  A    between atoms: C_37  and  C_41
                            x       y       z     vdW  Elec       q    Type
                         _______ _______ _______ _____ _____    ______ ____

>  <TORSDO>
F 13

$$$$
=
 OpenBabel10222420343D

 41 45  0  0  1  0  0  0  0  0999 V2000
  187.8500  178.7020  141.0260 C   0  0  0  0  0  3  0  0  0  0  0  0
  188.3910  176.9990  142.4650 C   0  0  0  0  0  3  0  0  0  0  0  0
  187.3560  177.6100  143.0160 C   0  0  0  0  0  0  0  0  0  0  0  0
  188.6910  177.7020  141.2290 C   0  0  0  0  0  0  0  0  0  0  0  0
  186.8960  178.7680  142.1740 C   0  0  2  0  0  3  0  0  0  0  0  0
  182.1880  179.3980  143.2210 N   0  0  0  0  0  0  0  0  0  0  0  0
  183.1500  179.7620  144.2710 C   0  0  0  0  0  2  0  0  0  0  0  0
  185.1650  178.3750  140.4240 C   0  0  0  0  0  3  0  0  0  0  0  0
  185.4710  178.6150  141.7120 C   0  0  0  0  0  0  0  0  0  0  0  0
  183.7360  178.2280  139.9500 C   0  0  0  0  0  2  0  0  0  0  0  0
  182.9640  178.5790  142.2940 C   0  0  2  0  0  3  0  0  0  0  0  0
  181.2000  178.5250  143.8360 C   0  0  0  0  0  1  0  0  0  0  0  0
  184.4800  179.5150  143.7420 N   0  0  0  0  0  2  0  0  0  0  0  0
  184.3660  178.8410  142.6590 C   0  0  2  0  0  3  0  0  0  0  0  0
  182.7550  179.0040  140.8410 C   0  0  0  0  0  2  0  0  0  0  0  0
  189.7600  177.3090  140.2690 C   0  0  0  0  0  2  0  0  0  0  0  0
  189.5890  178.0720  138.9660 C   0  0  0  0  0  2  0  0  0  0  0  0
  187.9830  176.4890  138.2000 O   0  0  0  0  0  1  0  0  0  0  0  0
  189.1760  177.1240  137.8520 C   0  0  2  0  0  3  0  0  0  0  0  0
  190.2330  176.0970  137.6390 C   0  0  0  0  0  3  0  0  0  0  0  0
  191.4380  176.4480  137.2130 C   0  0  0  0  0  3  0  0  0  0  0  0
  193.6350  175.4260  137.8140 C   0  0  0  0  0  0  0  0  0  0  0  0
  193.8460  176.3170  138.6840 O   0  0  0  0  0  0  0  0  0  0  0  0
  192.4450  175.4560  137.0260 N   0  0  0  0  0  2  0  0  0  0  0  0
  194.5630  174.4010  137.6070 O   0  0  0  0  0  0  0  0  0  0  0  0
  195.6490  174.1620  138.4950 C   0  0  0  0  0  2  0  0  0  0  0  0
  196.8250  173.1010  136.7100 O   0  0  0  0  0  0  0  0  0  0  0  0
  197.2850  175.3050  137.1800 O   0  0  0  0  0  0  0  0  0  0  0  0
  197.6320  173.5740  135.6780 C   0  0  0  0  0  2  0  0  0  0  0  0
  196.9540  174.0590  137.7260 C   0  0  0  0  0  3  0  0  0  0  0  0
  197.9910  174.9900  136.0240 C   0  0  0  0  0  2  0  0  0  0  0  0
  186.7550  177.1620  144.3140 C   0  0  0  0  0  2  0  0  0  0  0  0
  187.4140  177.8340  145.5090 C   0  0  0  0  0  2  0  0  0  0  0  0
  189.1770  178.8040  148.4330 O   0  0  0  0  0  1  0  0  0  0  0  0
  189.5170  177.5720  147.8740 C   0  0  2  0  0  3  0  0  0  0  0  0
  189.7340  177.7350  146.3780 C   0  0  2  0  0  3  0  0  0  0  0  0
  188.2570  176.7740  147.5970 C   0  0  0  0  0  2  0  0  0  0  0  0
  188.4790  176.9280  146.1020 C   0  0  1  0  0  3  0  0  0  0  0  0
  192.0520  178.1780  145.0910 O   0  0  0  0  0  1  0  0  0  0  0  0
  192.1540  176.8200  147.2700 O   0  0  0  0  0  1  0  0  0  0  0  0
  191.2480  176.8050  145.7870 P   0  0  0  0  0  0  0  0  0  0  0  0
  1  4  2  0  0  0  0
  1  5  1  0  0  0  0
  2  3  2  0  0  0  0
  3 32  1  0  0  0  0
  4  2  1  0  0  0  0
  5  9  1  6  0  0  0
  5  3  1  0  0  0  0
  6 12  1  0  0  0  0
  6  7  1  0  0  0  0
  8  9  2  0  0  0  0
 10  8  1  0  0  0  0
 10 15  1  0  0  0  0
 11 15  1  6  0  0  0
 11 14  1  0  0  0  0
 11  6  1  0  0  0  0
 13  7  1  0  0  0  0
 14  9  1  6  0  0  0
 14 13  1  0  0  0  0
 16  4  1  0  0  0  0
 17 16  1  0  0  0  0
 19 18  1  1  0  0  0
 19 17  1  0  0  0  0
 20 19  1  0  0  0  0
 21 20  2  0  0  0  0
 22 23  2  0  0  0  0
 24 21  1  0  0  0  0
 24 22  1  0  0  0  0
 25 22  1  0  0  0  0
 25 26  1  0  0  0  0
 27 30  1  0  0  0  0
 28 30  1  0  0  0  0
 29 31  1  0  0  0  0
 29 27  1  0  0  0  0
 30 26  1  0  0  0  0
 31 28  1  0  0  0  0
 32 33  1  0  0  0  0
 35 34  1  1  0  0  0
 36 41  1  6  0  0  0
 36 35  1  0  0  0  0
 37 35  1  0  0  0  0
 38 33  1  1  0  0  0
 38 36  1  0  0  0  0
 38 37  1  0  0  0  0
 39 41  1  0  0  0  0
 41 40  1  0  0  0  0
M  END
>  <MODEL>
9

>  <REMARK>
 VINA RESULT:      -7.2      4.601      7.904
  Name = 
  13 active torsions:
  status: ('A' for Active; 'I' for Inactive)
    1  A    between atoms: C_1  and  C_20
    2  A    between atoms: C_1  and  C_33
    3  A    between atoms: C_5  and  C_15
    4  A    between atoms: C_5  and  C_36
    5  A    between atoms: C_10  and  C_15
    6  A    between atoms: C_12  and  O_28
    7  A    between atoms: C_12  and  C_34
    8  A    between atoms: C_13  and  C_22
    9  A    between atoms: C_14  and  O_28
   10  A    between atoms: C_24  and  P_25
   11  A    between atoms: C_33  and  C_41
   12  A    between atoms: N_35  and  C_40
   13  A    between atoms: C_37  and  C_41
                            x       y       z     vdW  Elec       q    Type
                         _______ _______ _______ _____ _____    ______ ____

>  <TORSDO>
F 13

$$$$
