=
 OpenBabel10222415533D

 29 34  0  0  1  0  0  0  0  0999 V2000
  186.1960  178.2790  144.9040 C   0  0  0  0  0  0  0  0  0  0  0  0
  187.3580  177.9390  144.3240 N   0  0  0  0  0  0  0  0  0  0  0  0
  189.9090  175.7740  142.9550 C   0  0  0  0  0  3  0  0  0  0  0  0
  188.2840  176.8630  144.6090 C   0  0  1  0  0  3  0  0  0  0  0  0
  189.4220  178.1860  146.4050 O   0  0  0  0  0  1  0  0  0  0  0  0
  184.5570  178.4770  146.5920 N   0  0  0  0  0  0  0  0  0  0  0  0
  185.8390  178.3590  142.7040 C   0  0  1  0  0  3  0  0  0  0  0  0
  183.9280  178.8250  144.2870 C   0  0  0  0  0  3  0  0  0  0  0  0
  188.6300  176.4310  143.2090 C   0  0  1  0  0  3  0  0  0  0  0  0
  190.7330  176.8130  144.9710 C   0  0  0  0  0  0  0  0  0  0  0  0
  191.8960  177.1550  145.7200 N   0  0  0  0  0  1  0  0  0  0  0  0
  187.9430  177.0300  142.2820 N   0  0  0  0  0  2  0  0  0  0  0  0
  189.5310  177.3170  145.3250 C   0  0  0  0  0  0  0  0  0  0  0  0
  185.2530  178.5740  143.9450 C   0  0  0  0  0  0  0  0  0  0  0  0
  187.1260  177.9340  143.0090 C   0  0  2  0  0  3  0  0  0  0  0  0
  183.6060  178.7880  145.6560 C   0  0  0  0  0  3  0  0  0  0  0  0
  190.8710  175.9570  143.8130 N   0  0  0  0  0  0  0  0  0  0  0  0
  185.8500  178.1970  146.2480 C   0  0  0  0  0  3  0  0  0  0  0  0
  185.1370  178.2010  141.3980 C   0  0  0  0  0  2  0  0  0  0  0  0
  185.3170  179.4000  140.5970 N   0  0  0  0  0  2  0  0  0  0  0  0
  180.7250  179.0880  138.9840 C   0  0  0  0  0  3  0  0  0  0  0  0
  182.0430  179.2270  139.1310 C   0  0  0  0  0  0  0  0  0  0  0  0
  180.5350  181.4180  138.2260 C   0  0  0  0  0  3  0  0  0  0  0  0
  183.9600  180.4940  138.9600 N   0  0  0  0  0  0  0  0  0  0  0  0
  181.9260  181.5620  138.3840 O   0  0  0  0  0  0  0  0  0  0  0  0
  182.6830  180.4720  138.8210 C   0  0  0  0  0  0  0  0  0  0  0  0
  179.9310  180.2470  138.5020 C   0  0  0  0  0  3  0  0  0  0  0  0
  183.1860  177.9970  139.6930 S   0  0  0  0  0  0  0  0  0  0  0  0
  184.5400  179.2150  139.3850 C   0  0  2  0  0  3  0  0  0  0  0  0
  1 18  1  0  0  0  0
  2  4  1  0  0  0  0
  2  1  1  0  0  0  0
  3 17  2  0  0  0  0
  4 13  1  6  0  0  0
  7 19  1  1  0  0  0
  7 15  1  0  0  0  0
  7 14  1  0  0  0  0
  8 16  2  0  0  0  0
  9  3  1  6  0  0  0
  9  4  1  0  0  0  0
 10 13  2  0  0  0  0
 10 11  1  0  0  0  0
 12  9  1  0  0  0  0
 13  5  1  0  0  0  0
 14  8  1  0  0  0  0
 14  1  2  0  0  0  0
 15 12  1  1  0  0  0
 15  2  1  0  0  0  0
 16  6  1  0  0  0  0
 17 10  1  0  0  0  0
 18  6  2  0  0  0  0
 20 19  1  0  0  0  0
 21 22  2  0  0  0  0
 22 28  1  0  0  0  0
 23 25  1  0  0  0  0
 23 27  2  0  0  0  0
 24 29  1  0  0  0  0
 25 26  1  0  0  0  0
 26 24  2  0  0  0  0
 26 22  1  0  0  0  0
 27 21  1  0  0  0  0
 29 28  1  0  0  0  0
 29 20  1  1  0  0  0
M  END
>  <MODEL>
1

>  <REMARK>
 VINA RESULT:      -9.2      0.000      0.000
  Name = 
  3 active torsions:
  status: ('A' for Active; 'I' for Inactive)
    1  A    between atoms: C_9  and  C_13
    2  A    between atoms: C_13  and  N_20
    3  A    between atoms: N_20  and  C_29
                            x       y       z     vdW  Elec       q    Type
                         _______ _______ _______ _____ _____    ______ ____

>  <TORSDO>
F 3

$$$$
=
 OpenBabel10222415533D

 29 34  0  0  1  0  0  0  0  0999 V2000
  186.2340  178.3190  144.5080 C   0  0  0  0  0  0  0  0  0  0  0  0
  187.4430  177.9680  144.0440 N   0  0  0  0  0  0  0  0  0  0  0  0
  190.0850  175.7830  142.8990 C   0  0  0  0  0  3  0  0  0  0  0  0
  188.3170  176.8700  144.4000 C   0  0  1  0  0  3  0  0  0  0  0  0
  189.2840  178.1340  146.3320 O   0  0  0  0  0  1  0  0  0  0  0  0
  184.4320  178.5140  146.0210 N   0  0  0  0  0  0  0  0  0  0  0  0
  186.1090  178.4500  142.2850 C   0  0  1  0  0  3  0  0  0  0  0  0
  184.0510  178.9210  143.6710 C   0  0  0  0  0  3  0  0  0  0  0  0
  188.7980  176.4590  143.0340 C   0  0  1  0  0  3  0  0  0  0  0  0
  190.7140  176.7650  145.0120 C   0  0  0  0  0  0  0  0  0  0  0  0
  191.7980  177.0690  145.8850 N   0  0  0  0  0  1  0  0  0  0  0  0
  188.2220  177.0890  142.0540 N   0  0  0  0  0  2  0  0  0  0  0  0
  189.4900  177.2850  145.2500 C   0  0  0  0  0  0  0  0  0  0  0  0
  185.4000  178.6520  143.4630 C   0  0  0  0  0  0  0  0  0  0  0  0
  187.3490  177.9950  142.7130 C   0  0  2  0  0  3  0  0  0  0  0  0
  183.5880  178.8630  144.9990 C   0  0  0  0  0  3  0  0  0  0  0  0
  190.9570  175.9300  143.8560 N   0  0  0  0  0  0  0  0  0  0  0  0
  185.7480  178.2170  145.8070 C   0  0  0  0  0  3  0  0  0  0  0  0
  185.5430  178.3320  140.9100 C   0  0  0  0  0  2  0  0  0  0  0  0
  184.9780  179.6070  140.5010 N   0  0  0  0  0  2  0  0  0  0  0  0
  182.2400  175.9310  138.8370 C   0  0  0  0  0  3  0  0  0  0  0  0
  182.7660  177.1090  139.1740 C   0  0  0  0  0  0  0  0  0  0  0  0
  180.2930  176.3570  140.2760 C   0  0  0  0  0  3  0  0  0  0  0  0
  182.6480  179.1110  140.3090 N   0  0  0  0  0  0  0  0  0  0  0  0
  180.8530  177.5990  140.6310 O   0  0  0  0  0  0  0  0  0  0  0  0
  182.0760  177.9830  140.0750 C   0  0  0  0  0  0  0  0  0  0  0  0
  180.9310  175.5370  139.4190 C   0  0  0  0  0  3  0  0  0  0  0  0
  184.3060  177.7830  138.6180 S   0  0  0  0  0  0  0  0  0  0  0  0
  183.9010  179.3110  139.5740 C   0  0  2  0  0  3  0  0  0  0  0  0
  1 18  1  0  0  0  0
  2  4  1  0  0  0  0
  2  1  1  0  0  0  0
  3 17  2  0  0  0  0
  4 13  1  1  0  0  0
  7 19  1  6  0  0  0
  7 15  1  0  0  0  0
  7 14  1  0  0  0  0
  8 16  2  0  0  0  0
  9  3  1  1  0  0  0
  9  4  1  0  0  0  0
 10 13  2  0  0  0  0
 10 11  1  0  0  0  0
 12  9  1  0  0  0  0
 13  5  1  0  0  0  0
 14  8  1  0  0  0  0
 14  1  2  0  0  0  0
 15 12  1  1  0  0  0
 15  2  1  0  0  0  0
 16  6  1  0  0  0  0
 17 10  1  0  0  0  0
 18  6  2  0  0  0  0
 20 19  1  0  0  0  0
 21 22  2  0  0  0  0
 21 27  1  0  0  0  0
 22 26  1  0  0  0  0
 23 25  1  0  0  0  0
 26 24  2  0  0  0  0
 26 25  1  0  0  0  0
 27 23  2  0  0  0  0
 28 22  1  0  0  0  0
 28 29  1  0  0  0  0
 29 24  1  0  0  0  0
 29 20  1  1  0  0  0
M  END
>  <MODEL>
2

>  <REMARK>
 VINA RESULT:      -8.9      1.599      1.973
  Name = 
  3 active torsions:
  status: ('A' for Active; 'I' for Inactive)
    1  A    between atoms: C_9  and  C_13
    2  A    between atoms: C_13  and  N_20
    3  A    between atoms: N_20  and  C_29
                            x       y       z     vdW  Elec       q    Type
                         _______ _______ _______ _____ _____    ______ ____

>  <TORSDO>
F 3

$$$$
=
 OpenBabel10222415533D

 29 34  0  0  1  0  0  0  0  0999 V2000
  189.5600  177.1450  142.8310 C   0  0  0  0  0  0  0  0  0  0  0  0
  189.4550  176.9780  144.1590 N   0  0  0  0  0  0  0  0  0  0  0  0
  189.3040  177.9060  147.6490 C   0  0  0  0  0  3  0  0  0  0  0  0
  190.1640  177.6020  145.2550 C   0  0  1  0  0  3  0  0  0  0  0  0
  192.0680  175.9860  145.0740 O   0  0  0  0  0  1  0  0  0  0  0  0
  190.5530  177.6640  140.7530 N   0  0  0  0  0  0  0  0  0  0  0  0
  187.3770  177.1520  143.2870 C   0  0  1  0  0  3  0  0  0  0  0  0
  188.1470  177.5320  140.9130 C   0  0  0  0  0  3  0  0  0  0  0  0
  189.0280  177.8210  146.2180 C   0  0  1  0  0  3  0  0  0  0  0  0
  191.3420  176.6810  147.2300 C   0  0  0  0  0  0  0  0  0  0  0  0
  192.3950  175.9260  147.8200 N   0  0  0  0  0  1  0  0  0  0  0  0
  187.8580  177.5200  145.7380 N   0  0  0  0  0  2  0  0  0  0  0  0
  191.2020  176.7090  145.8860 C   0  0  0  0  0  0  0  0  0  0  0  0
  188.3090  177.2230  142.2600 C   0  0  0  0  0  0  0  0  0  0  0  0
  188.1500  177.0370  144.4350 C   0  0  2  0  0  3  0  0  0  0  0  0
  189.3190  177.7320  140.1600 C   0  0  0  0  0  3  0  0  0  0  0  0
  190.4110  177.3790  148.0900 N   0  0  0  0  0  0  0  0  0  0  0  0
  190.7050  177.3950  142.0840 C   0  0  0  0  0  3  0  0  0  0  0  0
  185.9380  177.5410  143.2190 C   0  0  0  0  0  2  0  0  0  0  0  0
  185.6820  178.6330  144.1430 N   0  0  0  0  0  2  0  0  0  0  0  0
  181.7400  178.4170  141.2800 C   0  0  0  0  0  3  0  0  0  0  0  0
  182.7050  178.7510  142.1370 C   0  0  0  0  0  0  0  0  0  0  0  0
  180.0760  178.4740  143.0880 C   0  0  0  0  0  3  0  0  0  0  0  0
  183.3970  179.3270  144.2580 N   0  0  0  0  0  0  0  0  0  0  0  0
  181.0980  178.8230  143.9910 O   0  0  0  0  0  0  0  0  0  0  0  0
  182.4050  178.9750  143.5200 C   0  0  0  0  0  0  0  0  0  0  0  0
  180.3500  178.2750  141.7850 C   0  0  0  0  0  3  0  0  0  0  0  0
  184.4240  178.9690  141.7700 S   0  0  0  0  0  0  0  0  0  0  0  0
  184.6640  179.4680  143.5330 C   0  0  2  0  0  3  0  0  0  0  0  0
  1  2  1  0  0  0  0
  2 15  1  0  0  0  0
  2  4  1  0  0  0  0
  3 17  2  0  0  0  0
  4 13  1  1  0  0  0
  4  9  1  0  0  0  0
  5 13  1  0  0  0  0
  6 18  1  0  0  0  0
  7 19  1  1  0  0  0
  7 15  1  0  0  0  0
  8 14  2  0  0  0  0
  9  3  1  1  0  0  0
 10 11  1  0  0  0  0
 10 17  1  0  0  0  0
 12  9  1  0  0  0  0
 13 10  2  0  0  0  0
 14  1  1  0  0  0  0
 14  7  1  0  0  0  0
 15 12  1  1  0  0  0
 16  6  2  0  0  0  0
 16  8  1  0  0  0  0
 18  1  2  0  0  0  0
 19 20  1  0  0  0  0
 21 27  1  0  0  0  0
 21 22  2  0  0  0  0
 22 26  1  0  0  0  0
 23 25  1  0  0  0  0
 26 25  1  0  0  0  0
 26 24  2  0  0  0  0
 27 23  2  0  0  0  0
 28 22  1  0  0  0  0
 28 29  1  0  0  0  0
 29 20  1  1  0  0  0
 29 24  1  0  0  0  0
M  END
>  <MODEL>
3

>  <REMARK>
 VINA RESULT:      -8.6      2.814      4.374
  Name = 
  3 active torsions:
  status: ('A' for Active; 'I' for Inactive)
    1  A    between atoms: C_9  and  C_13
    2  A    between atoms: C_13  and  N_20
    3  A    between atoms: N_20  and  C_29
                            x       y       z     vdW  Elec       q    Type
                         _______ _______ _______ _____ _____    ______ ____

>  <TORSDO>
F 3

$$$$
=
 OpenBabel10222415533D

 29 34  0  0  1  0  0  0  0  0999 V2000
  187.1250  178.0800  143.4010 C   0  0  0  0  0  0  0  0  0  0  0  0
  188.4320  177.7890  143.4840 N   0  0  0  0  0  0  0  0  0  0  0  0
  191.4060  175.7360  143.5660 C   0  0  0  0  0  3  0  0  0  0  0  0
  189.1290  176.7300  144.1850 C   0  0  1  0  0  3  0  0  0  0  0  0
  189.1500  178.0260  146.3260 O   0  0  0  0  0  1  0  0  0  0  0  0
  184.8510  178.1820  144.0290 N   0  0  0  0  0  0  0  0  0  0  0  0
  187.9260  178.2190  141.3240 C   0  0  1  0  0  3  0  0  0  0  0  0
  185.4600  178.5840  141.7270 C   0  0  0  0  0  3  0  0  0  0  0  0
  190.1510  176.3500  143.1460 C   0  0  1  0  0  3  0  0  0  0  0  0
  191.0580  176.7340  145.7360 C   0  0  0  0  0  0  0  0  0  0  0  0
  191.6680  177.0830  146.9750 N   0  0  0  0  0  1  0  0  0  0  0  0
  190.0040  176.9590  142.0080 N   0  0  0  0  0  2  0  0  0  0  0  0
  189.8240  177.1950  145.4390 C   0  0  0  0  0  0  0  0  0  0  0  0
  186.7850  178.3800  142.1000 C   0  0  0  0  0  0  0  0  0  0  0  0
  188.8970  177.8190  142.2330 C   0  0  2  0  0  3  0  0  0  0  0  0
  184.4920  178.4970  142.7440 C   0  0  0  0  0  3  0  0  0  0  0  0
  191.7950  175.9180  144.7960 N   0  0  0  0  0  0  0  0  0  0  0  0
  186.1500  177.9480  144.3830 C   0  0  0  0  0  3  0  0  0  0  0  0
  187.9870  178.0820  139.8400 C   0  0  0  0  0  2  0  0  0  0  0  0
  188.8440  179.1190  139.2880 N   0  0  0  0  0  2  0  0  0  0  0  0
  187.8150  175.7490  135.9160 C   0  0  0  0  0  3  0  0  0  0  0  0
  188.2170  176.8210  136.6000 C   0  0  0  0  0  0  0  0  0  0  0  0
  186.2730  177.1350  134.5950 C   0  0  0  0  0  3  0  0  0  0  0  0
  188.1510  179.0890  137.0000 N   0  0  0  0  0  0  0  0  0  0  0  0
  186.6980  178.2640  135.3210 O   0  0  0  0  0  0  0  0  0  0  0  0
  187.6730  178.1150  136.3110 C   0  0  0  0  0  0  0  0  0  0  0  0
  186.7900  175.9190  134.8540 C   0  0  0  0  0  3  0  0  0  0  0  0
  189.4120  176.8620  137.9060 S   0  0  0  0  0  0  0  0  0  0  0  0
  189.2010  178.6970  137.9460 C   0  0  2  0  0  3  0  0  0  0  0  0
  1  2  1  0  0  0  0
  1 18  1  0  0  0  0
  2  4  1  0  0  0  0
  3 17  2  0  0  0  0
  4 13  1  1  0  0  0
  6 18  2  0  0  0  0
  7 19  1  6  0  0  0
  7 14  1  0  0  0  0
  7 15  1  0  0  0  0
  8 14  1  0  0  0  0
  8 16  2  0  0  0  0
  9  3  1  1  0  0  0
  9  4  1  0  0  0  0
 10 11  1  0  0  0  0
 12  9  1  0  0  0  0
 13 10  2  0  0  0  0
 13  5  1  0  0  0  0
 14  1  2  0  0  0  0
 15 12  1  6  0  0  0
 15  2  1  0  0  0  0
 16  6  1  0  0  0  0
 17 10  1  0  0  0  0
 20 19  1  0  0  0  0
 21 22  2  0  0  0  0
 22 28  1  0  0  0  0
 23 27  2  0  0  0  0
 23 25  1  0  0  0  0
 24 29  1  0  0  0  0
 25 26  1  0  0  0  0
 26 22  1  0  0  0  0
 26 24  2  0  0  0  0
 27 21  1  0  0  0  0
 28 29  1  0  0  0  0
 29 20  1  1  0  0  0
M  END
>  <MODEL>
4

>  <REMARK>
 VINA RESULT:      -8.5      3.406      4.251
  Name = 
  3 active torsions:
  status: ('A' for Active; 'I' for Inactive)
    1  A    between atoms: C_9  and  C_13
    2  A    between atoms: C_13  and  N_20
    3  A    between atoms: N_20  and  C_29
                            x       y       z     vdW  Elec       q    Type
                         _______ _______ _______ _____ _____    ______ ____

>  <TORSDO>
F 3

$$$$
=
 OpenBabel10222415533D

 29 34  0  0  1  0  0  0  0  0999 V2000
  186.9420  178.1590  143.3570 C   0  0  0  0  0  0  0  0  0  0  0  0
  188.2510  177.8600  143.3520 N   0  0  0  0  0  0  0  0  0  0  0  0
  191.2130  175.7940  143.2000 C   0  0  0  0  0  3  0  0  0  0  0  0
  188.9830  176.7830  143.9830 C   0  0  1  0  0  3  0  0  0  0  0  0
  189.1460  178.0280  146.1480 O   0  0  0  0  0  1  0  0  0  0  0  0
  184.7130  178.2560  144.1290 N   0  0  0  0  0  0  0  0  0  0  0  0
  187.6130  178.3430  141.2380 C   0  0  1  0  0  3  0  0  0  0  0  0
  185.1790  178.7090  141.8040 C   0  0  0  0  0  3  0  0  0  0  0  0
  189.9360  176.4230  142.8740 C   0  0  1  0  0  3  0  0  0  0  0  0
  191.0060  176.7420  145.4100 C   0  0  0  0  0  0  0  0  0  0  0  0
  191.6950  177.0590  146.6160 N   0  0  0  0  0  1  0  0  0  0  0  0
  189.7230  177.0590  141.7610 N   0  0  0  0  0  2  0  0  0  0  0  0
  189.7580  177.2150  145.2010 C   0  0  0  0  0  0  0  0  0  0  0  0
  186.5230  178.4910  142.0880 C   0  0  0  0  0  0  0  0  0  0  0  0
  188.6370  177.9180  142.0750 C   0  0  2  0  0  3  0  0  0  0  0  0
  184.2760  178.6020  142.8770 C   0  0  0  0  0  3  0  0  0  0  0  0
  191.6790  175.9450  144.4070 N   0  0  0  0  0  0  0  0  0  0  0  0
  186.0300  178.0080  144.3960 C   0  0  0  0  0  3  0  0  0  0  0  0
  187.5800  178.2410  139.7510 C   0  0  0  0  0  2  0  0  0  0  0  0
  188.8280  178.7410  139.1980 N   0  0  0  0  0  2  0  0  0  0  0  0
  190.0250  174.4460  137.2220 C   0  0  0  0  0  3  0  0  0  0  0  0
  189.5860  175.6780  137.4830 C   0  0  0  0  0  0  0  0  0  0  0  0
  187.7280  173.6900  136.7800 C   0  0  0  0  0  3  0  0  0  0  0  0
  187.8710  177.2090  137.6320 N   0  0  0  0  0  0  0  0  0  0  0  0
  187.2680  174.9910  137.0590 O   0  0  0  0  0  0  0  0  0  0  0  0
  188.1890  175.9860  137.3970 C   0  0  0  0  0  0  0  0  0  0  0  0
  189.0410  173.3980  136.8470 C   0  0  0  0  0  3  0  0  0  0  0  0
  190.5630  177.0770  137.9540 S   0  0  0  0  0  0  0  0  0  0  0  0
  189.0140  178.0820  137.9180 C   0  0  2  0  0  3  0  0  0  0  0  0
  1 18  1  0  0  0  0
  2  1  1  0  0  0  0
  2  4  1  0  0  0  0
  3 17  2  0  0  0  0
  4 13  1  1  0  0  0
  6 18  2  0  0  0  0
  7 19  1  6  0  0  0
  7 15  1  0  0  0  0
  7 14  1  0  0  0  0
  8 14  1  0  0  0  0
  8 16  2  0  0  0  0
  9  3  1  1  0  0  0
  9  4  1  0  0  0  0
 10 11  1  0  0  0  0
 12  9  1  0  0  0  0
 13 10  2  0  0  0  0
 13  5  1  0  0  0  0
 14  1  2  0  0  0  0
 15 12  1  6  0  0  0
 15  2  1  0  0  0  0
 16  6  1  0  0  0  0
 17 10  1  0  0  0  0
 20 19  1  0  0  0  0
 21 22  2  0  0  0  0
 22 28  1  0  0  0  0
 23 27  2  0  0  0  0
 23 25  1  0  0  0  0
 24 29  1  0  0  0  0
 25 26  1  0  0  0  0
 26 22  1  0  0  0  0
 26 24  2  0  0  0  0
 27 21  1  0  0  0  0
 29 28  1  0  0  0  0
 29 20  1  1  0  0  0
M  END
>  <MODEL>
5

>  <REMARK>
 VINA RESULT:      -8.5      3.751      5.060
  Name = 
  3 active torsions:
  status: ('A' for Active; 'I' for Inactive)
    1  A    between atoms: C_9  and  C_13
    2  A    between atoms: C_13  and  N_20
    3  A    between atoms: N_20  and  C_29
                            x       y       z     vdW  Elec       q    Type
                         _______ _______ _______ _____ _____    ______ ____

>  <TORSDO>
F 3

$$$$
=
 OpenBabel10222415533D

 29 34  0  0  1  0  0  0  0  0999 V2000
  187.0830  177.9750  146.2060 C   0  0  0  0  0  0  0  0  0  0  0  0
  186.2560  177.9300  145.1490 N   0  0  0  0  0  0  0  0  0  0  0  0
  184.5410  179.0960  142.1890 C   0  0  0  0  0  3  0  0  0  0  0  0
  185.3410  178.9170  144.6150 C   0  0  1  0  0  3  0  0  0  0  0  0
  183.5360  178.2560  146.2180 O   0  0  0  0  0  1  0  0  0  0  0  0
  187.9240  178.6280  148.3130 N   0  0  0  0  0  0  0  0  0  0  0  0
  188.2660  177.1050  144.5270 C   0  0  1  0  0  3  0  0  0  0  0  0
  189.3860  177.5040  146.7550 C   0  0  0  0  0  3  0  0  0  0  0  0
  185.5890  178.7400  143.1410 C   0  0  1  0  0  3  0  0  0  0  0  0
  182.9500  178.8150  143.9820 C   0  0  0  0  0  0  0  0  0  0  0  0
  181.5740  178.6520  144.3090 N   0  0  0  0  0  1  0  0  0  0  0  0
  186.5550  177.9170  142.8580 N   0  0  0  0  0  2  0  0  0  0  0  0
  183.8950  178.6280  144.9280 C   0  0  0  0  0  0  0  0  0  0  0  0
  188.3120  177.4480  145.8720 C   0  0  0  0  0  0  0  0  0  0  0  0
  186.9820  177.4600  144.1330 C   0  0  2  0  0  3  0  0  0  0  0  0
  189.1500  178.0970  148.0090 C   0  0  0  0  0  3  0  0  0  0  0  0
  183.3130  179.1430  142.6200 N   0  0  0  0  0  0  0  0  0  0  0  0
  186.8810  178.6020  147.4300 C   0  0  0  0  0  3  0  0  0  0  0  0
  189.4280  176.8340  143.6320 C   0  0  0  0  0  2  0  0  0  0  0  0
  188.9550  176.5300  142.2920 N   0  0  0  0  0  2  0  0  0  0  0  0
  190.1810  177.3040  137.6370 C   0  0  0  0  0  3  0  0  0  0  0  0
  189.8590  177.3970  138.9270 C   0  0  0  0  0  0  0  0  0  0  0  0
  188.1460  178.5330  137.0110 C   0  0  0  0  0  3  0  0  0  0  0  0
  188.4600  178.1430  140.5990 N   0  0  0  0  0  0  0  0  0  0  0  0
  187.8080  178.6280  138.3740 O   0  0  0  0  0  0  0  0  0  0  0  0
  188.6630  178.0760  139.3320 C   0  0  0  0  0  0  0  0  0  0  0  0
  189.2750  177.9080  136.6260 C   0  0  0  0  0  3  0  0  0  0  0  0
  190.7730  176.7530  140.3000 S   0  0  0  0  0  0  0  0  0  0  0  0
  189.5190  177.5340  141.4100 C   0  0  2  0  0  3  0  0  0  0  0  0
  1 18  1  0  0  0  0
  2  1  1  0  0  0  0
  3 17  2  0  0  0  0
  4 13  1  6  0  0  0
  4  2  1  0  0  0  0
  7 19  1  6  0  0  0
  7 14  1  0  0  0  0
  8 16  2  0  0  0  0
  9  3  1  6  0  0  0
  9  4  1  0  0  0  0
 10 11  1  0  0  0  0
 10 13  2  0  0  0  0
 12  9  1  0  0  0  0
 13  5  1  0  0  0  0
 14  1  2  0  0  0  0
 14  8  1  0  0  0  0
 15 12  1  6  0  0  0
 15  7  1  0  0  0  0
 15  2  1  0  0  0  0
 16  6  1  0  0  0  0
 17 10  1  0  0  0  0
 18  6  2  0  0  0  0
 20 19  1  0  0  0  0
 21 22  2  0  0  0  0
 22 26  1  0  0  0  0
 22 28  1  0  0  0  0
 23 25  1  0  0  0  0
 24 29  1  0  0  0  0
 25 26  1  0  0  0  0
 26 24  2  0  0  0  0
 27 23  2  0  0  0  0
 27 21  1  0  0  0  0
 28 29  1  0  0  0  0
 29 20  1  1  0  0  0
M  END
>  <MODEL>
6

>  <REMARK>
 VINA RESULT:      -8.4      3.481      6.113
  Name = 
  3 active torsions:
  status: ('A' for Active; 'I' for Inactive)
    1  A    between atoms: C_9  and  C_13
    2  A    between atoms: C_13  and  N_20
    3  A    between atoms: N_20  and  C_29
                            x       y       z     vdW  Elec       q    Type
                         _______ _______ _______ _____ _____    ______ ____

>  <TORSDO>
F 3

$$$$
=
 OpenBabel10222415533D

 29 34  0  0  1  0  0  0  0  0999 V2000
  186.2830  178.0770  145.5160 C   0  0  0  0  0  0  0  0  0  0  0  0
  185.8660  177.9870  144.2430 N   0  0  0  0  0  0  0  0  0  0  0  0
  185.2650  179.0300  140.8350 C   0  0  0  0  0  3  0  0  0  0  0  0
  185.1900  178.9450  143.3940 C   0  0  1  0  0  3  0  0  0  0  0  0
  182.9440  178.3210  144.3090 O   0  0  0  0  0  1  0  0  0  0  0  0
  186.3560  178.8120  147.7580 N   0  0  0  0  0  0  0  0  0  0  0  0
  187.9650  177.1610  144.3730 C   0  0  1  0  0  3  0  0  0  0  0  0
  188.2600  177.6490  146.8330 C   0  0  0  0  0  3  0  0  0  0  0  0
  185.9250  178.7190  142.0990 C   0  0  1  0  0  3  0  0  0  0  0  0
  183.1570  178.7960  141.9870 C   0  0  0  0  0  0  0  0  0  0  0  0
  181.7520  178.6300  141.8320 N   0  0  0  0  0  1  0  0  0  0  0  0
  186.9280  177.8970  142.1930 N   0  0  0  0  0  2  0  0  0  0  0  0
  183.7230  178.6520  143.2050 C   0  0  0  0  0  0  0  0  0  0  0  0
  187.5510  177.5520  145.6400 C   0  0  0  0  0  0  0  0  0  0  0  0
  186.8940  177.4890  143.5530 C   0  0  2  0  0  3  0  0  0  0  0  0
  187.6120  178.2830  147.9090 C   0  0  0  0  0  3  0  0  0  0  0  0
  183.9640  179.0800  140.8200 N   0  0  0  0  0  0  0  0  0  0  0  0
  185.6770  178.7440  146.5740 C   0  0  0  0  0  3  0  0  0  0  0  0
  189.3620  176.8710  143.9390 C   0  0  0  0  0  2  0  0  0  0  0  0
  189.3480  176.2570  142.6220 N   0  0  0  0  0  2  0  0  0  0  0  0
  193.1360  177.1280  139.6760 C   0  0  0  0  0  3  0  0  0  0  0  0
  191.9650  177.1070  140.3140 C   0  0  0  0  0  0  0  0  0  0  0  0
  192.0480  176.3960  137.5970 C   0  0  0  0  0  3  0  0  0  0  0  0
  189.6840  176.7830  140.3140 N   0  0  0  0  0  0  0  0  0  0  0  0
  190.8150  176.3720  138.2740 O   0  0  0  0  0  0  0  0  0  0  0  0
  190.7660  176.7380  139.6220 C   0  0  0  0  0  0  0  0  0  0  0  0
  193.1760  176.7550  138.2390 C   0  0  0  0  0  3  0  0  0  0  0  0
  191.6740  177.5020  142.0150 S   0  0  0  0  0  0  0  0  0  0  0  0
  189.8730  177.2420  141.6940 C   0  0  2  0  0  3  0  0  0  0  0  0
  1 14  2  0  0  0  0
  1 18  1  0  0  0  0
  2  1  1  0  0  0  0
  4 13  1  6  0  0  0
  4  2  1  0  0  0  0
  6 16  1  0  0  0  0
  7 19  1  6  0  0  0
  7 14  1  0  0  0  0
  8 16  2  0  0  0  0
  9  3  1  6  0  0  0
  9 12  1  0  0  0  0
  9  4  1  0  0  0  0
 10 13  2  0  0  0  0
 11 10  1  0  0  0  0
 13  5  1  0  0  0  0
 14  8  1  0  0  0  0
 15 12  1  6  0  0  0
 15  2  1  0  0  0  0
 15  7  1  0  0  0  0
 17  3  2  0  0  0  0
 17 10  1  0  0  0  0
 18  6  2  0  0  0  0
 20 19  1  0  0  0  0
 21 22  2  0  0  0  0
 22 28  1  0  0  0  0
 23 27  2  0  0  0  0
 23 25  1  0  0  0  0
 24 29  1  0  0  0  0
 25 26  1  0  0  0  0
 26 22  1  0  0  0  0
 26 24  2  0  0  0  0
 27 21  1  0  0  0  0
 29 28  1  0  0  0  0
 29 20  1  1  0  0  0
M  END
>  <MODEL>
7

>  <REMARK>
 VINA RESULT:      -8.4      3.588      7.191
  Name = 
  3 active torsions:
  status: ('A' for Active; 'I' for Inactive)
    1  A    between atoms: C_9  and  C_13
    2  A    between atoms: C_13  and  N_20
    3  A    between atoms: N_20  and  C_29
                            x       y       z     vdW  Elec       q    Type
                         _______ _______ _______ _____ _____    ______ ____

>  <TORSDO>
F 3

$$$$
=
 OpenBabel10222415533D

 29 34  0  0  1  0  0  0  0  0999 V2000
  188.9100  177.6460  143.5630 C   0  0  0  0  0  0  0  0  0  0  0  0
  189.3380  177.7180  142.2930 N   0  0  0  0  0  0  0  0  0  0  0  0
  190.1450  176.5710  138.9610 C   0  0  0  0  0  3  0  0  0  0  0  0
  190.1550  176.8140  141.5110 C   0  0  1  0  0  3  0  0  0  0  0  0
  192.2760  177.7890  142.4160 O   0  0  0  0  0  1  0  0  0  0  0  0
  188.8890  177.0380  145.8440 N   0  0  0  0  0  0  0  0  0  0  0  0
  187.1440  178.2570  142.3450 C   0  0  1  0  0  3  0  0  0  0  0  0
  186.8660  177.8760  144.8260 C   0  0  0  0  0  3  0  0  0  0  0  0
  189.4230  176.8630  140.1960 C   0  0  1  0  0  3  0  0  0  0  0  0
  192.1780  177.1560  140.1250 C   0  0  0  0  0  0  0  0  0  0  0  0
  193.5510  177.5030  139.9780 N   0  0  0  0  0  1  0  0  0  0  0  0
  188.3170  177.5440  140.2270 N   0  0  0  0  0  2  0  0  0  0  0  0
  191.5720  177.2920  141.3240 C   0  0  0  0  0  0  0  0  0  0  0  0
  187.5800  178.0000  143.6390 C   0  0  0  0  0  0  0  0  0  0  0  0
  188.2670  178.0310  141.5600 C   0  0  2  0  0  3  0  0  0  0  0  0
  187.5710  177.3990  145.9470 C   0  0  0  0  0  3  0  0  0  0  0  0
  191.4420  176.6980  138.9660 N   0  0  0  0  0  0  0  0  0  0  0  0
  189.5770  177.1290  144.6670 C   0  0  0  0  0  3  0  0  0  0  0  0
  185.7300  178.3290  141.8760 C   0  0  0  0  0  2  0  0  0  0  0  0
  185.5730  179.4480  140.9620 N   0  0  0  0  0  2  0  0  0  0  0  0
  180.9130  178.9320  139.6220 C   0  0  0  0  0  3  0  0  0  0  0  0
  182.2400  179.0430  139.6890 C   0  0  0  0  0  0  0  0  0  0  0  0
  180.7810  180.9810  138.2700 C   0  0  0  0  0  3  0  0  0  0  0  0
  184.1950  180.1260  139.1300 N   0  0  0  0  0  0  0  0  0  0  0  0
  182.1820  181.0960  138.3440 O   0  0  0  0  0  0  0  0  0  0  0  0
  182.9130  180.1280  139.0380 C   0  0  0  0  0  0  0  0  0  0  0  0
  180.1450  179.9560  138.8690 C   0  0  0  0  0  3  0  0  0  0  0  0
  183.3560  177.9560  140.5300 S   0  0  0  0  0  0  0  0  0  0  0  0
  184.7420  178.9820  139.8670 C   0  0  2  0  0  3  0  0  0  0  0  0
  1 14  2  0  0  0  0
  1 18  1  0  0  0  0
  2  1  1  0  0  0  0
  3 17  2  0  0  0  0
  4 13  1  6  0  0  0
  4  2  1  0  0  0  0
  6 16  1  0  0  0  0
  7 19  1  6  0  0  0
  7 14  1  0  0  0  0
  8 16  2  0  0  0  0
  9  3  1  6  0  0  0
  9 12  1  0  0  0  0
  9  4  1  0  0  0  0
 10 13  2  0  0  0  0
 11 10  1  0  0  0  0
 13  5  1  0  0  0  0
 14  8  1  0  0  0  0
 15 12  1  6  0  0  0
 15  2  1  0  0  0  0
 15  7  1  0  0  0  0
 17 10  1  0  0  0  0
 18  6  2  0  0  0  0
 20 19  1  0  0  0  0
 21 22  2  0  0  0  0
 22 28  1  0  0  0  0
 23 25  1  0  0  0  0
 23 27  2  0  0  0  0
 24 29  1  0  0  0  0
 25 26  1  0  0  0  0
 26 24  2  0  0  0  0
 26 22  1  0  0  0  0
 27 21  1  0  0  0  0
 29 28  1  0  0  0  0
 29 20  1  1  0  0  0
M  END
>  <MODEL>
8

>  <REMARK>
 VINA RESULT:      -8.3      2.274      3.072
  Name = 
  3 active torsions:
  status: ('A' for Active; 'I' for Inactive)
    1  A    between atoms: C_9  and  C_13
    2  A    between atoms: C_13  and  N_20
    3  A    between atoms: N_20  and  C_29
                            x       y       z     vdW  Elec       q    Type
                         _______ _______ _______ _____ _____    ______ ____

>  <TORSDO>
F 3

$$$$
=
 OpenBabel10222415533D

 29 34  0  0  1  0  0  0  0  0999 V2000
  183.0240  178.5700  141.7260 C   0  0  0  0  0  0  0  0  0  0  0  0
  184.2080  178.2370  141.1900 N   0  0  0  0  0  0  0  0  0  0  0  0
  187.4660  178.7260  139.7010 C   0  0  0  0  0  3  0  0  0  0  0  0
  184.9310  178.7870  140.0620 C   0  0  1  0  0  3  0  0  0  0  0  0
  183.6540  177.3820  138.4310 O   0  0  0  0  0  1  0  0  0  0  0  0
  180.8240  179.4200  141.8400 N   0  0  0  0  0  0  0  0  0  0  0  0
  184.4340  178.3270  143.4360 C   0  0  1  0  0  3  0  0  0  0  0  0
  182.0570  179.0540  143.8830 C   0  0  0  0  0  3  0  0  0  0  0  0
  186.3310  178.7880  140.6170 C   0  0  1  0  0  3  0  0  0  0  0  0
  185.9770  177.7470  138.0730 C   0  0  0  0  0  0  0  0  0  0  0  0
  185.8950  177.0240  136.8490 N   0  0  0  0  0  1  0  0  0  0  0  0
  186.4080  178.4420  141.8670 N   0  0  0  0  0  2  0  0  0  0  0  0
  184.8710  177.9220  138.8290 C   0  0  0  0  0  0  0  0  0  0  0  0
  183.1140  178.6030  143.1000 C   0  0  0  0  0  0  0  0  0  0  0  0
  185.0630  178.1460  142.2110 C   0  0  2  0  0  3  0  0  0  0  0  0
  180.8870  179.4470  143.2090 C   0  0  0  0  0  3  0  0  0  0  0  0
  187.2630  178.2510  138.5060 N   0  0  0  0  0  0  0  0  0  0  0  0
  181.8780  179.0090  141.0730 C   0  0  0  0  0  3  0  0  0  0  0  0
  185.0970  178.5900  144.7460 C   0  0  0  0  0  2  0  0  0  0  0  0
  186.0770  177.5520  145.0170 N   0  0  0  0  0  2  0  0  0  0  0  0
  190.2780  176.7490  147.3580 C   0  0  0  0  0  3  0  0  0  0  0  0
  189.2730  177.2190  146.6190 C   0  0  0  0  0  0  0  0  0  0  0  0
  191.6750  176.4980  145.3510 C   0  0  0  0  0  3  0  0  0  0  0  0
  188.4070  177.8610  144.5820 N   0  0  0  0  0  0  0  0  0  0  0  0
  190.6110  176.9930  144.5730 O   0  0  0  0  0  0  0  0  0  0  0  0
  189.4190  177.3650  145.2010 C   0  0  0  0  0  0  0  0  0  0  0  0
  191.5480  176.3710  146.6850 C   0  0  0  0  0  3  0  0  0  0  0  0
  187.6760  177.7230  147.1940 S   0  0  0  0  0  0  0  0  0  0  0  0
  187.2870  178.2210  145.4580 C   0  0  2  0  0  3  0  0  0  0  0  0
  1 14  1  0  0  0  0
  2  1  1  0  0  0  0
  2 15  1  0  0  0  0
  4 13  1  6  0  0  0
  4  9  1  0  0  0  0
  4  2  1  0  0  0  0
  5 13  1  0  0  0  0
  6 16  2  0  0  0  0
  7 19  1  6  0  0  0
  9  3  1  6  0  0  0
  9 12  1  0  0  0  0
 10 17  1  0  0  0  0
 10 13  2  0  0  0  0
 11 10  1  0  0  0  0
 14  7  1  0  0  0  0
 14  8  2  0  0  0  0
 15 12  1  6  0  0  0
 15  7  1  0  0  0  0
 16  8  1  0  0  0  0
 17  3  2  0  0  0  0
 18  1  2  0  0  0  0
 18  6  1  0  0  0  0
 19 20  1  0  0  0  0
 22 28  1  0  0  0  0
 22 21  2  0  0  0  0
 23 27  2  0  0  0  0
 24 26  2  0  0  0  0
 24 29  1  0  0  0  0
 25 26  1  0  0  0  0
 25 23  1  0  0  0  0
 26 22  1  0  0  0  0
 27 21  1  0  0  0  0
 29 20  1  6  0  0  0
 29 28  1  0  0  0  0
M  END
>  <MODEL>
9

>  <REMARK>
 VINA RESULT:      -8.3      2.813      7.810
  Name = 
  3 active torsions:
  status: ('A' for Active; 'I' for Inactive)
    1  A    between atoms: C_9  and  C_13
    2  A    between atoms: C_13  and  N_20
    3  A    between atoms: N_20  and  C_29
                            x       y       z     vdW  Elec       q    Type
                         _______ _______ _______ _____ _____    ______ ____

>  <TORSDO>
F 3

$$$$
