=
 OpenBabel10222417023D

 55 61  0  0  1  0  0  0  0  0999 V2000
  185.5870  178.7870  146.1230 C   0  0  0  0  0  3  0  0  0  0  0  0
  184.4680  179.2510  143.8110 C   0  0  2  0  0  0  0  0  0  0  0  0
  184.9690  180.5090  143.5140 F   0  0  0  0  0  0  0  0  0  0  0  0
  186.6800  177.9760  146.4290 C   0  0  0  0  0  0  0  0  0  0  0  0
  185.4060  178.5800  144.7700 C   0  0  0  0  0  0  0  0  0  0  0  0
  185.7500  177.9140  142.0020 C   0  0  2  0  0  3  0  0  0  0  0  0
  184.3810  178.4090  142.5170 C   0  0  0  0  0  2  0  0  0  0  0  0
  187.1260  177.3450  145.3660 O   0  0  0  0  0  0  0  0  0  0  0  0
  186.3780  177.7120  144.3630 C   0  0  0  0  0  0  0  0  0  0  0  0
  186.5190  177.2960  143.0420 O   0  0  0  0  0  0  0  0  0  0  0  0
  183.0760  179.3810  144.4390 C   0  0  0  0  0  2  0  0  0  0  0  0
  182.0490  178.4280  143.8260 C   0  0  0  0  0  2  0  0  0  0  0  0
  181.1440  179.1340  142.8700 C   0  0  0  0  0  0  0  0  0  0  0  0
  180.8020  180.2870  143.0850 O   0  0  0  0  0  0  0  0  0  0  0  0
  180.6750  178.4340  141.6390 C   0  0  0  0  0  2  0  0  0  0  0  0
  181.6660  178.5420  140.5820 N   0  0  0  0  0  0  0  0  0  0  0  0
  184.1630  179.9870  138.9910 O   0  0  0  0  0  1  0  0  0  0  0  0
  181.9410  179.7630  139.8500 C   0  0  0  0  0  2  0  0  0  0  0  0
  182.9350  179.3760  138.7440 C   0  0  2  0  0  3  0  0  0  0  0  0
  183.1070  177.8520  138.7840 C   0  0  1  0  0  3  0  0  0  0  0  0
  182.2460  176.2750  140.4050 O   0  0  0  0  0  0  0  0  0  0  0  0
  182.3170  177.4530  139.9680 C   0  0  0  0  0  0  0  0  0  0  0  0
  182.7780  177.9730  136.1210 O   0  0  0  0  0  0  0  0  0  0  0  0
  180.9290  177.0260  137.4340 O   0  0  0  0  0  0  0  0  0  0  0  0
  182.4220  177.1210  137.3060 S   0  0  0  0  0  0  0  0  0  0  0  0
  185.3060  176.2690  136.9820 O   0  0  0  0  0  0  0  0  0  0  0  0
  183.0920  175.5380  137.1000 N   0  0  0  0  0  2  0  0  0  0  0  0
  184.4910  175.3110  136.9480 C   0  0  0  0  0  0  0  0  0  0  0  0
  184.9950  173.9210  136.7860 C   0  0  0  0  0  2  0  0  0  0  0  0
  184.8120  173.2170  137.9760 O   0  0  0  0  0  1  0  0  0  0  0  0
  186.5340  179.0550  141.3620 C   0  0  0  0  0  2  0  0  0  0  0  0
  187.2250  178.5950  140.1870 N   0  0  0  0  0  0  0  0  0  0  0  0
  188.5080  178.5610  140.1520 C   0  0  0  0  0  3  0  0  0  0  0  0
  190.6220  175.8800  135.7380 C   0  0  0  0  0  2  0  0  0  0  0  0
  191.2660  175.0290  137.8940 N   0  0  0  0  0  0  0  0  0  0  0  0
  189.2150  178.1010  138.9200 C   0  0  2  0  0  3  0  0  0  0  0  0
  191.4460  174.8190  136.4640 C   0  0  0  0  0  2  0  0  0  0  0  0
  190.2080  176.8170  136.7620 N   0  0  1  0  0  0  0  0  0  0  0  0
  187.7590  179.2320  137.3670 O   0  0  0  0  0  1  0  0  0  0  0  0
  188.2300  177.9700  137.7370 C   0  0  1  0  0  3  0  0  0  0  0  0
  188.8450  177.2760  136.5000 C   0  0  0  0  0  2  0  0  0  0  0  0
  192.4880  175.6670  138.3690 C   0  0  0  0  0  1  0  0  0  0  0  0
  190.1490  175.9700  137.9370 C   0  0  2  0  0  3  0  0  0  0  0  0
  189.9900  176.8000  139.2150 C   0  0  0  0  0  2  0  0  0  0  0  0
  187.2910  177.8180  147.7820 C   0  0  0  0  0  2  0  0  0  0  0  0
  188.5620  176.9780  147.7420 C   0  0  0  0  0  2  0  0  0  0  0  0
  190.9090  176.9330  147.7370 C   0  0  0  0  0  2  0  0  0  0  0  0
  190.5980  177.5330  146.4470 C   0  0  2  0  0  3  0  0  0  0  0  0
  189.7470  177.8310  147.6300 N   0  0  0  0  0  0  0  0  0  0  0  0
  190.0470  176.4710  145.4930 C   0  0  0  0  0  2  0  0  0  0  0  0
  190.3460  178.4320  144.2400 C   0  0  0  0  0  2  0  0  0  0  0  0
  189.9210  177.0340  144.1560 N   0  0  0  0  0  0  0  0  0  0  0  0
  191.6770  177.3920  142.5550 C   0  0  0  0  0  2  0  0  0  0  0  0
  191.6370  178.5900  143.4620 C   0  0  0  0  0  2  0  0  0  0  0  0
  190.8900  176.3440  143.3060 C   0  0  0  0  0  2  0  0  0  0  0  0
  1  4  2  0  0  0  0
  2  3  1  6  0  0  0
  2 11  1  0  0  0  0
  2  5  1  0  0  0  0
  4 45  1  0  0  0  0
  5  1  1  0  0  0  0
  6 31  1  1  0  0  0
  6  7  1  0  0  0  0
  6 10  1  0  0  0  0
  7  2  1  0  0  0  0
  8  4  1  0  0  0  0
  9  5  2  0  0  0  0
  9  8  1  0  0  0  0
 10  9  1  0  0  0  0
 12 11  1  0  0  0  0
 13 14  2  0  0  0  0
 13 12  1  0  0  0  0
 15 13  1  0  0  0  0
 16 15  1  0  0  0  0
 18 16  1  0  0  0  0
 19 20  1  0  0  0  0
 19 17  1  1  0  0  0
 19 18  1  0  0  0  0
 20 25  1  6  0  0  0
 20 22  1  0  0  0  0
 22 21  2  0  0  0  0
 22 16  1  0  0  0  0
 23 25  2  0  0  0  0
 25 24  2  0  0  0  0
 27 25  1  0  0  0  0
 28 26  2  0  0  0  0
 28 27  1  0  0  0  0
 29 28  1  0  0  0  0
 29 30  1  0  0  0  0
 32 31  1  0  0  0  0
 33 32  2  0  0  0  0
 34 37  1  0  0  0  0
 35 43  1  0  0  0  0
 35 42  1  0  0  0  0
 36 44  1  0  0  0  0
 36 33  1  1  0  0  0
 37 35  1  0  0  0  0
 38 34  1  6  0  0  0
 38 43  1  0  0  0  0
 40 39  1  6  0  0  0
 40 36  1  0  0  0  0
 41 38  1  0  0  0  0
 41 40  1  0  0  0  0
 43 44  1  1  0  0  0
 46 45  1  0  0  0  0
 48 50  1  6  0  0  0
 48 49  1  0  0  0  0
 48 47  1  0  0  0  0
 49 47  1  0  0  0  0
 49 46  1  0  0  0  0
 52 51  1  0  0  0  0
 52 50  1  0  0  0  0
 53 55  1  0  0  0  0
 53 54  1  0  0  0  0
 54 51  1  0  0  0  0
 55 52  1  0  0  0  0
M  END
>  <MODEL>
1

>  <REMARK>
 VINA RESULT:      -8.7      0.000      0.000
  Name = 
  16 active torsions:
  status: ('A' for Active; 'I' for Inactive)
    1  A    between atoms: C_1  and  C_6
    2  A    between atoms: C_1  and  C_46
    3  A    between atoms: C_9  and  C_22
    4  A    between atoms: C_10  and  C_13
    5  A    between atoms: C_10  and  C_46
    6  A    between atoms: C_11  and  C_32
    7  A    between atoms: C_13  and  N_15
    8  A    between atoms: C_14  and  C_43
    9  A    between atoms: N_17  and  C_30
   10  A    between atoms: C_22  and  C_41
   11  A    between atoms: C_26  and  C_30
   12  A    between atoms: N_28  and  S_54
   13  A    between atoms: C_31  and  C_40
   14  A    between atoms: C_36  and  S_54
   15  A    between atoms: N_39  and  C_40
   16  A    between atoms: C_41  and  N_53
                            x       y       z     vdW  Elec       q    Type
                         _______ _______ _______ _____ _____    ______ ____

>  <TORSDO>
F 16

$$$$
=
 OpenBabel10222417023D

 55 61  0  0  1  0  0  0  0  0999 V2000
  185.3840  178.7870  146.1670 C   0  0  0  0  0  3  0  0  0  0  0  0
  184.1500  179.2270  143.9090 C   0  0  2  0  0  0  0  0  0  0  0  0
  184.5910  180.5050  143.6030 F   0  0  0  0  0  0  0  0  0  0  0  0
  186.5190  178.0160  146.4170 C   0  0  0  0  0  0  0  0  0  0  0  0
  185.1530  178.5840  144.8210 C   0  0  0  0  0  0  0  0  0  0  0  0
  185.4030  177.9550  142.0340 C   0  0  2  0  0  3  0  0  0  0  0  0
  184.0400  178.3930  142.6120 C   0  0  0  0  0  2  0  0  0  0  0  0
  186.9430  177.4100  145.3310 O   0  0  0  0  0  0  0  0  0  0  0  0
  186.1390  177.7570  144.3640 C   0  0  0  0  0  0  0  0  0  0  0  0
  186.2390  177.3580  143.0340 O   0  0  0  0  0  0  0  0  0  0  0  0
  182.7830  179.2990  144.5970 C   0  0  0  0  0  2  0  0  0  0  0  0
  181.7100  178.4720  143.8880 C   0  0  0  0  0  2  0  0  0  0  0  0
  180.6580  179.3410  143.2780 C   0  0  0  0  0  0  0  0  0  0  0  0
  180.8040  180.5530  143.2500 O   0  0  0  0  0  0  0  0  0  0  0  0
  179.4380  178.7210  142.6820 C   0  0  0  0  0  2  0  0  0  0  0  0
  179.6720  178.3700  141.2920 N   0  0  0  0  0  0  0  0  0  0  0  0
  179.4530  176.4220  138.6440 O   0  0  0  0  0  1  0  0  0  0  0  0
  180.1250  177.0660  140.8480 C   0  0  0  0  0  2  0  0  0  0  0  0
  180.3780  177.1990  139.3390 C   0  0  2  0  0  3  0  0  0  0  0  0
  180.1900  178.6750  138.9620 C   0  0  1  0  0  3  0  0  0  0  0  0
  179.3810  180.4950  140.3380 O   0  0  0  0  0  0  0  0  0  0  0  0
  179.7230  179.2880  140.2230 C   0  0  0  0  0  0  0  0  0  0  0  0
  182.3560  178.5450  137.3780 O   0  0  0  0  0  0  0  0  0  0  0  0
  182.6830  179.4290  139.6480 O   0  0  0  0  0  0  0  0  0  0  0  0
  181.7530  179.3830  138.4690 S   0  0  0  0  0  0  0  0  0  0  0  0
  180.1820  180.3150  136.0580 O   0  0  0  0  0  0  0  0  0  0  0  0
  181.4810  180.9880  137.8780 N   0  0  0  0  0  2  0  0  0  0  0  0
  180.7150  181.2540  136.7050 C   0  0  0  0  0  0  0  0  0  0  0  0
  180.5150  182.6590  136.2640 C   0  0  0  0  0  2  0  0  0  0  0  0
  181.0820  183.5270  137.1970 O   0  0  0  0  0  1  0  0  0  0  0  0
  186.1150  179.1300  141.3730 C   0  0  0  0  0  2  0  0  0  0  0  0
  186.8320  178.6930  140.2040 N   0  0  0  0  0  0  0  0  0  0  0  0
  188.1090  178.5630  140.2280 C   0  0  0  0  0  3  0  0  0  0  0  0
  190.4530  175.9300  135.9020 C   0  0  0  0  0  2  0  0  0  0  0  0
  191.2320  175.2740  138.0820 N   0  0  0  0  0  0  0  0  0  0  0  0
  188.8440  178.1280  139.0040 C   0  0  2  0  0  3  0  0  0  0  0  0
  191.4110  175.0140  136.6590 C   0  0  0  0  0  2  0  0  0  0  0  0
  189.9470  176.8620  136.8880 N   0  0  1  0  0  0  0  0  0  0  0  0
  187.2360  178.9960  137.4320 O   0  0  0  0  0  1  0  0  0  0  0  0
  187.8620  177.8200  137.8520 C   0  0  1  0  0  3  0  0  0  0  0  0
  188.5340  177.1410  136.6360 C   0  0  0  0  0  2  0  0  0  0  0  0
  192.3770  176.0770  138.4960 C   0  0  0  0  0  1  0  0  0  0  0  0
  190.0110  176.0760  138.1050 C   0  0  2  0  0  3  0  0  0  0  0  0
  189.7750  176.9460  139.3430 C   0  0  0  0  0  2  0  0  0  0  0  0
  187.1940  177.8690  147.7420 C   0  0  0  0  0  2  0  0  0  0  0  0
  188.4400  176.9960  147.6570 C   0  0  0  0  0  2  0  0  0  0  0  0
  190.7830  176.8820  147.5990 C   0  0  0  0  0  2  0  0  0  0  0  0
  190.4660  177.5770  146.3590 C   0  0  2  0  0  3  0  0  0  0  0  0
  189.6490  177.8190  147.5780 N   0  0  0  0  0  0  0  0  0  0  0  0
  189.8640  176.6000  145.3470 C   0  0  0  0  0  2  0  0  0  0  0  0
  190.5050  178.5120  144.1490 C   0  0  0  0  0  2  0  0  0  0  0  0
  189.8180  177.2260  144.0340 N   0  0  0  0  0  0  0  0  0  0  0  0
  191.5730  177.3000  142.3930 C   0  0  0  0  0  2  0  0  0  0  0  0
  191.7850  178.4490  143.3380 C   0  0  0  0  0  2  0  0  0  0  0  0
  190.6170  176.3950  143.1330 C   0  0  0  0  0  2  0  0  0  0  0  0
  1  4  2  0  0  0  0
  2  3  1  6  0  0  0
  2 11  1  0  0  0  0
  2  5  1  0  0  0  0
  4 45  1  0  0  0  0
  5  1  1  0  0  0  0
  6 31  1  1  0  0  0
  6  7  1  0  0  0  0
  6 10  1  0  0  0  0
  7  2  1  0  0  0  0
  8  4  1  0  0  0  0
  9  5  2  0  0  0  0
  9  8  1  0  0  0  0
 10  9  1  0  0  0  0
 12 11  1  0  0  0  0
 13 12  1  0  0  0  0
 14 13  2  0  0  0  0
 15 13  1  0  0  0  0
 16 15  1  0  0  0  0
 18 16  1  0  0  0  0
 19 17  1  6  0  0  0
 19 18  1  0  0  0  0
 20 25  1  1  0  0  0
 20 19  1  0  0  0  0
 20 22  1  0  0  0  0
 22 21  2  0  0  0  0
 22 16  1  0  0  0  0
 23 25  2  0  0  0  0
 25 24  2  0  0  0  0
 26 28  2  0  0  0  0
 27 25  1  0  0  0  0
 28 27  1  0  0  0  0
 29 28  1  0  0  0  0
 29 30  1  0  0  0  0
 32 33  2  0  0  0  0
 32 31  1  0  0  0  0
 34 37  1  0  0  0  0
 35 43  1  0  0  0  0
 35 42  1  0  0  0  0
 36 44  1  0  0  0  0
 36 33  1  1  0  0  0
 37 35  1  0  0  0  0
 38 34  1  6  0  0  0
 38 43  1  0  0  0  0
 40 39  1  6  0  0  0
 40 36  1  0  0  0  0
 41 38  1  0  0  0  0
 41 40  1  0  0  0  0
 43 44  1  1  0  0  0
 46 45  1  0  0  0  0
 48 50  1  6  0  0  0
 48 49  1  0  0  0  0
 48 47  1  0  0  0  0
 49 47  1  0  0  0  0
 49 46  1  0  0  0  0
 52 51  1  0  0  0  0
 52 50  1  0  0  0  0
 53 55  1  0  0  0  0
 53 54  1  0  0  0  0
 54 51  1  0  0  0  0
 55 52  1  0  0  0  0
M  END
>  <MODEL>
2

>  <REMARK>
 VINA RESULT:      -8.4      1.828      2.958
  Name = 
  16 active torsions:
  status: ('A' for Active; 'I' for Inactive)
    1  A    between atoms: C_1  and  C_6
    2  A    between atoms: C_1  and  C_46
    3  A    between atoms: C_9  and  C_22
    4  A    between atoms: C_10  and  C_13
    5  A    between atoms: C_10  and  C_46
    6  A    between atoms: C_11  and  C_32
    7  A    between atoms: C_13  and  N_15
    8  A    between atoms: C_14  and  C_43
    9  A    between atoms: N_17  and  C_30
   10  A    between atoms: C_22  and  C_41
   11  A    between atoms: C_26  and  C_30
   12  A    between atoms: N_28  and  S_54
   13  A    between atoms: C_31  and  C_40
   14  A    between atoms: C_36  and  S_54
   15  A    between atoms: N_39  and  C_40
   16  A    between atoms: C_41  and  N_53
                            x       y       z     vdW  Elec       q    Type
                         _______ _______ _______ _____ _____    ______ ____

>  <TORSDO>
F 16

$$$$
=
 OpenBabel10222417023D

 55 61  0  0  1  0  0  0  0  0999 V2000
  189.6160  177.8220  139.3720 C   0  0  0  0  0  3  0  0  0  0  0  0
  188.5890  177.3130  137.0270 C   0  0  2  0  0  0  0  0  0  0  0  0
  189.3390  178.1490  136.2150 F   0  0  0  0  0  0  0  0  0  0  0  0
  190.5190  177.0690  140.1230 C   0  0  0  0  0  0  0  0  0  0  0  0
  189.3780  177.0250  138.2700 C   0  0  0  0  0  0  0  0  0  0  0  0
  189.5380  175.0520  136.1940 C   0  0  2  0  0  3  0  0  0  0  0  0
  188.3100  175.9840  136.2870 C   0  0  0  0  0  2  0  0  0  0  0  0
  190.8080  175.9310  139.5340 O   0  0  0  0  0  0  0  0  0  0  0  0
  190.1410  175.9020  138.4130 C   0  0  0  0  0  0  0  0  0  0  0  0
  190.1740  174.8810  137.4680 O   0  0  0  0  0  0  0  0  0  0  0  0
  187.2640  177.9920  137.3900 C   0  0  0  0  0  2  0  0  0  0  0  0
  186.1070  177.5760  136.4810 C   0  0  0  0  0  2  0  0  0  0  0  0
  184.8040  177.5750  137.2110 C   0  0  0  0  0  0  0  0  0  0  0  0
  183.8150  177.0720  136.7020 O   0  0  0  0  0  0  0  0  0  0  0  0
  184.7200  178.1720  138.5770 C   0  0  0  0  0  2  0  0  0  0  0  0
  183.3720  178.6440  138.8440 N   0  0  0  0  0  0  0  0  0  0  0  0
  180.6200  180.3170  138.1480 O   0  0  0  0  0  1  0  0  0  0  0  0
  182.9400  180.0150  138.6520 C   0  0  0  0  0  2  0  0  0  0  0  0
  181.5060  180.0840  139.1990 C   0  0  2  0  0  3  0  0  0  0  0  0
  181.1860  178.7280  139.8440 C   0  0  1  0  0  3  0  0  0  0  0  0
  182.5040  176.6980  139.8280 O   0  0  0  0  0  0  0  0  0  0  0  0
  182.3810  177.9170  139.5340 C   0  0  0  0  0  0  0  0  0  0  0  0
  180.1780  177.7910  142.1510 O   0  0  0  0  0  0  0  0  0  0  0  0
  180.3400  180.2310  141.9120 O   0  0  0  0  0  0  0  0  0  0  0  0
  181.0070  178.9200  141.6110 S   0  0  0  0  0  0  0  0  0  0  0  0
  181.7780  178.8090  144.5340 O   0  0  0  0  0  0  0  0  0  0  0  0
  182.5770  178.8830  142.3410 N   0  0  0  0  0  2  0  0  0  0  0  0
  182.7650  178.8430  143.7540 C   0  0  0  0  0  0  0  0  0  0  0  0
  184.1440  178.8010  144.3080 C   0  0  0  0  0  2  0  0  0  0  0  0
  185.0000  179.5320  143.4850 O   0  0  0  0  0  1  0  0  0  0  0  0
  190.5350  175.5690  135.1630 C   0  0  0  0  0  2  0  0  0  0  0  0
  191.8840  175.3990  135.6360 N   0  0  0  0  0  0  0  0  0  0  0  0
  192.7170  176.3740  135.6070 C   0  0  0  0  0  3  0  0  0  0  0  0
  197.9220  174.7240  136.7580 C   0  0  0  0  0  2  0  0  0  0  0  0
  196.1620  173.2950  137.5630 N   0  0  0  0  0  0  0  0  0  0  0  0
  194.1190  176.1810  136.0810 C   0  0  2  0  0  3  0  0  0  0  0  0
  197.6110  173.4410  137.5250 C   0  0  0  0  0  2  0  0  0  0  0  0
  196.6520  175.4030  136.6070 N   0  0  1  0  0  0  0  0  0  0  0  0
  195.1050  177.8010  134.5940 O   0  0  0  0  0  1  0  0  0  0  0  0
  195.1270  176.4480  134.9410 C   0  0  1  0  0  3  0  0  0  0  0  0
  196.5760  176.0390  135.2930 C   0  0  0  0  0  2  0  0  0  0  0  0
  195.7490  173.6730  138.9090 C   0  0  0  0  0  1  0  0  0  0  0  0
  195.7180  174.2940  136.5930 C   0  0  2  0  0  3  0  0  0  0  0  0
  194.2710  174.7810  136.7120 C   0  0  0  0  0  2  0  0  0  0  0  0
  191.1020  177.4710  141.4380 C   0  0  0  0  0  2  0  0  0  0  0  0
  190.3050  176.9140  142.6120 C   0  0  0  0  0  2  0  0  0  0  0  0
  188.1970  176.1480  143.3030 C   0  0  0  0  0  2  0  0  0  0  0  0
  188.1350  177.5710  143.6060 C   0  0  2  0  0  3  0  0  0  0  0  0
  188.8680  177.0980  142.4010 N   0  0  0  0  0  0  0  0  0  0  0  0
  189.0070  177.8880  144.8230 C   0  0  0  0  0  2  0  0  0  0  0  0
  189.5860  177.1700  146.9800 C   0  0  0  0  0  2  0  0  0  0  0  0
  188.5200  177.1490  145.9780 N   0  0  0  0  0  0  0  0  0  0  0  0
  187.6310  178.0570  148.0180 C   0  0  0  0  0  2  0  0  0  0  0  0
  189.1260  178.0070  148.1560 C   0  0  0  0  0  2  0  0  0  0  0  0
  187.4000  177.9090  146.5330 C   0  0  0  0  0  2  0  0  0  0  0  0
  1  4  2  0  0  0  0
  2  3  1  6  0  0  0
  2 11  1  0  0  0  0
  2  5  1  0  0  0  0
  4 45  1  0  0  0  0
  5  9  2  0  0  0  0
  5  1  1  0  0  0  0
  6 31  1  6  0  0  0
  6  7  1  0  0  0  0
  6 10  1  0  0  0  0
  7  2  1  0  0  0  0
  8  4  1  0  0  0  0
  9  8  1  0  0  0  0
 10  9  1  0  0  0  0
 12 13  1  0  0  0  0
 12 11  1  0  0  0  0
 13 15  1  0  0  0  0
 14 13  2  0  0  0  0
 15 16  1  0  0  0  0
 16 22  1  0  0  0  0
 18 16  1  0  0  0  0
 18 19  1  0  0  0  0
 19 17  1  6  0  0  0
 19 20  1  0  0  0  0
 20 25  1  1  0  0  0
 22 21  2  0  0  0  0
 22 20  1  0  0  0  0
 25 24  2  0  0  0  0
 25 23  2  0  0  0  0
 25 27  1  0  0  0  0
 27 28  1  0  0  0  0
 28 29  1  0  0  0  0
 28 26  2  0  0  0  0
 30 29  1  0  0  0  0
 31 32  1  0  0  0  0
 33 32  2  0  0  0  0
 34 37  1  0  0  0  0
 35 42  1  0  0  0  0
 36 33  1  6  0  0  0
 36 44  1  0  0  0  0
 37 35  1  0  0  0  0
 38 41  1  6  0  0  0
 38 34  1  0  0  0  0
 40 39  1  1  0  0  0
 40 41  1  0  0  0  0
 40 36  1  0  0  0  0
 43 38  1  0  0  0  0
 43 44  1  1  0  0  0
 43 35  1  0  0  0  0
 45 46  1  0  0  0  0
 47 48  1  0  0  0  0
 48 50  1  1  0  0  0
 49 46  1  0  0  0  0
 49 47  1  0  0  0  0
 49 48  1  0  0  0  0
 50 52  1  0  0  0  0
 51 54  1  0  0  0  0
 52 55  1  0  0  0  0
 52 51  1  0  0  0  0
 53 54  1  0  0  0  0
 55 53  1  0  0  0  0
M  END
>  <MODEL>
3

>  <REMARK>
 VINA RESULT:      -8.1      3.135      6.361
  Name = 
  16 active torsions:
  status: ('A' for Active; 'I' for Inactive)
    1  A    between atoms: C_1  and  C_6
    2  A    between atoms: C_1  and  C_46
    3  A    between atoms: C_9  and  C_22
    4  A    between atoms: C_10  and  C_13
    5  A    between atoms: C_10  and  C_46
    6  A    between atoms: C_11  and  C_32
    7  A    between atoms: C_13  and  N_15
    8  A    between atoms: C_14  and  C_43
    9  A    between atoms: N_17  and  C_30
   10  A    between atoms: C_22  and  C_41
   11  A    between atoms: C_26  and  C_30
   12  A    between atoms: N_28  and  S_54
   13  A    between atoms: C_31  and  C_40
   14  A    between atoms: C_36  and  S_54
   15  A    between atoms: N_39  and  C_40
   16  A    between atoms: C_41  and  N_53
                            x       y       z     vdW  Elec       q    Type
                         _______ _______ _______ _____ _____    ______ ____

>  <TORSDO>
F 16

$$$$
=
 OpenBabel10222417023D

 55 61  0  0  1  0  0  0  0  0999 V2000
  189.4850  178.0980  139.3510 C   0  0  0  0  0  3  0  0  0  0  0  0
  188.1840  177.7940  137.1080 C   0  0  2  0  0  0  0  0  0  0  0  0
  188.9690  178.5320  136.2360 F   0  0  0  0  0  0  0  0  0  0  0  0
  190.3350  177.2070  140.0070 C   0  0  0  0  0  0  0  0  0  0  0  0
  189.0340  177.3680  138.2690 C   0  0  0  0  0  0  0  0  0  0  0  0
  188.7180  175.4400  136.1690 C   0  0  2  0  0  3  0  0  0  0  0  0
  187.6510  176.5350  136.3850 C   0  0  0  0  0  2  0  0  0  0  0  0
  190.4020  176.0540  139.3820 O   0  0  0  0  0  0  0  0  0  0  0  0
  189.6370  176.1450  138.3290 C   0  0  0  0  0  0  0  0  0  0  0  0
  189.4360  175.1520  137.3750 O   0  0  0  0  0  0  0  0  0  0  0  0
  187.0100  178.6460  137.6000 C   0  0  0  0  0  2  0  0  0  0  0  0
  186.0020  177.8550  138.4340 C   0  0  0  0  0  2  0  0  0  0  0  0
  184.7440  178.6280  138.6580 C   0  0  0  0  0  0  0  0  0  0  0  0
  184.7260  179.5550  139.4530 O   0  0  0  0  0  0  0  0  0  0  0  0
  183.5130  178.2790  137.8910 C   0  0  0  0  0  2  0  0  0  0  0  0
  182.3330  178.8170  138.5470 N   0  0  0  0  0  0  0  0  0  0  0  0
  179.6350  180.6990  138.7270 O   0  0  0  0  0  1  0  0  0  0  0  0
  181.9730  180.2220  138.5430 C   0  0  0  0  0  2  0  0  0  0  0  0
  180.7570  180.3460  139.4750 C   0  0  2  0  0  3  0  0  0  0  0  0
  180.5250  178.9750  140.1250 C   0  0  1  0  0  3  0  0  0  0  0  0
  181.6240  176.8710  139.6520 O   0  0  0  0  0  0  0  0  0  0  0  0
  181.5200  178.1110  139.4570 C   0  0  0  0  0  0  0  0  0  0  0  0
  180.1550  177.9400  142.5770 O   0  0  0  0  0  0  0  0  0  0  0  0
  180.3780  180.3830  142.4170 O   0  0  0  0  0  0  0  0  0  0  0  0
  180.8610  179.0670  141.8770 S   0  0  0  0  0  0  0  0  0  0  0  0
  182.4150  178.7610  144.4550 O   0  0  0  0  0  0  0  0  0  0  0  0
  182.5670  178.9240  142.1300 N   0  0  0  0  0  2  0  0  0  0  0  0
  183.1430  178.7970  143.4290 C   0  0  0  0  0  0  0  0  0  0  0  0
  184.6170  178.6680  143.5680 C   0  0  0  0  0  2  0  0  0  0  0  0
  185.0430  179.3670  144.6970 O   0  0  0  0  0  1  0  0  0  0  0  0
  189.6800  175.8330  135.0530 C   0  0  0  0  0  2  0  0  0  0  0  0
  190.9270  175.1270  135.1910 N   0  0  0  0  0  0  0  0  0  0  0  0
  192.0230  175.7650  135.3850 C   0  0  0  0  0  3  0  0  0  0  0  0
  197.0060  173.6420  136.7300 C   0  0  0  0  0  2  0  0  0  0  0  0
  196.9930  175.9500  136.0550 N   0  0  0  0  0  0  0  0  0  0  0  0
  193.3140  175.0230  135.5060 C   0  0  2  0  0  3  0  0  0  0  0  0
  197.8730  174.8750  136.4910 C   0  0  0  0  0  2  0  0  0  0  0  0
  195.7070  173.9680  136.1790 N   0  0  1  0  0  0  0  0  0  0  0  0
  192.3560  173.0180  136.4410 O   0  0  0  0  0  1  0  0  0  0  0  0
  193.2740  174.0400  136.6970 C   0  0  1  0  0  3  0  0  0  0  0  0
  194.6500  173.4150  137.0240 C   0  0  0  0  0  2  0  0  0  0  0  0
  197.1910  176.0800  134.6160 C   0  0  0  0  0  1  0  0  0  0  0  0
  195.6660  175.4080  136.3400 C   0  0  2  0  0  3  0  0  0  0  0  0
  194.4870  176.0220  135.5790 C   0  0  0  0  0  2  0  0  0  0  0  0
  191.0880  177.4930  141.2650 C   0  0  0  0  0  2  0  0  0  0  0  0
  190.3420  177.0070  142.5010 C   0  0  0  0  0  2  0  0  0  0  0  0
  191.6680  177.8850  144.2270 C   0  0  0  0  0  2  0  0  0  0  0  0
  190.8010  176.9520  144.9330 C   0  0  2  0  0  3  0  0  0  0  0  0
  191.2800  176.6310  143.5610 N   0  0  0  0  0  0  0  0  0  0  0  0
  189.3820  177.5160  145.0190 C   0  0  0  0  0  2  0  0  0  0  0  0
  189.6030  177.0840  147.3140 C   0  0  0  0  0  2  0  0  0  0  0  0
  188.6990  176.9460  146.1720 N   0  0  0  0  0  0  0  0  0  0  0  0
  187.5470  178.1330  147.9150 C   0  0  0  0  0  2  0  0  0  0  0  0
  189.0020  178.0780  148.2870 C   0  0  0  0  0  2  0  0  0  0  0  0
  187.5370  177.7910  146.4440 C   0  0  0  0  0  2  0  0  0  0  0  0
  1  4  2  0  0  0  0
  2  3  1  6  0  0  0
  2 11  1  0  0  0  0
  2  5  1  0  0  0  0
  4 45  1  0  0  0  0
  5  9  2  0  0  0  0
  5  1  1  0  0  0  0
  6 31  1  6  0  0  0
  6  7  1  0  0  0  0
  6 10  1  0  0  0  0
  7  2  1  0  0  0  0
  8  4  1  0  0  0  0
  9  8  1  0  0  0  0
 10  9  1  0  0  0  0
 11 12  1  0  0  0  0
 12 13  1  0  0  0  0
 13 14  2  0  0  0  0
 15 16  1  0  0  0  0
 15 13  1  0  0  0  0
 16 22  1  0  0  0  0
 18 16  1  0  0  0  0
 18 19  1  0  0  0  0
 19 17  1  6  0  0  0
 19 20  1  0  0  0  0
 20 25  1  1  0  0  0
 22 21  2  0  0  0  0
 22 20  1  0  0  0  0
 25 27  1  0  0  0  0
 25 24  2  0  0  0  0
 25 23  2  0  0  0  0
 27 28  1  0  0  0  0
 28 29  1  0  0  0  0
 28 26  2  0  0  0  0
 29 30  1  0  0  0  0
 31 32  1  0  0  0  0
 32 33  2  0  0  0  0
 35 43  1  0  0  0  0
 35 37  1  0  0  0  0
 36 33  1  1  0  0  0
 36 44  1  0  0  0  0
 36 40  1  0  0  0  0
 37 34  1  0  0  0  0
 38 43  1  0  0  0  0
 38 34  1  1  0  0  0
 38 41  1  0  0  0  0
 40 39  1  6  0  0  0
 40 41  1  0  0  0  0
 42 35  1  0  0  0  0
 43 44  1  6  0  0  0
 45 46  1  0  0  0  0
 46 49  1  0  0  0  0
 47 48  1  0  0  0  0
 48 50  1  6  0  0  0
 49 47  1  0  0  0  0
 49 48  1  0  0  0  0
 50 52  1  0  0  0  0
 51 54  1  0  0  0  0
 52 55  1  0  0  0  0
 52 51  1  0  0  0  0
 53 54  1  0  0  0  0
 55 53  1  0  0  0  0
M  END
>  <MODEL>
4

>  <REMARK>
 VINA RESULT:      -7.7      3.040      6.133
  Name = 
  16 active torsions:
  status: ('A' for Active; 'I' for Inactive)
    1  A    between atoms: C_1  and  C_6
    2  A    between atoms: C_1  and  C_46
    3  A    between atoms: C_9  and  C_22
    4  A    between atoms: C_10  and  C_13
    5  A    between atoms: C_10  and  C_46
    6  A    between atoms: C_11  and  C_32
    7  A    between atoms: C_13  and  N_15
    8  A    between atoms: C_14  and  C_43
    9  A    between atoms: N_17  and  C_30
   10  A    between atoms: C_22  and  C_41
   11  A    between atoms: C_26  and  C_30
   12  A    between atoms: N_28  and  S_54
   13  A    between atoms: C_31  and  C_40
   14  A    between atoms: C_36  and  S_54
   15  A    between atoms: N_39  and  C_40
   16  A    between atoms: C_41  and  N_53
                            x       y       z     vdW  Elec       q    Type
                         _______ _______ _______ _____ _____    ______ ____

>  <TORSDO>
F 16

$$$$
=
 OpenBabel10222417023D

 55 61  0  0  1  0  0  0  0  0999 V2000
  189.2520  176.7610  139.6960 C   0  0  0  0  0  3  0  0  0  0  0  0
  188.4440  176.0890  137.3060 C   0  0  2  0  0  0  0  0  0  0  0  0
  187.5170  175.1010  137.6010 F   0  0  0  0  0  0  0  0  0  0  0  0
  188.9130  177.8770  140.4620 C   0  0  0  0  0  0  0  0  0  0  0  0
  188.5870  176.9790  138.5050 C   0  0  0  0  0  0  0  0  0  0  0  0
  186.7910  177.8970  136.4660 C   0  0  2  0  0  3  0  0  0  0  0  0
  187.9420  176.9300  136.1100 C   0  0  0  0  0  2  0  0  0  0  0  0
  188.1150  178.6890  139.8070 O   0  0  0  0  0  0  0  0  0  0  0  0
  187.9000  178.1520  138.6370 C   0  0  0  0  0  0  0  0  0  0  0  0
  187.0900  178.6740  137.6330 O   0  0  0  0  0  0  0  0  0  0  0  0
  189.7930  175.4500  136.9610 C   0  0  0  0  0  2  0  0  0  0  0  0
  190.7880  176.4400  136.3550 C   0  0  0  0  0  2  0  0  0  0  0  0
  192.0580  175.7660  135.9480 C   0  0  0  0  0  0  0  0  0  0  0  0
  192.2560  175.4850  134.7760 O   0  0  0  0  0  0  0  0  0  0  0  0
  193.0950  175.4560  136.9760 C   0  0  0  0  0  2  0  0  0  0  0  0
  194.1540  174.6440  136.4010 N   0  0  0  0  0  0  0  0  0  0  0  0
  195.3420  172.1520  134.6020 O   0  0  0  0  0  1  0  0  0  0  0  0
  194.1570  173.1940  136.4020 C   0  0  0  0  0  2  0  0  0  0  0  0
  195.5230  172.7760  135.8360 C   0  0  2  0  0  3  0  0  0  0  0  0
  196.3590  174.0490  135.6460 C   0  0  1  0  0  3  0  0  0  0  0  0
  195.6760  176.3570  135.8940 O   0  0  0  0  0  0  0  0  0  0  0  0
  195.4110  175.1300  135.9850 C   0  0  0  0  0  0  0  0  0  0  0  0
  198.6850  175.1540  136.4130 O   0  0  0  0  0  0  0  0  0  0  0  0
  198.4440  172.7280  136.7220 O   0  0  0  0  0  0  0  0  0  0  0  0
  197.7360  174.0500  136.7840 S   0  0  0  0  0  0  0  0  0  0  0  0
  199.0640  175.4020  139.1410 O   0  0  0  0  0  0  0  0  0  0  0  0
  197.1380  174.3180  138.3860 N   0  0  0  0  0  2  0  0  0  0  0  0
  197.9090  174.9700  139.3940 C   0  0  0  0  0  0  0  0  0  0  0  0
  197.3250  175.1750  140.7450 C   0  0  0  0  0  2  0  0  0  0  0  0
  198.3440  175.1800  141.6980 O   0  0  0  0  0  1  0  0  0  0  0  0
  185.4820  177.1370  136.6490 C   0  0  0  0  0  2  0  0  0  0  0  0
  184.5900  177.8690  137.5100 N   0  0  0  0  0  0  0  0  0  0  0  0
  184.1780  177.3590  138.6130 C   0  0  0  0  0  3  0  0  0  0  0  0
  180.5720  179.2350  142.4370 C   0  0  0  0  0  2  0  0  0  0  0  0
  179.7420  177.5360  140.9510 N   0  0  0  0  0  0  0  0  0  0  0  0
  183.2370  178.1190  139.4880 C   0  0  2  0  0  3  0  0  0  0  0  0
  179.3590  178.3860  142.0710 C   0  0  0  0  0  2  0  0  0  0  0  0
  181.5220  179.0390  141.3610 N   0  0  1  0  0  0  0  0  0  0  0  0
  184.9430  179.3040  140.7110 O   0  0  0  0  0  1  0  0  0  0  0  0
  183.8790  178.4120  140.8630 C   0  0  1  0  0  3  0  0  0  0  0  0
  182.8810  178.9850  141.8970 C   0  0  0  0  0  2  0  0  0  0  0  0
  179.1300  178.1250  139.7650 C   0  0  0  0  0  1  0  0  0  0  0  0
  181.1930  177.7000  140.9110 C   0  0  2  0  0  3  0  0  0  0  0  0
  181.8940  177.3680  139.5910 C   0  0  0  0  0  2  0  0  0  0  0  0
  189.3830  178.1500  141.8530 C   0  0  0  0  0  2  0  0  0  0  0  0
  189.1490  176.9630  142.7790 C   0  0  0  0  0  2  0  0  0  0  0  0
  191.3360  177.5640  143.3830 C   0  0  0  0  0  2  0  0  0  0  0  0
  190.8320  176.9320  144.5950 C   0  0  2  0  0  3  0  0  0  0  0  0
  190.4210  176.4180  143.2600 N   0  0  0  0  0  0  0  0  0  0  0  0
  189.8210  177.8490  145.2850 C   0  0  0  0  0  2  0  0  0  0  0  0
  189.7330  177.4200  147.5900 C   0  0  0  0  0  2  0  0  0  0  0  0
  189.1040  177.1020  146.3080 N   0  0  0  0  0  0  0  0  0  0  0  0
  187.4130  177.9310  147.8010 C   0  0  0  0  0  2  0  0  0  0  0  0
  188.7490  178.2140  148.4260 C   0  0  0  0  0  2  0  0  0  0  0  0
  187.7440  177.6370  146.3560 C   0  0  0  0  0  2  0  0  0  0  0  0
  1  4  2  0  0  0  0
  2  3  1  1  0  0  0
  2  5  1  0  0  0  0
  4 45  1  0  0  0  0
  5  9  2  0  0  0  0
  5  1  1  0  0  0  0
  6 31  1  1  0  0  0
  6 10  1  0  0  0  0
  7  6  1  0  0  0  0
  7  2  1  0  0  0  0
  8  4  1  0  0  0  0
  9  8  1  0  0  0  0
 10  9  1  0  0  0  0
 11  2  1  0  0  0  0
 12 11  1  0  0  0  0
 13 12  1  0  0  0  0
 13 15  1  0  0  0  0
 14 13  2  0  0  0  0
 16 18  1  0  0  0  0
 16 15  1  0  0  0  0
 19 17  1  6  0  0  0
 19 18  1  0  0  0  0
 20 19  1  0  0  0  0
 20 22  1  0  0  0  0
 20 25  1  1  0  0  0
 21 22  2  0  0  0  0
 22 16  1  0  0  0  0
 23 25  2  0  0  0  0
 24 25  2  0  0  0  0
 25 27  1  0  0  0  0
 26 28  2  0  0  0  0
 27 28  1  0  0  0  0
 28 29  1  0  0  0  0
 29 30  1  0  0  0  0
 31 32  1  0  0  0  0
 32 33  2  0  0  0  0
 35 37  1  0  0  0  0
 36 33  1  6  0  0  0
 36 44  1  0  0  0  0
 36 40  1  0  0  0  0
 37 34  1  0  0  0  0
 38 41  1  1  0  0  0
 38 34  1  0  0  0  0
 40 39  1  6  0  0  0
 40 41  1  0  0  0  0
 42 35  1  0  0  0  0
 43 44  1  6  0  0  0
 43 35  1  0  0  0  0
 43 38  1  0  0  0  0
 45 46  1  0  0  0  0
 46 49  1  0  0  0  0
 47 48  1  0  0  0  0
 48 50  1  1  0  0  0
 49 47  1  0  0  0  0
 49 48  1  0  0  0  0
 50 52  1  0  0  0  0
 51 54  1  0  0  0  0
 52 55  1  0  0  0  0
 52 51  1  0  0  0  0
 53 54  1  0  0  0  0
 55 53  1  0  0  0  0
M  END
>  <MODEL>
5

>  <REMARK>
 VINA RESULT:      -7.6      5.027     10.348
  Name = 
  16 active torsions:
  status: ('A' for Active; 'I' for Inactive)
    1  A    between atoms: C_1  and  C_6
    2  A    between atoms: C_1  and  C_46
    3  A    between atoms: C_9  and  C_22
    4  A    between atoms: C_10  and  C_13
    5  A    between atoms: C_10  and  C_46
    6  A    between atoms: C_11  and  C_32
    7  A    between atoms: C_13  and  N_15
    8  A    between atoms: C_14  and  C_43
    9  A    between atoms: N_17  and  C_30
   10  A    between atoms: C_22  and  C_41
   11  A    between atoms: C_26  and  C_30
   12  A    between atoms: N_28  and  S_54
   13  A    between atoms: C_31  and  C_40
   14  A    between atoms: C_36  and  S_54
   15  A    between atoms: N_39  and  C_40
   16  A    between atoms: C_41  and  N_53
                            x       y       z     vdW  Elec       q    Type
                         _______ _______ _______ _____ _____    ______ ____

>  <TORSDO>
F 16

$$$$
=
 OpenBabel10222417023D

 55 61  0  0  1  0  0  0  0  0999 V2000
  188.5300  177.9310  138.7610 C   0  0  0  0  0  3  0  0  0  0  0  0
  189.1790  176.5040  136.6730 C   0  0  2  0  0  0  0  0  0  0  0  0
  189.9340  177.4120  135.9480 F   0  0  0  0  0  0  0  0  0  0  0  0
  189.0600  177.9010  140.0510 C   0  0  0  0  0  0  0  0  0  0  0  0
  189.2030  176.9120  138.1170 C   0  0  0  0  0  0  0  0  0  0  0  0
  191.0950  174.8980  137.3480 C   0  0  2  0  0  3  0  0  0  0  0  0
  189.7950  175.0920  136.5370 C   0  0  0  0  0  2  0  0  0  0  0  0
  189.9720  176.9640  140.1780 O   0  0  0  0  0  0  0  0  0  0  0  0
  190.0760  176.3750  139.0190 C   0  0  0  0  0  0  0  0  0  0  0  0
  190.9470  175.3350  138.7050 O   0  0  0  0  0  0  0  0  0  0  0  0
  187.7380  176.4930  136.1540 C   0  0  0  0  0  2  0  0  0  0  0  0
  186.9410  175.2730  136.6180 C   0  0  0  0  0  2  0  0  0  0  0  0
  185.4710  175.5350  136.6020 C   0  0  0  0  0  0  0  0  0  0  0  0
  184.6970  174.7260  137.0900 O   0  0  0  0  0  0  0  0  0  0  0  0
  184.9500  176.8010  136.0060 C   0  0  0  0  0  2  0  0  0  0  0  0
  184.2640  177.5930  137.0130 N   0  0  0  0  0  0  0  0  0  0  0  0
  183.9680  180.1120  139.1150 O   0  0  0  0  0  1  0  0  0  0  0  0
  184.8930  178.0960  138.2180 C   0  0  0  0  0  2  0  0  0  0  0  0
  183.7670  178.7350  139.0460 C   0  0  2  0  0  3  0  0  0  0  0  0
  182.4410  178.4490  138.3290 C   0  0  1  0  0  3  0  0  0  0  0  0
  182.0820  177.4330  136.1610 O   0  0  0  0  0  0  0  0  0  0  0  0
  182.8680  177.7800  137.0820 C   0  0  0  0  0  0  0  0  0  0  0  0
  182.0590  175.9760  139.3070 O   0  0  0  0  0  0  0  0  0  0  0  0
  180.0520  177.2770  138.7460 O   0  0  0  0  0  0  0  0  0  0  0  0
  181.4410  177.3440  139.3140 S   0  0  0  0  0  0  0  0  0  0  0  0
  180.3050  179.9380  140.3780 O   0  0  0  0  0  0  0  0  0  0  0  0
  181.3790  177.9410  140.9370 N   0  0  0  0  0  2  0  0  0  0  0  0
  180.8110  179.2070  141.2690 C   0  0  0  0  0  0  0  0  0  0  0  0
  180.7840  179.6480  142.6880 C   0  0  0  0  0  2  0  0  0  0  0  0
  180.0780  180.8470  142.7900 O   0  0  0  0  0  1  0  0  0  0  0  0
  192.2630  175.6150  136.6790 C   0  0  0  0  0  2  0  0  0  0  0  0
  193.4110  174.7500  136.6070 N   0  0  0  0  0  0  0  0  0  0  0  0
  194.3100  174.7750  137.5220 C   0  0  0  0  0  3  0  0  0  0  0  0
  198.3560  171.1760  136.1720 C   0  0  0  0  0  2  0  0  0  0  0  0
  196.1670  170.2300  136.4850 N   0  0  0  0  0  0  0  0  0  0  0  0
  195.5070  173.8880  137.4260 C   0  0  2  0  0  3  0  0  0  0  0  0
  197.5440  169.8850  136.1580 C   0  0  0  0  0  2  0  0  0  0  0  0
  197.4860  172.1760  136.7560 N   0  0  1  0  0  0  0  0  0  0  0  0
  197.0680  175.6410  136.8770 O   0  0  0  0  0  1  0  0  0  0  0  0
  196.5240  174.4440  136.4040 C   0  0  1  0  0  3  0  0  0  0  0  0
  197.6720  173.4590  136.0810 C   0  0  0  0  0  2  0  0  0  0  0  0
  195.9630  169.8210  137.8700 C   0  0  0  0  0  1  0  0  0  0  0  0
  196.1740  171.6870  136.3800 C   0  0  2  0  0  3  0  0  0  0  0  0
  195.0650  172.4420  137.1190 C   0  0  0  0  0  2  0  0  0  0  0  0
  188.6630  178.8030  141.1730 C   0  0  0  0  0  2  0  0  0  0  0  0
  188.8250  178.1330  142.5310 C   0  0  0  0  0  2  0  0  0  0  0  0
  188.2530  176.0160  143.3680 C   0  0  0  0  0  2  0  0  0  0  0  0
  187.5380  176.9160  144.2610 C   0  0  2  0  0  3  0  0  0  0  0  0
  187.6860  177.2590  142.8210 N   0  0  0  0  0  0  0  0  0  0  0  0
  188.5210  177.6100  145.2060 C   0  0  0  0  0  2  0  0  0  0  0  0
  189.6770  177.2880  147.2220 C   0  0  0  0  0  2  0  0  0  0  0  0
  188.4100  177.0300  146.5370 N   0  0  0  0  0  0  0  0  0  0  0  0
  187.9410  178.1810  148.5930 C   0  0  0  0  0  2  0  0  0  0  0  0
  189.4220  178.2650  148.3530 C   0  0  0  0  0  2  0  0  0  0  0  0
  187.3780  177.7820  147.2490 C   0  0  0  0  0  2  0  0  0  0  0  0
  1  4  2  0  0  0  0
  2  3  1  6  0  0  0
  2  5  1  0  0  0  0
  4  8  1  0  0  0  0
  4 45  1  0  0  0  0
  5  1  1  0  0  0  0
  5  9  2  0  0  0  0
  6 31  1  6  0  0  0
  6 10  1  0  0  0  0
  7  2  1  0  0  0  0
  7  6  1  0  0  0  0
  9  8  1  0  0  0  0
 10  9  1  0  0  0  0
 11 12  1  0  0  0  0
 11  2  1  0  0  0  0
 13 12  1  0  0  0  0
 13 14  2  0  0  0  0
 15 13  1  0  0  0  0
 15 16  1  0  0  0  0
 16 22  1  0  0  0  0
 16 18  1  0  0  0  0
 18 19  1  0  0  0  0
 19 17  1  6  0  0  0
 20 19  1  0  0  0  0
 20 25  1  1  0  0  0
 21 22  2  0  0  0  0
 22 20  1  0  0  0  0
 23 25  2  0  0  0  0
 24 25  2  0  0  0  0
 25 27  1  0  0  0  0
 26 28  2  0  0  0  0
 27 28  1  0  0  0  0
 28 29  1  0  0  0  0
 29 30  1  0  0  0  0
 32 31  1  0  0  0  0
 32 33  2  0  0  0  0
 34 38  1  0  0  0  0
 35 42  1  0  0  0  0
 36 33  1  6  0  0  0
 37 34  1  0  0  0  0
 37 35  1  0  0  0  0
 38 41  1  6  0  0  0
 40 39  1  1  0  0  0
 40 36  1  0  0  0  0
 41 40  1  0  0  0  0
 43 35  1  0  0  0  0
 43 38  1  0  0  0  0
 43 44  1  1  0  0  0
 44 36  1  0  0  0  0
 45 46  1  0  0  0  0
 46 49  1  0  0  0  0
 47 48  1  0  0  0  0
 48 50  1  1  0  0  0
 49 47  1  0  0  0  0
 49 48  1  0  0  0  0
 50 52  1  0  0  0  0
 51 54  1  0  0  0  0
 52 51  1  0  0  0  0
 52 55  1  0  0  0  0
 54 53  1  0  0  0  0
 55 53  1  0  0  0  0
M  END
>  <MODEL>
6

>  <REMARK>
 VINA RESULT:      -7.5      3.638      6.885
  Name = 
  16 active torsions:
  status: ('A' for Active; 'I' for Inactive)
    1  A    between atoms: C_1  and  C_6
    2  A    between atoms: C_1  and  C_46
    3  A    between atoms: C_9  and  C_22
    4  A    between atoms: C_10  and  C_13
    5  A    between atoms: C_10  and  C_46
    6  A    between atoms: C_11  and  C_32
    7  A    between atoms: C_13  and  N_15
    8  A    between atoms: C_14  and  C_43
    9  A    between atoms: N_17  and  C_30
   10  A    between atoms: C_22  and  C_41
   11  A    between atoms: C_26  and  C_30
   12  A    between atoms: N_28  and  S_54
   13  A    between atoms: C_31  and  C_40
   14  A    between atoms: C_36  and  S_54
   15  A    between atoms: N_39  and  C_40
   16  A    between atoms: C_41  and  N_53
                            x       y       z     vdW  Elec       q    Type
                         _______ _______ _______ _____ _____    ______ ____

>  <TORSDO>
F 16

$$$$
=
 OpenBabel10222417023D

 55 61  0  0  1  0  0  0  0  0999 V2000
  184.6160  178.8660  141.5990 C   0  0  0  0  0  3  0  0  0  0  0  0
  182.7870  179.0180  143.4560 C   0  0  2  0  0  0  0  0  0  0  0  0
  182.7070  180.3890  143.6460 F   0  0  0  0  0  0  0  0  0  0  0  0
  184.4690  178.6370  140.2310 C   0  0  0  0  0  0  0  0  0  0  0  0
  183.3260  178.7600  142.0790 C   0  0  0  0  0  0  0  0  0  0  0  0
  180.4720  178.6710  142.3500 C   0  0  2  0  0  3  0  0  0  0  0  0
  181.3760  178.3960  143.5710 C   0  0  0  0  0  2  0  0  0  0  0  0
  183.2130  178.4230  139.9080 O   0  0  0  0  0  0  0  0  0  0  0  0
  182.5170  178.5100  141.0080 C   0  0  0  0  0  0  0  0  0  0  0  0
  181.1360  178.3710  141.1160 O   0  0  0  0  0  0  0  0  0  0  0  0
  183.7140  178.4000  144.5080 C   0  0  0  0  0  2  0  0  0  0  0  0
  184.8300  179.3450  144.9540 C   0  0  0  0  0  2  0  0  0  0  0  0
  185.7850  178.6700  145.8840 C   0  0  0  0  0  0  0  0  0  0  0  0
  185.9840  179.1290  146.9980 O   0  0  0  0  0  0  0  0  0  0  0  0
  186.4800  177.4210  145.4560 C   0  0  0  0  0  2  0  0  0  0  0  0
  187.3970  177.6980  144.3630 N   0  0  0  0  0  0  0  0  0  0  0  0
  188.2190  178.9070  141.4110 O   0  0  0  0  0  1  0  0  0  0  0  0
  187.0800  177.4880  142.9640 C   0  0  0  0  0  2  0  0  0  0  0  0
  188.3790  177.7640  142.1920 C   0  0  2  0  0  3  0  0  0  0  0  0
  189.4920  178.0020  143.2210 C   0  0  1  0  0  3  0  0  0  0  0  0
  189.3100  178.2000  145.6260 O   0  0  0  0  0  0  0  0  0  0  0  0
  188.7710  177.9760  144.5110 C   0  0  0  0  0  0  0  0  0  0  0  0
  190.0290  175.4510  142.5700 O   0  0  0  0  0  0  0  0  0  0  0  0
  191.1910  176.3720  144.5300 O   0  0  0  0  0  0  0  0  0  0  0  0
  190.6830  176.6720  143.1490 S   0  0  0  0  0  0  0  0  0  0  0  0
  190.8960  176.6900  140.1310 O   0  0  0  0  0  0  0  0  0  0  0  0
  192.0010  177.1550  142.1350 N   0  0  0  0  0  2  0  0  0  0  0  0
  191.9390  177.0880  140.7120 C   0  0  0  0  0  0  0  0  0  0  0  0
  193.1080  177.5300  139.9060 C   0  0  0  0  0  2  0  0  0  0  0  0
  194.2140  176.7390  140.2160 O   0  0  0  0  0  1  0  0  0  0  0  0
  179.9790  180.1140  142.3550 C   0  0  0  0  0  2  0  0  0  0  0  0
  180.1220  180.7010  141.0480 N   0  0  0  0  0  0  0  0  0  0  0  0
  179.1660  180.6420  140.1940 C   0  0  0  0  0  3  0  0  0  0  0  0
  180.7790  183.2020  135.5060 C   0  0  0  0  0  2  0  0  0  0  0  0
  180.4310  184.6230  137.4150 N   0  0  0  0  0  0  0  0  0  0  0  0
  179.3340  181.2360  138.8350 C   0  0  2  0  0  3  0  0  0  0  0  0
  180.8150  184.6420  136.0090 C   0  0  0  0  0  2  0  0  0  0  0  0
  180.1300  182.4410  136.5530 N   0  0  1  0  0  0  0  0  0  0  0  0
  179.8670  179.1620  137.7270 O   0  0  0  0  0  1  0  0  0  0  0  0
  180.3660  180.4360  138.0090 C   0  0  1  0  0  3  0  0  0  0  0  0
  180.7630  181.1290  136.6840 C   0  0  0  0  0  2  0  0  0  0  0  0
  179.0560  185.1080  137.4670 C   0  0  0  0  0  1  0  0  0  0  0  0
  180.4820  183.1990  137.7370 C   0  0  2  0  0  3  0  0  0  0  0  0
  179.6800  182.7340  138.9560 C   0  0  0  0  0  2  0  0  0  0  0  0
  185.5760  178.6260  139.2290 C   0  0  0  0  0  2  0  0  0  0  0  0
  185.2770  177.7020  138.0540 C   0  0  0  0  0  2  0  0  0  0  0  0
  187.1770  176.7450  137.0660 C   0  0  0  0  0  2  0  0  0  0  0  0
  186.2390  176.8130  135.9540 C   0  0  2  0  0  3  0  0  0  0  0  0
  186.2560  177.8890  136.9820 N   0  0  0  0  0  0  0  0  0  0  0  0
  185.1440  175.7580  136.1250 C   0  0  0  0  0  2  0  0  0  0  0  0
  184.4560  174.0780  137.6100 C   0  0  0  0  0  2  0  0  0  0  0  0
  185.6290  174.6860  136.9820 N   0  0  0  0  0  0  0  0  0  0  0  0
  185.6430  172.3310  136.5020 C   0  0  0  0  0  2  0  0  0  0  0  0
  184.2940  172.6710  137.0690 C   0  0  0  0  0  2  0  0  0  0  0  0
  186.2190  173.6720  136.1100 C   0  0  0  0  0  2  0  0  0  0  0  0
  1  5  1  0  0  0  0
  2  7  1  0  0  0  0
  2  3  1  1  0  0  0
  2 11  1  0  0  0  0
  4  1  2  0  0  0  0
  5  2  1  0  0  0  0
  6 31  1  6  0  0  0
  6  7  1  0  0  0  0
  8  4  1  0  0  0  0
  8  9  1  0  0  0  0
  9 10  1  0  0  0  0
  9  5  2  0  0  0  0
 10  6  1  0  0  0  0
 11 12  1  0  0  0  0
 12 13  1  0  0  0  0
 13 14  2  0  0  0  0
 15 13  1  0  0  0  0
 16 22  1  0  0  0  0
 16 15  1  0  0  0  0
 18 16  1  0  0  0  0
 19 17  1  6  0  0  0
 19 18  1  0  0  0  0
 19 20  1  0  0  0  0
 20 25  1  1  0  0  0
 20 22  1  0  0  0  0
 22 21  2  0  0  0  0
 23 25  2  0  0  0  0
 25 24  2  0  0  0  0
 26 28  2  0  0  0  0
 27 25  1  0  0  0  0
 28 27  1  0  0  0  0
 29 30  1  0  0  0  0
 29 28  1  0  0  0  0
 32 31  1  0  0  0  0
 33 32  2  0  0  0  0
 34 37  1  0  0  0  0
 35 42  1  0  0  0  0
 35 43  1  0  0  0  0
 36 44  1  0  0  0  0
 36 33  1  1  0  0  0
 37 35  1  0  0  0  0
 38 34  1  6  0  0  0
 38 41  1  0  0  0  0
 38 43  1  0  0  0  0
 40 39  1  6  0  0  0
 40 36  1  0  0  0  0
 41 40  1  0  0  0  0
 43 44  1  1  0  0  0
 45  4  1  0  0  0  0
 46 45  1  0  0  0  0
 48 50  1  1  0  0  0
 48 49  1  0  0  0  0
 48 47  1  0  0  0  0
 49 47  1  0  0  0  0
 49 46  1  0  0  0  0
 50 52  1  0  0  0  0
 52 51  1  0  0  0  0
 53 54  1  0  0  0  0
 54 51  1  0  0  0  0
 55 53  1  0  0  0  0
 55 52  1  0  0  0  0
M  END
>  <MODEL>
7

>  <REMARK>
 VINA RESULT:      -7.3      3.395      8.977
  Name = 
  16 active torsions:
  status: ('A' for Active; 'I' for Inactive)
    1  A    between atoms: C_1  and  C_6
    2  A    between atoms: C_1  and  C_46
    3  A    between atoms: C_9  and  C_22
    4  A    between atoms: C_10  and  C_13
    5  A    between atoms: C_10  and  C_46
    6  A    between atoms: C_11  and  C_32
    7  A    between atoms: C_13  and  N_15
    8  A    between atoms: C_14  and  C_43
    9  A    between atoms: N_17  and  C_30
   10  A    between atoms: C_22  and  C_41
   11  A    between atoms: C_26  and  C_30
   12  A    between atoms: N_28  and  S_54
   13  A    between atoms: C_31  and  C_40
   14  A    between atoms: C_36  and  S_54
   15  A    between atoms: N_39  and  C_40
   16  A    between atoms: C_41  and  N_53
                            x       y       z     vdW  Elec       q    Type
                         _______ _______ _______ _____ _____    ______ ____

>  <TORSDO>
F 16

$$$$
=
 OpenBabel10222417023D

 55 61  0  0  1  0  0  0  0  0999 V2000
  187.3220  178.4770  140.6550 C   0  0  0  0  0  3  0  0  0  0  0  0
  189.0470  177.8350  138.8040 C   0  0  2  0  0  0  0  0  0  0  0  0
  189.7500  179.0220  138.6640 F   0  0  0  0  0  0  0  0  0  0  0  0
  187.3270  178.1610  142.0140 C   0  0  0  0  0  0  0  0  0  0  0  0
  188.4280  177.8070  140.1700 C   0  0  0  0  0  0  0  0  0  0  0  0
  190.9280  176.4280  139.8940 C   0  0  2  0  0  3  0  0  0  0  0  0
  190.0170  176.6390  138.6650 C   0  0  0  0  0  2  0  0  0  0  0  0
  188.3380  177.3840  142.3270 O   0  0  0  0  0  0  0  0  0  0  0  0
  189.0150  177.1780  141.2310 C   0  0  0  0  0  0  0  0  0  0  0  0
  190.1790  176.4250  141.1170 O   0  0  0  0  0  0  0  0  0  0  0  0
  187.9570  177.7460  137.7310 C   0  0  0  0  0  2  0  0  0  0  0  0
  187.4810  176.3150  137.4760 C   0  0  0  0  0  2  0  0  0  0  0  0
  186.3980  176.2690  136.4480 C   0  0  0  0  0  0  0  0  0  0  0  0
  186.3080  175.3140  135.6940 O   0  0  0  0  0  0  0  0  0  0  0  0
  185.4120  177.3870  136.3600 C   0  0  0  0  0  2  0  0  0  0  0  0
  184.4150  177.2700  137.4100 N   0  0  0  0  0  0  0  0  0  0  0  0
  182.6220  175.6260  139.6330 O   0  0  0  0  0  1  0  0  0  0  0  0
  183.3980  176.2360  137.4530 C   0  0  0  0  0  2  0  0  0  0  0  0
  182.4860  176.5920  138.6370 C   0  0  2  0  0  3  0  0  0  0  0  0
  182.9390  177.9530  139.1830 C   0  0  1  0  0  3  0  0  0  0  0  0
  184.8770  179.2630  138.5600 O   0  0  0  0  0  0  0  0  0  0  0  0
  184.1450  178.2530  138.3840 C   0  0  0  0  0  0  0  0  0  0  0  0
  181.1760  179.0450  137.4750 O   0  0  0  0  0  0  0  0  0  0  0  0
  182.2460  180.5540  139.0930 O   0  0  0  0  0  0  0  0  0  0  0  0
  181.6760  179.1800  138.8850 S   0  0  0  0  0  0  0  0  0  0  0  0
  181.6960  179.0210  141.9060 O   0  0  0  0  0  0  0  0  0  0  0  0
  180.3680  178.9180  139.9880 N   0  0  0  0  0  2  0  0  0  0  0  0
  180.5550  178.8590  141.4000 C   0  0  0  0  0  0  0  0  0  0  0  0
  179.3810  178.6410  142.2870 C   0  0  0  0  0  2  0  0  0  0  0  0
  179.6810  177.6530  143.2240 O   0  0  0  0  0  1  0  0  0  0  0  0
  192.0280  177.4830  139.9420 C   0  0  0  0  0  2  0  0  0  0  0  0
  193.1060  177.1270  139.0580 N   0  0  0  0  0  0  0  0  0  0  0  0
  193.0920  176.0130  138.4220 C   0  0  0  0  0  3  0  0  0  0  0  0
  197.0900  173.5920  135.3730 C   0  0  0  0  0  2  0  0  0  0  0  0
  197.3220  173.3960  137.7590 N   0  0  0  0  0  0  0  0  0  0  0  0
  194.2260  175.6440  137.5230 C   0  0  2  0  0  3  0  0  0  0  0  0
  197.9570  173.0340  136.4980 C   0  0  0  0  0  2  0  0  0  0  0  0
  196.1360  174.4700  136.0170 N   0  0  1  0  0  0  0  0  0  0  0  0
  192.9990  175.9030  135.4640 O   0  0  0  0  0  1  0  0  0  0  0  0
  193.7080  174.9750  136.2300 C   0  0  1  0  0  3  0  0  0  0  0  0
  194.8310  174.3570  135.3660 C   0  0  0  0  0  2  0  0  0  0  0  0
  198.1020  174.5010  138.3050 C   0  0  0  0  0  1  0  0  0  0  0  0
  196.0070  173.8640  137.3270 C   0  0  2  0  0  3  0  0  0  0  0  0
  195.2440  174.7780  138.2920 C   0  0  0  0  0  2  0  0  0  0  0  0
  186.3210  178.6260  143.0160 C   0  0  0  0  0  2  0  0  0  0  0  0
  186.4200  177.8550  144.3260 C   0  0  0  0  0  2  0  0  0  0  0  0
  185.6090  177.8730  146.5290 C   0  0  0  0  0  2  0  0  0  0  0  0
  186.9570  178.4030  146.6800 C   0  0  2  0  0  3  0  0  0  0  0  0
  186.1590  178.7330  145.4690 N   0  0  0  0  0  0  0  0  0  0  0  0
  187.9850  177.2840  146.5040 C   0  0  0  0  0  2  0  0  0  0  0  0
  189.9950  177.3030  147.7140 C   0  0  0  0  0  2  0  0  0  0  0  0
  189.3280  177.8450  146.5300 N   0  0  0  0  0  0  0  0  0  0  0  0
  191.3660  176.7810  145.8340 C   0  0  0  0  0  2  0  0  0  0  0  0
  191.1090  176.3820  147.2590 C   0  0  0  0  0  2  0  0  0  0  0  0
  190.0360  177.3210  145.3640 C   0  0  0  0  0  2  0  0  0  0  0  0
  1  4  2  0  0  0  0
  2  3  1  6  0  0  0
  2  5  1  0  0  0  0
  4  8  1  0  0  0  0
  4 45  1  0  0  0  0
  5  1  1  0  0  0  0
  5  9  2  0  0  0  0
  6 31  1  1  0  0  0
  6 10  1  0  0  0  0
  7  2  1  0  0  0  0
  7  6  1  0  0  0  0
  9  8  1  0  0  0  0
 10  9  1  0  0  0  0
 11  2  1  0  0  0  0
 12 11  1  0  0  0  0
 13 12  1  0  0  0  0
 14 13  2  0  0  0  0
 15 13  1  0  0  0  0
 15 16  1  0  0  0  0
 16 18  1  0  0  0  0
 16 22  1  0  0  0  0
 18 19  1  0  0  0  0
 19 20  1  0  0  0  0
 19 17  1  1  0  0  0
 20 25  1  6  0  0  0
 22 21  2  0  0  0  0
 22 20  1  0  0  0  0
 23 25  2  0  0  0  0
 25 24  2  0  0  0  0
 25 27  1  0  0  0  0
 27 28  1  0  0  0  0
 28 26  2  0  0  0  0
 28 29  1  0  0  0  0
 29 30  1  0  0  0  0
 32 31  1  0  0  0  0
 33 32  2  0  0  0  0
 34 38  1  0  0  0  0
 34 37  1  0  0  0  0
 35 42  1  0  0  0  0
 36 44  1  0  0  0  0
 36 33  1  1  0  0  0
 37 35  1  0  0  0  0
 38 41  1  6  0  0  0
 38 43  1  0  0  0  0
 40 39  1  6  0  0  0
 40 36  1  0  0  0  0
 41 40  1  0  0  0  0
 43 35  1  0  0  0  0
 43 44  1  1  0  0  0
 45 46  1  0  0  0  0
 46 49  1  0  0  0  0
 47 48  1  0  0  0  0
 48 50  1  6  0  0  0
 49 47  1  0  0  0  0
 49 48  1  0  0  0  0
 50 52  1  0  0  0  0
 52 51  1  0  0  0  0
 53 54  1  0  0  0  0
 54 51  1  0  0  0  0
 55 53  1  0  0  0  0
 55 52  1  0  0  0  0
M  END
>  <MODEL>
8

>  <REMARK>
 VINA RESULT:      -7.2      2.858      5.730
  Name = 
  16 active torsions:
  status: ('A' for Active; 'I' for Inactive)
    1  A    between atoms: C_1  and  C_6
    2  A    between atoms: C_1  and  C_46
    3  A    between atoms: C_9  and  C_22
    4  A    between atoms: C_10  and  C_13
    5  A    between atoms: C_10  and  C_46
    6  A    between atoms: C_11  and  C_32
    7  A    between atoms: C_13  and  N_15
    8  A    between atoms: C_14  and  C_43
    9  A    between atoms: N_17  and  C_30
   10  A    between atoms: C_22  and  C_41
   11  A    between atoms: C_26  and  C_30
   12  A    between atoms: N_28  and  S_54
   13  A    between atoms: C_31  and  C_40
   14  A    between atoms: C_36  and  S_54
   15  A    between atoms: N_39  and  C_40
   16  A    between atoms: C_41  and  N_53
                            x       y       z     vdW  Elec       q    Type
                         _______ _______ _______ _____ _____    ______ ____

>  <TORSDO>
F 16

$$$$
=
 OpenBabel10222417023D

 55 61  0  0  1  0  0  0  0  0999 V2000
  184.6330  178.8280  141.8870 C   0  0  0  0  0  3  0  0  0  0  0  0
  182.8750  179.1190  143.7950 C   0  0  2  0  0  0  0  0  0  0  0  0
  182.8490  180.4980  143.9320 F   0  0  0  0  0  0  0  0  0  0  0  0
  184.4320  178.5510  140.5340 C   0  0  0  0  0  0  0  0  0  0  0  0
  183.3570  178.7880  142.4130 C   0  0  0  0  0  0  0  0  0  0  0  0
  180.5130  178.8110  142.7800 C   0  0  2  0  0  3  0  0  0  0  0  0
  181.4490  178.5520  143.9810 C   0  0  0  0  0  2  0  0  0  0  0  0
  183.1590  178.3690  140.2620 O   0  0  0  0  0  0  0  0  0  0  0  0
  182.5050  178.5240  141.3800 C   0  0  0  0  0  0  0  0  0  0  0  0
  181.1240  178.4390  141.5380 O   0  0  0  0  0  0  0  0  0  0  0  0
  183.8160  178.5100  144.8400 C   0  0  0  0  0  2  0  0  0  0  0  0
  185.1340  179.2730  144.9790 C   0  0  0  0  0  2  0  0  0  0  0  0
  185.8470  178.9170  146.2420 C   0  0  0  0  0  0  0  0  0  0  0  0
  186.0360  179.7650  147.1000 O   0  0  0  0  0  0  0  0  0  0  0  0
  186.3080  177.5150  146.4630 C   0  0  0  0  0  2  0  0  0  0  0  0
  187.7090  177.3770  146.1010 N   0  0  0  0  0  0  0  0  0  0  0  0
  190.8790  176.7100  146.7020 O   0  0  0  0  0  1  0  0  0  0  0  0
  188.8070  177.8910  146.8970 C   0  0  0  0  0  2  0  0  0  0  0  0
  190.0770  177.6540  146.0650 C   0  0  2  0  0  3  0  0  0  0  0  0
  189.6430  177.1140  144.6950 C   0  0  1  0  0  3  0  0  0  0  0  0
  187.4330  176.4570  143.9590 O   0  0  0  0  0  0  0  0  0  0  0  0
  188.1820  176.9490  144.8440 C   0  0  0  0  0  0  0  0  0  0  0  0
  190.9440  179.3510  143.9720 O   0  0  0  0  0  0  0  0  0  0  0  0
  188.7340  178.9690  142.9670 O   0  0  0  0  0  0  0  0  0  0  0  0
  190.0060  178.3140  143.4230 S   0  0  0  0  0  0  0  0  0  0  0  0
  188.7830  177.2570  140.8660 O   0  0  0  0  0  0  0  0  0  0  0  0
  190.7570  177.5060  142.0880 N   0  0  0  0  0  2  0  0  0  0  0  0
  190.0230  177.0570  140.9510 C   0  0  0  0  0  0  0  0  0  0  0  0
  190.7380  176.3810  139.8370 C   0  0  0  0  0  2  0  0  0  0  0  0
  191.8040  177.1750  139.4160 O   0  0  0  0  0  1  0  0  0  0  0  0
  180.0700  180.2700  142.7430 C   0  0  0  0  0  2  0  0  0  0  0  0
  180.0660  180.7610  141.3900 N   0  0  0  0  0  0  0  0  0  0  0  0
  179.1640  180.3840  140.5580 C   0  0  0  0  0  3  0  0  0  0  0  0
  180.3270  182.3560  135.4690 C   0  0  0  0  0  2  0  0  0  0  0  0
  180.7140  183.8690  137.2980 N   0  0  0  0  0  0  0  0  0  0  0  0
  179.1810  180.8840  139.1510 C   0  0  2  0  0  3  0  0  0  0  0  0
  180.7960  183.7580  135.8470 C   0  0  0  0  0  2  0  0  0  0  0  0
  179.7490  181.8010  136.6750 N   0  0  1  0  0  0  0  0  0  0  0  0
  178.9830  178.7150  138.1190 O   0  0  0  0  0  1  0  0  0  0  0  0
  179.8100  179.8380  138.2040 C   0  0  1  0  0  3  0  0  0  0  0  0
  180.0750  180.3800  136.7800 C   0  0  0  0  0  2  0  0  0  0  0  0
  179.5290  184.6720  137.5780 C   0  0  0  0  0  1  0  0  0  0  0  0
  180.5010  182.4840  137.7090 C   0  0  2  0  0  3  0  0  0  0  0  0
  179.8810  182.2580  139.0910 C   0  0  0  0  0  2  0  0  0  0  0  0
  185.5030  178.4610  139.4980 C   0  0  0  0  0  2  0  0  0  0  0  0
  184.9310  178.3500  138.0900 C   0  0  0  0  0  2  0  0  0  0  0  0
  183.8490  177.0220  136.4850 C   0  0  0  0  0  2  0  0  0  0  0  0
  185.1070  176.3180  136.6870 C   0  0  2  0  0  3  0  0  0  0  0  0
  184.4410  176.9940  137.8320 N   0  0  0  0  0  0  0  0  0  0  0  0
  186.2550  177.0970  136.0420 C   0  0  0  0  0  2  0  0  0  0  0  0
  188.1710  176.2610  134.9760 C   0  0  0  0  0  2  0  0  0  0  0  0
  187.5100  176.3970  136.2750 N   0  0  0  0  0  0  0  0  0  0  0  0
  189.7070  177.3590  136.4350 C   0  0  0  0  0  2  0  0  0  0  0  0
  189.4200  177.1210  134.9790 C   0  0  0  0  0  2  0  0  0  0  0  0
  188.3480  177.2750  137.0900 C   0  0  0  0  0  2  0  0  0  0  0  0
  1  5  1  0  0  0  0
  2  3  1  1  0  0  0
  2  7  1  0  0  0  0
  2 11  1  0  0  0  0
  4  1  2  0  0  0  0
  5  2  1  0  0  0  0
  6 31  1  6  0  0  0
  6  7  1  0  0  0  0
  8  4  1  0  0  0  0
  8  9  1  0  0  0  0
  9 10  1  0  0  0  0
  9  5  2  0  0  0  0
 10  6  1  0  0  0  0
 11 12  1  0  0  0  0
 12 13  1  0  0  0  0
 13 15  1  0  0  0  0
 13 14  2  0  0  0  0
 16 15  1  0  0  0  0
 16 18  1  0  0  0  0
 19 17  1  1  0  0  0
 19 18  1  0  0  0  0
 20 25  1  6  0  0  0
 20 22  1  0  0  0  0
 20 19  1  0  0  0  0
 21 22  2  0  0  0  0
 22 16  1  0  0  0  0
 24 25  2  0  0  0  0
 25 23  2  0  0  0  0
 26 28  2  0  0  0  0
 27 25  1  0  0  0  0
 28 27  1  0  0  0  0
 29 28  1  0  0  0  0
 30 29  1  0  0  0  0
 32 31  1  0  0  0  0
 33 32  2  0  0  0  0
 34 37  1  0  0  0  0
 35 42  1  0  0  0  0
 35 43  1  0  0  0  0
 36 33  1  1  0  0  0
 37 35  1  0  0  0  0
 38 34  1  6  0  0  0
 38 41  1  0  0  0  0
 38 43  1  0  0  0  0
 40 39  1  6  0  0  0
 40 36  1  0  0  0  0
 41 40  1  0  0  0  0
 43 44  1  1  0  0  0
 44 36  1  0  0  0  0
 45  4  1  0  0  0  0
 46 45  1  0  0  0  0
 47 48  1  0  0  0  0
 47 49  1  0  0  0  0
 48 50  1  6  0  0  0
 48 49  1  0  0  0  0
 49 46  1  0  0  0  0
 50 52  1  0  0  0  0
 51 54  1  0  0  0  0
 51 52  1  0  0  0  0
 52 55  1  0  0  0  0
 53 55  1  0  0  0  0
 54 53  1  0  0  0  0
M  END
>  <MODEL>
9

>  <REMARK>
 VINA RESULT:      -7.2      3.087      8.840
  Name = 
  16 active torsions:
  status: ('A' for Active; 'I' for Inactive)
    1  A    between atoms: C_1  and  C_6
    2  A    between atoms: C_1  and  C_46
    3  A    between atoms: C_9  and  C_22
    4  A    between atoms: C_10  and  C_13
    5  A    between atoms: C_10  and  C_46
    6  A    between atoms: C_11  and  C_32
    7  A    between atoms: C_13  and  N_15
    8  A    between atoms: C_14  and  C_43
    9  A    between atoms: N_17  and  C_30
   10  A    between atoms: C_22  and  C_41
   11  A    between atoms: C_26  and  C_30
   12  A    between atoms: N_28  and  S_54
   13  A    between atoms: C_31  and  C_40
   14  A    between atoms: C_36  and  S_54
   15  A    between atoms: N_39  and  C_40
   16  A    between atoms: C_41  and  N_53
                            x       y       z     vdW  Elec       q    Type
                         _______ _______ _______ _____ _____    ______ ____

>  <TORSDO>
F 16

$$$$
