=
 OpenBabel10222418383D

 66 68  0  0  1  0  0  0  0  0999 V2000
  185.1340  179.2210  142.4910 C   0  0  1  0  0  3  0  0  0  0  0  0
  183.3580  179.4070  143.8120 C   0  0  0  0  0  1  0  0  0  0  0  0
  184.4320  180.1310  143.2920 O   0  0  0  0  0  0  0  0  0  0  0  0
  186.3350  178.6600  143.2560 C   0  0  2  0  0  3  0  0  0  0  0  0
  187.1860  177.9570  142.3940 O   0  0  0  0  0  0  0  0  0  0  0  0
  186.9180  178.4460  141.1170 C   0  0  0  0  0  1  0  0  0  0  0  0
  185.8790  177.7880  144.2500 O   0  0  0  0  0  0  0  0  0  0  0  0
  185.1990  178.1310  146.5090 C   0  0  0  0  0  1  0  0  0  0  0  0
  186.2940  178.3320  145.4740 C   0  0  1  0  0  3  0  0  0  0  0  0
  190.1450  177.1980  147.1600 C   0  0  0  0  0  2  0  0  0  0  0  0
  187.5950  177.6870  145.9610 C   0  0  2  0  0  3  0  0  0  0  0  0
  187.7440  177.8720  147.4770 C   0  0  0  0  0  2  0  0  0  0  0  0
  190.1290  177.4800  145.6400 C   0  0  1  0  0  0  0  0  0  0  0  0
  188.8220  178.1750  145.1770 C   0  0  0  0  0  2  0  0  0  0  0  0
  189.1880  178.1030  147.9300 C   0  0  0  0  0  2  0  0  0  0  0  0
  191.2790  178.2290  145.2680 O   0  0  0  0  0  0  0  0  0  0  0  0
  190.8990  179.4730  144.7320 C   0  0  0  0  0  1  0  0  0  0  0  0
  190.2230  176.1060  144.9660 C   0  0  0  0  0  2  0  0  0  0  0  0
  191.6530  175.5880  144.8590 C   0  0  0  0  0  2  0  0  0  0  0  0
  192.0400  175.3690  143.4070 C   0  0  0  0  0  2  0  0  0  0  0  0
  191.4960  176.5000  142.5500 C   0  0  0  0  0  2  0  0  0  0  0  0
  190.1280  176.2040  142.1570 N   0  0  0  0  0  2  0  0  0  0  0  0
  189.9360  176.7520  140.8250 C   0  0  0  0  0  2  0  0  0  0  0  0
  190.9330  176.2670  139.9790 O   0  0  0  0  0  0  0  0  0  0  0  0
  191.1550  177.3030  139.0700 C   0  0  0  0  0  2  0  0  0  0  0  0
  190.8290  176.8330  137.6610 C   0  0  2  0  0  3  0  0  0  0  0  0
  189.5900  177.5200  137.1810 C   0  0  0  0  0  3  0  0  0  0  0  0
  189.2940  177.5060  135.9970 O   0  0  0  0  0  0  0  0  0  0  0  0
  190.6130  175.3280  137.6620 C   0  0  0  0  0  2  0  0  0  0  0  0
  191.3180  173.1200  136.2900 O   0  0  0  0  0  0  0  0  0  0  0  0
  191.9400  175.2860  135.3190 O   0  0  0  0  0  0  0  0  0  0  0  0
  191.7920  174.5130  136.5990 S   0  0  0  0  0  0  0  0  0  0  0  0
  194.1610  173.2510  136.9310 C   0  0  0  0  0  1  0  0  0  0  0  0
  193.3630  174.4370  137.4330 C   0  0  0  0  0  2  0  0  0  0  0  0
  184.2110  178.0940  142.0310 C   0  0  0  0  0  2  0  0  0  0  0  0
  183.4570  178.4990  140.8520 N   0  0  0  0  0  0  0  0  0  0  0  0
  182.1480  178.0880  141.0340 O   0  0  0  0  0  0  0  0  0  0  0  0
  180.9650  179.4500  139.5910 O   0  0  0  0  0  0  0  0  0  0  0  0
  180.0750  179.1940  141.7200 N   0  0  0  0  0  2  0  0  0  0  0  0
  181.0600  178.9140  140.7280 C   0  0  0  0  0  0  0  0  0  0  0  0
  180.1000  178.0210  144.0520 C   0  0  0  0  0  3  0  0  0  0  0  0
  180.0890  178.5590  142.9720 C   0  0  0  0  0  0  0  0  0  0  0  0
  183.9830  177.7250  139.7360 C   0  0  0  0  0  2  0  0  0  0  0  0
  183.0090  176.6200  139.3530 C   0  0  0  0  0  2  0  0  0  0  0  0
  182.7740  176.6010  137.8490 C   0  0  1  0  0  3  0  0  0  0  0  0
  181.7990  177.5450  137.5210 O   0  0  0  0  0  1  0  0  0  0  0  0
  184.0170  176.9490  137.1730 N   0  0  0  0  0  2  0  0  0  0  0  0
  183.1300  176.4390  134.9730 C   0  0  0  0  0  1  0  0  0  0  0  0
  184.1690  176.0750  136.0160 C   0  0  2  0  0  3  0  0  0  0  0  0
  184.0070  174.6370  136.4060 C   0  0  0  0  0  0  0  0  0  0  0  0
  184.7560  174.0300  137.3510 N   0  0  0  0  0  0  0  0  0  0  0  0
  183.2380  172.6730  136.5090 C   0  0  0  0  0  0  0  0  0  0  0  0
  183.0610  173.8400  135.8660 N   0  0  0  0  0  0  0  0  0  0  0  0
  184.2790  172.7710  137.4070 C   0  0  0  0  0  2  0  0  0  0  0  0
  180.9880  171.3090  136.2430 C   0  0  2  0  0  3  0  0  0  0  0  0
  183.1630  170.2250  136.2310 O   0  0  0  0  0  1  0  0  0  0  0  0
  182.4580  171.4280  136.2110 C   0  0  2  0  0  0  0  0  0  0  0  0
  181.6880  171.5620  134.9660 N   0  0  0  0  0  2  0  0  0  0  0  0
  178.9630  172.0790  137.2500 O   0  0  0  0  0  1  0  0  0  0  0  0
  180.1950  172.5350  136.7720 C   0  0  2  0  0  0  0  0  0  0  0  0
  178.9790  172.8400  134.7080 O   0  0  0  0  0  1  0  0  0  0  0  0
  179.9120  173.4330  135.5640 C   0  0  0  0  0  2  0  0  0  0  0  0
  180.8850  173.3280  137.9100 C   0  0  0  0  0  2  0  0  0  0  0  0
  180.0320  174.3690  138.5740 C   0  0  0  0  0  0  0  0  0  0  0  0
  179.3940  175.3330  137.8040 O   0  0  0  0  0  0  0  0  0  0  0  0
  179.8860  174.3710  139.8230 O   0  0  0  0  0  1  0  0  0  0  0  0
  1 35  1  1  0  0  0
  1  4  1  0  0  0  0
  1  3  1  0  0  0  0
  3  2  1  0  0  0  0
  4  5  1  6  0  0  0
  4  7  1  0  0  0  0
  6  5  1  0  0  0  0
  7  9  1  0  0  0  0
  9  8  1  1  0  0  0
 10 15  1  0  0  0  0
 11  9  1  6  0  0  0
 11 12  1  0  0  0  0
 12 15  1  0  0  0  0
 13 18  1  6  0  0  0
 13 10  1  0  0  0  0
 14 13  1  0  0  0  0
 14 11  1  0  0  0  0
 16 13  1  0  0  0  0
 17 16  1  0  0  0  0
 19 18  1  0  0  0  0
 20 19  1  0  0  0  0
 21 20  1  0  0  0  0
 22 21  1  0  0  0  0
 23 22  1  0  0  0  0
 24 23  1  0  0  0  0
 25 24  1  0  0  0  0
 26 27  1  1  0  0  0
 26 29  1  0  0  0  0
 26 25  1  0  0  0  0
 28 27  2  0  0  0  0
 30 32  2  0  0  0  0
 31 32  2  0  0  0  0
 32 34  1  0  0  0  0
 32 29  1  0  0  0  0
 33 34  1  0  0  0  0
 36 37  1  0  0  0  0
 36 35  1  0  0  0  0
 38 40  2  0  0  0  0
 39 42  1  0  0  0  0
 40 37  1  0  0  0  0
 40 39  1  0  0  0  0
 42 41  3  0  0  0  0
 43 36  1  0  0  0  0
 44 43  1  0  0  0  0
 45 46  1  1  0  0  0
 45 44  1  0  0  0  0
 47 45  1  0  0  0  0
 49 48  1  6  0  0  0
 49 50  1  0  0  0  0
 49 47  1  0  0  0  0
 50 51  2  0  0  0  0
 51 54  1  0  0  0  0
 52 54  1  0  0  0  0
 53 50  1  0  0  0  0
 53 52  2  0  0  0  0
 55 60  1  1  0  0  0
 57 56  1  1  0  0  0
 57 55  1  0  0  0  0
 57 52  1  0  0  0  0
 58 57  1  0  0  0  0
 58 55  1  0  0  0  0
 60 59  1  1  0  0  0
 60 63  1  0  0  0  0
 61 62  1  0  0  0  0
 62 60  1  0  0  0  0
 63 64  1  0  0  0  0
 64 66  1  0  0  0  0
 65 64  2  0  0  0  0
M  END
>  <MODEL>
1

>  <REMARK>
 VINA RESULT:      -4.7      0.000      0.000
  Name = 
  36 active torsions:
  status: ('A' for Active; 'I' for Inactive)
    1  A    between atoms: C_4  and  C_44
    2  A    between atoms: C_6  and  N_25
    3  A    between atoms: C_6  and  C_62
    4  A    between atoms: C_8  and  C_29
    5  A    between atoms: C_8  and  C_49
    6  A    between atoms: N_9  and  C_61
    7  A    between atoms: C_10  and  C_33
    8  A    between atoms: C_10  and  S_48
    9  A    between atoms: C_11  and  C_34
   10  A    between atoms: C_11  and  N_42
   11  A    between atoms: O_14  and  C_45
   12  A    between atoms: C_15  and  C_58
   13  A    between atoms: C_18  and  C_24
   14  A    between atoms: C_18  and  C_50
   15  A    between atoms: C_19  and  C_30
   16  A    between atoms: C_22  and  C_33
   17  A    between atoms: N_25  and  C_46
   18  A    between atoms: N_25  and  O_54
   19  A    between atoms: C_26  and  S_48
   20  A    between atoms: C_27  and  C_45
   21  A    between atoms: C_27  and  C_49
   22  A    between atoms: C_28  and  O_54
   23  A    between atoms: C_29  and  N_56
   24  A    between atoms: C_30  and  O_36
   25  A    between atoms: C_31  and  O_52
   26  A    between atoms: C_31  and  N_56
   27  A    between atoms: C_33  and  C_64
   28  A    between atoms: C_34  and  C_46
   29  A    between atoms: O_36  and  C_39
   30  A    between atoms: C_39  and  O_41
   31  A    between atoms: C_39  and  C_62
   32  A    between atoms: O_40  and  C_62
   33  A    between atoms: N_42  and  C_44
   34  A    between atoms: C_43  and  C_50
   35  A    between atoms: C_50  and  C_60
   36  A    between atoms: O_52  and  C_64
                            x       y       z     vdW  Elec       q    Type
                         _______ _______ _______ _____ _____    ______ ____

>  <TORSDO>
F 36

$$$$
=
 OpenBabel10222418383D

 66 68  0  0  1  0  0  0  0  0999 V2000
  184.8610  176.0470  136.5220 C   0  0  1  0  0  3  0  0  0  0  0  0
  186.1940  177.5680  137.4390 C   0  0  0  0  0  1  0  0  0  0  0  0
  185.5790  177.2150  136.2370 O   0  0  0  0  0  0  0  0  0  0  0  0
  183.3600  176.3460  136.5670 C   0  0  2  0  0  3  0  0  0  0  0  0
  183.1250  177.7190  136.4210 O   0  0  0  0  0  0  0  0  0  0  0  0
  182.2460  177.8390  135.3470 C   0  0  0  0  0  1  0  0  0  0  0  0
  182.8470  175.9300  137.8000 O   0  0  0  0  0  0  0  0  0  0  0  0
  180.4960  175.8000  137.4240 C   0  0  0  0  0  1  0  0  0  0  0  0
  181.6430  176.6260  137.9830 C   0  0  1  0  0  3  0  0  0  0  0  0
  180.1930  177.6040  141.9700 C   0  0  0  0  0  2  0  0  0  0  0  0
  181.3920  176.9310  139.4630 C   0  0  2  0  0  3  0  0  0  0  0  0
  180.2670  176.0380  140.0040 C   0  0  0  0  0  2  0  0  0  0  0  0
  180.9440  178.7330  141.2290 C   0  0  1  0  0  0  0  0  0  0  0  0
  181.1470  178.4240  139.7210 C   0  0  0  0  0  2  0  0  0  0  0  0
  179.3660  176.7370  141.0260 C   0  0  0  0  0  2  0  0  0  0  0  0
  180.2790  179.9750  141.4220 O   0  0  0  0  0  0  0  0  0  0  0  0
  180.1990  180.6810  140.2070 C   0  0  0  0  0  1  0  0  0  0  0  0
  182.3180  178.8250  141.9010 C   0  0  0  0  0  2  0  0  0  0  0  0
  182.4010  179.9320  142.9460 C   0  0  0  0  0  2  0  0  0  0  0  0
  183.0270  179.4170  144.2300 C   0  0  0  0  0  2  0  0  0  0  0  0
  184.2130  178.5240  143.9060 C   0  0  0  0  0  2  0  0  0  0  0  0
  185.1670  178.5550  145.0030 N   0  0  0  0  0  2  0  0  0  0  0  0
  186.1120  177.4750  144.7800 C   0  0  0  0  0  2  0  0  0  0  0  0
  186.6000  177.5500  143.4760 O   0  0  0  0  0  0  0  0  0  0  0  0
  187.7090  178.3930  143.5640 C   0  0  0  0  0  2  0  0  0  0  0  0
  188.8980  177.7560  142.8640 C   0  0  2  0  0  3  0  0  0  0  0  0
  188.4450  177.1190  141.5890 C   0  0  0  0  0  3  0  0  0  0  0  0
  188.2740  177.7950  140.5870 O   0  0  0  0  0  0  0  0  0  0  0  0
  189.5200  176.7040  143.7690 C   0  0  0  0  0  2  0  0  0  0  0  0
  191.8620  176.1870  142.5430 O   0  0  0  0  0  0  0  0  0  0  0  0
  191.6990  178.2870  143.8030 O   0  0  0  0  0  0  0  0  0  0  0  0
  191.2990  176.8390  143.7770 S   0  0  0  0  0  0  0  0  0  0  0  0
  191.4810  176.7480  146.4740 C   0  0  0  0  0  1  0  0  0  0  0  0
  191.9330  176.0200  145.2240 C   0  0  0  0  0  2  0  0  0  0  0  0
  185.1660  174.9680  135.4850 C   0  0  0  0  0  2  0  0  0  0  0  0
  186.4060  174.2770  135.8160 N   0  0  0  0  0  0  0  0  0  0  0  0
  186.0670  173.1000  136.4600 O   0  0  0  0  0  0  0  0  0  0  0  0
  187.4660  171.3190  136.0010 O   0  0  0  0  0  0  0  0  0  0  0  0
  185.3060  171.1700  135.1590 N   0  0  0  0  0  2  0  0  0  0  0  0
  186.3240  171.8450  135.8980 C   0  0  0  0  0  0  0  0  0  0  0  0
  182.8750  172.1110  135.0180 C   0  0  0  0  0  3  0  0  0  0  0  0
  183.9970  171.6710  135.0840 C   0  0  0  0  0  0  0  0  0  0  0  0
  187.0930  175.1040  136.7970 C   0  0  0  0  0  2  0  0  0  0  0  0
  188.3200  174.3800  137.3320 C   0  0  0  0  0  2  0  0  0  0  0  0
  189.4760  174.4700  136.3460 C   0  0  1  0  0  3  0  0  0  0  0  0
  188.9720  174.5530  135.0470 O   0  0  0  0  0  1  0  0  0  0  0  0
  190.2490  175.6710  136.6330 N   0  0  0  0  0  2  0  0  0  0  0  0
  191.1620  176.6410  138.6610 C   0  0  0  0  0  1  0  0  0  0  0  0
  191.1000  175.4040  137.7870 C   0  0  2  0  0  3  0  0  0  0  0  0
  192.4840  175.0240  137.3550 C   0  0  0  0  0  0  0  0  0  0  0  0
  193.4360  175.9220  137.0230 N   0  0  0  0  0  0  0  0  0  0  0  0
  194.1850  173.8530  136.9130 C   0  0  0  0  0  0  0  0  0  0  0  0
  192.9030  173.7430  137.3040 N   0  0  0  0  0  0  0  0  0  0  0  0
  194.5170  175.1760  136.7240 C   0  0  0  0  0  2  0  0  0  0  0  0
  196.5170  172.6070  136.9690 C   0  0  2  0  0  3  0  0  0  0  0  0
  194.6160  171.7330  135.7310 O   0  0  0  0  0  1  0  0  0  0  0  0
  195.0800  172.6810  136.6430 C   0  0  2  0  0  0  0  0  0  0  0  0
  195.5130  172.0370  137.8910 N   0  0  0  0  0  2  0  0  0  0  0  0
  196.9310  174.9280  136.5830 O   0  0  0  0  0  1  0  0  0  0  0  0
  197.1860  173.9040  137.5000 C   0  0  2  0  0  0  0  0  0  0  0  0
  199.1760  173.4980  136.1940 O   0  0  0  0  0  1  0  0  0  0  0  0
  198.6970  173.6550  137.4990 C   0  0  0  0  0  2  0  0  0  0  0  0
  196.6980  174.3760  138.8930 C   0  0  0  0  0  2  0  0  0  0  0  0
  197.6520  175.2610  139.6390 C   0  0  0  0  0  0  0  0  0  0  0  0
  197.7100  175.2020  141.0260 O   0  0  0  0  0  1  0  0  0  0  0  0
  198.4060  176.0540  139.0170 O   0  0  0  0  0  0  0  0  0  0  0  0
  1 35  1  6  0  0  0
  1  4  1  0  0  0  0
  3  1  1  0  0  0  0
  3  2  1  0  0  0  0
  4  5  1  1  0  0  0
  4  7  1  0  0  0  0
  6  5  1  0  0  0  0
  7  9  1  0  0  0  0
  9  8  1  1  0  0  0
 11  9  1  6  0  0  0
 11 14  1  0  0  0  0
 11 12  1  0  0  0  0
 12 15  1  0  0  0  0
 13 16  1  0  0  0  0
 13 18  1  1  0  0  0
 13 10  1  0  0  0  0
 14 13  1  0  0  0  0
 15 10  1  0  0  0  0
 17 16  1  0  0  0  0
 18 19  1  0  0  0  0
 19 20  1  0  0  0  0
 21 20  1  0  0  0  0
 21 22  1  0  0  0  0
 23 22  1  0  0  0  0
 24 25  1  0  0  0  0
 24 23  1  0  0  0  0
 26 27  1  6  0  0  0
 26 25  1  0  0  0  0
 26 29  1  0  0  0  0
 28 27  2  0  0  0  0
 29 32  1  0  0  0  0
 30 32  2  0  0  0  0
 32 31  2  0  0  0  0
 32 34  1  0  0  0  0
 34 33  1  0  0  0  0
 35 36  1  0  0  0  0
 36 37  1  0  0  0  0
 36 43  1  0  0  0  0
 39 40  1  0  0  0  0
 40 38  2  0  0  0  0
 40 37  1  0  0  0  0
 41 42  3  0  0  0  0
 42 39  1  0  0  0  0
 43 44  1  0  0  0  0
 45 46  1  6  0  0  0
 45 47  1  0  0  0  0
 45 44  1  0  0  0  0
 47 49  1  0  0  0  0
 49 48  1  1  0  0  0
 50 49  1  0  0  0  0
 51 50  2  0  0  0  0
 52 53  2  0  0  0  0
 53 50  1  0  0  0  0
 54 52  1  0  0  0  0
 54 51  1  0  0  0  0
 55 60  1  1  0  0  0
 55 58  1  0  0  0  0
 57 56  1  6  0  0  0
 57 52  1  0  0  0  0
 57 55  1  0  0  0  0
 57 58  1  0  0  0  0
 60 59  1  6  0  0  0
 60 63  1  0  0  0  0
 61 62  1  0  0  0  0
 62 60  1  0  0  0  0
 63 64  1  0  0  0  0
 64 65  1  0  0  0  0
 66 64  2  0  0  0  0
M  END
>  <MODEL>
2

>  <REMARK>
 VINA RESULT:      -4.0      3.320     10.629
  Name = 
  36 active torsions:
  status: ('A' for Active; 'I' for Inactive)
    1  A    between atoms: C_4  and  C_44
    2  A    between atoms: C_6  and  N_25
    3  A    between atoms: C_6  and  C_62
    4  A    between atoms: C_8  and  C_29
    5  A    between atoms: C_8  and  C_49
    6  A    between atoms: N_9  and  C_61
    7  A    between atoms: C_10  and  C_33
    8  A    between atoms: C_10  and  S_48
    9  A    between atoms: C_11  and  C_34
   10  A    between atoms: C_11  and  N_42
   11  A    between atoms: O_14  and  C_45
   12  A    between atoms: C_15  and  C_58
   13  A    between atoms: C_18  and  C_24
   14  A    between atoms: C_18  and  C_50
   15  A    between atoms: C_19  and  C_30
   16  A    between atoms: C_22  and  C_33
   17  A    between atoms: N_25  and  C_46
   18  A    between atoms: N_25  and  O_54
   19  A    between atoms: C_26  and  S_48
   20  A    between atoms: C_27  and  C_45
   21  A    between atoms: C_27  and  C_49
   22  A    between atoms: C_28  and  O_54
   23  A    between atoms: C_29  and  N_56
   24  A    between atoms: C_30  and  O_36
   25  A    between atoms: C_31  and  O_52
   26  A    between atoms: C_31  and  N_56
   27  A    between atoms: C_33  and  C_64
   28  A    between atoms: C_34  and  C_46
   29  A    between atoms: O_36  and  C_39
   30  A    between atoms: C_39  and  O_41
   31  A    between atoms: C_39  and  C_62
   32  A    between atoms: O_40  and  C_62
   33  A    between atoms: N_42  and  C_44
   34  A    between atoms: C_43  and  C_50
   35  A    between atoms: C_50  and  C_60
   36  A    between atoms: O_52  and  C_64
                            x       y       z     vdW  Elec       q    Type
                         _______ _______ _______ _____ _____    ______ ____

>  <TORSDO>
F 36

$$$$
=
 OpenBabel10222418383D

 66 68  0  0  1  0  0  0  0  0999 V2000
  184.8220  176.6410  136.8910 C   0  0  1  0  0  3  0  0  0  0  0  0
  186.1750  178.1130  137.8580 C   0  0  0  0  0  1  0  0  0  0  0  0
  185.6560  177.7330  136.6200 O   0  0  0  0  0  0  0  0  0  0  0  0
  183.3820  177.1130  137.1020 C   0  0  2  0  0  3  0  0  0  0  0  0
  183.3090  178.5110  137.0610 O   0  0  0  0  0  0  0  0  0  0  0  0
  182.3530  178.8100  136.0920 C   0  0  0  0  0  1  0  0  0  0  0  0
  182.9350  176.6760  138.3530 O   0  0  0  0  0  0  0  0  0  0  0  0
  180.6120  177.0640  137.9760 C   0  0  0  0  0  1  0  0  0  0  0  0
  181.8670  177.5140  138.7070 C   0  0  1  0  0  3  0  0  0  0  0  0
  180.4730  177.7590  142.8240 C   0  0  0  0  0  2  0  0  0  0  0  0
  181.6230  177.5000  140.2190 C   0  0  2  0  0  3  0  0  0  0  0  0
  180.3450  176.7130  140.5420 C   0  0  0  0  0  2  0  0  0  0  0  0
  181.4280  178.8840  142.3670 C   0  0  1  0  0  0  0  0  0  0  0  0
  181.6260  178.9090  140.8280 C   0  0  0  0  0  2  0  0  0  0  0  0
  179.5420  177.2960  141.7080 C   0  0  0  0  0  2  0  0  0  0  0  0
  180.9770  180.1410  142.8550 O   0  0  0  0  0  0  0  0  0  0  0  0
  179.6060  180.0830  143.1630 C   0  0  0  0  0  1  0  0  0  0  0  0
  182.7750  178.5760  143.0310 C   0  0  0  0  0  2  0  0  0  0  0  0
  183.0960  179.5080  144.1930 C   0  0  0  0  0  2  0  0  0  0  0  0
  184.0310  178.8350  145.1820 C   0  0  0  0  0  2  0  0  0  0  0  0
  185.2180  178.2350  144.4480 C   0  0  0  0  0  2  0  0  0  0  0  0
  185.8180  177.1860  145.2560 N   0  0  0  0  0  2  0  0  0  0  0  0
  187.2500  177.2220  145.0120 C   0  0  0  0  0  2  0  0  0  0  0  0
  187.6650  178.5470  144.8940 O   0  0  0  0  0  0  0  0  0  0  0  0
  189.0120  178.5260  145.2600 C   0  0  0  0  0  2  0  0  0  0  0  0
  189.7010  177.3280  144.6270 C   0  0  2  0  0  3  0  0  0  0  0  0
  190.3360  176.4960  145.6960 C   0  0  0  0  0  3  0  0  0  0  0  0
  189.7290  176.2400  146.7240 O   0  0  0  0  0  0  0  0  0  0  0  0
  190.7640  177.8060  143.6510 C   0  0  0  0  0  2  0  0  0  0  0  0
  191.9540  176.9450  141.3940 O   0  0  0  0  0  0  0  0  0  0  0  0
  190.1500  175.5540  142.3080 O   0  0  0  0  0  0  0  0  0  0  0  0
  190.6180  176.9640  142.0850 S   0  0  0  0  0  0  0  0  0  0  0  0
  188.0350  177.6020  141.5990 C   0  0  0  0  0  1  0  0  0  0  0  0
  189.4370  177.8300  141.0730 C   0  0  0  0  0  2  0  0  0  0  0  0
  184.8960  175.6200  135.7570 C   0  0  0  0  0  2  0  0  0  0  0  0
  186.0160  174.7090  135.9590 N   0  0  0  0  0  0  0  0  0  0  0  0
  185.6000  173.7290  136.8430 O   0  0  0  0  0  0  0  0  0  0  0  0
  186.6500  171.7080  136.4560 O   0  0  0  0  0  0  0  0  0  0  0  0
  184.3510  171.7470  136.1320 N   0  0  0  0  0  2  0  0  0  0  0  0
  185.5800  172.3740  136.4950 C   0  0  0  0  0  0  0  0  0  0  0  0
  182.0710  173.0030  136.3240 C   0  0  0  0  0  3  0  0  0  0  0  0
  183.1230  172.4180  136.2370 C   0  0  0  0  0  0  0  0  0  0  0  0
  187.0520  175.4710  136.6430 C   0  0  0  0  0  2  0  0  0  0  0  0
  188.2100  174.5610  137.0270 C   0  0  0  0  0  2  0  0  0  0  0  0
  189.0540  174.2140  135.8080 C   0  0  1  0  0  3  0  0  0  0  0  0
  188.2700  174.3150  134.6570 O   0  0  0  0  0  1  0  0  0  0  0  0
  190.1580  175.1590  135.7140 N   0  0  0  0  0  2  0  0  0  0  0  0
  190.5250  176.6420  137.5990 C   0  0  0  0  0  1  0  0  0  0  0  0
  190.7860  175.2630  137.0270 C   0  0  2  0  0  3  0  0  0  0  0  0
  192.2630  175.0270  136.9350 C   0  0  0  0  0  0  0  0  0  0  0  0
  192.9450  175.0070  135.7690 N   0  0  0  0  0  0  0  0  0  0  0  0
  194.2730  174.7180  137.5030 C   0  0  0  0  0  0  0  0  0  0  0  0
  193.0410  174.8580  138.0230 N   0  0  0  0  0  0  0  0  0  0  0  0
  194.2250  174.7930  136.1290 C   0  0  0  0  0  2  0  0  0  0  0  0
  196.4110  173.2920  138.1280 C   0  0  2  0  0  3  0  0  0  0  0  0
  195.6040  175.0970  139.5430 O   0  0  0  0  0  1  0  0  0  0  0  0
  195.4980  174.4360  138.3200 C   0  0  2  0  0  0  0  0  0  0  0  0
  196.7230  174.6050  137.5260 N   0  0  0  0  0  2  0  0  0  0  0  0
  196.6380  171.0250  137.4130 O   0  0  0  0  0  1  0  0  0  0  0  0
  195.9840  172.2170  137.0920 C   0  0  2  0  0  0  0  0  0  0  0  0
  197.5130  171.8160  135.2660 O   0  0  0  0  0  1  0  0  0  0  0  0
  196.5150  172.6790  135.7320 C   0  0  0  0  0  2  0  0  0  0  0  0
  194.4630  171.9270  137.0290 C   0  0  0  0  0  2  0  0  0  0  0  0
  194.0660  170.7820  136.1450 C   0  0  0  0  0  0  0  0  0  0  0  0
  193.9660  170.9710  134.7720 O   0  0  0  0  0  0  0  0  0  0  0  0
  193.8280  169.6490  136.6380 O   0  0  0  0  0  1  0  0  0  0  0  0
  1 35  1  6  0  0  0
  1  4  1  0  0  0  0
  3  1  1  0  0  0  0
  3  2  1  0  0  0  0
  4  5  1  1  0  0  0
  4  7  1  0  0  0  0
  6  5  1  0  0  0  0
  7  9  1  0  0  0  0
  9  8  1  6  0  0  0
 11  9  1  6  0  0  0
 11 12  1  0  0  0  0
 11 14  1  0  0  0  0
 12 15  1  0  0  0  0
 13 10  1  0  0  0  0
 13 16  1  0  0  0  0
 13 18  1  1  0  0  0
 14 13  1  0  0  0  0
 15 10  1  0  0  0  0
 16 17  1  0  0  0  0
 18 19  1  0  0  0  0
 19 20  1  0  0  0  0
 21 20  1  0  0  0  0
 21 22  1  0  0  0  0
 23 22  1  0  0  0  0
 24 23  1  0  0  0  0
 24 25  1  0  0  0  0
 26 29  1  6  0  0  0
 26 25  1  0  0  0  0
 26 27  1  0  0  0  0
 27 28  2  0  0  0  0
 30 32  2  0  0  0  0
 32 31  2  0  0  0  0
 32 29  1  0  0  0  0
 34 33  1  0  0  0  0
 34 32  1  0  0  0  0
 35 36  1  0  0  0  0
 36 43  1  0  0  0  0
 36 37  1  0  0  0  0
 38 40  2  0  0  0  0
 39 42  1  0  0  0  0
 39 40  1  0  0  0  0
 40 37  1  0  0  0  0
 42 41  3  0  0  0  0
 43 44  1  0  0  0  0
 45 46  1  6  0  0  0
 45 44  1  0  0  0  0
 47 45  1  0  0  0  0
 47 49  1  0  0  0  0
 49 48  1  6  0  0  0
 50 49  1  0  0  0  0
 50 53  1  0  0  0  0
 51 54  1  0  0  0  0
 51 50  2  0  0  0  0
 52 53  2  0  0  0  0
 52 57  1  0  0  0  0
 54 52  1  0  0  0  0
 55 60  1  6  0  0  0
 55 57  1  0  0  0  0
 57 56  1  1  0  0  0
 58 55  1  0  0  0  0
 58 57  1  0  0  0  0
 60 59  1  1  0  0  0
 61 62  1  0  0  0  0
 62 60  1  0  0  0  0
 63 60  1  0  0  0  0
 64 66  1  0  0  0  0
 64 63  1  0  0  0  0
 65 64  2  0  0  0  0
M  END
>  <MODEL>
3

>  <REMARK>
 VINA RESULT:      -3.6      3.034      9.980
  Name = 
  36 active torsions:
  status: ('A' for Active; 'I' for Inactive)
    1  A    between atoms: C_4  and  C_44
    2  A    between atoms: C_6  and  N_25
    3  A    between atoms: C_6  and  C_62
    4  A    between atoms: C_8  and  C_29
    5  A    between atoms: C_8  and  C_49
    6  A    between atoms: N_9  and  C_61
    7  A    between atoms: C_10  and  C_33
    8  A    between atoms: C_10  and  S_48
    9  A    between atoms: C_11  and  C_34
   10  A    between atoms: C_11  and  N_42
   11  A    between atoms: O_14  and  C_45
   12  A    between atoms: C_15  and  C_58
   13  A    between atoms: C_18  and  C_24
   14  A    between atoms: C_18  and  C_50
   15  A    between atoms: C_19  and  C_30
   16  A    between atoms: C_22  and  C_33
   17  A    between atoms: N_25  and  C_46
   18  A    between atoms: N_25  and  O_54
   19  A    between atoms: C_26  and  S_48
   20  A    between atoms: C_27  and  C_45
   21  A    between atoms: C_27  and  C_49
   22  A    between atoms: C_28  and  O_54
   23  A    between atoms: C_29  and  N_56
   24  A    between atoms: C_30  and  O_36
   25  A    between atoms: C_31  and  O_52
   26  A    between atoms: C_31  and  N_56
   27  A    between atoms: C_33  and  C_64
   28  A    between atoms: C_34  and  C_46
   29  A    between atoms: O_36  and  C_39
   30  A    between atoms: C_39  and  O_41
   31  A    between atoms: C_39  and  C_62
   32  A    between atoms: O_40  and  C_62
   33  A    between atoms: N_42  and  C_44
   34  A    between atoms: C_43  and  C_50
   35  A    between atoms: C_50  and  C_60
   36  A    between atoms: O_52  and  C_64
                            x       y       z     vdW  Elec       q    Type
                         _______ _______ _______ _____ _____    ______ ____

>  <TORSDO>
F 36

$$$$
=
 OpenBabel10222418383D

 66 68  0  0  1  0  0  0  0  0999 V2000
  185.1520  179.0640  143.0110 C   0  0  1  0  0  3  0  0  0  0  0  0
  184.7330  180.9850  144.0430 C   0  0  0  0  0  1  0  0  0  0  0  0
  184.3080  179.6590  143.9570 O   0  0  0  0  0  0  0  0  0  0  0  0
  186.3060  178.3410  143.7100 C   0  0  2  0  0  3  0  0  0  0  0  0
  187.0620  177.6070  142.7880 O   0  0  0  0  0  0  0  0  0  0  0  0
  186.8740  178.2370  141.5600 C   0  0  0  0  0  1  0  0  0  0  0  0
  185.7840  177.4630  144.6660 O   0  0  0  0  0  0  0  0  0  0  0  0
  185.1910  177.5090  146.9750 C   0  0  0  0  0  1  0  0  0  0  0  0
  186.1880  177.9530  145.9170 C   0  0  1  0  0  3  0  0  0  0  0  0
  190.2900  177.2840  147.2120 C   0  0  0  0  0  2  0  0  0  0  0  0
  187.5910  177.4620  146.2840 C   0  0  2  0  0  3  0  0  0  0  0  0
  187.8810  177.7480  147.7640 C   0  0  0  0  0  2  0  0  0  0  0  0
  190.0850  177.4760  145.6930 C   0  0  1  0  0  0  0  0  0  0  0  0
  188.6720  178.0170  145.3460 C   0  0  0  0  0  2  0  0  0  0  0  0
  189.3360  178.1380  148.0410 C   0  0  0  0  0  2  0  0  0  0  0  0
  191.1070  178.3070  145.1590 O   0  0  0  0  0  0  0  0  0  0  0  0
  190.5590  179.2460  144.2670 C   0  0  0  0  0  1  0  0  0  0  0  0
  190.2420  176.0810  145.0770 C   0  0  0  0  0  2  0  0  0  0  0  0
  191.3260  176.0180  144.0060 C   0  0  0  0  0  2  0  0  0  0  0  0
  190.7330  176.2280  142.6250 C   0  0  0  0  0  2  0  0  0  0  0  0
  191.8370  176.5370  141.6280 C   0  0  0  0  0  2  0  0  0  0  0  0
  191.6060  177.8400  141.0250 N   0  0  0  0  0  2  0  0  0  0  0  0
  192.1280  177.7850  139.6700 C   0  0  0  0  0  2  0  0  0  0  0  0
  191.2710  177.0260  138.8760 O   0  0  0  0  0  0  0  0  0  0  0  0
  192.0520  175.9540  138.4420 C   0  0  0  0  0  2  0  0  0  0  0  0
  191.3550  175.2350  137.2980 C   0  0  2  0  0  3  0  0  0  0  0  0
  189.8780  175.2410  137.5320 C   0  0  0  0  0  3  0  0  0  0  0  0
  189.1040  175.3890  136.6000 O   0  0  0  0  0  0  0  0  0  0  0  0
  191.8560  173.8020  137.2150 C   0  0  0  0  0  2  0  0  0  0  0  0
  192.6960  172.0700  135.3310 O   0  0  0  0  0  0  0  0  0  0  0  0
  192.1540  174.3480  134.5940 O   0  0  0  0  0  0  0  0  0  0  0  0
  192.7570  173.5270  135.6990 S   0  0  0  0  0  0  0  0  0  0  0  0
  194.8160  173.9140  137.4090 C   0  0  0  0  0  1  0  0  0  0  0  0
  194.4530  174.0100  135.9420 C   0  0  0  0  0  2  0  0  0  0  0  0
  184.3640  178.0970  142.1280 C   0  0  0  0  0  2  0  0  0  0  0  0
  183.4480  178.8270  141.2610 N   0  0  0  0  0  0  0  0  0  0  0  0
  182.1840  178.3000  141.4560 O   0  0  0  0  0  0  0  0  0  0  0  0
  181.2510  178.3930  143.5680 O   0  0  0  0  0  0  0  0  0  0  0  0
  180.3790  179.8640  141.9960 N   0  0  0  0  0  2  0  0  0  0  0  0
  181.2900  178.8390  142.3890 C   0  0  0  0  0  0  0  0  0  0  0  0
  180.4850  180.9650  139.6320 C   0  0  0  0  0  3  0  0  0  0  0  0
  180.4360  180.4510  140.7230 C   0  0  0  0  0  0  0  0  0  0  0  0
  183.8250  178.5030  139.8920 C   0  0  0  0  0  2  0  0  0  0  0  0
  183.6120  177.0210  139.6210 C   0  0  0  0  0  2  0  0  0  0  0  0
  183.1740  176.7900  138.1820 C   0  0  1  0  0  3  0  0  0  0  0  0
  181.7850  176.9010  138.0960 O   0  0  0  0  0  1  0  0  0  0  0  0
  183.7840  177.8060  137.3340 N   0  0  0  0  0  2  0  0  0  0  0  0
  182.9070  177.3390  135.1210 C   0  0  0  0  0  1  0  0  0  0  0  0
  184.1000  177.1990  136.0460 C   0  0  2  0  0  3  0  0  0  0  0  0
  184.4430  175.7490  136.2070 C   0  0  0  0  0  0  0  0  0  0  0  0
  185.6180  175.3110  136.7090 N   0  0  0  0  0  0  0  0  0  0  0  0
  184.2590  173.6450  136.2230 C   0  0  0  0  0  0  0  0  0  0  0  0
  183.5800  174.7600  135.9000 N   0  0  0  0  0  0  0  0  0  0  0  0
  185.5100  173.9680  136.7040 C   0  0  0  0  0  2  0  0  0  0  0  0
  182.3230  171.8530  136.0430 C   0  0  2  0  0  3  0  0  0  0  0  0
  184.6690  171.2180  136.0890 O   0  0  0  0  0  1  0  0  0  0  0  0
  183.7420  172.2560  136.0010 C   0  0  2  0  0  0  0  0  0  0  0  0
  182.9710  172.1640  134.7520 N   0  0  0  0  0  2  0  0  0  0  0  0
  181.7540  173.4700  137.7060 O   0  0  0  0  0  1  0  0  0  0  0  0
  181.3000  172.9270  136.5010 C   0  0  2  0  0  0  0  0  0  0  0  0
  179.5660  171.4600  135.6820 O   0  0  0  0  0  1  0  0  0  0  0  0
  179.9890  172.1930  136.7960 C   0  0  0  0  0  2  0  0  0  0  0  0
  181.0760  174.0940  135.5060 C   0  0  0  0  0  2  0  0  0  0  0  0
  179.8340  174.9030  135.7370 C   0  0  0  0  0  0  0  0  0  0  0  0
  178.9320  175.0970  134.7000 O   0  0  0  0  0  0  0  0  0  0  0  0
  179.6020  175.4050  136.8680 O   0  0  0  0  0  1  0  0  0  0  0  0
  1 35  1  1  0  0  0
  1  4  1  0  0  0  0
  1  3  1  0  0  0  0
  3  2  1  0  0  0  0
  4  5  1  6  0  0  0
  4  7  1  0  0  0  0
  6  5  1  0  0  0  0
  7  9  1  0  0  0  0
  9  8  1  1  0  0  0
 10 15  1  0  0  0  0
 11  9  1  6  0  0  0
 11 12  1  0  0  0  0
 12 15  1  0  0  0  0
 13 18  1  6  0  0  0
 13 10  1  0  0  0  0
 14 13  1  0  0  0  0
 14 11  1  0  0  0  0
 16 13  1  0  0  0  0
 17 16  1  0  0  0  0
 19 18  1  0  0  0  0
 20 19  1  0  0  0  0
 21 20  1  0  0  0  0
 22 21  1  0  0  0  0
 23 22  1  0  0  0  0
 24 23  1  0  0  0  0
 25 24  1  0  0  0  0
 26 29  1  1  0  0  0
 26 27  1  0  0  0  0
 26 25  1  0  0  0  0
 28 27  2  0  0  0  0
 30 32  2  0  0  0  0
 31 32  2  0  0  0  0
 32 34  1  0  0  0  0
 32 29  1  0  0  0  0
 34 33  1  0  0  0  0
 36 37  1  0  0  0  0
 36 35  1  0  0  0  0
 37 40  1  0  0  0  0
 39 40  1  0  0  0  0
 40 38  2  0  0  0  0
 41 42  3  0  0  0  0
 42 39  1  0  0  0  0
 43 36  1  0  0  0  0
 44 43  1  0  0  0  0
 45 46  1  1  0  0  0
 45 44  1  0  0  0  0
 47 45  1  0  0  0  0
 49 48  1  6  0  0  0
 49 50  1  0  0  0  0
 49 47  1  0  0  0  0
 50 51  2  0  0  0  0
 52 54  1  0  0  0  0
 53 50  1  0  0  0  0
 53 52  2  0  0  0  0
 54 51  1  0  0  0  0
 55 60  1  1  0  0  0
 57 55  1  0  0  0  0
 57 56  1  1  0  0  0
 57 52  1  0  0  0  0
 58 57  1  0  0  0  0
 58 55  1  0  0  0  0
 60 62  1  0  0  0  0
 60 59  1  1  0  0  0
 61 62  1  0  0  0  0
 63 64  1  0  0  0  0
 63 60  1  0  0  0  0
 64 66  1  0  0  0  0
 65 64  2  0  0  0  0
M  END
>  <MODEL>
4

>  <REMARK>
 VINA RESULT:      -3.3      1.319      1.732
  Name = 
  36 active torsions:
  status: ('A' for Active; 'I' for Inactive)
    1  A    between atoms: C_4  and  C_44
    2  A    between atoms: C_6  and  N_25
    3  A    between atoms: C_6  and  C_62
    4  A    between atoms: C_8  and  C_29
    5  A    between atoms: C_8  and  C_49
    6  A    between atoms: N_9  and  C_61
    7  A    between atoms: C_10  and  C_33
    8  A    between atoms: C_10  and  S_48
    9  A    between atoms: C_11  and  C_34
   10  A    between atoms: C_11  and  N_42
   11  A    between atoms: O_14  and  C_45
   12  A    between atoms: C_15  and  C_58
   13  A    between atoms: C_18  and  C_24
   14  A    between atoms: C_18  and  C_50
   15  A    between atoms: C_19  and  C_30
   16  A    between atoms: C_22  and  C_33
   17  A    between atoms: N_25  and  C_46
   18  A    between atoms: N_25  and  O_54
   19  A    between atoms: C_26  and  S_48
   20  A    between atoms: C_27  and  C_45
   21  A    between atoms: C_27  and  C_49
   22  A    between atoms: C_28  and  O_54
   23  A    between atoms: C_29  and  N_56
   24  A    between atoms: C_30  and  O_36
   25  A    between atoms: C_31  and  O_52
   26  A    between atoms: C_31  and  N_56
   27  A    between atoms: C_33  and  C_64
   28  A    between atoms: C_34  and  C_46
   29  A    between atoms: O_36  and  C_39
   30  A    between atoms: C_39  and  O_41
   31  A    between atoms: C_39  and  C_62
   32  A    between atoms: O_40  and  C_62
   33  A    between atoms: N_42  and  C_44
   34  A    between atoms: C_43  and  C_50
   35  A    between atoms: C_50  and  C_60
   36  A    between atoms: O_52  and  C_64
                            x       y       z     vdW  Elec       q    Type
                         _______ _______ _______ _____ _____    ______ ____

>  <TORSDO>
F 36

$$$$
=
 OpenBabel10222418383D

 66 68  0  0  1  0  0  0  0  0999 V2000
  184.2840  179.3210  142.9080 C   0  0  1  0  0  3  0  0  0  0  0  0
  184.5720  180.8540  144.4890 C   0  0  0  0  0  1  0  0  0  0  0  0
  183.6560  179.9180  144.0080 O   0  0  0  0  0  0  0  0  0  0  0  0
  185.5940  178.6590  143.3420 C   0  0  2  0  0  3  0  0  0  0  0  0
  186.2160  178.0320  142.2550 O   0  0  0  0  0  0  0  0  0  0  0  0
  187.4300  178.6920  142.0820 C   0  0  0  0  0  1  0  0  0  0  0  0
  185.3200  177.6980  144.3210 O   0  0  0  0  0  0  0  0  0  0  0  0
  184.7780  177.8580  146.6370 C   0  0  0  0  0  1  0  0  0  0  0  0
  185.7580  178.2370  145.5390 C   0  0  1  0  0  3  0  0  0  0  0  0
  189.8460  177.5340  146.8620 C   0  0  0  0  0  2  0  0  0  0  0  0
  187.1620  177.7400  145.8990 C   0  0  2  0  0  3  0  0  0  0  0  0
  187.4220  177.9300  147.4000 C   0  0  0  0  0  2  0  0  0  0  0  0
  189.6650  177.8240  145.3550 C   0  0  1  0  0  0  0  0  0  0  0  0
  188.2520  178.3700  145.0190 C   0  0  0  0  0  2  0  0  0  0  0  0
  188.8660  178.3190  147.7290 C   0  0  0  0  0  2  0  0  0  0  0  0
  190.6850  178.7020  144.8970 O   0  0  0  0  0  0  0  0  0  0  0  0
  190.3300  179.2590  143.6550 C   0  0  0  0  0  1  0  0  0  0  0  0
  189.8520  176.4760  144.6510 C   0  0  0  0  0  2  0  0  0  0  0  0
  191.2970  175.9890  144.6630 C   0  0  0  0  0  2  0  0  0  0  0  0
  191.8280  175.8400  143.2480 C   0  0  0  0  0  2  0  0  0  0  0  0
  191.0320  176.7220  142.3010 C   0  0  0  0  0  2  0  0  0  0  0  0
  190.0130  175.9310  141.6310 N   0  0  0  0  0  2  0  0  0  0  0  0
  189.8520  176.4810  140.2950 C   0  0  0  0  0  2  0  0  0  0  0  0
  191.0710  176.4220  139.6210 O   0  0  0  0  0  0  0  0  0  0  0  0
  190.8080  176.9850  138.3710 C   0  0  0  0  0  2  0  0  0  0  0  0
  191.2590  176.0360  137.2720 C   0  0  2  0  0  3  0  0  0  0  0  0
  190.0680  175.3380  136.6980 C   0  0  0  0  0  3  0  0  0  0  0  0
  189.0830  175.1240  137.3870 O   0  0  0  0  0  0  0  0  0  0  0  0
  192.2260  175.0130  137.8460 C   0  0  0  0  0  2  0  0  0  0  0  0
  193.9390  177.0840  137.6650 O   0  0  0  0  0  0  0  0  0  0  0  0
  194.7090  175.1000  138.8870 O   0  0  0  0  0  0  0  0  0  0  0  0
  193.9120  175.5810  137.7070 S   0  0  0  0  0  0  0  0  0  0  0  0
  193.8810  173.6760  135.7870 C   0  0  0  0  0  1  0  0  0  0  0  0
  194.6180  174.9310  136.2080 C   0  0  0  0  0  2  0  0  0  0  0  0
  183.3550  178.3010  142.2520 C   0  0  0  0  0  2  0  0  0  0  0  0
  182.3630  178.9730  141.4220 N   0  0  0  0  0  0  0  0  0  0  0  0
  181.1160  178.5180  141.8140 O   0  0  0  0  0  0  0  0  0  0  0  0
  180.9120  178.0790  144.0730 O   0  0  0  0  0  0  0  0  0  0  0  0
  179.6460  179.8450  143.2540 N   0  0  0  0  0  2  0  0  0  0  0  0
  180.5910  178.7900  143.0820 C   0  0  0  0  0  0  0  0  0  0  0  0
  179.0410  181.4740  141.3050 C   0  0  0  0  0  3  0  0  0  0  0  0
  179.3190  180.7170  142.2030 C   0  0  0  0  0  0  0  0  0  0  0  0
  182.5690  178.4960  140.0610 C   0  0  0  0  0  2  0  0  0  0  0  0
  182.6020  176.9750  140.0340 C   0  0  0  0  0  2  0  0  0  0  0  0
  181.4250  176.4200  139.2430 C   0  0  1  0  0  3  0  0  0  0  0  0
  180.5300  175.8020  140.1190 O   0  0  0  0  0  1  0  0  0  0  0  0
  180.7480  177.5220  138.5720 N   0  0  0  0  0  2  0  0  0  0  0  0
  180.2900  176.3410  136.5020 C   0  0  0  0  0  1  0  0  0  0  0  0
  181.0760  177.4630  137.1520 C   0  0  2  0  0  3  0  0  0  0  0  0
  182.5430  177.2310  136.9500 C   0  0  0  0  0  0  0  0  0  0  0  0
  183.4980  178.1000  137.3480 N   0  0  0  0  0  0  0  0  0  0  0  0
  184.3620  176.2900  136.4350 C   0  0  0  0  0  0  0  0  0  0  0  0
  183.0300  176.1070  136.3880 N   0  0  0  0  0  0  0  0  0  0  0  0
  184.6590  177.5090  137.0040 C   0  0  0  0  0  2  0  0  0  0  0  0
  185.1760  173.8680  135.7520 C   0  0  2  0  0  3  0  0  0  0  0  0
  186.6690  175.7870  135.7290 O   0  0  0  0  0  1  0  0  0  0  0  0
  185.3580  175.3290  135.8610 C   0  0  2  0  0  0  0  0  0  0  0  0
  184.8780  174.7460  134.6000 N   0  0  0  0  0  2  0  0  0  0  0  0
  182.9310  174.2610  136.4650 O   0  0  0  0  0  1  0  0  0  0  0  0
  183.9110  173.2660  136.4190 C   0  0  2  0  0  0  0  0  0  0  0  0
  185.6770  172.9730  138.0390 O   0  0  0  0  0  1  0  0  0  0  0  0
  184.2900  172.9310  137.8640 C   0  0  0  0  0  2  0  0  0  0  0  0
  183.3070  172.0330  135.7000 C   0  0  0  0  0  2  0  0  0  0  0  0
  184.2700  170.9180  135.4220 C   0  0  0  0  0  0  0  0  0  0  0  0
  183.9870  169.6330  135.8660 O   0  0  0  0  0  1  0  0  0  0  0  0
  185.3320  171.1370  134.7840 O   0  0  0  0  0  0  0  0  0  0  0  0
  1 35  1  1  0  0  0
  1  4  1  0  0  0  0
  1  3  1  0  0  0  0
  3  2  1  0  0  0  0
  4  5  1  6  0  0  0
  4  7  1  0  0  0  0
  6  5  1  0  0  0  0
  7  9  1  0  0  0  0
  9  8  1  1  0  0  0
 10 15  1  0  0  0  0
 11  9  1  6  0  0  0
 11 12  1  0  0  0  0
 12 15  1  0  0  0  0
 13 18  1  6  0  0  0
 13 10  1  0  0  0  0
 14 13  1  0  0  0  0
 14 11  1  0  0  0  0
 16 13  1  0  0  0  0
 17 16  1  0  0  0  0
 18 19  1  0  0  0  0
 20 19  1  0  0  0  0
 21 20  1  0  0  0  0
 22 21  1  0  0  0  0
 23 22  1  0  0  0  0
 24 23  1  0  0  0  0
 25 24  1  0  0  0  0
 26 27  1  1  0  0  0
 26 29  1  0  0  0  0
 26 25  1  0  0  0  0
 27 28  2  0  0  0  0
 30 32  2  0  0  0  0
 32 29  1  0  0  0  0
 32 31  2  0  0  0  0
 33 34  1  0  0  0  0
 34 32  1  0  0  0  0
 36 37  1  0  0  0  0
 36 35  1  0  0  0  0
 37 40  1  0  0  0  0
 40 39  1  0  0  0  0
 40 38  2  0  0  0  0
 41 42  3  0  0  0  0
 42 39  1  0  0  0  0
 43 36  1  0  0  0  0
 44 43  1  0  0  0  0
 45 44  1  0  0  0  0
 45 46  1  1  0  0  0
 47 45  1  0  0  0  0
 49 48  1  1  0  0  0
 49 47  1  0  0  0  0
 50 49  1  0  0  0  0
 50 51  2  0  0  0  0
 52 54  1  0  0  0  0
 53 52  2  0  0  0  0
 53 50  1  0  0  0  0
 54 51  1  0  0  0  0
 55 57  1  0  0  0  0
 55 60  1  1  0  0  0
 57 56  1  6  0  0  0
 57 52  1  0  0  0  0
 58 55  1  0  0  0  0
 58 57  1  0  0  0  0
 60 59  1  1  0  0  0
 60 62  1  0  0  0  0
 62 61  1  0  0  0  0
 63 60  1  0  0  0  0
 64 63  1  0  0  0  0
 64 65  1  0  0  0  0
 66 64  2  0  0  0  0
M  END
>  <MODEL>
5

>  <REMARK>
 VINA RESULT:      -3.2      1.886      3.208
  Name = 
  36 active torsions:
  status: ('A' for Active; 'I' for Inactive)
    1  A    between atoms: C_4  and  C_44
    2  A    between atoms: C_6  and  N_25
    3  A    between atoms: C_6  and  C_62
    4  A    between atoms: C_8  and  C_29
    5  A    between atoms: C_8  and  C_49
    6  A    between atoms: N_9  and  C_61
    7  A    between atoms: C_10  and  C_33
    8  A    between atoms: C_10  and  S_48
    9  A    between atoms: C_11  and  C_34
   10  A    between atoms: C_11  and  N_42
   11  A    between atoms: O_14  and  C_45
   12  A    between atoms: C_15  and  C_58
   13  A    between atoms: C_18  and  C_24
   14  A    between atoms: C_18  and  C_50
   15  A    between atoms: C_19  and  C_30
   16  A    between atoms: C_22  and  C_33
   17  A    between atoms: N_25  and  C_46
   18  A    between atoms: N_25  and  O_54
   19  A    between atoms: C_26  and  S_48
   20  A    between atoms: C_27  and  C_45
   21  A    between atoms: C_27  and  C_49
   22  A    between atoms: C_28  and  O_54
   23  A    between atoms: C_29  and  N_56
   24  A    between atoms: C_30  and  O_36
   25  A    between atoms: C_31  and  O_52
   26  A    between atoms: C_31  and  N_56
   27  A    between atoms: C_33  and  C_64
   28  A    between atoms: C_34  and  C_46
   29  A    between atoms: O_36  and  C_39
   30  A    between atoms: C_39  and  O_41
   31  A    between atoms: C_39  and  C_62
   32  A    between atoms: O_40  and  C_62
   33  A    between atoms: N_42  and  C_44
   34  A    between atoms: C_43  and  C_50
   35  A    between atoms: C_50  and  C_60
   36  A    between atoms: O_52  and  C_64
                            x       y       z     vdW  Elec       q    Type
                         _______ _______ _______ _____ _____    ______ ____

>  <TORSDO>
F 36

$$$$
=
 OpenBabel10222418383D

 66 68  0  0  1  0  0  0  0  0999 V2000
  184.3630  176.3940  136.5120 C   0  0  1  0  0  3  0  0  0  0  0  0
  185.7000  177.8810  137.4770 C   0  0  0  0  0  1  0  0  0  0  0  0
  184.9830  177.6330  136.3060 O   0  0  0  0  0  0  0  0  0  0  0  0
  182.8490  176.5750  136.6440 C   0  0  2  0  0  3  0  0  0  0  0  0
  182.5010  177.9270  136.5390 O   0  0  0  0  0  0  0  0  0  0  0  0
  181.6010  178.0030  135.4780 C   0  0  0  0  0  1  0  0  0  0  0  0
  182.4380  176.1000  137.8940 O   0  0  0  0  0  0  0  0  0  0  0  0
  180.0730  176.0630  137.5930 C   0  0  0  0  0  1  0  0  0  0  0  0
  181.2570  176.7880  138.2100 C   0  0  1  0  0  3  0  0  0  0  0  0
  179.9550  177.0700  142.3550 C   0  0  0  0  0  2  0  0  0  0  0  0
  181.0660  176.9040  139.7250 C   0  0  2  0  0  3  0  0  0  0  0  0
  180.2210  175.7310  140.2430 C   0  0  0  0  0  2  0  0  0  0  0  0
  180.3660  178.4000  141.6850 C   0  0  1  0  0  0  0  0  0  0  0  0
  180.5090  178.2720  140.1450 C   0  0  0  0  0  2  0  0  0  0  0  0
  179.2720  176.1140  141.3820 C   0  0  0  0  0  2  0  0  0  0  0  0
  179.4540  179.4310  142.0400 O   0  0  0  0  0  0  0  0  0  0  0  0
  179.4200  180.4200  141.0390 C   0  0  0  0  0  1  0  0  0  0  0  0
  181.7330  178.7550  142.2790 C   0  0  0  0  0  2  0  0  0  0  0  0
  181.6400  179.6900  143.4800 C   0  0  0  0  0  2  0  0  0  0  0  0
  182.5560  179.2250  144.5970 C   0  0  0  0  0  2  0  0  0  0  0  0
  183.9050  178.8200  144.0270 C   0  0  0  0  0  2  0  0  0  0  0  0
  184.9710  179.3240  144.8790 N   0  0  0  0  0  2  0  0  0  0  0  0
  185.9630  178.2680  144.9940 C   0  0  0  0  0  2  0  0  0  0  0  0
  185.9100  177.4590  143.8600 O   0  0  0  0  0  0  0  0  0  0  0  0
  186.3310  178.2870  142.8190 C   0  0  0  0  0  2  0  0  0  0  0  0
  187.8030  178.0440  142.5280 C   0  0  2  0  0  3  0  0  0  0  0  0
  187.9630  177.5940  141.1100 C   0  0  0  0  0  3  0  0  0  0  0  0
  188.3950  178.3600  140.2630 O   0  0  0  0  0  0  0  0  0  0  0  0
  188.3400  176.9760  143.4680 C   0  0  0  0  0  2  0  0  0  0  0  0
  190.9680  176.3890  143.4150 O   0  0  0  0  0  0  0  0  0  0  0  0
  190.3540  178.7610  143.5600 O   0  0  0  0  0  0  0  0  0  0  0  0
  189.9940  177.3720  144.0060 S   0  0  0  0  0  0  0  0  0  0  0  0
  191.3750  176.6710  146.2230 C   0  0  0  0  0  1  0  0  0  0  0  0
  190.0600  177.2800  145.7820 C   0  0  0  0  0  2  0  0  0  0  0  0
  184.6960  175.4360  135.3700 C   0  0  0  0  0  2  0  0  0  0  0  0
  185.9880  174.8000  135.5950 N   0  0  0  0  0  0  0  0  0  0  0  0
  185.7480  173.5640  136.1670 O   0  0  0  0  0  0  0  0  0  0  0  0
  187.4410  172.3420  135.1760 O   0  0  0  0  0  0  0  0  0  0  0  0
  185.4380  171.2210  135.5280 N   0  0  0  0  0  2  0  0  0  0  0  0
  186.2620  172.3810  135.6240 C   0  0  0  0  0  0  0  0  0  0  0  0
  183.0420  171.1460  136.5620 C   0  0  0  0  0  3  0  0  0  0  0  0
  184.1500  171.1850  136.0850 C   0  0  0  0  0  0  0  0  0  0  0  0
  186.6730  175.5980  136.6020 C   0  0  0  0  0  2  0  0  0  0  0  0
  187.8750  174.8400  137.1480 C   0  0  0  0  0  2  0  0  0  0  0  0
  189.0810  175.0040  136.2330 C   0  0  1  0  0  3  0  0  0  0  0  0
  188.6730  174.8790  134.9030 O   0  0  0  0  0  1  0  0  0  0  0  0
  189.6480  176.3310  136.4330 N   0  0  0  0  0  2  0  0  0  0  0  0
  190.1770  177.7400  138.3360 C   0  0  0  0  0  1  0  0  0  0  0  0
  190.3080  176.3550  137.7340 C   0  0  2  0  0  3  0  0  0  0  0  0
  191.7590  175.9990  137.6040 C   0  0  0  0  0  0  0  0  0  0  0  0
  192.5760  175.8010  138.6610 N   0  0  0  0  0  0  0  0  0  0  0  0
  193.6150  175.4750  136.7450 C   0  0  0  0  0  0  0  0  0  0  0  0
  192.3550  175.8050  136.4110 N   0  0  0  0  0  0  0  0  0  0  0  0
  193.7660  175.4840  138.1140 C   0  0  0  0  0  2  0  0  0  0  0  0
  195.5950  174.0450  135.7310 C   0  0  2  0  0  3  0  0  0  0  0  0
  195.1320  176.3150  134.9930 O   0  0  0  0  0  1  0  0  0  0  0  0
  194.7060  175.2220  135.7490 C   0  0  2  0  0  0  0  0  0  0  0  0
  194.3860  174.0790  134.8810 N   0  0  0  0  0  2  0  0  0  0  0  0
  194.1300  172.8580  137.1980 O   0  0  0  0  0  1  0  0  0  0  0  0
  195.4870  173.0630  136.9290 C   0  0  2  0  0  0  0  0  0  0  0  0
  197.0460  174.7180  137.7420 O   0  0  0  0  0  1  0  0  0  0  0  0
  196.0910  173.7770  138.1410 C   0  0  0  0  0  2  0  0  0  0  0  0
  196.1460  171.6780  136.7100 C   0  0  0  0  0  2  0  0  0  0  0  0
  196.2440  171.2340  135.2810 C   0  0  0  0  0  0  0  0  0  0  0  0
  195.1000  170.8410  134.5990 O   0  0  0  0  0  0  0  0  0  0  0  0
  197.3570  171.2200  134.6930 O   0  0  0  0  0  1  0  0  0  0  0  0
  1 35  1  6  0  0  0
  1  4  1  0  0  0  0
  3  1  1  0  0  0  0
  3  2  1  0  0  0  0
  4  5  1  1  0  0  0
  4  7  1  0  0  0  0
  6  5  1  0  0  0  0
  7  9  1  0  0  0  0
  9  8  1  1  0  0  0
 11  9  1  6  0  0  0
 11 14  1  0  0  0  0
 11 12  1  0  0  0  0
 12 15  1  0  0  0  0
 13 16  1  0  0  0  0
 13 18  1  1  0  0  0
 13 10  1  0  0  0  0
 14 13  1  0  0  0  0
 15 10  1  0  0  0  0
 17 16  1  0  0  0  0
 18 19  1  0  0  0  0
 19 20  1  0  0  0  0
 21 20  1  0  0  0  0
 21 22  1  0  0  0  0
 22 23  1  0  0  0  0
 24 23  1  0  0  0  0
 25 24  1  0  0  0  0
 26 27  1  6  0  0  0
 26 25  1  0  0  0  0
 26 29  1  0  0  0  0
 28 27  2  0  0  0  0
 29 32  1  0  0  0  0
 30 32  2  0  0  0  0
 31 32  2  0  0  0  0
 32 34  1  0  0  0  0
 34 33  1  0  0  0  0
 35 36  1  0  0  0  0
 36 37  1  0  0  0  0
 36 43  1  0  0  0  0
 38 40  2  0  0  0  0
 39 40  1  0  0  0  0
 39 42  1  0  0  0  0
 40 37  1  0  0  0  0
 42 41  3  0  0  0  0
 43 44  1  0  0  0  0
 45 46  1  6  0  0  0
 45 47  1  0  0  0  0
 45 44  1  0  0  0  0
 47 49  1  0  0  0  0
 49 48  1  6  0  0  0
 50 49  1  0  0  0  0
 50 51  2  0  0  0  0
 52 54  1  0  0  0  0
 53 52  2  0  0  0  0
 53 50  1  0  0  0  0
 54 51  1  0  0  0  0
 55 57  1  0  0  0  0
 55 60  1  1  0  0  0
 57 56  1  6  0  0  0
 57 52  1  0  0  0  0
 58 55  1  0  0  0  0
 58 57  1  0  0  0  0
 60 59  1  1  0  0  0
 60 62  1  0  0  0  0
 61 62  1  0  0  0  0
 63 60  1  0  0  0  0
 64 63  1  0  0  0  0
 65 64  2  0  0  0  0
 66 64  1  0  0  0  0
M  END
>  <MODEL>
6

>  <REMARK>
 VINA RESULT:      -3.2      3.038     10.297
  Name = 
  36 active torsions:
  status: ('A' for Active; 'I' for Inactive)
    1  A    between atoms: C_4  and  C_44
    2  A    between atoms: C_6  and  N_25
    3  A    between atoms: C_6  and  C_62
    4  A    between atoms: C_8  and  C_29
    5  A    between atoms: C_8  and  C_49
    6  A    between atoms: N_9  and  C_61
    7  A    between atoms: C_10  and  C_33
    8  A    between atoms: C_10  and  S_48
    9  A    between atoms: C_11  and  C_34
   10  A    between atoms: C_11  and  N_42
   11  A    between atoms: O_14  and  C_45
   12  A    between atoms: C_15  and  C_58
   13  A    between atoms: C_18  and  C_24
   14  A    between atoms: C_18  and  C_50
   15  A    between atoms: C_19  and  C_30
   16  A    between atoms: C_22  and  C_33
   17  A    between atoms: N_25  and  C_46
   18  A    between atoms: N_25  and  O_54
   19  A    between atoms: C_26  and  S_48
   20  A    between atoms: C_27  and  C_45
   21  A    between atoms: C_27  and  C_49
   22  A    between atoms: C_28  and  O_54
   23  A    between atoms: C_29  and  N_56
   24  A    between atoms: C_30  and  O_36
   25  A    between atoms: C_31  and  O_52
   26  A    between atoms: C_31  and  N_56
   27  A    between atoms: C_33  and  C_64
   28  A    between atoms: C_34  and  C_46
   29  A    between atoms: O_36  and  C_39
   30  A    between atoms: C_39  and  O_41
   31  A    between atoms: C_39  and  C_62
   32  A    between atoms: O_40  and  C_62
   33  A    between atoms: N_42  and  C_44
   34  A    between atoms: C_43  and  C_50
   35  A    between atoms: C_50  and  C_60
   36  A    between atoms: O_52  and  C_64
                            x       y       z     vdW  Elec       q    Type
                         _______ _______ _______ _____ _____    ______ ____

>  <TORSDO>
F 36

$$$$
