=
 OpenBabel10222417013D

 30 33  0  0  1  0  0  0  0  0999 V2000
  190.4450  176.6890  136.2460 C   0  0  0  0  0  3  0  0  0  0  0  0
  189.8290  177.2700  140.5520 C   0  0  0  0  0  0  0  0  0  0  0  0
  189.5490  177.4250  136.8360 N   0  0  0  0  0  0  0  0  0  0  0  0
  191.9260  175.9300  138.0760 N   0  0  0  0  0  0  0  0  0  0  0  0
  187.6840  178.2140  139.9710 C   0  0  0  0  0  0  0  0  0  0  0  0
  189.1640  177.3830  138.2170 C   0  0  0  0  0  0  0  0  0  0  0  0
  191.1130  177.0930  141.3310 C   0  0  1  0  0  3  0  0  0  0  0  0
  186.5130  178.8040  140.3160 F   0  0  0  0  0  0  0  0  0  0  0  0
  191.3940  176.4930  139.1140 C   0  0  0  0  0  0  0  0  0  0  0  0
  187.9770  178.0160  138.6120 C   0  0  0  0  0  3  0  0  0  0  0  0
  188.6120  177.8460  140.9650 C   0  0  0  0  0  0  0  0  0  0  0  0
  192.0290  176.6110  140.3370 O   0  0  0  0  0  0  0  0  0  0  0  0
  190.0410  176.9680  139.2240 C   0  0  0  0  0  0  0  0  0  0  0  0
  191.1600  175.5430  136.8960 C   0  0  0  0  0  2  0  0  0  0  0  0
  187.9570  175.9420  143.0910 O   0  0  0  0  0  0  0  0  0  0  0  0
  188.3070  178.1320  142.3360 N   0  0  0  0  0  2  0  0  0  0  0  0
  188.0350  177.1710  143.3610 C   0  0  0  0  0  0  0  0  0  0  0  0
  187.8090  177.6550  144.7610 C   0  0  1  0  0  3  0  0  0  0  0  0
  184.5500  178.6040  146.4930 C   0  0  0  0  0  3  0  0  0  0  0  0
  185.8810  178.2150  146.2970 C   0  0  0  0  0  3  0  0  0  0  0  0
  184.2230  178.7050  144.0960 C   0  0  0  0  0  3  0  0  0  0  0  0
  183.7220  178.8510  145.3930 C   0  0  0  0  0  3  0  0  0  0  0  0
  185.5530  178.3160  143.8990 C   0  0  0  0  0  3  0  0  0  0  0  0
  186.3870  178.0720  144.9960 C   0  0  0  0  0  0  0  0  0  0  0  0
  189.2240  177.3070  146.4160 C   0  0  0  0  0  1  0  0  0  0  0  0
  188.2110  176.6900  145.6880 O   0  0  0  0  0  0  0  0  0  0  0  0
  191.5530  178.3370  141.8030 O   0  0  0  0  0  0  0  0  0  0  0  0
  191.9340  178.1270  143.1320 C   0  0  0  0  0  3  0  0  0  0  0  0
  191.2400  179.1360  144.0290 C   0  0  0  0  0  1  0  0  0  0  0  0
  191.5170  176.7370  143.5580 C   0  0  0  0  0  1  0  0  0  0  0  0
  1  3  2  0  0  0  0
  1 14  1  0  0  0  0
  2 11  1  0  0  0  0
  2  7  1  0  0  0  0
  3  6  1  0  0  0  0
  4  9  2  0  0  0  0
  5  8  1  0  0  0  0
  5 11  2  0  0  0  0
  6 10  2  0  0  0  0
  6 13  1  0  0  0  0
  7 27  1  6  0  0  0
  9 13  1  0  0  0  0
  9 12  1  0  0  0  0
 10  5  1  0  0  0  0
 11 16  1  0  0  0  0
 12  7  1  0  0  0  0
 13  2  2  0  0  0  0
 14  4  1  0  0  0  0
 15 17  2  0  0  0  0
 16 17  1  0  0  0  0
 18 17  1  6  0  0  0
 18 24  1  0  0  0  0
 18 26  1  0  0  0  0
 20 19  1  0  0  0  0
 21 22  1  0  0  0  0
 22 19  2  0  0  0  0
 23 21  2  0  0  0  0
 23 24  1  0  0  0  0
 24 20  2  0  0  0  0
 26 25  1  0  0  0  0
 27 28  1  0  0  0  0
 28 30  1  0  0  0  0
 28 29  1  0  0  0  0
M  END
>  <MODEL>
1

>  <REMARK>
 VINA RESULT:      -8.3      0.000      0.000
  Name = 
  6 active torsions:
  status: ('A' for Active; 'I' for Inactive)
    1  A    between atoms: O_2  and  C_3
    2  A    between atoms: O_2  and  C_14
    3  A    between atoms: N_11  and  C_20
    4  A    between atoms: C_12  and  C_22
    5  A    between atoms: O_19  and  C_22
    6  A    between atoms: C_22  and  C_29
                            x       y       z     vdW  Elec       q    Type
                         _______ _______ _______ _____ _____    ______ ____

>  <TORSDO>
F 6

$$$$
=
 OpenBabel10222417013D

 30 33  0  0  1  0  0  0  0  0999 V2000
  189.6670  177.2280  137.2880 C   0  0  0  0  0  3  0  0  0  0  0  0
  187.8470  178.3050  141.1340 C   0  0  0  0  0  0  0  0  0  0  0  0
  189.9300  176.7390  138.4640 N   0  0  0  0  0  0  0  0  0  0  0  0
  187.6970  178.6810  137.6460 N   0  0  0  0  0  0  0  0  0  0  0  0
  189.6870  177.1320  142.1680 C   0  0  0  0  0  0  0  0  0  0  0  0
  189.5560  177.2890  139.7360 C   0  0  0  0  0  0  0  0  0  0  0  0
  186.4330  178.8130  140.9630 C   0  0  1  0  0  3  0  0  0  0  0  0
  190.3360  176.6740  143.2670 F   0  0  0  0  0  0  0  0  0  0  0  0
  187.4730  178.5360  138.9140 C   0  0  0  0  0  0  0  0  0  0  0  0
  190.1830  176.8100  140.8950 C   0  0  0  0  0  3  0  0  0  0  0  0
  188.5040  177.8840  142.3060 C   0  0  0  0  0  0  0  0  0  0  0  0
  186.2980  178.9150  139.5370 O   0  0  0  0  0  0  0  0  0  0  0  0
  188.4200  178.0880  139.8990 C   0  0  0  0  0  0  0  0  0  0  0  0
  189.0240  178.5610  137.0510 C   0  0  0  0  0  2  0  0  0  0  0  0
  186.8090  176.1290  143.9250 O   0  0  0  0  0  0  0  0  0  0  0  0
  187.9900  178.1300  143.6220 N   0  0  0  0  0  2  0  0  0  0  0  0
  187.1990  177.2280  144.4040 C   0  0  0  0  0  0  0  0  0  0  0  0
  186.8120  177.6300  145.7950 C   0  0  1  0  0  3  0  0  0  0  0  0
  189.0150  178.3460  148.8190 C   0  0  0  0  0  3  0  0  0  0  0  0
  187.9040  178.3160  147.9690 C   0  0  0  0  0  3  0  0  0  0  0  0
  190.3020  177.1030  147.1880 C   0  0  0  0  0  3  0  0  0  0  0  0
  190.2130  177.7390  148.4300 C   0  0  0  0  0  3  0  0  0  0  0  0
  189.1920  177.0730  146.3360 C   0  0  0  0  0  3  0  0  0  0  0  0
  187.9890  177.6750  146.7230 C   0  0  0  0  0  0  0  0  0  0  0  0
  184.8830  178.5590  146.3260 C   0  0  0  0  0  1  0  0  0  0  0  0
  186.1320  178.8510  145.7830 O   0  0  0  0  0  0  0  0  0  0  0  0
  185.5290  177.8590  141.4470 O   0  0  0  0  0  0  0  0  0  0  0  0
  184.2930  178.5090  141.5200 C   0  0  0  0  0  3  0  0  0  0  0  0
  183.2630  177.7450  140.7080 C   0  0  0  0  0  1  0  0  0  0  0  0
  183.8340  178.5520  142.9610 C   0  0  0  0  0  1  0  0  0  0  0  0
  1  3  2  0  0  0  0
  2 11  1  0  0  0  0
  3  6  1  0  0  0  0
  4  9  2  0  0  0  0
  5 11  2  0  0  0  0
  5  8  1  0  0  0  0
  6 13  1  0  0  0  0
  6 10  2  0  0  0  0
  7  2  1  0  0  0  0
  7 27  1  6  0  0  0
  9 12  1  0  0  0  0
  9 13  1  0  0  0  0
 10  5  1  0  0  0  0
 11 16  1  0  0  0  0
 12  7  1  0  0  0  0
 13  2  2  0  0  0  0
 14  1  1  0  0  0  0
 14  4  1  0  0  0  0
 15 17  2  0  0  0  0
 16 17  1  0  0  0  0
 18 17  1  6  0  0  0
 18 24  1  0  0  0  0
 20 19  2  0  0  0  0
 21 22  2  0  0  0  0
 22 19  1  0  0  0  0
 23 24  2  0  0  0  0
 23 21  1  0  0  0  0
 24 20  1  0  0  0  0
 26 18  1  0  0  0  0
 26 25  1  0  0  0  0
 27 28  1  0  0  0  0
 28 30  1  0  0  0  0
 29 28  1  0  0  0  0
M  END
>  <MODEL>
2

>  <REMARK>
 VINA RESULT:      -8.0      2.363      4.567
  Name = 
  6 active torsions:
  status: ('A' for Active; 'I' for Inactive)
    1  A    between atoms: O_2  and  C_3
    2  A    between atoms: O_2  and  C_14
    3  A    between atoms: N_11  and  C_20
    4  A    between atoms: C_12  and  C_22
    5  A    between atoms: O_19  and  C_22
    6  A    between atoms: C_22  and  C_29
                            x       y       z     vdW  Elec       q    Type
                         _______ _______ _______ _____ _____    ______ ____

>  <TORSDO>
F 6

$$$$
=
 OpenBabel10222417013D

 30 33  0  0  1  0  0  0  0  0999 V2000
  189.7680  177.2550  137.0960 C   0  0  0  0  0  3  0  0  0  0  0  0
  188.6020  177.6040  141.3130 C   0  0  0  0  0  0  0  0  0  0  0  0
  188.7970  177.9560  137.6040 N   0  0  0  0  0  0  0  0  0  0  0  0
  191.0120  176.4060  139.0580 N   0  0  0  0  0  0  0  0  0  0  0  0
  186.5390  178.5690  140.5120 C   0  0  0  0  0  0  0  0  0  0  0  0
  188.2390  177.8380  138.9210 C   0  0  0  0  0  0  0  0  0  0  0  0
  189.7770  177.3900  142.2390 C   0  0  1  0  0  3  0  0  0  0  0  0
  185.3270  179.1360  140.7350 F   0  0  0  0  0  0  0  0  0  0  0  0
  190.3460  176.9100  140.0480 C   0  0  0  0  0  0  0  0  0  0  0  0
  187.0050  178.4450  139.1930 C   0  0  0  0  0  3  0  0  0  0  0  0
  187.3360  178.1520  141.5960 C   0  0  0  0  0  0  0  0  0  0  0  0
  190.8180  176.9660  141.3470 O   0  0  0  0  0  0  0  0  0  0  0  0
  188.9850  177.3730  140.0090 C   0  0  0  0  0  0  0  0  0  0  0  0
  190.4070  176.0790  137.7710 C   0  0  0  0  0  2  0  0  0  0  0  0
  186.9900  176.1600  143.7130 O   0  0  0  0  0  0  0  0  0  0  0  0
  186.8560  178.3640  142.9300 N   0  0  0  0  0  2  0  0  0  0  0  0
  186.7420  177.3720  143.9560 C   0  0  0  0  0  0  0  0  0  0  0  0
  186.2860  177.7950  145.3190 C   0  0  1  0  0  3  0  0  0  0  0  0
  188.2510  178.2060  148.5570 C   0  0  0  0  0  3  0  0  0  0  0  0
  187.1940  178.2200  147.6390 C   0  0  0  0  0  3  0  0  0  0  0  0
  189.7280  177.3340  146.8480 C   0  0  0  0  0  3  0  0  0  0  0  0
  189.5170  177.7620  148.1620 C   0  0  0  0  0  3  0  0  0  0  0  0
  188.6730  177.3490  145.9290 C   0  0  0  0  0  3  0  0  0  0  0  0
  187.4030  177.7880  146.3200 C   0  0  0  0  0  0  0  0  0  0  0  0
  184.3100  178.7690  145.4280 C   0  0  0  0  0  1  0  0  0  0  0  0
  185.6650  179.0450  145.2650 O   0  0  0  0  0  0  0  0  0  0  0  0
  190.1400  178.6100  142.8270 O   0  0  0  0  0  0  0  0  0  0  0  0
  191.4410  178.4270  143.3080 C   0  0  0  0  0  3  0  0  0  0  0  0
  191.7500  179.4770  144.3600 C   0  0  0  0  0  1  0  0  0  0  0  0
  191.5510  177.0600  143.9460 C   0  0  0  0  0  1  0  0  0  0  0  0
  1  3  2  0  0  0  0
  1 14  1  0  0  0  0
  2 11  1  0  0  0  0
  2  7  1  0  0  0  0
  3  6  1  0  0  0  0
  4  9  2  0  0  0  0
  5  8  1  0  0  0  0
  5 11  2  0  0  0  0
  6 10  2  0  0  0  0
  6 13  1  0  0  0  0
  7 27  1  6  0  0  0
  9 12  1  0  0  0  0
 10  5  1  0  0  0  0
 11 16  1  0  0  0  0
 12  7  1  0  0  0  0
 13  9  1  0  0  0  0
 13  2  2  0  0  0  0
 14  4  1  0  0  0  0
 15 17  2  0  0  0  0
 16 17  1  0  0  0  0
 18 17  1  6  0  0  0
 18 24  1  0  0  0  0
 20 19  2  0  0  0  0
 21 22  2  0  0  0  0
 22 19  1  0  0  0  0
 23 24  2  0  0  0  0
 23 21  1  0  0  0  0
 24 20  1  0  0  0  0
 26 18  1  0  0  0  0
 26 25  1  0  0  0  0
 27 28  1  0  0  0  0
 28 30  1  0  0  0  0
 28 29  1  0  0  0  0
M  END
>  <MODEL>
3

>  <REMARK>
 VINA RESULT:      -8.0      1.412      2.585
  Name = 
  6 active torsions:
  status: ('A' for Active; 'I' for Inactive)
    1  A    between atoms: O_2  and  C_3
    2  A    between atoms: O_2  and  C_14
    3  A    between atoms: N_11  and  C_20
    4  A    between atoms: C_12  and  C_22
    5  A    between atoms: O_19  and  C_22
    6  A    between atoms: C_22  and  C_29
                            x       y       z     vdW  Elec       q    Type
                         _______ _______ _______ _____ _____    ______ ____

>  <TORSDO>
F 6

$$$$
=
 OpenBabel10222417013D

 30 33  0  0  1  0  0  0  0  0999 V2000
  189.0610  177.9980  148.1190 C   0  0  0  0  0  3  0  0  0  0  0  0
  188.6390  176.8160  143.9140 C   0  0  0  0  0  0  0  0  0  0  0  0
  189.9950  177.8840  147.2210 N   0  0  0  0  0  0  0  0  0  0  0  0
  186.9510  177.7030  146.8620 N   0  0  0  0  0  0  0  0  0  0  0  0
  191.0330  176.5060  143.9110 C   0  0  0  0  0  0  0  0  0  0  0  0
  189.9010  177.2220  145.9510 C   0  0  0  0  0  0  0  0  0  0  0  0
  187.2760  177.1710  143.3650 C   0  0  1  0  0  3  0  0  0  0  0  0
  192.1910  176.1970  143.2750 F   0  0  0  0  0  0  0  0  0  0  0  0
  187.3740  177.5270  145.6500 C   0  0  0  0  0  0  0  0  0  0  0  0
  191.0780  176.9230  145.2510 C   0  0  0  0  0  3  0  0  0  0  0  0
  189.8080  176.4500  143.2190 C   0  0  0  0  0  0  0  0  0  0  0  0
  186.5640  177.6130  144.5310 O   0  0  0  0  0  0  0  0  0  0  0  0
  188.6900  177.0970  145.2620 C   0  0  0  0  0  0  0  0  0  0  0  0
  187.7240  177.3250  148.0400 C   0  0  0  0  0  2  0  0  0  0  0  0
  190.4510  178.1550  140.9260 O   0  0  0  0  0  0  0  0  0  0  0  0
  189.8130  176.0900  141.8310 N   0  0  0  0  0  2  0  0  0  0  0  0
  190.1770  176.9390  140.7370 C   0  0  0  0  0  0  0  0  0  0  0  0
  190.1920  176.3640  139.3540 C   0  0  1  0  0  3  0  0  0  0  0  0
  187.2240  177.1200  137.0880 C   0  0  0  0  0  3  0  0  0  0  0  0
  188.0920  176.4390  137.9490 C   0  0  0  0  0  3  0  0  0  0  0  0
  188.6540  179.0710  137.1840 C   0  0  0  0  0  3  0  0  0  0  0  0
  187.5030  178.4360  136.7070 C   0  0  0  0  0  3  0  0  0  0  0  0
  189.5240  178.3900  138.0440 C   0  0  0  0  0  3  0  0  0  0  0  0
  189.2460  177.0740  138.4320 C   0  0  0  0  0  0  0  0  0  0  0  0
  191.5150  175.2690  137.9690 C   0  0  0  0  0  1  0  0  0  0  0  0
  191.4900  176.3580  138.8370 O   0  0  0  0  0  0  0  0  0  0  0  0
  187.3940  178.2370  142.4640 O   0  0  0  0  0  0  0  0  0  0  0  0
  186.1640  178.3140  141.8020 C   0  0  0  0  0  3  0  0  0  0  0  0
  185.3230  179.4200  142.4140 C   0  0  0  0  0  1  0  0  0  0  0  0
  186.4000  178.6390  140.3440 C   0  0  0  0  0  1  0  0  0  0  0  0
  2 13  1  0  0  0  0
  3  1  2  0  0  0  0
  4 14  1  0  0  0  0
  5 10  2  0  0  0  0
  6  3  1  0  0  0  0
  7 27  1  6  0  0  0
  7  2  1  0  0  0  0
  7 12  1  0  0  0  0
  8  5  1  0  0  0  0
  9  4  2  0  0  0  0
 10  6  1  0  0  0  0
 11  5  1  0  0  0  0
 11  2  2  0  0  0  0
 12  9  1  0  0  0  0
 13  9  1  0  0  0  0
 13  6  2  0  0  0  0
 14  1  1  0  0  0  0
 16 11  1  0  0  0  0
 17 15  2  0  0  0  0
 17 16  1  0  0  0  0
 18 26  1  6  0  0  0
 18 17  1  0  0  0  0
 19 20  1  0  0  0  0
 20 24  2  0  0  0  0
 21 23  2  0  0  0  0
 22 19  2  0  0  0  0
 22 21  1  0  0  0  0
 23 24  1  0  0  0  0
 24 18  1  0  0  0  0
 25 26  1  0  0  0  0
 28 29  1  0  0  0  0
 28 27  1  0  0  0  0
 30 28  1  0  0  0  0
M  END
>  <MODEL>
4

>  <REMARK>
 VINA RESULT:      -7.8      2.462      7.420
  Name = 
  6 active torsions:
  status: ('A' for Active; 'I' for Inactive)
    1  A    between atoms: O_2  and  C_3
    2  A    between atoms: O_2  and  C_14
    3  A    between atoms: N_11  and  C_20
    4  A    between atoms: C_12  and  C_22
    5  A    between atoms: O_19  and  C_22
    6  A    between atoms: C_22  and  C_29
                            x       y       z     vdW  Elec       q    Type
                         _______ _______ _______ _____ _____    ______ ____

>  <TORSDO>
F 6

$$$$
=
 OpenBabel10222417013D

 30 33  0  0  1  0  0  0  0  0999 V2000
  183.3380  178.1890  138.0710 C   0  0  0  0  0  3  0  0  0  0  0  0
  186.4750  178.7800  141.0840 C   0  0  0  0  0  0  0  0  0  0  0  0
  184.5680  177.7650  138.0430 N   0  0  0  0  0  0  0  0  0  0  0  0
  183.0630  179.1390  140.3390 N   0  0  0  0  0  0  0  0  0  0  0  0
  188.0360  178.0600  139.3890 C   0  0  0  0  0  0  0  0  0  0  0  0
  185.6560  178.2020  138.8690 C   0  0  0  0  0  0  0  0  0  0  0  0
  185.8960  178.9460  142.4710 C   0  0  1  0  0  3  0  0  0  0  0  0
  189.2950  177.7570  138.9850 F   0  0  0  0  0  0  0  0  0  0  0  0
  184.2270  178.9360  140.8680 C   0  0  0  0  0  0  0  0  0  0  0  0
  186.9670  177.8720  138.4980 C   0  0  0  0  0  3  0  0  0  0  0  0
  187.8040  178.5140  140.7020 C   0  0  0  0  0  0  0  0  0  0  0  0
  184.4850  179.0250  142.2240 O   0  0  0  0  0  0  0  0  0  0  0  0
  185.4580  178.7130  140.1560 C   0  0  0  0  0  0  0  0  0  0  0  0
  182.8590  179.3370  138.9070 C   0  0  0  0  0  2  0  0  0  0  0  0
  189.0380  176.3860  142.2890 O   0  0  0  0  0  0  0  0  0  0  0  0
  188.9130  178.6220  141.6030 N   0  0  0  0  0  2  0  0  0  0  0  0
  189.5210  177.5490  142.3300 C   0  0  0  0  0  0  0  0  0  0  0  0
  190.7250  177.8420  143.1730 C   0  0  1  0  0  3  0  0  0  0  0  0
  189.1680  177.8200  146.6510 C   0  0  0  0  0  3  0  0  0  0  0  0
  189.3730  178.0960  145.2940 C   0  0  0  0  0  3  0  0  0  0  0  0
  191.1820  176.4760  146.6840 C   0  0  0  0  0  3  0  0  0  0  0  0
  190.0710  177.0090  147.3460 C   0  0  0  0  0  3  0  0  0  0  0  0
  191.3880  176.7520  145.3280 C   0  0  0  0  0  3  0  0  0  0  0  0
  190.4840  177.5590  144.6270 C   0  0  0  0  0  0  0  0  0  0  0  0
  191.9450  177.5180  141.3650 C   0  0  0  0  0  1  0  0  0  0  0  0
  191.8380  177.1420  142.7010 O   0  0  0  0  0  0  0  0  0  0  0  0
  186.1700  177.8030  143.2340 O   0  0  0  0  0  0  0  0  0  0  0  0
  185.4770  177.9740  144.4370 C   0  0  0  0  0  3  0  0  0  0  0  0
  186.0610  177.0610  145.4990 C   0  0  0  0  0  1  0  0  0  0  0  0
  185.6250  179.4070  144.8990 C   0  0  0  0  0  1  0  0  0  0  0  0
  1 14  1  0  0  0  0
  2  7  1  0  0  0  0
  3  1  2  0  0  0  0
  3  6  1  0  0  0  0
  4  9  2  0  0  0  0
  5 11  2  0  0  0  0
  6 13  1  0  0  0  0
  7 27  1  1  0  0  0
  8  5  1  0  0  0  0
  9 12  1  0  0  0  0
 10  6  2  0  0  0  0
 10  5  1  0  0  0  0
 11  2  1  0  0  0  0
 11 16  1  0  0  0  0
 12  7  1  0  0  0  0
 13  9  1  0  0  0  0
 13  2  2  0  0  0  0
 14  4  1  0  0  0  0
 15 17  2  0  0  0  0
 16 17  1  0  0  0  0
 18 17  1  6  0  0  0
 18 24  1  0  0  0  0
 19 22  1  0  0  0  0
 20 19  2  0  0  0  0
 21 22  2  0  0  0  0
 23 21  1  0  0  0  0
 24 20  1  0  0  0  0
 24 23  2  0  0  0  0
 25 26  1  0  0  0  0
 26 18  1  0  0  0  0
 27 28  1  0  0  0  0
 28 30  1  0  0  0  0
 28 29  1  0  0  0  0
M  END
>  <MODEL>
5

>  <REMARK>
 VINA RESULT:      -7.6      2.608      5.510
  Name = 
  6 active torsions:
  status: ('A' for Active; 'I' for Inactive)
    1  A    between atoms: O_2  and  C_3
    2  A    between atoms: O_2  and  C_14
    3  A    between atoms: N_11  and  C_20
    4  A    between atoms: C_12  and  C_22
    5  A    between atoms: O_19  and  C_22
    6  A    between atoms: C_22  and  C_29
                            x       y       z     vdW  Elec       q    Type
                         _______ _______ _______ _____ _____    ______ ____

>  <TORSDO>
F 6

$$$$
=
 OpenBabel10222417013D

 30 33  0  0  1  0  0  0  0  0999 V2000
  189.5680  177.7970  147.6250 C   0  0  0  0  0  3  0  0  0  0  0  0
  188.4400  177.0650  143.4470 C   0  0  0  0  0  0  0  0  0  0  0  0
  190.3070  177.9200  146.5620 N   0  0  0  0  0  0  0  0  0  0  0  0
  187.2950  177.3590  146.7530 N   0  0  0  0  0  0  0  0  0  0  0  0
  190.8040  177.0950  142.9560 C   0  0  0  0  0  0  0  0  0  0  0  0
  190.0340  177.4040  145.2510 C   0  0  0  0  0  0  0  0  0  0  0  0
  186.9620  177.2870  143.2180 C   0  0  1  0  0  3  0  0  0  0  0  0
  191.8360  177.0280  142.0780 F   0  0  0  0  0  0  0  0  0  0  0  0
  187.4800  177.3860  145.4710 C   0  0  0  0  0  0  0  0  0  0  0  0
  191.0710  177.3560  144.3100 C   0  0  0  0  0  3  0  0  0  0  0  0
  189.4780  176.9500  142.5020 C   0  0  0  0  0  0  0  0  0  0  0  0
  186.4560  177.4870  144.5460 O   0  0  0  0  0  0  0  0  0  0  0  0
  188.7310  177.1920  144.7890 C   0  0  0  0  0  0  0  0  0  0  0  0
  188.3280  176.9570  147.7020 C   0  0  0  0  0  2  0  0  0  0  0  0
  189.0550  179.0030  140.4580 O   0  0  0  0  0  0  0  0  0  0  0  0
  189.2430  176.7580  141.1020 N   0  0  0  0  0  2  0  0  0  0  0  0
  189.0850  177.7880  140.1210 C   0  0  0  0  0  0  0  0  0  0  0  0
  188.9180  177.3960  138.6840 C   0  0  1  0  0  3  0  0  0  0  0  0
  192.3300  175.8580  137.9720 C   0  0  0  0  0  3  0  0  0  0  0  0
  191.3470  176.7530  138.4100 C   0  0  0  0  0  3  0  0  0  0  0  0
  190.6100  174.3620  137.1560 C   0  0  0  0  0  3  0  0  0  0  0  0
  191.9630  174.6630  137.3470 C   0  0  0  0  0  3  0  0  0  0  0  0
  189.6260  175.2570  137.5930 C   0  0  0  0  0  3  0  0  0  0  0  0
  189.9900  176.4530  138.2240 C   0  0  0  0  0  0  0  0  0  0  0  0
  187.0060  177.8050  137.6640 C   0  0  0  0  0  1  0  0  0  0  0  0
  187.6470  176.8610  138.4630 O   0  0  0  0  0  0  0  0  0  0  0  0
  186.7730  178.4570  142.4700 O   0  0  0  0  0  0  0  0  0  0  0  0
  185.4190  178.4690  142.1190 C   0  0  0  0  0  3  0  0  0  0  0  0
  184.6540  179.3780  143.0620 C   0  0  0  0  0  1  0  0  0  0  0  0
  185.2730  179.0020  140.7110 C   0  0  0  0  0  1  0  0  0  0  0  0
  1 14  1  0  0  0  0
  2 13  1  0  0  0  0
  3  1  2  0  0  0  0
  4 14  1  0  0  0  0
  5 10  2  0  0  0  0
  6  3  1  0  0  0  0
  7 27  1  6  0  0  0
  7  2  1  0  0  0  0
  7 12  1  0  0  0  0
  8  5  1  0  0  0  0
  9  4  2  0  0  0  0
 10  6  1  0  0  0  0
 11  5  1  0  0  0  0
 11  2  2  0  0  0  0
 12  9  1  0  0  0  0
 13  6  2  0  0  0  0
 13  9  1  0  0  0  0
 16 11  1  0  0  0  0
 17 15  2  0  0  0  0
 17 16  1  0  0  0  0
 18 26  1  1  0  0  0
 18 17  1  0  0  0  0
 19 20  1  0  0  0  0
 21 22  1  0  0  0  0
 21 23  2  0  0  0  0
 22 19  2  0  0  0  0
 23 24  1  0  0  0  0
 24 20  2  0  0  0  0
 24 18  1  0  0  0  0
 25 26  1  0  0  0  0
 28 27  1  0  0  0  0
 28 29  1  0  0  0  0
 30 28  1  0  0  0  0
M  END
>  <MODEL>
6

>  <REMARK>
 VINA RESULT:      -7.4      2.354      7.667
  Name = 
  6 active torsions:
  status: ('A' for Active; 'I' for Inactive)
    1  A    between atoms: O_2  and  C_3
    2  A    between atoms: O_2  and  C_14
    3  A    between atoms: N_11  and  C_20
    4  A    between atoms: C_12  and  C_22
    5  A    between atoms: O_19  and  C_22
    6  A    between atoms: C_22  and  C_29
                            x       y       z     vdW  Elec       q    Type
                         _______ _______ _______ _____ _____    ______ ____

>  <TORSDO>
F 6

$$$$
=
 OpenBabel10222417013D

 30 33  0  0  1  0  0  0  0  0999 V2000
  191.9520  177.8130  144.6880 C   0  0  0  0  0  3  0  0  0  0  0  0
  187.6880  177.5070  143.6920 C   0  0  0  0  0  0  0  0  0  0  0  0
  191.3400  178.2670  143.6340 N   0  0  0  0  0  0  0  0  0  0  0  0
  190.1340  177.0090  146.1610 N   0  0  0  0  0  0  0  0  0  0  0  0
  188.3140  178.1530  141.4520 C   0  0  0  0  0  0  0  0  0  0  0  0
  190.0270  177.9140  143.1730 C   0  0  0  0  0  0  0  0  0  0  0  0
  186.8270  177.4190  144.9320 C   0  0  1  0  0  3  0  0  0  0  0  0
  187.9920  178.4620  140.1710 F   0  0  0  0  0  0  0  0  0  0  0  0
  189.0750  177.2780  145.4660 C   0  0  0  0  0  0  0  0  0  0  0  0
  189.6520  178.2530  141.8660 C   0  0  0  0  0  3  0  0  0  0  0  0
  187.3070  177.7820  142.3650 C   0  0  0  0  0  0  0  0  0  0  0  0
  187.7930  177.2870  145.9860 O   0  0  0  0  0  0  0  0  0  0  0  0
  189.0210  177.4850  144.0440 C   0  0  0  0  0  0  0  0  0  0  0  0
  191.4300  176.7110  145.5600 C   0  0  0  0  0  2  0  0  0  0  0  0
  185.4950  180.0600  142.0470 O   0  0  0  0  0  0  0  0  0  0  0  0
  185.9440  177.7630  141.9220 N   0  0  0  0  0  2  0  0  0  0  0  0
  185.0990  178.9040  141.7350 C   0  0  0  0  0  0  0  0  0  0  0  0
  183.7180  178.6960  141.1930 C   0  0  1  0  0  3  0  0  0  0  0  0
  184.4780  177.5820  137.6300 C   0  0  0  0  0  3  0  0  0  0  0  0
  184.4920  178.3260  138.8150 C   0  0  0  0  0  3  0  0  0  0  0  0
  182.9220  176.0170  138.6250 C   0  0  0  0  0  3  0  0  0  0  0  0
  183.6950  176.4280  137.5350 C   0  0  0  0  0  3  0  0  0  0  0  0
  182.9340  176.7610  139.8110 C   0  0  0  0  0  3  0  0  0  0  0  0
  183.7200  177.9150  139.9120 C   0  0  0  0  0  0  0  0  0  0  0  0
  181.8110  178.9540  142.2720 C   0  0  0  0  0  1  0  0  0  0  0  0
  182.8990  178.0920  142.1500 O   0  0  0  0  0  0  0  0  0  0  0  0
  186.1200  178.6170  145.1000 O   0  0  0  0  0  0  0  0  0  0  0  0
  185.0020  178.2930  145.8750 C   0  0  0  0  0  3  0  0  0  0  0  0
  185.2250  178.7440  147.3080 C   0  0  0  0  0  1  0  0  0  0  0  0
  183.7890  179.0120  145.3280 C   0  0  0  0  0  1  0  0  0  0  0  0
  1 14  1  0  0  0  0
  2 13  1  0  0  0  0
  2  7  1  0  0  0  0
  3  1  2  0  0  0  0
  5 10  2  0  0  0  0
  5 11  1  0  0  0  0
  6  3  1  0  0  0  0
  6 13  2  0  0  0  0
  7 27  1  1  0  0  0
  7 12  1  0  0  0  0
  8  5  1  0  0  0  0
  9 12  1  0  0  0  0
  9  4  2  0  0  0  0
 10  6  1  0  0  0  0
 11  2  2  0  0  0  0
 13  9  1  0  0  0  0
 14  4  1  0  0  0  0
 16 11  1  0  0  0  0
 17 16  1  0  0  0  0
 17 15  2  0  0  0  0
 18 17  1  1  0  0  0
 18 26  1  0  0  0  0
 19 20  1  0  0  0  0
 20 24  2  0  0  0  0
 21 23  2  0  0  0  0
 22 19  2  0  0  0  0
 22 21  1  0  0  0  0
 23 24  1  0  0  0  0
 24 18  1  0  0  0  0
 26 25  1  0  0  0  0
 27 28  1  0  0  0  0
 28 29  1  0  0  0  0
 30 28  1  0  0  0  0
M  END
>  <MODEL>
7

>  <REMARK>
 VINA RESULT:      -7.4      3.243      6.305
  Name = 
  6 active torsions:
  status: ('A' for Active; 'I' for Inactive)
    1  A    between atoms: O_2  and  C_3
    2  A    between atoms: O_2  and  C_14
    3  A    between atoms: N_11  and  C_20
    4  A    between atoms: C_12  and  C_22
    5  A    between atoms: O_19  and  C_22
    6  A    between atoms: C_22  and  C_29
                            x       y       z     vdW  Elec       q    Type
                         _______ _______ _______ _____ _____    ______ ____

>  <TORSDO>
F 6

$$$$
=
 OpenBabel10222417013D

 30 33  0  0  1  0  0  0  0  0999 V2000
  190.9540  177.4200  146.8110 C   0  0  0  0  0  3  0  0  0  0  0  0
  188.8160  176.9980  143.0010 C   0  0  0  0  0  0  0  0  0  0  0  0
  191.4040  177.6390  145.6100 N   0  0  0  0  0  0  0  0  0  0  0  0
  188.5340  177.0120  146.5000 N   0  0  0  0  0  0  0  0  0  0  0  0
  190.9820  177.1080  141.9400 C   0  0  0  0  0  0  0  0  0  0  0  0
  190.8110  177.2230  144.3710 C   0  0  0  0  0  0  0  0  0  0  0  0
  187.3280  177.2120  143.1660 C   0  0  1  0  0  3  0  0  0  0  0  0
  191.7620  177.1280  140.8300 F   0  0  0  0  0  0  0  0  0  0  0  0
  188.3930  177.1420  145.2200 C   0  0  0  0  0  0  0  0  0  0  0  0
  191.5800  177.2670  143.2000 C   0  0  0  0  0  3  0  0  0  0  0  0
  189.5850  176.9750  141.8210 C   0  0  0  0  0  0  0  0  0  0  0  0
  187.1710  177.2980  144.5900 O   0  0  0  0  0  0  0  0  0  0  0  0
  189.4330  177.0250  144.2330 C   0  0  0  0  0  0  0  0  0  0  0  0
  189.7710  176.5550  147.1260 C   0  0  0  0  0  2  0  0  0  0  0  0
  188.7750  179.1790  140.0710 O   0  0  0  0  0  0  0  0  0  0  0  0
  189.0060  176.8890  140.5120 N   0  0  0  0  0  2  0  0  0  0  0  0
  188.6630  177.9910  139.6640 C   0  0  0  0  0  0  0  0  0  0  0  0
  188.1330  177.7060  138.2920 C   0  0  1  0  0  3  0  0  0  0  0  0
  191.0500  176.0060  136.5250 C   0  0  0  0  0  3  0  0  0  0  0  0
  190.2940  176.9660  137.2090 C   0  0  0  0  0  3  0  0  0  0  0  0
  189.1540  174.5000  136.5350 C   0  0  0  0  0  3  0  0  0  0  0  0
  190.4810  174.7740  136.1900 C   0  0  0  0  0  3  0  0  0  0  0  0
  188.3970  175.4590  137.2180 C   0  0  0  0  0  3  0  0  0  0  0  0
  188.9630  176.6930  137.5600 C   0  0  0  0  0  0  0  0  0  0  0  0
  186.1180  178.2510  137.5800 C   0  0  0  0  0  1  0  0  0  0  0  0
  186.7950  177.3110  138.3530 O   0  0  0  0  0  0  0  0  0  0  0  0
  186.9610  178.4330  142.5850 O   0  0  0  0  0  0  0  0  0  0  0  0
  185.5700  178.3890  142.4550 C   0  0  0  0  0  3  0  0  0  0  0  0
  184.9290  179.2770  143.5060 C   0  0  0  0  0  1  0  0  0  0  0  0
  185.1790  178.9020  141.0870 C   0  0  0  0  0  1  0  0  0  0  0  0
  1 14  1  0  0  0  0
  2  7  1  0  0  0  0
  2 13  1  0  0  0  0
  3  1  2  0  0  0  0
  4 14  1  0  0  0  0
  5 10  2  0  0  0  0
  6  3  1  0  0  0  0
  7 27  1  6  0  0  0
  7 12  1  0  0  0  0
  8  5  1  0  0  0  0
  9  4  2  0  0  0  0
 10  6  1  0  0  0  0
 11  5  1  0  0  0  0
 11  2  2  0  0  0  0
 12  9  1  0  0  0  0
 13  6  2  0  0  0  0
 13  9  1  0  0  0  0
 16 11  1  0  0  0  0
 17 15  2  0  0  0  0
 17 16  1  0  0  0  0
 18 26  1  1  0  0  0
 18 17  1  0  0  0  0
 19 20  1  0  0  0  0
 20 24  2  0  0  0  0
 21 23  2  0  0  0  0
 22 19  2  0  0  0  0
 22 21  1  0  0  0  0
 23 24  1  0  0  0  0
 24 18  1  0  0  0  0
 25 26  1  0  0  0  0
 28 27  1  0  0  0  0
 28 29  1  0  0  0  0
 30 28  1  0  0  0  0
M  END
>  <MODEL>
8

>  <REMARK>
 VINA RESULT:      -7.3      2.362      7.419
  Name = 
  6 active torsions:
  status: ('A' for Active; 'I' for Inactive)
    1  A    between atoms: O_2  and  C_3
    2  A    between atoms: O_2  and  C_14
    3  A    between atoms: N_11  and  C_20
    4  A    between atoms: C_12  and  C_22
    5  A    between atoms: O_19  and  C_22
    6  A    between atoms: C_22  and  C_29
                            x       y       z     vdW  Elec       q    Type
                         _______ _______ _______ _____ _____    ______ ____

>  <TORSDO>
F 6

$$$$
=
 OpenBabel10222417013D

 30 33  0  0  1  0  0  0  0  0999 V2000
  180.4820  178.3940  141.8550 C   0  0  0  0  0  3  0  0  0  0  0  0
  184.7360  179.0030  142.7480 C   0  0  0  0  0  0  0  0  0  0  0  0
  181.5100  178.0580  141.1310 N   0  0  0  0  0  0  0  0  0  0  0  0
  181.4570  179.1730  143.9910 N   0  0  0  0  0  0  0  0  0  0  0  0
  185.1470  178.5050  140.4210 C   0  0  0  0  0  0  0  0  0  0  0  0
  182.8620  178.5150  141.2790 C   0  0  0  0  0  0  0  0  0  0  0  0
  184.9980  179.0370  144.2370 C   0  0  1  0  0  3  0  0  0  0  0  0
  185.9920  178.3170  139.3780 F   0  0  0  0  0  0  0  0  0  0  0  0
  182.7270  179.0160  143.7890 C   0  0  0  0  0  0  0  0  0  0  0  0
  183.7700  178.3020  140.2330 C   0  0  0  0  0  3  0  0  0  0  0  0
  185.6520  178.8560  141.6880 C   0  0  0  0  0  0  0  0  0  0  0  0
  183.6760  179.0340  144.7960 O   0  0  0  0  0  0  0  0  0  0  0  0
  183.3800  178.9260  142.5110 C   0  0  0  0  0  0  0  0  0  0  0  0
  180.5060  179.4490  142.9200 C   0  0  0  0  0  2  0  0  0  0  0  0
  187.5590  176.7670  142.4470 O   0  0  0  0  0  0  0  0  0  0  0  0
  187.0700  178.9810  141.8570 N   0  0  0  0  0  2  0  0  0  0  0  0
  187.9810  177.9260  142.1850 C   0  0  0  0  0  0  0  0  0  0  0  0
  189.4460  178.2330  142.2480 C   0  0  1  0  0  3  0  0  0  0  0  0
  190.3590  177.7570  145.9160 C   0  0  0  0  0  3  0  0  0  0  0  0
  189.7520  178.2540  144.7570 C   0  0  0  0  0  3  0  0  0  0  0  0
  191.6300  176.1860  144.5810 C   0  0  0  0  0  3  0  0  0  0  0  0
  191.2960  176.7220  145.8290 C   0  0  0  0  0  3  0  0  0  0  0  0
  191.0240  176.6840  143.4220 C   0  0  0  0  0  3  0  0  0  0  0  0
  190.0820  177.7160  143.5040 C   0  0  0  0  0  0  0  0  0  0  0  0
  189.3660  178.2520  140.0440 C   0  0  0  0  0  1  0  0  0  0  0  0
  190.1000  177.7460  141.1140 O   0  0  0  0  0  0  0  0  0  0  0  0
  185.6670  177.8690  144.6240 O   0  0  0  0  0  0  0  0  0  0  0  0
  185.7880  177.9430  146.0150 C   0  0  0  0  0  3  0  0  0  0  0  0
  186.9540  177.0870  146.4740 C   0  0  0  0  0  1  0  0  0  0  0  0
  186.0550  179.3770  146.4180 C   0  0  0  0  0  1  0  0  0  0  0  0
  1 14  1  0  0  0  0
  2  7  1  0  0  0  0
  3  6  1  0  0  0  0
  3  1  2  0  0  0  0
  5 11  1  0  0  0  0
  6 13  2  0  0  0  0
  7 27  1  1  0  0  0
  7 12  1  0  0  0  0
  8  5  1  0  0  0  0
  9  4  2  0  0  0  0
  9 12  1  0  0  0  0
 10  5  2  0  0  0  0
 10  6  1  0  0  0  0
 11 16  1  0  0  0  0
 11  2  2  0  0  0  0
 13  2  1  0  0  0  0
 13  9  1  0  0  0  0
 14  4  1  0  0  0  0
 16 17  1  0  0  0  0
 17 18  1  0  0  0  0
 17 15  2  0  0  0  0
 18 26  1  6  0  0  0
 18 24  1  0  0  0  0
 20 19  2  0  0  0  0
 21 22  2  0  0  0  0
 22 19  1  0  0  0  0
 23 24  2  0  0  0  0
 23 21  1  0  0  0  0
 24 20  1  0  0  0  0
 25 26  1  0  0  0  0
 27 28  1  0  0  0  0
 28 30  1  0  0  0  0
 28 29  1  0  0  0  0
M  END
>  <MODEL>
9

>  <REMARK>
 VINA RESULT:      -7.2      2.872      6.921
  Name = 
  6 active torsions:
  status: ('A' for Active; 'I' for Inactive)
    1  A    between atoms: O_2  and  C_3
    2  A    between atoms: O_2  and  C_14
    3  A    between atoms: N_11  and  C_20
    4  A    between atoms: C_12  and  C_22
    5  A    between atoms: O_19  and  C_22
    6  A    between atoms: C_22  and  C_29
                            x       y       z     vdW  Elec       q    Type
                         _______ _______ _______ _____ _____    ______ ____

>  <TORSDO>
F 6

$$$$
