=
 OpenBabel10222415583D

 36 41  0  0  1  0  0  0  0  0999 V2000
  184.7100  178.8920  141.8680 C   0  0  0  0  0  0  0  0  0  0  0  0
  182.2030  176.2450  139.6410 C   0  0  0  0  0  3  0  0  0  0  0  0
  184.6790  178.7260  145.6230 C   0  0  0  0  0  0  0  0  0  0  0  0
  180.5660  177.9780  139.2110 C   0  0  0  0  0  0  0  0  0  0  0  0
  179.9440  179.2200  139.4090 O   0  0  0  0  0  0  0  0  0  0  0  0
  181.6920  177.5180  139.9500 C   0  0  0  0  0  0  0  0  0  0  0  0
  181.6240  178.9870  142.0840 C   0  0  0  0  0  0  0  0  0  0  0  0
  185.8160  179.3010  144.3660 S   0  0  0  0  0  0  0  0  0  0  0  0
  180.3010  180.1900  140.3840 C   0  0  2  0  0  3  0  0  0  0  0  0
  182.3920  178.2870  141.0170 C   0  0  0  0  0  0  0  0  0  0  0  0
  180.2970  179.5920  141.7820 C   0  0  1  0  0  3  0  0  0  0  0  0
  180.5330  175.9500  137.9500 C   0  0  0  0  0  3  0  0  0  0  0  0
  184.4970  178.9860  143.1870 C   0  0  0  0  0  0  0  0  0  0  0  0
  183.2640  178.6280  143.8020 N   0  0  0  0  0  0  0  0  0  0  0  0
  182.0210  179.0580  143.3190 N   0  0  0  0  0  0  0  0  0  0  0  0
  179.3230  181.3450  140.3210 C   0  0  0  0  0  1  0  0  0  0  0  0
  183.4490  178.4660  145.2000 C   0  0  0  0  0  3  0  0  0  0  0  0
  180.0360  177.1780  138.2450 N   0  0  0  0  0  0  0  0  0  0  0  0
  179.2750  178.6520  141.9420 O   0  0  0  0  0  1  0  0  0  0  0  0
  181.6290  175.4590  138.6480 C   0  0  0  0  0  3  0  0  0  0  0  0
  183.7290  178.3140  140.9400 C   0  0  0  0  0  3  0  0  0  0  0  0
  185.0930  178.5550  147.0450 C   0  0  0  0  0  2  0  0  0  0  0  0
  186.5470  178.9500  147.2270 C   0  0  0  0  0  2  0  0  0  0  0  0
  188.5620  178.2200  148.4560 C   0  0  0  0  0  1  0  0  0  0  0  0
  187.3400  177.7500  147.6950 C   0  0  0  0  0  2  0  0  0  0  0  0
  186.0650  179.1660  141.2970 C   0  0  0  0  0  2  0  0  0  0  0  0
  186.9980  177.9990  141.5730 C   0  0  0  0  0  2  0  0  0  0  0  0
  188.1090  178.6690  139.5800 O   0  0  0  0  0  0  0  0  0  0  0  0
  188.2060  178.1120  140.7050 C   0  0  0  0  0  0  0  0  0  0  0  0
  189.4600  177.5550  141.1090 N   0  0  0  0  0  2  0  0  0  0  0  0
  189.6480  176.9470  142.4180 C   0  0  0  0  0  2  0  0  0  0  0  0
  189.3320  177.8860  144.7290 C   0  0  0  0  0  2  0  0  0  0  0  0
  191.5810  178.0050  143.6380 C   0  0  1  0  0  3  0  0  0  0  0  0
  190.6900  177.2380  144.5900 C   0  0  2  0  0  3  0  0  0  0  0  0
  190.0820  177.9960  143.4190 C   0  0  2  0  0  0  0  0  0  0  0  0
  191.9620  179.2130  144.2230 O   0  0  0  0  0  1  0  0  0  0  0  0
  1 13  2  0  0  0  0
  2  6  2  0  0  0  0
  3 22  1  0  0  0  0
  4  5  1  0  0  0  0
  4  6  1  0  0  0  0
  5  9  1  0  0  0  0
  6 10  1  0  0  0  0
  7 15  2  0  0  0  0
  8  3  1  0  0  0  0
  9 16  1  1  0  0  0
  9 11  1  0  0  0  0
 10  7  1  0  0  0  0
 11 19  1  6  0  0  0
 11  7  1  0  0  0  0
 12 18  1  0  0  0  0
 12 20  2  0  0  0  0
 13 14  1  0  0  0  0
 13  8  1  0  0  0  0
 14 17  1  0  0  0  0
 15 14  1  0  0  0  0
 17  3  2  0  0  0  0
 18  4  2  0  0  0  0
 20  2  1  0  0  0  0
 21 10  2  0  0  0  0
 21  1  1  0  0  0  0
 22 23  1  0  0  0  0
 23 25  1  0  0  0  0
 25 24  1  0  0  0  0
 26 27  1  0  0  0  0
 26  1  1  0  0  0  0
 28 29  2  0  0  0  0
 29 30  1  0  0  0  0
 29 27  1  0  0  0  0
 30 31  1  0  0  0  0
 33 36  1  1  0  0  0
 33 34  1  0  0  0  0
 34 32  1  1  0  0  0
 35 31  1  6  0  0  0
 35 33  1  0  0  0  0
 35 34  1  0  0  0  0
 35 32  1  0  0  0  0
M  END
>  <MODEL>
1

>  <REMARK>
 VINA RESULT:      -8.2      0.000      0.000
  Name = 
  8 active torsions:
  status: ('A' for Active; 'I' for Inactive)
    1  A    between atoms: C_1  and  C_33
    2  A    between atoms: C_3  and  C_12
    3  A    between atoms: C_12  and  C_22
    4  A    between atoms: C_16  and  C_26
    5  A    between atoms: C_16  and  N_31
    6  A    between atoms: C_22  and  C_23
    7  A    between atoms: C_24  and  C_34
    8  A    between atoms: C_33  and  C_34
                            x       y       z     vdW  Elec       q    Type
                         _______ _______ _______ _____ _____    ______ ____

>  <TORSDO>
F 8

$$$$
=
 OpenBabel10222415583D

 36 41  0  0  1  0  0  0  0  0999 V2000
  185.2130  178.9440  140.8130 C   0  0  0  0  0  0  0  0  0  0  0  0
  182.2760  181.1120  138.5930 C   0  0  0  0  0  3  0  0  0  0  0  0
  188.4990  178.1120  139.1880 C   0  0  0  0  0  0  0  0  0  0  0  0
  180.9830  179.1150  138.1390 C   0  0  0  0  0  0  0  0  0  0  0  0
  180.7620  177.7320  138.0570 O   0  0  0  0  0  0  0  0  0  0  0  0
  182.2030  179.7090  138.5690 C   0  0  0  0  0  0  0  0  0  0  0  0
  183.9240  177.7980  138.2430 C   0  0  0  0  0  0  0  0  0  0  0  0
  187.8940  178.2850  140.8640 S   0  0  0  0  0  0  0  0  0  0  0  0
  181.7090  176.7140  138.3470 C   0  0  2  0  0  3  0  0  0  0  0  0
  183.4100  178.9600  139.0200 C   0  0  0  0  0  0  0  0  0  0  0  0
  182.9780  176.8940  137.5300 C   0  0  1  0  0  3  0  0  0  0  0  0
  180.0240  181.2760  137.7980 C   0  0  0  0  0  3  0  0  0  0  0  0
  186.2580  178.4470  140.1390 C   0  0  0  0  0  0  0  0  0  0  0  0
  186.2380  178.2130  138.7350 N   0  0  0  0  0  0  0  0  0  0  0  0
  185.1880  177.5430  138.0930 N   0  0  0  0  0  0  0  0  0  0  0  0
  181.0960  175.3620  138.0450 C   0  0  0  0  0  1  0  0  0  0  0  0
  187.5620  178.0580  138.2500 C   0  0  0  0  0  3  0  0  0  0  0  0
  179.9480  179.9210  137.7730 N   0  0  0  0  0  0  0  0  0  0  0  0
  182.7060  177.3760  136.2460 O   0  0  0  0  0  1  0  0  0  0  0  0
  181.1950  181.8980  138.2090 C   0  0  0  0  0  3  0  0  0  0  0  0
  183.9780  179.3910  140.1540 C   0  0  0  0  0  3  0  0  0  0  0  0
  189.9540  178.0340  138.8770 C   0  0  0  0  0  2  0  0  0  0  0  0
  190.6070  176.9090  139.6580 C   0  0  0  0  0  2  0  0  0  0  0  0
  191.6240  177.3890  141.8580 C   0  0  0  0  0  1  0  0  0  0  0  0
  191.8410  177.4330  140.3610 C   0  0  0  0  0  2  0  0  0  0  0  0
  185.3370  179.2830  142.2640 C   0  0  0  0  0  2  0  0  0  0  0  0
  184.6190  178.2450  143.1100 C   0  0  0  0  0  2  0  0  0  0  0  0
  183.6120  179.4590  144.8910 O   0  0  0  0  0  0  0  0  0  0  0  0
  184.5580  178.7140  144.5260 C   0  0  0  0  0  0  0  0  0  0  0  0
  185.5840  178.3690  145.4610 N   0  0  0  0  0  2  0  0  0  0  0  0
  186.6740  177.4690  145.1130 C   0  0  0  0  0  2  0  0  0  0  0  0
  188.4070  177.6410  146.9280 C   0  0  0  0  0  2  0  0  0  0  0  0
  189.1010  177.8160  144.5290 C   0  0  1  0  0  3  0  0  0  0  0  0
  188.9530  176.9030  145.7270 C   0  0  2  0  0  3  0  0  0  0  0  0
  187.9980  178.0720  145.5360 C   0  0  2  0  0  0  0  0  0  0  0  0
  190.1500  178.7090  144.7470 O   0  0  0  0  0  1  0  0  0  0  0  0
  1 26  1  0  0  0  0
  3  8  1  0  0  0  0
  4  6  1  0  0  0  0
  5  4  1  0  0  0  0
  5  9  1  0  0  0  0
  6  2  2  0  0  0  0
  6 10  1  0  0  0  0
  7 10  1  0  0  0  0
  9 16  1  6  0  0  0
 10 21  2  0  0  0  0
 11 19  1  6  0  0  0
 11  7  1  0  0  0  0
 11  9  1  0  0  0  0
 12 20  2  0  0  0  0
 13  1  2  0  0  0  0
 13  8  1  0  0  0  0
 14 13  1  0  0  0  0
 15  7  2  0  0  0  0
 15 14  1  0  0  0  0
 17 14  1  0  0  0  0
 17  3  2  0  0  0  0
 18 12  1  0  0  0  0
 18  4  2  0  0  0  0
 20  2  1  0  0  0  0
 21  1  1  0  0  0  0
 22  3  1  0  0  0  0
 22 23  1  0  0  0  0
 23 25  1  0  0  0  0
 25 24  1  0  0  0  0
 26 27  1  0  0  0  0
 27 29  1  0  0  0  0
 29 28  2  0  0  0  0
 29 30  1  0  0  0  0
 31 30  1  0  0  0  0
 33 36  1  1  0  0  0
 33 35  1  0  0  0  0
 33 34  1  0  0  0  0
 34 32  1  1  0  0  0
 35 31  1  6  0  0  0
 35 34  1  0  0  0  0
 35 32  1  0  0  0  0
M  END
>  <MODEL>
2

>  <REMARK>
 VINA RESULT:      -7.9      2.588      5.214
  Name = 
  8 active torsions:
  status: ('A' for Active; 'I' for Inactive)
    1  A    between atoms: C_1  and  C_33
    2  A    between atoms: C_3  and  C_12
    3  A    between atoms: C_12  and  C_22
    4  A    between atoms: C_16  and  C_26
    5  A    between atoms: C_16  and  N_31
    6  A    between atoms: C_22  and  C_23
    7  A    between atoms: C_24  and  C_34
    8  A    between atoms: C_33  and  C_34
                            x       y       z     vdW  Elec       q    Type
                         _______ _______ _______ _____ _____    ______ ____

>  <TORSDO>
F 8

$$$$
=
 OpenBabel10222415583D

 36 41  0  0  1  0  0  0  0  0999 V2000
  185.4230  178.6900  140.6070 C   0  0  0  0  0  0  0  0  0  0  0  0
  183.5220  176.0350  137.8520 C   0  0  0  0  0  3  0  0  0  0  0  0
  184.2740  178.7550  144.1860 C   0  0  0  0  0  0  0  0  0  0  0  0
  182.1980  177.8140  136.8780 C   0  0  0  0  0  0  0  0  0  0  0  0
  181.6240  179.0930  136.8270 O   0  0  0  0  0  0  0  0  0  0  0  0
  183.0240  177.3460  137.9390 C   0  0  0  0  0  0  0  0  0  0  0  0
  182.4230  178.9440  139.8890 C   0  0  0  0  0  0  0  0  0  0  0  0
  185.7660  179.1980  143.3000 S   0  0  0  0  0  0  0  0  0  0  0  0
  181.7380  180.1030  137.8200 C   0  0  2  0  0  3  0  0  0  0  0  0
  183.4260  178.1460  139.1310 C   0  0  0  0  0  0  0  0  0  0  0  0
  181.2850  179.5920  139.1790 C   0  0  1  0  0  3  0  0  0  0  0  0
  182.4100  175.7160  135.7560 C   0  0  0  0  0  3  0  0  0  0  0  0
  184.8360  178.8740  141.7960 C   0  0  0  0  0  0  0  0  0  0  0  0
  183.4570  178.6130  142.0320 N   0  0  0  0  0  0  0  0  0  0  0  0
  182.4420  179.0710  141.1820 N   0  0  0  0  0  0  0  0  0  0  0  0
  180.8970  181.2960  137.4180 C   0  0  0  0  0  1  0  0  0  0  0  0
  183.2110  178.5280  143.4270 C   0  0  0  0  0  3  0  0  0  0  0  0
  181.9270  176.9820  135.8340 N   0  0  0  0  0  0  0  0  0  0  0  0
  180.2040  178.7120  139.0690 O   0  0  0  0  0  1  0  0  0  0  0  0
  183.2190  175.2180  136.7690 C   0  0  0  0  0  3  0  0  0  0  0  0
  184.7250  178.1040  139.4550 C   0  0  0  0  0  3  0  0  0  0  0  0
  184.2400  178.6510  145.6720 C   0  0  0  0  0  2  0  0  0  0  0  0
  185.5760  179.0540  146.2660 C   0  0  0  0  0  2  0  0  0  0  0  0
  187.6720  177.7490  146.1570 C   0  0  0  0  0  1  0  0  0  0  0  0
  186.2930  177.8220  146.7760 C   0  0  0  0  0  2  0  0  0  0  0  0
  186.9000  178.8650  140.4540 C   0  0  0  0  0  2  0  0  0  0  0  0
  187.4200  177.9880  139.3280 C   0  0  0  0  0  2  0  0  0  0  0  0
  188.8870  179.3980  138.0970 O   0  0  0  0  0  0  0  0  0  0  0  0
  188.7790  178.4530  138.9210 C   0  0  0  0  0  0  0  0  0  0  0  0
  189.9560  177.8110  139.4160 N   0  0  0  0  0  2  0  0  0  0  0  0
  189.8970  176.7490  140.4090 C   0  0  0  0  0  2  0  0  0  0  0  0
  189.0360  176.7400  142.7720 C   0  0  0  0  0  2  0  0  0  0  0  0
  191.4480  177.2430  142.3330 C   0  0  1  0  0  3  0  0  0  0  0  0
  190.4380  176.1790  142.7060 C   0  0  2  0  0  3  0  0  0  0  0  0
  190.0330  177.3330  141.8000 C   0  0  2  0  0  0  0  0  0  0  0  0
  191.6070  178.1330  143.3950 O   0  0  0  0  0  1  0  0  0  0  0  0
  1 13  2  0  0  0  0
  2  6  2  0  0  0  0
  3 22  1  0  0  0  0
  4  6  1  0  0  0  0
  5  4  1  0  0  0  0
  5  9  1  0  0  0  0
  6 10  1  0  0  0  0
  7 15  2  0  0  0  0
  8  3  1  0  0  0  0
  9 16  1  6  0  0  0
  9 11  1  0  0  0  0
 10 21  2  0  0  0  0
 10  7  1  0  0  0  0
 11 19  1  6  0  0  0
 11  7  1  0  0  0  0
 12 18  1  0  0  0  0
 12 20  2  0  0  0  0
 13 14  1  0  0  0  0
 13  8  1  0  0  0  0
 14 17  1  0  0  0  0
 15 14  1  0  0  0  0
 17  3  2  0  0  0  0
 18  4  2  0  0  0  0
 20  2  1  0  0  0  0
 21  1  1  0  0  0  0
 22 23  1  0  0  0  0
 23 25  1  0  0  0  0
 24 25  1  0  0  0  0
 26  1  1  0  0  0  0
 27 26  1  0  0  0  0
 28 29  2  0  0  0  0
 29 27  1  0  0  0  0
 29 30  1  0  0  0  0
 30 31  1  0  0  0  0
 33 34  1  0  0  0  0
 33 36  1  1  0  0  0
 34 32  1  1  0  0  0
 35 31  1  6  0  0  0
 35 33  1  0  0  0  0
 35 34  1  0  0  0  0
 35 32  1  0  0  0  0
M  END
>  <MODEL>
3

>  <REMARK>
 VINA RESULT:      -7.4      1.853      2.185
  Name = 
  8 active torsions:
  status: ('A' for Active; 'I' for Inactive)
    1  A    between atoms: C_1  and  C_33
    2  A    between atoms: C_3  and  C_12
    3  A    between atoms: C_12  and  C_22
    4  A    between atoms: C_16  and  C_26
    5  A    between atoms: C_16  and  N_31
    6  A    between atoms: C_22  and  C_23
    7  A    between atoms: C_24  and  C_34
    8  A    between atoms: C_33  and  C_34
                            x       y       z     vdW  Elec       q    Type
                         _______ _______ _______ _____ _____    ______ ____

>  <TORSDO>
F 8

$$$$
=
 OpenBabel10222415583D

 36 41  0  0  1  0  0  0  0  0999 V2000
  185.7420  178.6410  139.8770 C   0  0  0  0  0  0  0  0  0  0  0  0
  182.2390  180.8040  138.7350 C   0  0  0  0  0  3  0  0  0  0  0  0
  188.2150  177.6240  137.2340 C   0  0  0  0  0  0  0  0  0  0  0  0
  180.8380  178.8340  138.8830 C   0  0  0  0  0  0  0  0  0  0  0  0
  180.5810  177.4570  138.9610 O   0  0  0  0  0  0  0  0  0  0  0  0
  182.1410  179.4040  138.8160 C   0  0  0  0  0  0  0  0  0  0  0  0
  183.6010  177.4230  138.0030 C   0  0  0  0  0  0  0  0  0  0  0  0
  188.2530  177.8930  139.0040 S   0  0  0  0  0  0  0  0  0  0  0  0
  181.5530  176.4210  138.9490 C   0  0  2  0  0  3  0  0  0  0  0  0
  183.4170  178.6360  138.8470 C   0  0  0  0  0  0  0  0  0  0  0  0
  182.4490  176.5200  137.7240 C   0  0  1  0  0  3  0  0  0  0  0  0
  179.8540  181.0080  138.7880 C   0  0  0  0  0  3  0  0  0  0  0  0
  186.4690  178.0780  138.9020 C   0  0  0  0  0  0  0  0  0  0  0  0
  185.9440  177.7810  137.6130 N   0  0  0  0  0  0  0  0  0  0  0  0
  184.7240  177.1180  137.4250 N   0  0  0  0  0  0  0  0  0  0  0  0
  180.8520  175.0780  138.9610 C   0  0  0  0  0  1  0  0  0  0  0  0
  187.0040  177.5590  136.6970 C   0  0  0  0  0  3  0  0  0  0  0  0
  179.7540  179.6570  138.8670 N   0  0  0  0  0  0  0  0  0  0  0  0
  181.7420  176.9520  136.5980 O   0  0  0  0  0  1  0  0  0  0  0  0
  181.1050  181.6080  138.7190 C   0  0  0  0  0  3  0  0  0  0  0  0
  184.3600  179.0990  139.6780 C   0  0  0  0  0  3  0  0  0  0  0  0
  189.4610  177.4820  136.4290 C   0  0  0  0  0  2  0  0  0  0  0  0
  190.1210  176.1430  136.6980 C   0  0  0  0  0  2  0  0  0  0  0  0
  192.0810  175.0340  137.7140 C   0  0  0  0  0  1  0  0  0  0  0  0
  191.4830  176.3670  137.3170 C   0  0  0  0  0  2  0  0  0  0  0  0
  186.3830  179.0420  141.1660 C   0  0  0  0  0  2  0  0  0  0  0  0
  186.3670  177.8800  142.1460 C   0  0  0  0  0  2  0  0  0  0  0  0
  188.7330  178.0660  142.2890 O   0  0  0  0  0  0  0  0  0  0  0  0
  187.6550  177.8460  142.8990 C   0  0  0  0  0  0  0  0  0  0  0  0
  187.6860  177.5190  144.2900 N   0  0  0  0  0  2  0  0  0  0  0  0
  186.4700  177.3060  145.0610 C   0  0  0  0  0  2  0  0  0  0  0  0
  184.6200  179.0050  145.1910 C   0  0  0  0  0  2  0  0  0  0  0  0
  186.0940  178.6200  147.1780 C   0  0  1  0  0  3  0  0  0  0  0  0
  184.7810  178.2780  146.5070 C   0  0  2  0  0  3  0  0  0  0  0  0
  186.0030  178.6130  145.6650 C   0  0  2  0  0  0  0  0  0  0  0  0
  186.0550  179.9340  147.6440 O   0  0  0  0  0  1  0  0  0  0  0  0
  1 26  1  0  0  0  0
  2  6  2  0  0  0  0
  3  8  1  0  0  0  0
  4  5  1  0  0  0  0
  6 10  1  0  0  0  0
  6  4  1  0  0  0  0
  7 10  1  0  0  0  0
  9 16  1  6  0  0  0
  9  5  1  0  0  0  0
 10 21  2  0  0  0  0
 11 19  1  6  0  0  0
 11  7  1  0  0  0  0
 11  9  1  0  0  0  0
 12 18  1  0  0  0  0
 13  8  1  0  0  0  0
 13  1  2  0  0  0  0
 14 13  1  0  0  0  0
 15 14  1  0  0  0  0
 15  7  2  0  0  0  0
 17  3  2  0  0  0  0
 17 14  1  0  0  0  0
 18  4  2  0  0  0  0
 20  2  1  0  0  0  0
 20 12  2  0  0  0  0
 21  1  1  0  0  0  0
 22 23  1  0  0  0  0
 22  3  1  0  0  0  0
 23 25  1  0  0  0  0
 25 24  1  0  0  0  0
 26 27  1  0  0  0  0
 27 29  1  0  0  0  0
 28 29  2  0  0  0  0
 29 30  1  0  0  0  0
 30 31  1  0  0  0  0
 32 35  1  0  0  0  0
 33 36  1  1  0  0  0
 34 32  1  1  0  0  0
 34 33  1  0  0  0  0
 35 31  1  6  0  0  0
 35 34  1  0  0  0  0
 35 33  1  0  0  0  0
M  END
>  <MODEL>
4

>  <REMARK>
 VINA RESULT:      -7.0      3.199      6.100
  Name = 
  8 active torsions:
  status: ('A' for Active; 'I' for Inactive)
    1  A    between atoms: C_1  and  C_33
    2  A    between atoms: C_3  and  C_12
    3  A    between atoms: C_12  and  C_22
    4  A    between atoms: C_16  and  C_26
    5  A    between atoms: C_16  and  N_31
    6  A    between atoms: C_22  and  C_23
    7  A    between atoms: C_24  and  C_34
    8  A    between atoms: C_33  and  C_34
                            x       y       z     vdW  Elec       q    Type
                         _______ _______ _______ _____ _____    ______ ____

>  <TORSDO>
F 8

$$$$
=
 OpenBabel10222415583D

 36 41  0  0  1  0  0  0  0  0999 V2000
  184.3110  178.5430  141.2950 C   0  0  0  0  0  0  0  0  0  0  0  0
  181.1840  176.0500  139.7910 C   0  0  0  0  0  3  0  0  0  0  0  0
  184.8820  178.7360  145.0050 C   0  0  0  0  0  0  0  0  0  0  0  0
  179.7070  177.9340  139.4220 C   0  0  0  0  0  0  0  0  0  0  0  0
  179.2720  179.2600  139.5700 O   0  0  0  0  0  0  0  0  0  0  0  0
  180.8800  177.4020  140.0280 C   0  0  0  0  0  0  0  0  0  0  0  0
  181.3340  179.0620  141.9670 C   0  0  0  0  0  0  0  0  0  0  0  0
  185.8530  179.0370  143.5320 S   0  0  0  0  0  0  0  0  0  0  0  0
  179.8930  180.2620  140.3620 C   0  0  2  0  0  3  0  0  0  0  0  0
  181.8300  178.1700  140.8810 C   0  0  0  0  0  0  0  0  0  0  0  0
  180.0530  179.8040  141.8030 C   0  0  1  0  0  3  0  0  0  0  0  0
  179.2350  175.8190  138.4200 C   0  0  0  0  0  3  0  0  0  0  0  0
  184.3300  178.7880  142.6110 C   0  0  0  0  0  0  0  0  0  0  0  0
  183.1840  178.6540  143.4440 N   0  0  0  0  0  0  0  0  0  0  0  0
  181.9350  179.1950  143.1110 N   0  0  0  0  0  0  0  0  0  0  0  0
  179.0570  181.5240  140.3180 C   0  0  0  0  0  1  0  0  0  0  0  0
  183.5770  178.6010  144.8070 C   0  0  0  0  0  3  0  0  0  0  0  0
  178.9370  177.1230  138.6450 N   0  0  0  0  0  0  0  0  0  0  0  0
  178.9710  179.0240  142.2240 O   0  0  0  0  0  1  0  0  0  0  0  0
  180.3680  175.2560  138.9930 C   0  0  0  0  0  3  0  0  0  0  0  0
  183.1300  178.0140  140.5990 C   0  0  0  0  0  3  0  0  0  0  0  0
  185.5030  178.6470  146.3570 C   0  0  0  0  0  2  0  0  0  0  0  0
  186.7140  177.7330  146.3280 C   0  0  0  0  0  2  0  0  0  0  0  0
  188.9630  177.3770  147.2870 C   0  0  0  0  0  1  0  0  0  0  0  0
  187.6370  178.0830  147.4750 C   0  0  0  0  0  2  0  0  0  0  0  0
  185.5740  178.5830  140.4970 C   0  0  0  0  0  2  0  0  0  0  0  0
  185.2720  178.3830  139.0210 C   0  0  0  0  0  2  0  0  0  0  0  0
  187.5770  178.6330  138.4950 O   0  0  0  0  0  0  0  0  0  0  0  0
  186.5190  177.9790  138.3080 C   0  0  0  0  0  0  0  0  0  0  0  0
  186.5170  176.8930  137.3780 N   0  0  0  0  0  2  0  0  0  0  0  0
  185.3390  176.0670  137.1580 C   0  0  0  0  0  2  0  0  0  0  0  0
  184.5060  175.2740  134.9220 C   0  0  0  0  0  2  0  0  0  0  0  0
  183.3590  177.1810  136.0690 C   0  0  1  0  0  3  0  0  0  0  0  0
  183.3560  175.6900  135.8110 C   0  0  2  0  0  3  0  0  0  0  0  0
  184.6710  176.4540  135.8560 C   0  0  2  0  0  0  0  0  0  0  0  0
  183.0050  177.8600  134.9030 O   0  0  0  0  0  1  0  0  0  0  0  0
  1 13  2  0  0  0  0
  2  6  2  0  0  0  0
  3 22  1  0  0  0  0
  4  5  1  0  0  0  0
  4  6  1  0  0  0  0
  5  9  1  0  0  0  0
  6 10  1  0  0  0  0
  7 15  2  0  0  0  0
  8  3  1  0  0  0  0
  9 16  1  1  0  0  0
  9 11  1  0  0  0  0
 10  7  1  0  0  0  0
 11  7  1  0  0  0  0
 11 19  1  6  0  0  0
 12 18  1  0  0  0  0
 12 20  2  0  0  0  0
 13 14  1  0  0  0  0
 13  8  1  0  0  0  0
 14 17  1  0  0  0  0
 15 14  1  0  0  0  0
 17  3  2  0  0  0  0
 18  4  2  0  0  0  0
 20  2  1  0  0  0  0
 21 10  2  0  0  0  0
 21  1  1  0  0  0  0
 23 22  1  0  0  0  0
 23 25  1  0  0  0  0
 24 25  1  0  0  0  0
 26  1  1  0  0  0  0
 27 26  1  0  0  0  0
 29 28  2  0  0  0  0
 29 27  1  0  0  0  0
 30 29  1  0  0  0  0
 31 30  1  0  0  0  0
 32 35  1  0  0  0  0
 33 36  1  6  0  0  0
 34 32  1  6  0  0  0
 34 35  1  0  0  0  0
 34 33  1  0  0  0  0
 35 33  1  0  0  0  0
 35 31  1  1  0  0  0
M  END
>  <MODEL>
5

>  <REMARK>
 VINA RESULT:      -6.9      2.253      4.570
  Name = 
  8 active torsions:
  status: ('A' for Active; 'I' for Inactive)
    1  A    between atoms: C_1  and  C_33
    2  A    between atoms: C_3  and  C_12
    3  A    between atoms: C_12  and  C_22
    4  A    between atoms: C_16  and  C_26
    5  A    between atoms: C_16  and  N_31
    6  A    between atoms: C_22  and  C_23
    7  A    between atoms: C_24  and  C_34
    8  A    between atoms: C_33  and  C_34
                            x       y       z     vdW  Elec       q    Type
                         _______ _______ _______ _____ _____    ______ ____

>  <TORSDO>
F 8

$$$$
=
 OpenBabel10222415583D

 36 41  0  0  1  0  0  0  0  0999 V2000
  191.0800  176.1310  138.3390 C   0  0  0  0  0  0  0  0  0  0  0  0
  188.4830  173.0870  136.8420 C   0  0  0  0  0  3  0  0  0  0  0  0
  190.3500  177.6880  141.6820 C   0  0  0  0  0  0  0  0  0  0  0  0
  187.3720  174.6210  135.3320 C   0  0  0  0  0  0  0  0  0  0  0  0
  187.0150  175.8820  134.8330 O   0  0  0  0  0  0  0  0  0  0  0  0
  188.2200  174.4130  136.4570 C   0  0  0  0  0  0  0  0  0  0  0  0
  188.1030  176.6850  137.6980 C   0  0  0  0  0  0  0  0  0  0  0  0
  191.7900  177.4890  140.6360 S   0  0  0  0  0  0  0  0  0  0  0  0
  187.4000  177.1370  135.3760 C   0  0  2  0  0  3  0  0  0  0  0  0
  188.8730  175.4910  137.2500 C   0  0  0  0  0  0  0  0  0  0  0  0
  187.0180  177.2420  136.8440 C   0  0  1  0  0  3  0  0  0  0  0  0
  187.1140  172.2620  135.0590 C   0  0  0  0  0  3  0  0  0  0  0  0
  190.6630  176.8370  139.3980 C   0  0  0  0  0  0  0  0  0  0  0  0
  189.2940  176.9470  139.7680 N   0  0  0  0  0  0  0  0  0  0  0  0
  188.2820  177.2590  138.8500 N   0  0  0  0  0  0  0  0  0  0  0  0
  186.7290  178.2470  134.5940 C   0  0  0  0  0  1  0  0  0  0  0  0
  189.1880  177.4150  141.1040 C   0  0  0  0  0  3  0  0  0  0  0  0
  186.8570  173.5400  134.6820 N   0  0  0  0  0  0  0  0  0  0  0  0
  185.8010  176.6070  137.1110 O   0  0  0  0  0  1  0  0  0  0  0  0
  187.9340  172.0120  136.1520 C   0  0  0  0  0  3  0  0  0  0  0  0
  190.1750  175.3180  137.5150 C   0  0  0  0  0  3  0  0  0  0  0  0
  190.4590  178.1300  143.1000 C   0  0  0  0  0  2  0  0  0  0  0  0
  189.1750  177.8360  143.8520 C   0  0  0  0  0  2  0  0  0  0  0  0
  188.1690  177.5650  146.0920 C   0  0  0  0  0  1  0  0  0  0  0  0
  189.4650  177.7540  145.3340 C   0  0  0  0  0  2  0  0  0  0  0  0
  192.5410  175.9510  138.0740 C   0  0  0  0  0  2  0  0  0  0  0  0
  192.7590  174.8410  137.0590 C   0  0  0  0  0  2  0  0  0  0  0  0
  192.9270  176.2970  135.1870 O   0  0  0  0  0  0  0  0  0  0  0  0
  193.4710  175.3890  135.8670 C   0  0  0  0  0  0  0  0  0  0  0  0
  194.7360  174.8640  135.4590 N   0  0  0  0  0  2  0  0  0  0  0  0
  195.4380  173.8520  136.2340 C   0  0  0  0  0  2  0  0  0  0  0  0
  195.8100  173.7380  138.7190 C   0  0  0  0  0  2  0  0  0  0  0  0
  197.5920  174.6890  137.2400 C   0  0  1  0  0  3  0  0  0  0  0  0
  197.0920  173.4600  137.9670 C   0  0  2  0  0  3  0  0  0  0  0  0
  196.1030  174.4870  137.4370 C   0  0  2  0  0  0  0  0  0  0  0  0
  198.0650  175.6200  138.1630 O   0  0  0  0  0  1  0  0  0  0  0  0
  1 13  2  0  0  0  0
  3 22  1  0  0  0  0
  4  6  1  0  0  0  0
  5  4  1  0  0  0  0
  5  9  1  0  0  0  0
  6  2  2  0  0  0  0
  6 10  1  0  0  0  0
  7 15  2  0  0  0  0
  8  3  1  0  0  0  0
  9 16  1  6  0  0  0
  9 11  1  0  0  0  0
 10 21  2  0  0  0  0
 10  7  1  0  0  0  0
 11 19  1  6  0  0  0
 11  7  1  0  0  0  0
 12 20  2  0  0  0  0
 13 14  1  0  0  0  0
 13  8  1  0  0  0  0
 14 17  1  0  0  0  0
 15 14  1  0  0  0  0
 17  3  2  0  0  0  0
 18 12  1  0  0  0  0
 18  4  2  0  0  0  0
 20  2  1  0  0  0  0
 21  1  1  0  0  0  0
 22 23  1  0  0  0  0
 23 25  1  0  0  0  0
 25 24  1  0  0  0  0
 26  1  1  0  0  0  0
 27 26  1  0  0  0  0
 28 29  2  0  0  0  0
 29 27  1  0  0  0  0
 30 29  1  0  0  0  0
 30 31  1  0  0  0  0
 33 35  1  0  0  0  0
 33 34  1  0  0  0  0
 33 36  1  1  0  0  0
 34 32  1  1  0  0  0
 35 31  1  6  0  0  0
 35 34  1  0  0  0  0
 35 32  1  0  0  0  0
M  END
>  <MODEL>
6

>  <REMARK>
 VINA RESULT:      -6.9      5.980      7.985
  Name = 
  8 active torsions:
  status: ('A' for Active; 'I' for Inactive)
    1  A    between atoms: C_1  and  C_33
    2  A    between atoms: C_3  and  C_12
    3  A    between atoms: C_12  and  C_22
    4  A    between atoms: C_16  and  C_26
    5  A    between atoms: C_16  and  N_31
    6  A    between atoms: C_22  and  C_23
    7  A    between atoms: C_24  and  C_34
    8  A    between atoms: C_33  and  C_34
                            x       y       z     vdW  Elec       q    Type
                         _______ _______ _______ _____ _____    ______ ____

>  <TORSDO>
F 8

$$$$
=
 OpenBabel10222415583D

 36 41  0  0  1  0  0  0  0  0999 V2000
  184.7770  178.6340  139.9940 C   0  0  0  0  0  0  0  0  0  0  0  0
  181.4990  176.1050  138.9380 C   0  0  0  0  0  3  0  0  0  0  0  0
  186.4530  178.1710  143.3270 C   0  0  0  0  0  0  0  0  0  0  0  0
  179.8670  177.8230  139.4420 C   0  0  0  0  0  0  0  0  0  0  0  0
  179.4180  179.0280  140.0030 O   0  0  0  0  0  0  0  0  0  0  0  0
  181.2000  177.3350  139.5490 C   0  0  0  0  0  0  0  0  0  0  0  0
  182.1280  178.6300  141.5940 C   0  0  0  0  0  0  0  0  0  0  0  0
  186.9020  178.8730  141.7420 S   0  0  0  0  0  0  0  0  0  0  0  0
  180.1900  179.9270  140.7850 C   0  0  2  0  0  3  0  0  0  0  0  0
  182.3180  178.0370  140.2410 C   0  0  0  0  0  0  0  0  0  0  0  0
  180.8150  179.2210  141.9780 C   0  0  1  0  0  3  0  0  0  0  0  0
  179.2400  175.9000  138.1720 C   0  0  0  0  0  3  0  0  0  0  0  0
  185.1870  178.6180  141.2690 C   0  0  0  0  0  0  0  0  0  0  0  0
  184.3650  178.1790  142.3450 N   0  0  0  0  0  0  0  0  0  0  0  0
  183.0440  178.6130  142.5150 N   0  0  0  0  0  0  0  0  0  0  0  0
  179.3050  181.0570  141.2680 C   0  0  0  0  0  1  0  0  0  0  0  0
  185.1620  177.9130  143.4870 C   0  0  0  0  0  3  0  0  0  0  0  0
  178.9460  177.0870  138.7600 N   0  0  0  0  0  0  0  0  0  0  0  0
  179.9670  178.2440  142.5070 O   0  0  0  0  0  1  0  0  0  0  0  0
  180.5270  175.3850  138.2520 C   0  0  0  0  0  3  0  0  0  0  0  0
  183.4740  178.1050  139.5680 C   0  0  0  0  0  3  0  0  0  0  0  0
  187.4670  177.9000  144.3850 C   0  0  0  0  0  2  0  0  0  0  0  0
  186.8170  177.2500  145.5920 C   0  0  0  0  0  2  0  0  0  0  0  0
  185.6810  178.9610  146.9670 C   0  0  0  0  0  1  0  0  0  0  0  0
  186.9560  178.1630  146.7910 C   0  0  0  0  0  2  0  0  0  0  0  0
  185.7270  178.9870  138.8950 C   0  0  0  0  0  2  0  0  0  0  0  0
  186.3500  177.7300  138.3120 C   0  0  0  0  0  2  0  0  0  0  0  0
  186.9520  178.0710  136.0370 O   0  0  0  0  0  0  0  0  0  0  0  0
  187.3180  178.1050  137.2400 C   0  0  0  0  0  0  0  0  0  0  0  0
  188.6680  178.4550  137.5560 N   0  0  0  0  0  2  0  0  0  0  0  0
  189.1360  178.5640  138.9300 C   0  0  0  0  0  2  0  0  0  0  0  0
  190.5390  176.5310  138.4540 C   0  0  0  0  0  2  0  0  0  0  0  0
  190.1950  177.2760  140.8190 C   0  0  1  0  0  3  0  0  0  0  0  0
  191.1060  177.3210  139.6120 C   0  0  2  0  0  3  0  0  0  0  0  0
  189.6000  177.2110  139.4280 C   0  0  2  0  0  0  0  0  0  0  0  0
  190.2190  175.9980  141.3780 O   0  0  0  0  0  1  0  0  0  0  0  0
  1 13  2  0  0  0  0
  2  6  2  0  0  0  0
  3 17  2  0  0  0  0
  3 22  1  0  0  0  0
  4  6  1  0  0  0  0
  4  5  1  0  0  0  0
  5  9  1  0  0  0  0
  6 10  1  0  0  0  0
  7 11  1  0  0  0  0
  7 15  2  0  0  0  0
  8  3  1  0  0  0  0
  9 16  1  1  0  0  0
  9 11  1  0  0  0  0
 10  7  1  0  0  0  0
 11 19  1  6  0  0  0
 12 20  2  0  0  0  0
 12 18  1  0  0  0  0
 13  8  1  0  0  0  0
 13 14  1  0  0  0  0
 14 15  1  0  0  0  0
 14 17  1  0  0  0  0
 18  4  2  0  0  0  0
 20  2  1  0  0  0  0
 21  1  1  0  0  0  0
 21 10  2  0  0  0  0
 22 23  1  0  0  0  0
 23 25  1  0  0  0  0
 25 24  1  0  0  0  0
 26  1  1  0  0  0  0
 27 26  1  0  0  0  0
 28 29  2  0  0  0  0
 29 30  1  0  0  0  0
 29 27  1  0  0  0  0
 30 31  1  0  0  0  0
 32 35  1  0  0  0  0
 33 36  1  1  0  0  0
 34 32  1  1  0  0  0
 34 33  1  0  0  0  0
 35 31  1  6  0  0  0
 35 34  1  0  0  0  0
 35 33  1  0  0  0  0
M  END
>  <MODEL>
7

>  <REMARK>
 VINA RESULT:      -6.9      2.033      2.739
  Name = 
  8 active torsions:
  status: ('A' for Active; 'I' for Inactive)
    1  A    between atoms: C_1  and  C_33
    2  A    between atoms: C_3  and  C_12
    3  A    between atoms: C_12  and  C_22
    4  A    between atoms: C_16  and  C_26
    5  A    between atoms: C_16  and  N_31
    6  A    between atoms: C_22  and  C_23
    7  A    between atoms: C_24  and  C_34
    8  A    between atoms: C_33  and  C_34
                            x       y       z     vdW  Elec       q    Type
                         _______ _______ _______ _____ _____    ______ ____

>  <TORSDO>
F 8

$$$$
=
 OpenBabel10222415583D

 36 41  0  0  1  0  0  0  0  0999 V2000
  185.2390  178.8350  140.4630 C   0  0  0  0  0  0  0  0  0  0  0  0
  182.1450  181.1200  138.6040 C   0  0  0  0  0  3  0  0  0  0  0  0
  188.4060  178.1420  138.5600 C   0  0  0  0  0  0  0  0  0  0  0  0
  180.8310  179.1460  138.1100 C   0  0  0  0  0  0  0  0  0  0  0  0
  180.6110  177.7700  137.9510 O   0  0  0  0  0  0  0  0  0  0  0  0
  182.0760  179.7200  138.4920 C   0  0  0  0  0  0  0  0  0  0  0  0
  183.7770  177.8500  137.9190 C   0  0  0  0  0  0  0  0  0  0  0  0
  187.9200  178.1970  140.2820 S   0  0  0  0  0  0  0  0  0  0  0  0
  181.5790  176.7420  138.1050 C   0  0  2  0  0  3  0  0  0  0  0  0
  183.3150  178.9540  138.8060 C   0  0  0  0  0  0  0  0  0  0  0  0
  182.7880  176.9880  137.2150 C   0  0  1  0  0  3  0  0  0  0  0  0
  179.8410  181.3150  137.9820 C   0  0  0  0  0  3  0  0  0  0  0  0
  186.2370  178.3930  139.6860 C   0  0  0  0  0  0  0  0  0  0  0  0
  186.1190  178.2520  138.2750 N   0  0  0  0  0  0  0  0  0  0  0  0
  185.0290  177.6170  137.6640 N   0  0  0  0  0  0  0  0  0  0  0  0
  180.9530  175.4080  137.7580 C   0  0  0  0  0  1  0  0  0  0  0  0
  187.4060  178.1420  137.6890 C   0  0  0  0  0  3  0  0  0  0  0  0
  179.7690  179.9650  137.8720 N   0  0  0  0  0  0  0  0  0  0  0  0
  182.4240  177.5510  135.9880 O   0  0  0  0  0  1  0  0  0  0  0  0
  181.0360  181.9190  138.3500 C   0  0  0  0  0  3  0  0  0  0  0  0
  183.9590  179.3140  139.9240 C   0  0  0  0  0  3  0  0  0  0  0  0
  189.8360  178.0970  138.1440 C   0  0  0  0  0  2  0  0  0  0  0  0
  190.1160  176.8500  137.3270 C   0  0  0  0  0  2  0  0  0  0  0  0
  191.8130  175.1420  136.7690 C   0  0  0  0  0  1  0  0  0  0  0  0
  191.5270  176.3750  137.5990 C   0  0  0  0  0  2  0  0  0  0  0  0
  185.4640  179.0780  141.9210 C   0  0  0  0  0  2  0  0  0  0  0  0
  184.3350  178.4700  142.7370 C   0  0  0  0  0  2  0  0  0  0  0  0
  184.9020  180.1070  144.3660 O   0  0  0  0  0  0  0  0  0  0  0  0
  184.0040  179.3720  143.8780 C   0  0  0  0  0  0  0  0  0  0  0  0
  182.6970  179.3790  144.4570 N   0  0  0  0  0  2  0  0  0  0  0  0
  181.6040  178.5920  143.9050 C   0  0  0  0  0  2  0  0  0  0  0  0
  180.7970  178.2510  141.5480 C   0  0  0  0  0  2  0  0  0  0  0  0
  179.8660  180.1260  142.9200 C   0  0  1  0  0  3  0  0  0  0  0  0
  179.6680  178.7030  142.4460 C   0  0  2  0  0  3  0  0  0  0  0  0
  181.0730  179.2510  142.6500 C   0  0  2  0  0  0  0  0  0  0  0  0
  179.6780  181.0060  141.8540 O   0  0  0  0  0  1  0  0  0  0  0  0
  1 26  1  0  0  0  0
  3  8  1  0  0  0  0
  4  6  1  0  0  0  0
  5  9  1  0  0  0  0
  5  4  1  0  0  0  0
  6  2  2  0  0  0  0
  6 10  1  0  0  0  0
  7 10  1  0  0  0  0
  9 16  1  6  0  0  0
 10 21  2  0  0  0  0
 11 19  1  6  0  0  0
 11  7  1  0  0  0  0
 11  9  1  0  0  0  0
 12 20  2  0  0  0  0
 13  8  1  0  0  0  0
 13  1  2  0  0  0  0
 14 13  1  0  0  0  0
 15  7  2  0  0  0  0
 15 14  1  0  0  0  0
 17 14  1  0  0  0  0
 17  3  2  0  0  0  0
 18 12  1  0  0  0  0
 18  4  2  0  0  0  0
 20  2  1  0  0  0  0
 21  1  1  0  0  0  0
 22  3  1  0  0  0  0
 23 25  1  0  0  0  0
 23 22  1  0  0  0  0
 24 25  1  0  0  0  0
 26 27  1  0  0  0  0
 27 29  1  0  0  0  0
 29 28  2  0  0  0  0
 29 30  1  0  0  0  0
 31 30  1  0  0  0  0
 32 35  1  0  0  0  0
 33 36  1  6  0  0  0
 34 32  1  6  0  0  0
 34 35  1  0  0  0  0
 34 33  1  0  0  0  0
 35 33  1  0  0  0  0
 35 31  1  1  0  0  0
M  END
>  <MODEL>
8

>  <REMARK>
 VINA RESULT:      -6.9      3.476      7.165
  Name = 
  8 active torsions:
  status: ('A' for Active; 'I' for Inactive)
    1  A    between atoms: C_1  and  C_33
    2  A    between atoms: C_3  and  C_12
    3  A    between atoms: C_12  and  C_22
    4  A    between atoms: C_16  and  C_26
    5  A    between atoms: C_16  and  N_31
    6  A    between atoms: C_22  and  C_23
    7  A    between atoms: C_24  and  C_34
    8  A    between atoms: C_33  and  C_34
                            x       y       z     vdW  Elec       q    Type
                         _______ _______ _______ _____ _____    ______ ____

>  <TORSDO>
F 8

$$$$
=
 OpenBabel10222415583D

 36 41  0  0  1  0  0  0  0  0999 V2000
  187.0900  176.7250  137.2590 C   0  0  0  0  0  0  0  0  0  0  0  0
  189.6160  176.8700  140.7010 C   0  0  0  0  0  3  0  0  0  0  0  0
  185.5980  173.4370  136.2130 C   0  0  0  0  0  0  0  0  0  0  0  0
  191.6300  176.9470  139.3580 C   0  0  0  0  0  0  0  0  0  0  0  0
  192.3820  176.8090  138.1820 O   0  0  0  0  0  0  0  0  0  0  0  0
  190.2320  176.6940  139.4500 C   0  0  0  0  0  0  0  0  0  0  0  0
  189.7760  175.1940  137.3870 C   0  0  0  0  0  0  0  0  0  0  0  0
  185.2090  175.1670  135.9690 S   0  0  0  0  0  0  0  0  0  0  0  0
  191.8950  176.3710  136.9220 C   0  0  2  0  0  3  0  0  0  0  0  0
  189.3580  176.2790  138.3170 C   0  0  0  0  0  0  0  0  0  0  0  0
  191.2130  175.0160  137.0370 C   0  0  1  0  0  3  0  0  0  0  0  0
  191.7060  177.5110  141.6770 C   0  0  0  0  0  3  0  0  0  0  0  0
  186.7800  175.5190  136.7670 C   0  0  0  0  0  0  0  0  0  0  0  0
  187.5560  174.3530  137.0210 N   0  0  0  0  0  0  0  0  0  0  0  0
  188.9500  174.3250  136.8870 N   0  0  0  0  0  0  0  0  0  0  0  0
  193.0490  176.2790  135.9450 C   0  0  0  0  0  1  0  0  0  0  0  0
  186.8030  173.1910  136.7080 C   0  0  0  0  0  3  0  0  0  0  0  0
  192.3060  177.3430  140.4720 N   0  0  0  0  0  0  0  0  0  0  0  0
  191.8510  174.1900  137.9670 O   0  0  0  0  0  1  0  0  0  0  0  0
  190.3440  177.2750  141.8140 C   0  0  0  0  0  3  0  0  0  0  0  0
  188.2020  176.9450  138.1930 C   0  0  0  0  0  3  0  0  0  0  0  0
  184.6290  172.3550  135.8790 C   0  0  0  0  0  2  0  0  0  0  0  0
  183.5130  172.3030  136.9050 C   0  0  0  0  0  2  0  0  0  0  0  0
  183.4260  170.0250  135.9520 C   0  0  0  0  0  1  0  0  0  0  0  0
  182.6160  171.1190  136.6150 C   0  0  0  0  0  2  0  0  0  0  0  0
  186.1690  177.8860  137.0580 C   0  0  0  0  0  2  0  0  0  0  0  0
  185.8730  178.5600  138.3870 C   0  0  0  0  0  2  0  0  0  0  0  0
  183.6670  177.7850  137.9550 O   0  0  0  0  0  0  0  0  0  0  0  0
  184.4730  178.2500  138.8020 C   0  0  0  0  0  0  0  0  0  0  0  0
  184.0220  178.5190  140.1310 N   0  0  0  0  0  2  0  0  0  0  0  0
  184.9200  179.0070  141.1670 C   0  0  0  0  0  2  0  0  0  0  0  0
  185.7590  177.8840  143.2550 C   0  0  0  0  0  2  0  0  0  0  0  0
  183.7200  179.3330  143.3590 C   0  0  1  0  0  3  0  0  0  0  0  0
  185.2180  179.2620  143.5630 C   0  0  2  0  0  3  0  0  0  0  0  0
  184.5500  178.3980  142.5030 C   0  0  2  0  0  0  0  0  0  0  0  0
  183.0760  178.6040  144.3590 O   0  0  0  0  0  1  0  0  0  0  0  0
  1 21  1  0  0  0  0
  2 20  1  0  0  0  0
  3 17  2  0  0  0  0
  4  6  1  0  0  0  0
  4 18  2  0  0  0  0
  5  4  1  0  0  0  0
  6  2  2  0  0  0  0
  7 10  1  0  0  0  0
  8  3  1  0  0  0  0
  8 13  1  0  0  0  0
  9 16  1  6  0  0  0
  9 11  1  0  0  0  0
  9  5  1  0  0  0  0
 10  6  1  0  0  0  0
 11  7  1  0  0  0  0
 11 19  1  1  0  0  0
 12 20  2  0  0  0  0
 13 14  1  0  0  0  0
 13  1  2  0  0  0  0
 15 14  1  0  0  0  0
 15  7  2  0  0  0  0
 17 14  1  0  0  0  0
 18 12  1  0  0  0  0
 21 10  2  0  0  0  0
 22  3  1  0  0  0  0
 22 23  1  0  0  0  0
 24 25  1  0  0  0  0
 25 23  1  0  0  0  0
 26  1  1  0  0  0  0
 26 27  1  0  0  0  0
 27 29  1  0  0  0  0
 28 29  2  0  0  0  0
 29 30  1  0  0  0  0
 30 31  1  0  0  0  0
 33 34  1  0  0  0  0
 33 36  1  1  0  0  0
 34 32  1  1  0  0  0
 35 31  1  6  0  0  0
 35 32  1  0  0  0  0
 35 33  1  0  0  0  0
 35 34  1  0  0  0  0
M  END
>  <MODEL>
9

>  <REMARK>
 VINA RESULT:      -6.8      4.392      9.810
  Name = 
  8 active torsions:
  status: ('A' for Active; 'I' for Inactive)
    1  A    between atoms: C_1  and  C_33
    2  A    between atoms: C_3  and  C_12
    3  A    between atoms: C_12  and  C_22
    4  A    between atoms: C_16  and  C_26
    5  A    between atoms: C_16  and  N_31
    6  A    between atoms: C_22  and  C_23
    7  A    between atoms: C_24  and  C_34
    8  A    between atoms: C_33  and  C_34
                            x       y       z     vdW  Elec       q    Type
                         _______ _______ _______ _____ _____    ______ ____

>  <TORSDO>
F 8

$$$$
