=
 OpenBabel10222419523D

 50 53  0  0  1  0  0  0  0  0999 V2000
  188.4910  177.1960  145.0690 C   0  0  0  0  0  0  0  0  0  0  0  0
  189.5570  177.3170  145.9730 C   0  0  0  0  0  3  0  0  0  0  0  0
  190.0640  176.7480  143.2760 C   0  0  0  0  0  0  0  0  0  0  0  0
  190.8700  177.1360  145.5340 C   0  0  0  0  0  3  0  0  0  0  0  0
  191.1270  176.8500  144.1920 C   0  0  0  0  0  3  0  0  0  0  0  0
  188.7500  176.9200  143.7240 C   0  0  0  0  0  3  0  0  0  0  0  0
  190.2790  176.4800  141.9190 O   0  0  0  0  0  0  0  0  0  0  0  0
  190.1300  177.4400  140.8700 C   0  0  2  0  0  3  0  0  0  0  0  0
  188.0390  178.6590  140.6010 N   0  0  0  0  0  1  0  0  0  0  0  0
  188.7220  177.4180  140.2880 C   0  0  0  0  0  2  0  0  0  0  0  0
  191.1250  177.2180  139.8170 N   0  0  0  0  0  2  0  0  0  0  0  0
  190.6720  176.1550  138.9170 C   0  0  0  0  0  2  0  0  0  0  0  0
  190.7620  176.5780  137.4560 C   0  0  1  0  0  3  0  0  0  0  0  0
  191.1390  174.6070  135.8210 C   0  0  0  0  0  0  0  0  0  0  0  0
  192.9870  175.5830  136.5920 C   0  0  0  0  0  3  0  0  0  0  0  0
  193.3420  174.5700  135.7880 N   0  0  0  0  0  0  0  0  0  0  0  0
  194.7050  174.1980  135.4720 C   0  0  0  0  0  1  0  0  0  0  0  0
  192.2410  173.9630  135.2960 C   0  0  0  0  0  3  0  0  0  0  0  0
  191.6010  175.6250  136.6420 C   0  0  0  0  0  0  0  0  0  0  0  0
  189.7130  174.2430  135.5660 C   0  0  0  0  0  2  0  0  0  0  0  0
  189.5360  172.7360  135.5540 C   0  0  0  0  0  2  0  0  0  0  0  0
  188.1340  172.4160  135.7530 N   0  0  0  0  0  2  0  0  0  0  0  0
  187.9400  172.2770  137.1350 N   0  0  0  0  0  2  0  0  0  0  0  0
  186.0580  172.8450  136.2120 C   0  0  0  0  0  1  0  0  0  0  0  0
  186.7530  172.8630  137.4240 O   0  0  0  0  0  0  0  0  0  0  0  0
  189.3710  176.7920  136.8580 C   0  0  0  0  0  2  0  0  0  0  0  0
  189.0110  179.2210  137.1550 C   0  0  0  0  0  1  0  0  0  0  0  0
  189.3040  178.1330  136.1460 C   0  0  0  0  0  2  0  0  0  0  0  0
  187.0790  177.3700  145.5240 C   0  0  0  0  0  2  0  0  0  0  0  0
  187.0470  177.9070  146.8770 N   0  0  0  0  0  2  0  0  0  0  0  0
  185.7850  178.6210  147.0370 C   0  0  0  0  0  2  0  0  0  0  0  0
  185.3970  179.2910  145.7250 C   0  0  0  0  0  2  0  0  0  0  0  0
  184.0230  178.9550  145.3600 N   0  0  0  0  0  2  0  0  0  0  0  0
  184.0160  178.5650  143.9520 C   0  0  0  0  0  2  0  0  0  0  0  0
  179.1520  178.5630  144.2090 O   0  0  0  0  0  1  0  0  0  0  0  0
  182.6570  178.4530  141.8320 C   0  0  2  0  0  3  0  0  0  0  0  0
  181.2890  178.6730  141.1630 C   0  0  0  0  0  2  0  0  0  0  0  0
  182.7290  179.0250  143.2610 C   0  0  1  0  0  3  0  0  0  0  0  0
  181.5280  178.5820  144.0940 C   0  0  0  0  0  2  0  0  0  0  0  0
  180.2210  178.9370  143.3950 C   0  0  1  0  0  3  0  0  0  0  0  0
  180.1470  178.2090  142.0610 C   0  0  0  0  0  2  0  0  0  0  0  0
  183.7870  178.9740  140.9350 C   0  0  0  0  0  2  0  0  0  0  0  0
  183.3290  179.4100  139.5370 C   0  0  0  0  0  2  0  0  0  0  0  0
  185.2460  178.2180  138.4420 C   0  0  0  0  0  3  0  0  0  0  0  0
  184.9010  176.7600  136.5560 C   0  0  0  0  0  3  0  0  0  0  0  0
  183.8820  178.5200  138.4600 C   0  0  0  0  0  0  0  0  0  0  0  0
  181.5680  178.1320  137.5110 C   0  0  0  0  0  1  0  0  0  0  0  0
  185.7660  177.3480  137.4820 C   0  0  0  0  0  3  0  0  0  0  0  0
  183.5700  177.0430  136.5940 N   0  0  0  0  0  0  0  0  0  0  0  0
  183.0440  177.9070  137.5070 C   0  0  0  0  0  0  0  0  0  0  0  0
  1 29  1  0  0  0  0
  1  2  1  0  0  0  0
  3  6  1  0  0  0  0
  3  5  2  0  0  0  0
  4  2  2  0  0  0  0
  5  4  1  0  0  0  0
  6  1  2  0  0  0  0
  7  3  1  0  0  0  0
  8 10  1  6  0  0  0
  8  7  1  0  0  0  0
 10  9  1  0  0  0  0
 11  8  1  0  0  0  0
 12 11  1  0  0  0  0
 13 26  1  6  0  0  0
 13 12  1  0  0  0  0
 14 19  1  0  0  0  0
 15 19  2  0  0  0  0
 16 15  1  0  0  0  0
 17 16  1  0  0  0  0
 18 16  1  0  0  0  0
 18 14  2  0  0  0  0
 19 13  1  0  0  0  0
 20 14  1  0  0  0  0
 21 20  1  0  0  0  0
 21 22  1  0  0  0  0
 22 23  1  0  0  0  0
 23 25  1  0  0  0  0
 24 25  1  0  0  0  0
 28 26  1  0  0  0  0
 28 27  1  0  0  0  0
 29 30  1  0  0  0  0
 30 31  1  0  0  0  0
 32 31  1  0  0  0  0
 33 32  1  0  0  0  0
 34 33  1  0  0  0  0
 36 42  1  6  0  0  0
 36 38  1  0  0  0  0
 37 36  1  0  0  0  0
 37 41  1  0  0  0  0
 38 34  1  1  0  0  0
 38 39  1  0  0  0  0
 40 39  1  0  0  0  0
 40 35  1  1  0  0  0
 41 40  1  0  0  0  0
 43 42  1  0  0  0  0
 44 46  1  0  0  0  0
 45 49  2  0  0  0  0
 45 48  1  0  0  0  0
 46 43  1  0  0  0  0
 48 44  2  0  0  0  0
 49 50  1  0  0  0  0
 50 47  1  0  0  0  0
 50 46  2  0  0  0  0
M  END
>  <MODEL>
1

>  <REMARK>
 VINA RESULT:      -6.6      0.000      0.000
  Name = 
  24 active torsions:
  status: ('A' for Active; 'I' for Inactive)
    1  A    between atoms: N_1  and  N_20
    2  A    between atoms: N_1  and  C_41
    3  A    between atoms: C_2  and  N_6
    4  A    between atoms: C_2  and  C_23
    5  A    between atoms: C_2  and  O_49
    6  A    between atoms: C_3  and  C_9
    7  A    between atoms: C_3  and  C_27
    8  A    between atoms: N_6  and  C_32
    9  A    between atoms: N_10  and  C_45
   10  A    between atoms: N_10  and  C_50
   11  A    between atoms: C_11  and  C_37
   12  A    between atoms: C_12  and  C_26
   13  A    between atoms: C_14  and  C_16
   14  A    between atoms: C_14  and  C_32
   15  A    between atoms: C_14  and  C_46
   16  A    between atoms: C_16  and  C_19
   17  A    between atoms: N_20  and  O_21
   18  A    between atoms: C_22  and  O_49
   19  A    between atoms: C_25  and  C_27
   20  A    between atoms: C_26  and  C_41
   21  A    between atoms: C_29  and  C_50
   22  A    between atoms: N_35  and  C_37
   23  A    between atoms: N_35  and  C_42
   24  A    between atoms: C_42  and  C_45
                            x       y       z     vdW  Elec       q    Type
                         _______ _______ _______ _____ _____    ______ ____

>  <TORSDO>
F 24

$$$$
=
 OpenBabel10222419523D

 50 53  0  0  1  0  0  0  0  0999 V2000
  189.9540  176.9610  144.2200 C   0  0  0  0  0  0  0  0  0  0  0  0
  190.4030  177.1510  145.5360 C   0  0  0  0  0  3  0  0  0  0  0  0
  187.6640  177.2810  144.9580 C   0  0  0  0  0  0  0  0  0  0  0  0
  189.4880  177.4240  146.5550 C   0  0  0  0  0  3  0  0  0  0  0  0
  188.1230  177.4920  146.2700 C   0  0  0  0  0  3  0  0  0  0  0  0
  188.5860  177.0180  143.9400 C   0  0  0  0  0  3  0  0  0  0  0  0
  186.3020  177.3240  144.6330 O   0  0  0  0  0  0  0  0  0  0  0  0
  185.6680  178.4040  143.9450 C   0  0  2  0  0  3  0  0  0  0  0  0
  184.5810  178.8720  146.0740 N   0  0  0  0  0  1  0  0  0  0  0  0
  184.3790  178.8280  144.6380 C   0  0  0  0  0  2  0  0  0  0  0  0
  185.4070  178.0490  142.5470 N   0  0  0  0  0  2  0  0  0  0  0  0
  184.3700  178.9220  141.9940 C   0  0  0  0  0  2  0  0  0  0  0  0
  183.7970  178.3630  140.6970 C   0  0  1  0  0  3  0  0  0  0  0  0
  181.5930  177.1040  140.1850 C   0  0  0  0  0  0  0  0  0  0  0  0
  181.3950  178.8980  141.4910 C   0  0  0  0  0  3  0  0  0  0  0  0
  180.1750  178.3750  141.2930 N   0  0  0  0  0  0  0  0  0  0  0  0
  178.9470  178.8940  141.8580 C   0  0  0  0  0  1  0  0  0  0  0  0
  180.2630  177.2780  140.5110 C   0  0  0  0  0  3  0  0  0  0  0  0
  182.3110  178.1240  140.7940 C   0  0  0  0  0  0  0  0  0  0  0  0
  182.1420  176.0260  139.3080 C   0  0  0  0  0  2  0  0  0  0  0  0
  181.0200  175.1960  138.7100 C   0  0  0  0  0  2  0  0  0  0  0  0
  181.2200  175.0840  137.2770 N   0  0  0  0  0  2  0  0  0  0  0  0
  182.4670  174.4730  137.0850 N   0  0  0  0  0  2  0  0  0  0  0  0
  182.3650  172.6950  135.8420 C   0  0  0  0  0  1  0  0  0  0  0  0
  182.2630  173.1360  137.1640 O   0  0  0  0  0  0  0  0  0  0  0  0
  184.1740  179.2420  139.5050 C   0  0  0  0  0  2  0  0  0  0  0  0
  186.2450  178.2880  138.5490 C   0  0  0  0  0  1  0  0  0  0  0  0
  184.7450  178.3920  138.3820 C   0  0  0  0  0  2  0  0  0  0  0  0
  190.9200  176.6840  143.1160 C   0  0  0  0  0  2  0  0  0  0  0  0
  190.2090  176.2860  141.9100 N   0  0  0  0  0  2  0  0  0  0  0  0
  190.6670  177.1450  140.8250 C   0  0  0  0  0  2  0  0  0  0  0  0
  190.5560  176.4070  139.4960 C   0  0  0  0  0  2  0  0  0  0  0  0
  191.5420  176.9110  138.5420 N   0  0  0  0  0  2  0  0  0  0  0  0
  191.4820  176.0690  137.3500 C   0  0  0  0  0  2  0  0  0  0  0  0
  196.1830  174.8130  137.5850 O   0  0  0  0  0  1  0  0  0  0  0  0
  192.2520  173.9200  136.2810 C   0  0  2  0  0  3  0  0  0  0  0  0
  193.3480  172.8440  136.1910 C   0  0  0  0  0  2  0  0  0  0  0  0
  192.4560  174.8920  137.4590 C   0  0  1  0  0  3  0  0  0  0  0  0
  193.8860  175.4270  137.4910 C   0  0  0  0  0  2  0  0  0  0  0  0
  194.8940  174.2850  137.5040 C   0  0  1  0  0  3  0  0  0  0  0  0
  194.7420  173.4610  136.2340 C   0  0  0  0  0  2  0  0  0  0  0  0
  190.8600  173.2740  136.2880 C   0  0  0  0  0  2  0  0  0  0  0  0
  189.8130  174.0300  135.4600 C   0  0  0  0  0  2  0  0  0  0  0  0
  187.9720  172.7060  136.5350 C   0  0  0  0  0  3  0  0  0  0  0  0
  185.9590  173.7700  137.3210 C   0  0  0  0  0  3  0  0  0  0  0  0
  188.4410  173.9360  136.0660 C   0  0  0  0  0  0  0  0  0  0  0  0
  188.1050  176.4350  135.8400 C   0  0  0  0  0  1  0  0  0  0  0  0
  186.7230  172.6130  137.1520 C   0  0  0  0  0  3  0  0  0  0  0  0
  186.4320  174.9680  136.8800 N   0  0  0  0  0  0  0  0  0  0  0  0
  187.6380  175.0790  136.2550 C   0  0  0  0  0  0  0  0  0  0  0  0
  1  2  1  0  0  0  0
  2  4  2  0  0  0  0
  3  5  2  0  0  0  0
  5  4  1  0  0  0  0
  6  1  2  0  0  0  0
  6  3  1  0  0  0  0
  7  3  1  0  0  0  0
  8  7  1  0  0  0  0
  8 10  1  1  0  0  0
 10  9  1  0  0  0  0
 11  8  1  0  0  0  0
 12 11  1  0  0  0  0
 13 26  1  6  0  0  0
 13 19  1  0  0  0  0
 13 12  1  0  0  0  0
 14 18  2  0  0  0  0
 14 19  1  0  0  0  0
 16 15  1  0  0  0  0
 16 17  1  0  0  0  0
 18 16  1  0  0  0  0
 19 15  2  0  0  0  0
 20 14  1  0  0  0  0
 21 20  1  0  0  0  0
 22 21  1  0  0  0  0
 23 25  1  0  0  0  0
 23 22  1  0  0  0  0
 24 25  1  0  0  0  0
 28 27  1  0  0  0  0
 28 26  1  0  0  0  0
 29  1  1  0  0  0  0
 30 29  1  0  0  0  0
 31 30  1  0  0  0  0
 32 31  1  0  0  0  0
 33 32  1  0  0  0  0
 34 33  1  0  0  0  0
 36 42  1  1  0  0  0
 36 38  1  0  0  0  0
 37 41  1  0  0  0  0
 37 36  1  0  0  0  0
 38 34  1  6  0  0  0
 38 39  1  0  0  0  0
 39 40  1  0  0  0  0
 40 35  1  6  0  0  0
 41 40  1  0  0  0  0
 43 46  1  0  0  0  0
 43 42  1  0  0  0  0
 44 48  1  0  0  0  0
 46 50  1  0  0  0  0
 46 44  2  0  0  0  0
 47 50  1  0  0  0  0
 48 45  2  0  0  0  0
 49 45  1  0  0  0  0
 50 49  2  0  0  0  0
M  END
>  <MODEL>
2

>  <REMARK>
 VINA RESULT:      -6.4      2.309      9.167
  Name = 
  24 active torsions:
  status: ('A' for Active; 'I' for Inactive)
    1  A    between atoms: N_1  and  N_20
    2  A    between atoms: N_1  and  C_41
    3  A    between atoms: C_2  and  N_6
    4  A    between atoms: C_2  and  C_23
    5  A    between atoms: C_2  and  O_49
    6  A    between atoms: C_3  and  C_9
    7  A    between atoms: C_3  and  C_27
    8  A    between atoms: N_6  and  C_32
    9  A    between atoms: N_10  and  C_45
   10  A    between atoms: N_10  and  C_50
   11  A    between atoms: C_11  and  C_37
   12  A    between atoms: C_12  and  C_26
   13  A    between atoms: C_14  and  C_16
   14  A    between atoms: C_14  and  C_32
   15  A    between atoms: C_14  and  C_46
   16  A    between atoms: C_16  and  C_19
   17  A    between atoms: N_20  and  O_21
   18  A    between atoms: C_22  and  O_49
   19  A    between atoms: C_25  and  C_27
   20  A    between atoms: C_26  and  C_41
   21  A    between atoms: C_29  and  C_50
   22  A    between atoms: N_35  and  C_37
   23  A    between atoms: N_35  and  C_42
   24  A    between atoms: C_42  and  C_45
                            x       y       z     vdW  Elec       q    Type
                         _______ _______ _______ _____ _____    ______ ____

>  <TORSDO>
F 24

$$$$
=
 OpenBabel10222419523D

 50 53  0  0  1  0  0  0  0  0999 V2000
  184.7350  178.9350  142.6610 C   0  0  0  0  0  0  0  0  0  0  0  0
  184.7990  178.9670  144.0620 C   0  0  0  0  0  3  0  0  0  0  0  0
  182.3160  178.7670  142.7760 C   0  0  0  0  0  0  0  0  0  0  0  0
  183.6250  178.9190  144.8170 C   0  0  0  0  0  3  0  0  0  0  0  0
  182.3860  178.8220  144.1800 C   0  0  0  0  0  3  0  0  0  0  0  0
  183.4950  178.8270  142.0250 C   0  0  0  0  0  3  0  0  0  0  0  0
  181.0960  178.6530  142.0990 O   0  0  0  0  0  0  0  0  0  0  0  0
  180.5790  179.6300  141.1920 C   0  0  2  0  0  3  0  0  0  0  0  0
  179.2310  181.6580  141.1310 N   0  0  0  0  0  1  0  0  0  0  0  0
  179.3930  180.3760  141.7910 C   0  0  0  0  0  2  0  0  0  0  0  0
  180.2070  179.0110  139.9170 N   0  0  0  0  0  2  0  0  0  0  0  0
  181.3750  178.9390  139.0360 C   0  0  0  0  0  2  0  0  0  0  0  0
  181.0370  178.2740  137.7070 C   0  0  1  0  0  3  0  0  0  0  0  0
  181.9470  175.8920  137.2620 C   0  0  0  0  0  0  0  0  0  0  0  0
  180.0780  175.9970  138.4700 C   0  0  0  0  0  3  0  0  0  0  0  0
  180.4070  174.7070  138.2990 N   0  0  0  0  0  0  0  0  0  0  0  0
  179.6660  173.5840  138.8340 C   0  0  0  0  0  1  0  0  0  0  0  0
  181.5420  174.6110  137.5770 C   0  0  0  0  0  3  0  0  0  0  0  0
  181.0260  176.7700  137.8150 C   0  0  0  0  0  0  0  0  0  0  0  0
  183.1450  176.2520  136.4430 C   0  0  0  0  0  2  0  0  0  0  0  0
  184.2910  175.2970  136.7200 C   0  0  0  0  0  2  0  0  0  0  0  0
  184.4070  174.3570  135.6200 N   0  0  0  0  0  2  0  0  0  0  0  0
  185.6660  173.7500  135.7340 N   0  0  0  0  0  2  0  0  0  0  0  0
  186.9660  172.7430  137.1520 C   0  0  0  0  0  1  0  0  0  0  0  0
  185.6230  172.9650  136.8370 O   0  0  0  0  0  0  0  0  0  0  0  0
  179.7350  178.8300  137.1290 C   0  0  0  0  0  2  0  0  0  0  0  0
  180.8330  179.7170  135.0990 C   0  0  0  0  0  1  0  0  0  0  0  0
  180.0130  180.0830  136.3160 C   0  0  0  0  0  2  0  0  0  0  0  0
  185.9800  179.0020  141.8370 C   0  0  0  0  0  2  0  0  0  0  0  0
  185.6460  179.1470  140.4280 N   0  0  0  0  0  2  0  0  0  0  0  0
  186.6900  178.4810  139.6580 C   0  0  0  0  0  2  0  0  0  0  0  0
  186.1680  178.1270  138.2710 C   0  0  0  0  0  2  0  0  0  0  0  0
  187.2750  177.8650  137.3540 N   0  0  0  0  0  2  0  0  0  0  0  0
  188.4430  178.5910  137.8430 C   0  0  0  0  0  2  0  0  0  0  0  0
  190.7090  175.3480  135.0020 O   0  0  0  0  0  1  0  0  0  0  0  0
  189.9350  176.8490  138.8870 C   0  0  2  0  0  3  0  0  0  0  0  0
  191.0590  175.8190  138.6780 C   0  0  0  0  0  2  0  0  0  0  0  0
  189.7190  177.7630  137.6660 C   0  0  1  0  0  3  0  0  0  0  0  0
  189.6110  176.9470  136.3800 C   0  0  0  0  0  2  0  0  0  0  0  0
  190.8200  176.0360  136.2100 C   0  0  1  0  0  3  0  0  0  0  0  0
  190.8790  175.0530  137.3720 C   0  0  0  0  0  2  0  0  0  0  0  0
  190.1640  177.6430  140.1810 C   0  0  0  0  0  2  0  0  0  0  0  0
  190.5610  176.7800  141.3860 C   0  0  0  0  0  2  0  0  0  0  0  0
  188.4980  176.4060  142.7650 C   0  0  0  0  0  3  0  0  0  0  0  0
  188.1980  177.5000  144.8900 C   0  0  0  0  0  3  0  0  0  0  0  0
  189.7130  177.0730  142.5920 C   0  0  0  0  0  0  0  0  0  0  0  0
  191.4710  178.6420  143.5170 C   0  0  0  0  0  1  0  0  0  0  0  0
  187.7260  176.6260  143.9080 C   0  0  0  0  0  3  0  0  0  0  0  0
  189.3930  178.1300  144.7230 N   0  0  0  0  0  0  0  0  0  0  0  0
  190.1520  177.9480  143.6060 C   0  0  0  0  0  0  0  0  0  0  0  0
  1  2  1  0  0  0  0
  2  4  2  0  0  0  0
  3  5  2  0  0  0  0
  5  4  1  0  0  0  0
  6  1  2  0  0  0  0
  6  3  1  0  0  0  0
  7  3  1  0  0  0  0
  8 10  1  1  0  0  0
  8  7  1  0  0  0  0
  9 10  1  0  0  0  0
 11  8  1  0  0  0  0
 12 11  1  0  0  0  0
 13 26  1  1  0  0  0
 13 19  1  0  0  0  0
 13 12  1  0  0  0  0
 14 18  2  0  0  0  0
 14 19  1  0  0  0  0
 16 15  1  0  0  0  0
 16 17  1  0  0  0  0
 18 16  1  0  0  0  0
 19 15  2  0  0  0  0
 20 21  1  0  0  0  0
 20 14  1  0  0  0  0
 22 23  1  0  0  0  0
 22 21  1  0  0  0  0
 23 25  1  0  0  0  0
 25 24  1  0  0  0  0
 27 28  1  0  0  0  0
 28 26  1  0  0  0  0
 29  1  1  0  0  0  0
 30 29  1  0  0  0  0
 31 30  1  0  0  0  0
 32 31  1  0  0  0  0
 33 34  1  0  0  0  0
 33 32  1  0  0  0  0
 36 42  1  1  0  0  0
 37 36  1  0  0  0  0
 38 34  1  1  0  0  0
 38 36  1  0  0  0  0
 39 38  1  0  0  0  0
 40 35  1  6  0  0  0
 40 39  1  0  0  0  0
 40 41  1  0  0  0  0
 41 37  1  0  0  0  0
 42 43  1  0  0  0  0
 43 46  1  0  0  0  0
 44 48  1  0  0  0  0
 46 44  2  0  0  0  0
 46 50  1  0  0  0  0
 47 50  1  0  0  0  0
 48 45  2  0  0  0  0
 49 45  1  0  0  0  0
 50 49  2  0  0  0  0
M  END
>  <MODEL>
3

>  <REMARK>
 VINA RESULT:      -6.3      2.519      9.087
  Name = 
  24 active torsions:
  status: ('A' for Active; 'I' for Inactive)
    1  A    between atoms: N_1  and  N_20
    2  A    between atoms: N_1  and  C_41
    3  A    between atoms: C_2  and  N_6
    4  A    between atoms: C_2  and  C_23
    5  A    between atoms: C_2  and  O_49
    6  A    between atoms: C_3  and  C_9
    7  A    between atoms: C_3  and  C_27
    8  A    between atoms: N_6  and  C_32
    9  A    between atoms: N_10  and  C_45
   10  A    between atoms: N_10  and  C_50
   11  A    between atoms: C_11  and  C_37
   12  A    between atoms: C_12  and  C_26
   13  A    between atoms: C_14  and  C_16
   14  A    between atoms: C_14  and  C_32
   15  A    between atoms: C_14  and  C_46
   16  A    between atoms: C_16  and  C_19
   17  A    between atoms: N_20  and  O_21
   18  A    between atoms: C_22  and  O_49
   19  A    between atoms: C_25  and  C_27
   20  A    between atoms: C_26  and  C_41
   21  A    between atoms: C_29  and  C_50
   22  A    between atoms: N_35  and  C_37
   23  A    between atoms: N_35  and  C_42
   24  A    between atoms: C_42  and  C_45
                            x       y       z     vdW  Elec       q    Type
                         _______ _______ _______ _____ _____    ______ ____

>  <TORSDO>
F 24

$$$$
=
 OpenBabel10222419523D

 50 53  0  0  1  0  0  0  0  0999 V2000
  184.6970  178.5100  143.1590 C   0  0  0  0  0  0  0  0  0  0  0  0
  184.3110  178.7190  144.4910 C   0  0  0  0  0  3  0  0  0  0  0  0
  182.3920  178.7870  142.4490 C   0  0  0  0  0  0  0  0  0  0  0  0
  182.9740  178.9800  144.7990 C   0  0  0  0  0  3  0  0  0  0  0  0
  182.0160  179.0170  143.7840 C   0  0  0  0  0  3  0  0  0  0  0  0
  183.7350  178.5360  142.1460 C   0  0  0  0  0  3  0  0  0  0  0  0
  181.4610  178.7980  141.4040 O   0  0  0  0  0  0  0  0  0  0  0  0
  181.3140  179.8640  140.4630 C   0  0  2  0  0  3  0  0  0  0  0  0
  179.6670  181.0020  141.8510 N   0  0  0  0  0  1  0  0  0  0  0  0
  179.9180  180.4740  140.5230 C   0  0  0  0  0  2  0  0  0  0  0  0
  181.6150  179.4040  139.1040 N   0  0  0  0  0  2  0  0  0  0  0  0
  182.9060  178.7120  139.0860 C   0  0  0  0  0  2  0  0  0  0  0  0
  182.8290  177.3990  138.3170 C   0  0  1  0  0  3  0  0  0  0  0  0
  183.8300  176.6430  136.0520 C   0  0  0  0  0  0  0  0  0  0  0  0
  185.2030  177.7960  137.3740 C   0  0  0  0  0  3  0  0  0  0  0  0
  185.8680  177.4520  136.2600 N   0  0  0  0  0  0  0  0  0  0  0  0
  187.2450  177.7970  135.9750 C   0  0  0  0  0  1  0  0  0  0  0  0
  185.0580  176.7580  135.4330 C   0  0  0  0  0  3  0  0  0  0  0  0
  183.9160  177.2890  137.2770 C   0  0  0  0  0  0  0  0  0  0  0  0
  182.6410  175.9220  135.5040 C   0  0  0  0  0  2  0  0  0  0  0  0
  182.9460  174.4480  135.3150 C   0  0  0  0  0  2  0  0  0  0  0  0
  183.1520  173.8320  136.6140 N   0  0  0  0  0  2  0  0  0  0  0  0
  184.4270  173.2490  136.5910 N   0  0  0  0  0  2  0  0  0  0  0  0
  183.2830  171.4520  137.0090 C   0  0  0  0  0  1  0  0  0  0  0  0
  184.3890  172.1910  137.4360 O   0  0  0  0  0  0  0  0  0  0  0  0
  182.8060  176.2030  139.2700 C   0  0  0  0  0  2  0  0  0  0  0  0
  180.5370  175.7660  138.3890 C   0  0  0  0  0  1  0  0  0  0  0  0
  181.3750  175.8560  139.6450 C   0  0  0  0  0  2  0  0  0  0  0  0
  186.1250  178.2460  142.8100 C   0  0  0  0  0  2  0  0  0  0  0  0
  186.3080  178.2850  141.3660 N   0  0  0  0  0  2  0  0  0  0  0  0
  187.6760  178.7180  141.1080 C   0  0  0  0  0  2  0  0  0  0  0  0
  188.0120  178.5280  139.6340 C   0  0  0  0  0  2  0  0  0  0  0  0
  188.4010  177.1450  139.3680 N   0  0  0  0  0  2  0  0  0  0  0  0
  189.3880  176.7550  140.3710 C   0  0  0  0  0  2  0  0  0  0  0  0
  193.0610  176.4490  137.1880 O   0  0  0  0  0  1  0  0  0  0  0  0
  191.7590  177.0460  141.1740 C   0  0  2  0  0  3  0  0  0  0  0  0
  193.2220  177.3380  140.7990 C   0  0  0  0  0  2  0  0  0  0  0  0
  190.7770  177.2910  140.0130 C   0  0  1  0  0  3  0  0  0  0  0  0
  191.2590  176.6130  138.7320 C   0  0  0  0  0  2  0  0  0  0  0  0
  192.6780  177.0470  138.3880 C   0  0  1  0  0  3  0  0  0  0  0  0
  193.6200  176.6300  139.5080 C   0  0  0  0  0  2  0  0  0  0  0  0
  191.3650  177.8090  142.4460 C   0  0  0  0  0  2  0  0  0  0  0  0
  191.7000  177.0730  143.7500 C   0  0  0  0  0  2  0  0  0  0  0  0
  189.3900  177.7910  144.4180 C   0  0  0  0  0  3  0  0  0  0  0  0
  188.5570  177.4110  146.6450 C   0  0  0  0  0  3  0  0  0  0  0  0
  190.6190  177.2350  144.7810 C   0  0  0  0  0  0  0  0  0  0  0  0
  192.0420  176.0930  146.5360 C   0  0  0  0  0  1  0  0  0  0  0  0
  188.3570  177.8960  145.3510 C   0  0  0  0  0  3  0  0  0  0  0  0
  189.7500  176.8510  146.9850 N   0  0  0  0  0  0  0  0  0  0  0  0
  190.7800  176.7600  146.0980 C   0  0  0  0  0  0  0  0  0  0  0  0
  1  2  1  0  0  0  0
  2  4  2  0  0  0  0
  3  5  2  0  0  0  0
  5  4  1  0  0  0  0
  6  3  1  0  0  0  0
  6  1  2  0  0  0  0
  7  3  1  0  0  0  0
  8 10  1  6  0  0  0
  8  7  1  0  0  0  0
 10  9  1  0  0  0  0
 11  8  1  0  0  0  0
 12 11  1  0  0  0  0
 13 12  1  1  0  0  0
 13 26  1  0  0  0  0
 14 19  1  0  0  0  0
 16 15  1  0  0  0  0
 17 16  1  0  0  0  0
 18 14  2  0  0  0  0
 18 16  1  0  0  0  0
 19 15  2  0  0  0  0
 19 13  1  0  0  0  0
 20 14  1  0  0  0  0
 21 20  1  0  0  0  0
 21 22  1  0  0  0  0
 23 22  1  0  0  0  0
 23 25  1  0  0  0  0
 24 25  1  0  0  0  0
 26 28  1  0  0  0  0
 27 28  1  0  0  0  0
 29  1  1  0  0  0  0
 30 29  1  0  0  0  0
 31 30  1  0  0  0  0
 32 31  1  0  0  0  0
 33 32  1  0  0  0  0
 33 34  1  0  0  0  0
 36 42  1  1  0  0  0
 37 36  1  0  0  0  0
 38 34  1  1  0  0  0
 38 36  1  0  0  0  0
 39 38  1  0  0  0  0
 40 35  1  6  0  0  0
 40 39  1  0  0  0  0
 40 41  1  0  0  0  0
 41 37  1  0  0  0  0
 42 43  1  0  0  0  0
 43 46  1  0  0  0  0
 44 46  2  0  0  0  0
 44 48  1  0  0  0  0
 45 49  1  0  0  0  0
 46 50  1  0  0  0  0
 48 45  2  0  0  0  0
 50 47  1  0  0  0  0
 50 49  2  0  0  0  0
M  END
>  <MODEL>
4

>  <REMARK>
 VINA RESULT:      -6.3      2.667      8.771
  Name = 
  24 active torsions:
  status: ('A' for Active; 'I' for Inactive)
    1  A    between atoms: N_1  and  N_20
    2  A    between atoms: N_1  and  C_41
    3  A    between atoms: C_2  and  N_6
    4  A    between atoms: C_2  and  C_23
    5  A    between atoms: C_2  and  O_49
    6  A    between atoms: C_3  and  C_9
    7  A    between atoms: C_3  and  C_27
    8  A    between atoms: N_6  and  C_32
    9  A    between atoms: N_10  and  C_45
   10  A    between atoms: N_10  and  C_50
   11  A    between atoms: C_11  and  C_37
   12  A    between atoms: C_12  and  C_26
   13  A    between atoms: C_14  and  C_16
   14  A    between atoms: C_14  and  C_32
   15  A    between atoms: C_14  and  C_46
   16  A    between atoms: C_16  and  C_19
   17  A    between atoms: N_20  and  O_21
   18  A    between atoms: C_22  and  O_49
   19  A    between atoms: C_25  and  C_27
   20  A    between atoms: C_26  and  C_41
   21  A    between atoms: C_29  and  C_50
   22  A    between atoms: N_35  and  C_37
   23  A    between atoms: N_35  and  C_42
   24  A    between atoms: C_42  and  C_45
                            x       y       z     vdW  Elec       q    Type
                         _______ _______ _______ _____ _____    ______ ____

>  <TORSDO>
F 24

$$$$
=
 OpenBabel10222419523D

 50 53  0  0  1  0  0  0  0  0999 V2000
  184.4570  179.0230  144.5360 C   0  0  0  0  0  0  0  0  0  0  0  0
  184.1210  178.8290  145.8840 C   0  0  0  0  0  3  0  0  0  0  0  0
  186.6510  178.0700  144.9480 C   0  0  0  0  0  0  0  0  0  0  0  0
  185.0390  178.2390  146.7560 C   0  0  0  0  0  3  0  0  0  0  0  0
  186.3000  177.8580  146.2930 C   0  0  0  0  0  3  0  0  0  0  0  0
  185.7230  178.6510  144.0770 C   0  0  0  0  0  3  0  0  0  0  0  0
  187.9110  177.7180  144.4470 O   0  0  0  0  0  0  0  0  0  0  0  0
  188.7940  176.7780  145.0640 C   0  0  2  0  0  3  0  0  0  0  0  0
  189.5040  176.8250  147.3930 N   0  0  0  0  0  1  0  0  0  0  0  0
  189.6900  177.4500  146.0980 C   0  0  0  0  0  2  0  0  0  0  0  0
  189.6010  176.0840  144.0570 N   0  0  0  0  0  2  0  0  0  0  0  0
  189.1730  176.4800  142.7130 C   0  0  0  0  0  2  0  0  0  0  0  0
  190.3600  176.6530  141.7730 C   0  0  1  0  0  3  0  0  0  0  0  0
  190.7190  177.1770  139.2640 C   0  0  0  0  0  0  0  0  0  0  0  0
  188.6800  177.6030  140.0530 C   0  0  0  0  0  3  0  0  0  0  0  0
  188.7200  177.9510  138.7570 N   0  0  0  0  0  0  0  0  0  0  0  0
  187.6060  178.4960  138.0090 C   0  0  0  0  0  1  0  0  0  0  0  0
  189.9430  177.6960  138.2470 C   0  0  0  0  0  3  0  0  0  0  0  0
  189.9320  177.1220  140.4050 C   0  0  0  0  0  0  0  0  0  0  0  0
  192.1560  176.7810  139.1490 C   0  0  0  0  0  2  0  0  0  0  0  0
  192.3740  175.8940  137.9370 C   0  0  0  0  0  2  0  0  0  0  0  0
  191.5260  174.7210  138.0450 N   0  0  0  0  0  2  0  0  0  0  0  0
  190.9100  174.5460  136.7980 N   0  0  0  0  0  2  0  0  0  0  0  0
  189.1050  173.3420  136.8670 C   0  0  0  0  0  1  0  0  0  0  0  0
  190.4940  173.2580  136.7440 O   0  0  0  0  0  0  0  0  0  0  0  0
  191.4280  177.5540  142.3950 C   0  0  0  0  0  2  0  0  0  0  0  0
  191.6070  179.4180  144.0100 C   0  0  0  0  0  1  0  0  0  0  0  0
  190.8110  178.8660  142.8480 C   0  0  0  0  0  2  0  0  0  0  0  0
  183.4820  179.6360  143.5850 C   0  0  0  0  0  2  0  0  0  0  0  0
  182.5220  178.6400  143.1340 N   0  0  0  0  0  2  0  0  0  0  0  0
  181.3290  178.7720  143.9610 C   0  0  0  0  0  2  0  0  0  0  0  0
  180.0840  178.7770  143.0820 C   0  0  0  0  0  2  0  0  0  0  0  0
  180.0970  179.9210  142.1740 N   0  0  0  0  0  2  0  0  0  0  0  0
  179.5110  179.4940  140.9070 C   0  0  0  0  0  2  0  0  0  0  0  0
  181.3600  182.8100  137.8550 O   0  0  0  0  0  1  0  0  0  0  0  0
  180.1050  178.8240  138.5510 C   0  0  2  0  0  3  0  0  0  0  0  0
  180.8890  179.1640  137.2710 C   0  0  0  0  0  2  0  0  0  0  0  0
  180.4860  179.7170  139.7470 C   0  0  1  0  0  3  0  0  0  0  0  0
  180.4720  181.1940  139.3590 C   0  0  0  0  0  2  0  0  0  0  0  0
  181.3590  181.4460  138.1450 C   0  0  1  0  0  3  0  0  0  0  0  0
  180.8280  180.6550  136.9580 C   0  0  0  0  0  2  0  0  0  0  0  0
  180.2230  177.3280  138.8750 C   0  0  0  0  0  2  0  0  0  0  0  0
  181.4980  176.9500  139.6410 C   0  0  0  0  0  2  0  0  0  0  0  0
  182.3430  175.1480  138.1120 C   0  0  0  0  0  3  0  0  0  0  0  0
  184.4320  175.3810  136.9380 C   0  0  0  0  0  3  0  0  0  0  0  0
  182.5520  176.3830  138.7330 C   0  0  0  0  0  0  0  0  0  0  0  0
  183.9770  178.4580  138.9930 C   0  0  0  0  0  1  0  0  0  0  0  0
  183.2880  174.6340  137.2220 C   0  0  0  0  0  3  0  0  0  0  0  0
  184.6190  176.5930  137.5300 N   0  0  0  0  0  0  0  0  0  0  0  0
  183.7220  177.1040  138.4190 C   0  0  0  0  0  0  0  0  0  0  0  0
  1  2  1  0  0  0  0
  2  4  2  0  0  0  0
  3  5  2  0  0  0  0
  5  4  1  0  0  0  0
  6  1  2  0  0  0  0
  6  3  1  0  0  0  0
  7  3  1  0  0  0  0
  7  8  1  0  0  0  0
  8 10  1  1  0  0  0
 10  9  1  0  0  0  0
 11  8  1  0  0  0  0
 12 11  1  0  0  0  0
 13 26  1  1  0  0  0
 13 12  1  0  0  0  0
 14 19  1  0  0  0  0
 15 19  2  0  0  0  0
 16 15  1  0  0  0  0
 17 16  1  0  0  0  0
 18 16  1  0  0  0  0
 18 14  2  0  0  0  0
 19 13  1  0  0  0  0
 20 14  1  0  0  0  0
 21 22  1  0  0  0  0
 21 20  1  0  0  0  0
 23 22  1  0  0  0  0
 25 23  1  0  0  0  0
 25 24  1  0  0  0  0
 26 28  1  0  0  0  0
 28 27  1  0  0  0  0
 29  1  1  0  0  0  0
 30 29  1  0  0  0  0
 30 31  1  0  0  0  0
 32 31  1  0  0  0  0
 33 32  1  0  0  0  0
 34 33  1  0  0  0  0
 36 42  1  1  0  0  0
 36 38  1  0  0  0  0
 37 36  1  0  0  0  0
 38 34  1  1  0  0  0
 39 38  1  0  0  0  0
 40 35  1  6  0  0  0
 40 39  1  0  0  0  0
 41 37  1  0  0  0  0
 41 40  1  0  0  0  0
 42 43  1  0  0  0  0
 44 46  1  0  0  0  0
 45 48  1  0  0  0  0
 45 49  2  0  0  0  0
 46 43  1  0  0  0  0
 48 44  2  0  0  0  0
 49 50  1  0  0  0  0
 50 46  2  0  0  0  0
 50 47  1  0  0  0  0
M  END
>  <MODEL>
5

>  <REMARK>
 VINA RESULT:      -6.2      2.406      5.017
  Name = 
  24 active torsions:
  status: ('A' for Active; 'I' for Inactive)
    1  A    between atoms: N_1  and  N_20
    2  A    between atoms: N_1  and  C_41
    3  A    between atoms: C_2  and  N_6
    4  A    between atoms: C_2  and  C_23
    5  A    between atoms: C_2  and  O_49
    6  A    between atoms: C_3  and  C_9
    7  A    between atoms: C_3  and  C_27
    8  A    between atoms: N_6  and  C_32
    9  A    between atoms: N_10  and  C_45
   10  A    between atoms: N_10  and  C_50
   11  A    between atoms: C_11  and  C_37
   12  A    between atoms: C_12  and  C_26
   13  A    between atoms: C_14  and  C_16
   14  A    between atoms: C_14  and  C_32
   15  A    between atoms: C_14  and  C_46
   16  A    between atoms: C_16  and  C_19
   17  A    between atoms: N_20  and  O_21
   18  A    between atoms: C_22  and  O_49
   19  A    between atoms: C_25  and  C_27
   20  A    between atoms: C_26  and  C_41
   21  A    between atoms: C_29  and  C_50
   22  A    between atoms: N_35  and  C_37
   23  A    between atoms: N_35  and  C_42
   24  A    between atoms: C_42  and  C_45
                            x       y       z     vdW  Elec       q    Type
                         _______ _______ _______ _____ _____    ______ ____

>  <TORSDO>
F 24

$$$$
=
 OpenBabel10222419523D

 50 53  0  0  1  0  0  0  0  0999 V2000
  184.9490  178.5000  143.1940 C   0  0  0  0  0  0  0  0  0  0  0  0
  184.9670  178.7340  144.5770 C   0  0  0  0  0  3  0  0  0  0  0  0
  182.5300  178.7000  143.1940 C   0  0  0  0  0  0  0  0  0  0  0  0
  183.7730  178.9690  145.2630 C   0  0  0  0  0  3  0  0  0  0  0  0
  182.5570  178.9550  144.5770 C   0  0  0  0  0  3  0  0  0  0  0  0
  183.7300  178.4760  142.5110 C   0  0  0  0  0  3  0  0  0  0  0  0
  181.3310  178.6600  142.4720 O   0  0  0  0  0  0  0  0  0  0  0  0
  181.0810  179.4060  141.2780 C   0  0  2  0  0  3  0  0  0  0  0  0
  179.7040  181.1810  140.3370 N   0  0  0  0  0  1  0  0  0  0  0  0
  179.7470  180.1400  141.3470 C   0  0  0  0  0  2  0  0  0  0  0  0
  181.1270  178.5330  140.1010 N   0  0  0  0  0  2  0  0  0  0  0  0
  182.2520  178.9110  139.2420 C   0  0  0  0  0  2  0  0  0  0  0  0
  182.0890  178.3650  137.8290 C   0  0  1  0  0  3  0  0  0  0  0  0
  182.9860  175.9600  137.4870 C   0  0  0  0  0  0  0  0  0  0  0  0
  180.8500  176.1120  138.1030 C   0  0  0  0  0  3  0  0  0  0  0  0
  181.1580  174.8160  137.9380 N   0  0  0  0  0  0  0  0  0  0  0  0
  180.2440  173.7130  138.1460 C   0  0  0  0  0  1  0  0  0  0  0  0
  182.4510  174.6910  137.5720 C   0  0  0  0  0  3  0  0  0  0  0  0
  181.9820  176.8600  137.8140 C   0  0  0  0  0  0  0  0  0  0  0  0
  184.3860  176.2910  137.0830 C   0  0  0  0  0  2  0  0  0  0  0  0
  185.0480  175.1020  136.4120 C   0  0  0  0  0  2  0  0  0  0  0  0
  186.3180  174.8320  137.0620 N   0  0  0  0  0  2  0  0  0  0  0  0
  187.3020  174.8680  136.0630 N   0  0  0  0  0  2  0  0  0  0  0  0
  188.5860  173.2770  136.7930 C   0  0  0  0  0  1  0  0  0  0  0  0
  188.4910  174.6660  136.6790 O   0  0  0  0  0  0  0  0  0  0  0  0
  180.9250  179.0440  137.1080 C   0  0  0  0  0  2  0  0  0  0  0  0
  180.6050  181.1110  135.7890 C   0  0  0  0  0  1  0  0  0  0  0  0
  181.1190  180.5510  137.0970 C   0  0  0  0  0  2  0  0  0  0  0  0
  186.2180  178.2640  142.4420 C   0  0  0  0  0  2  0  0  0  0  0  0
  186.0490  178.6230  141.0420 N   0  0  0  0  0  2  0  0  0  0  0  0
  187.3690  178.6060  140.4220 C   0  0  0  0  0  2  0  0  0  0  0  0
  187.2630  178.1080  138.9860 C   0  0  0  0  0  2  0  0  0  0  0  0
  188.4170  177.2820  138.6390 N   0  0  0  0  0  2  0  0  0  0  0  0
  189.0260  176.8190  139.8820 C   0  0  0  0  0  2  0  0  0  0  0  0
  193.5690  176.9110  138.1270 O   0  0  0  0  0  1  0  0  0  0  0  0
  190.9690  177.0810  141.4670 C   0  0  2  0  0  3  0  0  0  0  0  0
  192.4540  177.4410  141.6390 C   0  0  0  0  0  2  0  0  0  0  0  0
  190.4230  177.4180  140.0660 C   0  0  1  0  0  3  0  0  0  0  0  0
  191.3450  176.8820  138.9720 C   0  0  0  0  0  2  0  0  0  0  0  0
  192.7720  177.3790  139.1710 C   0  0  1  0  0  3  0  0  0  0  0  0
  193.3020  176.8730  140.5050 C   0  0  0  0  0  2  0  0  0  0  0  0
  190.1280  177.7060  142.5890 C   0  0  0  0  0  2  0  0  0  0  0  0
  190.8950  177.9290  143.8980 C   0  0  0  0  0  2  0  0  0  0  0  0
  188.7040  178.0360  145.1160 C   0  0  0  0  0  3  0  0  0  0  0  0
  188.4180  177.0010  147.2720 C   0  0  0  0  0  3  0  0  0  0  0  0
  190.0450  177.6450  145.1050 C   0  0  0  0  0  0  0  0  0  0  0  0
  191.9460  176.4060  146.2250 C   0  0  0  0  0  1  0  0  0  0  0  0
  187.8860  177.7290  146.2060 C   0  0  0  0  0  3  0  0  0  0  0  0
  189.7200  176.6060  147.2430 N   0  0  0  0  0  0  0  0  0  0  0  0
  190.5420  176.9130  146.2020 C   0  0  0  0  0  0  0  0  0  0  0  0
  1  2  1  0  0  0  0
  2  4  2  0  0  0  0
  3  5  2  0  0  0  0
  5  4  1  0  0  0  0
  6  3  1  0  0  0  0
  6  1  2  0  0  0  0
  7  3  1  0  0  0  0
  8 10  1  1  0  0  0
  8  7  1  0  0  0  0
  9 10  1  0  0  0  0
 11  8  1  0  0  0  0
 12 11  1  0  0  0  0
 13 26  1  1  0  0  0
 13 12  1  0  0  0  0
 14 18  2  0  0  0  0
 14 19  1  0  0  0  0
 16 15  1  0  0  0  0
 16 17  1  0  0  0  0
 18 16  1  0  0  0  0
 19 13  1  0  0  0  0
 19 15  2  0  0  0  0
 20 14  1  0  0  0  0
 21 22  1  0  0  0  0
 21 20  1  0  0  0  0
 23 25  1  0  0  0  0
 23 22  1  0  0  0  0
 25 24  1  0  0  0  0
 27 28  1  0  0  0  0
 28 26  1  0  0  0  0
 29  1  1  0  0  0  0
 30 29  1  0  0  0  0
 31 30  1  0  0  0  0
 32 31  1  0  0  0  0
 33 32  1  0  0  0  0
 33 34  1  0  0  0  0
 36 37  1  0  0  0  0
 36 42  1  1  0  0  0
 38 34  1  6  0  0  0
 38 36  1  0  0  0  0
 39 40  1  0  0  0  0
 39 38  1  0  0  0  0
 40 35  1  6  0  0  0
 40 41  1  0  0  0  0
 41 37  1  0  0  0  0
 42 43  1  0  0  0  0
 43 46  1  0  0  0  0
 44 48  1  0  0  0  0
 46 44  2  0  0  0  0
 46 50  1  0  0  0  0
 48 45  2  0  0  0  0
 49 45  1  0  0  0  0
 50 47  1  0  0  0  0
 50 49  2  0  0  0  0
M  END
>  <MODEL>
6

>  <REMARK>
 VINA RESULT:      -6.2      2.503      9.123
  Name = 
  24 active torsions:
  status: ('A' for Active; 'I' for Inactive)
    1  A    between atoms: N_1  and  N_20
    2  A    between atoms: N_1  and  C_41
    3  A    between atoms: C_2  and  N_6
    4  A    between atoms: C_2  and  C_23
    5  A    between atoms: C_2  and  O_49
    6  A    between atoms: C_3  and  C_9
    7  A    between atoms: C_3  and  C_27
    8  A    between atoms: N_6  and  C_32
    9  A    between atoms: N_10  and  C_45
   10  A    between atoms: N_10  and  C_50
   11  A    between atoms: C_11  and  C_37
   12  A    between atoms: C_12  and  C_26
   13  A    between atoms: C_14  and  C_16
   14  A    between atoms: C_14  and  C_32
   15  A    between atoms: C_14  and  C_46
   16  A    between atoms: C_16  and  C_19
   17  A    between atoms: N_20  and  O_21
   18  A    between atoms: C_22  and  O_49
   19  A    between atoms: C_25  and  C_27
   20  A    between atoms: C_26  and  C_41
   21  A    between atoms: C_29  and  C_50
   22  A    between atoms: N_35  and  C_37
   23  A    between atoms: N_35  and  C_42
   24  A    between atoms: C_42  and  C_45
                            x       y       z     vdW  Elec       q    Type
                         _______ _______ _______ _____ _____    ______ ____

>  <TORSDO>
F 24

$$$$
=
 OpenBabel10222419523D

 50 53  0  0  1  0  0  0  0  0999 V2000
  182.0810  179.0280  143.3770 C   0  0  0  0  0  0  0  0  0  0  0  0
  180.9110  178.9990  144.1500 C   0  0  0  0  0  3  0  0  0  0  0  0
  180.8430  178.1680  141.4750 C   0  0  0  0  0  0  0  0  0  0  0  0
  179.7070  178.5750  143.5830 C   0  0  0  0  0  3  0  0  0  0  0  0
  179.6690  178.1630  142.2490 C   0  0  0  0  0  3  0  0  0  0  0  0
  182.0430  178.6040  142.0460 C   0  0  0  0  0  3  0  0  0  0  0  0
  180.8520  177.7460  140.1390 O   0  0  0  0  0  0  0  0  0  0  0  0
  179.6800  177.4320  139.3820 C   0  0  2  0  0  3  0  0  0  0  0  0
  180.4420  175.2230  140.0700 N   0  0  0  0  0  1  0  0  0  0  0  0
  179.5200  175.9280  139.1990 C   0  0  0  0  0  2  0  0  0  0  0  0
  179.7040  178.1090  138.0820 N   0  0  0  0  0  2  0  0  0  0  0  0
  179.8510  177.1240  137.0080 C   0  0  0  0  0  2  0  0  0  0  0  0
  181.1930  177.2630  136.2980 C   0  0  1  0  0  3  0  0  0  0  0  0
  183.4260  175.9760  136.5400 C   0  0  0  0  0  0  0  0  0  0  0  0
  181.5890  174.7160  136.5070 C   0  0  0  0  0  3  0  0  0  0  0  0
  182.6590  173.9120  136.6060 N   0  0  0  0  0  0  0  0  0  0  0  0
  182.6070  172.4680  136.6930 C   0  0  0  0  0  1  0  0  0  0  0  0
  183.7900  174.6480  136.6380 C   0  0  0  0  0  3  0  0  0  0  0  0
  182.0430  176.0260  136.4520 C   0  0  0  0  0  0  0  0  0  0  0  0
  184.3670  177.1370  136.5060 C   0  0  0  0  0  2  0  0  0  0  0  0
  185.6990  176.7690  137.1320 C   0  0  0  0  0  2  0  0  0  0  0  0
  186.7580  177.5170  136.4780 N   0  0  0  0  0  2  0  0  0  0  0  0
  187.9630  176.8670  136.7800 N   0  0  0  0  0  2  0  0  0  0  0  0
  188.7920  174.8910  136.4330 C   0  0  0  0  0  1  0  0  0  0  0  0
  188.1820  175.9700  135.7890 O   0  0  0  0  0  0  0  0  0  0  0  0
  181.0030  177.6670  134.8360 C   0  0  0  0  0  2  0  0  0  0  0  0
  180.0650  179.9490  134.9950 C   0  0  0  0  0  1  0  0  0  0  0  0
  181.3010  179.1460  134.6550 C   0  0  0  0  0  2  0  0  0  0  0  0
  183.3730  179.4940  143.9630 C   0  0  0  0  0  2  0  0  0  0  0  0
  183.5210  178.9960  145.3230 N   0  0  0  0  0  2  0  0  0  0  0  0
  184.8470  179.3800  145.7900 C   0  0  0  0  0  2  0  0  0  0  0  0
  185.4470  178.2600  146.6310 C   0  0  0  0  0  2  0  0  0  0  0  0
  186.7310  177.8320  146.0810 N   0  0  0  0  0  2  0  0  0  0  0  0
  187.6680  177.6880  147.1910 C   0  0  0  0  0  2  0  0  0  0  0  0
  192.3240  176.7390  148.2610 O   0  0  0  0  0  1  0  0  0  0  0  0
  189.3200  177.2970  145.3280 C   0  0  2  0  0  3  0  0  0  0  0  0
  190.6920  176.7370  144.9160 C   0  0  0  0  0  2  0  0  0  0  0  0
  188.9140  176.9070  146.7620 C   0  0  1  0  0  3  0  0  0  0  0  0
  190.0440  177.1860  147.7500 C   0  0  0  0  0  2  0  0  0  0  0  0
  191.3330  176.5030  147.3090 C   0  0  1  0  0  3  0  0  0  0  0  0
  191.7600  177.0540  145.9560 C   0  0  0  0  0  2  0  0  0  0  0  0
  188.2500  176.9220  144.2930 C   0  0  0  0  0  2  0  0  0  0  0  0
  188.7390  176.9670  142.8400 C   0  0  0  0  0  2  0  0  0  0  0  0
  186.5180  178.0640  142.4420 C   0  0  0  0  0  3  0  0  0  0  0  0
  185.9590  179.0210  140.3040 C   0  0  0  0  0  3  0  0  0  0  0  0
  187.7480  177.6420  141.9330 C   0  0  0  0  0  0  0  0  0  0  0  0
  189.3830  177.5790  140.0020 C   0  0  0  0  0  1  0  0  0  0  0  0
  185.6090  178.7440  141.6270 C   0  0  0  0  0  3  0  0  0  0  0  0
  187.1680  178.6240  139.8210 N   0  0  0  0  0  0  0  0  0  0  0  0
  188.0600  177.9400  140.5920 C   0  0  0  0  0  0  0  0  0  0  0  0
  1 29  1  0  0  0  0
  1  2  1  0  0  0  0
  3  6  1  0  0  0  0
  3  5  2  0  0  0  0
  4  2  2  0  0  0  0
  5  4  1  0  0  0  0
  6  1  2  0  0  0  0
  7  3  1  0  0  0  0
  8 10  1  6  0  0  0
  8  7  1  0  0  0  0
 10  9  1  0  0  0  0
 11  8  1  0  0  0  0
 12 11  1  0  0  0  0
 13 26  1  6  0  0  0
 13 19  1  0  0  0  0
 13 12  1  0  0  0  0
 14 18  2  0  0  0  0
 15 16  1  0  0  0  0
 16 18  1  0  0  0  0
 16 17  1  0  0  0  0
 19 15  2  0  0  0  0
 19 14  1  0  0  0  0
 20 14  1  0  0  0  0
 20 21  1  0  0  0  0
 22 23  1  0  0  0  0
 22 21  1  0  0  0  0
 25 24  1  0  0  0  0
 25 23  1  0  0  0  0
 28 26  1  0  0  0  0
 28 27  1  0  0  0  0
 29 30  1  0  0  0  0
 30 31  1  0  0  0  0
 31 32  1  0  0  0  0
 33 32  1  0  0  0  0
 33 34  1  0  0  0  0
 36 42  1  6  0  0  0
 36 38  1  0  0  0  0
 37 36  1  0  0  0  0
 37 41  1  0  0  0  0
 38 34  1  1  0  0  0
 38 39  1  0  0  0  0
 40 39  1  0  0  0  0
 40 35  1  1  0  0  0
 41 40  1  0  0  0  0
 43 42  1  0  0  0  0
 45 48  1  0  0  0  0
 46 44  1  0  0  0  0
 46 43  1  0  0  0  0
 47 50  1  0  0  0  0
 48 44  2  0  0  0  0
 49 45  2  0  0  0  0
 49 50  1  0  0  0  0
 50 46  2  0  0  0  0
M  END
>  <MODEL>
7

>  <REMARK>
 VINA RESULT:      -5.9      2.703      8.262
  Name = 
  24 active torsions:
  status: ('A' for Active; 'I' for Inactive)
    1  A    between atoms: N_1  and  N_20
    2  A    between atoms: N_1  and  C_41
    3  A    between atoms: C_2  and  N_6
    4  A    between atoms: C_2  and  C_23
    5  A    between atoms: C_2  and  O_49
    6  A    between atoms: C_3  and  C_9
    7  A    between atoms: C_3  and  C_27
    8  A    between atoms: N_6  and  C_32
    9  A    between atoms: N_10  and  C_45
   10  A    between atoms: N_10  and  C_50
   11  A    between atoms: C_11  and  C_37
   12  A    between atoms: C_12  and  C_26
   13  A    between atoms: C_14  and  C_16
   14  A    between atoms: C_14  and  C_32
   15  A    between atoms: C_14  and  C_46
   16  A    between atoms: C_16  and  C_19
   17  A    between atoms: N_20  and  O_21
   18  A    between atoms: C_22  and  O_49
   19  A    between atoms: C_25  and  C_27
   20  A    between atoms: C_26  and  C_41
   21  A    between atoms: C_29  and  C_50
   22  A    between atoms: N_35  and  C_37
   23  A    between atoms: N_35  and  C_42
   24  A    between atoms: C_42  and  C_45
                            x       y       z     vdW  Elec       q    Type
                         _______ _______ _______ _____ _____    ______ ____

>  <TORSDO>
F 24

$$$$
=
 OpenBabel10222419523D

 50 53  0  0  1  0  0  0  0  0999 V2000
  190.7060  177.5010  144.7350 C   0  0  0  0  0  0  0  0  0  0  0  0
  191.3460  177.0410  145.8960 C   0  0  0  0  0  3  0  0  0  0  0  0
  188.5520  177.2590  145.8290 C   0  0  0  0  0  0  0  0  0  0  0  0
  190.5940  176.7100  147.0250 C   0  0  0  0  0  3  0  0  0  0  0  0
  189.2020  176.8200  146.9960 C   0  0  0  0  0  3  0  0  0  0  0  0
  189.3120  177.6000  144.7050 C   0  0  0  0  0  3  0  0  0  0  0  0
  187.1580  177.3680  145.7530 O   0  0  0  0  0  0  0  0  0  0  0  0
  186.4620  178.5110  145.2520 C   0  0  2  0  0  3  0  0  0  0  0  0
  184.5180  178.4320  146.7180 N   0  0  0  0  0  1  0  0  0  0  0  0
  185.6820  179.2180  146.3550 C   0  0  0  0  0  2  0  0  0  0  0  0
  185.5690  178.1360  144.1520 N   0  0  0  0  0  2  0  0  0  0  0  0
  185.3800  179.2740  143.2500 C   0  0  0  0  0  2  0  0  0  0  0  0
  184.0130  179.2390  142.5790 C   0  0  1  0  0  3  0  0  0  0  0  0
  183.0700  178.9070  140.1900 C   0  0  0  0  0  0  0  0  0  0  0  0
  185.2820  178.7250  140.3860 C   0  0  0  0  0  3  0  0  0  0  0  0
  184.9440  178.5000  139.1070 N   0  0  0  0  0  0  0  0  0  0  0  0
  185.8790  178.2060  138.0400 C   0  0  0  0  0  1  0  0  0  0  0  0
  183.6080  178.6120  138.9540 C   0  0  0  0  0  3  0  0  0  0  0  0
  184.1180  178.9730  141.0980 C   0  0  0  0  0  0  0  0  0  0  0  0
  181.6170  179.0870  140.4890 C   0  0  0  0  0  2  0  0  0  0  0  0
  180.7970  177.9780  139.8560 C   0  0  0  0  0  2  0  0  0  0  0  0
  179.8770  178.5540  138.8920 N   0  0  0  0  0  2  0  0  0  0  0  0
  180.2500  178.0660  137.6310 N   0  0  0  0  0  2  0  0  0  0  0  0
  180.8420  180.0030  136.8480 C   0  0  0  0  0  1  0  0  0  0  0  0
  179.8770  179.0010  136.7240 O   0  0  0  0  0  0  0  0  0  0  0  0
  183.0780  178.2570  143.2860 C   0  0  0  0  0  2  0  0  0  0  0  0
  180.7090  178.3050  143.9960 C   0  0  0  0  0  1  0  0  0  0  0  0
  182.0430  179.0110  144.1040 C   0  0  0  0  0  2  0  0  0  0  0  0
  191.4950  177.8760  143.5240 C   0  0  0  0  0  2  0  0  0  0  0  0
  191.2590  176.9210  142.4510 N   0  0  0  0  0  2  0  0  0  0  0  0
  190.6720  177.6520  141.3340 C   0  0  0  0  0  2  0  0  0  0  0  0
  190.5950  176.7520  140.1070 C   0  0  0  0  0  2  0  0  0  0  0  0
  191.6590  177.0770  139.1610 N   0  0  0  0  0  2  0  0  0  0  0  0
  191.3470  176.4220  137.8940 C   0  0  0  0  0  2  0  0  0  0  0  0
  195.9670  174.8890  138.0720 O   0  0  0  0  0  1  0  0  0  0  0  0
  192.1790  174.7710  136.1800 C   0  0  2  0  0  3  0  0  0  0  0  0
  193.2540  173.7400  135.7970 C   0  0  0  0  0  2  0  0  0  0  0  0
  192.2780  175.2310  137.6470 C   0  0  1  0  0  3  0  0  0  0  0  0
  193.7080  175.6310  138.0040 C   0  0  0  0  0  2  0  0  0  0  0  0
  194.6840  174.5050  137.6850 C   0  0  1  0  0  3  0  0  0  0  0  0
  194.6490  174.2140  136.1920 C   0  0  0  0  0  2  0  0  0  0  0  0
  190.7800  174.2520  135.8210 C   0  0  0  0  0  2  0  0  0  0  0  0
  189.9700  173.7500  137.0230 C   0  0  0  0  0  2  0  0  0  0  0  0
  187.9880  172.2500  136.6760 C   0  0  0  0  0  3  0  0  0  0  0  0
  185.8090  173.1480  136.1810 C   0  0  0  0  0  3  0  0  0  0  0  0
  188.5220  173.5410  136.6780 C   0  0  0  0  0  0  0  0  0  0  0  0
  188.1460  176.0370  136.4920 C   0  0  0  0  0  1  0  0  0  0  0  0
  186.6320  172.0440  136.4130 C   0  0  0  0  0  3  0  0  0  0  0  0
  186.3330  174.4040  136.2060 N   0  0  0  0  0  0  0  0  0  0  0  0
  187.6570  174.6270  136.4370 C   0  0  0  0  0  0  0  0  0  0  0  0
  1  2  1  0  0  0  0
  2  4  2  0  0  0  0
  3  5  2  0  0  0  0
  5  4  1  0  0  0  0
  6  1  2  0  0  0  0
  6  3  1  0  0  0  0
  7  3  1  0  0  0  0
  8  7  1  0  0  0  0
  8 10  1  1  0  0  0
 10  9  1  0  0  0  0
 11  8  1  0  0  0  0
 12 11  1  0  0  0  0
 13 12  1  1  0  0  0
 13 26  1  0  0  0  0
 14 20  1  0  0  0  0
 14 19  1  0  0  0  0
 15 19  2  0  0  0  0
 16 15  1  0  0  0  0
 17 16  1  0  0  0  0
 18 16  1  0  0  0  0
 18 14  2  0  0  0  0
 19 13  1  0  0  0  0
 21 20  1  0  0  0  0
 22 21  1  0  0  0  0
 23 22  1  0  0  0  0
 25 24  1  0  0  0  0
 25 23  1  0  0  0  0
 26 28  1  0  0  0  0
 27 28  1  0  0  0  0
 29  1  1  0  0  0  0
 30 29  1  0  0  0  0
 31 30  1  0  0  0  0
 32 31  1  0  0  0  0
 33 32  1  0  0  0  0
 34 33  1  0  0  0  0
 36 42  1  1  0  0  0
 36 38  1  0  0  0  0
 37 36  1  0  0  0  0
 37 41  1  0  0  0  0
 38 34  1  6  0  0  0
 38 39  1  0  0  0  0
 40 39  1  0  0  0  0
 40 35  1  6  0  0  0
 41 40  1  0  0  0  0
 42 43  1  0  0  0  0
 44 46  1  0  0  0  0
 45 49  2  0  0  0  0
 45 48  1  0  0  0  0
 46 43  1  0  0  0  0
 48 44  2  0  0  0  0
 49 50  1  0  0  0  0
 50 47  1  0  0  0  0
 50 46  2  0  0  0  0
M  END
>  <MODEL>
8

>  <REMARK>
 VINA RESULT:      -5.9      2.480      9.163
  Name = 
  24 active torsions:
  status: ('A' for Active; 'I' for Inactive)
    1  A    between atoms: N_1  and  N_20
    2  A    between atoms: N_1  and  C_41
    3  A    between atoms: C_2  and  N_6
    4  A    between atoms: C_2  and  C_23
    5  A    between atoms: C_2  and  O_49
    6  A    between atoms: C_3  and  C_9
    7  A    between atoms: C_3  and  C_27
    8  A    between atoms: N_6  and  C_32
    9  A    between atoms: N_10  and  C_45
   10  A    between atoms: N_10  and  C_50
   11  A    between atoms: C_11  and  C_37
   12  A    between atoms: C_12  and  C_26
   13  A    between atoms: C_14  and  C_16
   14  A    between atoms: C_14  and  C_32
   15  A    between atoms: C_14  and  C_46
   16  A    between atoms: C_16  and  C_19
   17  A    between atoms: N_20  and  O_21
   18  A    between atoms: C_22  and  O_49
   19  A    between atoms: C_25  and  C_27
   20  A    between atoms: C_26  and  C_41
   21  A    between atoms: C_29  and  C_50
   22  A    between atoms: N_35  and  C_37
   23  A    between atoms: N_35  and  C_42
   24  A    between atoms: C_42  and  C_45
                            x       y       z     vdW  Elec       q    Type
                         _______ _______ _______ _____ _____    ______ ____

>  <TORSDO>
F 24

$$$$
=
 OpenBabel10222419523D

 50 53  0  0  1  0  0  0  0  0999 V2000
  189.1360  177.5440  144.2480 C   0  0  0  0  0  0  0  0  0  0  0  0
  190.2290  177.1440  145.0310 C   0  0  0  0  0  3  0  0  0  0  0  0
  190.2190  176.6320  142.2760 C   0  0  0  0  0  0  0  0  0  0  0  0
  191.3040  176.4740  144.4430 C   0  0  0  0  0  3  0  0  0  0  0  0
  191.3010  176.2140  143.0710 C   0  0  0  0  0  3  0  0  0  0  0  0
  189.1400  177.2930  142.8730 C   0  0  0  0  0  3  0  0  0  0  0  0
  190.1840  176.4070  140.8950 O   0  0  0  0  0  0  0  0  0  0  0  0
  190.1730  177.4400  139.9060 C   0  0  2  0  0  3  0  0  0  0  0  0
  188.7650  178.9960  138.6700 N   0  0  0  0  0  1  0  0  0  0  0  0
  188.7520  177.7990  139.4900 C   0  0  0  0  0  2  0  0  0  0  0  0
  190.9680  177.0500  138.7380 N   0  0  0  0  0  2  0  0  0  0  0  0
  190.5480  175.7290  138.2650 C   0  0  0  0  0  2  0  0  0  0  0  0
  190.7450  175.5820  136.7610 C   0  0  1  0  0  3  0  0  0  0  0  0
  193.0670  174.4620  136.5250 C   0  0  0  0  0  0  0  0  0  0  0  0
  191.3280  173.2050  135.9270 C   0  0  0  0  0  3  0  0  0  0  0  0
  192.4540  172.5040  135.7220 N   0  0  0  0  0  0  0  0  0  0  0  0
  192.5080  171.1500  135.2120 C   0  0  0  0  0  1  0  0  0  0  0  0
  193.5270  173.2370  136.0850 C   0  0  0  0  0  3  0  0  0  0  0  0
  191.6840  174.4510  136.4230 C   0  0  0  0  0  0  0  0  0  0  0  0
  193.9200  175.5960  136.9950 C   0  0  0  0  0  2  0  0  0  0  0  0
  195.2510  175.0880  137.5160 C   0  0  0  0  0  2  0  0  0  0  0  0
  195.1460  174.8510  138.9450 N   0  0  0  0  0  2  0  0  0  0  0  0
  196.3780  174.3290  139.3630 N   0  0  0  0  0  2  0  0  0  0  0  0
  198.3400  175.2530  139.4790 C   0  0  0  0  0  1  0  0  0  0  0  0
  197.3290  174.8980  138.5830 O   0  0  0  0  0  0  0  0  0  0  0  0
  189.4030  175.4670  136.0390 C   0  0  0  0  0  2  0  0  0  0  0  0
  187.4860  173.9260  136.2980 C   0  0  0  0  0  1  0  0  0  0  0  0
  188.3320  174.9680  136.9950 C   0  0  0  0  0  2  0  0  0  0  0  0
  187.9710  178.2470  144.8630 C   0  0  0  0  0  2  0  0  0  0  0  0
  187.3320  177.3950  145.8550 N   0  0  0  0  0  2  0  0  0  0  0  0
  185.8930  177.6100  145.7590 C   0  0  0  0  0  2  0  0  0  0  0  0
  185.5800  178.5050  144.5670 C   0  0  0  0  0  2  0  0  0  0  0  0
  184.1550  178.4570  144.2460 N   0  0  0  0  0  2  0  0  0  0  0  0
  184.0110  178.6910  142.8120 C   0  0  0  0  0  2  0  0  0  0  0  0
  179.4020  178.5520  144.3790 O   0  0  0  0  0  1  0  0  0  0  0  0
  182.1480  178.2770  141.1650 C   0  0  2  0  0  3  0  0  0  0  0  0
  180.6400  178.3680  140.8740 C   0  0  0  0  0  2  0  0  0  0  0  0
  182.5600  179.0200  142.4510 C   0  0  1  0  0  3  0  0  0  0  0  0
  181.6550  178.6390  143.6210 C   0  0  0  0  0  2  0  0  0  0  0  0
  180.1890  178.8620  143.2710 C   0  0  1  0  0  3  0  0  0  0  0  0
  179.8110  177.9760  142.0920 C   0  0  0  0  0  2  0  0  0  0  0  0
  182.9620  178.7250  139.9440 C   0  0  0  0  0  2  0  0  0  0  0  0
  184.3030  177.9970  139.7820 C   0  0  0  0  0  2  0  0  0  0  0  0
  185.4630  178.0460  137.5580 C   0  0  0  0  0  3  0  0  0  0  0  0
  184.9620  176.4250  135.8490 C   0  0  0  0  0  3  0  0  0  0  0  0
  184.4950  177.4740  138.3870 C   0  0  0  0  0  0  0  0  0  0  0  0
  182.7780  175.6550  138.7700 C   0  0  0  0  0  1  0  0  0  0  0  0
  185.6930  177.5340  136.2790 C   0  0  0  0  0  3  0  0  0  0  0  0
  184.0350  175.8600  136.6700 N   0  0  0  0  0  0  0  0  0  0  0  0
  183.7780  176.3570  137.9130 C   0  0  0  0  0  0  0  0  0  0  0  0
  1 29  1  0  0  0  0
  1  2  1  0  0  0  0
  3  6  1  0  0  0  0
  3  5  2  0  0  0  0
  4  2  2  0  0  0  0
  5  4  1  0  0  0  0
  6  1  2  0  0  0  0
  7  3  1  0  0  0  0
  8 10  1  6  0  0  0
  8  7  1  0  0  0  0
  9 10  1  0  0  0  0
 11  8  1  0  0  0  0
 12 11  1  0  0  0  0
 13 26  1  6  0  0  0
 13 12  1  0  0  0  0
 14 20  1  0  0  0  0
 15 19  2  0  0  0  0
 16 15  1  0  0  0  0
 16 18  1  0  0  0  0
 17 16  1  0  0  0  0
 18 14  2  0  0  0  0
 19 14  1  0  0  0  0
 19 13  1  0  0  0  0
 20 21  1  0  0  0  0
 21 22  1  0  0  0  0
 22 23  1  0  0  0  0
 25 23  1  0  0  0  0
 25 24  1  0  0  0  0
 26 28  1  0  0  0  0
 27 28  1  0  0  0  0
 29 30  1  0  0  0  0
 31 30  1  0  0  0  0
 32 31  1  0  0  0  0
 33 32  1  0  0  0  0
 34 33  1  0  0  0  0
 36 42  1  6  0  0  0
 36 38  1  0  0  0  0
 37 36  1  0  0  0  0
 37 41  1  0  0  0  0
 38 34  1  1  0  0  0
 38 39  1  0  0  0  0
 40 39  1  0  0  0  0
 40 35  1  1  0  0  0
 41 40  1  0  0  0  0
 43 42  1  0  0  0  0
 44 46  1  0  0  0  0
 45 48  1  0  0  0  0
 45 49  2  0  0  0  0
 46 43  1  0  0  0  0
 48 44  2  0  0  0  0
 49 50  1  0  0  0  0
 50 46  2  0  0  0  0
 50 47  1  0  0  0  0
M  END
>  <MODEL>
9

>  <REMARK>
 VINA RESULT:      -5.9      2.046      3.552
  Name = 
  24 active torsions:
  status: ('A' for Active; 'I' for Inactive)
    1  A    between atoms: N_1  and  N_20
    2  A    between atoms: N_1  and  C_41
    3  A    between atoms: C_2  and  N_6
    4  A    between atoms: C_2  and  C_23
    5  A    between atoms: C_2  and  O_49
    6  A    between atoms: C_3  and  C_9
    7  A    between atoms: C_3  and  C_27
    8  A    between atoms: N_6  and  C_32
    9  A    between atoms: N_10  and  C_45
   10  A    between atoms: N_10  and  C_50
   11  A    between atoms: C_11  and  C_37
   12  A    between atoms: C_12  and  C_26
   13  A    between atoms: C_14  and  C_16
   14  A    between atoms: C_14  and  C_32
   15  A    between atoms: C_14  and  C_46
   16  A    between atoms: C_16  and  C_19
   17  A    between atoms: N_20  and  O_21
   18  A    between atoms: C_22  and  O_49
   19  A    between atoms: C_25  and  C_27
   20  A    between atoms: C_26  and  C_41
   21  A    between atoms: C_29  and  C_50
   22  A    between atoms: N_35  and  C_37
   23  A    between atoms: N_35  and  C_42
   24  A    between atoms: C_42  and  C_45
                            x       y       z     vdW  Elec       q    Type
                         _______ _______ _______ _____ _____    ______ ____

>  <TORSDO>
F 24

$$$$
