=
 OpenBabel10222417523D

 53 55  0  0  1  0  0  0  0  0999 V2000
  185.7970  178.1580  142.1570 C   0  0  2  0  0  3  0  0  0  0  0  0
  184.9480  178.9620  144.3910 C   0  0  0  0  0  0  0  0  0  0  0  0
  184.9230  180.1540  143.9870 O   0  0  0  0  0  0  0  0  0  0  0  0
  185.2920  177.9030  143.4990 N   0  0  0  0  0  2  0  0  0  0  0  0
  184.6180  178.6480  145.8110 C   0  0  0  0  0  2  0  0  0  0  0  0
  185.7990  178.8100  146.6510 N   0  0  0  0  0  0  0  0  0  0  0  0
  186.7620  177.7540  146.7640 C   0  0  0  0  0  0  0  0  0  0  0  0
  187.8230  177.8500  147.7230 N   0  0  0  0  0  2  0  0  0  0  0  0
  185.9570  180.0400  147.4130 C   0  0  0  0  0  1  0  0  0  0  0  0
  186.6760  176.7410  146.0180 O   0  0  0  0  0  0  0  0  0  0  0  0
  188.8410  176.8210  147.8690 C   0  0  0  0  0  2  0  0  0  0  0  0
  190.0760  177.1630  147.0420 C   0  0  0  0  0  2  0  0  0  0  0  0
  191.1690  176.1210  147.2410 C   0  0  0  0  0  2  0  0  0  0  0  0
  192.3110  176.7100  147.9180 N   0  0  0  0  0  1  0  0  0  0  0  0
  187.1690  178.8120  142.2350 C   0  0  0  0  0  2  0  0  0  0  0  0
  188.9530  177.9850  143.7420 N   0  0  0  0  0  2  0  0  0  0  0  0
  188.2620  177.7770  142.4750 C   0  0  2  0  0  0  0  0  0  0  0  0
  189.5070  178.0510  141.6430 C   0  0  1  0  0  3  0  0  0  0  0  0
  190.1790  178.2630  142.9980 C   0  0  2  0  0  3  0  0  0  0  0  0
  187.7830  176.4660  142.3710 O   0  0  0  0  0  1  0  0  0  0  0  0
  191.1330  177.2830  143.2840 O   0  0  0  0  0  1  0  0  0  0  0  0
  190.7680  175.6240  138.9720 N   0  0  0  0  0  2  0  0  0  0  0  0
  190.2930  176.8310  139.5680 C   0  0  0  0  0  0  0  0  0  0  0  0
  190.1400  177.8710  138.8690 O   0  0  0  0  0  0  0  0  0  0  0  0
  189.9950  176.8500  140.9640 N   0  0  0  0  0  2  0  0  0  0  0  0
  191.1450  175.5580  137.5700 C   0  0  0  0  0  2  0  0  0  0  0  0
  192.6470  175.7220  137.4320 C   0  0  0  0  0  2  0  0  0  0  0  0
  193.2960  174.4990  137.7000 O   0  0  0  0  0  0  0  0  0  0  0  0
  194.6230  174.5110  137.1930 C   0  0  2  0  0  0  0  0  0  0  0  0
  194.9180  175.8350  136.8610 O   0  0  0  0  0  1  0  0  0  0  0  0
  195.4180  174.3670  134.9010 O   0  0  0  0  0  1  0  0  0  0  0  0
  194.7360  173.6710  135.9010 C   0  0  0  0  0  2  0  0  0  0  0  0
  195.6370  174.0570  138.2730 C   0  0  2  0  0  3  0  0  0  0  0  0
  195.2890  172.8060  138.7950 O   0  0  0  0  0  1  0  0  0  0  0  0
  195.7280  174.9850  139.3190 O   0  0  0  0  0  0  0  0  0  0  0  0
  197.0650  176.8110  141.0110 O   0  0  0  0  0  0  0  0  0  0  0  0
  196.7900  174.5810  140.0590 N   0  0  0  0  0  2  0  0  0  0  0  0
  197.4630  175.4840  140.9340 C   0  0  0  0  0  0  0  0  0  0  0  0
  198.4200  175.0780  141.6360 O   0  0  0  0  0  1  0  0  0  0  0  0
  184.8240  179.0400  141.3810 C   0  0  0  0  0  2  0  0  0  0  0  0
  185.3520  179.3890  140.1360 O   0  0  0  0  0  0  0  0  0  0  0  0
  184.2680  179.3460  139.2600 C   0  0  0  0  0  2  0  0  0  0  0  0
  183.2140  177.0130  138.5890 C   0  0  0  0  0  0  0  0  0  0  0  0
  185.7470  174.8610  136.8440 S   0  0  0  0  0  0  0  0  0  0  0  0
  185.2860  177.5790  137.7770 C   0  0  0  0  0  0  0  0  0  0  0  0
  184.2560  178.0560  138.5060 C   0  0  0  0  0  0  0  0  0  0  0  0
  183.3840  174.5880  137.8130 N   0  0  0  0  0  0  0  0  0  0  0  0
  184.3800  172.4100  137.0880 C   0  0  0  0  0  1  0  0  0  0  0  0
  184.4020  173.8880  137.2390 C   0  0  0  0  0  0  0  0  0  0  0  0
  183.7090  175.9010  137.8080 C   0  0  0  0  0  0  0  0  0  0  0  0
  182.1430  177.0560  139.2500 O   0  0  0  0  0  0  0  0  0  0  0  0
  186.5980  178.2460  137.5720 C   0  0  0  0  0  1  0  0  0  0  0  0
  184.9230  176.2370  137.3340 C   0  0  0  0  0  0  0  0  0  0  0  0
  1 40  1  1  0  0  0
  1 15  1  0  0  0  0
  1  4  1  0  0  0  0
  2  5  1  0  0  0  0
  3  2  2  0  0  0  0
  4  2  1  0  0  0  0
  5  6  1  0  0  0  0
  6  7  1  0  0  0  0
  6  9  1  0  0  0  0
  7  8  1  0  0  0  0
  8 11  1  0  0  0  0
 10  7  2  0  0  0  0
 12 13  1  0  0  0  0
 12 11  1  0  0  0  0
 13 14  1  0  0  0  0
 15 17  1  0  0  0  0
 17 20  1  6  0  0  0
 17 16  1  0  0  0  0
 18 25  1  1  0  0  0
 18 17  1  0  0  0  0
 18 19  1  0  0  0  0
 19 21  1  1  0  0  0
 19 16  1  0  0  0  0
 22 23  1  0  0  0  0
 23 25  1  0  0  0  0
 24 23  2  0  0  0  0
 26 22  1  0  0  0  0
 27 26  1  0  0  0  0
 27 28  1  0  0  0  0
 29 30  1  6  0  0  0
 29 28  1  0  0  0  0
 29 33  1  0  0  0  0
 31 32  1  0  0  0  0
 32 29  1  0  0  0  0
 33 34  1  1  0  0  0
 33 35  1  0  0  0  0
 35 37  1  0  0  0  0
 37 38  1  0  0  0  0
 38 36  2  0  0  0  0
 38 39  1  0  0  0  0
 41 40  1  0  0  0  0
 42 41  1  0  0  0  0
 43 51  2  0  0  0  0
 44 49  1  0  0  0  0
 44 53  1  0  0  0  0
 45 46  2  0  0  0  0
 46 43  1  0  0  0  0
 46 42  1  0  0  0  0
 48 49  1  0  0  0  0
 49 47  2  0  0  0  0
 50 47  1  0  0  0  0
 50 43  1  0  0  0  0
 52 45  1  0  0  0  0
 53 45  1  0  0  0  0
 53 50  2  0  0  0  0
M  END
>  <MODEL>
1

>  <REMARK>
 VINA RESULT:      -7.4      0.000      0.000
  Name = 
  21 active torsions:
  status: ('A' for Active; 'I' for Inactive)
    1  A    between atoms: C_3  and  C_21
    2  A    between atoms: C_3  and  C_41
    3  A    between atoms: C_3  and  O_51
    4  A    between atoms: N_4  and  C_32
    5  A    between atoms: C_5  and  N_28
    6  A    between atoms: C_5  and  C_33
    7  A    between atoms: O_7  and  N_11
    8  A    between atoms: O_7  and  C_41
    9  A    between atoms: C_8  and  C_44
   10  A    between atoms: N_10  and  C_44
   11  A    between atoms: C_12  and  C_15
   12  A    between atoms: C_14  and  C_33
   13  A    between atoms: C_15  and  C_39
   14  A    between atoms: C_20  and  C_45
   15  A    between atoms: C_22  and  N_46
   16  A    between atoms: C_25  and  C_32
   17  A    between atoms: C_25  and  O_51
   18  A    between atoms: C_37  and  C_39
   19  A    between atoms: C_37  and  O_53
   20  A    between atoms: C_39  and  N_42
   21  A    between atoms: C_45  and  O_53
                            x       y       z     vdW  Elec       q    Type
                         _______ _______ _______ _____ _____    ______ ____

>  <TORSDO>
F 21

$$$$
=
 OpenBabel10222417523D

 53 55  0  0  1  0  0  0  0  0999 V2000
  190.3530  176.6880  138.5790 C   0  0  2  0  0  3  0  0  0  0  0  0
  191.3230  174.9190  137.0650 C   0  0  0  0  0  0  0  0  0  0  0  0
  190.5830  174.0360  137.5730 O   0  0  0  0  0  0  0  0  0  0  0  0
  191.1960  176.2840  137.4620 N   0  0  0  0  0  2  0  0  0  0  0  0
  192.3410  174.5440  136.0420 C   0  0  0  0  0  2  0  0  0  0  0  0
  193.6530  175.0510  136.4260 N   0  0  0  0  0  0  0  0  0  0  0  0
  194.5040  174.2870  137.2920 C   0  0  0  0  0  0  0  0  0  0  0  0
  195.7100  174.8660  137.8050 N   0  0  0  0  0  2  0  0  0  0  0  0
  194.0640  176.3670  135.9580 C   0  0  0  0  0  1  0  0  0  0  0  0
  194.1900  173.1060  137.6010 O   0  0  0  0  0  0  0  0  0  0  0  0
  196.6230  174.1340  138.6700 C   0  0  0  0  0  2  0  0  0  0  0  0
  198.0500  174.6450  138.5040 C   0  0  0  0  0  2  0  0  0  0  0  0
  198.5290  175.3410  139.7720 C   0  0  0  0  0  2  0  0  0  0  0  0
  197.4040  175.6340  140.6430 N   0  0  0  0  0  1  0  0  0  0  0  0
  189.4320  177.8200  138.1500 C   0  0  0  0  0  2  0  0  0  0  0  0
  188.4200  177.4260  135.9230 N   0  0  0  0  0  2  0  0  0  0  0  0
  188.2370  177.2920  137.3630 C   0  0  2  0  0  0  0  0  0  0  0  0
  187.0550  178.2520  137.3980 C   0  0  1  0  0  3  0  0  0  0  0  0
  187.2960  178.3590  135.8930 C   0  0  2  0  0  3  0  0  0  0  0  0
  187.9130  175.9760  137.7110 O   0  0  0  0  0  1  0  0  0  0  0  0
  186.2530  177.8110  135.1430 O   0  0  0  0  0  1  0  0  0  0  0  0
  183.6700  177.3620  138.9350 N   0  0  0  0  0  2  0  0  0  0  0  0
  184.8800  178.0760  138.6800 C   0  0  0  0  0  0  0  0  0  0  0  0
  185.1330  179.1440  139.3040 O   0  0  0  0  0  0  0  0  0  0  0  0
  185.7990  177.5710  137.7120 N   0  0  0  0  0  2  0  0  0  0  0  0
  182.6690  177.8560  139.8640 C   0  0  0  0  0  2  0  0  0  0  0  0
  181.3400  177.1700  139.6030 C   0  0  0  0  0  2  0  0  0  0  0  0
  181.5270  175.7770  139.4900 O   0  0  0  0  0  0  0  0  0  0  0  0
  180.5340  175.2020  138.6520 C   0  0  2  0  0  0  0  0  0  0  0  0
  179.8890  176.2590  138.0050 O   0  0  0  0  0  1  0  0  0  0  0  0
  179.9140  174.2170  140.7850 O   0  0  0  0  0  1  0  0  0  0  0  0
  179.4710  174.4460  139.4810 C   0  0  0  0  0  2  0  0  0  0  0  0
  181.1740  174.3020  137.5660 C   0  0  2  0  0  3  0  0  0  0  0  0
  180.7320  172.9800  137.6840 O   0  0  0  0  0  1  0  0  0  0  0  0
  182.5730  174.3310  137.6300 O   0  0  0  0  0  0  0  0  0  0  0  0
  185.0140  172.9910  138.1140 O   0  0  0  0  0  1  0  0  0  0  0  0
  182.9860  173.3390  136.8020 N   0  0  0  0  0  2  0  0  0  0  0  0
  184.2030  172.6380  137.0440 C   0  0  0  0  0  0  0  0  0  0  0  0
  184.5470  171.7000  136.2840 O   0  0  0  0  0  0  0  0  0  0  0  0
  191.2120  177.1140  139.7660 C   0  0  0  0  0  2  0  0  0  0  0  0
  190.4300  177.7130  140.7560 O   0  0  0  0  0  0  0  0  0  0  0  0
  189.9760  176.6560  141.5440 C   0  0  0  0  0  2  0  0  0  0  0  0
  190.4270  177.0460  144.1220 C   0  0  0  0  0  0  0  0  0  0  0  0
  187.2410  177.8860  145.9200 S   0  0  0  0  0  0  0  0  0  0  0  0
  188.3690  177.5780  143.2540 C   0  0  0  0  0  0  0  0  0  0  0  0
  189.5970  177.1430  142.9050 C   0  0  0  0  0  0  0  0  0  0  0  0
  189.6650  177.3070  146.5430 N   0  0  0  0  0  0  0  0  0  0  0  0
  188.1630  177.4220  148.5420 C   0  0  0  0  0  1  0  0  0  0  0  0
  188.4400  177.5530  147.0880 C   0  0  0  0  0  0  0  0  0  0  0  0
  189.5890  177.5040  145.2070 C   0  0  0  0  0  0  0  0  0  0  0  0
  191.6020  176.6000  144.2110 O   0  0  0  0  0  0  0  0  0  0  0  0
  187.1860  177.6760  142.3610 C   0  0  0  0  0  1  0  0  0  0  0  0
  188.3840  177.8160  144.6950 C   0  0  0  0  0  0  0  0  0  0  0  0
  1 15  1  6  0  0  0
  1 40  1  0  0  0  0
  2  4  1  0  0  0  0
  2  3  2  0  0  0  0
  4  1  1  0  0  0  0
  5  6  1  0  0  0  0
  5  2  1  0  0  0  0
  6  7  1  0  0  0  0
  7 10  2  0  0  0  0
  7  8  1  0  0  0  0
  8 11  1  0  0  0  0
  9  6  1  0  0  0  0
 12 11  1  0  0  0  0
 12 13  1  0  0  0  0
 13 14  1  0  0  0  0
 16 17  1  0  0  0  0
 17 18  1  0  0  0  0
 17 20  1  1  0  0  0
 17 15  1  0  0  0  0
 18 25  1  6  0  0  0
 19 21  1  6  0  0  0
 19 16  1  0  0  0  0
 19 18  1  0  0  0  0
 22 26  1  0  0  0  0
 23 22  1  0  0  0  0
 23 24  2  0  0  0  0
 25 23  1  0  0  0  0
 27 26  1  0  0  0  0
 28 27  1  0  0  0  0
 29 30  1  6  0  0  0
 29 32  1  0  0  0  0
 29 28  1  0  0  0  0
 32 31  1  0  0  0  0
 33 35  1  0  0  0  0
 33 34  1  1  0  0  0
 33 29  1  0  0  0  0
 37 38  1  0  0  0  0
 37 35  1  0  0  0  0
 38 36  1  0  0  0  0
 39 38  2  0  0  0  0
 40 41  1  0  0  0  0
 41 42  1  0  0  0  0
 42 46  1  0  0  0  0
 43 51  2  0  0  0  0
 43 50  1  0  0  0  0
 44 49  1  0  0  0  0
 45 53  1  0  0  0  0
 46 45  2  0  0  0  0
 46 43  1  0  0  0  0
 47 49  2  0  0  0  0
 49 48  1  0  0  0  0
 50 47  1  0  0  0  0
 52 45  1  0  0  0  0
 53 50  2  0  0  0  0
 53 44  1  0  0  0  0
M  END
>  <MODEL>
2

>  <REMARK>
 VINA RESULT:      -7.4      2.934     10.741
  Name = 
  21 active torsions:
  status: ('A' for Active; 'I' for Inactive)
    1  A    between atoms: C_3  and  C_21
    2  A    between atoms: C_3  and  C_41
    3  A    between atoms: C_3  and  O_51
    4  A    between atoms: N_4  and  C_32
    5  A    between atoms: C_5  and  N_28
    6  A    between atoms: C_5  and  C_33
    7  A    between atoms: O_7  and  N_11
    8  A    between atoms: O_7  and  C_41
    9  A    between atoms: C_8  and  C_44
   10  A    between atoms: N_10  and  C_44
   11  A    between atoms: C_12  and  C_15
   12  A    between atoms: C_14  and  C_33
   13  A    between atoms: C_15  and  C_39
   14  A    between atoms: C_20  and  C_45
   15  A    between atoms: C_22  and  N_46
   16  A    between atoms: C_25  and  C_32
   17  A    between atoms: C_25  and  O_51
   18  A    between atoms: C_37  and  C_39
   19  A    between atoms: C_37  and  O_53
   20  A    between atoms: C_39  and  N_42
   21  A    between atoms: C_45  and  O_53
                            x       y       z     vdW  Elec       q    Type
                         _______ _______ _______ _____ _____    ______ ____

>  <TORSDO>
F 21

$$$$
=
 OpenBabel10222417523D

 53 55  0  0  1  0  0  0  0  0999 V2000
  183.9300  178.8420  139.8290 C   0  0  2  0  0  3  0  0  0  0  0  0
  185.0930  177.8440  137.8260 C   0  0  0  0  0  0  0  0  0  0  0  0
  184.1560  177.0210  137.6530 O   0  0  0  0  0  0  0  0  0  0  0  0
  185.0020  178.8410  138.8430 N   0  0  0  0  0  2  0  0  0  0  0  0
  186.3100  177.7820  136.9660 C   0  0  0  0  0  2  0  0  0  0  0  0
  187.3370  176.9660  137.6030 N   0  0  0  0  0  0  0  0  0  0  0  0
  188.2780  177.5570  138.5090 C   0  0  0  0  0  0  0  0  0  0  0  0
  189.3880  176.7890  138.9910 N   0  0  0  0  0  2  0  0  0  0  0  0
  187.4220  175.5520  137.2650 C   0  0  0  0  0  1  0  0  0  0  0  0
  188.1290  178.7520  138.8800 O   0  0  0  0  0  0  0  0  0  0  0  0
  190.3640  177.3280  139.9270 C   0  0  0  0  0  2  0  0  0  0  0  0
  191.7800  177.1630  139.3820 C   0  0  0  0  0  2  0  0  0  0  0  0
  192.8120  177.3710  140.4830 C   0  0  0  0  0  2  0  0  0  0  0  0
  194.1380  177.0200  140.0050 N   0  0  0  0  0  1  0  0  0  0  0  0
  182.8740  179.8680  139.4440 C   0  0  0  0  0  2  0  0  0  0  0  0
  180.8600  179.7150  140.8780 N   0  0  0  0  0  2  0  0  0  0  0  0
  181.4680  179.3060  139.6170 C   0  0  2  0  0  0  0  0  0  0  0  0
  181.4800  177.8300  139.9930 C   0  0  1  0  0  3  0  0  0  0  0  0
  180.8500  178.3150  141.2970 C   0  0  2  0  0  3  0  0  0  0  0  0
  180.6370  179.6120  138.5340 O   0  0  0  0  0  1  0  0  0  0  0  0
  179.5310  177.8810  141.4500 O   0  0  0  0  0  1  0  0  0  0  0  0
  179.7050  174.9250  138.2520 N   0  0  0  0  0  2  0  0  0  0  0  0
  180.6530  175.6280  139.0560 C   0  0  0  0  0  0  0  0  0  0  0  0
  181.5750  175.0020  139.6500 O   0  0  0  0  0  0  0  0  0  0  0  0
  180.5470  177.0460  139.1840 N   0  0  0  0  0  2  0  0  0  0  0  0
  179.7260  173.4780  138.1320 C   0  0  0  0  0  2  0  0  0  0  0  0
  180.4420  173.0780  136.8550 C   0  0  0  0  0  2  0  0  0  0  0  0
  181.5830  172.3050  137.1590 O   0  0  0  0  0  0  0  0  0  0  0  0
  182.6940  172.7180  136.3750 C   0  0  2  0  0  0  0  0  0  0  0  0
  182.5890  174.1020  136.2220 O   0  0  0  0  0  1  0  0  0  0  0  0
  182.2180  170.7610  135.0160 O   0  0  0  0  0  1  0  0  0  0  0  0
  182.6480  172.0880  134.9650 C   0  0  0  0  0  2  0  0  0  0  0  0
  184.0290  172.4230  137.1030 C   0  0  2  0  0  3  0  0  0  0  0  0
  184.4980  173.5580  137.7730 O   0  0  0  0  0  1  0  0  0  0  0  0
  185.0130  171.9700  136.2140 O   0  0  0  0  0  0  0  0  0  0  0  0
  187.4550  171.1860  135.0270 O   0  0  0  0  0  0  0  0  0  0  0  0
  186.1940  172.2990  136.7950 N   0  0  0  0  0  2  0  0  0  0  0  0
  187.4350  171.9300  136.1990 C   0  0  0  0  0  0  0  0  0  0  0  0
  188.5150  172.2760  136.7370 O   0  0  0  0  0  1  0  0  0  0  0  0
  184.4860  179.1380  141.2190 C   0  0  0  0  0  2  0  0  0  0  0  0
  184.8120  177.9550  141.8860 O   0  0  0  0  0  0  0  0  0  0  0  0
  184.5010  178.1990  143.2230 C   0  0  0  0  0  2  0  0  0  0  0  0
  187.0960  177.8350  143.5940 C   0  0  0  0  0  0  0  0  0  0  0  0
  187.9060  177.6630  147.2550 S   0  0  0  0  0  0  0  0  0  0  0  0
  185.7680  178.3360  145.3990 C   0  0  0  0  0  0  0  0  0  0  0  0
  185.7410  178.1920  144.0580 C   0  0  0  0  0  0  0  0  0  0  0  0
  189.1180  177.2400  145.0310 N   0  0  0  0  0  0  0  0  0  0  0  0
  190.4790  176.5420  147.0120 C   0  0  0  0  0  1  0  0  0  0  0  0
  189.2770  177.1460  146.3810 C   0  0  0  0  0  0  0  0  0  0  0  0
  187.9260  177.8260  144.7780 C   0  0  0  0  0  0  0  0  0  0  0  0
  187.4480  177.5400  142.4220 O   0  0  0  0  0  0  0  0  0  0  0  0
  184.5920  178.5490  146.2830 C   0  0  0  0  0  1  0  0  0  0  0  0
  187.1440  178.1200  145.8330 C   0  0  0  0  0  0  0  0  0  0  0  0
  1 15  1  6  0  0  0
  1 40  1  0  0  0  0
  2  4  1  0  0  0  0
  3  2  2  0  0  0  0
  4  1  1  0  0  0  0
  5  6  1  0  0  0  0
  5  2  1  0  0  0  0
  6  7  1  0  0  0  0
  7 10  2  0  0  0  0
  7  8  1  0  0  0  0
  8 11  1  0  0  0  0
  9  6  1  0  0  0  0
 12 11  1  0  0  0  0
 12 13  1  0  0  0  0
 14 13  1  0  0  0  0
 15 17  1  0  0  0  0
 16 19  1  0  0  0  0
 17 20  1  6  0  0  0
 17 18  1  0  0  0  0
 17 16  1  0  0  0  0
 18 25  1  6  0  0  0
 18 19  1  0  0  0  0
 19 21  1  6  0  0  0
 22 23  1  0  0  0  0
 23 25  1  0  0  0  0
 23 24  2  0  0  0  0
 26 22  1  0  0  0  0
 27 28  1  0  0  0  0
 27 26  1  0  0  0  0
 29 30  1  6  0  0  0
 29 33  1  0  0  0  0
 29 28  1  0  0  0  0
 32 31  1  0  0  0  0
 32 29  1  0  0  0  0
 33 34  1  6  0  0  0
 35 37  1  0  0  0  0
 35 33  1  0  0  0  0
 36 38  2  0  0  0  0
 38 39  1  0  0  0  0
 38 37  1  0  0  0  0
 40 41  1  0  0  0  0
 41 42  1  0  0  0  0
 42 46  1  0  0  0  0
 43 46  1  0  0  0  0
 43 50  1  0  0  0  0
 45 53  1  0  0  0  0
 45 52  1  0  0  0  0
 46 45  2  0  0  0  0
 47 49  2  0  0  0  0
 49 48  1  0  0  0  0
 49 44  1  0  0  0  0
 50 47  1  0  0  0  0
 50 53  2  0  0  0  0
 51 43  2  0  0  0  0
 53 44  1  0  0  0  0
M  END
>  <MODEL>
3

>  <REMARK>
 VINA RESULT:      -7.0      4.142      9.438
  Name = 
  21 active torsions:
  status: ('A' for Active; 'I' for Inactive)
    1  A    between atoms: C_3  and  C_21
    2  A    between atoms: C_3  and  C_41
    3  A    between atoms: C_3  and  O_51
    4  A    between atoms: N_4  and  C_32
    5  A    between atoms: C_5  and  N_28
    6  A    between atoms: C_5  and  C_33
    7  A    between atoms: O_7  and  N_11
    8  A    between atoms: O_7  and  C_41
    9  A    between atoms: C_8  and  C_44
   10  A    between atoms: N_10  and  C_44
   11  A    between atoms: C_12  and  C_15
   12  A    between atoms: C_14  and  C_33
   13  A    between atoms: C_15  and  C_39
   14  A    between atoms: C_20  and  C_45
   15  A    between atoms: C_22  and  N_46
   16  A    between atoms: C_25  and  C_32
   17  A    between atoms: C_25  and  O_51
   18  A    between atoms: C_37  and  C_39
   19  A    between atoms: C_37  and  O_53
   20  A    between atoms: C_39  and  N_42
   21  A    between atoms: C_45  and  O_53
                            x       y       z     vdW  Elec       q    Type
                         _______ _______ _______ _____ _____    ______ ____

>  <TORSDO>
F 21

$$$$
=
 OpenBabel10222417523D

 53 55  0  0  1  0  0  0  0  0999 V2000
  188.9590  177.0700  138.5770 C   0  0  2  0  0  3  0  0  0  0  0  0
  190.2640  177.2150  140.7300 C   0  0  0  0  0  0  0  0  0  0  0  0
  190.6290  176.0150  140.6250 O   0  0  0  0  0  0  0  0  0  0  0  0
  189.4980  177.8310  139.6950 N   0  0  0  0  0  2  0  0  0  0  0  0
  190.6270  178.0030  141.9430 C   0  0  0  0  0  2  0  0  0  0  0  0
  190.0290  177.4070  143.1310 N   0  0  0  0  0  0  0  0  0  0  0  0
  188.6280  177.5610  143.3960 C   0  0  0  0  0  0  0  0  0  0  0  0
  188.0830  177.1250  144.6480 N   0  0  0  0  0  2  0  0  0  0  0  0
  190.8850  176.6960  144.0690 C   0  0  0  0  0  1  0  0  0  0  0  0
  187.8760  178.0790  142.5270 O   0  0  0  0  0  0  0  0  0  0  0  0
  186.6670  177.2370  144.9660 C   0  0  0  0  0  2  0  0  0  0  0  0
  186.4700  177.9300  146.3100 C   0  0  0  0  0  2  0  0  0  0  0  0
  185.6250  179.1880  146.1540 C   0  0  0  0  0  2  0  0  0  0  0  0
  184.2150  178.8460  146.0950 N   0  0  0  0  0  1  0  0  0  0  0  0
  189.4630  177.6530  137.2640 C   0  0  0  0  0  2  0  0  0  0  0  0
  189.3390  175.2930  136.5170 N   0  0  0  0  0  2  0  0  0  0  0  0
  190.0340  176.5650  136.3600 C   0  0  2  0  0  0  0  0  0  0  0  0
  191.3540  176.0170  136.8840 C   0  0  1  0  0  3  0  0  0  0  0  0
  190.5750  174.7110  137.0330 C   0  0  2  0  0  3  0  0  0  0  0  0
  190.0720  176.9580  135.0170 O   0  0  0  0  0  1  0  0  0  0  0  0
  191.0240  173.7160  136.1610 O   0  0  0  0  0  1  0  0  0  0  0  0
  194.7010  176.0720  135.0360 N   0  0  0  0  0  2  0  0  0  0  0  0
  193.7580  176.1680  136.1040 C   0  0  0  0  0  0  0  0  0  0  0  0
  194.1440  176.4530  137.2730 O   0  0  0  0  0  0  0  0  0  0  0  0
  192.3750  175.9380  135.8380 N   0  0  0  0  0  2  0  0  0  0  0  0
  196.1270  176.2370  135.2550 C   0  0  0  0  0  2  0  0  0  0  0  0
  196.8240  174.8930  135.1440 C   0  0  0  0  0  2  0  0  0  0  0  0
  195.8880  173.8480  135.2830 O   0  0  0  0  0  0  0  0  0  0  0  0
  196.4830  172.7180  135.9050 C   0  0  2  0  0  0  0  0  0  0  0  0
  197.7540  173.1120  136.3300 O   0  0  0  0  0  1  0  0  0  0  0  0
  196.7090  170.3240  135.5530 O   0  0  0  0  0  1  0  0  0  0  0  0
  196.6670  171.5580  134.9010 C   0  0  0  0  0  2  0  0  0  0  0  0
  195.6800  172.2830  137.1570 C   0  0  2  0  0  3  0  0  0  0  0  0
  194.4560  172.9580  137.2280 O   0  0  0  0  0  1  0  0  0  0  0  0
  196.4020  172.5080  138.3370 O   0  0  0  0  0  0  0  0  0  0  0  0
  197.6060  174.8970  139.2450 O   0  0  0  0  0  0  0  0  0  0  0  0
  195.6750  173.4210  139.0280 N   0  0  0  0  0  2  0  0  0  0  0  0
  196.2610  174.6420  139.4740 C   0  0  0  0  0  0  0  0  0  0  0  0
  195.5600  175.4870  140.0810 O   0  0  0  0  0  1  0  0  0  0  0  0
  187.4340  177.0750  138.6170 C   0  0  0  0  0  2  0  0  0  0  0  0
  186.9370  178.3750  138.5010 O   0  0  0  0  0  0  0  0  0  0  0  0
  185.9910  178.3090  137.4790 C   0  0  0  0  0  2  0  0  0  0  0  0
  184.1250  179.0850  139.1860 C   0  0  0  0  0  0  0  0  0  0  0  0
  181.2130  176.7170  139.1440 S   0  0  0  0  0  0  0  0  0  0  0  0
  183.6540  177.3910  137.7090 C   0  0  0  0  0  0  0  0  0  0  0  0
  184.6090  178.2830  138.0450 C   0  0  0  0  0  0  0  0  0  0  0  0
  182.0130  178.7010  140.5650 N   0  0  0  0  0  0  0  0  0  0  0  0
  180.0190  177.5550  141.5540 C   0  0  0  0  0  1  0  0  0  0  0  0
  181.0430  177.7460  140.4940 C   0  0  0  0  0  0  0  0  0  0  0  0
  182.7860  178.6120  139.4590 C   0  0  0  0  0  0  0  0  0  0  0  0
  184.7630  179.9600  139.8290 O   0  0  0  0  0  0  0  0  0  0  0  0
  183.7870  176.2970  136.7130 C   0  0  0  0  0  1  0  0  0  0  0  0
  182.5140  177.6190  138.5920 C   0  0  0  0  0  0  0  0  0  0  0  0
  1 15  1  6  0  0  0
  1 40  1  0  0  0  0
  1  4  1  0  0  0  0
  2  5  1  0  0  0  0
  3  2  2  0  0  0  0
  4  2  1  0  0  0  0
  5  6  1  0  0  0  0
  6  7  1  0  0  0  0
  6  9  1  0  0  0  0
  7  8  1  0  0  0  0
  8 11  1  0  0  0  0
 10  7  2  0  0  0  0
 11 12  1  0  0  0  0
 13 12  1  0  0  0  0
 14 13  1  0  0  0  0
 16 19  1  0  0  0  0
 17 20  1  6  0  0  0
 17 16  1  0  0  0  0
 17 18  1  0  0  0  0
 17 15  1  0  0  0  0
 18 25  1  6  0  0  0
 18 19  1  0  0  0  0
 19 21  1  6  0  0  0
 22 26  1  0  0  0  0
 22 23  1  0  0  0  0
 23 24  2  0  0  0  0
 25 23  1  0  0  0  0
 27 26  1  0  0  0  0
 27 28  1  0  0  0  0
 28 29  1  0  0  0  0
 29 30  1  1  0  0  0
 29 33  1  0  0  0  0
 32 31  1  0  0  0  0
 32 29  1  0  0  0  0
 33 34  1  1  0  0  0
 33 35  1  0  0  0  0
 35 37  1  0  0  0  0
 36 38  2  0  0  0  0
 37 38  1  0  0  0  0
 38 39  1  0  0  0  0
 41 40  1  0  0  0  0
 42 46  1  0  0  0  0
 42 41  1  0  0  0  0
 43 50  1  0  0  0  0
 43 51  2  0  0  0  0
 44 49  1  0  0  0  0
 45 46  2  0  0  0  0
 45 53  1  0  0  0  0
 46 43  1  0  0  0  0
 49 47  2  0  0  0  0
 49 48  1  0  0  0  0
 50 47  1  0  0  0  0
 52 45  1  0  0  0  0
 53 44  1  0  0  0  0
 53 50  2  0  0  0  0
M  END
>  <MODEL>
4

>  <REMARK>
 VINA RESULT:      -6.9      2.434      4.999
  Name = 
  21 active torsions:
  status: ('A' for Active; 'I' for Inactive)
    1  A    between atoms: C_3  and  C_21
    2  A    between atoms: C_3  and  C_41
    3  A    between atoms: C_3  and  O_51
    4  A    between atoms: N_4  and  C_32
    5  A    between atoms: C_5  and  N_28
    6  A    between atoms: C_5  and  C_33
    7  A    between atoms: O_7  and  N_11
    8  A    between atoms: O_7  and  C_41
    9  A    between atoms: C_8  and  C_44
   10  A    between atoms: N_10  and  C_44
   11  A    between atoms: C_12  and  C_15
   12  A    between atoms: C_14  and  C_33
   13  A    between atoms: C_15  and  C_39
   14  A    between atoms: C_20  and  C_45
   15  A    between atoms: C_22  and  N_46
   16  A    between atoms: C_25  and  C_32
   17  A    between atoms: C_25  and  O_51
   18  A    between atoms: C_37  and  C_39
   19  A    between atoms: C_37  and  O_53
   20  A    between atoms: C_39  and  N_42
   21  A    between atoms: C_45  and  O_53
                            x       y       z     vdW  Elec       q    Type
                         _______ _______ _______ _____ _____    ______ ____

>  <TORSDO>
F 21

$$$$
=
 OpenBabel10222417523D

 53 55  0  0  1  0  0  0  0  0999 V2000
  190.1490  176.8120  138.7850 C   0  0  2  0  0  3  0  0  0  0  0  0
  191.2180  174.9150  137.5130 C   0  0  0  0  0  0  0  0  0  0  0  0
  190.2190  174.1760  137.7160 O   0  0  0  0  0  0  0  0  0  0  0  0
  191.2110  176.2750  137.9460 N   0  0  0  0  0  2  0  0  0  0  0  0
  192.4200  174.3720  136.8170 C   0  0  0  0  0  2  0  0  0  0  0  0
  193.6210  175.0610  137.2740 N   0  0  0  0  0  0  0  0  0  0  0  0
  194.6210  174.3610  138.0260 C   0  0  0  0  0  0  0  0  0  0  0  0
  195.7080  175.0820  138.6200 N   0  0  0  0  0  2  0  0  0  0  0  0
  193.7650  176.4830  136.9970 C   0  0  0  0  0  1  0  0  0  0  0  0
  194.5430  173.1100  138.1650 O   0  0  0  0  0  0  0  0  0  0  0  0
  196.7620  174.4230  139.3770 C   0  0  0  0  0  2  0  0  0  0  0  0
  197.7810  175.4420  139.8800 C   0  0  0  0  0  2  0  0  0  0  0  0
  197.5740  175.7310  141.3610 C   0  0  0  0  0  2  0  0  0  0  0  0
  198.5820  175.0490  142.1540 N   0  0  0  0  0  1  0  0  0  0  0  0
  189.3790  177.8820  138.0240 C   0  0  0  0  0  2  0  0  0  0  0  0
  188.0130  177.4080  136.0120 N   0  0  0  0  0  2  0  0  0  0  0  0
  188.0710  177.3300  137.4670 C   0  0  2  0  0  0  0  0  0  0  0  0
  186.9100  178.2960  137.6600 C   0  0  1  0  0  3  0  0  0  0  0  0
  186.8980  178.3450  136.1330 C   0  0  2  0  0  3  0  0  0  0  0  0
  187.8110  176.0300  137.9130 O   0  0  0  0  0  1  0  0  0  0  0  0
  185.7460  177.7750  135.5870 O   0  0  0  0  0  1  0  0  0  0  0  0
  183.7050  177.5730  139.6160 N   0  0  0  0  0  2  0  0  0  0  0  0
  184.8470  178.2780  139.1280 C   0  0  0  0  0  0  0  0  0  0  0  0
  185.0790  179.4600  139.5090 O   0  0  0  0  0  0  0  0  0  0  0  0
  185.7240  177.6340  138.2030 N   0  0  0  0  0  2  0  0  0  0  0  0
  182.7460  178.1950  140.5110 C   0  0  0  0  0  2  0  0  0  0  0  0
  181.4200  178.3820  139.7960 C   0  0  0  0  0  2  0  0  0  0  0  0
  180.8850  179.6540  140.0920 O   0  0  0  0  0  0  0  0  0  0  0  0
  180.5050  180.3290  138.9010 C   0  0  2  0  0  0  0  0  0  0  0  0
  179.4850  179.5740  138.3150 O   0  0  0  0  0  1  0  0  0  0  0  0
  181.2370  180.1460  136.5910 O   0  0  0  0  0  1  0  0  0  0  0  0
  181.6760  180.3900  137.8940 C   0  0  0  0  0  2  0  0  0  0  0  0
  179.9320  181.7340  139.2150 C   0  0  2  0  0  3  0  0  0  0  0  0
  179.3910  181.7790  140.5050 O   0  0  0  0  0  1  0  0  0  0  0  0
  178.9510  182.1110  138.2880 O   0  0  0  0  0  0  0  0  0  0  0  0
  179.3690  182.7540  135.5690 O   0  0  0  0  0  0  0  0  0  0  0  0
  179.2750  183.3770  137.9260 N   0  0  0  0  0  2  0  0  0  0  0  0
  179.4680  183.7240  136.5570 C   0  0  0  0  0  0  0  0  0  0  0  0
  179.7320  184.9100  136.2430 O   0  0  0  0  0  1  0  0  0  0  0  0
  190.7290  177.3830  140.0760 C   0  0  0  0  0  2  0  0  0  0  0  0
  189.7140  177.8620  140.9080 O   0  0  0  0  0  0  0  0  0  0  0  0
  189.0070  176.7260  141.3020 C   0  0  0  0  0  2  0  0  0  0  0  0
  187.5080  177.2560  143.4180 C   0  0  0  0  0  0  0  0  0  0  0  0
  189.5650  177.1930  146.5560 S   0  0  0  0  0  0  0  0  0  0  0  0
  189.6570  176.5110  143.7280 C   0  0  0  0  0  0  0  0  0  0  0  0
  188.7400  176.7610  142.7720 C   0  0  0  0  0  0  0  0  0  0  0  0
  187.1890  177.8850  145.8700 N   0  0  0  0  0  0  0  0  0  0  0  0
  187.7290  178.5230  148.2290 C   0  0  0  0  0  1  0  0  0  0  0  0
  188.0480  177.8810  146.9270 C   0  0  0  0  0  0  0  0  0  0  0  0
  187.7720  177.2320  144.8390 C   0  0  0  0  0  0  0  0  0  0  0  0
  186.4620  177.6700  142.8500 O   0  0  0  0  0  0  0  0  0  0  0  0
  191.0780  176.1390  143.5050 C   0  0  0  0  0  1  0  0  0  0  0  0
  189.0330  176.7950  145.0170 C   0  0  0  0  0  0  0  0  0  0  0  0
  1 15  1  6  0  0  0
  1 40  1  0  0  0  0
  2  3  2  0  0  0  0
  2  4  1  0  0  0  0
  4  1  1  0  0  0  0
  5  6  1  0  0  0  0
  5  2  1  0  0  0  0
  6  7  1  0  0  0  0
  7 10  2  0  0  0  0
  7  8  1  0  0  0  0
  8 11  1  0  0  0  0
  9  6  1  0  0  0  0
 11 12  1  0  0  0  0
 12 13  1  0  0  0  0
 13 14  1  0  0  0  0
 16 19  1  0  0  0  0
 16 17  1  0  0  0  0
 17 18  1  0  0  0  0
 17 20  1  1  0  0  0
 17 15  1  0  0  0  0
 18 25  1  6  0  0  0
 19 21  1  6  0  0  0
 19 18  1  0  0  0  0
 22 26  1  0  0  0  0
 23 24  2  0  0  0  0
 23 22  1  0  0  0  0
 25 23  1  0  0  0  0
 27 28  1  0  0  0  0
 27 26  1  0  0  0  0
 29 30  1  6  0  0  0
 29 33  1  0  0  0  0
 29 28  1  0  0  0  0
 31 32  1  0  0  0  0
 32 29  1  0  0  0  0
 33 34  1  1  0  0  0
 35 33  1  0  0  0  0
 36 38  2  0  0  0  0
 37 35  1  0  0  0  0
 38 37  1  0  0  0  0
 39 38  1  0  0  0  0
 40 41  1  0  0  0  0
 41 42  1  0  0  0  0
 42 46  1  0  0  0  0
 43 50  1  0  0  0  0
 44 49  1  0  0  0  0
 45 53  1  0  0  0  0
 46 43  1  0  0  0  0
 46 45  2  0  0  0  0
 47 49  2  0  0  0  0
 49 48  1  0  0  0  0
 50 53  2  0  0  0  0
 50 47  1  0  0  0  0
 51 43  2  0  0  0  0
 52 45  1  0  0  0  0
 53 44  1  0  0  0  0
M  END
>  <MODEL>
5

>  <REMARK>
 VINA RESULT:      -6.8      3.728     11.535
  Name = 
  21 active torsions:
  status: ('A' for Active; 'I' for Inactive)
    1  A    between atoms: C_3  and  C_21
    2  A    between atoms: C_3  and  C_41
    3  A    between atoms: C_3  and  O_51
    4  A    between atoms: N_4  and  C_32
    5  A    between atoms: C_5  and  N_28
    6  A    between atoms: C_5  and  C_33
    7  A    between atoms: O_7  and  N_11
    8  A    between atoms: O_7  and  C_41
    9  A    between atoms: C_8  and  C_44
   10  A    between atoms: N_10  and  C_44
   11  A    between atoms: C_12  and  C_15
   12  A    between atoms: C_14  and  C_33
   13  A    between atoms: C_15  and  C_39
   14  A    between atoms: C_20  and  C_45
   15  A    between atoms: C_22  and  N_46
   16  A    between atoms: C_25  and  C_32
   17  A    between atoms: C_25  and  O_51
   18  A    between atoms: C_37  and  C_39
   19  A    between atoms: C_37  and  O_53
   20  A    between atoms: C_39  and  N_42
   21  A    between atoms: C_45  and  O_53
                            x       y       z     vdW  Elec       q    Type
                         _______ _______ _______ _____ _____    ______ ____

>  <TORSDO>
F 21

$$$$
=
 OpenBabel10222417523D

 53 55  0  0  1  0  0  0  0  0999 V2000
  189.8360  176.9190  140.1020 C   0  0  2  0  0  3  0  0  0  0  0  0
  191.3090  176.3310  138.1420 C   0  0  0  0  0  0  0  0  0  0  0  0
  191.2200  177.5010  137.6850 O   0  0  0  0  0  0  0  0  0  0  0  0
  190.7120  175.9960  139.3940 N   0  0  0  0  0  2  0  0  0  0  0  0
  192.0400  175.2820  137.3740 C   0  0  0  0  0  2  0  0  0  0  0  0
  191.3040  174.9380  136.1620 N   0  0  0  0  0  0  0  0  0  0  0  0
  190.3600  173.8590  136.1660 C   0  0  0  0  0  0  0  0  0  0  0  0
  189.7750  173.4150  134.9350 N   0  0  0  0  0  2  0  0  0  0  0  0
  191.5810  175.6760  134.9380 C   0  0  0  0  0  1  0  0  0  0  0  0
  190.0460  173.3010  137.2510 O   0  0  0  0  0  0  0  0  0  0  0  0
  188.7970  172.3390  134.8780 C   0  0  0  0  0  2  0  0  0  0  0  0
  187.3870  172.8810  135.0910 C   0  0  0  0  0  2  0  0  0  0  0  0
  186.6880  172.1450  136.2270 C   0  0  0  0  0  2  0  0  0  0  0  0
  186.3200  173.0760  137.2810 N   0  0  0  0  0  1  0  0  0  0  0  0
  189.5330  176.3810  141.4940 C   0  0  0  0  0  2  0  0  0  0  0  0
  191.3050  177.5180  142.7990 N   0  0  0  0  0  2  0  0  0  0  0  0
  189.8700  177.4090  142.5690 C   0  0  2  0  0  0  0  0  0  0  0  0
  189.5880  176.8880  143.9710 C   0  0  1  0  0  3  0  0  0  0  0  0
  191.0990  177.0160  144.1560 C   0  0  2  0  0  3  0  0  0  0  0  0
  189.3050  178.6610  142.3010 O   0  0  0  0  0  1  0  0  0  0  0  0
  191.4440  178.0070  145.0790 O   0  0  0  0  0  1  0  0  0  0  0  0
  186.8520  178.5910  146.0280 N   0  0  0  0  0  2  0  0  0  0  0  0
  187.5160  177.6040  145.2380 C   0  0  0  0  0  0  0  0  0  0  0  0
  186.9350  176.5220  144.9470 O   0  0  0  0  0  0  0  0  0  0  0  0
  188.8450  177.8540  144.7810 N   0  0  0  0  0  2  0  0  0  0  0  0
  185.5230  178.3700  146.5710 C   0  0  0  0  0  2  0  0  0  0  0  0
  184.4860  179.0290  145.6790 C   0  0  0  0  0  2  0  0  0  0  0  0
  184.0420  178.1190  144.6970 O   0  0  0  0  0  0  0  0  0  0  0  0
  183.8100  178.7830  143.4630 C   0  0  2  0  0  0  0  0  0  0  0  0
  184.1940  177.9000  142.4500 O   0  0  0  0  0  1  0  0  0  0  0  0
  185.7000  179.8700  142.3900 O   0  0  0  0  0  1  0  0  0  0  0  0
  184.6880  180.0490  143.3350 C   0  0  0  0  0  2  0  0  0  0  0  0
  182.3050  179.0960  143.2710 C   0  0  2  0  0  3  0  0  0  0  0  0
  181.5680  178.7310  144.4040 O   0  0  0  0  0  1  0  0  0  0  0  0
  181.7800  178.4440  142.1480 O   0  0  0  0  0  0  0  0  0  0  0  0
  178.9600  178.3270  142.2700 O   0  0  0  0  0  1  0  0  0  0  0  0
  181.0290  179.3780  141.5150 N   0  0  0  0  0  2  0  0  0  0  0  0
  179.6050  179.3470  141.5840 C   0  0  0  0  0  0  0  0  0  0  0  0
  178.9310  180.2420  141.0200 O   0  0  0  0  0  0  0  0  0  0  0  0
  188.5450  177.1360  139.3170 C   0  0  0  0  0  2  0  0  0  0  0  0
  188.3180  178.4960  139.0990 O   0  0  0  0  0  0  0  0  0  0  0  0
  187.8440  178.5760  137.7900 C   0  0  0  0  0  2  0  0  0  0  0  0
  185.3390  178.4630  138.6350 C   0  0  0  0  0  0  0  0  0  0  0  0
  183.5410  175.5560  137.0850 S   0  0  0  0  0  0  0  0  0  0  0  0
  185.9970  177.1070  136.9030 C   0  0  0  0  0  0  0  0  0  0  0  0
  186.4320  178.0920  137.7150 C   0  0  0  0  0  0  0  0  0  0  0  0
  183.1010  177.2760  138.9410 N   0  0  0  0  0  0  0  0  0  0  0  0
  181.3470  175.4920  138.8520 C   0  0  0  0  0  1  0  0  0  0  0  0
  182.5750  176.1650  138.3520 C   0  0  0  0  0  0  0  0  0  0  0  0
  184.2130  177.6370  138.2610 C   0  0  0  0  0  0  0  0  0  0  0  0
  185.3890  179.2840  139.5890 O   0  0  0  0  0  0  0  0  0  0  0  0
  186.8200  176.3440  135.9300 C   0  0  0  0  0  1  0  0  0  0  0  0
  184.6020  176.8440  137.2450 C   0  0  0  0  0  0  0  0  0  0  0  0
  1 40  1  6  0  0  0
  1 15  1  0  0  0  0
  2  4  1  0  0  0  0
  3  2  2  0  0  0  0
  4  1  1  0  0  0  0
  5  2  1  0  0  0  0
  6  7  1  0  0  0  0
  6  5  1  0  0  0  0
  7 10  2  0  0  0  0
  8  7  1  0  0  0  0
  9  6  1  0  0  0  0
 11  8  1  0  0  0  0
 11 12  1  0  0  0  0
 12 13  1  0  0  0  0
 13 14  1  0  0  0  0
 15 17  1  0  0  0  0
 16 19  1  0  0  0  0
 17 20  1  6  0  0  0
 17 16  1  0  0  0  0
 17 18  1  0  0  0  0
 18 19  1  0  0  0  0
 18 25  1  1  0  0  0
 19 21  1  1  0  0  0
 22 26  1  0  0  0  0
 23 22  1  0  0  0  0
 24 23  2  0  0  0  0
 25 23  1  0  0  0  0
 27 26  1  0  0  0  0
 28 27  1  0  0  0  0
 29 30  1  6  0  0  0
 29 28  1  0  0  0  0
 31 32  1  0  0  0  0
 32 29  1  0  0  0  0
 33 29  1  0  0  0  0
 33 34  1  1  0  0  0
 35 33  1  0  0  0  0
 37 38  1  0  0  0  0
 37 35  1  0  0  0  0
 38 36  1  0  0  0  0
 39 38  2  0  0  0  0
 41 40  1  0  0  0  0
 42 41  1  0  0  0  0
 43 51  2  0  0  0  0
 44 53  1  0  0  0  0
 44 49  1  0  0  0  0
 45 53  1  0  0  0  0
 45 46  2  0  0  0  0
 46 42  1  0  0  0  0
 46 43  1  0  0  0  0
 49 48  1  0  0  0  0
 49 47  2  0  0  0  0
 50 43  1  0  0  0  0
 50 47  1  0  0  0  0
 52 45  1  0  0  0  0
 53 50  2  0  0  0  0
M  END
>  <MODEL>
6

>  <REMARK>
 VINA RESULT:      -6.5      3.153     10.061
  Name = 
  21 active torsions:
  status: ('A' for Active; 'I' for Inactive)
    1  A    between atoms: C_3  and  C_21
    2  A    between atoms: C_3  and  C_41
    3  A    between atoms: C_3  and  O_51
    4  A    between atoms: N_4  and  C_32
    5  A    between atoms: C_5  and  N_28
    6  A    between atoms: C_5  and  C_33
    7  A    between atoms: O_7  and  N_11
    8  A    between atoms: O_7  and  C_41
    9  A    between atoms: C_8  and  C_44
   10  A    between atoms: N_10  and  C_44
   11  A    between atoms: C_12  and  C_15
   12  A    between atoms: C_14  and  C_33
   13  A    between atoms: C_15  and  C_39
   14  A    between atoms: C_20  and  C_45
   15  A    between atoms: C_22  and  N_46
   16  A    between atoms: C_25  and  C_32
   17  A    between atoms: C_25  and  O_51
   18  A    between atoms: C_37  and  C_39
   19  A    between atoms: C_37  and  O_53
   20  A    between atoms: C_39  and  N_42
   21  A    between atoms: C_45  and  O_53
                            x       y       z     vdW  Elec       q    Type
                         _______ _______ _______ _____ _____    ______ ____

>  <TORSDO>
F 21

$$$$
=
 OpenBabel10222417523D

 53 55  0  0  1  0  0  0  0  0999 V2000
  186.9060  178.1260  142.2050 C   0  0  2  0  0  3  0  0  0  0  0  0
  186.9530  177.7800  144.7030 C   0  0  0  0  0  0  0  0  0  0  0  0
  187.0530  176.5330  144.5590 O   0  0  0  0  0  0  0  0  0  0  0  0
  186.9630  178.6420  143.5660 N   0  0  0  0  0  2  0  0  0  0  0  0
  186.8220  178.3660  146.0680 C   0  0  0  0  0  2  0  0  0  0  0  0
  187.7740  177.7430  146.9790 N   0  0  0  0  0  0  0  0  0  0  0  0
  189.1690  177.6950  146.6520 C   0  0  0  0  0  0  0  0  0  0  0  0
  190.0700  176.9300  147.4630 N   0  0  0  0  0  2  0  0  0  0  0  0
  187.2790  177.1280  148.2020 C   0  0  0  0  0  1  0  0  0  0  0  0
  189.6040  178.3250  145.6510 O   0  0  0  0  0  0  0  0  0  0  0  0
  191.4980  176.8590  147.1930 C   0  0  0  0  0  2  0  0  0  0  0  0
  191.9860  175.4150  147.2480 C   0  0  0  0  0  2  0  0  0  0  0  0
  192.4290  174.9380  145.8710 C   0  0  0  0  0  2  0  0  0  0  0  0
  191.8340  175.7650  144.8350 N   0  0  0  0  0  1  0  0  0  0  0  0
  188.1480  178.5530  141.4370 C   0  0  0  0  0  2  0  0  0  0  0  0
  190.2530  177.8980  142.5690 N   0  0  0  0  0  2  0  0  0  0  0  0
  189.2620  177.5200  141.5690 C   0  0  2  0  0  0  0  0  0  0  0  0
  190.2560  177.5950  140.4180 C   0  0  1  0  0  3  0  0  0  0  0  0
  191.2510  177.9930  141.5070 C   0  0  2  0  0  3  0  0  0  0  0  0
  188.7660  176.2340  141.8110 O   0  0  0  0  0  1  0  0  0  0  0  0
  192.2420  177.0290  141.7070 O   0  0  0  0  0  1  0  0  0  0  0  0
  190.7560  174.7000  137.9720 N   0  0  0  0  0  2  0  0  0  0  0  0
  190.4520  176.0080  138.4540 C   0  0  0  0  0  0  0  0  0  0  0  0
  190.1010  176.9190  137.6530 O   0  0  0  0  0  0  0  0  0  0  0  0
  190.5490  176.2770  139.8530 N   0  0  0  0  0  2  0  0  0  0  0  0
  190.7320  174.3810  136.5550 C   0  0  0  0  0  2  0  0  0  0  0  0
  191.9040  173.4800  136.2100 C   0  0  0  0  0  2  0  0  0  0  0  0
  192.9220  173.6160  137.1760 O   0  0  0  0  0  0  0  0  0  0  0  0
  194.1730  173.8780  136.5560 C   0  0  2  0  0  0  0  0  0  0  0  0
  193.8980  174.5090  135.3400 O   0  0  0  0  0  1  0  0  0  0  0  0
  195.1840  172.4460  134.8740 O   0  0  0  0  0  1  0  0  0  0  0  0
  194.9270  172.5670  136.2410 C   0  0  0  0  0  2  0  0  0  0  0  0
  195.0260  174.8500  137.4100 C   0  0  2  0  0  3  0  0  0  0  0  0
  196.0170  175.4620  136.6350 O   0  0  0  0  0  1  0  0  0  0  0  0
  195.6250  174.1950  138.4940 O   0  0  0  0  0  0  0  0  0  0  0  0
  196.8230  175.6530  140.5980 O   0  0  0  0  0  1  0  0  0  0  0  0
  196.9360  174.5340  138.4320 N   0  0  0  0  0  2  0  0  0  0  0  0
  197.5620  175.2500  139.4940 C   0  0  0  0  0  0  0  0  0  0  0  0
  198.7850  175.5220  139.4300 O   0  0  0  0  0  0  0  0  0  0  0  0
  185.6440  178.6170  141.5030 C   0  0  0  0  0  2  0  0  0  0  0  0
  185.9240  179.0070  140.1910 O   0  0  0  0  0  0  0  0  0  0  0  0
  184.6790  179.1090  139.5730 C   0  0  0  0  0  2  0  0  0  0  0  0
  183.3860  176.8820  138.9590 C   0  0  0  0  0  0  0  0  0  0  0  0
  185.2960  174.8940  136.4120 S   0  0  0  0  0  0  0  0  0  0  0  0
  185.2080  177.5000  137.7050 C   0  0  0  0  0  0  0  0  0  0  0  0
  184.4180  177.9100  138.7190 C   0  0  0  0  0  0  0  0  0  0  0  0
  183.2460  174.5550  137.9230 N   0  0  0  0  0  0  0  0  0  0  0  0
  183.9280  172.4530  136.7470 C   0  0  0  0  0  1  0  0  0  0  0  0
  184.0530  173.9050  137.0380 C   0  0  0  0  0  0  0  0  0  0  0  0
  183.6170  175.8550  137.9680 C   0  0  0  0  0  0  0  0  0  0  0  0
  182.5210  176.8690  139.8740 O   0  0  0  0  0  0  0  0  0  0  0  0
  186.4530  178.1630  137.2390 C   0  0  0  0  0  1  0  0  0  0  0  0
  184.6850  176.2200  137.2350 C   0  0  0  0  0  0  0  0  0  0  0  0
  1 15  1  6  0  0  0
  1  4  1  0  0  0  0
  2  5  1  0  0  0  0
  3  2  2  0  0  0  0
  4  2  1  0  0  0  0
  5  6  1  0  0  0  0
  6  9  1  0  0  0  0
  7  6  1  0  0  0  0
  7  8  1  0  0  0  0
 10  7  2  0  0  0  0
 11 12  1  0  0  0  0
 11  8  1  0  0  0  0
 13 12  1  0  0  0  0
 14 13  1  0  0  0  0
 15 17  1  0  0  0  0
 17 20  1  1  0  0  0
 17 16  1  0  0  0  0
 18 25  1  1  0  0  0
 18 19  1  0  0  0  0
 18 17  1  0  0  0  0
 19 21  1  1  0  0  0
 19 16  1  0  0  0  0
 22 23  1  0  0  0  0
 23 25  1  0  0  0  0
 24 23  2  0  0  0  0
 26 22  1  0  0  0  0
 27 26  1  0  0  0  0
 27 28  1  0  0  0  0
 29 30  1  6  0  0  0
 29 28  1  0  0  0  0
 29 33  1  0  0  0  0
 31 32  1  0  0  0  0
 32 29  1  0  0  0  0
 33 34  1  6  0  0  0
 33 35  1  0  0  0  0
 37 35  1  0  0  0  0
 37 38  1  0  0  0  0
 38 36  1  0  0  0  0
 39 38  2  0  0  0  0
 40  1  1  0  0  0  0
 41 40  1  0  0  0  0
 42 41  1  0  0  0  0
 43 51  2  0  0  0  0
 44 49  1  0  0  0  0
 44 53  1  0  0  0  0
 45 46  2  0  0  0  0
 46 43  1  0  0  0  0
 46 42  1  0  0  0  0
 47 50  1  0  0  0  0
 48 49  1  0  0  0  0
 49 47  2  0  0  0  0
 50 43  1  0  0  0  0
 52 45  1  0  0  0  0
 53 45  1  0  0  0  0
 53 50  2  0  0  0  0
M  END
>  <MODEL>
7

>  <REMARK>
 VINA RESULT:      -6.5      1.434      1.843
  Name = 
  21 active torsions:
  status: ('A' for Active; 'I' for Inactive)
    1  A    between atoms: C_3  and  C_21
    2  A    between atoms: C_3  and  C_41
    3  A    between atoms: C_3  and  O_51
    4  A    between atoms: N_4  and  C_32
    5  A    between atoms: C_5  and  N_28
    6  A    between atoms: C_5  and  C_33
    7  A    between atoms: O_7  and  N_11
    8  A    between atoms: O_7  and  C_41
    9  A    between atoms: C_8  and  C_44
   10  A    between atoms: N_10  and  C_44
   11  A    between atoms: C_12  and  C_15
   12  A    between atoms: C_14  and  C_33
   13  A    between atoms: C_15  and  C_39
   14  A    between atoms: C_20  and  C_45
   15  A    between atoms: C_22  and  N_46
   16  A    between atoms: C_25  and  C_32
   17  A    between atoms: C_25  and  O_51
   18  A    between atoms: C_37  and  C_39
   19  A    between atoms: C_37  and  O_53
   20  A    between atoms: C_39  and  N_42
   21  A    between atoms: C_45  and  O_53
                            x       y       z     vdW  Elec       q    Type
                         _______ _______ _______ _____ _____    ______ ____

>  <TORSDO>
F 21

$$$$
=
 OpenBabel10222417523D

 53 55  0  0  1  0  0  0  0  0999 V2000
  185.9210  178.1190  142.2210 C   0  0  2  0  0  3  0  0  0  0  0  0
  185.1010  178.9370  144.4610 C   0  0  0  0  0  0  0  0  0  0  0  0
  185.0870  180.1290  144.0550 O   0  0  0  0  0  0  0  0  0  0  0  0
  185.4240  177.8730  143.5680 N   0  0  0  0  0  2  0  0  0  0  0  0
  184.7800  178.6300  145.8850 C   0  0  0  0  0  2  0  0  0  0  0  0
  185.9660  178.7930  146.7170 N   0  0  0  0  0  0  0  0  0  0  0  0
  186.9990  177.7990  146.7140 C   0  0  0  0  0  0  0  0  0  0  0  0
  188.0730  177.8790  147.6610 N   0  0  0  0  0  2  0  0  0  0  0  0
  186.0600  179.9560  147.5860 C   0  0  0  0  0  1  0  0  0  0  0  0
  186.9630  176.8560  145.8790 O   0  0  0  0  0  0  0  0  0  0  0  0
  189.1590  176.9110  147.6930 C   0  0  0  0  0  2  0  0  0  0  0  0
  190.2780  177.3260  146.7430 C   0  0  0  0  0  2  0  0  0  0  0  0
  191.4660  176.3790  146.8570 C   0  0  0  0  0  2  0  0  0  0  0  0
  192.1910  176.6250  148.0920 N   0  0  0  0  0  1  0  0  0  0  0  0
  187.2860  178.7870  142.2870 C   0  0  0  0  0  2  0  0  0  0  0  0
  189.1710  177.9420  143.6540 N   0  0  0  0  0  2  0  0  0  0  0  0
  188.4000  177.7560  142.4310 C   0  0  2  0  0  0  0  0  0  0  0  0
  189.5860  178.0580  141.5250 C   0  0  1  0  0  3  0  0  0  0  0  0
  190.3440  178.2470  142.8380 C   0  0  2  0  0  3  0  0  0  0  0  0
  187.9240  176.4440  142.3290 O   0  0  0  0  0  1  0  0  0  0  0  0
  191.3210  177.2690  143.0380 O   0  0  0  0  0  1  0  0  0  0  0  0
  190.5550  175.6580  138.7110 N   0  0  0  0  0  2  0  0  0  0  0  0
  190.1030  176.8450  139.3640 C   0  0  0  0  0  0  0  0  0  0  0  0
  189.7690  177.8580  138.6870 O   0  0  0  0  0  0  0  0  0  0  0  0
  190.0350  176.8760  140.7890 N   0  0  0  0  0  2  0  0  0  0  0  0
  190.7010  175.5860  137.2680 C   0  0  0  0  0  2  0  0  0  0  0  0
  191.7430  174.5430  136.9070 C   0  0  0  0  0  2  0  0  0  0  0  0
  192.6580  174.3840  137.9690 O   0  0  0  0  0  0  0  0  0  0  0  0
  193.9680  174.7560  137.5640 C   0  0  2  0  0  0  0  0  0  0  0  0
  194.0630  176.1400  137.7240 O   0  0  0  0  0  1  0  0  0  0  0  0
  195.2920  175.1550  135.5660 O   0  0  0  0  0  1  0  0  0  0  0  0
  194.2020  174.4420  136.0700 C   0  0  0  0  0  2  0  0  0  0  0  0
  195.0390  174.1010  138.4730 C   0  0  2  0  0  3  0  0  0  0  0  0
  196.2010  174.8780  138.5200 O   0  0  0  0  0  1  0  0  0  0  0  0
  195.3640  172.8080  138.0400 O   0  0  0  0  0  0  0  0  0  0  0  0
  196.6780  170.7460  136.6240 O   0  0  0  0  0  0  0  0  0  0  0  0
  196.7170  172.7940  137.9500 N   0  0  0  0  0  2  0  0  0  0  0  0
  197.3950  171.7740  137.2220 C   0  0  0  0  0  0  0  0  0  0  0  0
  198.6450  171.8010  137.1240 O   0  0  0  0  0  1  0  0  0  0  0  0
  184.9350  178.9840  141.4410 C   0  0  0  0  0  2  0  0  0  0  0  0
  183.7500  178.2870  141.1920 O   0  0  0  0  0  0  0  0  0  0  0  0
  183.3780  178.6610  139.9010 C   0  0  0  0  0  2  0  0  0  0  0  0
  182.7020  176.2960  138.9250 C   0  0  0  0  0  0  0  0  0  0  0  0
  185.4400  174.9160  136.7610 S   0  0  0  0  0  0  0  0  0  0  0  0
  184.5810  177.3420  138.1210 C   0  0  0  0  0  0  0  0  0  0  0  0
  183.5380  177.5120  138.9580 C   0  0  0  0  0  0  0  0  0  0  0  0
  183.2360  174.0800  137.7780 N   0  0  0  0  0  0  0  0  0  0  0  0
  184.5420  172.2470  136.6830 C   0  0  0  0  0  1  0  0  0  0  0  0
  184.3170  173.6670  137.0590 C   0  0  0  0  0  0  0  0  0  0  0  0
  183.3260  175.4170  137.9610 C   0  0  0  0  0  0  0  0  0  0  0  0
  181.6890  176.0460  139.6310 O   0  0  0  0  0  0  0  0  0  0  0  0
  185.7390  178.2590  137.9630 C   0  0  0  0  0  1  0  0  0  0  0  0
  184.4270  176.0330  137.4920 C   0  0  0  0  0  0  0  0  0  0  0  0
  1 40  1  1  0  0  0
  1 15  1  0  0  0  0
  1  4  1  0  0  0  0
  2  5  1  0  0  0  0
  3  2  2  0  0  0  0
  4  2  1  0  0  0  0
  5  6  1  0  0  0  0
  6  9  1  0  0  0  0
  7  6  1  0  0  0  0
  7  8  1  0  0  0  0
  8 11  1  0  0  0  0
 10  7  2  0  0  0  0
 12 13  1  0  0  0  0
 12 11  1  0  0  0  0
 13 14  1  0  0  0  0
 15 17  1  0  0  0  0
 17 20  1  6  0  0  0
 17 16  1  0  0  0  0
 18 25  1  6  0  0  0
 18 17  1  0  0  0  0
 18 19  1  0  0  0  0
 19 21  1  6  0  0  0
 19 16  1  0  0  0  0
 22 23  1  0  0  0  0
 23 25  1  0  0  0  0
 24 23  2  0  0  0  0
 26 22  1  0  0  0  0
 27 26  1  0  0  0  0
 27 28  1  0  0  0  0
 29 30  1  1  0  0  0
 29 28  1  0  0  0  0
 29 33  1  0  0  0  0
 31 32  1  0  0  0  0
 32 29  1  0  0  0  0
 33 34  1  6  0  0  0
 35 33  1  0  0  0  0
 36 38  2  0  0  0  0
 37 35  1  0  0  0  0
 38 37  1  0  0  0  0
 39 38  1  0  0  0  0
 41 40  1  0  0  0  0
 42 41  1  0  0  0  0
 43 46  1  0  0  0  0
 43 51  2  0  0  0  0
 44 49  1  0  0  0  0
 44 53  1  0  0  0  0
 45 46  2  0  0  0  0
 46 42  1  0  0  0  0
 47 50  1  0  0  0  0
 48 49  1  0  0  0  0
 49 47  2  0  0  0  0
 50 43  1  0  0  0  0
 52 45  1  0  0  0  0
 53 50  2  0  0  0  0
 53 45  1  0  0  0  0
M  END
>  <MODEL>
8

>  <REMARK>
 VINA RESULT:      -6.3      1.150      1.720
  Name = 
  21 active torsions:
  status: ('A' for Active; 'I' for Inactive)
    1  A    between atoms: C_3  and  C_21
    2  A    between atoms: C_3  and  C_41
    3  A    between atoms: C_3  and  O_51
    4  A    between atoms: N_4  and  C_32
    5  A    between atoms: C_5  and  N_28
    6  A    between atoms: C_5  and  C_33
    7  A    between atoms: O_7  and  N_11
    8  A    between atoms: O_7  and  C_41
    9  A    between atoms: C_8  and  C_44
   10  A    between atoms: N_10  and  C_44
   11  A    between atoms: C_12  and  C_15
   12  A    between atoms: C_14  and  C_33
   13  A    between atoms: C_15  and  C_39
   14  A    between atoms: C_20  and  C_45
   15  A    between atoms: C_22  and  N_46
   16  A    between atoms: C_25  and  C_32
   17  A    between atoms: C_25  and  O_51
   18  A    between atoms: C_37  and  C_39
   19  A    between atoms: C_37  and  O_53
   20  A    between atoms: C_39  and  N_42
   21  A    between atoms: C_45  and  O_53
                            x       y       z     vdW  Elec       q    Type
                         _______ _______ _______ _____ _____    ______ ____

>  <TORSDO>
F 21

$$$$
=
 OpenBabel10222417523D

 53 55  0  0  1  0  0  0  0  0999 V2000
  190.1760  176.8680  138.8970 C   0  0  2  0  0  3  0  0  0  0  0  0
  188.7200  177.9280  140.6620 C   0  0  0  0  0  0  0  0  0  0  0  0
  188.5680  178.9620  139.9590 O   0  0  0  0  0  0  0  0  0  0  0  0
  189.4410  176.8070  140.1530 N   0  0  0  0  0  2  0  0  0  0  0  0
  188.1470  177.8690  142.0380 C   0  0  0  0  0  2  0  0  0  0  0  0
  189.2160  177.8540  143.0300 N   0  0  0  0  0  0  0  0  0  0  0  0
  188.9820  177.3300  144.3440 C   0  0  0  0  0  0  0  0  0  0  0  0
  189.9780  177.4800  145.3630 N   0  0  0  0  0  2  0  0  0  0  0  0
  190.5080  178.4260  142.6800 C   0  0  0  0  0  1  0  0  0  0  0  0
  187.9000  176.7380  144.6020 O   0  0  0  0  0  0  0  0  0  0  0  0
  189.8060  176.9520  146.7080 C   0  0  0  0  0  2  0  0  0  0  0  0
  191.1290  176.9730  147.4680 C   0  0  0  0  0  2  0  0  0  0  0  0
  191.9510  175.7280  147.1630 C   0  0  0  0  0  2  0  0  0  0  0  0
  193.0620  175.6150  148.0910 N   0  0  0  0  0  1  0  0  0  0  0  0
  189.7170  175.7490  137.9740 C   0  0  0  0  0  2  0  0  0  0  0  0
  189.2130  177.7330  136.5790 N   0  0  0  0  0  2  0  0  0  0  0  0
  188.9940  176.3020  136.7510 C   0  0  2  0  0  0  0  0  0  0  0  0
  187.4990  176.4650  136.9900 C   0  0  1  0  0  3  0  0  0  0  0  0
  187.7880  177.9530  136.8070 C   0  0  2  0  0  3  0  0  0  0  0  0
  189.3110  175.5990  135.5830 O   0  0  0  0  0  1  0  0  0  0  0  0
  187.2020  178.4750  135.6510 O   0  0  0  0  0  1  0  0  0  0  0  0
  185.1800  174.2370  134.9220 N   0  0  0  0  0  2  0  0  0  0  0  0
  185.9400  174.7140  136.0320 C   0  0  0  0  0  0  0  0  0  0  0  0
  185.9400  174.0820  137.1250 O   0  0  0  0  0  0  0  0  0  0  0  0
  186.7000  175.9150  135.8950 N   0  0  0  0  0  2  0  0  0  0  0  0
  184.3420  173.0550  135.0180 C   0  0  0  0  0  2  0  0  0  0  0  0
  183.0120  173.4170  135.6550 C   0  0  0  0  0  2  0  0  0  0  0  0
  182.7370  174.7860  135.4580 O   0  0  0  0  0  0  0  0  0  0  0  0
  182.3060  175.3920  136.6680 C   0  0  2  0  0  0  0  0  0  0  0  0
  182.7540  174.5770  137.7110 O   0  0  0  0  0  1  0  0  0  0  0  0
  180.3390  176.1670  137.8670 O   0  0  0  0  0  1  0  0  0  0  0  0
  180.7630  175.4460  136.7490 C   0  0  0  0  0  2  0  0  0  0  0  0
  182.9480  176.7900  136.8510 C   0  0  2  0  0  3  0  0  0  0  0  0
  183.6080  177.1960  135.6860 O   0  0  0  0  0  1  0  0  0  0  0  0
  183.8490  176.8080  137.9240 O   0  0  0  0  0  0  0  0  0  0  0  0
  185.5250  178.9290  138.7470 O   0  0  0  0  0  0  0  0  0  0  0  0
  183.3810  177.7650  138.7640 N   0  0  0  0  0  2  0  0  0  0  0  0
  184.2060  178.8540  139.1710 C   0  0  0  0  0  0  0  0  0  0  0  0
  183.7400  179.7460  139.9200 O   0  0  0  0  0  1  0  0  0  0  0  0
  191.6770  176.7720  139.1540 C   0  0  0  0  0  2  0  0  0  0  0  0
  192.2250  175.6710  138.4910 O   0  0  0  0  0  0  0  0  0  0  0  0
  193.3450  176.1720  137.8280 C   0  0  0  0  0  2  0  0  0  0  0  0
  195.3790  174.5690  138.3720 C   0  0  0  0  0  0  0  0  0  0  0  0
  196.6120  172.8780  135.2560 S   0  0  0  0  0  0  0  0  0  0  0  0
  194.4180  174.4890  136.2880 C   0  0  0  0  0  0  0  0  0  0  0  0
  194.2970  175.0670  137.5000 C   0  0  0  0  0  0  0  0  0  0  0  0
  197.3730  173.1280  137.6960 N   0  0  0  0  0  0  0  0  0  0  0  0
  199.0930  172.0050  136.2650 C   0  0  0  0  0  1  0  0  0  0  0  0
  197.7580  172.6170  136.4930 C   0  0  0  0  0  0  0  0  0  0  0  0
  196.1170  173.6150  137.5750 C   0  0  0  0  0  0  0  0  0  0  0  0
  195.6440  174.9380  139.5460 O   0  0  0  0  0  0  0  0  0  0  0  0
  193.6260  174.8190  135.0750 C   0  0  0  0  0  1  0  0  0  0  0  0
  195.5510  173.5710  136.3540 C   0  0  0  0  0  0  0  0  0  0  0  0
  1 15  1  6  0  0  0
  1 40  1  0  0  0  0
  1  4  1  0  0  0  0
  2  5  1  0  0  0  0
  3  2  2  0  0  0  0
  4  2  1  0  0  0  0
  5  6  1  0  0  0  0
  6  7  1  0  0  0  0
  7 10  2  0  0  0  0
  7  8  1  0  0  0  0
  8 11  1  0  0  0  0
  9  6  1  0  0  0  0
 11 12  1  0  0  0  0
 13 12  1  0  0  0  0
 13 14  1  0  0  0  0
 16 17  1  0  0  0  0
 16 19  1  0  0  0  0
 17 20  1  6  0  0  0
 17 18  1  0  0  0  0
 17 15  1  0  0  0  0
 18 25  1  6  0  0  0
 19 21  1  6  0  0  0
 19 18  1  0  0  0  0
 22 26  1  0  0  0  0
 22 23  1  0  0  0  0
 23 24  2  0  0  0  0
 25 23  1  0  0  0  0
 26 27  1  0  0  0  0
 28 27  1  0  0  0  0
 28 29  1  0  0  0  0
 29 32  1  0  0  0  0
 29 33  1  0  0  0  0
 29 30  1  1  0  0  0
 32 31  1  0  0  0  0
 33 34  1  6  0  0  0
 33 35  1  0  0  0  0
 35 37  1  0  0  0  0
 36 38  2  0  0  0  0
 37 38  1  0  0  0  0
 38 39  1  0  0  0  0
 41 40  1  0  0  0  0
 42 41  1  0  0  0  0
 43 51  2  0  0  0  0
 44 53  1  0  0  0  0
 44 49  1  0  0  0  0
 45 53  1  0  0  0  0
 45 46  2  0  0  0  0
 46 42  1  0  0  0  0
 46 43  1  0  0  0  0
 48 49  1  0  0  0  0
 49 47  2  0  0  0  0
 50 47  1  0  0  0  0
 50 43  1  0  0  0  0
 52 45  1  0  0  0  0
 53 50  2  0  0  0  0
M  END
>  <MODEL>
9

>  <REMARK>
 VINA RESULT:      -6.2      2.898      9.538
  Name = 
  21 active torsions:
  status: ('A' for Active; 'I' for Inactive)
    1  A    between atoms: C_3  and  C_21
    2  A    between atoms: C_3  and  C_41
    3  A    between atoms: C_3  and  O_51
    4  A    between atoms: N_4  and  C_32
    5  A    between atoms: C_5  and  N_28
    6  A    between atoms: C_5  and  C_33
    7  A    between atoms: O_7  and  N_11
    8  A    between atoms: O_7  and  C_41
    9  A    between atoms: C_8  and  C_44
   10  A    between atoms: N_10  and  C_44
   11  A    between atoms: C_12  and  C_15
   12  A    between atoms: C_14  and  C_33
   13  A    between atoms: C_15  and  C_39
   14  A    between atoms: C_20  and  C_45
   15  A    between atoms: C_22  and  N_46
   16  A    between atoms: C_25  and  C_32
   17  A    between atoms: C_25  and  O_51
   18  A    between atoms: C_37  and  C_39
   19  A    between atoms: C_37  and  O_53
   20  A    between atoms: C_39  and  N_42
   21  A    between atoms: C_45  and  O_53
                            x       y       z     vdW  Elec       q    Type
                         _______ _______ _______ _____ _____    ______ ____

>  <TORSDO>
F 21

$$$$
