=
 OpenBabel10222419483D

 33 38  0  0  1  0  0  0  0  0999 V2000
  186.9270  176.6340  137.1070 N   0  0  0  0  0  0  0  0  0  0  0  0
  188.4190  175.0350  136.2050 N   0  0  0  0  0  0  0  0  0  0  0  0
  189.8190  178.1630  139.9050 C   0  0  1  0  0  3  0  0  0  0  0  0
  188.7570  177.1850  139.4240 C   0  0  1  0  0  0  0  0  0  0  0  0
  186.3750  177.7420  143.7900 C   0  0  0  0  0  3  0  0  0  0  0  0
  186.5850  177.7150  137.9890 C   0  0  0  0  0  2  0  0  0  0  0  0
  188.3460  178.4680  140.0130 C   0  0  2  0  0  0  0  0  0  0  0  0
  190.5200  177.7410  141.2140 C   0  0  0  0  0  2  0  0  0  0  0  0
  188.1380  176.1190  137.0990 C   0  0  0  0  0  0  0  0  0  0  0  0
  189.5990  174.5070  136.0710 C   0  0  0  0  0  3  0  0  0  0  0  0
  191.2130  175.6850  139.0610 N   0  0  0  0  0  2  0  0  0  0  0  0
  187.5040  177.9130  138.9010 C   0  0  1  0  0  3  0  0  0  0  0  0
  190.3920  175.7010  138.0770 C   0  0  0  0  0  0  0  0  0  0  0  0
  189.6570  177.0200  142.1430 N   0  0  0  0  0  0  0  0  0  0  0  0
  187.6880  178.2340  141.3590 C   0  0  0  0  0  0  0  0  0  0  0  0
  187.6590  177.2370  143.5740 C   0  0  0  0  0  3  0  0  0  0  0  0
  186.4050  178.7490  141.5920 C   0  0  0  0  0  3  0  0  0  0  0  0
  188.3260  177.4940  142.3690 C   0  0  0  0  0  0  0  0  0  0  0  0
  189.2620  176.7100  138.0090 C   0  0  2  0  0  3  0  0  0  0  0  0
  190.7980  175.0290  136.8040 C   0  0  0  0  0  2  0  0  0  0  0  0
  185.7410  178.5120  142.8050 C   0  0  0  0  0  0  0  0  0  0  0  0
  184.4240  179.0350  143.0390 N   0  0  0  0  0  0  0  0  0  0  0  0
  183.3050  178.6900  142.1750 C   0  0  0  0  0  1  0  0  0  0  0  0
  184.2000  179.8710  144.0810 O   0  0  0  0  0  1  0  0  0  0  0  0
  190.1550  175.7940  142.7520 C   0  0  0  0  0  2  0  0  0  0  0  0
  191.3810  176.0870  143.5970 C   0  0  0  0  0  2  0  0  0  0  0  0
  190.9800  176.9310  144.7880 C   0  0  0  0  0  2  0  0  0  0  0  0
  191.7260  176.4550  146.0140 C   0  0  0  0  0  2  0  0  0  0  0  0
  190.9020  176.7500  147.2540 C   0  0  0  0  0  2  0  0  0  0  0  0
  189.4200  176.7740  146.9150 C   0  0  0  0  0  2  0  0  0  0  0  0
  189.3200  178.4160  148.6410 O   0  0  0  0  0  1  0  0  0  0  0  0
  188.7020  177.7780  147.7510 C   0  0  0  0  0  0  0  0  0  0  0  0
  187.3410  177.9860  147.5690 O   0  0  0  0  0  0  0  0  0  0  0  0
  1  6  1  0  0  0  0
  2  9  1  0  0  0  0
  3  7  1  0  0  0  0
  3  8  1  1  0  0  0
  4  3  1  0  0  0  0
  4  7  1  0  0  0  0
  6 12  1  0  0  0  0
  7 15  1  0  0  0  0
  8 14  1  0  0  0  0
  9  1  2  0  0  0  0
  9 19  1  0  0  0  0
 10  2  2  0  0  0  0
 10 20  1  0  0  0  0
 12  4  1  0  0  0  0
 12  7  1  0  0  0  0
 13 11  2  0  0  0  0
 14 18  1  0  0  0  0
 14 25  1  0  0  0  0
 15 17  2  0  0  0  0
 15 18  1  0  0  0  0
 16  5  1  0  0  0  0
 17 21  1  0  0  0  0
 18 16  2  0  0  0  0
 19 13  1  0  0  0  0
 19  4  1  0  0  0  0
 20 13  1  0  0  0  0
 21 22  1  0  0  0  0
 21  5  2  0  0  0  0
 22 24  1  0  0  0  0
 23 22  1  0  0  0  0
 25 26  1  0  0  0  0
 26 27  1  0  0  0  0
 27 28  1  0  0  0  0
 28 29  1  0  0  0  0
 30 29  1  0  0  0  0
 30 32  1  0  0  0  0
 32 31  1  0  0  0  0
 33 32  2  0  0  0  0
M  END
>  <MODEL>
1

>  <REMARK>
 VINA RESULT:      -8.4      0.000      0.000
  Name = 
  8 active torsions:
  status: ('A' for Active; 'I' for Inactive)
    1  A    between atoms: C_6  and  C_17
    2  A    between atoms: C_6  and  C_26
    3  A    between atoms: C_13  and  C_22
    4  A    between atoms: C_13  and  C_29
    5  A    between atoms: C_17  and  C_22
    6  A    between atoms: N_18  and  C_30
    7  A    between atoms: N_20  and  C_33
    8  A    between atoms: C_26  and  C_30
                            x       y       z     vdW  Elec       q    Type
                         _______ _______ _______ _____ _____    ______ ____

>  <TORSDO>
F 8

$$$$
=
 OpenBabel10222419483D

 33 38  0  0  1  0  0  0  0  0999 V2000
  186.8620  174.9970  135.9660 N   0  0  0  0  0  0  0  0  0  0  0  0
  188.6440  173.4480  136.1120 N   0  0  0  0  0  0  0  0  0  0  0  0
  188.9870  178.0660  138.1090 C   0  0  1  0  0  3  0  0  0  0  0  0
  188.1370  176.8100  137.9930 C   0  0  1  0  0  0  0  0  0  0  0  0
  184.8930  178.7980  141.2450 C   0  0  0  0  0  3  0  0  0  0  0  0
  186.2540  176.2780  136.1960 C   0  0  0  0  0  2  0  0  0  0  0  0
  187.5010  178.1290  137.8640 C   0  0  2  0  0  0  0  0  0  0  0  0
  189.4490  178.3850  139.5470 C   0  0  0  0  0  2  0  0  0  0  0  0
  188.0930  174.7470  136.3600 C   0  0  0  0  0  0  0  0  0  0  0  0
  189.8710  173.1260  136.3980 C   0  0  0  0  0  3  0  0  0  0  0  0
  190.7430  175.7490  138.6970 N   0  0  0  0  0  2  0  0  0  0  0  0
  186.9510  177.0080  137.0290 C   0  0  1  0  0  3  0  0  0  0  0  0
  190.1360  175.1920  137.7160 C   0  0  0  0  0  0  0  0  0  0  0  0
  188.4890  178.0060  140.5770 N   0  0  0  0  0  0  0  0  0  0  0  0
  186.6130  178.3970  139.0630 C   0  0  0  0  0  0  0  0  0  0  0  0
  186.2350  178.4780  141.4620 C   0  0  0  0  0  3  0  0  0  0  0  0
  185.2670  178.7330  138.8570 C   0  0  0  0  0  3  0  0  0  0  0  0
  187.1020  178.2940  140.3770 C   0  0  0  0  0  0  0  0  0  0  0  0
  188.9550  175.8600  137.0390 C   0  0  2  0  0  3  0  0  0  0  0  0
  190.8470  174.1140  136.9630 C   0  0  0  0  0  2  0  0  0  0  0  0
  184.4000  178.9380  139.9410 C   0  0  0  0  0  0  0  0  0  0  0  0
  183.0200  179.2760  139.7270 N   0  0  0  0  0  0  0  0  0  0  0  0
  182.6200  180.2090  138.6850 C   0  0  0  0  0  1  0  0  0  0  0  0
  182.0570  178.7240  140.5040 O   0  0  0  0  0  1  0  0  0  0  0  0
  188.9670  177.2740  141.7430 C   0  0  0  0  0  2  0  0  0  0  0  0
  189.4600  178.2410  142.8030 C   0  0  0  0  0  2  0  0  0  0  0  0
  189.2960  177.6140  144.1710 C   0  0  0  0  0  2  0  0  0  0  0  0
  187.9270  176.9760  144.2690 C   0  0  0  0  0  2  0  0  0  0  0  0
  187.1870  177.5480  145.4650 C   0  0  0  0  0  2  0  0  0  0  0  0
  186.1450  178.5580  145.0120 C   0  0  0  0  0  2  0  0  0  0  0  0
  185.7710  179.4590  147.1880 O   0  0  0  0  0  1  0  0  0  0  0  0
  185.2670  178.9590  146.1490 C   0  0  0  0  0  0  0  0  0  0  0  0
  183.8970  178.7520  146.0750 O   0  0  0  0  0  0  0  0  0  0  0  0
  1  6  1  0  0  0  0
  1  9  2  0  0  0  0
  2  9  1  0  0  0  0
  2 10  2  0  0  0  0
  3  8  1  1  0  0  0
  4  3  1  0  0  0  0
  5 16  1  0  0  0  0
  6 12  1  0  0  0  0
  7  4  1  0  0  0  0
  7  3  1  0  0  0  0
  7 15  1  0  0  0  0
  8 14  1  0  0  0  0
  9 19  1  0  0  0  0
 10 20  1  0  0  0  0
 12  7  1  0  0  0  0
 12  4  1  0  0  0  0
 13 11  2  0  0  0  0
 14 25  1  0  0  0  0
 15 18  1  0  0  0  0
 17 15  2  0  0  0  0
 17 21  1  0  0  0  0
 18 14  1  0  0  0  0
 18 16  2  0  0  0  0
 19 13  1  0  0  0  0
 19  4  1  0  0  0  0
 20 13  1  0  0  0  0
 21  5  2  0  0  0  0
 22 21  1  0  0  0  0
 22 24  1  0  0  0  0
 23 22  1  0  0  0  0
 25 26  1  0  0  0  0
 26 27  1  0  0  0  0
 27 28  1  0  0  0  0
 28 29  1  0  0  0  0
 30 29  1  0  0  0  0
 30 32  1  0  0  0  0
 32 31  1  0  0  0  0
 33 32  2  0  0  0  0
M  END
>  <MODEL>
2

>  <REMARK>
 VINA RESULT:      -7.5      1.979      2.796
  Name = 
  8 active torsions:
  status: ('A' for Active; 'I' for Inactive)
    1  A    between atoms: C_6  and  C_17
    2  A    between atoms: C_6  and  C_26
    3  A    between atoms: C_13  and  C_22
    4  A    between atoms: C_13  and  C_29
    5  A    between atoms: C_17  and  C_22
    6  A    between atoms: N_18  and  C_30
    7  A    between atoms: N_20  and  C_33
    8  A    between atoms: C_26  and  C_30
                            x       y       z     vdW  Elec       q    Type
                         _______ _______ _______ _____ _____    ______ ____

>  <TORSDO>
F 8

$$$$
=
 OpenBabel10222419483D

 33 38  0  0  1  0  0  0  0  0999 V2000
  185.9610  178.8180  146.8640 N   0  0  0  0  0  0  0  0  0  0  0  0
  187.8300  178.9300  148.3110 N   0  0  0  0  0  0  0  0  0  0  0  0
  187.8780  176.0860  144.1470 C   0  0  1  0  0  3  0  0  0  0  0  0
  187.5710  177.4590  144.7230 C   0  0  1  0  0  0  0  0  0  0  0  0
  186.5650  179.0910  140.1010 C   0  0  0  0  0  3  0  0  0  0  0  0
  185.2630  178.3340  145.7060 C   0  0  0  0  0  2  0  0  0  0  0  0
  186.6220  176.8390  143.7880 C   0  0  2  0  0  0  0  0  0  0  0  0
  188.9940  176.0840  143.0790 C   0  0  0  0  0  2  0  0  0  0  0  0
  187.1780  178.4050  147.1470 C   0  0  0  0  0  0  0  0  0  0  0  0
  189.0000  178.5340  148.7140 C   0  0  0  0  0  3  0  0  0  0  0  0
  190.2320  176.9240  145.7450 N   0  0  0  0  0  2  0  0  0  0  0  0
  186.0560  177.6830  144.8930 C   0  0  1  0  0  3  0  0  0  0  0  0
  189.3610  177.3430  146.5860 C   0  0  0  0  0  0  0  0  0  0  0  0
  189.0340  177.2910  142.2620 N   0  0  0  0  0  0  0  0  0  0  0  0
  186.6190  177.5930  142.4730 C   0  0  0  0  0  0  0  0  0  0  0  0
  187.7780  178.6000  140.5900 C   0  0  0  0  0  3  0  0  0  0  0  0
  185.4060  178.0790  141.9650 C   0  0  0  0  0  3  0  0  0  0  0  0
  187.8080  177.8370  141.7640 C   0  0  0  0  0  0  0  0  0  0  0  0
  187.8800  177.3260  146.2630 C   0  0  2  0  0  3  0  0  0  0  0  0
  189.7550  177.4360  148.0260 C   0  0  0  0  0  2  0  0  0  0  0  0
  185.3680  178.8260  140.7780 C   0  0  0  0  0  0  0  0  0  0  0  0
  184.1240  179.3280  140.2630 N   0  0  0  0  0  0  0  0  0  0  0  0
  182.8470  178.8970  140.8110 C   0  0  0  0  0  1  0  0  0  0  0  0
  184.1210  180.2200  139.2430 O   0  0  0  0  0  1  0  0  0  0  0  0
  190.3170  177.9450  142.0430 C   0  0  0  0  0  2  0  0  0  0  0  0
  191.2650  177.0110  141.3130 C   0  0  0  0  0  2  0  0  0  0  0  0
  191.3880  177.4470  139.8690 C   0  0  0  0  0  2  0  0  0  0  0  0
  190.9610  176.3130  138.9640 C   0  0  0  0  0  2  0  0  0  0  0  0
  189.5950  176.6210  138.3770 C   0  0  0  0  0  2  0  0  0  0  0  0
  189.7360  177.3880  137.0730 C   0  0  0  0  0  2  0  0  0  0  0  0
  189.0710  179.6450  137.4550 O   0  0  0  0  0  1  0  0  0  0  0  0
  188.7580  178.5110  137.0090 C   0  0  0  0  0  0  0  0  0  0  0  0
  187.4890  178.2980  136.4870 O   0  0  0  0  0  0  0  0  0  0  0  0
  1  9  2  0  0  0  0
  2 10  2  0  0  0  0
  3  8  1  6  0  0  0
  3  4  1  0  0  0  0
  4 12  1  0  0  0  0
  4 19  1  0  0  0  0
  5 16  2  0  0  0  0
  5 21  1  0  0  0  0
  6  1  1  0  0  0  0
  7  3  1  0  0  0  0
  7  4  1  0  0  0  0
  7 12  1  0  0  0  0
  9  2  1  0  0  0  0
 11 13  2  0  0  0  0
 12  6  1  0  0  0  0
 13 20  1  0  0  0  0
 14  8  1  0  0  0  0
 15  7  1  0  0  0  0
 16 18  1  0  0  0  0
 17 15  1  0  0  0  0
 18 14  1  0  0  0  0
 18 15  2  0  0  0  0
 19 13  1  0  0  0  0
 19  9  1  0  0  0  0
 20 10  1  0  0  0  0
 21 17  2  0  0  0  0
 22 21  1  0  0  0  0
 22 23  1  0  0  0  0
 24 22  1  0  0  0  0
 25 14  1  0  0  0  0
 26 25  1  0  0  0  0
 27 26  1  0  0  0  0
 28 27  1  0  0  0  0
 29 28  1  0  0  0  0
 30 29  1  0  0  0  0
 32 30  1  0  0  0  0
 32 31  1  0  0  0  0
 33 32  2  0  0  0  0
M  END
>  <MODEL>
3

>  <REMARK>
 VINA RESULT:      -7.4      3.437      7.295
  Name = 
  8 active torsions:
  status: ('A' for Active; 'I' for Inactive)
    1  A    between atoms: C_6  and  C_17
    2  A    between atoms: C_6  and  C_26
    3  A    between atoms: C_13  and  C_22
    4  A    between atoms: C_13  and  C_29
    5  A    between atoms: C_17  and  C_22
    6  A    between atoms: N_18  and  C_30
    7  A    between atoms: N_20  and  C_33
    8  A    between atoms: C_26  and  C_30
                            x       y       z     vdW  Elec       q    Type
                         _______ _______ _______ _____ _____    ______ ____

>  <TORSDO>
F 8

$$$$
=
 OpenBabel10222419483D

 33 38  0  0  1  0  0  0  0  0999 V2000
  191.4000  177.3900  141.4640 N   0  0  0  0  0  0  0  0  0  0  0  0
  190.1640  178.4680  139.7590 N   0  0  0  0  0  0  0  0  0  0  0  0
  187.8830  176.1180  143.5940 C   0  0  1  0  0  3  0  0  0  0  0  0
  188.9630  177.1130  143.1970 C   0  0  1  0  0  0  0  0  0  0  0  0
  189.8250  177.9950  148.0470 C   0  0  0  0  0  3  0  0  0  0  0  0
  191.5190  176.6170  142.6690 C   0  0  0  0  0  2  0  0  0  0  0  0
  189.2580  176.0890  144.2100 C   0  0  2  0  0  0  0  0  0  0  0  0
  186.7620  176.7180  144.4690 C   0  0  0  0  0  2  0  0  0  0  0  0
  190.2220  177.6860  140.9580 C   0  0  0  0  0  0  0  0  0  0  0  0
  189.0550  178.7520  139.1440 C   0  0  0  0  0  3  0  0  0  0  0  0
  186.6510  178.0680  141.7290 N   0  0  0  0  0  2  0  0  0  0  0  0
  190.3710  176.4940  143.2870 C   0  0  1  0  0  3  0  0  0  0  0  0
  187.7470  177.9530  141.0740 C   0  0  0  0  0  0  0  0  0  0  0  0
  187.2150  177.7680  145.3750 N   0  0  0  0  0  0  0  0  0  0  0  0
  189.4210  176.7370  145.5710 C   0  0  0  0  0  0  0  0  0  0  0  0
  188.6470  178.2200  147.3330 C   0  0  0  0  0  3  0  0  0  0  0  0
  190.5930  176.5060  146.3040 C   0  0  0  0  0  3  0  0  0  0  0  0
  188.4320  177.5820  146.1040 C   0  0  0  0  0  0  0  0  0  0  0  0
  188.9120  177.1520  141.6220 C   0  0  2  0  0  3  0  0  0  0  0  0
  187.7270  178.2300  139.6050 C   0  0  0  0  0  2  0  0  0  0  0  0
  190.8040  177.1280  147.5440 C   0  0  0  0  0  0  0  0  0  0  0  0
  192.0100  176.8940  148.2900 N   0  0  0  0  0  0  0  0  0  0  0  0
  192.8050  175.6920  148.0910 C   0  0  0  0  0  1  0  0  0  0  0  0
  192.4300  177.8010  149.2040 O   0  0  0  0  0  1  0  0  0  0  0  0
  186.4510  179.0060  145.4480 C   0  0  0  0  0  2  0  0  0  0  0  0
  185.2170  178.8120  146.3100 C   0  0  0  0  0  2  0  0  0  0  0  0
  183.9780  178.9400  145.4500 C   0  0  0  0  0  2  0  0  0  0  0  0
  184.3730  179.4120  144.0680 C   0  0  0  0  0  2  0  0  0  0  0  0
  183.3050  179.0040  143.0700 C   0  0  0  0  0  2  0  0  0  0  0  0
  181.9410  178.9530  143.7400 C   0  0  0  0  0  2  0  0  0  0  0  0
  180.5570  178.4650  141.8610 O   0  0  0  0  0  0  0  0  0  0  0  0
  180.8600  179.2830  142.7680 C   0  0  0  0  0  0  0  0  0  0  0  0
  180.2080  180.5060  142.8430 O   0  0  0  0  0  1  0  0  0  0  0  0
  1  6  1  0  0  0  0
  2  9  1  0  0  0  0
  3  7  1  0  0  0  0
  3  8  1  1  0  0  0
  4 12  1  0  0  0  0
  4  3  1  0  0  0  0
  4  7  1  0  0  0  0
  6 12  1  0  0  0  0
  7 15  1  0  0  0  0
  8 14  1  0  0  0  0
  9  1  2  0  0  0  0
  9 19  1  0  0  0  0
 10 20  1  0  0  0  0
 10  2  2  0  0  0  0
 12  7  1  0  0  0  0
 13 19  1  0  0  0  0
 13 11  2  0  0  0  0
 14 25  1  0  0  0  0
 14 18  1  0  0  0  0
 15 18  2  0  0  0  0
 15 17  1  0  0  0  0
 16  5  2  0  0  0  0
 17 21  2  0  0  0  0
 18 16  1  0  0  0  0
 19  4  1  0  0  0  0
 20 13  1  0  0  0  0
 21  5  1  0  0  0  0
 21 22  1  0  0  0  0
 22 24  1  0  0  0  0
 23 22  1  0  0  0  0
 25 26  1  0  0  0  0
 27 26  1  0  0  0  0
 28 27  1  0  0  0  0
 29 30  1  0  0  0  0
 29 28  1  0  0  0  0
 31 32  2  0  0  0  0
 32 33  1  0  0  0  0
 32 30  1  0  0  0  0
M  END
>  <MODEL>
4

>  <REMARK>
 VINA RESULT:      -7.2      2.661      6.827
  Name = 
  8 active torsions:
  status: ('A' for Active; 'I' for Inactive)
    1  A    between atoms: C_6  and  C_17
    2  A    between atoms: C_6  and  C_26
    3  A    between atoms: C_13  and  C_22
    4  A    between atoms: C_13  and  C_29
    5  A    between atoms: C_17  and  C_22
    6  A    between atoms: N_18  and  C_30
    7  A    between atoms: N_20  and  C_33
    8  A    between atoms: C_26  and  C_30
                            x       y       z     vdW  Elec       q    Type
                         _______ _______ _______ _____ _____    ______ ____

>  <TORSDO>
F 8

$$$$
=
 OpenBabel10222419483D

 33 38  0  0  1  0  0  0  0  0999 V2000
  186.1750  175.4530  136.4890 N   0  0  0  0  0  0  0  0  0  0  0  0
  187.7720  173.9140  135.6650 N   0  0  0  0  0  0  0  0  0  0  0  0
  189.1530  178.0610  138.1800 C   0  0  1  0  0  3  0  0  0  0  0  0
  188.2360  176.8470  138.1720 C   0  0  1  0  0  0  0  0  0  0  0  0
  186.5880  178.1520  142.7130 C   0  0  0  0  0  3  0  0  0  0  0  0
  185.7870  176.6620  137.1600 C   0  0  0  0  0  2  0  0  0  0  0  0
  187.6910  178.1630  138.5350 C   0  0  2  0  0  0  0  0  0  0  0  0
  190.1390  178.0990  139.3670 C   0  0  0  0  0  2  0  0  0  0  0  0
  187.4430  175.1380  136.3340 C   0  0  0  0  0  0  0  0  0  0  0  0
  188.9910  173.5500  135.4000 C   0  0  0  0  0  3  0  0  0  0  0  0
  190.8370  175.6830  137.6280 N   0  0  0  0  0  2  0  0  0  0  0  0
  186.7930  177.2220  137.7830 C   0  0  1  0  0  3  0  0  0  0  0  0
  189.8700  175.3240  136.8680 C   0  0  0  0  0  0  0  0  0  0  0  0
  189.6100  177.5230  140.5980 N   0  0  0  0  0  0  0  0  0  0  0  0
  187.3350  178.1890  140.0080 C   0  0  0  0  0  0  0  0  0  0  0  0
  187.8880  177.8040  142.3420 C   0  0  0  0  0  3  0  0  0  0  0  0
  186.0370  178.5520  140.3930 C   0  0  0  0  0  3  0  0  0  0  0  0
  188.2720  177.8370  140.9950 C   0  0  0  0  0  0  0  0  0  0  0  0
  188.5710  176.1030  136.8230 C   0  0  2  0  0  3  0  0  0  0  0  0
  190.1730  174.4150  135.7200 C   0  0  0  0  0  2  0  0  0  0  0  0
  185.6540  178.5390  141.7430 C   0  0  0  0  0  0  0  0  0  0  0  0
  184.3210  178.9050  142.1340 N   0  0  0  0  0  0  0  0  0  0  0  0
  184.0080  179.2820  143.5040 C   0  0  0  0  0  1  0  0  0  0  0  0
  183.3200  178.9020  141.2210 O   0  0  0  0  0  1  0  0  0  0  0  0
  190.4370  176.5820  141.3420 C   0  0  0  0  0  2  0  0  0  0  0  0
  191.6530  177.2890  141.9110 C   0  0  0  0  0  2  0  0  0  0  0  0
  191.6090  177.2260  143.4230 C   0  0  0  0  0  2  0  0  0  0  0  0
  191.2560  178.5900  143.9730 C   0  0  0  0  0  2  0  0  0  0  0  0
  190.1640  178.4480  145.0170 C   0  0  0  0  0  2  0  0  0  0  0  0
  190.1000  177.0180  145.5290 C   0  0  0  0  0  2  0  0  0  0  0  0
  189.4420  177.5000  147.7700 O   0  0  0  0  0  1  0  0  0  0  0  0
  190.2930  176.9740  147.0070 C   0  0  0  0  0  0  0  0  0  0  0  0
  191.4290  176.3820  147.5420 O   0  0  0  0  0  0  0  0  0  0  0  0
  1  6  1  0  0  0  0
  2  9  1  0  0  0  0
  3  7  1  0  0  0  0
  3  8  1  1  0  0  0
  4  3  1  0  0  0  0
  4  7  1  0  0  0  0
  6 12  1  0  0  0  0
  7 15  1  0  0  0  0
  8 14  1  0  0  0  0
  9  1  2  0  0  0  0
  9 19  1  0  0  0  0
 10  2  2  0  0  0  0
 10 20  1  0  0  0  0
 12  4  1  0  0  0  0
 12  7  1  0  0  0  0
 13 11  2  0  0  0  0
 14 18  1  0  0  0  0
 14 25  1  0  0  0  0
 15 17  2  0  0  0  0
 15 18  1  0  0  0  0
 16  5  1  0  0  0  0
 17 21  1  0  0  0  0
 18 16  2  0  0  0  0
 19 13  1  0  0  0  0
 19  4  1  0  0  0  0
 20 13  1  0  0  0  0
 21 22  1  0  0  0  0
 21  5  2  0  0  0  0
 22 23  1  0  0  0  0
 24 22  1  0  0  0  0
 25 26  1  0  0  0  0
 26 27  1  0  0  0  0
 27 28  1  0  0  0  0
 28 29  1  0  0  0  0
 29 30  1  0  0  0  0
 30 32  1  0  0  0  0
 32 33  2  0  0  0  0
 32 31  1  0  0  0  0
M  END
>  <MODEL>
5

>  <REMARK>
 VINA RESULT:      -7.1      1.391      1.847
  Name = 
  8 active torsions:
  status: ('A' for Active; 'I' for Inactive)
    1  A    between atoms: C_6  and  C_17
    2  A    between atoms: C_6  and  C_26
    3  A    between atoms: C_13  and  C_22
    4  A    between atoms: C_13  and  C_29
    5  A    between atoms: C_17  and  C_22
    6  A    between atoms: N_18  and  C_30
    7  A    between atoms: N_20  and  C_33
    8  A    between atoms: C_26  and  C_30
                            x       y       z     vdW  Elec       q    Type
                         _______ _______ _______ _____ _____    ______ ____

>  <TORSDO>
F 8

$$$$
=
 OpenBabel10222419483D

 33 38  0  0  1  0  0  0  0  0999 V2000
  186.9290  174.6850  136.5540 N   0  0  0  0  0  0  0  0  0  0  0  0
  188.9780  173.5130  136.7120 N   0  0  0  0  0  0  0  0  0  0  0  0
  188.6110  178.3760  137.9940 C   0  0  1  0  0  3  0  0  0  0  0  0
  188.0070  176.9890  138.1510 C   0  0  1  0  0  0  0  0  0  0  0  0
  184.7370  178.8680  141.4400 C   0  0  0  0  0  3  0  0  0  0  0  0
  186.1120  175.8600  136.6710 C   0  0  0  0  0  2  0  0  0  0  0  0
  187.1240  178.1400  137.9130 C   0  0  2  0  0  0  0  0  0  0  0  0
  189.1260  178.9940  139.3120 C   0  0  0  0  0  2  0  0  0  0  0  0
  188.2140  174.7180  136.8370 C   0  0  0  0  0  0  0  0  0  0  0  0
  190.2630  173.4590  136.8990 C   0  0  0  0  0  3  0  0  0  0  0  0
  190.8170  176.5230  138.6970 N   0  0  0  0  0  2  0  0  0  0  0  0
  186.7270  176.8230  137.3100 C   0  0  1  0  0  3  0  0  0  0  0  0
  190.2450  175.7210  137.8770 C   0  0  0  0  0  0  0  0  0  0  0  0
  188.3460  178.6200  140.4860 N   0  0  0  0  0  0  0  0  0  0  0  0
  186.3070  178.4350  139.1560 C   0  0  0  0  0  0  0  0  0  0  0  0
  186.1280  178.8260  141.5470 C   0  0  0  0  0  3  0  0  0  0  0  0
  184.9100  178.4940  139.0580 C   0  0  0  0  0  3  0  0  0  0  0  0
  186.9180  178.6270  140.4070 C   0  0  0  0  0  0  0  0  0  0  0  0
  188.9050  176.0570  137.2520 C   0  0  2  0  0  3  0  0  0  0  0  0
  191.0800  174.6780  137.2070 C   0  0  0  0  0  2  0  0  0  0  0  0
  184.1150  178.7130  140.1940 C   0  0  0  0  0  0  0  0  0  0  0  0
  182.6830  178.7670  140.0930 N   0  0  0  0  0  0  0  0  0  0  0  0
  182.0210  179.6910  139.1850 C   0  0  0  0  0  1  0  0  0  0  0  0
  181.9170  177.9480  140.8530 O   0  0  0  0  0  1  0  0  0  0  0  0
  189.0520  178.1760  141.6810 C   0  0  0  0  0  2  0  0  0  0  0  0
  189.1440  176.6620  141.7050 C   0  0  0  0  0  2  0  0  0  0  0  0
  189.3140  176.1910  143.1330 C   0  0  0  0  0  2  0  0  0  0  0  0
  188.4470  177.0300  144.0450 C   0  0  0  0  0  2  0  0  0  0  0  0
  189.1900  177.3020  145.3400 C   0  0  0  0  0  2  0  0  0  0  0  0
  190.6760  177.4810  145.0750 C   0  0  0  0  0  2  0  0  0  0  0  0
  191.6710  177.1300  147.2130 O   0  0  0  0  0  1  0  0  0  0  0  0
  191.4870  176.6940  146.0470 C   0  0  0  0  0  0  0  0  0  0  0  0
  192.0680  175.4950  145.6570 O   0  0  0  0  0  0  0  0  0  0  0  0
  1  6  1  0  0  0  0
  1  9  2  0  0  0  0
  2  9  1  0  0  0  0
  2 10  2  0  0  0  0
  3  4  1  0  0  0  0
  3  8  1  1  0  0  0
  5 16  1  0  0  0  0
  6 12  1  0  0  0  0
  7  3  1  0  0  0  0
  7  4  1  0  0  0  0
  7 15  1  0  0  0  0
  8 14  1  0  0  0  0
  9 19  1  0  0  0  0
 10 20  1  0  0  0  0
 12  7  1  0  0  0  0
 12  4  1  0  0  0  0
 13 11  2  0  0  0  0
 14 25  1  0  0  0  0
 15 18  1  0  0  0  0
 17 15  2  0  0  0  0
 17 21  1  0  0  0  0
 18 14  1  0  0  0  0
 18 16  2  0  0  0  0
 19 13  1  0  0  0  0
 19  4  1  0  0  0  0
 20 13  1  0  0  0  0
 21  5  2  0  0  0  0
 22 21  1  0  0  0  0
 22 24  1  0  0  0  0
 23 22  1  0  0  0  0
 25 26  1  0  0  0  0
 26 27  1  0  0  0  0
 27 28  1  0  0  0  0
 28 29  1  0  0  0  0
 30 29  1  0  0  0  0
 30 32  1  0  0  0  0
 32 31  1  0  0  0  0
 33 32  2  0  0  0  0
M  END
>  <MODEL>
6

>  <REMARK>
 VINA RESULT:      -7.1      1.991      2.741
  Name = 
  8 active torsions:
  status: ('A' for Active; 'I' for Inactive)
    1  A    between atoms: C_6  and  C_17
    2  A    between atoms: C_6  and  C_26
    3  A    between atoms: C_13  and  C_22
    4  A    between atoms: C_13  and  C_29
    5  A    between atoms: C_17  and  C_22
    6  A    between atoms: N_18  and  C_30
    7  A    between atoms: N_20  and  C_33
    8  A    between atoms: C_26  and  C_30
                            x       y       z     vdW  Elec       q    Type
                         _______ _______ _______ _____ _____    ______ ____

>  <TORSDO>
F 8

$$$$
=
 OpenBabel10222419483D

 33 38  0  0  1  0  0  0  0  0999 V2000
  186.8100  178.4160  147.3780 N   0  0  0  0  0  0  0  0  0  0  0  0
  188.9060  178.6180  148.4580 N   0  0  0  0  0  0  0  0  0  0  0  0
  188.3800  176.0020  144.1790 C   0  0  1  0  0  3  0  0  0  0  0  0
  188.0840  177.3130  144.8910 C   0  0  1  0  0  0  0  0  0  0  0  0
  186.0960  179.0800  140.6520 C   0  0  0  0  0  3  0  0  0  0  0  0
  185.9450  177.9320  146.3400 C   0  0  0  0  0  2  0  0  0  0  0  0
  187.0250  176.6590  144.1090 C   0  0  2  0  0  0  0  0  0  0  0  0
  189.2690  176.1520  142.9260 C   0  0  0  0  0  2  0  0  0  0  0  0
  188.0870  178.0980  147.4030 C   0  0  0  0  0  0  0  0  0  0  0  0
  190.1580  178.3060  148.6110 C   0  0  0  0  0  3  0  0  0  0  0  0
  190.9240  176.9610  145.3650 N   0  0  0  0  0  2  0  0  0  0  0  0
  186.6160  177.3940  145.3520 C   0  0  1  0  0  3  0  0  0  0  0  0
  190.1990  177.2600  146.3790 C   0  0  0  0  0  0  0  0  0  0  0  0
  189.0610  177.3970  142.1960 N   0  0  0  0  0  0  0  0  0  0  0  0
  186.7150  177.4760  142.8700 C   0  0  0  0  0  0  0  0  0  0  0  0
  187.4130  178.6730  140.8750 C   0  0  0  0  0  3  0  0  0  0  0  0
  185.3930  177.8780  142.6280 C   0  0  0  0  0  3  0  0  0  0  0  0
  187.7250  177.8580  141.9710 C   0  0  0  0  0  0  0  0  0  0  0  0
  188.6890  177.1290  146.3350 C   0  0  2  0  0  3  0  0  0  0  0  0
  190.8510  177.3150  147.7240 C   0  0  0  0  0  2  0  0  0  0  0  0
  185.0730  178.6780  141.5200 C   0  0  0  0  0  0  0  0  0  0  0  0
  183.7200  179.0930  141.2780 N   0  0  0  0  0  0  0  0  0  0  0  0
  182.6820  178.9240  142.2850 C   0  0  0  0  0  1  0  0  0  0  0  0
  183.3830  179.6550  140.0930 O   0  0  0  0  0  1  0  0  0  0  0  0
  190.2250  178.1710  141.7870 C   0  0  0  0  0  2  0  0  0  0  0  0
  191.4710  177.3040  141.8230 C   0  0  0  0  0  2  0  0  0  0  0  0
  192.2610  177.5050  140.5480 C   0  0  0  0  0  2  0  0  0  0  0  0
  191.3390  177.3620  139.3580 C   0  0  0  0  0  2  0  0  0  0  0  0
  191.5190  175.9870  138.7410 C   0  0  0  0  0  2  0  0  0  0  0  0
  192.0890  176.1040  137.3370 C   0  0  0  0  0  2  0  0  0  0  0  0
  194.1890  176.8660  136.5040 O   0  0  0  0  0  0  0  0  0  0  0  0
  193.5770  176.1940  137.3740 C   0  0  0  0  0  0  0  0  0  0  0  0
  194.2900  175.5100  138.3490 O   0  0  0  0  0  1  0  0  0  0  0  0
  1  9  2  0  0  0  0
  2 10  2  0  0  0  0
  3  8  1  6  0  0  0
  3  4  1  0  0  0  0
  4 12  1  0  0  0  0
  4 19  1  0  0  0  0
  5 16  2  0  0  0  0
  5 21  1  0  0  0  0
  6  1  1  0  0  0  0
  7  3  1  0  0  0  0
  7  4  1  0  0  0  0
  7 12  1  0  0  0  0
  9  2  1  0  0  0  0
 11 13  2  0  0  0  0
 12  6  1  0  0  0  0
 13 20  1  0  0  0  0
 14  8  1  0  0  0  0
 15  7  1  0  0  0  0
 16 18  1  0  0  0  0
 17 15  1  0  0  0  0
 18 14  1  0  0  0  0
 18 15  2  0  0  0  0
 19 13  1  0  0  0  0
 19  9  1  0  0  0  0
 20 10  1  0  0  0  0
 21 17  2  0  0  0  0
 22 21  1  0  0  0  0
 22 23  1  0  0  0  0
 24 22  1  0  0  0  0
 25 26  1  0  0  0  0
 25 14  1  0  0  0  0
 27 26  1  0  0  0  0
 28 27  1  0  0  0  0
 29 28  1  0  0  0  0
 30 32  1  0  0  0  0
 30 29  1  0  0  0  0
 31 32  2  0  0  0  0
 32 33  1  0  0  0  0
M  END
>  <MODEL>
7

>  <REMARK>
 VINA RESULT:      -6.7      3.722      7.398
  Name = 
  8 active torsions:
  status: ('A' for Active; 'I' for Inactive)
    1  A    between atoms: C_6  and  C_17
    2  A    between atoms: C_6  and  C_26
    3  A    between atoms: C_13  and  C_22
    4  A    between atoms: C_13  and  C_29
    5  A    between atoms: C_17  and  C_22
    6  A    between atoms: N_18  and  C_30
    7  A    between atoms: N_20  and  C_33
    8  A    between atoms: C_26  and  C_30
                            x       y       z     vdW  Elec       q    Type
                         _______ _______ _______ _____ _____    ______ ____

>  <TORSDO>
F 8

$$$$
=
 OpenBabel10222419483D

 33 38  0  0  1  0  0  0  0  0999 V2000
  189.6410  176.9160  142.5130 N   0  0  0  0  0  0  0  0  0  0  0  0
  187.4510  177.4270  143.2490 N   0  0  0  0  0  0  0  0  0  0  0  0
  189.0590  178.7140  138.6450 C   0  0  1  0  0  3  0  0  0  0  0  0
  188.9530  177.5940  139.6680 C   0  0  1  0  0  0  0  0  0  0  0  0
  190.9200  174.4450  136.3120 C   0  0  0  0  0  3  0  0  0  0  0  0
  190.7080  176.9350  141.5510 C   0  0  0  0  0  2  0  0  0  0  0  0
  190.2180  177.7970  138.9470 C   0  0  2  0  0  0  0  0  0  0  0  0
  188.3050  178.4390  137.3270 C   0  0  0  0  0  2  0  0  0  0  0  0
  188.4830  177.4860  142.2560 C   0  0  0  0  0  0  0  0  0  0  0  0
  186.3010  178.0180  143.1200 C   0  0  0  0  0  3  0  0  0  0  0  0
  186.2440  178.6280  139.5760 N   0  0  0  0  0  2  0  0  0  0  0  0
  190.2980  177.3320  140.3730 C   0  0  1  0  0  3  0  0  0  0  0  0
  186.7600  178.4520  140.7370 C   0  0  0  0  0  0  0  0  0  0  0  0
  188.2900  177.0340  136.9340 N   0  0  0  0  0  0  0  0  0  0  0  0
  190.4600  176.6490  137.9880 C   0  0  0  0  0  0  0  0  0  0  0  0
  189.7210  175.1560  136.2190 C   0  0  0  0  0  3  0  0  0  0  0  0
  191.6650  175.9370  138.0630 C   0  0  0  0  0  3  0  0  0  0  0  0
  189.4940  176.2680  137.0410 C   0  0  0  0  0  0  0  0  0  0  0  0
  188.2520  178.2550  140.9150 C   0  0  2  0  0  3  0  0  0  0  0  0
  185.9680  178.8730  141.9340 C   0  0  0  0  0  2  0  0  0  0  0  0
  191.9060  174.8350  137.2270 C   0  0  0  0  0  0  0  0  0  0  0  0
  193.1400  174.1030  137.3100 N   0  0  0  0  0  0  0  0  0  0  0  0
  194.3150  174.6670  137.9570 C   0  0  0  0  0  1  0  0  0  0  0  0
  193.2290  172.8600  136.7800 O   0  0  0  0  0  1  0  0  0  0  0  0
  187.0270  176.4380  136.5190 C   0  0  0  0  0  2  0  0  0  0  0  0
  186.0070  177.5220  136.2260 C   0  0  0  0  0  2  0  0  0  0  0  0
  184.8030  176.9070  135.5450 C   0  0  0  0  0  2  0  0  0  0  0  0
  184.9510  175.4020  135.5250 C   0  0  0  0  0  2  0  0  0  0  0  0
  183.7400  174.7660  136.1820 C   0  0  0  0  0  2  0  0  0  0  0  0
  184.0700  174.3360  137.6030 C   0  0  0  0  0  2  0  0  0  0  0  0
  186.0170  173.0090  137.9660 O   0  0  0  0  0  1  0  0  0  0  0  0
  184.8110  173.0430  137.6080 C   0  0  0  0  0  0  0  0  0  0  0  0
  184.1820  171.8800  137.1850 O   0  0  0  0  0  0  0  0  0  0  0  0
  3  8  1  6  0  0  0
  3  7  1  0  0  0  0
  3  4  1  0  0  0  0
  4 12  1  0  0  0  0
  4 19  1  0  0  0  0
  5 21  1  0  0  0  0
  6  1  1  0  0  0  0
  7  4  1  0  0  0  0
  7 12  1  0  0  0  0
  9  1  2  0  0  0  0
  9  2  1  0  0  0  0
 10  2  2  0  0  0  0
 11 13  2  0  0  0  0
 12  6  1  0  0  0  0
 13 19  1  0  0  0  0
 13 20  1  0  0  0  0
 14 18  1  0  0  0  0
 14  8  1  0  0  0  0
 15 17  1  0  0  0  0
 15  7  1  0  0  0  0
 16  5  2  0  0  0  0
 16 18  1  0  0  0  0
 18 15  2  0  0  0  0
 19  9  1  0  0  0  0
 20 10  1  0  0  0  0
 21 22  1  0  0  0  0
 21 17  2  0  0  0  0
 22 23  1  0  0  0  0
 24 22  1  0  0  0  0
 25 14  1  0  0  0  0
 26 25  1  0  0  0  0
 27 26  1  0  0  0  0
 28 27  1  0  0  0  0
 28 29  1  0  0  0  0
 29 30  1  0  0  0  0
 30 32  1  0  0  0  0
 32 31  1  0  0  0  0
 33 32  2  0  0  0  0
M  END
>  <MODEL>
8

>  <REMARK>
 VINA RESULT:      -6.6      4.031      8.527
  Name = 
  8 active torsions:
  status: ('A' for Active; 'I' for Inactive)
    1  A    between atoms: C_6  and  C_17
    2  A    between atoms: C_6  and  C_26
    3  A    between atoms: C_13  and  C_22
    4  A    between atoms: C_13  and  C_29
    5  A    between atoms: C_17  and  C_22
    6  A    between atoms: N_18  and  C_30
    7  A    between atoms: N_20  and  C_33
    8  A    between atoms: C_26  and  C_30
                            x       y       z     vdW  Elec       q    Type
                         _______ _______ _______ _____ _____    ______ ____

>  <TORSDO>
F 8

$$$$
=
 OpenBabel10222419483D

 33 38  0  0  1  0  0  0  0  0999 V2000
  189.9820  176.6000  143.0050 N   0  0  0  0  0  0  0  0  0  0  0  0
  187.8720  177.0710  143.9670 N   0  0  0  0  0  0  0  0  0  0  0  0
  189.0740  178.6490  139.3300 C   0  0  1  0  0  3  0  0  0  0  0  0
  189.0490  177.4650  140.2840 C   0  0  1  0  0  0  0  0  0  0  0  0
  190.6760  174.5340  136.5690 C   0  0  0  0  0  3  0  0  0  0  0  0
  190.9580  176.6780  141.9550 C   0  0  0  0  0  2  0  0  0  0  0  0
  190.2460  177.7100  139.4670 C   0  0  2  0  0  0  0  0  0  0  0  0
  188.2020  178.4630  138.0700 C   0  0  0  0  0  2  0  0  0  0  0  0
  188.8110  177.1900  142.8910 C   0  0  0  0  0  0  0  0  0  0  0  0
  186.7210  177.6730  143.9800 C   0  0  0  0  0  3  0  0  0  0  0  0
  186.3530  178.5130  140.5030 N   0  0  0  0  0  2  0  0  0  0  0  0
  190.4490  177.1520  140.8460 C   0  0  1  0  0  3  0  0  0  0  0  0
  186.9680  178.2600  141.5990 C   0  0  0  0  0  0  0  0  0  0  0  0
  188.1380  177.0870  137.5900 N   0  0  0  0  0  0  0  0  0  0  0  0
  190.3900  176.6250  138.4170 C   0  0  0  0  0  0  0  0  0  0  0  0
  189.4810  175.2540  136.6290 C   0  0  0  0  0  3  0  0  0  0  0  0
  191.5900  175.9050  138.3370 C   0  0  0  0  0  3  0  0  0  0  0  0
  189.3390  176.3100  137.5390 C   0  0  0  0  0  0  0  0  0  0  0  0
  188.4690  178.0460  141.6290 C   0  0  2  0  0  3  0  0  0  0  0  0
  186.2910  178.6050  142.8870 C   0  0  0  0  0  2  0  0  0  0  0  0
  191.7440  174.8590  137.4140 C   0  0  0  0  0  0  0  0  0  0  0  0
  192.9730  174.1190  137.3390 N   0  0  0  0  0  0  0  0  0  0  0  0
  194.1920  174.6040  137.9680 C   0  0  0  0  0  1  0  0  0  0  0  0
  193.0170  172.9420  136.6700 O   0  0  0  0  0  1  0  0  0  0  0  0
  186.8380  176.5240  137.2530 C   0  0  0  0  0  2  0  0  0  0  0  0
  185.8070  177.6300  137.1150 C   0  0  0  0  0  2  0  0  0  0  0  0
  184.5350  177.0600  136.5250 C   0  0  0  0  0  2  0  0  0  0  0  0
  183.3400  177.7070  137.1890 C   0  0  0  0  0  2  0  0  0  0  0  0
  183.5040  177.6450  138.6970 C   0  0  0  0  0  2  0  0  0  0  0  0
  182.6210  178.6830  139.3720 C   0  0  0  0  0  2  0  0  0  0  0  0
  184.1790  180.4650  139.0930 O   0  0  0  0  0  1  0  0  0  0  0  0
  182.9980  180.0600  138.9430 C   0  0  0  0  0  0  0  0  0  0  0  0
  182.0380  180.9080  138.4080 O   0  0  0  0  0  0  0  0  0  0  0  0
  2 10  2  0  0  0  0
  3  8  1  6  0  0  0
  3  7  1  0  0  0  0
  3  4  1  0  0  0  0
  4 12  1  0  0  0  0
  4 19  1  0  0  0  0
  5 16  2  0  0  0  0
  5 21  1  0  0  0  0
  6  1  1  0  0  0  0
  7  4  1  0  0  0  0
  7 12  1  0  0  0  0
  9  1  2  0  0  0  0
  9  2  1  0  0  0  0
 11 13  2  0  0  0  0
 12  6  1  0  0  0  0
 13 19  1  0  0  0  0
 13 20  1  0  0  0  0
 14  8  1  0  0  0  0
 15  7  1  0  0  0  0
 16 18  1  0  0  0  0
 17 15  1  0  0  0  0
 18 14  1  0  0  0  0
 18 15  2  0  0  0  0
 19  9  1  0  0  0  0
 20 10  1  0  0  0  0
 21 17  2  0  0  0  0
 22 21  1  0  0  0  0
 22 23  1  0  0  0  0
 24 22  1  0  0  0  0
 25 14  1  0  0  0  0
 26 25  1  0  0  0  0
 27 26  1  0  0  0  0
 27 28  1  0  0  0  0
 28 29  1  0  0  0  0
 29 30  1  0  0  0  0
 32 31  1  0  0  0  0
 32 30  1  0  0  0  0
 33 32  2  0  0  0  0
M  END
>  <MODEL>
9

>  <REMARK>
 VINA RESULT:      -6.6      3.366      8.178
  Name = 
  8 active torsions:
  status: ('A' for Active; 'I' for Inactive)
    1  A    between atoms: C_6  and  C_17
    2  A    between atoms: C_6  and  C_26
    3  A    between atoms: C_13  and  C_22
    4  A    between atoms: C_13  and  C_29
    5  A    between atoms: C_17  and  C_22
    6  A    between atoms: N_18  and  C_30
    7  A    between atoms: N_20  and  C_33
    8  A    between atoms: C_26  and  C_30
                            x       y       z     vdW  Elec       q    Type
                         _______ _______ _______ _____ _____    ______ ____

>  <TORSDO>
F 8

$$$$
