=
 OpenBabel10222418513D

 33 36  0  0  1  0  0  0  0  0999 V2000
  183.4250  179.0030  145.5330 N   0  0  0  0  0  1  0  0  0  0  0  0
  185.4940  178.6180  146.9610 C   0  0  0  0  0  2  0  0  0  0  0  0
  186.1420  178.2400  142.2750 N   0  0  0  0  0  0  0  0  0  0  0  0
  187.9250  177.9810  143.8960 C   0  0  0  0  0  0  0  0  0  0  0  0
  185.2110  178.4400  143.1610 C   0  0  0  0  0  0  0  0  0  0  0  0
  187.5320  178.0060  142.5960 C   0  0  0  0  0  0  0  0  0  0  0  0
  187.2640  178.2510  146.6490 S   0  0  0  0  0  0  0  0  0  0  0  0
  186.9320  178.1490  144.9200 N   0  0  0  0  0  0  0  0  0  0  0  0
  184.8050  178.6620  145.6380 C   0  0  0  0  0  0  0  0  0  0  0  0
  185.5830  178.4150  144.5910 C   0  0  0  0  0  0  0  0  0  0  0  0
  191.1550  176.2300  144.2550 C   0  0  0  0  0  2  0  0  0  0  0  0
  191.5640  178.4990  143.6880 C   0  0  0  0  0  2  0  0  0  0  0  0
  190.2070  178.9520  144.2240 C   0  0  0  0  0  2  0  0  0  0  0  0
  189.7750  176.5460  144.8280 C   0  0  0  0  0  2  0  0  0  0  0  0
  192.0560  177.3630  144.4650 N   0  0  0  0  0  2  0  0  0  0  0  0
  189.2990  177.8110  144.2710 N   0  0  0  0  0  0  0  0  0  0  0  0
  189.2350  176.5460  141.4700 C   0  0  0  0  0  2  0  0  0  0  0  0
  190.5140  176.8110  140.6940 C   0  0  0  0  0  2  0  0  0  0  0  0
  189.1940  178.1570  139.1650 C   0  0  0  0  0  0  0  0  0  0  0  0
  188.4510  177.7780  141.5150 N   0  0  0  0  0  0  0  0  0  0  0  0
  190.1850  177.3370  139.3750 N   0  0  0  0  0  0  0  0  0  0  0  0
  188.2680  178.5660  140.2900 C   0  0  0  0  0  2  0  0  0  0  0  0
  188.9210  178.6270  137.7980 C   0  0  0  0  0  0  0  0  0  0  0  0
  189.0560  179.8480  137.5130 O   0  0  0  0  0  0  0  0  0  0  0  0
  189.5780  177.5060  135.8200 O   0  0  0  0  0  1  0  0  0  0  0  0
  188.5270  177.6580  136.7260 C   0  0  2  0  0  3  0  0  0  0  0  0
  187.3870  178.1100  136.0570 O   0  0  0  0  0  0  0  0  0  0  0  0
  185.4890  178.1230  138.0820 O   0  0  0  0  0  1  0  0  0  0  0  0
  186.5740  175.9100  137.2190 O   0  0  0  0  0  0  0  0  0  0  0  0
  184.8700  177.0560  135.6300 F   0  0  0  0  0  0  0  0  0  0  0  0
  186.0930  177.2660  136.7560 P   0  0  2  0  0  0  0  0  0  0  0  0
  183.6300  177.9830  141.4710 O   0  0  0  0  0  1  0  0  0  0  0  0
  183.8070  178.6250  142.6980 C   0  0  0  0  0  2  0  0  0  0  0  0
  1  9  1  0  0  0  0
  3  6  1  0  0  0  0
  3  5  2  0  0  0  0
  4 16  1  0  0  0  0
  4  8  1  0  0  0  0
  5 10  1  0  0  0  0
  6  4  2  0  0  0  0
  7  2  1  0  0  0  0
  8  7  1  0  0  0  0
  9  2  1  0  0  0  0
 10  8  1  0  0  0  0
 10  9  2  0  0  0  0
 11 15  1  0  0  0  0
 11 14  1  0  0  0  0
 12 13  1  0  0  0  0
 12 15  1  0  0  0  0
 13 16  1  0  0  0  0
 16 14  1  0  0  0  0
 17 20  1  0  0  0  0
 18 17  1  0  0  0  0
 19 21  2  0  0  0  0
 19 22  1  0  0  0  0
 20  6  1  0  0  0  0
 21 18  1  0  0  0  0
 22 20  1  0  0  0  0
 23 19  1  0  0  0  0
 24 23  2  0  0  0  0
 26 25  1  6  0  0  0
 26 23  1  0  0  0  0
 27 26  1  0  0  0  0
 27 31  1  0  0  0  0
 31 30  1  6  0  0  0
 31 29  2  0  0  0  0
 31 28  1  0  0  0  0
 32 33  1  0  0  0  0
 33  5  1  0  0  0  0
M  END
>  <MODEL>
1

>  <REMARK>
 VINA RESULT:      -7.6      0.000      0.000
  Name = 
  7 active torsions:
  status: ('A' for Active; 'I' for Inactive)
    1  A    between atoms: C_10  and  N_33
    2  A    between atoms: C_12  and  C_17
    3  A    between atoms: C_12  and  C_21
    4  A    between atoms: CA_14  and  C_19
    5  A    between atoms: C_18  and  N_26
    6  A    between atoms: P_20  and  O_29
    7  A    between atoms: C_21  and  O_29
                            x       y       z     vdW  Elec       q    Type
                         _______ _______ _______ _____ _____    ______ ____

>  <TORSDO>
F 7

$$$$
=
 OpenBabel10222418513D

 33 36  0  0  1  0  0  0  0  0999 V2000
  182.1920  178.4710  137.9750 N   0  0  0  0  0  1  0  0  0  0  0  0
  183.1070  177.0470  136.0770 C   0  0  0  0  0  2  0  0  0  0  0  0
  186.2790  178.3860  139.3440 N   0  0  0  0  0  0  0  0  0  0  0  0
  186.8270  176.9830  137.4440 C   0  0  0  0  0  0  0  0  0  0  0  0
  185.0270  178.5310  139.0200 C   0  0  0  0  0  0  0  0  0  0  0  0
  187.2290  177.6090  138.5810 C   0  0  0  0  0  0  0  0  0  0  0  0
  184.7360  176.3330  135.6300 S   0  0  0  0  0  0  0  0  0  0  0  0
  185.4670  177.1470  137.0130 N   0  0  0  0  0  0  0  0  0  0  0  0
  183.2950  177.8470  137.3240 C   0  0  0  0  0  0  0  0  0  0  0  0
  184.5390  177.8780  137.7890 C   0  0  0  0  0  0  0  0  0  0  0  0
  189.7530  176.1700  135.3450 C   0  0  0  0  0  2  0  0  0  0  0  0
  189.4000  174.4080  136.8970 C   0  0  0  0  0  2  0  0  0  0  0  0
  187.9270  174.7660  137.0780 C   0  0  0  0  0  2  0  0  0  0  0  0
  188.3000  176.6320  135.4300 C   0  0  0  0  0  2  0  0  0  0  0  0
  189.8290  174.7220  135.5360 N   0  0  0  0  0  2  0  0  0  0  0  0
  187.7120  176.1530  136.6800 N   0  0  0  0  0  0  0  0  0  0  0  0
  189.6460  178.2280  138.2950 C   0  0  0  0  0  2  0  0  0  0  0  0
  190.9620  177.5180  138.5630 C   0  0  0  0  0  2  0  0  0  0  0  0
  190.2620  177.2940  140.8760 C   0  0  0  0  0  0  0  0  0  0  0  0
  188.5890  177.5520  139.0450 N   0  0  0  0  0  0  0  0  0  0  0  0
  191.2090  177.4710  139.9990 N   0  0  0  0  0  0  0  0  0  0  0  0
  188.8120  177.1930  140.4500 C   0  0  0  0  0  2  0  0  0  0  0  0
  190.5970  177.2760  142.3080 C   0  0  0  0  0  0  0  0  0  0  0  0
  191.4230  176.4330  142.7520 O   0  0  0  0  0  0  0  0  0  0  0  0
  190.9350  179.2730  143.5310 O   0  0  0  0  0  1  0  0  0  0  0  0
  189.9970  178.2820  143.2410 C   0  0  2  0  0  3  0  0  0  0  0  0
  189.5820  177.6630  144.4230 O   0  0  0  0  0  0  0  0  0  0  0  0
  187.9070  175.7100  143.3800 O   0  0  0  0  0  1  0  0  0  0  0  0
  187.3040  178.2490  143.2750 O   0  0  0  0  0  0  0  0  0  0  0  0
  187.1460  177.1220  145.6080 F   0  0  0  0  0  0  0  0  0  0  0  0
  187.9700  177.2140  144.1520 P   0  0  2  0  0  0  0  0  0  0  0  0
  184.6640  179.4260  141.1730 O   0  0  0  0  0  1  0  0  0  0  0  0
  184.1620  179.3960  139.8710 C   0  0  0  0  0  2  0  0  0  0  0  0
  2  9  1  0  0  0  0
  4  6  2  0  0  0  0
  5  3  2  0  0  0  0
  5 33  1  0  0  0  0
  6 20  1  0  0  0  0
  6  3  1  0  0  0  0
  7  2  1  0  0  0  0
  7  8  1  0  0  0  0
  8  4  1  0  0  0  0
  8 10  1  0  0  0  0
  9 10  2  0  0  0  0
  9  1  1  0  0  0  0
 10  5  1  0  0  0  0
 11 14  1  0  0  0  0
 11 15  1  0  0  0  0
 12 13  1  0  0  0  0
 14 16  1  0  0  0  0
 15 12  1  0  0  0  0
 16 13  1  0  0  0  0
 16  4  1  0  0  0  0
 17 18  1  0  0  0  0
 17 20  1  0  0  0  0
 18 21  1  0  0  0  0
 19 23  1  0  0  0  0
 20 22  1  0  0  0  0
 21 19  2  0  0  0  0
 22 19  1  0  0  0  0
 23 24  2  0  0  0  0
 23 26  1  0  0  0  0
 26 25  1  1  0  0  0
 26 27  1  0  0  0  0
 28 31  1  0  0  0  0
 31 29  2  6  0  0  0
 31 27  1  0  0  0  0
 31 30  1  0  0  0  0
 33 32  1  0  0  0  0
M  END
>  <MODEL>
2

>  <REMARK>
 VINA RESULT:      -6.5      4.750      6.965
  Name = 
  7 active torsions:
  status: ('A' for Active; 'I' for Inactive)
    1  A    between atoms: C_10  and  N_33
    2  A    between atoms: C_12  and  C_17
    3  A    between atoms: C_12  and  C_21
    4  A    between atoms: CA_14  and  C_19
    5  A    between atoms: C_18  and  N_26
    6  A    between atoms: P_20  and  O_29
    7  A    between atoms: C_21  and  O_29
                            x       y       z     vdW  Elec       q    Type
                         _______ _______ _______ _____ _____    ______ ____

>  <TORSDO>
F 7

$$$$
=
 OpenBabel10222418513D

 33 36  0  0  1  0  0  0  0  0999 V2000
  181.0650  177.4750  139.2160 N   0  0  0  0  0  1  0  0  0  0  0  0
  181.2900  175.2680  137.9710 C   0  0  0  0  0  2  0  0  0  0  0  0
  185.2240  177.9160  138.1720 N   0  0  0  0  0  0  0  0  0  0  0  0
  185.1290  175.7420  137.1040 C   0  0  0  0  0  0  0  0  0  0  0  0
  183.9680  177.9320  138.5100 C   0  0  0  0  0  0  0  0  0  0  0  0
  185.8600  176.8300  137.4620 C   0  0  0  0  0  0  0  0  0  0  0  0
  182.6400  174.3650  137.1200 S   0  0  0  0  0  0  0  0  0  0  0  0
  183.7250  175.7250  137.4100 N   0  0  0  0  0  0  0  0  0  0  0  0
  181.8500  176.5690  138.4440 C   0  0  0  0  0  0  0  0  0  0  0  0
  183.1250  176.7770  138.1370 C   0  0  0  0  0  0  0  0  0  0  0  0
  187.2110  173.9510  134.6380 C   0  0  0  0  0  2  0  0  0  0  0  0
  187.3980  172.8660  136.7410 C   0  0  0  0  0  2  0  0  0  0  0  0
  186.0620  173.4250  137.2290 C   0  0  0  0  0  2  0  0  0  0  0  0
  185.8630  174.5720  134.9960 C   0  0  0  0  0  2  0  0  0  0  0  0
  187.3540  172.6530  135.2960 N   0  0  0  0  0  2  0  0  0  0  0  0
  185.7200  174.6110  136.4510 N   0  0  0  0  0  0  0  0  0  0  0  0
  187.6990  178.0130  136.2280 C   0  0  0  0  0  2  0  0  0  0  0  0
  188.9820  177.5640  135.5500 C   0  0  0  0  0  2  0  0  0  0  0  0
  189.6640  176.6160  137.6770 C   0  0  0  0  0  0  0  0  0  0  0  0
  187.2540  176.9550  137.1340 N   0  0  0  0  0  0  0  0  0  0  0  0
  189.9720  177.2100  136.5600 N   0  0  0  0  0  0  0  0  0  0  0  0
  188.2230  176.3110  138.0280 C   0  0  0  0  0  2  0  0  0  0  0  0
  190.7250  176.3100  138.6500 C   0  0  0  0  0  0  0  0  0  0  0  0
  191.5880  175.4300  138.3850 O   0  0  0  0  0  0  0  0  0  0  0  0
  192.1490  177.3720  140.2130 O   0  0  0  0  0  1  0  0  0  0  0  0
  190.8150  177.0680  139.9380 C   0  0  2  0  0  3  0  0  0  0  0  0
  190.2750  176.3160  140.9840 O   0  0  0  0  0  0  0  0  0  0  0  0
  188.2070  176.5350  142.8230 O   0  0  0  0  0  1  0  0  0  0  0  0
  188.5150  178.2500  140.8770 O   0  0  0  0  0  0  0  0  0  0  0  0
  190.2370  178.3840  142.8160 F   0  0  0  0  0  0  0  0  0  0  0  0
  189.2920  177.3930  141.8500 P   0  0  2  0  0  0  0  0  0  0  0  0
  184.3000  180.2090  139.0280 O   0  0  0  0  0  1  0  0  0  0  0  0
  183.4250  179.1350  139.2010 C   0  0  0  0  0  2  0  0  0  0  0  0
  2  9  1  0  0  0  0
  3  5  2  0  0  0  0
  4  8  1  0  0  0  0
  4  6  2  0  0  0  0
  5 33  1  0  0  0  0
  6  3  1  0  0  0  0
  7  8  1  0  0  0  0
  7  2  1  0  0  0  0
  8 10  1  0  0  0  0
  9  1  1  0  0  0  0
 10  9  2  0  0  0  0
 10  5  1  0  0  0  0
 11 14  1  0  0  0  0
 11 15  1  0  0  0  0
 12 13  1  0  0  0  0
 14 16  1  0  0  0  0
 15 12  1  0  0  0  0
 16  4  1  0  0  0  0
 16 13  1  0  0  0  0
 17 20  1  0  0  0  0
 18 17  1  0  0  0  0
 18 21  1  0  0  0  0
 19 22  1  0  0  0  0
 19 23  1  0  0  0  0
 20  6  1  0  0  0  0
 20 22  1  0  0  0  0
 21 19  2  0  0  0  0
 23 26  1  0  0  0  0
 24 23  2  0  0  0  0
 26 25  1  1  0  0  0
 26 27  1  0  0  0  0
 27 31  1  0  0  0  0
 31 29  2  6  0  0  0
 31 30  1  0  0  0  0
 31 28  1  0  0  0  0
 32 33  1  0  0  0  0
M  END
>  <MODEL>
3

>  <REMARK>
 VINA RESULT:      -6.4      5.305      7.083
  Name = 
  7 active torsions:
  status: ('A' for Active; 'I' for Inactive)
    1  A    between atoms: C_10  and  N_33
    2  A    between atoms: C_12  and  C_17
    3  A    between atoms: C_12  and  C_21
    4  A    between atoms: CA_14  and  C_19
    5  A    between atoms: C_18  and  N_26
    6  A    between atoms: P_20  and  O_29
    7  A    between atoms: C_21  and  O_29
                            x       y       z     vdW  Elec       q    Type
                         _______ _______ _______ _____ _____    ______ ____

>  <TORSDO>
F 7

$$$$
=
 OpenBabel10222418513D

 33 36  0  0  1  0  0  0  0  0999 V2000
  187.2790  170.6150  135.1620 N   0  0  0  0  0  1  0  0  0  0  0  0
  189.7300  171.0740  134.6590 C   0  0  0  0  0  2  0  0  0  0  0  0
  187.4270  174.5350  136.9490 N   0  0  0  0  0  0  0  0  0  0  0  0
  189.7790  174.6480  136.3720 C   0  0  0  0  0  0  0  0  0  0  0  0
  187.2340  173.3690  136.4060 C   0  0  0  0  0  0  0  0  0  0  0  0
  188.6990  175.2230  136.9600 C   0  0  0  0  0  0  0  0  0  0  0  0
  190.9130  172.4340  134.9920 S   0  0  0  0  0  0  0  0  0  0  0  0
  189.6130  173.3810  135.7160 N   0  0  0  0  0  0  0  0  0  0  0  0
  188.4020  171.4930  135.1970 C   0  0  0  0  0  0  0  0  0  0  0  0
  188.3740  172.7020  135.7450 C   0  0  0  0  0  0  0  0  0  0  0  0
  193.3920  174.9060  137.0840 C   0  0  0  0  0  2  0  0  0  0  0  0
  192.9450  175.9100  134.9800 C   0  0  0  0  0  2  0  0  0  0  0  0
  191.4790  176.1580  135.3290 C   0  0  0  0  0  2  0  0  0  0  0  0
  191.9540  175.0970  137.5620 C   0  0  0  0  0  2  0  0  0  0  0  0
  193.7690  175.9950  136.1840 N   0  0  0  0  0  2  0  0  0  0  0  0
  191.0770  175.2580  136.4040 N   0  0  0  0  0  0  0  0  0  0  0  0
  188.3950  177.7120  136.8180 C   0  0  0  0  0  2  0  0  0  0  0  0
  189.1340  178.9060  137.3950 C   0  0  0  0  0  2  0  0  0  0  0  0
  188.7160  177.9800  139.5990 C   0  0  0  0  0  0  0  0  0  0  0  0
  188.7650  176.5200  137.5780 N   0  0  0  0  0  0  0  0  0  0  0  0
  188.8490  179.0160  138.8210 N   0  0  0  0  0  0  0  0  0  0  0  0
  188.7860  176.5720  139.0450 C   0  0  0  0  0  2  0  0  0  0  0  0
  188.4110  178.1800  141.0250 C   0  0  0  0  0  0  0  0  0  0  0  0
  187.4990  178.9810  141.3680 O   0  0  0  0  0  0  0  0  0  0  0  0
  188.3120  176.4180  142.6010 O   0  0  0  0  0  1  0  0  0  0  0  0
  189.1460  177.4050  142.0740 C   0  0  2  0  0  3  0  0  0  0  0  0
  189.5750  178.2560  143.0960 O   0  0  0  0  0  0  0  0  0  0  0  0
  192.0120  179.0970  144.1270 O   0  0  0  0  0  1  0  0  0  0  0  0
  191.8600  177.4580  142.0980 O   0  0  0  0  0  0  0  0  0  0  0  0
  191.2280  176.4820  144.4200 F   0  0  0  0  0  0  0  0  0  0  0  0
  191.1830  177.8130  143.4020 P   0  0  2  0  0  0  0  0  0  0  0  0
  185.3750  172.7750  137.7320 O   0  0  0  0  0  1  0  0  0  0  0  0
  185.8610  172.7890  136.4240 C   0  0  0  0  0  2  0  0  0  0  0  0
  1  9  1  0  0  0  0
  2  7  1  0  0  0  0
  2  9  1  0  0  0  0
  3  6  1  0  0  0  0
  4 16  1  0  0  0  0
  4  6  2  0  0  0  0
  5 33  1  0  0  0  0
  5  3  2  0  0  0  0
  6 20  1  0  0  0  0
  7  8  1  0  0  0  0
  8 10  1  0  0  0  0
  8  4  1  0  0  0  0
  9 10  2  0  0  0  0
 10  5  1  0  0  0  0
 11 14  1  0  0  0  0
 12 13  1  0  0  0  0
 12 15  1  0  0  0  0
 13 16  1  0  0  0  0
 15 11  1  0  0  0  0
 16 14  1  0  0  0  0
 17 18  1  0  0  0  0
 17 20  1  0  0  0  0
 18 21  1  0  0  0  0
 19 23  1  0  0  0  0
 20 22  1  0  0  0  0
 21 19  2  0  0  0  0
 22 19  1  0  0  0  0
 23 24  2  0  0  0  0
 23 26  1  0  0  0  0
 26 25  1  1  0  0  0
 26 27  1  0  0  0  0
 27 31  1  0  0  0  0
 31 29  2  6  0  0  0
 31 28  1  0  0  0  0
 31 30  1  0  0  0  0
 33 32  1  0  0  0  0
M  END
>  <MODEL>
4

>  <REMARK>
 VINA RESULT:      -6.4      5.460      8.439
  Name = 
  7 active torsions:
  status: ('A' for Active; 'I' for Inactive)
    1  A    between atoms: C_10  and  N_33
    2  A    between atoms: C_12  and  C_17
    3  A    between atoms: C_12  and  C_21
    4  A    between atoms: CA_14  and  C_19
    5  A    between atoms: C_18  and  N_26
    6  A    between atoms: P_20  and  O_29
    7  A    between atoms: C_21  and  O_29
                            x       y       z     vdW  Elec       q    Type
                         _______ _______ _______ _____ _____    ______ ____

>  <TORSDO>
F 7

$$$$
=
 OpenBabel10222418513D

 33 36  0  0  1  0  0  0  0  0999 V2000
  183.8200  178.8770  144.8440 N   0  0  0  0  0  1  0  0  0  0  0  0
  186.0440  178.1030  145.8060 C   0  0  0  0  0  2  0  0  0  0  0  0
  185.8930  178.5240  141.0810 N   0  0  0  0  0  0  0  0  0  0  0  0
  187.8790  177.8580  142.3010 C   0  0  0  0  0  0  0  0  0  0  0  0
  185.1400  178.6260  142.1370 C   0  0  0  0  0  0  0  0  0  0  0  0
  187.2870  178.1420  141.1120 C   0  0  0  0  0  0  0  0  0  0  0  0
  187.6960  177.6790  145.1340 S   0  0  0  0  0  0  0  0  0  0  0  0
  187.0830  177.9090  143.4970 N   0  0  0  0  0  0  0  0  0  0  0  0
  185.1590  178.4290  144.6480 C   0  0  0  0  0  0  0  0  0  0  0  0
  185.7320  178.3210  143.4550 C   0  0  0  0  0  0  0  0  0  0  0  0
  191.3320  178.0600  143.5900 C   0  0  0  0  0  2  0  0  0  0  0  0
  190.8040  175.7890  143.1470 C   0  0  0  0  0  2  0  0  0  0  0  0
  189.7120  176.1630  142.1460 C   0  0  0  0  0  2  0  0  0  0  0  0
  190.2750  178.5720  142.6130 C   0  0  0  0  0  2  0  0  0  0  0  0
  191.8720  176.7850  143.1190 N   0  0  0  0  0  2  0  0  0  0  0  0
  189.2720  177.5310  142.3980 N   0  0  0  0  0  0  0  0  0  0  0  0
  189.0560  179.0030  139.5530 C   0  0  0  0  0  2  0  0  0  0  0  0
  189.1720  179.1260  138.0430 C   0  0  0  0  0  2  0  0  0  0  0  0
  188.8190  176.7280  137.9160 C   0  0  0  0  0  0  0  0  0  0  0  0
  187.9940  178.0480  139.8640 N   0  0  0  0  0  0  0  0  0  0  0  0
  189.3890  177.8070  137.4600 N   0  0  0  0  0  0  0  0  0  0  0  0
  187.9330  176.7710  139.1430 C   0  0  0  0  0  2  0  0  0  0  0  0
  189.1070  175.4330  137.2780 C   0  0  0  0  0  0  0  0  0  0  0  0
  188.1810  174.7900  136.7130 O   0  0  0  0  0  0  0  0  0  0  0  0
  190.4660  173.4970  137.2170 O   0  0  0  0  0  1  0  0  0  0  0  0
  190.5020  174.8920  137.2550 C   0  0  2  0  0  3  0  0  0  0  0  0
  191.2070  175.3160  138.3850 O   0  0  0  0  0  0  0  0  0  0  0  0
  193.5360  176.7660  138.8050 O   0  0  0  0  0  1  0  0  0  0  0  0
  192.7590  176.0630  136.4130 O   0  0  0  0  0  0  0  0  0  0  0  0
  193.6790  174.1680  137.9300 F   0  0  0  0  0  0  0  0  0  0  0  0
  192.7920  175.5870  137.8470 P   0  0  2  0  0  0  0  0  0  0  0  0
  183.1200  178.1370  141.0200 O   0  0  0  0  0  1  0  0  0  0  0  0
  183.7050  178.9850  141.9620 C   0  0  0  0  0  2  0  0  0  0  0  0
  3  6  1  0  0  0  0
  3  5  2  0  0  0  0
  4 16  1  0  0  0  0
  4  8  1  0  0  0  0
  5 10  1  0  0  0  0
  6  4  2  0  0  0  0
  7  2  1  0  0  0  0
  8  7  1  0  0  0  0
  9  1  1  0  0  0  0
  9  2  1  0  0  0  0
 10  8  1  0  0  0  0
 10  9  2  0  0  0  0
 13 16  1  0  0  0  0
 13 12  1  0  0  0  0
 14 11  1  0  0  0  0
 15 12  1  0  0  0  0
 15 11  1  0  0  0  0
 16 14  1  0  0  0  0
 17 20  1  0  0  0  0
 18 17  1  0  0  0  0
 19 22  1  0  0  0  0
 20  6  1  0  0  0  0
 21 19  2  0  0  0  0
 21 18  1  0  0  0  0
 22 20  1  0  0  0  0
 23 19  1  0  0  0  0
 24 23  2  0  0  0  0
 26 25  1  1  0  0  0
 26 23  1  0  0  0  0
 26 27  1  0  0  0  0
 31 29  2  6  0  0  0
 31 30  1  0  0  0  0
 31 27  1  0  0  0  0
 31 28  1  0  0  0  0
 32 33  1  0  0  0  0
 33  5  1  0  0  0  0
M  END
>  <MODEL>
5

>  <REMARK>
 VINA RESULT:      -6.4      2.859      3.651
  Name = 
  7 active torsions:
  status: ('A' for Active; 'I' for Inactive)
    1  A    between atoms: C_10  and  N_33
    2  A    between atoms: C_12  and  C_17
    3  A    between atoms: C_12  and  C_21
    4  A    between atoms: CA_14  and  C_19
    5  A    between atoms: C_18  and  N_26
    6  A    between atoms: P_20  and  O_29
    7  A    between atoms: C_21  and  O_29
                            x       y       z     vdW  Elec       q    Type
                         _______ _______ _______ _____ _____    ______ ____

>  <TORSDO>
F 7

$$$$
=
 OpenBabel10222418513D

 33 36  0  0  1  0  0  0  0  0999 V2000
  184.8020  178.6390  147.0900 N   0  0  0  0  0  1  0  0  0  0  0  0
  187.2040  177.8400  147.3320 C   0  0  0  0  0  2  0  0  0  0  0  0
  185.7350  178.5910  142.8820 N   0  0  0  0  0  0  0  0  0  0  0  0
  187.9820  177.8780  143.4450 C   0  0  0  0  0  0  0  0  0  0  0  0
  185.3090  178.6050  144.1110 C   0  0  0  0  0  0  0  0  0  0  0  0
  187.0810  178.2340  142.4940 C   0  0  0  0  0  0  0  0  0  0  0  0
  188.6010  177.4950  146.1950 S   0  0  0  0  0  0  0  0  0  0  0  0
  187.5540  177.8300  144.8160 N   0  0  0  0  0  0  0  0  0  0  0  0
  186.0310  178.2310  146.4950 C   0  0  0  0  0  0  0  0  0  0  0  0
  186.2460  178.2180  145.1850 C   0  0  0  0  0  0  0  0  0  0  0  0
  191.6590  178.1420  143.6410 C   0  0  0  0  0  2  0  0  0  0  0  0
  191.0600  175.8590  143.3950 C   0  0  0  0  0  2  0  0  0  0  0  0
  189.7130  176.2060  142.7630 C   0  0  0  0  0  2  0  0  0  0  0  0
  190.3500  178.6280  143.0210 C   0  0  0  0  0  2  0  0  0  0  0  0
  192.0540  176.8690  143.0410 N   0  0  0  0  0  2  0  0  0  0  0  0
  189.3460  177.5710  143.1240 N   0  0  0  0  0  0  0  0  0  0  0  0
  188.7280  177.7940  140.6510 C   0  0  0  0  0  2  0  0  0  0  0  0
  189.0580  178.4790  139.3360 C   0  0  0  0  0  2  0  0  0  0  0  0
  186.7400  178.1530  138.6940 C   0  0  0  0  0  0  0  0  0  0  0  0
  187.4100  178.2420  141.0940 N   0  0  0  0  0  0  0  0  0  0  0  0
  188.0000  178.2150  138.3680 N   0  0  0  0  0  0  0  0  0  0  0  0
  186.2990  178.2880  140.1360 C   0  0  0  0  0  2  0  0  0  0  0  0
  185.7380  177.8650  137.6560 C   0  0  0  0  0  0  0  0  0  0  0  0
  186.0690  177.8770  136.4390 O   0  0  0  0  0  0  0  0  0  0  0  0
  184.0210  176.2400  137.5490 O   0  0  0  0  0  1  0  0  0  0  0  0
  184.3340  177.5110  138.0340 C   0  0  2  0  0  3  0  0  0  0  0  0
  183.4380  178.4490  137.5140 O   0  0  0  0  0  0  0  0  0  0  0  0
  181.4130  180.0470  138.5380 O   0  0  0  0  0  0  0  0  0  0  0  0
  183.9280  180.4800  139.0920 O   0  0  0  0  0  1  0  0  0  0  0  0
  182.8410  178.4050  140.2110 F   0  0  0  0  0  0  0  0  0  0  0  0
  182.9320  179.3700  138.8450 P   0  0  2  0  0  0  0  0  0  0  0  0
  183.1160  178.6610  143.2410 O   0  0  0  0  0  1  0  0  0  0  0  0
  183.8830  178.9490  144.3720 C   0  0  0  0  0  2  0  0  0  0  0  0
  3  5  2  0  0  0  0
  4  8  1  0  0  0  0
  5 33  1  0  0  0  0
  5 10  1  0  0  0  0
  6  3  1  0  0  0  0
  6  4  2  0  0  0  0
  7  2  1  0  0  0  0
  8 10  1  0  0  0  0
  8  7  1  0  0  0  0
  9  1  1  0  0  0  0
  9  2  1  0  0  0  0
 10  9  2  0  0  0  0
 13 16  1  0  0  0  0
 13 12  1  0  0  0  0
 14 16  1  0  0  0  0
 14 11  1  0  0  0  0
 15 12  1  0  0  0  0
 15 11  1  0  0  0  0
 16  4  1  0  0  0  0
 17 20  1  0  0  0  0
 18 17  1  0  0  0  0
 19 22  1  0  0  0  0
 20  6  1  0  0  0  0
 21 19  2  0  0  0  0
 21 18  1  0  0  0  0
 22 20  1  0  0  0  0
 23 26  1  0  0  0  0
 23 19  1  0  0  0  0
 24 23  2  0  0  0  0
 26 25  1  6  0  0  0
 27 26  1  0  0  0  0
 27 31  1  0  0  0  0
 31 28  2  6  0  0  0
 31 29  1  0  0  0  0
 31 30  1  0  0  0  0
 32 33  1  0  0  0  0
M  END
>  <MODEL>
6

>  <REMARK>
 VINA RESULT:      -6.3      2.202      2.907
  Name = 
  7 active torsions:
  status: ('A' for Active; 'I' for Inactive)
    1  A    between atoms: C_10  and  N_33
    2  A    between atoms: C_12  and  C_17
    3  A    between atoms: C_12  and  C_21
    4  A    between atoms: CA_14  and  C_19
    5  A    between atoms: C_18  and  N_26
    6  A    between atoms: P_20  and  O_29
    7  A    between atoms: C_21  and  O_29
                            x       y       z     vdW  Elec       q    Type
                         _______ _______ _______ _____ _____    ______ ____

>  <TORSDO>
F 7

$$$$
=
 OpenBabel10222418513D

 33 36  0  0  1  0  0  0  0  0999 V2000
  187.3520  177.6560  148.9590 N   0  0  0  0  0  1  0  0  0  0  0  0
  189.6540  177.0920  148.0350 C   0  0  0  0  0  2  0  0  0  0  0  0
  186.3650  178.2040  144.7990 N   0  0  0  0  0  0  0  0  0  0  0  0
  188.6630  177.6700  144.2410 C   0  0  0  0  0  0  0  0  0  0  0  0
  186.5160  178.0270  146.0790 C   0  0  0  0  0  0  0  0  0  0  0  0
  187.4230  178.0380  143.8280 C   0  0  0  0  0  0  0  0  0  0  0  0
  190.4320  177.0330  146.3760 S   0  0  0  0  0  0  0  0  0  0  0  0
  188.8760  177.4150  145.6390 N   0  0  0  0  0  0  0  0  0  0  0  0
  188.2180  177.4530  147.8450 C   0  0  0  0  0  0  0  0  0  0  0  0
  187.8430  177.6170  146.5820 C   0  0  0  0  0  0  0  0  0  0  0  0
  192.0490  178.2860  142.9050 C   0  0  0  0  0  2  0  0  0  0  0  0
  191.4920  176.0020  142.5770 C   0  0  0  0  0  2  0  0  0  0  0  0
  189.9920  176.2850  142.6360 C   0  0  0  0  0  2  0  0  0  0  0  0
  190.5830  178.7080  142.9810 C   0  0  0  0  0  2  0  0  0  0  0  0
  192.1950  177.1460  142.0010 N   0  0  0  0  0  2  0  0  0  0  0  0
  189.7640  177.5480  143.3300 N   0  0  0  0  0  0  0  0  0  0  0  0
  187.8510  177.5220  141.4080 C   0  0  0  0  0  2  0  0  0  0  0  0
  187.8260  178.3390  140.1280 C   0  0  0  0  0  2  0  0  0  0  0  0
  185.5150  178.8840  140.6330 C   0  0  0  0  0  0  0  0  0  0  0  0
  187.1110  178.2460  142.4400 N   0  0  0  0  0  0  0  0  0  0  0  0
  186.4450  178.6260  139.7570 N   0  0  0  0  0  0  0  0  0  0  0  0
  185.8050  178.8340  142.1180 C   0  0  0  0  0  2  0  0  0  0  0  0
  184.1420  179.1460  140.1740 C   0  0  0  0  0  0  0  0  0  0  0  0
  183.9330  179.9910  139.2610 O   0  0  0  0  0  0  0  0  0  0  0  0
  182.9540  177.1000  140.2070 O   0  0  0  0  0  1  0  0  0  0  0  0
  182.9900  178.3850  140.7510 C   0  0  2  0  0  3  0  0  0  0  0  0
  181.7880  179.0450  140.4840 O   0  0  0  0  0  0  0  0  0  0  0  0
  180.0760  180.5180  142.0980 O   0  0  0  0  0  0  0  0  0  0  0  0
  181.9570  179.0060  143.0970 O   0  0  0  0  0  1  0  0  0  0  0  0
  179.9130  177.7770  142.0700 F   0  0  0  0  0  0  0  0  0  0  0  0
  180.9590  179.0820  141.9640 P   0  0  2  0  0  0  0  0  0  0  0  0
  184.3840  179.0020  146.3470 O   0  0  0  0  0  1  0  0  0  0  0  0
  185.3310  178.1850  146.9680 C   0  0  0  0  0  2  0  0  0  0  0  0
  3  5  2  0  0  0  0
  4  8  1  0  0  0  0
  5 10  1  0  0  0  0
  5 33  1  0  0  0  0
  6  4  2  0  0  0  0
  6  3  1  0  0  0  0
  7  2  1  0  0  0  0
  8  7  1  0  0  0  0
  8 10  1  0  0  0  0
  9  2  1  0  0  0  0
  9  1  1  0  0  0  0
 10  9  2  0  0  0  0
 11 14  1  0  0  0  0
 12 13  1  0  0  0  0
 13 16  1  0  0  0  0
 14 16  1  0  0  0  0
 15 12  1  0  0  0  0
 15 11  1  0  0  0  0
 16  4  1  0  0  0  0
 17 20  1  0  0  0  0
 18 17  1  0  0  0  0
 19 22  1  0  0  0  0
 20  6  1  0  0  0  0
 21 18  1  0  0  0  0
 21 19  2  0  0  0  0
 22 20  1  0  0  0  0
 23 19  1  0  0  0  0
 23 26  1  0  0  0  0
 24 23  2  0  0  0  0
 26 25  1  6  0  0  0
 27 26  1  0  0  0  0
 27 31  1  0  0  0  0
 31 30  1  1  0  0  0
 31 28  2  0  0  0  0
 31 29  1  0  0  0  0
 32 33  1  0  0  0  0
M  END
>  <MODEL>
7

>  <REMARK>
 VINA RESULT:      -6.1      3.286      4.661
  Name = 
  7 active torsions:
  status: ('A' for Active; 'I' for Inactive)
    1  A    between atoms: C_10  and  N_33
    2  A    between atoms: C_12  and  C_17
    3  A    between atoms: C_12  and  C_21
    4  A    between atoms: CA_14  and  C_19
    5  A    between atoms: C_18  and  N_26
    6  A    between atoms: P_20  and  O_29
    7  A    between atoms: C_21  and  O_29
                            x       y       z     vdW  Elec       q    Type
                         _______ _______ _______ _____ _____    ______ ____

>  <TORSDO>
F 7

$$$$
=
 OpenBabel10222418513D

 33 36  0  0  1  0  0  0  0  0999 V2000
  183.2240  179.2410  140.6830 N   0  0  0  0  0  1  0  0  0  0  0  0
  184.1170  178.7340  138.3560 C   0  0  0  0  0  2  0  0  0  0  0  0
  187.2600  178.3260  141.8890 N   0  0  0  0  0  0  0  0  0  0  0  0
  187.7890  177.8620  139.5690 C   0  0  0  0  0  0  0  0  0  0  0  0
  186.0270  178.6710  141.6580 C   0  0  0  0  0  0  0  0  0  0  0  0
  188.1900  177.9050  140.8660 C   0  0  0  0  0  0  0  0  0  0  0  0
  185.7180  178.1910  137.6470 S   0  0  0  0  0  0  0  0  0  0  0  0
  186.4510  178.2770  139.2490 N   0  0  0  0  0  0  0  0  0  0  0  0
  184.3110  178.8980  139.8280 C   0  0  0  0  0  0  0  0  0  0  0  0
  185.5410  178.6500  140.2630 C   0  0  0  0  0  0  0  0  0  0  0  0
  188.9180  175.6640  136.8270 C   0  0  0  0  0  2  0  0  0  0  0  0
  189.4060  177.9180  136.2630 C   0  0  0  0  0  2  0  0  0  0  0  0
  189.4040  178.3600  137.7250 C   0  0  0  0  0  2  0  0  0  0  0  0
  188.8900  175.9690  138.3230 C   0  0  0  0  0  2  0  0  0  0  0  0
  189.8790  176.5400  136.1570 N   0  0  0  0  0  2  0  0  0  0  0  0
  188.6500  177.3970  138.5210 N   0  0  0  0  0  0  0  0  0  0  0  0
  190.6580  178.3590  140.7670 C   0  0  0  0  0  2  0  0  0  0  0  0
  191.8990  177.4840  140.7600 C   0  0  0  0  0  2  0  0  0  0  0  0
  191.1440  176.5610  142.8740 C   0  0  0  0  0  0  0  0  0  0  0  0
  189.5310  177.5710  141.2620 N   0  0  0  0  0  0  0  0  0  0  0  0
  192.1170  176.9340  142.0930 N   0  0  0  0  0  0  0  0  0  0  0  0
  189.6980  176.7420  142.4620 C   0  0  0  0  0  2  0  0  0  0  0  0
  191.4530  176.0320  144.2120 C   0  0  0  0  0  0  0  0  0  0  0  0
  192.0730  174.9410  144.3300 O   0  0  0  0  0  0  0  0  0  0  0  0
  192.1180  176.7540  146.3650 O   0  0  0  0  0  1  0  0  0  0  0  0
  191.0750  176.8030  145.4380 C   0  0  2  0  0  3  0  0  0  0  0  0
  189.9130  176.2750  146.0060 O   0  0  0  0  0  0  0  0  0  0  0  0
  189.0480  178.2410  147.7640 O   0  0  0  0  0  1  0  0  0  0  0  0
  187.4440  177.1440  146.0200 O   0  0  0  0  0  0  0  0  0  0  0  0
  189.2230  178.7840  145.0790 F   0  0  0  0  0  0  0  0  0  0  0  0
  188.8730  177.5980  146.2100 P   0  0  2  0  0  0  0  0  0  0  0  0
  185.4140  178.3140  143.9080 O   0  0  0  0  0  1  0  0  0  0  0  0
  185.1840  179.1290  142.7980 C   0  0  0  0  0  2  0  0  0  0  0  0
  2  9  1  0  0  0  0
  4  6  2  0  0  0  0
  5  3  2  0  0  0  0
  5 33  1  0  0  0  0
  6 20  1  0  0  0  0
  6  3  1  0  0  0  0
  7  2  1  0  0  0  0
  7  8  1  0  0  0  0
  8  4  1  0  0  0  0
  8 10  1  0  0  0  0
  9 10  2  0  0  0  0
  9  1  1  0  0  0  0
 10  5  1  0  0  0  0
 11 14  1  0  0  0  0
 12 13  1  0  0  0  0
 13 16  1  0  0  0  0
 14 16  1  0  0  0  0
 15 12  1  0  0  0  0
 15 11  1  0  0  0  0
 16  4  1  0  0  0  0
 17 20  1  0  0  0  0
 18 17  1  0  0  0  0
 18 21  1  0  0  0  0
 19 23  1  0  0  0  0
 20 22  1  0  0  0  0
 21 19  2  0  0  0  0
 22 19  1  0  0  0  0
 23 24  2  0  0  0  0
 23 26  1  0  0  0  0
 26 27  1  0  0  0  0
 26 25  1  1  0  0  0
 27 31  1  0  0  0  0
 29 31  2  0  0  0  0
 31 30  1  6  0  0  0
 31 28  1  0  0  0  0
 33 32  1  0  0  0  0
M  END
>  <MODEL>
8

>  <REMARK>
 VINA RESULT:      -6.1      4.772      6.767
  Name = 
  7 active torsions:
  status: ('A' for Active; 'I' for Inactive)
    1  A    between atoms: C_10  and  N_33
    2  A    between atoms: C_12  and  C_17
    3  A    between atoms: C_12  and  C_21
    4  A    between atoms: CA_14  and  C_19
    5  A    between atoms: C_18  and  N_26
    6  A    between atoms: P_20  and  O_29
    7  A    between atoms: C_21  and  O_29
                            x       y       z     vdW  Elec       q    Type
                         _______ _______ _______ _____ _____    ______ ____

>  <TORSDO>
F 7

$$$$
=
 OpenBabel10222418513D

 33 36  0  0  1  0  0  0  0  0999 V2000
  187.3480  177.7870  148.8600 N   0  0  0  0  0  1  0  0  0  0  0  0
  189.6220  177.2060  147.8810 C   0  0  0  0  0  2  0  0  0  0  0  0
  186.2400  178.2530  144.7200 N   0  0  0  0  0  0  0  0  0  0  0  0
  188.5210  177.7090  144.1070 C   0  0  0  0  0  0  0  0  0  0  0  0
  186.4280  178.1010  145.9990 C   0  0  0  0  0  0  0  0  0  0  0  0
  187.2700  178.0690  143.7220 C   0  0  0  0  0  0  0  0  0  0  0  0
  190.3510  177.1140  146.2010 S   0  0  0  0  0  0  0  0  0  0  0  0
  188.7750  177.4820  145.5030 N   0  0  0  0  0  0  0  0  0  0  0  0
  188.1810  177.5630  147.7260 C   0  0  0  0  0  0  0  0  0  0  0  0
  187.7690  177.7020  146.4710 C   0  0  0  0  0  0  0  0  0  0  0  0
  191.8750  178.2790  142.6750 C   0  0  0  0  0  2  0  0  0  0  0  0
  191.2840  175.9990  142.3750 C   0  0  0  0  0  2  0  0  0  0  0  0
  189.7900  176.2990  142.4750 C   0  0  0  0  0  2  0  0  0  0  0  0
  190.4170  178.7170  142.7880 C   0  0  0  0  0  2  0  0  0  0  0  0
  191.9840  177.1320  141.7740 N   0  0  0  0  0  2  0  0  0  0  0  0
  189.5950  177.5690  143.1660 N   0  0  0  0  0  0  0  0  0  0  0  0
  185.7970  179.1150  141.9780 C   0  0  0  0  0  2  0  0  0  0  0  0
  185.2310  178.6500  140.6480 C   0  0  0  0  0  2  0  0  0  0  0  0
  187.5140  178.2670  139.9190 C   0  0  0  0  0  0  0  0  0  0  0  0
  186.9170  178.2490  142.3400 N   0  0  0  0  0  0  0  0  0  0  0  0
  186.2910  178.6240  139.6470 N   0  0  0  0  0  0  0  0  0  0  0  0
  187.9290  177.9130  141.3320 C   0  0  0  0  0  2  0  0  0  0  0  0
  188.5280  178.2860  138.8520 C   0  0  0  0  0  0  0  0  0  0  0  0
  189.0570  179.3770  138.5050 O   0  0  0  0  0  0  0  0  0  0  0  0
  187.8660  176.1880  137.9810 O   0  0  0  0  0  1  0  0  0  0  0  0
  188.9710  177.0120  138.2030 C   0  0  2  0  0  3  0  0  0  0  0  0
  189.8980  176.3510  139.0120 O   0  0  0  0  0  0  0  0  0  0  0  0
  190.8870  176.5380  136.4250 O   0  0  0  0  0  0  0  0  0  0  0  0
  191.4270  174.5010  137.9670 O   0  0  0  0  0  1  0  0  0  0  0  0
  192.5960  176.7410  138.5630 F   0  0  0  0  0  0  0  0  0  0  0  0
  191.2070  175.9960  137.9940 P   0  0  2  0  0  0  0  0  0  0  0  0
  184.1860  178.8060  146.2140 O   0  0  0  0  0  1  0  0  0  0  0  0
  185.2690  178.2770  146.9190 C   0  0  0  0  0  2  0  0  0  0  0  0
  3  5  2  0  0  0  0
  4  8  1  0  0  0  0
  5 10  1  0  0  0  0
  5 33  1  0  0  0  0
  6  4  2  0  0  0  0
  6  3  1  0  0  0  0
  7  2  1  0  0  0  0
  8  7  1  0  0  0  0
  8 10  1  0  0  0  0
  9  2  1  0  0  0  0
  9  1  1  0  0  0  0
 10  9  2  0  0  0  0
 11 14  1  0  0  0  0
 12 13  1  0  0  0  0
 13 16  1  0  0  0  0
 14 16  1  0  0  0  0
 15 12  1  0  0  0  0
 15 11  1  0  0  0  0
 16  4  1  0  0  0  0
 17 20  1  0  0  0  0
 18 17  1  0  0  0  0
 19 22  1  0  0  0  0
 20  6  1  0  0  0  0
 21 19  2  0  0  0  0
 21 18  1  0  0  0  0
 22 20  1  0  0  0  0
 23 19  1  0  0  0  0
 24 23  2  0  0  0  0
 26 25  1  1  0  0  0
 26 23  1  0  0  0  0
 26 27  1  0  0  0  0
 29 31  1  0  0  0  0
 31 28  2  6  0  0  0
 31 30  1  0  0  0  0
 31 27  1  0  0  0  0
 32 33  1  0  0  0  0
M  END
>  <MODEL>
9

>  <REMARK>
 VINA RESULT:      -6.1      2.764      3.732
  Name = 
  7 active torsions:
  status: ('A' for Active; 'I' for Inactive)
    1  A    between atoms: C_10  and  N_33
    2  A    between atoms: C_12  and  C_17
    3  A    between atoms: C_12  and  C_21
    4  A    between atoms: CA_14  and  C_19
    5  A    between atoms: C_18  and  N_26
    6  A    between atoms: P_20  and  O_29
    7  A    between atoms: C_21  and  O_29
                            x       y       z     vdW  Elec       q    Type
                         _______ _______ _______ _____ _____    ______ ____

>  <TORSDO>
F 7

$$$$
