=
 OpenBabel10222418573D

 43 43  0  0  1  0  0  0  0  0999 V2000
  189.7060  177.4580  142.2850 C   0  0  1  0  0  3  0  0  0  0  0  0
  190.8960  176.9140  140.2830 O   0  0  0  0  0  0  0  0  0  0  0  0
  189.8310  177.3500  140.7970 C   0  0  0  0  0  0  0  0  0  0  0  0
  188.7230  177.7760  139.9300 C   0  0  0  0  0  0  0  0  0  0  0  0
  187.9300  178.6770  140.3150 O   0  0  0  0  0  0  0  0  0  0  0  0
  188.5500  177.1710  138.6490 N   0  0  0  0  0  2  0  0  0  0  0  0
  184.9790  175.9780  135.9730 O   0  0  0  0  0  0  0  0  0  0  0  0
  186.7220  176.6950  137.2490 C   0  0  0  0  0  0  0  0  0  0  0  0
  185.6950  177.0280  136.4110 O   0  0  0  0  0  0  0  0  0  0  0  0
  185.6700  174.8270  136.4520 C   0  0  1  0  0  3  0  0  0  0  0  0
  186.7860  175.2510  137.4150 C   0  0  0  0  0  2  0  0  0  0  0  0
  187.5080  177.5650  137.7970 N   0  0  0  0  0  0  0  0  0  0  0  0
  184.6970  173.8740  137.1410 C   0  0  2  0  0  3  0  0  0  0  0  0
  185.4050  172.9040  137.8550 O   0  0  0  0  0  1  0  0  0  0  0  0
  183.8140  173.1900  136.1100 C   0  0  0  0  0  2  0  0  0  0  0  0
  182.0910  171.8340  135.8690 C   0  0  0  0  0  1  0  0  0  0  0  0
  182.5890  172.8490  136.6840 O   0  0  0  0  0  0  0  0  0  0  0  0
  188.7520  176.3940  142.8140 C   0  0  0  0  0  2  0  0  0  0  0  0
  187.6470  177.0120  143.5510 C   0  0  0  0  0  0  0  0  0  0  0  0
  186.7340  177.5190  144.1550 C   0  0  0  0  0  0  0  0  0  0  0  0
  185.6220  178.1370  144.8840 C   0  0  0  0  0  2  0  0  0  0  0  0
  184.7200  178.4630  142.6240 C   0  0  0  0  0  3  0  0  0  0  0  0
  183.2010  178.9240  144.5280 C   0  0  0  0  0  1  0  0  0  0  0  0
  184.5200  178.5220  143.9490 C   0  0  0  0  0  0  0  0  0  0  0  0
  183.6670  178.7950  141.6090 C   0  0  0  0  0  2  0  0  0  0  0  0
  184.7800  179.6500  139.6850 O   0  0  0  0  0  1  0  0  0  0  0  0
  184.1620  178.5060  140.1980 C   0  0  2  0  0  3  0  0  0  0  0  0
  182.9990  178.0900  139.3000 C   0  0  1  0  0  3  0  0  0  0  0  0
  183.1960  176.7250  138.8310 N   0  0  0  0  0  2  0  0  0  0  0  0
  182.0910  176.4190  137.9380 C   0  0  0  0  0  1  0  0  0  0  0  0
  181.6890  178.1700  140.0740 C   0  0  0  0  0  2  0  0  0  0  0  0
  180.8060  179.2680  139.5090 C   0  0  0  0  0  2  0  0  0  0  0  0
  181.4740  179.9230  138.3060 C   0  0  0  0  0  2  0  0  0  0  0  0
  182.6650  181.9680  138.7240 O   0  0  0  0  0  1  0  0  0  0  0  0
  181.4220  181.4480  138.3620 C   0  0  0  0  0  3  0  0  0  0  0  0
  181.0270  181.9780  137.1340 O   0  0  0  0  0  1  0  0  0  0  0  0
  191.0860  177.3400  142.9250 C   0  0  0  0  0  2  0  0  0  0  0  0
  191.1540  176.1750  143.9040 C   0  0  0  0  0  2  0  0  0  0  0  0
  191.5420  176.6400  145.2990 C   0  0  0  0  0  2  0  0  0  0  0  0
  190.4480  177.5120  145.8950 C   0  0  0  0  0  2  0  0  0  0  0  0
  189.6060  176.7070  146.8700 C   0  0  0  0  0  2  0  0  0  0  0  0
  188.8090  178.2800  148.6060 C   0  0  0  0  0  1  0  0  0  0  0  0
  188.4230  177.5280  147.3490 C   0  0  0  0  0  2  0  0  0  0  0  0
  1 18  1  1  0  0  0
  1 37  1  0  0  0  0
  2  3  2  0  0  0  0
  3  1  1  0  0  0  0
  4  5  2  0  0  0  0
  4  3  1  0  0  0  0
  6  4  1  0  0  0  0
  7  9  1  0  0  0  0
  7 10  1  0  0  0  0
  8 11  1  0  0  0  0
  8 12  2  0  0  0  0
  9  8  1  0  0  0  0
 10 13  1  1  0  0  0
 10 11  1  0  0  0  0
 12  6  1  0  0  0  0
 13 14  1  6  0  0  0
 15 17  1  0  0  0  0
 15 13  1  0  0  0  0
 16 17  1  0  0  0  0
 18 19  1  0  0  0  0
 19 20  3  0  0  0  0
 20 21  1  0  0  0  0
 22 24  2  0  0  0  0
 24 23  1  0  0  0  0
 24 21  1  0  0  0  0
 25 22  1  0  0  0  0
 27 26  1  6  0  0  0
 27 25  1  0  0  0  0
 28 31  1  1  0  0  0
 28 27  1  0  0  0  0
 29 28  1  0  0  0  0
 30 29  1  0  0  0  0
 32 31  1  0  0  0  0
 33 35  1  0  0  0  0
 33 32  1  0  0  0  0
 35 34  1  0  0  0  0
 36 35  1  0  0  0  0
 37 38  1  0  0  0  0
 38 39  1  0  0  0  0
 39 40  1  0  0  0  0
 40 41  1  0  0  0  0
 41 43  1  0  0  0  0
 43 42  1  0  0  0  0
M  END
>  <MODEL>
1

>  <REMARK>
 VINA RESULT:      -6.6      0.000      0.000
  Name = 
  24 active torsions:
  status: ('A' for Active; 'I' for Inactive)
    1  A    between atoms: C_1  and  N_12
    2  A    between atoms: C_1  and  C_21
    3  A    between atoms: C_1  and  C_40
    4  A    between atoms: C_4  and  C_13
    5  A    between atoms: C_4  and  C_36
    6  A    between atoms: C_5  and  C_16
    7  A    between atoms: C_5  and  C_27
    8  A    between atoms: C_6  and  C_21
    9  A    between atoms: C_6  and  C_24
   10  A    between atoms: C_7  and  C_15
   11  A    between atoms: C_7  and  C_22
   12  A    between atoms: C_11  and  C_32
   13  A    between atoms: C_13  and  C_22
   14  A    between atoms: C_14  and  C_15
   15  A    between atoms: C_14  and  C_32
   16  A    between atoms: C_14  and  C_41
   17  A    between atoms: C_17  and  C_37
   18  A    between atoms: C_17  and  C_39
   19  A    between atoms: C_18  and  C_24
   20  A    between atoms: O_19  and  C_27
   21  A    between atoms: C_26  and  C_29
   22  A    between atoms: C_29  and  C_40
   23  A    between atoms: C_30  and  C_41
   24  A    between atoms: N_38  and  N_43
                            x       y       z     vdW  Elec       q    Type
                         _______ _______ _______ _____ _____    ______ ____

>  <TORSDO>
F 24

$$$$
=
 OpenBabel10222418573D

 43 43  0  0  1  0  0  0  0  0999 V2000
  185.8950  177.8370  145.3380 C   0  0  1  0  0  3  0  0  0  0  0  0
  184.1990  178.6680  146.8060 O   0  0  0  0  0  0  0  0  0  0  0  0
  184.6280  178.5800  145.6230 C   0  0  0  0  0  0  0  0  0  0  0  0
  183.8660  179.1880  144.5230 C   0  0  0  0  0  0  0  0  0  0  0  0
  184.2300  180.2920  144.0360 O   0  0  0  0  0  0  0  0  0  0  0  0
  182.7130  178.5240  144.0050 N   0  0  0  0  0  2  0  0  0  0  0  0
  181.9850  178.8670  139.4570 O   0  0  0  0  0  0  0  0  0  0  0  0
  182.2490  178.7950  141.7170 C   0  0  0  0  0  0  0  0  0  0  0  0
  181.5600  179.3080  140.6540 O   0  0  0  0  0  0  0  0  0  0  0  0
  183.1490  178.0930  139.7350 C   0  0  1  0  0  3  0  0  0  0  0  0
  183.3090  177.9140  141.2490 C   0  0  0  0  0  2  0  0  0  0  0  0
  181.9740  179.0760  142.9490 N   0  0  0  0  0  0  0  0  0  0  0  0
  183.0630  176.7390  139.0370 C   0  0  2  0  0  3  0  0  0  0  0  0
  183.7030  176.7990  137.7960 O   0  0  0  0  0  1  0  0  0  0  0  0
  181.6100  176.3450  138.8320 C   0  0  0  0  0  2  0  0  0  0  0  0
  180.2350  174.9350  137.8380 C   0  0  0  0  0  1  0  0  0  0  0  0
  181.5360  175.0470  138.3240 O   0  0  0  0  0  0  0  0  0  0  0  0
  186.1940  177.8530  143.8440 C   0  0  0  0  0  2  0  0  0  0  0  0
  187.4570  177.1660  143.5620 C   0  0  0  0  0  0  0  0  0  0  0  0
  188.4960  176.5970  143.3320 C   0  0  0  0  0  0  0  0  0  0  0  0
  189.7580  175.9030  143.0580 C   0  0  0  0  0  2  0  0  0  0  0  0
  190.3020  176.6500  140.7840 C   0  0  0  0  0  3  0  0  0  0  0  0
  191.7190  177.5080  142.6300 C   0  0  0  0  0  1  0  0  0  0  0  0
  190.5950  176.6790  142.0930 C   0  0  0  0  0  0  0  0  0  0  0  0
  191.0620  177.4220  139.7460 C   0  0  0  0  0  2  0  0  0  0  0  0
  193.3300  176.9740  139.1770 O   0  0  0  0  0  1  0  0  0  0  0  0
  192.0240  176.5140  138.9910 C   0  0  2  0  0  3  0  0  0  0  0  0
  191.6820  176.4950  137.5020 C   0  0  1  0  0  3  0  0  0  0  0  0
  192.3540  175.3800  136.8510 N   0  0  0  0  0  2  0  0  0  0  0  0
  193.2140  175.9440  135.8250 C   0  0  0  0  0  1  0  0  0  0  0  0
  190.1770  176.3520  137.3160 C   0  0  0  0  0  2  0  0  0  0  0  0
  189.7480  176.9450  135.9850 C   0  0  0  0  0  2  0  0  0  0  0  0
  188.6050  177.9310  136.1850 C   0  0  0  0  0  2  0  0  0  0  0  0
  188.9360  179.9120  137.5060 O   0  0  0  0  0  1  0  0  0  0  0  0
  188.6050  178.5580  137.5770 C   0  0  0  0  0  3  0  0  0  0  0  0
  187.3620  178.4060  138.1920 O   0  0  0  0  0  1  0  0  0  0  0  0
  187.0400  178.4470  146.1430 C   0  0  0  0  0  2  0  0  0  0  0  0
  187.4820  177.5290  147.2760 C   0  0  0  0  0  2  0  0  0  0  0  0
  188.2790  178.2860  148.3270 C   0  0  0  0  0  2  0  0  0  0  0  0
  189.7570  177.9460  148.2240 C   0  0  0  0  0  2  0  0  0  0  0  0
  189.9900  176.9380  147.1110 C   0  0  0  0  0  2  0  0  0  0  0  0
  192.0640  176.0540  146.0930 C   0  0  0  0  0  1  0  0  0  0  0  0
  191.2580  176.1460  147.3720 C   0  0  0  0  0  2  0  0  0  0  0  0
  1 18  1  6  0  0  0
  1  3  1  0  0  0  0
  1 37  1  0  0  0  0
  3  2  2  0  0  0  0
  4  3  1  0  0  0  0
  5  4  2  0  0  0  0
  6  4  1  0  0  0  0
  7 10  1  0  0  0  0
  7  9  1  0  0  0  0
  8 12  2  0  0  0  0
  9  8  1  0  0  0  0
 10 13  1  6  0  0  0
 10 11  1  0  0  0  0
 11  8  1  0  0  0  0
 12  6  1  0  0  0  0
 13 14  1  6  0  0  0
 15 13  1  0  0  0  0
 16 17  1  0  0  0  0
 17 15  1  0  0  0  0
 19 18  1  0  0  0  0
 20 19  3  0  0  0  0
 21 20  1  0  0  0  0
 22 24  2  0  0  0  0
 24 23  1  0  0  0  0
 24 21  1  0  0  0  0
 25 22  1  0  0  0  0
 27 26  1  6  0  0  0
 27 25  1  0  0  0  0
 28 31  1  1  0  0  0
 28 27  1  0  0  0  0
 29 28  1  0  0  0  0
 30 29  1  0  0  0  0
 32 33  1  0  0  0  0
 32 31  1  0  0  0  0
 33 35  1  0  0  0  0
 34 35  1  0  0  0  0
 35 36  1  0  0  0  0
 37 38  1  0  0  0  0
 38 39  1  0  0  0  0
 40 39  1  0  0  0  0
 41 43  1  0  0  0  0
 41 40  1  0  0  0  0
 42 43  1  0  0  0  0
M  END
>  <MODEL>
2

>  <REMARK>
 VINA RESULT:      -6.4      2.780      6.550
  Name = 
  24 active torsions:
  status: ('A' for Active; 'I' for Inactive)
    1  A    between atoms: C_1  and  N_12
    2  A    between atoms: C_1  and  C_21
    3  A    between atoms: C_1  and  C_40
    4  A    between atoms: C_4  and  C_13
    5  A    between atoms: C_4  and  C_36
    6  A    between atoms: C_5  and  C_16
    7  A    between atoms: C_5  and  C_27
    8  A    between atoms: C_6  and  C_21
    9  A    between atoms: C_6  and  C_24
   10  A    between atoms: C_7  and  C_15
   11  A    between atoms: C_7  and  C_22
   12  A    between atoms: C_11  and  C_32
   13  A    between atoms: C_13  and  C_22
   14  A    between atoms: C_14  and  C_15
   15  A    between atoms: C_14  and  C_32
   16  A    between atoms: C_14  and  C_41
   17  A    between atoms: C_17  and  C_37
   18  A    between atoms: C_17  and  C_39
   19  A    between atoms: C_18  and  C_24
   20  A    between atoms: O_19  and  C_27
   21  A    between atoms: C_26  and  C_29
   22  A    between atoms: C_29  and  C_40
   23  A    between atoms: C_30  and  C_41
   24  A    between atoms: N_38  and  N_43
                            x       y       z     vdW  Elec       q    Type
                         _______ _______ _______ _____ _____    ______ ____

>  <TORSDO>
F 24

$$$$
=
 OpenBabel10222418573D

 43 43  0  0  1  0  0  0  0  0999 V2000
  189.8230  177.6160  141.1840 C   0  0  1  0  0  3  0  0  0  0  0  0
  188.9850  178.8210  139.2960 O   0  0  0  0  0  0  0  0  0  0  0  0
  189.4660  177.7410  139.7360 C   0  0  0  0  0  0  0  0  0  0  0  0
  189.6500  176.6000  138.8290 C   0  0  0  0  0  0  0  0  0  0  0  0
  188.7140  176.2430  138.0630 O   0  0  0  0  0  0  0  0  0  0  0  0
  190.8920  175.8970  138.8140 N   0  0  0  0  0  2  0  0  0  0  0  0
  193.8530  173.1310  136.5970 O   0  0  0  0  0  0  0  0  0  0  0  0
  192.2920  174.4310  137.6230 C   0  0  0  0  0  0  0  0  0  0  0  0
  192.5450  173.3820  136.7850 O   0  0  0  0  0  0  0  0  0  0  0  0
  194.5370  174.1900  137.2600 C   0  0  1  0  0  3  0  0  0  0  0  0
  193.5410  175.0320  138.0670 C   0  0  0  0  0  2  0  0  0  0  0  0
  191.0990  174.8110  137.9510 N   0  0  0  0  0  0  0  0  0  0  0  0
  195.6280  173.6300  138.1680 C   0  0  2  0  0  3  0  0  0  0  0  0
  195.2570  172.3660  138.6360 O   0  0  0  0  0  1  0  0  0  0  0  0
  195.8520  174.5550  139.3530 C   0  0  0  0  0  2  0  0  0  0  0  0
  197.8580  174.6420  138.4380 C   0  0  0  0  0  1  0  0  0  0  0  0
  197.2100  174.5980  139.6720 O   0  0  0  0  0  0  0  0  0  0  0  0
  189.0740  176.4480  141.8150 C   0  0  0  0  0  2  0  0  0  0  0  0
  188.2760  176.9020  142.9560 C   0  0  0  0  0  0  0  0  0  0  0  0
  187.6220  177.2770  143.8980 C   0  0  0  0  0  0  0  0  0  0  0  0
  186.8300  177.7290  145.0470 C   0  0  0  0  0  2  0  0  0  0  0  0
  185.1960  178.2810  143.3000 C   0  0  0  0  0  3  0  0  0  0  0  0
  184.5440  178.7390  145.6480 C   0  0  0  0  0  1  0  0  0  0  0  0
  185.5070  178.2670  144.6040 C   0  0  0  0  0  0  0  0  0  0  0  0
  183.8830  178.7680  142.7630 C   0  0  0  0  0  2  0  0  0  0  0  0
  184.4990  179.3850  140.5470 O   0  0  0  0  0  1  0  0  0  0  0  0
  183.7530  178.4560  141.2780 C   0  0  2  0  0  3  0  0  0  0  0  0
  182.2880  178.5050  140.8490 C   0  0  1  0  0  3  0  0  0  0  0  0
  181.4760  179.0690  141.9180 N   0  0  0  0  0  2  0  0  0  0  0  0
  180.2160  178.3460  141.9210 C   0  0  0  0  0  1  0  0  0  0  0  0
  182.1400  179.3640  139.6000 C   0  0  0  0  0  2  0  0  0  0  0  0
  181.6590  178.5220  138.4310 C   0  0  0  0  0  2  0  0  0  0  0  0
  182.8420  178.0340  137.6050 C   0  0  0  0  0  2  0  0  0  0  0  0
  183.6540  176.1570  136.3410 O   0  0  0  0  0  1  0  0  0  0  0  0
  182.8430  176.5180  137.4180 C   0  0  0  0  0  3  0  0  0  0  0  0
  183.2790  175.8740  138.5760 O   0  0  0  0  0  1  0  0  0  0  0  0
  191.3340  177.4530  141.3280 C   0  0  0  0  0  2  0  0  0  0  0  0
  191.7590  177.4090  142.7910 C   0  0  0  0  0  2  0  0  0  0  0  0
  191.3150  178.6570  143.5370 C   0  0  0  0  0  2  0  0  0  0  0  0
  191.0960  178.3510  145.0090 C   0  0  0  0  0  2  0  0  0  0  0  0
  191.2670  176.8630  145.2690 C   0  0  0  0  0  2  0  0  0  0  0  0
  192.2670  175.7370  147.2310 C   0  0  0  0  0  1  0  0  0  0  0  0
  191.0930  176.5610  146.7460 C   0  0  0  0  0  2  0  0  0  0  0  0
  1 37  1  6  0  0  0
  1 18  1  0  0  0  0
  2  3  2  0  0  0  0
  3  1  1  0  0  0  0
  4  3  1  0  0  0  0
  5  4  2  0  0  0  0
  6  4  1  0  0  0  0
  7  9  1  0  0  0  0
  7 10  1  0  0  0  0
  8 12  2  0  0  0  0
  8 11  1  0  0  0  0
  9  8  1  0  0  0  0
 10 11  1  0  0  0  0
 10 13  1  1  0  0  0
 12  6  1  0  0  0  0
 13 14  1  1  0  0  0
 13 15  1  0  0  0  0
 15 17  1  0  0  0  0
 16 17  1  0  0  0  0
 18 19  1  0  0  0  0
 19 20  3  0  0  0  0
 20 21  1  0  0  0  0
 22 24  2  0  0  0  0
 24 21  1  0  0  0  0
 24 23  1  0  0  0  0
 25 22  1  0  0  0  0
 27 26  1  6  0  0  0
 27 25  1  0  0  0  0
 28 31  1  6  0  0  0
 28 27  1  0  0  0  0
 28 29  1  0  0  0  0
 29 30  1  0  0  0  0
 32 31  1  0  0  0  0
 33 32  1  0  0  0  0
 34 35  1  0  0  0  0
 35 33  1  0  0  0  0
 35 36  1  0  0  0  0
 37 38  1  0  0  0  0
 38 39  1  0  0  0  0
 39 40  1  0  0  0  0
 40 41  1  0  0  0  0
 41 43  1  0  0  0  0
 43 42  1  0  0  0  0
M  END
>  <MODEL>
3

>  <REMARK>
 VINA RESULT:      -6.3      3.480      5.820
  Name = 
  24 active torsions:
  status: ('A' for Active; 'I' for Inactive)
    1  A    between atoms: C_1  and  N_12
    2  A    between atoms: C_1  and  C_21
    3  A    between atoms: C_1  and  C_40
    4  A    between atoms: C_4  and  C_13
    5  A    between atoms: C_4  and  C_36
    6  A    between atoms: C_5  and  C_16
    7  A    between atoms: C_5  and  C_27
    8  A    between atoms: C_6  and  C_21
    9  A    between atoms: C_6  and  C_24
   10  A    between atoms: C_7  and  C_15
   11  A    between atoms: C_7  and  C_22
   12  A    between atoms: C_11  and  C_32
   13  A    between atoms: C_13  and  C_22
   14  A    between atoms: C_14  and  C_15
   15  A    between atoms: C_14  and  C_32
   16  A    between atoms: C_14  and  C_41
   17  A    between atoms: C_17  and  C_37
   18  A    between atoms: C_17  and  C_39
   19  A    between atoms: C_18  and  C_24
   20  A    between atoms: O_19  and  C_27
   21  A    between atoms: C_26  and  C_29
   22  A    between atoms: C_29  and  C_40
   23  A    between atoms: C_30  and  C_41
   24  A    between atoms: N_38  and  N_43
                            x       y       z     vdW  Elec       q    Type
                         _______ _______ _______ _____ _____    ______ ____

>  <TORSDO>
F 24

$$$$
=
 OpenBabel10222418573D

 43 43  0  0  1  0  0  0  0  0999 V2000
  185.9340  177.8150  145.2560 C   0  0  1  0  0  3  0  0  0  0  0  0
  184.2810  178.6850  146.7500 O   0  0  0  0  0  0  0  0  0  0  0  0
  184.6950  178.5980  145.5620 C   0  0  0  0  0  0  0  0  0  0  0  0
  183.9440  179.2460  144.4780 C   0  0  0  0  0  0  0  0  0  0  0  0
  184.2310  180.4220  144.1250 O   0  0  0  0  0  0  0  0  0  0  0  0
  182.8910  178.5410  143.8220 N   0  0  0  0  0  2  0  0  0  0  0  0
  181.8690  178.6850  139.3210 O   0  0  0  0  0  0  0  0  0  0  0  0
  182.2960  178.7260  141.5560 C   0  0  0  0  0  0  0  0  0  0  0  0
  181.6130  179.2690  140.5040 O   0  0  0  0  0  0  0  0  0  0  0  0
  182.9180  177.7560  139.5810 C   0  0  1  0  0  3  0  0  0  0  0  0
  183.1670  177.6570  141.0900 C   0  0  0  0  0  2  0  0  0  0  0  0
  182.1650  179.1310  142.7780 N   0  0  0  0  0  0  0  0  0  0  0  0
  182.5690  176.3880  139.0010 C   0  0  2  0  0  3  0  0  0  0  0  0
  182.9420  176.3310  137.6550 O   0  0  0  0  0  1  0  0  0  0  0  0
  181.0760  176.1330  139.1170 C   0  0  0  0  0  2  0  0  0  0  0  0
  179.9180  174.2580  139.2120 C   0  0  0  0  0  1  0  0  0  0  0  0
  180.8440  175.0190  139.9230 O   0  0  0  0  0  0  0  0  0  0  0  0
  186.2480  177.8850  143.7660 C   0  0  0  0  0  2  0  0  0  0  0  0
  187.4770  177.1470  143.4630 C   0  0  0  0  0  0  0  0  0  0  0  0
  188.4880  176.5370  143.2160 C   0  0  0  0  0  0  0  0  0  0  0  0
  189.7160  175.7920  142.9210 C   0  0  0  0  0  2  0  0  0  0  0  0
  190.3400  176.5810  140.6810 C   0  0  0  0  0  3  0  0  0  0  0  0
  191.7350  177.3460  142.5820 C   0  0  0  0  0  1  0  0  0  0  0  0
  190.6010  176.5660  141.9970 C   0  0  0  0  0  0  0  0  0  0  0  0
  191.1480  177.3550  139.6820 C   0  0  0  0  0  2  0  0  0  0  0  0
  193.4760  177.2660  139.1890 O   0  0  0  0  0  1  0  0  0  0  0  0
  192.3000  176.5130  139.1470 C   0  0  2  0  0  3  0  0  0  0  0  0
  192.0120  176.0680  137.7140 C   0  0  1  0  0  3  0  0  0  0  0  0
  190.8440  176.7700  137.2000 N   0  0  0  0  0  2  0  0  0  0  0  0
  190.0370  175.7900  136.4940 C   0  0  0  0  0  1  0  0  0  0  0  0
  193.2110  176.3690  136.8250 C   0  0  0  0  0  2  0  0  0  0  0  0
  193.8550  175.0790  136.3460 C   0  0  0  0  0  2  0  0  0  0  0  0
  195.0400  174.7160  137.2310 C   0  0  0  0  0  2  0  0  0  0  0  0
  194.7720  172.3350  137.4240 O   0  0  0  0  0  1  0  0  0  0  0  0
  194.7500  173.5290  138.1460 C   0  0  0  0  0  3  0  0  0  0  0  0
  195.6740  173.4670  139.1900 O   0  0  0  0  0  1  0  0  0  0  0  0
  187.0940  178.3400  146.0970 C   0  0  0  0  0  2  0  0  0  0  0  0
  187.6780  177.2520  146.9900 C   0  0  0  0  0  2  0  0  0  0  0  0
  188.5640  177.8410  148.0770 C   0  0  0  0  0  2  0  0  0  0  0  0
  190.0230  177.5040  147.8170 C   0  0  0  0  0  2  0  0  0  0  0  0
  190.2240  177.1220  146.3600 C   0  0  0  0  0  2  0  0  0  0  0  0
  192.0950  175.9000  147.4250 C   0  0  0  0  0  1  0  0  0  0  0  0
  191.6200  176.5630  146.1480 C   0  0  0  0  0  2  0  0  0  0  0  0
  1 18  1  6  0  0  0
  1  3  1  0  0  0  0
  1 37  1  0  0  0  0
  3  2  2  0  0  0  0
  4  3  1  0  0  0  0
  5  4  2  0  0  0  0
  6  4  1  0  0  0  0
  7 10  1  0  0  0  0
  7  9  1  0  0  0  0
  8 12  2  0  0  0  0
  9  8  1  0  0  0  0
 10 13  1  1  0  0  0
 10 11  1  0  0  0  0
 11  8  1  0  0  0  0
 12  6  1  0  0  0  0
 13 14  1  6  0  0  0
 13 15  1  0  0  0  0
 15 17  1  0  0  0  0
 16 17  1  0  0  0  0
 19 18  1  0  0  0  0
 20 19  3  0  0  0  0
 21 20  1  0  0  0  0
 22 24  2  0  0  0  0
 24 23  1  0  0  0  0
 24 21  1  0  0  0  0
 25 22  1  0  0  0  0
 27 26  1  6  0  0  0
 27 25  1  0  0  0  0
 28 31  1  6  0  0  0
 28 27  1  0  0  0  0
 29 28  1  0  0  0  0
 30 29  1  0  0  0  0
 32 31  1  0  0  0  0
 32 33  1  0  0  0  0
 33 35  1  0  0  0  0
 34 35  1  0  0  0  0
 35 36  1  0  0  0  0
 37 38  1  0  0  0  0
 38 39  1  0  0  0  0
 40 39  1  0  0  0  0
 41 40  1  0  0  0  0
 43 41  1  0  0  0  0
 43 42  1  0  0  0  0
M  END
>  <MODEL>
4

>  <REMARK>
 VINA RESULT:      -6.2      3.429      7.902
  Name = 
  24 active torsions:
  status: ('A' for Active; 'I' for Inactive)
    1  A    between atoms: C_1  and  N_12
    2  A    between atoms: C_1  and  C_21
    3  A    between atoms: C_1  and  C_40
    4  A    between atoms: C_4  and  C_13
    5  A    between atoms: C_4  and  C_36
    6  A    between atoms: C_5  and  C_16
    7  A    between atoms: C_5  and  C_27
    8  A    between atoms: C_6  and  C_21
    9  A    between atoms: C_6  and  C_24
   10  A    between atoms: C_7  and  C_15
   11  A    between atoms: C_7  and  C_22
   12  A    between atoms: C_11  and  C_32
   13  A    between atoms: C_13  and  C_22
   14  A    between atoms: C_14  and  C_15
   15  A    between atoms: C_14  and  C_32
   16  A    between atoms: C_14  and  C_41
   17  A    between atoms: C_17  and  C_37
   18  A    between atoms: C_17  and  C_39
   19  A    between atoms: C_18  and  C_24
   20  A    between atoms: O_19  and  C_27
   21  A    between atoms: C_26  and  C_29
   22  A    between atoms: C_29  and  C_40
   23  A    between atoms: C_30  and  C_41
   24  A    between atoms: N_38  and  N_43
                            x       y       z     vdW  Elec       q    Type
                         _______ _______ _______ _____ _____    ______ ____

>  <TORSDO>
F 24

$$$$
=
 OpenBabel10222418573D

 43 43  0  0  1  0  0  0  0  0999 V2000
  189.7150  177.5710  142.3560 C   0  0  1  0  0  3  0  0  0  0  0  0
  190.5980  176.3210  140.5170 O   0  0  0  0  0  0  0  0  0  0  0  0
  189.7810  177.1990  140.9070 C   0  0  0  0  0  0  0  0  0  0  0  0
  188.9120  177.8720  139.9320 C   0  0  0  0  0  0  0  0  0  0  0  0
  187.8150  178.3720  140.3010 O   0  0  0  0  0  0  0  0  0  0  0  0
  189.3140  177.9630  138.5650 N   0  0  0  0  0  2  0  0  0  0  0  0
  186.1580  177.6560  135.2070 O   0  0  0  0  0  0  0  0  0  0  0  0
  187.7240  177.9410  136.8350 C   0  0  0  0  0  0  0  0  0  0  0  0
  186.9230  178.5240  135.8930 O   0  0  0  0  0  0  0  0  0  0  0  0
  186.5820  176.3640  135.6350 C   0  0  1  0  0  3  0  0  0  0  0  0
  187.5530  176.4960  136.8150 C   0  0  0  0  0  2  0  0  0  0  0  0
  188.5110  178.6090  137.6150 N   0  0  0  0  0  0  0  0  0  0  0  0
  185.3760  175.5120  136.0220 C   0  0  2  0  0  3  0  0  0  0  0  0
  184.6410  176.1530  137.0230 O   0  0  0  0  0  1  0  0  0  0  0  0
  185.8330  174.1550  136.5300 C   0  0  0  0  0  2  0  0  0  0  0  0
  184.4230  172.5880  137.1790 C   0  0  0  0  0  1  0  0  0  0  0  0
  185.0430  173.7600  137.6090 O   0  0  0  0  0  0  0  0  0  0  0  0
  188.9620  176.5050  143.1420 C   0  0  0  0  0  2  0  0  0  0  0  0
  187.7790  177.0800  143.7890 C   0  0  0  0  0  0  0  0  0  0  0  0
  186.8080  177.5550  144.3230 C   0  0  0  0  0  0  0  0  0  0  0  0
  185.6310  178.1330  144.9780 C   0  0  0  0  0  2  0  0  0  0  0  0
  184.9490  178.6080  142.6680 C   0  0  0  0  0  3  0  0  0  0  0  0
  183.2400  178.9100  144.4400 C   0  0  0  0  0  1  0  0  0  0  0  0
  184.6180  178.5700  143.9680 C   0  0  0  0  0  0  0  0  0  0  0  0
  183.9930  178.9980  141.5790 C   0  0  0  0  0  2  0  0  0  0  0  0
  184.8700  178.3880  139.4510 O   0  0  0  0  0  1  0  0  0  0  0  0
  183.9980  177.9660  140.4580 C   0  0  2  0  0  3  0  0  0  0  0  0
  182.5900  177.7880  139.8930 C   0  0  1  0  0  3  0  0  0  0  0  0
  182.4970  178.4150  138.5820 N   0  0  0  0  0  2  0  0  0  0  0  0
  181.7320  179.6380  138.7490 C   0  0  0  0  0  1  0  0  0  0  0  0
  182.2640  176.3060  139.7650 C   0  0  0  0  0  2  0  0  0  0  0  0
  181.2830  176.0750  138.6290 C   0  0  0  0  0  2  0  0  0  0  0  0
  181.6150  174.7830  137.8940 C   0  0  0  0  0  2  0  0  0  0  0  0
  179.9890  175.7000  136.3800 O   0  0  0  0  0  1  0  0  0  0  0  0
  180.9490  174.6970  136.5230 C   0  0  0  0  0  3  0  0  0  0  0  0
  181.8950  174.7990  135.5020 O   0  0  0  0  0  1  0  0  0  0  0  0
  191.1280  177.7720  142.8980 C   0  0  0  0  0  2  0  0  0  0  0  0
  191.4820  176.7250  143.9460 C   0  0  0  0  0  2  0  0  0  0  0  0
  191.6330  177.3460  145.3260 C   0  0  0  0  0  2  0  0  0  0  0  0
  191.3690  176.3130  146.4090 C   0  0  0  0  0  2  0  0  0  0  0  0
  190.6010  176.9420  147.5600 C   0  0  0  0  0  2  0  0  0  0  0  0
  188.2660  177.4320  148.2150 C   0  0  0  0  0  1  0  0  0  0  0  0
  189.2640  177.4720  147.0760 C   0  0  0  0  0  2  0  0  0  0  0  0
  1 37  1  1  0  0  0
  1 18  1  0  0  0  0
  2  3  2  0  0  0  0
  3  1  1  0  0  0  0
  4  5  2  0  0  0  0
  4  3  1  0  0  0  0
  6  4  1  0  0  0  0
  7 10  1  0  0  0  0
  7  9  1  0  0  0  0
  8 12  2  0  0  0  0
  9  8  1  0  0  0  0
 10 13  1  1  0  0  0
 10 11  1  0  0  0  0
 11  8  1  0  0  0  0
 12  6  1  0  0  0  0
 13 15  1  0  0  0  0
 13 14  1  1  0  0  0
 15 17  1  0  0  0  0
 16 17  1  0  0  0  0
 18 19  1  0  0  0  0
 19 20  3  0  0  0  0
 20 21  1  0  0  0  0
 22 24  2  0  0  0  0
 24 23  1  0  0  0  0
 24 21  1  0  0  0  0
 25 22  1  0  0  0  0
 27 26  1  6  0  0  0
 27 25  1  0  0  0  0
 28 31  1  6  0  0  0
 28 27  1  0  0  0  0
 29 30  1  0  0  0  0
 29 28  1  0  0  0  0
 32 31  1  0  0  0  0
 33 32  1  0  0  0  0
 34 35  1  0  0  0  0
 35 33  1  0  0  0  0
 36 35  1  0  0  0  0
 37 38  1  0  0  0  0
 38 39  1  0  0  0  0
 39 40  1  0  0  0  0
 40 41  1  0  0  0  0
 43 41  1  0  0  0  0
 43 42  1  0  0  0  0
M  END
>  <MODEL>
5

>  <REMARK>
 VINA RESULT:      -6.2      1.527      2.558
  Name = 
  24 active torsions:
  status: ('A' for Active; 'I' for Inactive)
    1  A    between atoms: C_1  and  N_12
    2  A    between atoms: C_1  and  C_21
    3  A    between atoms: C_1  and  C_40
    4  A    between atoms: C_4  and  C_13
    5  A    between atoms: C_4  and  C_36
    6  A    between atoms: C_5  and  C_16
    7  A    between atoms: C_5  and  C_27
    8  A    between atoms: C_6  and  C_21
    9  A    between atoms: C_6  and  C_24
   10  A    between atoms: C_7  and  C_15
   11  A    between atoms: C_7  and  C_22
   12  A    between atoms: C_11  and  C_32
   13  A    between atoms: C_13  and  C_22
   14  A    between atoms: C_14  and  C_15
   15  A    between atoms: C_14  and  C_32
   16  A    between atoms: C_14  and  C_41
   17  A    between atoms: C_17  and  C_37
   18  A    between atoms: C_17  and  C_39
   19  A    between atoms: C_18  and  C_24
   20  A    between atoms: O_19  and  C_27
   21  A    between atoms: C_26  and  C_29
   22  A    between atoms: C_29  and  C_40
   23  A    between atoms: C_30  and  C_41
   24  A    between atoms: N_38  and  N_43
                            x       y       z     vdW  Elec       q    Type
                         _______ _______ _______ _____ _____    ______ ____

>  <TORSDO>
F 24

$$$$
=
 OpenBabel10222418573D

 43 43  0  0  1  0  0  0  0  0999 V2000
  188.6910  177.1400  144.5740 C   0  0  1  0  0  3  0  0  0  0  0  0
  190.7890  177.7530  145.5460 O   0  0  0  0  0  0  0  0  0  0  0  0
  190.1830  177.2610  144.5550 C   0  0  0  0  0  0  0  0  0  0  0  0
  190.9440  176.8320  143.3730 C   0  0  0  0  0  0  0  0  0  0  0  0
  191.2660  175.6220  143.2330 O   0  0  0  0  0  0  0  0  0  0  0  0
  191.3140  177.7890  142.3800 N   0  0  0  0  0  2  0  0  0  0  0  0
  191.3140  176.8360  137.8610 O   0  0  0  0  0  0  0  0  0  0  0  0
  191.4450  177.2670  140.0930 C   0  0  0  0  0  0  0  0  0  0  0  0
  192.0980  176.8940  138.9520 O   0  0  0  0  0  0  0  0  0  0  0  0
  189.9900  177.0590  138.3400 C   0  0  1  0  0  3  0  0  0  0  0  0
  190.0310  177.4700  139.8170 C   0  0  0  0  0  2  0  0  0  0  0  0
  192.0310  177.4070  141.2380 N   0  0  0  0  0  0  0  0  0  0  0  0
  189.2970  178.1300  137.5020 C   0  0  2  0  0  3  0  0  0  0  0  0
  189.0820  179.2750  138.2730 O   0  0  0  0  0  1  0  0  0  0  0  0
  187.9610  177.6140  136.9920 C   0  0  0  0  0  2  0  0  0  0  0  0
  188.5760  177.5210  134.8760 C   0  0  0  0  0  1  0  0  0  0  0  0
  187.6880  178.1610  135.7380 O   0  0  0  0  0  0  0  0  0  0  0  0
  188.1810  177.1140  146.0090 C   0  0  0  0  0  2  0  0  0  0  0  0
  186.8240  177.6620  146.0850 C   0  0  0  0  0  0  0  0  0  0  0  0
  185.7080  178.1160  146.1490 C   0  0  0  0  0  0  0  0  0  0  0  0
  184.3540  178.6720  146.2320 C   0  0  0  0  0  2  0  0  0  0  0  0
  182.6620  178.6720  144.4530 C   0  0  0  0  0  3  0  0  0  0  0  0
  184.7210  179.9960  144.0600 C   0  0  0  0  0  1  0  0  0  0  0  0
  183.8640  179.0860  144.8810 C   0  0  0  0  0  0  0  0  0  0  0  0
  182.0710  179.0620  143.1300 C   0  0  0  0  0  2  0  0  0  0  0  0
  180.0960  178.5370  144.3530 O   0  0  0  0  0  1  0  0  0  0  0  0
  180.5630  179.2470  143.2430 C   0  0  2  0  0  3  0  0  0  0  0  0
  179.8690  178.7530  141.9750 C   0  0  1  0  0  3  0  0  0  0  0  0
  179.0930  179.8320  141.3800 N   0  0  0  0  0  2  0  0  0  0  0  0
  179.9750  180.5370  140.4670 C   0  0  0  0  0  1  0  0  0  0  0  0
  180.9060  178.2690  140.9700 C   0  0  0  0  0  2  0  0  0  0  0  0
  180.4800  176.9420  140.3660 C   0  0  0  0  0  2  0  0  0  0  0  0
  181.2910  176.6430  139.1120 C   0  0  0  0  0  2  0  0  0  0  0  0
  180.1070  175.8930  137.1600 O   0  0  0  0  0  1  0  0  0  0  0  0
  180.7400  175.4570  138.3240 C   0  0  0  0  0  3  0  0  0  0  0  0
  181.7570  174.5580  138.0010 O   0  0  0  0  0  1  0  0  0  0  0  0
  188.0730  178.2900  143.7820 C   0  0  0  0  0  2  0  0  0  0  0  0
  187.3310  177.7880  142.5490 C   0  0  0  0  0  2  0  0  0  0  0  0
  187.4920  178.7420  141.3760 C   0  0  0  0  0  2  0  0  0  0  0  0
  186.4250  178.4820  140.3250 C   0  0  0  0  0  2  0  0  0  0  0  0
  185.0480  178.7980  140.8840 C   0  0  0  0  0  2  0  0  0  0  0  0
  184.4980  178.4860  138.4920 C   0  0  0  0  0  1  0  0  0  0  0  0
  184.1040  179.2030  139.7670 C   0  0  0  0  0  2  0  0  0  0  0  0
  1 37  1  6  0  0  0
  1 18  1  0  0  0  0
  3  1  1  0  0  0  0
  3  2  2  0  0  0  0
  4  3  1  0  0  0  0
  5  4  2  0  0  0  0
  6  4  1  0  0  0  0
  7 10  1  0  0  0  0
  7  9  1  0  0  0  0
  8 12  2  0  0  0  0
  9  8  1  0  0  0  0
 10 13  1  6  0  0  0
 10 11  1  0  0  0  0
 11  8  1  0  0  0  0
 12  6  1  0  0  0  0
 13 14  1  1  0  0  0
 15 13  1  0  0  0  0
 16 17  1  0  0  0  0
 17 15  1  0  0  0  0
 18 19  1  0  0  0  0
 19 20  3  0  0  0  0
 20 21  1  0  0  0  0
 22 24  2  0  0  0  0
 23 24  1  0  0  0  0
 24 21  1  0  0  0  0
 25 27  1  0  0  0  0
 25 22  1  0  0  0  0
 27 26  1  1  0  0  0
 28 31  1  6  0  0  0
 28 27  1  0  0  0  0
 29 28  1  0  0  0  0
 30 29  1  0  0  0  0
 32 31  1  0  0  0  0
 33 32  1  0  0  0  0
 34 35  1  0  0  0  0
 35 33  1  0  0  0  0
 36 35  1  0  0  0  0
 38 37  1  0  0  0  0
 39 38  1  0  0  0  0
 40 41  1  0  0  0  0
 40 39  1  0  0  0  0
 42 43  1  0  0  0  0
 43 41  1  0  0  0  0
M  END
>  <MODEL>
6

>  <REMARK>
 VINA RESULT:      -6.1      3.000      5.513
  Name = 
  24 active torsions:
  status: ('A' for Active; 'I' for Inactive)
    1  A    between atoms: C_1  and  N_12
    2  A    between atoms: C_1  and  C_21
    3  A    between atoms: C_1  and  C_40
    4  A    between atoms: C_4  and  C_13
    5  A    between atoms: C_4  and  C_36
    6  A    between atoms: C_5  and  C_16
    7  A    between atoms: C_5  and  C_27
    8  A    between atoms: C_6  and  C_21
    9  A    between atoms: C_6  and  C_24
   10  A    between atoms: C_7  and  C_15
   11  A    between atoms: C_7  and  C_22
   12  A    between atoms: C_11  and  C_32
   13  A    between atoms: C_13  and  C_22
   14  A    between atoms: C_14  and  C_15
   15  A    between atoms: C_14  and  C_32
   16  A    between atoms: C_14  and  C_41
   17  A    between atoms: C_17  and  C_37
   18  A    between atoms: C_17  and  C_39
   19  A    between atoms: C_18  and  C_24
   20  A    between atoms: O_19  and  C_27
   21  A    between atoms: C_26  and  C_29
   22  A    between atoms: C_29  and  C_40
   23  A    between atoms: C_30  and  C_41
   24  A    between atoms: N_38  and  N_43
                            x       y       z     vdW  Elec       q    Type
                         _______ _______ _______ _____ _____    ______ ____

>  <TORSDO>
F 24

$$$$
=
 OpenBabel10222418573D

 43 43  0  0  1  0  0  0  0  0999 V2000
  188.7310  177.6050  142.9070 C   0  0  1  0  0  3  0  0  0  0  0  0
  190.2970  175.9670  142.1390 O   0  0  0  0  0  0  0  0  0  0  0  0
  189.6050  176.9840  141.8610 C   0  0  0  0  0  0  0  0  0  0  0  0
  189.6790  177.5730  140.5170 C   0  0  0  0  0  0  0  0  0  0  0  0
  190.7540  177.5180  139.8610 O   0  0  0  0  0  0  0  0  0  0  0  0
  188.5300  178.2040  139.9530 N   0  0  0  0  0  2  0  0  0  0  0  0
  187.9230  177.6860  135.4040 O   0  0  0  0  0  0  0  0  0  0  0  0
  188.2710  178.0660  137.6210 C   0  0  0  0  0  0  0  0  0  0  0  0
  188.2960  178.5660  136.3490 O   0  0  0  0  0  0  0  0  0  0  0  0
  187.7620  176.4460  136.0890 C   0  0  1  0  0  3  0  0  0  0  0  0
  187.8710  176.6680  137.6030 C   0  0  0  0  0  2  0  0  0  0  0  0
  188.5690  178.7650  138.6690 N   0  0  0  0  0  0  0  0  0  0  0  0
  186.4200  175.8140  135.7320 C   0  0  2  0  0  3  0  0  0  0  0  0
  185.4490  176.8070  135.5820 O   0  0  0  0  0  1  0  0  0  0  0  0
  185.9850  174.8520  136.8250 C   0  0  0  0  0  2  0  0  0  0  0  0
  183.9900  174.3390  137.6150 C   0  0  0  0  0  1  0  0  0  0  0  0
  184.7810  174.2420  136.4710 O   0  0  0  0  0  0  0  0  0  0  0  0
  187.6130  176.6460  143.2990 C   0  0  0  0  0  2  0  0  0  0  0  0
  186.4320  177.3870  143.7480 C   0  0  0  0  0  0  0  0  0  0  0  0
  185.4570  177.9950  144.1160 C   0  0  0  0  0  0  0  0  0  0  0  0
  184.2690  178.7320  144.5580 C   0  0  0  0  0  2  0  0  0  0  0  0
  182.0340  179.2370  143.6760 C   0  0  0  0  0  3  0  0  0  0  0  0
  183.8440  178.8520  142.0250 C   0  0  0  0  0  1  0  0  0  0  0  0
  183.3170  178.9400  143.4230 C   0  0  0  0  0  0  0  0  0  0  0  0
  181.0150  179.4980  142.6050 C   0  0  0  0  0  2  0  0  0  0  0  0
  180.0250  177.7160  143.8360 O   0  0  0  0  0  1  0  0  0  0  0  0
  179.8850  178.4780  142.6730 C   0  0  2  0  0  3  0  0  0  0  0  0
  179.9110  177.5720  141.4440 C   0  0  1  0  0  3  0  0  0  0  0  0
  179.2600  176.3040  141.7470 N   0  0  0  0  0  2  0  0  0  0  0  0
  179.3330  175.4920  140.5450 C   0  0  0  0  0  1  0  0  0  0  0  0
  179.1860  178.2440  140.2860 C   0  0  0  0  0  2  0  0  0  0  0  0
  180.1530  179.0860  139.4720 C   0  0  0  0  0  2  0  0  0  0  0  0
  181.4350  178.3100  139.1990 C   0  0  0  0  0  2  0  0  0  0  0  0
  181.1730  179.0220  136.9180 O   0  0  0  0  0  1  0  0  0  0  0  0
  181.6140  177.9700  137.7210 C   0  0  0  0  0  3  0  0  0  0  0  0
  182.9490  177.6830  137.4340 O   0  0  0  0  0  1  0  0  0  0  0  0
  189.5780  178.0000  144.1140 C   0  0  0  0  0  2  0  0  0  0  0  0
  189.4060  177.0170  145.2660 C   0  0  0  0  0  2  0  0  0  0  0  0
  190.4550  177.2360  146.3460 C   0  0  0  0  0  2  0  0  0  0  0  0
  189.8660  176.9810  147.7230 C   0  0  0  0  0  2  0  0  0  0  0  0
  189.3890  178.2840  148.3420 C   0  0  0  0  0  2  0  0  0  0  0  0
  187.0670  178.0960  147.5100 C   0  0  0  0  0  1  0  0  0  0  0  0
  187.9320  178.1730  148.7510 C   0  0  0  0  0  2  0  0  0  0  0  0
  1 18  1  1  0  0  0
  1 37  1  0  0  0  0
  3  2  2  0  0  0  0
  3  1  1  0  0  0  0
  4  3  1  0  0  0  0
  5  4  2  0  0  0  0
  6  4  1  0  0  0  0
  7 10  1  0  0  0  0
  7  9  1  0  0  0  0
  8 12  2  0  0  0  0
  9  8  1  0  0  0  0
 10 13  1  1  0  0  0
 10 11  1  0  0  0  0
 11  8  1  0  0  0  0
 12  6  1  0  0  0  0
 13 14  1  1  0  0  0
 13 15  1  0  0  0  0
 17 15  1  0  0  0  0
 17 16  1  0  0  0  0
 18 19  1  0  0  0  0
 19 20  3  0  0  0  0
 20 21  1  0  0  0  0
 23 24  1  0  0  0  0
 24 22  2  0  0  0  0
 24 21  1  0  0  0  0
 25 27  1  0  0  0  0
 25 22  1  0  0  0  0
 27 26  1  1  0  0  0
 28 31  1  6  0  0  0
 28 29  1  0  0  0  0
 28 27  1  0  0  0  0
 30 29  1  0  0  0  0
 32 31  1  0  0  0  0
 33 32  1  0  0  0  0
 34 35  1  0  0  0  0
 35 33  1  0  0  0  0
 36 35  1  0  0  0  0
 37 38  1  0  0  0  0
 38 39  1  0  0  0  0
 39 40  1  0  0  0  0
 40 41  1  0  0  0  0
 41 43  1  0  0  0  0
 42 43  1  0  0  0  0
M  END
>  <MODEL>
7

>  <REMARK>
 VINA RESULT:      -5.9      2.100      2.890
  Name = 
  24 active torsions:
  status: ('A' for Active; 'I' for Inactive)
    1  A    between atoms: C_1  and  N_12
    2  A    between atoms: C_1  and  C_21
    3  A    between atoms: C_1  and  C_40
    4  A    between atoms: C_4  and  C_13
    5  A    between atoms: C_4  and  C_36
    6  A    between atoms: C_5  and  C_16
    7  A    between atoms: C_5  and  C_27
    8  A    between atoms: C_6  and  C_21
    9  A    between atoms: C_6  and  C_24
   10  A    between atoms: C_7  and  C_15
   11  A    between atoms: C_7  and  C_22
   12  A    between atoms: C_11  and  C_32
   13  A    between atoms: C_13  and  C_22
   14  A    between atoms: C_14  and  C_15
   15  A    between atoms: C_14  and  C_32
   16  A    between atoms: C_14  and  C_41
   17  A    between atoms: C_17  and  C_37
   18  A    between atoms: C_17  and  C_39
   19  A    between atoms: C_18  and  C_24
   20  A    between atoms: O_19  and  C_27
   21  A    between atoms: C_26  and  C_29
   22  A    between atoms: C_29  and  C_40
   23  A    between atoms: C_30  and  C_41
   24  A    between atoms: N_38  and  N_43
                            x       y       z     vdW  Elec       q    Type
                         _______ _______ _______ _____ _____    ______ ____

>  <TORSDO>
F 24

$$$$
=
 OpenBabel10222418573D

 43 43  0  0  1  0  0  0  0  0999 V2000
  188.5880  177.7530  143.0940 C   0  0  1  0  0  3  0  0  0  0  0  0
  190.0730  176.2000  142.0440 O   0  0  0  0  0  0  0  0  0  0  0  0
  189.3200  177.2030  141.9100 C   0  0  0  0  0  0  0  0  0  0  0  0
  189.1840  177.8430  140.5940 C   0  0  0  0  0  0  0  0  0  0  0  0
  188.4160  178.8320  140.4490 O   0  0  0  0  0  0  0  0  0  0  0  0
  189.9260  177.3450  139.4810 N   0  0  0  0  0  2  0  0  0  0  0  0
  188.3610  177.1470  135.1400 O   0  0  0  0  0  0  0  0  0  0  0  0
  189.1990  177.3590  137.2460 C   0  0  0  0  0  0  0  0  0  0  0  0
  189.0730  177.8990  135.9970 O   0  0  0  0  0  0  0  0  0  0  0  0
  188.0990  175.9310  135.8380 C   0  0  1  0  0  3  0  0  0  0  0  0
  188.5400  176.0630  137.3000 C   0  0  0  0  0  2  0  0  0  0  0  0
  189.8230  177.9430  138.2170 N   0  0  0  0  0  0  0  0  0  0  0  0
  186.6170  175.5790  135.7500 C   0  0  2  0  0  3  0  0  0  0  0  0
  185.8890  176.6840  135.3010 O   0  0  0  0  0  1  0  0  0  0  0  0
  186.0960  175.1590  137.1150 C   0  0  0  0  0  2  0  0  0  0  0  0
  185.9010  173.0130  137.5830 C   0  0  0  0  0  1  0  0  0  0  0  0
  185.2290  174.0740  136.9800 O   0  0  0  0  0  0  0  0  0  0  0  0
  187.3020  176.9700  143.3320 C   0  0  0  0  0  2  0  0  0  0  0  0
  186.1390  177.7360  142.8770 C   0  0  0  0  0  0  0  0  0  0  0  0
  185.1800  178.3650  142.5050 C   0  0  0  0  0  0  0  0  0  0  0  0
  184.0090  179.1250  142.0540 C   0  0  0  0  0  2  0  0  0  0  0  0
  183.3640  179.4490  139.7080 C   0  0  0  0  0  3  0  0  0  0  0  0
  183.2280  177.1450  140.6140 C   0  0  0  0  0  1  0  0  0  0  0  0
  183.5090  178.6080  140.7430 C   0  0  0  0  0  0  0  0  0  0  0  0
  182.9030  179.0180  138.3460 C   0  0  0  0  0  2  0  0  0  0  0  0
  181.2720  179.6990  136.7510 O   0  0  0  0  0  1  0  0  0  0  0  0
  181.4550  179.4270  138.1090 C   0  0  2  0  0  3  0  0  0  0  0  0
  181.1060  180.6590  138.9430 C   0  0  1  0  0  3  0  0  0  0  0  0
  181.1940  181.8580  138.1200 N   0  0  0  0  0  2  0  0  0  0  0  0
  179.8330  182.2960  137.8620 C   0  0  0  0  0  1  0  0  0  0  0  0
  179.6920  180.5320  139.4940 C   0  0  0  0  0  2  0  0  0  0  0  0
  179.6960  180.6860  141.0050 C   0  0  0  0  0  2  0  0  0  0  0  0
  180.2140  179.4160  141.6680 C   0  0  0  0  0  2  0  0  0  0  0  0
  179.3360  177.1860  141.8550 O   0  0  0  0  0  1  0  0  0  0  0  0
  179.0900  178.5200  142.1820 C   0  0  0  0  0  3  0  0  0  0  0  0
  178.9420  178.6490  143.5640 O   0  0  0  0  0  1  0  0  0  0  0  0
  189.4970  177.7210  144.3200 C   0  0  0  0  0  2  0  0  0  0  0  0
  188.8170  177.0480  145.5060 C   0  0  0  0  0  2  0  0  0  0  0  0
  188.9800  177.8650  146.7780 C   0  0  0  0  0  2  0  0  0  0  0  0
  187.6410  178.0430  147.4740 C   0  0  0  0  0  2  0  0  0  0  0  0
  186.6400  178.6890  146.5310 C   0  0  0  0  0  2  0  0  0  0  0  0
  184.2660  178.8090  145.8410 C   0  0  0  0  0  1  0  0  0  0  0  0
  185.2440  178.1540  146.7950 C   0  0  0  0  0  2  0  0  0  0  0  0
  1 18  1  1  0  0  0
  1 37  1  0  0  0  0
  3  2  2  0  0  0  0
  3  1  1  0  0  0  0
  4  3  1  0  0  0  0
  5  4  2  0  0  0  0
  6  4  1  0  0  0  0
  7 10  1  0  0  0  0
  7  9  1  0  0  0  0
  8 11  1  0  0  0  0
  8 12  2  0  0  0  0
  9  8  1  0  0  0  0
 10 13  1  1  0  0  0
 10 11  1  0  0  0  0
 12  6  1  0  0  0  0
 13 14  1  1  0  0  0
 13 15  1  0  0  0  0
 17 15  1  0  0  0  0
 17 16  1  0  0  0  0
 19 18  1  0  0  0  0
 20 19  3  0  0  0  0
 21 20  1  0  0  0  0
 22 24  2  0  0  0  0
 23 24  1  0  0  0  0
 24 21  1  0  0  0  0
 25 22  1  0  0  0  0
 27 26  1  6  0  0  0
 27 25  1  0  0  0  0
 27 28  1  0  0  0  0
 28 31  1  6  0  0  0
 29 28  1  0  0  0  0
 30 29  1  0  0  0  0
 31 32  1  0  0  0  0
 32 33  1  0  0  0  0
 33 35  1  0  0  0  0
 34 35  1  0  0  0  0
 35 36  1  0  0  0  0
 37 38  1  0  0  0  0
 38 39  1  0  0  0  0
 39 40  1  0  0  0  0
 41 43  1  0  0  0  0
 41 40  1  0  0  0  0
 42 43  1  0  0  0  0
M  END
>  <MODEL>
8

>  <REMARK>
 VINA RESULT:      -5.8      2.355      3.615
  Name = 
  24 active torsions:
  status: ('A' for Active; 'I' for Inactive)
    1  A    between atoms: C_1  and  N_12
    2  A    between atoms: C_1  and  C_21
    3  A    between atoms: C_1  and  C_40
    4  A    between atoms: C_4  and  C_13
    5  A    between atoms: C_4  and  C_36
    6  A    between atoms: C_5  and  C_16
    7  A    between atoms: C_5  and  C_27
    8  A    between atoms: C_6  and  C_21
    9  A    between atoms: C_6  and  C_24
   10  A    between atoms: C_7  and  C_15
   11  A    between atoms: C_7  and  C_22
   12  A    between atoms: C_11  and  C_32
   13  A    between atoms: C_13  and  C_22
   14  A    between atoms: C_14  and  C_15
   15  A    between atoms: C_14  and  C_32
   16  A    between atoms: C_14  and  C_41
   17  A    between atoms: C_17  and  C_37
   18  A    between atoms: C_17  and  C_39
   19  A    between atoms: C_18  and  C_24
   20  A    between atoms: O_19  and  C_27
   21  A    between atoms: C_26  and  C_29
   22  A    between atoms: C_29  and  C_40
   23  A    between atoms: C_30  and  C_41
   24  A    between atoms: N_38  and  N_43
                            x       y       z     vdW  Elec       q    Type
                         _______ _______ _______ _____ _____    ______ ____

>  <TORSDO>
F 24

$$$$
=
 OpenBabel10222418573D

 43 43  0  0  1  0  0  0  0  0999 V2000
  188.8170  177.6400  143.0490 C   0  0  1  0  0  3  0  0  0  0  0  0
  190.0180  175.6580  142.4570 O   0  0  0  0  0  0  0  0  0  0  0  0
  189.5620  176.7730  142.0830 C   0  0  0  0  0  0  0  0  0  0  0  0
  189.7850  177.2270  140.7040 C   0  0  0  0  0  0  0  0  0  0  0  0
  189.1440  178.2130  140.2510 O   0  0  0  0  0  0  0  0  0  0  0  0
  190.7330  176.5520  139.8770 N   0  0  0  0  0  2  0  0  0  0  0  0
  190.1010  175.8880  135.3510 O   0  0  0  0  0  0  0  0  0  0  0  0
  190.4990  176.3160  137.5510 C   0  0  0  0  0  0  0  0  0  0  0  0
  190.7070  176.6820  136.2500 O   0  0  0  0  0  0  0  0  0  0  0  0
  189.5480  174.8160  136.1100 C   0  0  1  0  0  3  0  0  0  0  0  0
  189.6850  175.1120  137.6090 C   0  0  0  0  0  2  0  0  0  0  0  0
  190.9740  176.9700  138.5610 N   0  0  0  0  0  0  0  0  0  0  0  0
  188.0840  174.6010  135.7350 C   0  0  2  0  0  3  0  0  0  0  0  0
  187.3240  174.3770  136.8860 O   0  0  0  0  0  1  0  0  0  0  0  0
  187.9500  173.4040  134.8080 C   0  0  0  0  0  2  0  0  0  0  0  0
  187.8570  171.2210  135.1150 C   0  0  0  0  0  1  0  0  0  0  0  0
  188.6820  172.3280  135.3120 O   0  0  0  0  0  0  0  0  0  0  0  0
  187.9780  176.7850  143.9910 C   0  0  0  0  0  2  0  0  0  0  0  0
  186.7140  177.4540  144.3090 C   0  0  0  0  0  0  0  0  0  0  0  0
  185.6760  178.0070  144.5740 C   0  0  0  0  0  0  0  0  0  0  0  0
  184.4150  178.6810  144.9010 C   0  0  0  0  0  2  0  0  0  0  0  0
  184.0510  178.6060  142.4750 C   0  0  0  0  0  3  0  0  0  0  0  0
  182.0650  178.9930  143.9080 C   0  0  0  0  0  1  0  0  0  0  0  0
  183.5290  178.7680  143.6990 C   0  0  0  0  0  0  0  0  0  0  0  0
  183.2380  178.6420  141.2140 C   0  0  0  0  0  2  0  0  0  0  0  0
  184.4910  179.8850  139.6140 O   0  0  0  0  0  1  0  0  0  0  0  0
  184.1390  178.5840  139.9860 C   0  0  2  0  0  3  0  0  0  0  0  0
  183.4220  177.8840  138.8330 C   0  0  1  0  0  3  0  0  0  0  0  0
  182.0680  178.4050  138.6990 N   0  0  0  0  0  2  0  0  0  0  0  0
  181.1690  177.2640  138.7420 C   0  0  0  0  0  1  0  0  0  0  0  0
  184.1790  178.1160  137.5320 C   0  0  0  0  0  2  0  0  0  0  0  0
  185.3590  177.1660  137.4280 C   0  0  0  0  0  2  0  0  0  0  0  0
  186.6350  177.8470  137.9040 C   0  0  0  0  0  2  0  0  0  0  0  0
  186.9080  178.1780  135.5390 O   0  0  0  0  0  1  0  0  0  0  0  0
  187.5870  178.1820  136.7580 C   0  0  0  0  0  3  0  0  0  0  0  0
  188.1920  179.4220  136.9600 O   0  0  0  0  0  1  0  0  0  0  0  0
  189.8030  178.5150  143.8190 C   0  0  0  0  0  2  0  0  0  0  0  0
  190.5200  177.7290  144.9100 C   0  0  0  0  0  2  0  0  0  0  0  0
  189.7250  177.7260  146.2060 C   0  0  0  0  0  2  0  0  0  0  0  0
  190.5390  177.1060  147.3310 C   0  0  0  0  0  2  0  0  0  0  0  0
  191.8940  176.6550  146.8130 C   0  0  0  0  0  2  0  0  0  0  0  0
  193.0810  176.2830  148.9520 C   0  0  0  0  0  1  0  0  0  0  0  0
  192.4890  175.6050  147.7340 C   0  0  0  0  0  2  0  0  0  0  0  0
  1 37  1  1  0  0  0
  1 18  1  0  0  0  0
  3  2  2  0  0  0  0
  3  1  1  0  0  0  0
  4  3  1  0  0  0  0
  5  4  2  0  0  0  0
  6  4  1  0  0  0  0
  7 10  1  0  0  0  0
  7  9  1  0  0  0  0
  8 11  1  0  0  0  0
  8 12  2  0  0  0  0
  9  8  1  0  0  0  0
 10 13  1  6  0  0  0
 10 11  1  0  0  0  0
 12  6  1  0  0  0  0
 13 14  1  1  0  0  0
 15 17  1  0  0  0  0
 15 13  1  0  0  0  0
 16 17  1  0  0  0  0
 18 19  1  0  0  0  0
 19 20  3  0  0  0  0
 20 21  1  0  0  0  0
 22 24  2  0  0  0  0
 24 23  1  0  0  0  0
 24 21  1  0  0  0  0
 25 22  1  0  0  0  0
 27 26  1  6  0  0  0
 27 25  1  0  0  0  0
 28 31  1  6  0  0  0
 28 27  1  0  0  0  0
 29 30  1  0  0  0  0
 29 28  1  0  0  0  0
 32 31  1  0  0  0  0
 32 33  1  0  0  0  0
 34 35  1  0  0  0  0
 35 36  1  0  0  0  0
 35 33  1  0  0  0  0
 37 38  1  0  0  0  0
 38 39  1  0  0  0  0
 39 40  1  0  0  0  0
 41 40  1  0  0  0  0
 41 43  1  0  0  0  0
 43 42  1  0  0  0  0
M  END
>  <MODEL>
9

>  <REMARK>
 VINA RESULT:      -5.7      2.382      3.553
  Name = 
  24 active torsions:
  status: ('A' for Active; 'I' for Inactive)
    1  A    between atoms: C_1  and  N_12
    2  A    between atoms: C_1  and  C_21
    3  A    between atoms: C_1  and  C_40
    4  A    between atoms: C_4  and  C_13
    5  A    between atoms: C_4  and  C_36
    6  A    between atoms: C_5  and  C_16
    7  A    between atoms: C_5  and  C_27
    8  A    between atoms: C_6  and  C_21
    9  A    between atoms: C_6  and  C_24
   10  A    between atoms: C_7  and  C_15
   11  A    between atoms: C_7  and  C_22
   12  A    between atoms: C_11  and  C_32
   13  A    between atoms: C_13  and  C_22
   14  A    between atoms: C_14  and  C_15
   15  A    between atoms: C_14  and  C_32
   16  A    between atoms: C_14  and  C_41
   17  A    between atoms: C_17  and  C_37
   18  A    between atoms: C_17  and  C_39
   19  A    between atoms: C_18  and  C_24
   20  A    between atoms: O_19  and  C_27
   21  A    between atoms: C_26  and  C_29
   22  A    between atoms: C_29  and  C_40
   23  A    between atoms: C_30  and  C_41
   24  A    between atoms: N_38  and  N_43
                            x       y       z     vdW  Elec       q    Type
                         _______ _______ _______ _____ _____    ______ ____

>  <TORSDO>
F 24

$$$$
