=
 OpenBabel10222416103D

 26 29  0  0  1  0  0  0  0  0999 V2000
  188.5190  177.2780  142.1530 O   0  0  0  0  0  0  0  0  0  0  0  0
  188.6800  177.3930  144.4720 C   0  0  0  0  0  0  0  0  0  0  0  0
  189.0060  177.8120  146.8250 C   0  0  2  0  0  3  0  0  0  0  0  0
  188.1890  177.9380  145.7600 C   0  0  0  0  0  0  0  0  0  0  0  0
  186.5260  177.9280  143.3960 C   0  0  0  0  0  0  0  0  0  0  0  0
  186.7750  178.3760  145.8300 C   0  0  0  0  0  3  0  0  0  0  0  0
  187.8030  177.5220  143.3120 C   0  0  0  0  0  0  0  0  0  0  0  0
  189.9190  177.1550  142.4190 C   0  0  2  0  0  3  0  0  0  0  0  0
  192.4350  175.3060  146.0580 C   0  0  0  0  0  3  0  0  0  0  0  0
  191.1200  177.2540  145.3120 C   0  0  1  0  0  3  0  0  0  0  0  0
  191.6820  175.8980  144.8950 C   0  0  0  0  0  2  0  0  0  0  0  0
  190.8440  176.3590  147.5910 C   0  0  0  0  0  3  0  0  0  0  0  0
  190.2430  178.2000  143.9480 P   0  0  2  0  0  0  0  0  0  0  0  0
  190.3500  177.1650  146.6390 C   0  0  0  0  0  0  0  0  0  0  0  0
  192.0180  175.5030  147.3150 C   0  0  0  0  0  3  0  0  0  0  0  0
  186.0030  178.3560  144.7300 C   0  0  0  0  0  3  0  0  0  0  0  0
  184.1940  178.2710  142.4720 C   0  0  0  0  0  1  0  0  0  0  0  0
  186.1390  178.9870  141.2910 O   0  0  0  0  0  1  0  0  0  0  0  0
  185.6630  177.9970  142.1600 C   0  0  1  0  0  3  0  0  0  0  0  0
  187.7940  177.1310  148.7550 O   0  0  0  0  0  1  0  0  0  0  0  0
  188.5340  178.1800  148.2000 C   0  0  0  0  0  2  0  0  0  0  0  0
  190.7220  177.6940  141.2520 C   0  0  0  0  0  2  0  0  0  0  0  0
  190.1190  177.2430  139.9700 C   0  0  0  0  0  0  0  0  0  0  0  0
  190.3210  176.0650  139.5720 O   0  0  0  0  0  0  0  0  0  0  0  0
  188.6920  177.7540  137.9500 C   0  0  0  0  0  1  0  0  0  0  0  0
  189.2960  178.1400  139.2170 N   0  0  0  0  0  2  0  0  0  0  0  0
  1  8  1  0  0  0  0
  1  7  1  0  0  0  0
  2  4  1  0  0  0  0
  3 21  1  1  0  0  0
  4  6  2  0  0  0  0
  4  3  1  0  0  0  0
  5 16  2  0  0  0  0
  7  5  1  0  0  0  0
  7  2  2  0  0  0  0
  8 22  1  6  0  0  0
  8 13  1  0  0  0  0
  9 15  2  0  0  0  0
 10 11  1  6  0  0  0
 10 14  1  0  0  0  0
 11  9  1  0  0  0  0
 13  2  1  1  0  0  0
 13 10  1  0  0  0  0
 14  3  1  0  0  0  0
 14 12  2  0  0  0  0
 15 12  1  0  0  0  0
 16  6  1  0  0  0  0
 18 19  1  0  0  0  0
 19 17  1  1  0  0  0
 19  5  1  0  0  0  0
 21 20  1  0  0  0  0
 23 22  1  0  0  0  0
 24 23  2  0  0  0  0
 25 26  1  0  0  0  0
 26 23  1  0  0  0  0
M  END
>  <MODEL>
1

>  <REMARK>
 VINA RESULT:      -9.0      0.000      0.000
  Name = 
  4 active torsions:
  status: ('A' for Active; 'I' for Inactive)
    1  A    between atoms: C_3  and  C_7
    2  A    between atoms: C_3  and  C_14
    3  A    between atoms: C_5  and  C_19
    4  A    between atoms: C_10  and  C_25
                            x       y       z     vdW  Elec       q    Type
                         _______ _______ _______ _____ _____    ______ ____

>  <TORSDO>
F 4

$$$$
=
 OpenBabel10222416103D

 26 29  0  0  1  0  0  0  0  0999 V2000
  190.5970  177.1060  144.0170 O   0  0  0  0  0  0  0  0  0  0  0  0
  188.4700  177.5920  144.8270 C   0  0  0  0  0  0  0  0  0  0  0  0
  186.1870  177.7720  145.5840 C   0  0  2  0  0  3  0  0  0  0  0  0
  187.4660  177.4970  145.9120 C   0  0  0  0  0  0  0  0  0  0  0  0
  190.2850  177.1360  146.4330 C   0  0  0  0  0  0  0  0  0  0  0  0
  187.9610  177.3220  147.2980 C   0  0  0  0  0  3  0  0  0  0  0  0
  189.8580  177.2970  145.1710 C   0  0  0  0  0  0  0  0  0  0  0  0
  189.7580  177.0720  142.8580 C   0  0  2  0  0  3  0  0  0  0  0  0
  185.7600  179.4060  141.6120 C   0  0  0  0  0  3  0  0  0  0  0  0
  186.6660  177.5630  142.9760 C   0  0  1  0  0  3  0  0  0  0  0  0
  187.0150  178.6500  141.9660 C   0  0  0  0  0  2  0  0  0  0  0  0
  184.9440  179.0670  143.8950 C   0  0  0  0  0  3  0  0  0  0  0  0
  188.0910  176.4370  143.4510 P   0  0  2  0  0  0  0  0  0  0  0  0
  185.8610  178.1240  144.1590 C   0  0  0  0  0  0  0  0  0  0  0  0
  184.8090  179.6210  142.5300 C   0  0  0  0  0  3  0  0  0  0  0  0
  189.2750  177.1690  147.5350 C   0  0  0  0  0  3  0  0  0  0  0  0
  192.0580  176.8180  148.2120 C   0  0  0  0  0  1  0  0  0  0  0  0
  192.1500  175.6780  146.1190 O   0  0  0  0  0  1  0  0  0  0  0  0
  191.7440  176.8760  146.7200 C   0  0  1  0  0  3  0  0  0  0  0  0
  185.1470  179.1300  147.2370 O   0  0  0  0  0  1  0  0  0  0  0  0
  185.1280  177.8650  146.6420 C   0  0  0  0  0  2  0  0  0  0  0  0
  190.3310  176.1210  141.8270 C   0  0  0  0  0  2  0  0  0  0  0  0
  190.5880  176.8450  140.5540 C   0  0  0  0  0  0  0  0  0  0  0  0
  191.7290  177.3370  140.3430 O   0  0  0  0  0  0  0  0  0  0  0  0
  189.7460  177.6590  138.3160 C   0  0  0  0  0  1  0  0  0  0  0  0
  189.5510  176.9510  139.5730 N   0  0  0  0  0  2  0  0  0  0  0  0
  1  7  1  0  0  0  0
  2  7  2  0  0  0  0
  2  4  1  0  0  0  0
  3  4  1  0  0  0  0
  3 21  1  1  0  0  0
  4  6  2  0  0  0  0
  5 19  1  0  0  0  0
  5 16  2  0  0  0  0
  6 16  1  0  0  0  0
  7  5  1  0  0  0  0
  8 22  1  6  0  0  0
  8 13  1  0  0  0  0
  8  1  1  0  0  0  0
  9 11  1  0  0  0  0
  9 15  2  0  0  0  0
 10 11  1  1  0  0  0
 10 13  1  0  0  0  0
 10 14  1  0  0  0  0
 12 14  2  0  0  0  0
 13  2  1  1  0  0  0
 14  3  1  0  0  0  0
 15 12  1  0  0  0  0
 18 19  1  0  0  0  0
 19 17  1  1  0  0  0
 21 20  1  0  0  0  0
 23 22  1  0  0  0  0
 24 23  2  0  0  0  0
 25 26  1  0  0  0  0
 26 23  1  0  0  0  0
M  END
>  <MODEL>
2

>  <REMARK>
 VINA RESULT:      -8.8      1.896      5.064
  Name = 
  4 active torsions:
  status: ('A' for Active; 'I' for Inactive)
    1  A    between atoms: C_3  and  C_7
    2  A    between atoms: C_3  and  C_14
    3  A    between atoms: C_5  and  C_19
    4  A    between atoms: C_10  and  C_25
                            x       y       z     vdW  Elec       q    Type
                         _______ _______ _______ _____ _____    ______ ____

>  <TORSDO>
F 4

$$$$
=
 OpenBabel10222416103D

 26 29  0  0  1  0  0  0  0  0999 V2000
  187.2900  177.7480  142.3940 O   0  0  0  0  0  0  0  0  0  0  0  0
  188.0110  177.5480  144.5980 C   0  0  0  0  0  0  0  0  0  0  0  0
  188.8960  177.6510  146.8390 C   0  0  2  0  0  3  0  0  0  0  0  0
  187.8420  177.8830  146.0310 C   0  0  0  0  0  0  0  0  0  0  0  0
  185.6530  178.1210  144.1600 C   0  0  0  0  0  0  0  0  0  0  0  0
  186.4820  178.2380  146.5010 C   0  0  0  0  0  3  0  0  0  0  0  0
  186.8760  177.7940  143.7130 C   0  0  0  0  0  0  0  0  0  0  0  0
  188.7150  177.6580  142.2960 C   0  0  2  0  0  3  0  0  0  0  0  0
  192.0680  175.4460  144.9140 C   0  0  0  0  0  3  0  0  0  0  0  0
  190.5840  177.4120  144.7990 C   0  0  1  0  0  3  0  0  0  0  0  0
  191.0450  176.1570  144.0650 C   0  0  0  0  0  2  0  0  0  0  0  0
  190.8840  176.1970  146.9210 C   0  0  0  0  0  3  0  0  0  0  0  0
  189.3880  178.4950  143.8390 P   0  0  2  0  0  0  0  0  0  0  0  0
  190.1620  177.1020  146.2440 C   0  0  0  0  0  0  0  0  0  0  0  0
  191.9680  175.4460  146.2490 C   0  0  0  0  0  3  0  0  0  0  0  0
  185.4650  178.3340  145.6270 C   0  0  0  0  0  3  0  0  0  0  0  0
  183.2060  178.7070  143.8760 C   0  0  0  0  0  1  0  0  0  0  0  0
  184.8440  179.3000  142.2460 O   0  0  0  0  0  1  0  0  0  0  0  0
  184.5130  178.3190  143.1900 C   0  0  1  0  0  3  0  0  0  0  0  0
  189.6910  178.7390  148.8000 O   0  0  0  0  0  1  0  0  0  0  0  0
  188.7680  177.8010  148.3260 C   0  0  0  0  0  2  0  0  0  0  0  0
  189.2010  178.3920  141.0630 C   0  0  0  0  0  2  0  0  0  0  0  0
  188.5780  177.8090  139.8450 C   0  0  0  0  0  0  0  0  0  0  0  0
  189.0100  176.7150  139.3930 O   0  0  0  0  0  0  0  0  0  0  0  0
  186.8410  177.9570  138.0170 C   0  0  0  0  0  1  0  0  0  0  0  0
  187.4800  178.4790  139.2180 N   0  0  0  0  0  2  0  0  0  0  0  0
  1  7  1  0  0  0  0
  2  4  1  0  0  0  0
  3 21  1  1  0  0  0
  4  6  2  0  0  0  0
  4  3  1  0  0  0  0
  5 16  2  0  0  0  0
  7  5  1  0  0  0  0
  7  2  2  0  0  0  0
  8 22  1  6  0  0  0
  8  1  1  0  0  0  0
  8 13  1  0  0  0  0
  9 15  2  0  0  0  0
 10 11  1  6  0  0  0
 10 14  1  0  0  0  0
 11  9  1  0  0  0  0
 13  2  1  1  0  0  0
 13 10  1  0  0  0  0
 14  3  1  0  0  0  0
 14 12  2  0  0  0  0
 15 12  1  0  0  0  0
 16  6  1  0  0  0  0
 18 19  1  0  0  0  0
 19 17  1  1  0  0  0
 19  5  1  0  0  0  0
 21 20  1  0  0  0  0
 23 22  1  0  0  0  0
 24 23  2  0  0  0  0
 25 26  1  0  0  0  0
 26 23  1  0  0  0  0
M  END
>  <MODEL>
3

>  <REMARK>
 VINA RESULT:      -8.6      1.208      1.294
  Name = 
  4 active torsions:
  status: ('A' for Active; 'I' for Inactive)
    1  A    between atoms: C_3  and  C_7
    2  A    between atoms: C_3  and  C_14
    3  A    between atoms: C_5  and  C_19
    4  A    between atoms: C_10  and  C_25
                            x       y       z     vdW  Elec       q    Type
                         _______ _______ _______ _____ _____    ______ ____

>  <TORSDO>
F 4

$$$$
=
 OpenBabel10222416103D

 26 29  0  0  1  0  0  0  0  0999 V2000
  186.7730  178.6420  141.6610 O   0  0  0  0  0  0  0  0  0  0  0  0
  188.2480  177.9720  143.3320 C   0  0  0  0  0  0  0  0  0  0  0  0
  189.6250  176.9690  145.0390 C   0  0  2  0  0  3  0  0  0  0  0  0
  189.4900  177.2700  143.7310 C   0  0  0  0  0  0  0  0  0  0  0  0
  189.0770  178.1770  141.0190 C   0  0  0  0  0  0  0  0  0  0  0  0
  190.5670  177.1450  142.7220 C   0  0  0  0  0  3  0  0  0  0  0  0
  188.0900  178.3040  141.9190 C   0  0  0  0  0  0  0  0  0  0  0  0
  185.9360  178.3940  142.7950 C   0  0  2  0  0  3  0  0  0  0  0  0
  186.5970  178.7760  147.5280 C   0  0  0  0  0  3  0  0  0  0  0  0
  187.0480  177.3820  145.5440 C   0  0  1  0  0  3  0  0  0  0  0  0
  186.3490  178.6410  146.0480 C   0  0  0  0  0  2  0  0  0  0  0  0
  188.8100  177.7750  147.2210 C   0  0  0  0  0  3  0  0  0  0  0  0
  186.7530  176.9840  143.7330 P   0  0  2  0  0  0  0  0  0  0  0  0
  188.5180  177.3330  145.9890 C   0  0  0  0  0  0  0  0  0  0  0  0
  187.7640  178.3940  148.0640 C   0  0  0  0  0  3  0  0  0  0  0  0
  190.3740  177.5820  141.4660 C   0  0  0  0  0  3  0  0  0  0  0  0
  189.7830  177.8540  138.6100 C   0  0  0  0  0  1  0  0  0  0  0  0
  187.5270  178.3450  139.2100 O   0  0  0  0  0  1  0  0  0  0  0  0
  188.8580  178.5800  139.5810 C   0  0  1  0  0  3  0  0  0  0  0  0
  191.8030  177.4460  145.8700 O   0  0  0  0  0  1  0  0  0  0  0  0
  190.9140  176.4100  145.5660 C   0  0  0  0  0  2  0  0  0  0  0  0
  184.5540  177.9720  142.3410 C   0  0  0  0  0  2  0  0  0  0  0  0
  183.5240  178.8310  142.9830 C   0  0  0  0  0  0  0  0  0  0  0  0
  183.8710  179.6520  143.8730 O   0  0  0  0  0  0  0  0  0  0  0  0
  181.1080  179.5460  143.1680 C   0  0  0  0  0  1  0  0  0  0  0  0
  182.1580  178.7370  142.5650 N   0  0  0  0  0  2  0  0  0  0  0  0
  1  7  1  0  0  0  0
  1  8  1  0  0  0  0
  2  4  1  0  0  0  0
  3 21  1  1  0  0  0
  3 14  1  0  0  0  0
  4  3  1  0  0  0  0
  5 16  2  0  0  0  0
  5  7  1  0  0  0  0
  6  4  2  0  0  0  0
  7  2  2  0  0  0  0
  8 22  1  6  0  0  0
  8 13  1  0  0  0  0
  9 15  2  0  0  0  0
 10 14  1  0  0  0  0
 10 11  1  6  0  0  0
 11  9  1  0  0  0  0
 12 15  1  0  0  0  0
 13  2  1  6  0  0  0
 13 10  1  0  0  0  0
 14 12  2  0  0  0  0
 16  6  1  0  0  0  0
 18 19  1  0  0  0  0
 19 17  1  6  0  0  0
 19  5  1  0  0  0  0
 21 20  1  0  0  0  0
 22 23  1  0  0  0  0
 23 24  2  0  0  0  0
 26 23  1  0  0  0  0
 26 25  1  0  0  0  0
M  END
>  <MODEL>
4

>  <REMARK>
 VINA RESULT:      -8.1      2.441      5.141
  Name = 
  4 active torsions:
  status: ('A' for Active; 'I' for Inactive)
    1  A    between atoms: C_3  and  C_7
    2  A    between atoms: C_3  and  C_14
    3  A    between atoms: C_5  and  C_19
    4  A    between atoms: C_10  and  C_25
                            x       y       z     vdW  Elec       q    Type
                         _______ _______ _______ _____ _____    ______ ____

>  <TORSDO>
F 4

$$$$
=
 OpenBabel10222416103D

 26 29  0  0  1  0  0  0  0  0999 V2000
  188.5360  178.1380  142.0520 O   0  0  0  0  0  0  0  0  0  0  0  0
  189.3420  177.5800  144.1630 C   0  0  0  0  0  0  0  0  0  0  0  0
  190.0110  176.7040  146.3090 C   0  0  2  0  0  3  0  0  0  0  0  0
  190.3180  176.8460  145.0030 C   0  0  0  0  0  0  0  0  0  0  0  0
  190.8610  177.4320  142.2260 C   0  0  0  0  0  0  0  0  0  0  0  0
  191.6340  176.5190  144.4060 C   0  0  0  0  0  3  0  0  0  0  0  0
  189.6640  177.7410  142.7480 C   0  0  0  0  0  0  0  0  0  0  0  0
  187.3690  178.0950  142.8790 C   0  0  2  0  0  3  0  0  0  0  0  0
  186.5770  179.0240  147.5160 C   0  0  0  0  0  3  0  0  0  0  0  0
  187.4630  177.3620  145.9240 C   0  0  1  0  0  3  0  0  0  0  0  0
  186.7830  178.7210  146.0540 C   0  0  0  0  0  2  0  0  0  0  0  0
  188.6550  177.8360  148.0280 C   0  0  0  0  0  3  0  0  0  0  0  0
  187.6990  176.7610  144.1610 P   0  0  2  0  0  0  0  0  0  0  0  0
  188.7110  177.2640  146.8160 C   0  0  0  0  0  0  0  0  0  0  0  0
  187.4730  178.6300  148.4300 C   0  0  0  0  0  3  0  0  0  0  0  0
  191.8850  176.8060  143.1170 C   0  0  0  0  0  3  0  0  0  0  0  0
  192.6280  177.6300  140.4230 C   0  0  0  0  0  1  0  0  0  0  0  0
  190.4710  176.7110  139.9830 O   0  0  0  0  0  1  0  0  0  0  0  0
  191.1400  177.6650  140.7610 C   0  0  1  0  0  3  0  0  0  0  0  0
  191.8990  177.1140  147.6970 O   0  0  0  0  0  1  0  0  0  0  0  0
  191.0060  176.1260  147.2700 C   0  0  0  0  0  2  0  0  0  0  0  0
  186.1560  177.7200  142.0520 C   0  0  0  0  0  2  0  0  0  0  0  0
  185.0270  178.6380  142.3590 C   0  0  0  0  0  0  0  0  0  0  0  0
  184.8150  179.6300  141.6120 O   0  0  0  0  0  0  0  0  0  0  0  0
  183.0660  179.2420  143.8320 C   0  0  0  0  0  1  0  0  0  0  0  0
  184.1780  178.3700  143.4800 N   0  0  0  0  0  2  0  0  0  0  0  0
  1  7  1  0  0  0  0
  1  8  1  0  0  0  0
  2  4  1  0  0  0  0
  3 14  1  0  0  0  0
  3 21  1  1  0  0  0
  4  3  1  0  0  0  0
  5  7  1  0  0  0  0
  5 16  2  0  0  0  0
  6  4  2  0  0  0  0
  7  2  2  0  0  0  0
  8 22  1  6  0  0  0
  8 13  1  0  0  0  0
  9 15  2  0  0  0  0
 10 11  1  6  0  0  0
 10 14  1  0  0  0  0
 11  9  1  0  0  0  0
 12 15  1  0  0  0  0
 13  2  1  1  0  0  0
 13 10  1  0  0  0  0
 14 12  2  0  0  0  0
 16  6  1  0  0  0  0
 18 19  1  0  0  0  0
 19 17  1  1  0  0  0
 19  5  1  0  0  0  0
 21 20  1  0  0  0  0
 22 23  1  0  0  0  0
 23 26  1  0  0  0  0
 24 23  2  0  0  0  0
 26 25  1  0  0  0  0
M  END
>  <MODEL>
5

>  <REMARK>
 VINA RESULT:      -8.1      2.025      4.946
  Name = 
  4 active torsions:
  status: ('A' for Active; 'I' for Inactive)
    1  A    between atoms: C_3  and  C_7
    2  A    between atoms: C_3  and  C_14
    3  A    between atoms: C_5  and  C_19
    4  A    between atoms: C_10  and  C_25
                            x       y       z     vdW  Elec       q    Type
                         _______ _______ _______ _____ _____    ______ ____

>  <TORSDO>
F 4

$$$$
=
 OpenBabel10222416103D

 26 29  0  0  1  0  0  0  0  0999 V2000
  185.6300  178.7350  142.9990 O   0  0  0  0  0  0  0  0  0  0  0  0
  187.6290  178.2590  141.9060 C   0  0  0  0  0  0  0  0  0  0  0  0
  189.6320  177.4360  140.8430 C   0  0  2  0  0  3  0  0  0  0  0  0
  188.3400  177.7940  140.6920 C   0  0  0  0  0  0  0  0  0  0  0  0
  185.6300  178.7880  140.5630 C   0  0  0  0  0  0  0  0  0  0  0  0
  187.6580  177.9600  139.3870 C   0  0  0  0  0  3  0  0  0  0  0  0
  186.2300  178.6510  141.7550 C   0  0  0  0  0  0  0  0  0  0  0  0
  186.4920  178.2460  144.0310 C   0  0  2  0  0  3  0  0  0  0  0  0
  191.2330  178.4210  144.7280 C   0  0  0  0  0  3  0  0  0  0  0  0
  189.4260  177.2880  143.4900 C   0  0  1  0  0  3  0  0  0  0  0  0
  189.7380  178.3430  144.5460 C   0  0  0  0  0  2  0  0  0  0  0  0
  191.5220  177.9080  142.3520 C   0  0  0  0  0  3  0  0  0  0  0  0
  187.5980  176.9660  143.2090 P   0  0  2  0  0  0  0  0  0  0  0  0
  190.2510  177.5040  142.2110 C   0  0  0  0  0  0  0  0  0  0  0  0
  192.0590  178.2440  143.6890 C   0  0  0  0  0  3  0  0  0  0  0  0
  186.4020  178.4350  139.3330 C   0  0  0  0  0  3  0  0  0  0  0  0
  183.8060  179.7500  139.0940 C   0  0  0  0  0  1  0  0  0  0  0  0
  183.3340  178.1890  140.8350 O   0  0  0  0  0  1  0  0  0  0  0  0
  184.1910  179.2380  140.4790 C   0  0  1  0  0  3  0  0  0  0  0  0
  190.5490  175.7270  139.4650 O   0  0  0  0  0  1  0  0  0  0  0  0
  190.4800  177.1120  139.6490 C   0  0  0  0  0  2  0  0  0  0  0  0
  185.6750  177.5880  145.1250 C   0  0  0  0  0  2  0  0  0  0  0  0
  186.0810  178.1210  146.4530 C   0  0  0  0  0  0  0  0  0  0  0  0
  185.3070  178.9000  147.0690 O   0  0  0  0  0  0  0  0  0  0  0  0
  187.7810  178.2220  148.3180 C   0  0  0  0  0  1  0  0  0  0  0  0
  187.3300  177.7210  147.0270 N   0  0  0  0  0  2  0  0  0  0  0  0
  1  8  1  0  0  0  0
  3 21  1  6  0  0  0
  3 14  1  0  0  0  0
  4  3  1  0  0  0  0
  4  2  2  0  0  0  0
  5  7  2  0  0  0  0
  6  4  1  0  0  0  0
  7  2  1  0  0  0  0
  7  1  1  0  0  0  0
  8 22  1  1  0  0  0
 10 11  1  1  0  0  0
 11  9  1  0  0  0  0
 12 15  1  0  0  0  0
 13  2  1  6  0  0  0
 13 10  1  0  0  0  0
 13  8  1  0  0  0  0
 14 12  2  0  0  0  0
 14 10  1  0  0  0  0
 15  9  2  0  0  0  0
 16  6  2  0  0  0  0
 16  5  1  0  0  0  0
 19 17  1  6  0  0  0
 19  5  1  0  0  0  0
 19 18  1  0  0  0  0
 20 21  1  0  0  0  0
 22 23  1  0  0  0  0
 23 26  1  0  0  0  0
 23 24  2  0  0  0  0
 26 25  1  0  0  0  0
M  END
>  <MODEL>
6

>  <REMARK>
 VINA RESULT:      -7.7      2.645      5.748
  Name = 
  4 active torsions:
  status: ('A' for Active; 'I' for Inactive)
    1  A    between atoms: C_3  and  C_7
    2  A    between atoms: C_3  and  C_14
    3  A    between atoms: C_5  and  C_19
    4  A    between atoms: C_10  and  C_25
                            x       y       z     vdW  Elec       q    Type
                         _______ _______ _______ _____ _____    ______ ____

>  <TORSDO>
F 4

$$$$
=
 OpenBabel10222416103D

 26 29  0  0  1  0  0  0  0  0999 V2000
  183.7840  178.1890  140.3800 O   0  0  0  0  0  0  0  0  0  0  0  0
  184.3610  178.2470  142.6340 C   0  0  0  0  0  0  0  0  0  0  0  0
  185.0670  178.6280  144.9090 C   0  0  2  0  0  3  0  0  0  0  0  0
  184.0540  178.6750  144.0190 C   0  0  0  0  0  0  0  0  0  0  0  0
  181.9930  178.5130  142.0000 C   0  0  0  0  0  0  0  0  0  0  0  0
  182.6340  178.9100  144.3700 C   0  0  0  0  0  3  0  0  0  0  0  0
  183.2730  178.2920  141.6610 C   0  0  0  0  0  0  0  0  0  0  0  0
  185.2140  178.2520  140.3790 C   0  0  2  0  0  3  0  0  0  0  0  0
  188.5880  176.6490  143.3850 C   0  0  0  0  0  3  0  0  0  0  0  0
  186.9130  178.4200  143.0060 C   0  0  1  0  0  3  0  0  0  0  0  0
  187.5580  177.1710  142.4150 C   0  0  0  0  0  2  0  0  0  0  0  0
  187.1890  177.4190  145.2410 C   0  0  0  0  0  3  0  0  0  0  0  0
  185.6800  179.2810  141.8830 P   0  0  2  0  0  0  0  0  0  0  0  0
  186.4250  178.1810  144.4440 C   0  0  0  0  0  0  0  0  0  0  0  0
  188.3920  176.7440  144.7070 C   0  0  0  0  0  3  0  0  0  0  0  0
  181.6790  178.8200  143.4290 C   0  0  0  0  0  3  0  0  0  0  0  0
  179.7760  177.5350  141.2680 C   0  0  0  0  0  1  0  0  0  0  0  0
  180.3840  179.7900  140.7820 O   0  0  0  0  0  1  0  0  0  0  0  0
  180.9110  178.5030  140.9470 C   0  0  1  0  0  3  0  0  0  0  0  0
  185.6870  179.8660  146.8430 O   0  0  0  0  0  1  0  0  0  0  0  0
  184.8170  178.8810  146.3650 C   0  0  0  0  0  2  0  0  0  0  0  0
  185.7050  178.9370  139.1200 C   0  0  0  0  0  2  0  0  0  0  0  0
  186.9240  178.2520  138.6120 C   0  0  0  0  0  0  0  0  0  0  0  0
  186.8110  177.3670  137.7220 O   0  0  0  0  0  0  0  0  0  0  0  0
  189.4340  177.9780  138.6620 C   0  0  0  0  0  1  0  0  0  0  0  0
  188.2110  178.6240  139.1160 N   0  0  0  0  0  2  0  0  0  0  0  0
  1  7  1  0  0  0  0
  2  4  1  0  0  0  0
  3 21  1  1  0  0  0
  4  6  2  0  0  0  0
  4  3  1  0  0  0  0
  5 16  2  0  0  0  0
  7  5  1  0  0  0  0
  7  2  2  0  0  0  0
  8 22  1  6  0  0  0
  8  1  1  0  0  0  0
  8 13  1  0  0  0  0
  9 15  2  0  0  0  0
 10 11  1  6  0  0  0
 10 14  1  0  0  0  0
 11  9  1  0  0  0  0
 13  2  1  1  0  0  0
 13 10  1  0  0  0  0
 14  3  1  0  0  0  0
 14 12  2  0  0  0  0
 15 12  1  0  0  0  0
 16  6  1  0  0  0  0
 18 19  1  0  0  0  0
 19 17  1  1  0  0  0
 19  5  1  0  0  0  0
 21 20  1  0  0  0  0
 23 26  1  0  0  0  0
 23 22  1  0  0  0  0
 24 23  2  0  0  0  0
 25 26  1  0  0  0  0
M  END
>  <MODEL>
7

>  <REMARK>
 VINA RESULT:      -7.3      2.866      4.571
  Name = 
  4 active torsions:
  status: ('A' for Active; 'I' for Inactive)
    1  A    between atoms: C_3  and  C_7
    2  A    between atoms: C_3  and  C_14
    3  A    between atoms: C_5  and  C_19
    4  A    between atoms: C_10  and  C_25
                            x       y       z     vdW  Elec       q    Type
                         _______ _______ _______ _____ _____    ______ ____

>  <TORSDO>
F 4

$$$$
=
 OpenBabel10222416103D

 26 29  0  0  1  0  0  0  0  0999 V2000
  185.2500  177.9580  144.2300 O   0  0  0  0  0  0  0  0  0  0  0  0
  186.4870  177.9390  142.2590 C   0  0  0  0  0  0  0  0  0  0  0  0
  187.7460  178.2610  140.2270 C   0  0  2  0  0  3  0  0  0  0  0  0
  187.7860  178.1060  141.5660 C   0  0  0  0  0  0  0  0  0  0  0  0
  187.6490  177.5690  144.4020 C   0  0  0  0  0  0  0  0  0  0  0  0
  189.0210  177.8770  142.3510 C   0  0  0  0  0  3  0  0  0  0  0  0
  186.5170  177.7680  143.7090 C   0  0  0  0  0  0  0  0  0  0  0  0
  184.3400  178.4360  143.2350 C   0  0  2  0  0  3  0  0  0  0  0  0
  183.8300  177.5730  138.5460 C   0  0  0  0  0  3  0  0  0  0  0  0
  185.1430  178.8080  140.2290 C   0  0  1  0  0  3  0  0  0  0  0  0
  183.9570  177.8730  140.0180 C   0  0  0  0  0  2  0  0  0  0  0  0
  186.2660  177.6960  138.3380 C   0  0  0  0  0  3  0  0  0  0  0  0
  185.3890  179.3870  141.9980 P   0  0  2  0  0  0  0  0  0  0  0  0
  186.4110  178.2820  139.5360 C   0  0  0  0  0  0  0  0  0  0  0  0
  184.9180  177.4640  137.7730 C   0  0  0  0  0  3  0  0  0  0  0  0
  188.9500  177.6140  143.6670 C   0  0  0  0  0  3  0  0  0  0  0  0
  188.9800  177.1090  146.5060 C   0  0  0  0  0  1  0  0  0  0  0  0
  187.0160  178.4620  146.5240 O   0  0  0  0  0  1  0  0  0  0  0  0
  187.6030  177.3570  145.8960 C   0  0  1  0  0  3  0  0  0  0  0  0
  189.0120  179.3550  138.5350 O   0  0  0  0  0  1  0  0  0  0  0  0
  189.0090  178.2710  139.4190 C   0  0  0  0  0  2  0  0  0  0  0  0
  183.3210  179.3660  143.8620 C   0  0  0  0  0  2  0  0  0  0  0  0
  181.9460  178.9440  143.4830 C   0  0  0  0  0  0  0  0  0  0  0  0
  181.1780  178.4760  144.3650 O   0  0  0  0  0  0  0  0  0  0  0  0
  180.1710  178.6920  141.7040 C   0  0  0  0  0  1  0  0  0  0  0  0
  181.5020  179.1000  142.1310 N   0  0  0  0  0  2  0  0  0  0  0  0
  2  7  1  0  0  0  0
  3 21  1  6  0  0  0
  3  4  1  0  0  0  0
  4  2  2  0  0  0  0
  4  6  1  0  0  0  0
  5 19  1  0  0  0  0
  6 16  2  0  0  0  0
  7  1  1  0  0  0  0
  7  5  2  0  0  0  0
  8 22  1  1  0  0  0
  8  1  1  0  0  0  0
  9 11  1  0  0  0  0
 10 11  1  1  0  0  0
 10 13  1  0  0  0  0
 12 14  2  0  0  0  0
 13  2  1  1  0  0  0
 13  8  1  0  0  0  0
 14  3  1  0  0  0  0
 14 10  1  0  0  0  0
 15 12  1  0  0  0  0
 15  9  2  0  0  0  0
 16  5  1  0  0  0  0
 19 17  1  1  0  0  0
 19 18  1  0  0  0  0
 20 21  1  0  0  0  0
 23 22  1  0  0  0  0
 23 24  2  0  0  0  0
 25 26  1  0  0  0  0
 26 23  1  0  0  0  0
M  END
>  <MODEL>
8

>  <REMARK>
 VINA RESULT:      -7.2      3.193      7.551
  Name = 
  4 active torsions:
  status: ('A' for Active; 'I' for Inactive)
    1  A    between atoms: C_3  and  C_7
    2  A    between atoms: C_3  and  C_14
    3  A    between atoms: C_5  and  C_19
    4  A    between atoms: C_10  and  C_25
                            x       y       z     vdW  Elec       q    Type
                         _______ _______ _______ _____ _____    ______ ____

>  <TORSDO>
F 4

$$$$
=
 OpenBabel10222416103D

 26 29  0  0  1  0  0  0  0  0999 V2000
  187.2110  178.6360  141.5680 O   0  0  0  0  0  0  0  0  0  0  0  0
  189.0350  177.6700  142.6440 C   0  0  0  0  0  0  0  0  0  0  0  0
  190.7420  176.3780  143.7530 C   0  0  2  0  0  3  0  0  0  0  0  0
  190.2590  176.8380  142.5810 C   0  0  0  0  0  0  0  0  0  0  0  0
  189.1610  178.0830  140.2160 C   0  0  0  0  0  0  0  0  0  0  0  0
  190.9710  176.7540  141.2850 C   0  0  0  0  0  3  0  0  0  0  0  0
  188.5020  178.1750  141.3820 C   0  0  0  0  0  0  0  0  0  0  0  0
  186.7250  178.3190  142.8760 C   0  0  2  0  0  3  0  0  0  0  0  0
  188.7910  178.0980  147.1980 C   0  0  0  0  0  3  0  0  0  0  0  0
  188.4870  176.9160  145.0550 C   0  0  1  0  0  3  0  0  0  0  0  0
  188.1040  178.1550  145.8570 C   0  0  0  0  0  2  0  0  0  0  0  0
  190.6970  176.9810  146.1420 C   0  0  0  0  0  3  0  0  0  0  0  0
  187.6310  176.7540  143.3920 P   0  0  2  0  0  0  0  0  0  0  0  0
  190.0100  176.7090  145.0230 C   0  0  0  0  0  0  0  0  0  0  0  0
  190.0170  177.5730  147.3160 C   0  0  0  0  0  3  0  0  0  0  0  0
  190.4620  177.3460  140.1910 C   0  0  0  0  0  3  0  0  0  0  0  0
  189.4310  178.4150  137.7210 C   0  0  0  0  0  1  0  0  0  0  0  0
  187.2890  178.1420  138.7340 O   0  0  0  0  0  1  0  0  0  0  0  0
  188.5690  178.6650  138.9550 C   0  0  1  0  0  3  0  0  0  0  0  0
  191.9020  174.3850  144.3410 O   0  0  0  0  0  1  0  0  0  0  0  0
  192.0630  175.6700  143.8110 C   0  0  0  0  0  2  0  0  0  0  0  0
  185.2340  178.0550  142.8300 C   0  0  0  0  0  2  0  0  0  0  0  0
  184.5890  178.5590  144.0720 C   0  0  0  0  0  0  0  0  0  0  0  0
  183.5880  179.3180  143.9840 O   0  0  0  0  0  0  0  0  0  0  0  0
  184.5080  178.6280  146.5950 C   0  0  0  0  0  1  0  0  0  0  0  0
  185.0930  178.1550  145.3490 N   0  0  0  0  0  2  0  0  0  0  0  0
  1  8  1  0  0  0  0
  3 21  1  1  0  0  0
  3 14  1  0  0  0  0
  4  2  1  0  0  0  0
  4  3  1  0  0  0  0
  5  7  1  0  0  0  0
  6  4  2  0  0  0  0
  7  1  1  0  0  0  0
  7  2  2  0  0  0  0
  8 22  1  6  0  0  0
  8 13  1  0  0  0  0
  9 15  2  0  0  0  0
 10 11  1  6  0  0  0
 11  9  1  0  0  0  0
 12 15  1  0  0  0  0
 13  2  1  6  0  0  0
 13 10  1  0  0  0  0
 14 10  1  0  0  0  0
 14 12  2  0  0  0  0
 16  5  2  0  0  0  0
 16  6  1  0  0  0  0
 18 19  1  0  0  0  0
 19 17  1  6  0  0  0
 19  5  1  0  0  0  0
 21 20  1  0  0  0  0
 22 23  1  0  0  0  0
 23 26  1  0  0  0  0
 24 23  2  0  0  0  0
 26 25  1  0  0  0  0
M  END
>  <MODEL>
9

>  <REMARK>
 VINA RESULT:      -7.1      2.453      5.151
  Name = 
  4 active torsions:
  status: ('A' for Active; 'I' for Inactive)
    1  A    between atoms: C_3  and  C_7
    2  A    between atoms: C_3  and  C_14
    3  A    between atoms: C_5  and  C_19
    4  A    between atoms: C_10  and  C_25
                            x       y       z     vdW  Elec       q    Type
                         _______ _______ _______ _____ _____    ______ ____

>  <TORSDO>
F 4

$$$$
