=
 OpenBabel10222416073D

 26 28  0  0  1  0  0  0  0  0999 V2000
  190.3980  178.1510  143.4220 C   0  0  0  0  0  0  0  0  0  0  0  0
  189.8210  177.5160  142.2760 N   0  0  0  0  0  2  0  0  0  0  0  0
  189.9720  177.7890  144.7380 N   0  0  0  0  0  2  0  0  0  0  0  0
  191.3200  179.0460  143.2800 N   0  0  0  0  0  2  0  0  0  0  0  0
  190.5460  176.5380  140.1700 C   0  0  0  0  0  2  0  0  0  0  0  0
  190.2010  177.8340  140.9080 C   0  0  1  0  0  3  0  0  0  0  0  0
  188.7040  176.8420  138.1200 S   0  0  0  0  0  0  0  0  0  0  0  0
  189.0930  178.6490  140.2270 C   0  0  0  0  0  2  0  0  0  0  0  0
  191.1020  175.5350  137.9740 C   0  0  0  0  0  1  0  0  0  0  0  0
  190.4500  176.7140  138.6620 C   0  0  2  0  0  3  0  0  0  0  0  0
  188.0460  177.7470  139.5780 C   0  0  1  0  0  3  0  0  0  0  0  0
  186.8460  178.5010  139.2260 N   0  0  0  0  0  2  0  0  0  0  0  0
  184.8620  178.9010  140.0240 C   0  0  0  0  0  1  0  0  0  0  0  0
  186.2110  178.8630  140.3700 O   0  0  0  0  0  0  0  0  0  0  0  0
  188.9620  176.7710  144.9900 C   0  0  0  0  0  2  0  0  0  0  0  0
  183.5920  179.1250  145.6790 N   0  0  0  0  0  0  0  0  0  0  0  0
  186.8160  177.4820  143.9090 N   0  0  0  0  0  0  0  0  0  0  0  0
  183.5170  178.8880  144.3250 C   0  0  0  0  0  3  0  0  0  0  0  0
  187.5990  177.3840  145.0210 C   0  0  0  0  0  0  0  0  0  0  0  0
  184.6860  178.8310  146.3960 N   0  0  0  0  0  0  0  0  0  0  0  0
  185.6810  178.0420  144.3590 C   0  0  0  0  0  0  0  0  0  0  0  0
  184.5720  178.3370  143.6480 N   0  0  0  0  0  2  0  0  0  0  0  0
  185.7390  178.2920  145.7480 C   0  0  0  0  0  0  0  0  0  0  0  0
  186.9660  177.8690  146.1730 C   0  0  0  0  0  0  0  0  0  0  0  0
  187.8920  177.9230  148.5970 N   0  0  0  0  0  0  0  0  0  0  0  0
  187.4790  177.8990  147.5160 C   0  0  0  0  0  0  0  0  0  0  0  0
  1  3  1  0  0  0  0
  2  1  1  0  0  0  0
  3 15  1  0  0  0  0
  4  1  2  0  0  0  0
  5  6  1  0  0  0  0
  6  2  1  1  0  0  0
  7 10  1  0  0  0  0
  7 11  1  0  0  0  0
  8  6  1  0  0  0  0
 10  9  1  6  0  0  0
 10  5  1  0  0  0  0
 11 12  1  6  0  0  0
 11  8  1  0  0  0  0
 12 14  1  0  0  0  0
 13 14  1  0  0  0  0
 15 19  1  0  0  0  0
 16 20  1  0  0  0  0
 17 21  2  0  0  0  0
 17 19  1  0  0  0  0
 18 16  2  0  0  0  0
 19 24  2  0  0  0  0
 21 23  1  0  0  0  0
 22 18  1  0  0  0  0
 22 21  1  0  0  0  0
 23 24  1  0  0  0  0
 23 20  2  0  0  0  0
 24 26  1  0  0  0  0
 26 25  3  0  0  0  0
M  END
>  <MODEL>
1

>  <REMARK>
 VINA RESULT:      -7.7      0.000      0.000
  Name = 
  6 active torsions:
  status: ('A' for Active; 'I' for Inactive)
    1  A    between atoms: C_5  and  N_8
    2  A    between atoms: C_7  and  C_16
    3  A    between atoms: C_7  and  N_23
    4  A    between atoms: O_13  and  N_24
    5  A    between atoms: C_21  and  C_22
    6  A    between atoms: N_24  and  C_25
                            x       y       z     vdW  Elec       q    Type
                         _______ _______ _______ _____ _____    ______ ____

>  <TORSDO>
F 6

$$$$
=
 OpenBabel10222416073D

 26 28  0  0  1  0  0  0  0  0999 V2000
  190.6980  177.2280  141.7440 C   0  0  0  0  0  0  0  0  0  0  0  0
  189.8520  177.0270  140.6070 N   0  0  0  0  0  2  0  0  0  0  0  0
  190.3280  176.7000  143.0190 N   0  0  0  0  0  2  0  0  0  0  0  0
  191.8120  177.8740  141.6260 N   0  0  0  0  0  2  0  0  0  0  0  0
  190.3690  176.3590  138.3250 C   0  0  0  0  0  2  0  0  0  0  0  0
  190.1600  177.5370  139.2790 C   0  0  1  0  0  3  0  0  0  0  0  0
  188.4190  177.0830  136.4930 S   0  0  0  0  0  0  0  0  0  0  0  0
  189.0650  178.5100  138.8180 C   0  0  0  0  0  2  0  0  0  0  0  0
  190.7110  175.6880  135.9650 C   0  0  0  0  0  1  0  0  0  0  0  0
  190.1850  176.7760  136.8750 C   0  0  2  0  0  3  0  0  0  0  0  0
  187.9200  177.7800  138.1190 C   0  0  1  0  0  3  0  0  0  0  0  0
  186.7520  178.6450  137.9800 N   0  0  0  0  0  2  0  0  0  0  0  0
  184.7780  178.5310  138.8860 C   0  0  0  0  0  1  0  0  0  0  0  0
  186.1250  178.7230  139.1820 O   0  0  0  0  0  0  0  0  0  0  0  0
  189.1080  175.9350  143.2350 C   0  0  0  0  0  2  0  0  0  0  0  0
  185.2280  179.1680  146.2920 N   0  0  0  0  0  0  0  0  0  0  0  0
  186.9230  177.1620  143.2380 N   0  0  0  0  0  0  0  0  0  0  0  0
  184.5270  179.1100  145.1080 C   0  0  0  0  0  3  0  0  0  0  0  0
  188.0640  176.7870  143.8830 C   0  0  0  0  0  0  0  0  0  0  0  0
  186.4280  178.5900  146.4410 N   0  0  0  0  0  0  0  0  0  0  0  0
  186.2470  177.8710  144.1580 C   0  0  0  0  0  0  0  0  0  0  0  0
  185.0370  178.4520  144.0210 N   0  0  0  0  0  2  0  0  0  0  0  0
  186.9510  177.9410  145.3810 C   0  0  0  0  0  0  0  0  0  0  0  0
  188.1130  177.2460  145.2060 C   0  0  0  0  0  0  0  0  0  0  0  0
  189.9780  176.8370  146.9640 N   0  0  0  0  0  0  0  0  0  0  0  0
  189.1470  177.0200  146.1810 C   0  0  0  0  0  0  0  0  0  0  0  0
  1  3  1  0  0  0  0
  2  1  1  0  0  0  0
  3 15  1  0  0  0  0
  4  1  2  0  0  0  0
  5  6  1  0  0  0  0
  6  2  1  1  0  0  0
  7 10  1  0  0  0  0
  7 11  1  0  0  0  0
  8  6  1  0  0  0  0
 10  9  1  6  0  0  0
 10  5  1  0  0  0  0
 11 12  1  6  0  0  0
 11  8  1  0  0  0  0
 12 14  1  0  0  0  0
 13 14  1  0  0  0  0
 15 19  1  0  0  0  0
 16 20  1  0  0  0  0
 17 19  1  0  0  0  0
 17 21  2  0  0  0  0
 18 16  2  0  0  0  0
 19 24  2  0  0  0  0
 21 23  1  0  0  0  0
 22 21  1  0  0  0  0
 22 18  1  0  0  0  0
 23 20  2  0  0  0  0
 24 23  1  0  0  0  0
 24 26  1  0  0  0  0
 26 25  3  0  0  0  0
M  END
>  <MODEL>
2

>  <REMARK>
 VINA RESULT:      -7.4      1.418      1.678
  Name = 
  6 active torsions:
  status: ('A' for Active; 'I' for Inactive)
    1  A    between atoms: C_5  and  N_8
    2  A    between atoms: C_7  and  C_16
    3  A    between atoms: C_7  and  N_23
    4  A    between atoms: O_13  and  N_24
    5  A    between atoms: C_21  and  C_22
    6  A    between atoms: N_24  and  C_25
                            x       y       z     vdW  Elec       q    Type
                         _______ _______ _______ _____ _____    ______ ____

>  <TORSDO>
F 6

$$$$
=
 OpenBabel10222416073D

 26 28  0  0  1  0  0  0  0  0999 V2000
  190.7930  177.1690  141.2050 C   0  0  0  0  0  0  0  0  0  0  0  0
  189.8060  177.1620  140.1690 N   0  0  0  0  0  2  0  0  0  0  0  0
  190.4360  176.8170  142.5430 N   0  0  0  0  0  2  0  0  0  0  0  0
  192.0200  177.4770  140.9390 N   0  0  0  0  0  2  0  0  0  0  0  0
  190.1230  176.2360  137.9420 C   0  0  0  0  0  2  0  0  0  0  0  0
  190.0930  177.5120  138.7860 C   0  0  1  0  0  3  0  0  0  0  0  0
  188.1640  177.0040  136.1360 S   0  0  0  0  0  0  0  0  0  0  0  0
  189.0850  178.5550  138.2820 C   0  0  0  0  0  2  0  0  0  0  0  0
  190.2610  175.3190  135.6440 C   0  0  0  0  0  1  0  0  0  0  0  0
  189.9060  176.5380  136.4670 C   0  0  2  0  0  3  0  0  0  0  0  0
  187.8330  177.8970  137.7090 C   0  0  1  0  0  3  0  0  0  0  0  0
  186.7580  178.8710  137.5390 N   0  0  0  0  0  2  0  0  0  0  0  0
  184.9040  177.8710  138.0820 C   0  0  0  0  0  1  0  0  0  0  0  0
  185.8830  178.7350  138.5670 O   0  0  0  0  0  0  0  0  0  0  0  0
  189.0850  176.4290  142.9250 C   0  0  0  0  0  2  0  0  0  0  0  0
  187.4800  178.4690  148.2270 N   0  0  0  0  0  0  0  0  0  0  0  0
  189.7000  176.7620  145.3310 N   0  0  0  0  0  0  0  0  0  0  0  0
  188.7420  178.0370  148.5690 C   0  0  0  0  0  3  0  0  0  0  0  0
  188.7890  176.8700  144.3220 C   0  0  0  0  0  0  0  0  0  0  0  0
  186.9910  178.3320  146.9860 N   0  0  0  0  0  0  0  0  0  0  0  0
  189.0720  177.2950  146.3930 C   0  0  0  0  0  0  0  0  0  0  0  0
  189.5560  177.4430  147.6440 N   0  0  0  0  0  2  0  0  0  0  0  0
  187.7750  177.7440  146.0610 C   0  0  0  0  0  0  0  0  0  0  0  0
  187.5940  177.4740  144.7340 C   0  0  0  0  0  0  0  0  0  0  0  0
  185.5000  178.0070  143.2960 N   0  0  0  0  0  0  0  0  0  0  0  0
  186.4330  177.7700  143.9370 C   0  0  0  0  0  0  0  0  0  0  0  0
  1  3  1  0  0  0  0
  2  1  1  0  0  0  0
  3 15  1  0  0  0  0
  4  1  2  0  0  0  0
  5  6  1  0  0  0  0
  6  2  1  1  0  0  0
  7 10  1  0  0  0  0
  7 11  1  0  0  0  0
  8  6  1  0  0  0  0
 10  9  1  6  0  0  0
 10  5  1  0  0  0  0
 11 12  1  6  0  0  0
 11  8  1  0  0  0  0
 12 14  1  0  0  0  0
 13 14  1  0  0  0  0
 15 19  1  0  0  0  0
 16 18  2  0  0  0  0
 17 21  2  0  0  0  0
 19 24  2  0  0  0  0
 19 17  1  0  0  0  0
 20 16  1  0  0  0  0
 21 22  1  0  0  0  0
 22 18  1  0  0  0  0
 23 21  1  0  0  0  0
 23 20  2  0  0  0  0
 24 23  1  0  0  0  0
 25 26  3  0  0  0  0
 26 24  1  0  0  0  0
M  END
>  <MODEL>
3

>  <REMARK>
 VINA RESULT:      -7.2      1.752      3.241
  Name = 
  6 active torsions:
  status: ('A' for Active; 'I' for Inactive)
    1  A    between atoms: C_5  and  N_8
    2  A    between atoms: C_7  and  C_16
    3  A    between atoms: C_7  and  N_23
    4  A    between atoms: O_13  and  N_24
    5  A    between atoms: C_21  and  C_22
    6  A    between atoms: N_24  and  C_25
                            x       y       z     vdW  Elec       q    Type
                         _______ _______ _______ _____ _____    ______ ____

>  <TORSDO>
F 6

$$$$
=
 OpenBabel10222416073D

 26 28  0  0  1  0  0  0  0  0999 V2000
  184.6050  178.8920  141.0280 C   0  0  0  0  0  0  0  0  0  0  0  0
  183.3520  178.2250  141.2120 N   0  0  0  0  0  2  0  0  0  0  0  0
  185.5830  178.8890  142.0710 N   0  0  0  0  0  2  0  0  0  0  0  0
  184.8720  179.4890  139.9130 N   0  0  0  0  0  2  0  0  0  0  0  0
  182.1910  176.7630  139.6520 C   0  0  0  0  0  2  0  0  0  0  0  0
  182.3080  178.1880  140.1990 C   0  0  1  0  0  3  0  0  0  0  0  0
  179.5070  176.4120  140.2560 S   0  0  0  0  0  0  0  0  0  0  0  0
  180.9920  178.7330  140.7730 C   0  0  0  0  0  2  0  0  0  0  0  0
  180.8800  175.2440  138.1990 C   0  0  0  0  0  1  0  0  0  0  0  0
  180.8370  176.5270  139.0000 C   0  0  2  0  0  3  0  0  0  0  0  0
  180.1770  177.6360  141.4530 C   0  0  1  0  0  3  0  0  0  0  0  0
  179.1090  178.2040  142.2710 N   0  0  0  0  0  2  0  0  0  0  0  0
  179.1090  179.2120  144.1990 C   0  0  0  0  0  1  0  0  0  0  0  0
  179.4090  178.0010  143.5780 O   0  0  0  0  0  0  0  0  0  0  0  0
  185.3770  178.2170  143.3460 C   0  0  0  0  0  2  0  0  0  0  0  0
  190.3840  177.0610  146.2510 N   0  0  0  0  0  0  0  0  0  0  0  0
  187.7530  177.4330  143.2230 N   0  0  0  0  0  0  0  0  0  0  0  0
  190.8300  176.7550  144.9850 C   0  0  0  0  0  3  0  0  0  0  0  0
  186.6880  177.8540  143.9640 C   0  0  0  0  0  0  0  0  0  0  0  0
  189.1270  177.4640  146.4870 N   0  0  0  0  0  0  0  0  0  0  0  0
  188.7280  177.2510  144.1300 C   0  0  0  0  0  0  0  0  0  0  0  0
  189.9970  176.8510  143.9040 N   0  0  0  0  0  2  0  0  0  0  0  0
  188.2880  177.5600  145.4370 C   0  0  0  0  0  0  0  0  0  0  0  0
  186.9830  177.9480  145.3300 C   0  0  0  0  0  0  0  0  0  0  0  0
  185.4170  178.7260  147.2480 N   0  0  0  0  0  0  0  0  0  0  0  0
  186.1140  178.3790  146.3930 C   0  0  0  0  0  0  0  0  0  0  0  0
  1  2  1  0  0  0  0
  1  3  1  0  0  0  0
  3 15  1  0  0  0  0
  4  1  2  0  0  0  0
  5  6  1  0  0  0  0
  6  8  1  0  0  0  0
  6  2  1  1  0  0  0
  7 11  1  0  0  0  0
  8 11  1  0  0  0  0
 10  9  1  1  0  0  0
 10  5  1  0  0  0  0
 10  7  1  0  0  0  0
 11 12  1  6  0  0  0
 12 14  1  0  0  0  0
 14 13  1  0  0  0  0
 15 19  1  0  0  0  0
 16 20  1  0  0  0  0
 17 19  1  0  0  0  0
 17 21  2  0  0  0  0
 18 16  2  0  0  0  0
 19 24  2  0  0  0  0
 21 23  1  0  0  0  0
 22 21  1  0  0  0  0
 22 18  1  0  0  0  0
 23 20  2  0  0  0  0
 24 23  1  0  0  0  0
 24 26  1  0  0  0  0
 26 25  3  0  0  0  0
M  END
>  <MODEL>
4

>  <REMARK>
 VINA RESULT:      -7.1      3.650      6.521
  Name = 
  6 active torsions:
  status: ('A' for Active; 'I' for Inactive)
    1  A    between atoms: C_5  and  N_8
    2  A    between atoms: C_7  and  C_16
    3  A    between atoms: C_7  and  N_23
    4  A    between atoms: O_13  and  N_24
    5  A    between atoms: C_21  and  C_22
    6  A    between atoms: N_24  and  C_25
                            x       y       z     vdW  Elec       q    Type
                         _______ _______ _______ _____ _____    ______ ____

>  <TORSDO>
F 6

$$$$
=
 OpenBabel10222416073D

 26 28  0  0  1  0  0  0  0  0999 V2000
  190.1680  176.3100  142.6450 C   0  0  0  0  0  0  0  0  0  0  0  0
  189.0960  177.0970  143.1740 N   0  0  0  0  0  2  0  0  0  0  0  0
  190.8790  176.7480  141.4840 N   0  0  0  0  0  2  0  0  0  0  0  0
  190.5150  175.2050  143.2190 N   0  0  0  0  0  2  0  0  0  0  0  0
  188.7240  177.6120  145.5230 C   0  0  0  0  0  2  0  0  0  0  0  0
  188.3260  176.7150  144.3480 C   0  0  1  0  0  3  0  0  0  0  0  0
  186.1850  178.5910  146.0500 S   0  0  0  0  0  0  0  0  0  0  0  0
  186.8240  176.7540  144.0320 C   0  0  0  0  0  2  0  0  0  0  0  0
  188.2070  178.2520  147.8600 C   0  0  0  0  0  1  0  0  0  0  0  0
  187.6480  177.6330  146.5970 C   0  0  2  0  0  3  0  0  0  0  0  0
  186.2330  178.1410  144.2680 C   0  0  1  0  0  3  0  0  0  0  0  0
  184.9090  178.2590  143.6640 N   0  0  0  0  0  2  0  0  0  0  0  0
  183.0750  179.3800  144.0000 C   0  0  0  0  0  1  0  0  0  0  0  0
  184.4540  179.5230  143.8620 O   0  0  0  0  0  0  0  0  0  0  0  0
  190.5740  177.9930  140.7930 C   0  0  0  0  0  2  0  0  0  0  0  0
  186.5590  176.9080  136.6040 N   0  0  0  0  0  2  0  0  0  0  0  0
  188.3180  178.5300  139.8440 N   0  0  0  0  0  0  0  0  0  0  0  0
  185.8700  177.8990  137.2670 C   0  0  0  0  0  3  0  0  0  0  0  0
  189.4630  177.7890  139.8140 C   0  0  0  0  0  0  0  0  0  0  0  0
  187.7650  176.4840  137.0070 N   0  0  0  0  0  0  0  0  0  0  0  0
  187.6090  178.0740  138.7980 C   0  0  0  0  0  0  0  0  0  0  0  0
  186.3970  178.4970  138.3800 N   0  0  0  0  0  0  0  0  0  0  0  0
  188.3000  177.0560  138.1040 C   0  0  0  0  0  0  0  0  0  0  0  0
  189.4880  176.8750  138.7540 C   0  0  0  0  0  0  0  0  0  0  0  0
  191.3840  175.2190  138.1220 N   0  0  0  0  0  0  0  0  0  0  0  0
  190.5390  175.9570  138.4030 C   0  0  0  0  0  0  0  0  0  0  0  0
  1  2  1  0  0  0  0
  1  4  2  0  0  0  0
  3  1  1  0  0  0  0
  5 10  1  0  0  0  0
  6  2  1  6  0  0  0
  6  5  1  0  0  0  0
  7 10  1  0  0  0  0
  8 11  1  0  0  0  0
  8  6  1  0  0  0  0
 10  9  1  1  0  0  0
 11 12  1  1  0  0  0
 11  7  1  0  0  0  0
 12 14  1  0  0  0  0
 14 13  1  0  0  0  0
 15  3  1  0  0  0  0
 16 20  1  0  0  0  0
 16 18  1  0  0  0  0
 18 22  2  0  0  0  0
 19 17  1  0  0  0  0
 19 15  1  0  0  0  0
 20 23  2  0  0  0  0
 21 17  2  0  0  0  0
 22 21  1  0  0  0  0
 23 24  1  0  0  0  0
 23 21  1  0  0  0  0
 24 19  2  0  0  0  0
 25 26  3  0  0  0  0
 26 24  1  0  0  0  0
M  END
>  <MODEL>
5

>  <REMARK>
 VINA RESULT:      -6.8      2.630      6.782
  Name = 
  6 active torsions:
  status: ('A' for Active; 'I' for Inactive)
    1  A    between atoms: C_5  and  N_8
    2  A    between atoms: C_7  and  C_16
    3  A    between atoms: C_7  and  N_23
    4  A    between atoms: O_13  and  N_24
    5  A    between atoms: C_21  and  C_22
    6  A    between atoms: N_24  and  C_25
                            x       y       z     vdW  Elec       q    Type
                         _______ _______ _______ _____ _____    ______ ____

>  <TORSDO>
F 6

$$$$
=
 OpenBabel10222416073D

 26 28  0  0  1  0  0  0  0  0999 V2000
  190.9060  176.6760  143.5730 C   0  0  0  0  0  0  0  0  0  0  0  0
  189.5850  177.1890  143.7780 N   0  0  0  0  0  2  0  0  0  0  0  0
  191.6980  177.1410  142.4790 N   0  0  0  0  0  2  0  0  0  0  0  0
  191.4020  175.8000  144.3860 N   0  0  0  0  0  2  0  0  0  0  0  0
  189.0220  177.6040  146.1080 C   0  0  0  0  0  2  0  0  0  0  0  0
  188.7190  176.7620  144.8660 C   0  0  1  0  0  3  0  0  0  0  0  0
  186.4510  178.5760  146.4670 S   0  0  0  0  0  0  0  0  0  0  0  0
  187.2490  176.8240  144.4290 C   0  0  0  0  0  2  0  0  0  0  0  0
  188.3160  178.1460  148.4200 C   0  0  0  0  0  1  0  0  0  0  0  0
  187.8620  177.5850  147.0900 C   0  0  2  0  0  3  0  0  0  0  0  0
  186.6450  178.2030  144.6770 C   0  0  1  0  0  3  0  0  0  0  0  0
  185.3750  178.3560  143.9720 N   0  0  0  0  0  2  0  0  0  0  0  0
  183.3370  178.9220  144.4790 C   0  0  0  0  0  1  0  0  0  0  0  0
  184.6620  179.3420  144.5730 O   0  0  0  0  0  0  0  0  0  0  0  0
  191.2310  178.1460  141.5340 C   0  0  0  0  0  2  0  0  0  0  0  0
  188.5020  175.6480  136.9340 N   0  0  0  0  0  2  0  0  0  0  0  0
  191.4360  176.7490  139.4650 N   0  0  0  0  0  0  0  0  0  0  0  0
  189.7720  175.1890  136.6670 C   0  0  0  0  0  3  0  0  0  0  0  0
  190.6700  177.4940  140.3110 C   0  0  0  0  0  0  0  0  0  0  0  0
  188.2330  176.4340  137.9860 N   0  0  0  0  0  0  0  0  0  0  0  0
  190.5670  176.3170  138.5350 C   0  0  0  0  0  0  0  0  0  0  0  0
  190.8240  175.5220  137.4760 N   0  0  0  0  0  0  0  0  0  0  0  0
  189.2570  176.7790  138.7930 C   0  0  0  0  0  0  0  0  0  0  0  0
  189.3220  177.5310  139.9310 C   0  0  0  0  0  0  0  0  0  0  0  0
  187.3600  178.7280  141.1360 N   0  0  0  0  0  0  0  0  0  0  0  0
  188.2340  178.1940  140.5990 C   0  0  0  0  0  0  0  0  0  0  0  0
  1  2  1  0  0  0  0
  1  4  2  0  0  0  0
  3  1  1  0  0  0  0
  5 10  1  0  0  0  0
  6  2  1  6  0  0  0
  6  5  1  0  0  0  0
  7 10  1  0  0  0  0
  8 11  1  0  0  0  0
  8  6  1  0  0  0  0
 10  9  1  1  0  0  0
 11 12  1  6  0  0  0
 11  7  1  0  0  0  0
 12 14  1  0  0  0  0
 13 14  1  0  0  0  0
 15  3  1  0  0  0  0
 16 20  1  0  0  0  0
 17 19  1  0  0  0  0
 18 16  1  0  0  0  0
 18 22  2  0  0  0  0
 19 15  1  0  0  0  0
 20 23  2  0  0  0  0
 21 23  1  0  0  0  0
 21 17  2  0  0  0  0
 22 21  1  0  0  0  0
 23 24  1  0  0  0  0
 24 19  2  0  0  0  0
 24 26  1  0  0  0  0
 26 25  3  0  0  0  0
M  END
>  <MODEL>
6

>  <REMARK>
 VINA RESULT:      -6.7      2.739      6.924
  Name = 
  6 active torsions:
  status: ('A' for Active; 'I' for Inactive)
    1  A    between atoms: C_5  and  N_8
    2  A    between atoms: C_7  and  C_16
    3  A    between atoms: C_7  and  N_23
    4  A    between atoms: O_13  and  N_24
    5  A    between atoms: C_21  and  C_22
    6  A    between atoms: N_24  and  C_25
                            x       y       z     vdW  Elec       q    Type
                         _______ _______ _______ _____ _____    ______ ____

>  <TORSDO>
F 6

$$$$
=
 OpenBabel10222416073D

 26 28  0  0  1  0  0  0  0  0999 V2000
  184.9900  178.7240  141.5370 C   0  0  0  0  0  0  0  0  0  0  0  0
  183.7540  178.0100  141.4260 N   0  0  0  0  0  2  0  0  0  0  0  0
  185.7390  178.6830  142.7540 N   0  0  0  0  0  2  0  0  0  0  0  0
  185.4490  179.3980  140.5340 N   0  0  0  0  0  2  0  0  0  0  0  0
  182.6190  176.5610  139.8360 C   0  0  0  0  0  2  0  0  0  0  0  0
  182.9350  178.0070  140.2230 C   0  0  1  0  0  3  0  0  0  0  0  0
  179.8590  176.8160  139.8820 S   0  0  0  0  0  0  0  0  0  0  0  0
  181.6840  178.8720  140.4310 C   0  0  0  0  0  2  0  0  0  0  0  0
  181.3090  175.1000  138.3230 C   0  0  0  0  0  1  0  0  0  0  0  0
  181.3940  176.4800  138.9380 C   0  0  2  0  0  3  0  0  0  0  0  0
  180.5390  178.0690  141.0430 C   0  0  1  0  0  3  0  0  0  0  0  0
  179.4840  178.9490  141.5370 N   0  0  0  0  0  2  0  0  0  0  0  0
  179.9940  178.2850  143.5450 C   0  0  0  0  0  1  0  0  0  0  0  0
  178.9360  178.3890  142.6450 O   0  0  0  0  0  0  0  0  0  0  0  0
  185.3100  177.9260  143.9210 C   0  0  0  0  0  2  0  0  0  0  0  0
  189.8020  177.4670  147.7240 N   0  0  0  0  0  2  0  0  0  0  0  0
  186.2160  178.4780  146.1910 N   0  0  0  0  0  0  0  0  0  0  0  0
  188.9430  178.1740  148.5370 C   0  0  0  0  0  3  0  0  0  0  0  0
  186.3850  177.9140  144.9610 C   0  0  0  0  0  0  0  0  0  0  0  0
  189.4780  177.1240  146.4700 N   0  0  0  0  0  0  0  0  0  0  0  0
  187.3740  178.2230  146.8250 C   0  0  0  0  0  0  0  0  0  0  0  0
  187.7090  178.5590  148.0890 N   0  0  0  0  0  0  0  0  0  0  0  0
  188.2680  177.4990  146.0070 C   0  0  0  0  0  0  0  0  0  0  0  0
  187.6340  177.2990  144.8130 C   0  0  0  0  0  0  0  0  0  0  0  0
  188.5470  176.0200  142.7470 N   0  0  0  0  0  0  0  0  0  0  0  0
  188.1400  176.5900  143.6680 C   0  0  0  0  0  0  0  0  0  0  0  0
  1  3  1  0  0  0  0
  2  1  1  0  0  0  0
  3 15  1  0  0  0  0
  4  1  2  0  0  0  0
  5  6  1  0  0  0  0
  6  8  1  0  0  0  0
  6  2  1  1  0  0  0
  7 11  1  0  0  0  0
  8 11  1  0  0  0  0
 10  9  1  1  0  0  0
 10  5  1  0  0  0  0
 10  7  1  0  0  0  0
 11 12  1  6  0  0  0
 12 14  1  0  0  0  0
 14 13  1  0  0  0  0
 15 19  1  0  0  0  0
 16 18  1  0  0  0  0
 17 21  2  0  0  0  0
 19 17  1  0  0  0  0
 20 16  1  0  0  0  0
 21 22  1  0  0  0  0
 22 18  2  0  0  0  0
 23 20  2  0  0  0  0
 23 21  1  0  0  0  0
 24 19  2  0  0  0  0
 24 23  1  0  0  0  0
 25 26  3  0  0  0  0
 26 24  1  0  0  0  0
M  END
>  <MODEL>
7

>  <REMARK>
 VINA RESULT:      -6.7      3.619      6.283
  Name = 
  6 active torsions:
  status: ('A' for Active; 'I' for Inactive)
    1  A    between atoms: C_5  and  N_8
    2  A    between atoms: C_7  and  C_16
    3  A    between atoms: C_7  and  N_23
    4  A    between atoms: O_13  and  N_24
    5  A    between atoms: C_21  and  C_22
    6  A    between atoms: N_24  and  C_25
                            x       y       z     vdW  Elec       q    Type
                         _______ _______ _______ _____ _____    ______ ____

>  <TORSDO>
F 6

$$$$
=
 OpenBabel10222416073D

 26 28  0  0  1  0  0  0  0  0999 V2000
  189.1870  176.8540  142.5000 C   0  0  0  0  0  0  0  0  0  0  0  0
  188.2020  177.5110  143.3050 N   0  0  0  0  0  2  0  0  0  0  0  0
  189.5560  177.3920  141.2290 N   0  0  0  0  0  2  0  0  0  0  0  0
  189.7650  175.7770  142.9220 N   0  0  0  0  0  2  0  0  0  0  0  0
  188.6190  177.6880  145.6950 C   0  0  0  0  0  2  0  0  0  0  0  0
  187.7740  177.0220  144.6060 C   0  0  1  0  0  3  0  0  0  0  0  0
  186.5020  178.7920  147.1060 S   0  0  0  0  0  0  0  0  0  0  0  0
  186.2650  177.2390  144.7840 C   0  0  0  0  0  2  0  0  0  0  0  0
  188.9100  178.0040  148.1350 C   0  0  0  0  0  1  0  0  0  0  0  0
  187.9250  177.6370  147.0470 C   0  0  2  0  0  3  0  0  0  0  0  0
  185.9580  178.6200  145.3580 C   0  0  1  0  0  3  0  0  0  0  0  0
  184.5410  178.9450  145.2190 N   0  0  0  0  0  2  0  0  0  0  0  0
  182.7810  178.8990  143.9410 C   0  0  0  0  0  1  0  0  0  0  0  0
  184.1010  178.4640  144.0280 O   0  0  0  0  0  0  0  0  0  0  0  0
  188.9770  178.6150  140.6900 C   0  0  0  0  0  2  0  0  0  0  0  0
  185.0520  177.3170  136.4770 N   0  0  0  0  0  2  0  0  0  0  0  0
  186.5700  178.5460  140.0000 N   0  0  0  0  0  0  0  0  0  0  0  0
  184.1630  177.7880  137.4180 C   0  0  0  0  0  3  0  0  0  0  0  0
  187.8820  178.2950  139.7250 C   0  0  0  0  0  0  0  0  0  0  0  0
  186.3710  177.2580  136.7060 N   0  0  0  0  0  0  0  0  0  0  0  0
  185.9250  178.1600  138.8860 C   0  0  0  0  0  0  0  0  0  0  0  0
  184.5990  178.2190  138.6410 N   0  0  0  0  0  0  0  0  0  0  0  0
  186.8210  177.6730  137.9080 C   0  0  0  0  0  0  0  0  0  0  0  0
  188.0740  177.7610  138.4440 C   0  0  0  0  0  0  0  0  0  0  0  0
  190.3160  177.1150  137.3070 N   0  0  0  0  0  0  0  0  0  0  0  0
  189.3170  177.4030  137.8140 C   0  0  0  0  0  0  0  0  0  0  0  0
  1  4  2  0  0  0  0
  1  2  1  0  0  0  0
  3  1  1  0  0  0  0
  5 10  1  0  0  0  0
  6  2  1  6  0  0  0
  6  8  1  0  0  0  0
  6  5  1  0  0  0  0
  8 11  1  0  0  0  0
 10  7  1  0  0  0  0
 10  9  1  1  0  0  0
 11 12  1  1  0  0  0
 11  7  1  0  0  0  0
 13 14  1  0  0  0  0
 14 12  1  0  0  0  0
 15  3  1  0  0  0  0
 16 20  1  0  0  0  0
 16 18  1  0  0  0  0
 18 22  2  0  0  0  0
 19 17  1  0  0  0  0
 19 15  1  0  0  0  0
 20 23  2  0  0  0  0
 21 17  2  0  0  0  0
 22 21  1  0  0  0  0
 23 24  1  0  0  0  0
 23 21  1  0  0  0  0
 24 19  2  0  0  0  0
 25 26  3  0  0  0  0
 26 24  1  0  0  0  0
M  END
>  <MODEL>
8

>  <REMARK>
 VINA RESULT:      -6.7      2.707      6.894
  Name = 
  6 active torsions:
  status: ('A' for Active; 'I' for Inactive)
    1  A    between atoms: C_5  and  N_8
    2  A    between atoms: C_7  and  C_16
    3  A    between atoms: C_7  and  N_23
    4  A    between atoms: O_13  and  N_24
    5  A    between atoms: C_21  and  C_22
    6  A    between atoms: N_24  and  C_25
                            x       y       z     vdW  Elec       q    Type
                         _______ _______ _______ _____ _____    ______ ____

>  <TORSDO>
F 6

$$$$
=
 OpenBabel10222416073D

 26 28  0  0  1  0  0  0  0  0999 V2000
  188.8360  178.1280  139.5910 C   0  0  0  0  0  0  0  0  0  0  0  0
  188.9510  176.7640  139.1710 N   0  0  0  0  0  2  0  0  0  0  0  0
  188.5190  178.4380  140.9500 N   0  0  0  0  0  2  0  0  0  0  0  0
  189.0330  179.0910  138.7520 N   0  0  0  0  0  2  0  0  0  0  0  0
  190.4280  175.3740  137.8280 C   0  0  0  0  0  2  0  0  0  0  0  0
  189.2670  176.3710  137.8060 C   0  0  1  0  0  3  0  0  0  0  0  0
  189.1110  173.3260  136.5000 S   0  0  0  0  0  0  0  0  0  0  0  0
  188.0110  175.8320  137.1060 C   0  0  0  0  0  2  0  0  0  0  0  0
  191.8010  173.8210  136.4710 C   0  0  0  0  0  1  0  0  0  0  0  0
  190.4770  174.5480  136.5510 C   0  0  2  0  0  3  0  0  0  0  0  0
  187.8290  174.3360  137.3460 C   0  0  1  0  0  3  0  0  0  0  0  0
  186.4880  173.9010  136.9660 N   0  0  0  0  0  2  0  0  0  0  0  0
  184.6930  172.8440  137.5930 C   0  0  0  0  0  1  0  0  0  0  0  0
  186.0440  173.0100  137.8890 O   0  0  0  0  0  0  0  0  0  0  0  0
  188.3110  177.4170  141.9670 C   0  0  0  0  0  2  0  0  0  0  0  0
  184.2790  178.7660  146.0620 N   0  0  0  0  0  0  0  0  0  0  0  0
  185.9850  178.2110  142.4560 N   0  0  0  0  0  0  0  0  0  0  0  0
  183.5010  179.0060  144.9510 C   0  0  0  0  0  3  0  0  0  0  0  0
  187.2150  177.8230  142.8990 C   0  0  0  0  0  0  0  0  0  0  0  0
  185.5550  178.3680  145.9680 N   0  0  0  0  0  0  0  0  0  0  0  0
  185.2940  178.4490  143.5830 C   0  0  0  0  0  0  0  0  0  0  0  0
  184.0080  178.8450  143.6900 N   0  0  0  0  0  2  0  0  0  0  0  0
  186.0760  178.2090  144.7340 C   0  0  0  0  0  0  0  0  0  0  0  0
  187.3060  177.8060  144.2970 C   0  0  0  0  0  0  0  0  0  0  0  0
  189.3430  177.1230  145.7530 N   0  0  0  0  0  0  0  0  0  0  0  0
  188.4350  177.4270  145.1040 C   0  0  0  0  0  0  0  0  0  0  0  0
  1  3  1  0  0  0  0
  2  1  1  0  0  0  0
  3 15  1  0  0  0  0
  4  1  2  0  0  0  0
  6  5  1  0  0  0  0
  6  2  1  1  0  0  0
  7 10  1  0  0  0  0
  7 11  1  0  0  0  0
  8 11  1  0  0  0  0
  8  6  1  0  0  0  0
 10  9  1  1  0  0  0
 10  5  1  0  0  0  0
 11 12  1  6  0  0  0
 12 14  1  0  0  0  0
 13 14  1  0  0  0  0
 15 19  1  0  0  0  0
 17 19  1  0  0  0  0
 17 21  2  0  0  0  0
 18 16  2  0  0  0  0
 19 24  2  0  0  0  0
 20 16  1  0  0  0  0
 21 22  1  0  0  0  0
 21 23  1  0  0  0  0
 22 18  1  0  0  0  0
 23 20  2  0  0  0  0
 24 23  1  0  0  0  0
 24 26  1  0  0  0  0
 26 25  3  0  0  0  0
M  END
>  <MODEL>
9

>  <REMARK>
 VINA RESULT:      -6.6      2.720      3.451
  Name = 
  6 active torsions:
  status: ('A' for Active; 'I' for Inactive)
    1  A    between atoms: C_5  and  N_8
    2  A    between atoms: C_7  and  C_16
    3  A    between atoms: C_7  and  N_23
    4  A    between atoms: O_13  and  N_24
    5  A    between atoms: C_21  and  C_22
    6  A    between atoms: N_24  and  C_25
                            x       y       z     vdW  Elec       q    Type
                         _______ _______ _______ _____ _____    ______ ____

>  <TORSDO>
F 6

$$$$
