=
 OpenBabel10222419463D

 33 38  0  0  1  0  0  0  0  0999 V2000
  186.5590  178.3920  143.2490 C   0  0  1  0  0  3  0  0  0  0  0  0
  188.3580  176.8230  143.4770 C   0  0  2  0  0  0  0  0  0  0  0  0
  187.7550  177.0260  144.7610 C   0  0  2  0  0  3  0  0  0  0  0  0
  186.8270  177.9570  144.6230 C   0  0  2  0  0  3  0  0  0  0  0  0
  189.7660  177.3270  143.7500 C   0  0  1  0  0  3  0  0  0  0  0  0
  187.5060  177.5190  142.4050 C   0  0  2  0  0  3  0  0  0  0  0  0
  184.3030  178.7670  144.7140 S   0  0  0  0  0  0  0  0  0  0  0  0
  188.7770  177.0620  145.8200 C   0  0  2  0  0  3  0  0  0  0  0  0
  188.4960  178.1040  146.9170 C   0  0  1  0  0  3  0  0  0  0  0  0
  190.0070  177.3060  145.1580 O   0  0  0  0  0  0  0  0  0  0  0  0
  187.1780  177.7700  147.6260 C   0  0  0  0  0  2  0  0  0  0  0  0
  185.9380  178.2470  146.9010 C   0  0  0  0  0  3  0  0  0  0  0  0
  185.8010  178.2910  145.5710 C   0  0  0  0  0  0  0  0  0  0  0  0
  189.5460  175.9170  143.2100 C   0  0  0  0  0  2  0  0  0  0  0  0
  185.0510  178.1940  143.1100 C   0  0  1  0  0  3  0  0  0  0  0  0
  189.5340  178.0740  147.8470 O   0  0  0  0  0  1  0  0  0  0  0  0
  184.4780  178.9700  141.9190 C   0  0  1  0  0  3  0  0  0  0  0  0
  185.4820  179.7050  141.2820 O   0  0  0  0  0  1  0  0  0  0  0  0
  183.7820  178.0550  140.9030 C   0  0  0  0  0  2  0  0  0  0  0  0
  181.6580  177.2520  140.1650 O   0  0  0  0  0  1  0  0  0  0  0  0
  182.3000  178.3700  140.7000 C   0  0  1  0  0  3  0  0  0  0  0  0
  181.6280  178.7810  142.0110 C   0  0  0  0  0  2  0  0  0  0  0  0
  180.2600  180.5520  142.8100 O   0  0  0  0  0  1  0  0  0  0  0  0
  180.3670  179.6120  141.7900 C   0  0  0  0  0  0  0  0  0  0  0  0
  179.2400  178.7860  141.8100 O   0  0  0  0  0  1  0  0  0  0  0  0
  180.4370  180.2770  140.5640 O   0  0  0  0  0  1  0  0  0  0  0  0
  188.2840  178.2960  141.3260 C   0  0  0  0  0  2  0  0  0  0  0  0
  190.4100  176.8010  138.5010 C   0  0  0  0  0  2  0  0  0  0  0  0
  189.7760  177.5310  137.4770 O   0  0  0  0  0  0  0  0  0  0  0  0
  188.6180  177.4660  140.0950 C   0  0  0  0  0  3  0  0  0  0  0  0
  187.8850  178.0250  138.8760 C   0  0  0  0  0  2  0  0  0  0  0  0
  190.1280  177.4540  139.8550 C   0  0  0  0  0  2  0  0  0  0  0  0
  188.3930  177.3120  137.6220 C   0  0  0  0  0  2  0  0  0  0  0  0
  1  4  1  0  0  0  0
  2  5  1  0  0  0  0
  2  3  1  0  0  0  0
  3  8  1  0  0  0  0
  4  3  1  0  0  0  0
  4 13  1  0  0  0  0
  5 10  1  0  0  0  0
  6  1  1  0  0  0  0
  6  2  1  0  0  0  0
  7 13  1  0  0  0  0
  8  9  1  0  0  0  0
  9 11  1  0  0  0  0
  9 16  1  0  0  0  0
 10  8  1  0  0  0  0
 12 11  1  0  0  0  0
 13 12  2  0  0  0  0
 14  2  1  0  0  0  0
 14  5  1  0  0  0  0
 15  1  1  0  0  0  0
 15  7  1  0  0  0  0
 17 15  1  0  0  0  0
 18 17  1  0  0  0  0
 19 17  1  0  0  0  0
 20 21  1  0  0  0  0
 21 19  1  0  0  0  0
 21 22  1  0  0  0  0
 24 25  1  0  0  0  0
 24 22  1  0  0  0  0
 24 23  1  0  0  0  0
 26 24  1  0  0  0  0
 27  6  1  0  0  0  0
 28 32  1  0  0  0  0
 29 33  1  0  0  0  0
 29 28  1  0  0  0  0
 30 27  1  0  0  0  0
 31 30  1  0  0  0  0
 32 30  1  0  0  0  0
 33 31  1  0  0  0  0
M  END
>  <MODEL>
1

>  <REMARK>
 VINA RESULT:      -9.0      0.000      0.000
  Name = 
  7 active torsions:
  status: ('A' for Active; 'I' for Inactive)
    1  A    between atoms: C_3  and  C_15
    2  A    between atoms: C_6  and  C_31
    3  A    between atoms: C_6  and  C_32
    4  A    between atoms: C_10  and  C_15
    5  A    between atoms: C_10  and  C_31
    6  A    between atoms: C_11  and  C_12
    7  A    between atoms: C_11  and  C_18
                            x       y       z     vdW  Elec       q    Type
                         _______ _______ _______ _____ _____    ______ ____

>  <TORSDO>
F 7

$$$$
=
 OpenBabel10222419463D

 33 38  0  0  1  0  0  0  0  0999 V2000
  186.4560  178.3940  142.9300 C   0  0  1  0  0  3  0  0  0  0  0  0
  188.2710  176.8750  143.3170 C   0  0  2  0  0  0  0  0  0  0  0  0
  187.5730  177.0860  144.5510 C   0  0  2  0  0  3  0  0  0  0  0  0
  186.6350  177.9910  144.3290 C   0  0  2  0  0  3  0  0  0  0  0  0
  189.6440  177.4200  143.6800 C   0  0  1  0  0  3  0  0  0  0  0  0
  187.4820  177.5310  142.1730 C   0  0  2  0  0  3  0  0  0  0  0  0
  184.0930  178.7380  144.2220 S   0  0  0  0  0  0  0  0  0  0  0  0
  188.5150  177.1670  145.6800 C   0  0  2  0  0  3  0  0  0  0  0  0
  188.1310  178.2220  146.7320 C   0  0  1  0  0  3  0  0  0  0  0  0
  189.7830  177.4300  145.1020 O   0  0  0  0  0  0  0  0  0  0  0  0
  186.7730  177.8680  147.3520 C   0  0  0  0  0  2  0  0  0  0  0  0
  185.5780  178.3000  146.5310 C   0  0  0  0  0  3  0  0  0  0  0  0
  185.5360  178.3160  145.1930 C   0  0  0  0  0  0  0  0  0  0  0  0
  189.4970  175.9950  143.1540 C   0  0  0  0  0  2  0  0  0  0  0  0
  184.9670  178.1560  142.6880 C   0  0  1  0  0  3  0  0  0  0  0  0
  189.1000  178.2350  147.7350 O   0  0  0  0  0  1  0  0  0  0  0  0
  184.4630  178.8950  141.4430 C   0  0  1  0  0  3  0  0  0  0  0  0
  185.4810  179.6760  140.8890 O   0  0  0  0  0  1  0  0  0  0  0  0
  183.9060  177.9400  140.3790 C   0  0  0  0  0  2  0  0  0  0  0  0
  184.6990  177.6180  138.1510 O   0  0  0  0  0  1  0  0  0  0  0  0
  183.9720  178.4950  138.9560 C   0  0  1  0  0  3  0  0  0  0  0  0
  182.5760  178.7060  138.3690 C   0  0  0  0  0  2  0  0  0  0  0  0
  183.1410  180.9710  138.8150 O   0  0  0  0  0  1  0  0  0  0  0  0
  182.0600  180.1280  138.5750 C   0  0  0  0  0  0  0  0  0  0  0  0
  181.1950  180.1690  139.6710 O   0  0  0  0  0  1  0  0  0  0  0  0
  181.3870  180.5650  137.4310 O   0  0  0  0  0  1  0  0  0  0  0  0
  188.3170  178.3070  141.1380 C   0  0  0  0  0  2  0  0  0  0  0  0
  190.6000  176.7680  138.4620 C   0  0  0  0  0  2  0  0  0  0  0  0
  190.0680  177.5280  137.4020 O   0  0  0  0  0  0  0  0  0  0  0  0
  188.7150  177.4770  139.9260 C   0  0  0  0  0  3  0  0  0  0  0  0
  188.0940  178.0700  138.6620 C   0  0  0  0  0  2  0  0  0  0  0  0
  190.2380  177.4180  139.7980 C   0  0  0  0  0  2  0  0  0  0  0  0
  188.6710  177.3520  137.4410 C   0  0  0  0  0  2  0  0  0  0  0  0
  1  4  1  0  0  0  0
  2  5  1  0  0  0  0
  2  3  1  0  0  0  0
  3  8  1  0  0  0  0
  4  3  1  0  0  0  0
  4 13  1  0  0  0  0
  5 10  1  0  0  0  0
  6  1  1  0  0  0  0
  6  2  1  0  0  0  0
  7 13  1  0  0  0  0
  8  9  1  0  0  0  0
  9 11  1  0  0  0  0
  9 16  1  0  0  0  0
 10  8  1  0  0  0  0
 12 11  1  0  0  0  0
 13 12  2  0  0  0  0
 14  2  1  0  0  0  0
 14  5  1  0  0  0  0
 15  1  1  0  0  0  0
 15  7  1  0  0  0  0
 17 15  1  0  0  0  0
 18 17  1  0  0  0  0
 19 17  1  0  0  0  0
 20 21  1  0  0  0  0
 21 19  1  0  0  0  0
 22 24  1  0  0  0  0
 22 21  1  0  0  0  0
 24 23  1  0  0  0  0
 24 25  1  0  0  0  0
 26 24  1  0  0  0  0
 27  6  1  0  0  0  0
 28 32  1  0  0  0  0
 29 33  1  0  0  0  0
 29 28  1  0  0  0  0
 30 27  1  0  0  0  0
 31 30  1  0  0  0  0
 32 30  1  0  0  0  0
 33 31  1  0  0  0  0
M  END
>  <MODEL>
2

>  <REMARK>
 VINA RESULT:      -9.0      1.344      1.704
  Name = 
  7 active torsions:
  status: ('A' for Active; 'I' for Inactive)
    1  A    between atoms: C_3  and  C_15
    2  A    between atoms: C_6  and  C_31
    3  A    between atoms: C_6  and  C_32
    4  A    between atoms: C_10  and  C_15
    5  A    between atoms: C_10  and  C_31
    6  A    between atoms: C_11  and  C_12
    7  A    between atoms: C_11  and  C_18
                            x       y       z     vdW  Elec       q    Type
                         _______ _______ _______ _____ _____    ______ ____

>  <TORSDO>
F 7

$$$$
=
 OpenBabel10222419463D

 33 38  0  0  1  0  0  0  0  0999 V2000
  185.7970  178.5780  142.6660 C   0  0  1  0  0  3  0  0  0  0  0  0
  187.5200  177.1240  143.4820 C   0  0  2  0  0  0  0  0  0  0  0  0
  186.5950  177.3870  144.5450 C   0  0  2  0  0  3  0  0  0  0  0  0
  185.7080  178.2570  144.0940 C   0  0  2  0  0  3  0  0  0  0  0  0
  188.7910  177.7180  144.0680 C   0  0  1  0  0  3  0  0  0  0  0  0
  186.9590  177.6970  142.1720 C   0  0  2  0  0  3  0  0  0  0  0  0
  183.2260  178.9410  143.4600 S   0  0  0  0  0  0  0  0  0  0  0  0
  187.3020  177.5500  145.8260 C   0  0  2  0  0  3  0  0  0  0  0  0
  186.7100  178.6520  146.7220 C   0  0  1  0  0  3  0  0  0  0  0  0
  188.6540  177.8090  145.4880 O   0  0  0  0  0  0  0  0  0  0  0  0
  185.2630  178.3030  147.0900 C   0  0  0  0  0  2  0  0  0  0  0  0
  184.2430  178.6630  146.0320 C   0  0  0  0  0  3  0  0  0  0  0  0
  184.4600  178.6050  144.7120 C   0  0  0  0  0  0  0  0  0  0  0  0
  188.7640  176.2630  143.6080 C   0  0  0  0  0  2  0  0  0  0  0  0
  184.3850  178.2950  142.1580 C   0  0  1  0  0  3  0  0  0  0  0  0
  187.4680  178.7420  147.8890 O   0  0  0  0  0  1  0  0  0  0  0  0
  184.1220  178.9530  140.7990 C   0  0  1  0  0  3  0  0  0  0  0  0
  185.2510  179.6530  140.3650 O   0  0  0  0  0  1  0  0  0  0  0  0
  183.6980  177.9390  139.7280 C   0  0  0  0  0  2  0  0  0  0  0  0
  182.0790  177.6310  138.0010 O   0  0  0  0  0  1  0  0  0  0  0  0
  182.2270  178.0440  139.3250 C   0  0  1  0  0  3  0  0  0  0  0  0
  181.3320  177.2040  140.2380 C   0  0  0  0  0  2  0  0  0  0  0  0
  179.1810  178.0930  139.7590 O   0  0  0  0  0  1  0  0  0  0  0  0
  180.1330  177.9860  140.7680 C   0  0  0  0  0  0  0  0  0  0  0  0
  180.5310  179.2670  141.1580 O   0  0  0  0  0  1  0  0  0  0  0  0
  179.5670  177.3200  141.8580 O   0  0  0  0  0  1  0  0  0  0  0  0
  187.9690  178.4340  141.2720 C   0  0  0  0  0  2  0  0  0  0  0  0
  190.6360  176.6650  139.1510 C   0  0  0  0  0  2  0  0  0  0  0  0
  190.4390  177.4740  138.0150 O   0  0  0  0  0  0  0  0  0  0  0  0
  188.5480  177.5660  140.1640 C   0  0  0  0  0  3  0  0  0  0  0  0
  188.2950  178.2190  138.8050 C   0  0  0  0  0  2  0  0  0  0  0  0
  190.0460  177.3500  140.3850 C   0  0  0  0  0  2  0  0  0  0  0  0
  189.0600  177.4440  137.7320 C   0  0  0  0  0  2  0  0  0  0  0  0
  1  4  1  0  0  0  0
  2 14  1  0  0  0  0
  2  5  1  0  0  0  0
  2  3  1  0  0  0  0
  3  8  1  0  0  0  0
  4  3  1  0  0  0  0
  4 13  1  0  0  0  0
  5 10  1  0  0  0  0
  6  1  1  0  0  0  0
  6  2  1  0  0  0  0
  7 13  1  0  0  0  0
  8  9  1  0  0  0  0
  9 11  1  0  0  0  0
  9 16  1  0  0  0  0
 10  8  1  0  0  0  0
 12 11  1  0  0  0  0
 13 12  2  0  0  0  0
 14  5  1  0  0  0  0
 15  1  1  0  0  0  0
 15  7  1  0  0  0  0
 17 15  1  0  0  0  0
 18 17  1  0  0  0  0
 19 17  1  0  0  0  0
 20 21  1  0  0  0  0
 21 19  1  0  0  0  0
 21 22  1  0  0  0  0
 22 24  1  0  0  0  0
 23 24  1  0  0  0  0
 24 25  1  0  0  0  0
 24 26  1  0  0  0  0
 27  6  1  0  0  0  0
 28 32  1  0  0  0  0
 29 28  1  0  0  0  0
 30 32  1  0  0  0  0
 30 27  1  0  0  0  0
 31 30  1  0  0  0  0
 33 29  1  0  0  0  0
 33 31  1  0  0  0  0
M  END
>  <MODEL>
3

>  <REMARK>
 VINA RESULT:      -8.8      1.282      1.629
  Name = 
  7 active torsions:
  status: ('A' for Active; 'I' for Inactive)
    1  A    between atoms: C_3  and  C_15
    2  A    between atoms: C_6  and  C_31
    3  A    between atoms: C_6  and  C_32
    4  A    between atoms: C_10  and  C_15
    5  A    between atoms: C_10  and  C_31
    6  A    between atoms: C_11  and  C_12
    7  A    between atoms: C_11  and  C_18
                            x       y       z     vdW  Elec       q    Type
                         _______ _______ _______ _____ _____    ______ ____

>  <TORSDO>
F 7

$$$$
=
 OpenBabel10222419463D

 33 38  0  0  1  0  0  0  0  0999 V2000
  186.6590  178.3720  143.0490 C   0  0  1  0  0  3  0  0  0  0  0  0
  188.4590  176.8040  143.2830 C   0  0  2  0  0  0  0  0  0  0  0  0
  187.8420  176.9950  144.5630 C   0  0  2  0  0  3  0  0  0  0  0  0
  186.9140  177.9260  144.4230 C   0  0  2  0  0  3  0  0  0  0  0  0
  189.8630  177.3090  143.5750 C   0  0  1  0  0  3  0  0  0  0  0  0
  187.6170  177.5090  142.2080 C   0  0  2  0  0  3  0  0  0  0  0  0
  184.3880  178.7300  144.4930 S   0  0  0  0  0  0  0  0  0  0  0  0
  188.8530  177.0240  145.6330 C   0  0  2  0  0  3  0  0  0  0  0  0
  188.5590  178.0570  146.7350 C   0  0  1  0  0  3  0  0  0  0  0  0
  190.0890  177.2760  144.9860 O   0  0  0  0  0  0  0  0  0  0  0  0
  187.2330  177.7150  147.4270 C   0  0  0  0  0  2  0  0  0  0  0  0
  186.0010  178.1950  146.6940 C   0  0  0  0  0  3  0  0  0  0  0  0
  185.8780  178.2510  145.3620 C   0  0  0  0  0  0  0  0  0  0  0  0
  189.6520  175.9030  143.0210 C   0  0  0  0  0  2  0  0  0  0  0  0
  185.1530  178.1730  142.8930 C   0  0  1  0  0  3  0  0  0  0  0  0
  189.5870  178.0210  147.6760 O   0  0  0  0  0  1  0  0  0  0  0  0
  184.5920  178.9580  141.7030 C   0  0  1  0  0  3  0  0  0  0  0  0
  185.5960  179.7180  141.0970 O   0  0  0  0  0  1  0  0  0  0  0  0
  183.9310  178.0470  140.6590 C   0  0  0  0  0  2  0  0  0  0  0  0
  181.8500  178.8080  141.5500 O   0  0  0  0  0  1  0  0  0  0  0  0
  182.4700  178.3970  140.3700 C   0  0  1  0  0  3  0  0  0  0  0  0
  182.3540  179.4930  139.3090 C   0  0  0  0  0  2  0  0  0  0  0  0
  182.5940  178.2090  137.3240 O   0  0  0  0  0  1  0  0  0  0  0  0
  181.6900  179.0010  138.0260 C   0  0  0  0  0  0  0  0  0  0  0  0
  181.3230  180.0890  137.2300 O   0  0  0  0  0  1  0  0  0  0  0  0
  180.5590  178.2410  138.3290 O   0  0  0  0  0  1  0  0  0  0  0  0
  188.4050  178.2960  141.1440 C   0  0  0  0  0  2  0  0  0  0  0  0
  190.5530  176.8410  138.3150 C   0  0  0  0  0  2  0  0  0  0  0  0
  189.9160  177.5730  137.2940 O   0  0  0  0  0  0  0  0  0  0  0  0
  188.7500  177.4770  139.9080 C   0  0  0  0  0  3  0  0  0  0  0  0
  188.0160  178.0390  138.6910 C   0  0  0  0  0  2  0  0  0  0  0  0
  190.2610  177.4810  139.6720 C   0  0  0  0  0  2  0  0  0  0  0  0
  188.5340  177.3400  137.4330 C   0  0  0  0  0  2  0  0  0  0  0  0
  1  4  1  0  0  0  0
  2  5  1  0  0  0  0
  2  3  1  0  0  0  0
  3  8  1  0  0  0  0
  4  3  1  0  0  0  0
  4 13  1  0  0  0  0
  5 10  1  0  0  0  0
  6  1  1  0  0  0  0
  6  2  1  0  0  0  0
  7 13  1  0  0  0  0
  8  9  1  0  0  0  0
  9 11  1  0  0  0  0
  9 16  1  0  0  0  0
 10  8  1  0  0  0  0
 12 11  1  0  0  0  0
 13 12  2  0  0  0  0
 14  2  1  0  0  0  0
 14  5  1  0  0  0  0
 15  1  1  0  0  0  0
 15  7  1  0  0  0  0
 17 15  1  0  0  0  0
 18 17  1  0  0  0  0
 19 17  1  0  0  0  0
 21 19  1  0  0  0  0
 21 20  1  0  0  0  0
 22 21  1  0  0  0  0
 23 24  1  0  0  0  0
 24 26  1  0  0  0  0
 24 22  1  0  0  0  0
 25 24  1  0  0  0  0
 27  6  1  0  0  0  0
 28 32  1  0  0  0  0
 29 33  1  0  0  0  0
 29 28  1  0  0  0  0
 30 27  1  0  0  0  0
 31 30  1  0  0  0  0
 32 30  1  0  0  0  0
 33 31  1  0  0  0  0
M  END
>  <MODEL>
4

>  <REMARK>
 VINA RESULT:      -8.6      1.159      1.806
  Name = 
  7 active torsions:
  status: ('A' for Active; 'I' for Inactive)
    1  A    between atoms: C_3  and  C_15
    2  A    between atoms: C_6  and  C_31
    3  A    between atoms: C_6  and  C_32
    4  A    between atoms: C_10  and  C_15
    5  A    between atoms: C_10  and  C_31
    6  A    between atoms: C_11  and  C_12
    7  A    between atoms: C_11  and  C_18
                            x       y       z     vdW  Elec       q    Type
                         _______ _______ _______ _____ _____    ______ ____

>  <TORSDO>
F 7

$$$$
=
 OpenBabel10222419463D

 33 38  0  0  1  0  0  0  0  0999 V2000
  188.4270  177.4240  143.8960 C   0  0  1  0  0  3  0  0  0  0  0  0
  188.0650  178.1310  146.1590 C   0  0  2  0  0  0  0  0  0  0  0  0
  189.4260  177.7030  146.0200 C   0  0  2  0  0  3  0  0  0  0  0  0
  189.5740  177.2380  144.7910 C   0  0  2  0  0  3  0  0  0  0  0  0
  187.5640  177.1300  147.1890 C   0  0  1  0  0  3  0  0  0  0  0  0
  187.4060  178.1730  144.7720 C   0  0  2  0  0  3  0  0  0  0  0  0
  190.6790  177.3260  142.3820 S   0  0  0  0  0  0  0  0  0  0  0  0
  189.8680  176.9650  147.2160 C   0  0  2  0  0  3  0  0  0  0  0  0
  190.7720  175.7610  146.9010 C   0  0  1  0  0  3  0  0  0  0  0  0
  188.6820  176.5780  147.8880 O   0  0  0  0  0  0  0  0  0  0  0  0
  192.0550  176.2390  146.2110 C   0  0  0  0  0  2  0  0  0  0  0  0
  191.9160  176.4810  144.7250 C   0  0  0  0  0  3  0  0  0  0  0  0
  190.8140  176.9510  144.1280 C   0  0  0  0  0  0  0  0  0  0  0  0
  187.4400  178.6280  147.4500 C   0  0  0  0  0  2  0  0  0  0  0  0
  189.0380  178.1420  142.6940 C   0  0  1  0  0  3  0  0  0  0  0  0
  191.1060  175.1210  148.0940 O   0  0  0  0  0  1  0  0  0  0  0  0
  188.1320  178.0650  141.4600 C   0  0  1  0  0  3  0  0  0  0  0  0
  187.8560  179.3450  140.9720 O   0  0  0  0  0  1  0  0  0  0  0  0
  188.7370  177.2050  140.3420 C   0  0  0  0  0  2  0  0  0  0  0  0
  190.1400  177.8990  138.5390 O   0  0  0  0  0  1  0  0  0  0  0  0
  188.8200  177.9160  138.9910 C   0  0  1  0  0  3  0  0  0  0  0  0
  187.9040  177.2630  137.9550 C   0  0  0  0  0  2  0  0  0  0  0  0
  185.9990  178.6280  138.3490 O   0  0  0  0  0  1  0  0  0  0  0  0
  186.8980  178.2440  137.3590 C   0  0  0  0  0  0  0  0  0  0  0  0
  186.1950  177.6340  136.3160 O   0  0  0  0  0  1  0  0  0  0  0  0
  187.5570  179.3780  136.8780 O   0  0  0  0  0  1  0  0  0  0  0  0
  185.9740  177.6130  144.6890 C   0  0  0  0  0  2  0  0  0  0  0  0
  182.6630  179.3610  143.8400 C   0  0  0  0  0  2  0  0  0  0  0  0
  182.4560  178.6460  142.6440 O   0  0  0  0  0  0  0  0  0  0  0  0
  185.0030  178.5190  143.9460 C   0  0  0  0  0  3  0  0  0  0  0  0
  184.7630  177.9800  142.5360 C   0  0  0  0  0  2  0  0  0  0  0  0
  183.6840  178.6280  144.7120 C   0  0  0  0  0  2  0  0  0  0  0  0
  183.6340  178.7800  141.8850 C   0  0  0  0  0  2  0  0  0  0  0  0
  1  6  1  0  0  0  0
  1  4  1  0  0  0  0
  2  5  1  0  0  0  0
  2 14  1  0  0  0  0
  3  2  1  0  0  0  0
  3  8  1  0  0  0  0
  4  3  1  0  0  0  0
  5 14  1  0  0  0  0
  5 10  1  0  0  0  0
  6  2  1  0  0  0  0
  7 15  1  0  0  0  0
  7 13  1  0  0  0  0
  8 10  1  0  0  0  0
  9  8  1  0  0  0  0
  9 16  1  0  0  0  0
 11  9  1  0  0  0  0
 12 11  1  0  0  0  0
 13 12  2  0  0  0  0
 13  4  1  0  0  0  0
 15  1  1  0  0  0  0
 17 15  1  0  0  0  0
 18 17  1  0  0  0  0
 19 17  1  0  0  0  0
 20 21  1  0  0  0  0
 21 19  1  0  0  0  0
 22 21  1  0  0  0  0
 24 22  1  0  0  0  0
 24 23  1  0  0  0  0
 25 24  1  0  0  0  0
 26 24  1  0  0  0  0
 27  6  1  0  0  0  0
 28 32  1  0  0  0  0
 29 28  1  0  0  0  0
 30 27  1  0  0  0  0
 30 32  1  0  0  0  0
 31 30  1  0  0  0  0
 33 31  1  0  0  0  0
 33 29  1  0  0  0  0
M  END
>  <MODEL>
5

>  <REMARK>
 VINA RESULT:      -8.6      2.234      5.838
  Name = 
  7 active torsions:
  status: ('A' for Active; 'I' for Inactive)
    1  A    between atoms: C_3  and  C_15
    2  A    between atoms: C_6  and  C_31
    3  A    between atoms: C_6  and  C_32
    4  A    between atoms: C_10  and  C_15
    5  A    between atoms: C_10  and  C_31
    6  A    between atoms: C_11  and  C_12
    7  A    between atoms: C_11  and  C_18
                            x       y       z     vdW  Elec       q    Type
                         _______ _______ _______ _____ _____    ______ ____

>  <TORSDO>
F 7

$$$$
=
 OpenBabel10222419463D

 33 38  0  0  1  0  0  0  0  0999 V2000
  186.0660  178.6020  142.4280 C   0  0  1  0  0  3  0  0  0  0  0  0
  187.6770  177.0980  143.3730 C   0  0  2  0  0  0  0  0  0  0  0  0
  186.6600  177.3600  144.3490 C   0  0  2  0  0  3  0  0  0  0  0  0
  185.8360  178.2570  143.8340 C   0  0  2  0  0  3  0  0  0  0  0  0
  188.8970  177.6550  144.0890 C   0  0  1  0  0  3  0  0  0  0  0  0
  187.2540  177.7070  142.0280 C   0  0  2  0  0  3  0  0  0  0  0  0
  183.4380  179.0020  142.9820 S   0  0  0  0  0  0  0  0  0  0  0  0
  187.2450  177.4860  145.6940 C   0  0  2  0  0  3  0  0  0  0  0  0
  186.5910  178.5820  146.5530 C   0  0  1  0  0  3  0  0  0  0  0  0
  188.6270  177.7230  145.4910 O   0  0  0  0  0  0  0  0  0  0  0  0
  185.1090  178.2560  146.7750 C   0  0  0  0  0  2  0  0  0  0  0  0
  184.2020  178.6560  145.6320 C   0  0  0  0  0  3  0  0  0  0  0  0
  184.5410  178.6180  144.3380 C   0  0  0  0  0  0  0  0  0  0  0  0
  188.8870  176.2100  143.5990 C   0  0  0  0  0  2  0  0  0  0  0  0
  184.7040  178.3570  141.7830 C   0  0  1  0  0  3  0  0  0  0  0  0
  187.2360  178.6350  147.7880 O   0  0  0  0  0  1  0  0  0  0  0  0
  184.5830  179.0460  140.4190 C   0  0  1  0  0  3  0  0  0  0  0  0
  185.4550  178.4630  139.4950 O   0  0  0  0  0  1  0  0  0  0  0  0
  183.1500  179.0140  139.8710 C   0  0  0  0  0  2  0  0  0  0  0  0
  181.5920  177.2340  140.1910 O   0  0  0  0  0  1  0  0  0  0  0  0
  182.6900  177.6260  139.4250 C   0  0  1  0  0  3  0  0  0  0  0  0
  182.3250  177.6040  137.9400 C   0  0  0  0  0  2  0  0  0  0  0  0
  184.1190  177.2690  136.4170 O   0  0  0  0  0  1  0  0  0  0  0  0
  183.1470  176.5910  137.1470 C   0  0  0  0  0  0  0  0  0  0  0  0
  182.3210  175.8900  136.2650 O   0  0  0  0  0  1  0  0  0  0  0  0
  183.7740  175.6950  138.0150 O   0  0  0  0  0  1  0  0  0  0  0  0
  188.3570  178.4390  141.2430 C   0  0  0  0  0  2  0  0  0  0  0  0
  190.7910  176.4580  139.0300 C   0  0  0  0  0  2  0  0  0  0  0  0
  190.9490  177.4860  138.0790 O   0  0  0  0  0  0  0  0  0  0  0  0
  188.8590  177.6700  140.0290 C   0  0  0  0  0  3  0  0  0  0  0  0
  188.9560  178.6040  138.8240 C   0  0  0  0  0  2  0  0  0  0  0  0
  190.2180  177.0350  140.3260 C   0  0  0  0  0  2  0  0  0  0  0  0
  189.6540  177.8680  137.6800 C   0  0  0  0  0  2  0  0  0  0  0  0
  1  4  1  0  0  0  0
  2 14  1  0  0  0  0
  2  5  1  0  0  0  0
  2  3  1  0  0  0  0
  3  8  1  0  0  0  0
  4 13  1  0  0  0  0
  4  3  1  0  0  0  0
  5 10  1  0  0  0  0
  6  1  1  0  0  0  0
  6  2  1  0  0  0  0
  7 13  1  0  0  0  0
  8  9  1  0  0  0  0
  9 11  1  0  0  0  0
  9 16  1  0  0  0  0
 10  8  1  0  0  0  0
 12 11  1  0  0  0  0
 13 12  2  0  0  0  0
 14  5  1  0  0  0  0
 15  1  1  0  0  0  0
 15  7  1  0  0  0  0
 17 15  1  0  0  0  0
 18 17  1  0  0  0  0
 19 17  1  0  0  0  0
 21 19  1  0  0  0  0
 21 20  1  0  0  0  0
 22 21  1  0  0  0  0
 23 24  1  0  0  0  0
 24 22  1  0  0  0  0
 24 26  1  0  0  0  0
 25 24  1  0  0  0  0
 27  6  1  0  0  0  0
 28 32  1  0  0  0  0
 29 28  1  0  0  0  0
 30 32  1  0  0  0  0
 30 27  1  0  0  0  0
 31 30  1  0  0  0  0
 33 29  1  0  0  0  0
 33 31  1  0  0  0  0
M  END
>  <MODEL>
6

>  <REMARK>
 VINA RESULT:      -8.5      1.866      2.852
  Name = 
  7 active torsions:
  status: ('A' for Active; 'I' for Inactive)
    1  A    between atoms: C_3  and  C_15
    2  A    between atoms: C_6  and  C_31
    3  A    between atoms: C_6  and  C_32
    4  A    between atoms: C_10  and  C_15
    5  A    between atoms: C_10  and  C_31
    6  A    between atoms: C_11  and  C_12
    7  A    between atoms: C_11  and  C_18
                            x       y       z     vdW  Elec       q    Type
                         _______ _______ _______ _____ _____    ______ ____

>  <TORSDO>
F 7

$$$$
=
 OpenBabel10222419463D

 33 38  0  0  1  0  0  0  0  0999 V2000
  188.4550  178.2150  142.2140 C   0  0  1  0  0  3  0  0  0  0  0  0
  187.6330  177.3890  144.3100 C   0  0  2  0  0  0  0  0  0  0  0  0
  186.5180  177.6640  143.4520 C   0  0  2  0  0  3  0  0  0  0  0  0
  186.9940  178.1990  142.3400 C   0  0  2  0  0  3  0  0  0  0  0  0
  187.3550  178.3620  145.4460 C   0  0  1  0  0  3  0  0  0  0  0  0
  188.9340  177.5280  143.5060 C   0  0  2  0  0  3  0  0  0  0  0  0
  187.3870  178.1620  139.7180 S   0  0  0  0  0  0  0  0  0  0  0  0
  185.4040  178.2540  144.2130 C   0  0  2  0  0  3  0  0  0  0  0  0
  184.6560  179.3640  143.4560 C   0  0  1  0  0  3  0  0  0  0  0  0
  185.9730  178.7250  145.4230 O   0  0  0  0  0  0  0  0  0  0  0  0
  184.0280  178.7910  142.1790 C   0  0  0  0  0  2  0  0  0  0  0  0
  184.9790  178.6800  141.0080 C   0  0  0  0  0  3  0  0  0  0  0  0
  186.2820  178.3870  141.1080 C   0  0  0  0  0  0  0  0  0  0  0  0
  187.5250  176.8730  145.7340 C   0  0  0  0  0  2  0  0  0  0  0  0
  188.6950  177.5230  140.8750 C   0  0  1  0  0  3  0  0  0  0  0  0
  183.6460  179.8700  144.2740 O   0  0  0  0  0  1  0  0  0  0  0  0
  190.1020  177.7970  140.3320 C   0  0  1  0  0  3  0  0  0  0  0  0
  191.0530  177.0450  141.0280 O   0  0  0  0  0  1  0  0  0  0  0  0
  190.2170  177.5130  138.8280 C   0  0  0  0  0  2  0  0  0  0  0  0
  190.1000  175.2190  138.1810 O   0  0  0  0  0  1  0  0  0  0  0  0
  190.9960  176.2400  138.4970 C   0  0  1  0  0  3  0  0  0  0  0  0
  191.9670  176.4600  137.3370 C   0  0  0  0  0  2  0  0  0  0  0  0
  194.2590  176.6630  136.7410 O   0  0  0  0  0  1  0  0  0  0  0  0
  193.4110  176.1320  137.7090 C   0  0  0  0  0  0  0  0  0  0  0  0
  193.5890  174.7480  137.7610 O   0  0  0  0  0  1  0  0  0  0  0  0
  193.7280  176.6920  138.9480 O   0  0  0  0  0  1  0  0  0  0  0  0
  190.0900  178.2570  144.2150 C   0  0  0  0  0  2  0  0  0  0  0  0
  192.1640  175.0370  144.4880 C   0  0  0  0  0  2  0  0  0  0  0  0
  191.8480  174.8070  145.8410 O   0  0  0  0  0  0  0  0  0  0  0  0
  191.2210  177.3350  144.6500 C   0  0  0  0  0  3  0  0  0  0  0  0
  191.1370  177.0810  146.1550 C   0  0  0  0  0  2  0  0  0  0  0  0
  191.1590  176.0150  143.8790 C   0  0  0  0  0  2  0  0  0  0  0  0
  192.1460  175.9970  146.5330 C   0  0  0  0  0  2  0  0  0  0  0  0
  1  4  1  0  0  0  0
  1  6  1  0  0  0  0
  2  5  1  0  0  0  0
  2 14  1  0  0  0  0
  3  8  1  0  0  0  0
  3  2  1  0  0  0  0
  4  3  1  0  0  0  0
  5 14  1  0  0  0  0
  6 27  1  0  0  0  0
  6  2  1  0  0  0  0
  7 15  1  0  0  0  0
  7 13  1  0  0  0  0
  8 10  1  0  0  0  0
  9  8  1  0  0  0  0
  9 16  1  0  0  0  0
 10  5  1  0  0  0  0
 11  9  1  0  0  0  0
 12 13  2  0  0  0  0
 12 11  1  0  0  0  0
 13  4  1  0  0  0  0
 15  1  1  0  0  0  0
 17 15  1  0  0  0  0
 17 18  1  0  0  0  0
 19 17  1  0  0  0  0
 20 21  1  0  0  0  0
 21 19  1  0  0  0  0
 22 24  1  0  0  0  0
 22 21  1  0  0  0  0
 23 24  1  0  0  0  0
 24 25  1  0  0  0  0
 24 26  1  0  0  0  0
 27 30  1  0  0  0  0
 28 29  1  0  0  0  0
 29 33  1  0  0  0  0
 30 31  1  0  0  0  0
 31 33  1  0  0  0  0
 32 28  1  0  0  0  0
 32 30  1  0  0  0  0
M  END
>  <MODEL>
7

>  <REMARK>
 VINA RESULT:      -8.5      2.691      7.667
  Name = 
  7 active torsions:
  status: ('A' for Active; 'I' for Inactive)
    1  A    between atoms: C_3  and  C_15
    2  A    between atoms: C_6  and  C_31
    3  A    between atoms: C_6  and  C_32
    4  A    between atoms: C_10  and  C_15
    5  A    between atoms: C_10  and  C_31
    6  A    between atoms: C_11  and  C_12
    7  A    between atoms: C_11  and  C_18
                            x       y       z     vdW  Elec       q    Type
                         _______ _______ _______ _____ _____    ______ ____

>  <TORSDO>
F 7

$$$$
=
 OpenBabel10222419463D

 33 38  0  0  1  0  0  0  0  0999 V2000
  186.8750  177.7000  142.3750 C   0  0  1  0  0  3  0  0  0  0  0  0
  189.0790  177.9090  143.2970 C   0  0  2  0  0  0  0  0  0  0  0  0
  189.1490  178.1150  141.8810 C   0  0  2  0  0  3  0  0  0  0  0  0
  187.9400  177.9080  141.3880 C   0  0  2  0  0  3  0  0  0  0  0  0
  189.9550  176.6740  143.4410 C   0  0  1  0  0  3  0  0  0  0  0  0
  187.6050  177.8370  143.7240 C   0  0  2  0  0  3  0  0  0  0  0  0
  185.7600  178.7430  140.1300 S   0  0  0  0  0  0  0  0  0  0  0  0
  190.3610  177.4940  141.3200 C   0  0  2  0  0  3  0  0  0  0  0  0
  190.1390  176.8300  139.9500 C   0  0  1  0  0  3  0  0  0  0  0  0
  190.8020  176.5650  142.2960 O   0  0  0  0  0  0  0  0  0  0  0  0
  189.7030  177.8840  138.9250 C   0  0  0  0  0  2  0  0  0  0  0  0
  188.2290  178.2220  138.9630 C   0  0  0  0  0  3  0  0  0  0  0  0
  187.4800  178.2530  140.0720 C   0  0  0  0  0  0  0  0  0  0  0  0
  190.2700  177.9370  144.2380 C   0  0  0  0  0  2  0  0  0  0  0  0
  185.8340  178.7480  141.9880 C   0  0  1  0  0  3  0  0  0  0  0  0
  191.3360  176.2520  139.5280 O   0  0  0  0  0  1  0  0  0  0  0  0
  184.4620  178.4460  142.6010 C   0  0  1  0  0  3  0  0  0  0  0  0
  183.9730  179.5620  143.2860 O   0  0  0  0  0  1  0  0  0  0  0  0
  183.4370  177.9930  141.5530 C   0  0  0  0  0  2  0  0  0  0  0  0
  182.0980  179.3250  140.0930 O   0  0  0  0  0  1  0  0  0  0  0  0
  182.2320  178.9250  141.4230 C   0  0  1  0  0  3  0  0  0  0  0  0
  180.9450  178.2490  141.8980 C   0  0  0  0  0  2  0  0  0  0  0  0
  180.9070  178.6080  144.2470 O   0  0  0  0  0  1  0  0  0  0  0  0
  180.2870  178.9880  143.0600 C   0  0  0  0  0  0  0  0  0  0  0  0
  178.9310  178.6620  143.1290 O   0  0  0  0  0  1  0  0  0  0  0  0
  180.4290  180.3680  142.8960 O   0  0  0  0  0  1  0  0  0  0  0  0
  187.2520  176.7400  144.7450 C   0  0  0  0  0  2  0  0  0  0  0  0
  185.8540  179.2260  147.3160 C   0  0  0  0  0  2  0  0  0  0  0  0
  187.0940  179.4600  147.9410 O   0  0  0  0  0  0  0  0  0  0  0  0
  186.8230  177.2810  146.1020 C   0  0  0  0  0  3  0  0  0  0  0  0
  188.0470  177.4640  147.0000 C   0  0  0  0  0  2  0  0  0  0  0  0
  186.0770  178.6060  145.9360 C   0  0  0  0  0  2  0  0  0  0  0  0
  187.6230  178.1980  148.2720 C   0  0  0  0  0  2  0  0  0  0  0  0
  1  6  1  0  0  0  0
  2  5  1  0  0  0  0
  2  6  1  0  0  0  0
  2 14  1  0  0  0  0
  3  2  1  0  0  0  0
  4  3  1  0  0  0  0
  4  1  1  0  0  0  0
  5 14  1  0  0  0  0
  6 27  1  0  0  0  0
  7 15  1  0  0  0  0
  8  3  1  0  0  0  0
  8 10  1  0  0  0  0
  9  8  1  0  0  0  0
 10  5  1  0  0  0  0
 11 12  1  0  0  0  0
 11  9  1  0  0  0  0
 12 13  2  0  0  0  0
 13  7  1  0  0  0  0
 13  4  1  0  0  0  0
 15  1  1  0  0  0  0
 15 17  1  0  0  0  0
 16  9  1  0  0  0  0
 17 18  1  0  0  0  0
 19 17  1  0  0  0  0
 20 21  1  0  0  0  0
 21 19  1  0  0  0  0
 21 22  1  0  0  0  0
 22 24  1  0  0  0  0
 24 25  1  0  0  0  0
 24 23  1  0  0  0  0
 26 24  1  0  0  0  0
 27 30  1  0  0  0  0
 28 29  1  0  0  0  0
 29 33  1  0  0  0  0
 30 31  1  0  0  0  0
 31 33  1  0  0  0  0
 32 30  1  0  0  0  0
 32 28  1  0  0  0  0
M  END
>  <MODEL>
8

>  <REMARK>
 VINA RESULT:      -8.4      1.656      5.361
  Name = 
  7 active torsions:
  status: ('A' for Active; 'I' for Inactive)
    1  A    between atoms: C_3  and  C_15
    2  A    between atoms: C_6  and  C_31
    3  A    between atoms: C_6  and  C_32
    4  A    between atoms: C_10  and  C_15
    5  A    between atoms: C_10  and  C_31
    6  A    between atoms: C_11  and  C_12
    7  A    between atoms: C_11  and  C_18
                            x       y       z     vdW  Elec       q    Type
                         _______ _______ _______ _____ _____    ______ ____

>  <TORSDO>
F 7

$$$$
=
 OpenBabel10222419463D

 33 38  0  0  1  0  0  0  0  0999 V2000
  185.6850  178.5670  142.0780 C   0  0  1  0  0  3  0  0  0  0  0  0
  187.3320  177.2420  143.2100 C   0  0  2  0  0  0  0  0  0  0  0  0
  186.2570  177.5160  144.1160 C   0  0  2  0  0  3  0  0  0  0  0  0
  185.4080  178.3180  143.4970 C   0  0  2  0  0  3  0  0  0  0  0  0
  188.4830  177.9260  143.9310 C   0  0  1  0  0  3  0  0  0  0  0  0
  186.9400  177.7180  141.8030 C   0  0  2  0  0  3  0  0  0  0  0  0
  183.0150  178.8470  142.4840 S   0  0  0  0  0  0  0  0  0  0  0  0
  186.7680  177.7810  145.4720 C   0  0  2  0  0  3  0  0  0  0  0  0
  186.0120  178.8980  146.2100 C   0  0  1  0  0  3  0  0  0  0  0  0
  188.1430  178.0860  145.3100 O   0  0  0  0  0  0  0  0  0  0  0  0
  184.5420  178.5000  146.3930 C   0  0  0  0  0  2  0  0  0  0  0  0
  183.6690  178.7540  145.1840 C   0  0  0  0  0  3  0  0  0  0  0  0
  184.0720  178.6370  143.9130 C   0  0  0  0  0  0  0  0  0  0  0  0
  188.5800  176.4500  143.5580 C   0  0  0  0  0  2  0  0  0  0  0  0
  184.3720  178.1890  141.3960 C   0  0  1  0  0  3  0  0  0  0  0  0
  186.5930  179.0860  147.4640 O   0  0  0  0  0  1  0  0  0  0  0  0
  184.2770  178.7620  139.9780 C   0  0  1  0  0  3  0  0  0  0  0  0
  185.0190  179.9420  139.8730 O   0  0  0  0  0  1  0  0  0  0  0  0
  184.7420  177.7630  138.9100 C   0  0  0  0  0  2  0  0  0  0  0  0
  182.6970  178.3590  137.8310 O   0  0  0  0  0  1  0  0  0  0  0  0
  183.6380  177.3340  137.9420 C   0  0  1  0  0  3  0  0  0  0  0  0
  184.2010  176.9900  136.5630 C   0  0  0  0  0  2  0  0  0  0  0  0
  185.2130  175.0430  135.6500 O   0  0  0  0  0  1  0  0  0  0  0  0
  184.0290  175.5150  136.2090 C   0  0  0  0  0  0  0  0  0  0  0  0
  182.9950  175.3620  135.2830 O   0  0  0  0  0  1  0  0  0  0  0  0
  183.7420  174.7740  137.3580 O   0  0  0  0  0  1  0  0  0  0  0  0
  188.0360  178.4540  141.0100 C   0  0  0  0  0  2  0  0  0  0  0  0
  190.5210  176.3380  138.9880 C   0  0  0  0  0  2  0  0  0  0  0  0
  190.8040  177.3510  138.0510 O   0  0  0  0  0  0  0  0  0  0  0  0
  188.5860  177.6530  139.8380 C   0  0  0  0  0  3  0  0  0  0  0  0
  188.8220  178.5760  138.6430 C   0  0  0  0  0  2  0  0  0  0  0  0
  189.8840  176.9490  140.2370 C   0  0  0  0  0  2  0  0  0  0  0  0
  189.5640  177.7980  137.5550 C   0  0  0  0  0  2  0  0  0  0  0  0
  1  4  1  0  0  0  0
  2 14  1  0  0  0  0
  2  5  1  0  0  0  0
  2  3  1  0  0  0  0
  3  8  1  0  0  0  0
  4 13  1  0  0  0  0
  4  3  1  0  0  0  0
  5 10  1  0  0  0  0
  6  1  1  0  0  0  0
  6  2  1  0  0  0  0
  7 13  1  0  0  0  0
  8  9  1  0  0  0  0
  9 11  1  0  0  0  0
  9 16  1  0  0  0  0
 10  8  1  0  0  0  0
 12 11  1  0  0  0  0
 13 12  2  0  0  0  0
 14  5  1  0  0  0  0
 15  1  1  0  0  0  0
 15  7  1  0  0  0  0
 17 15  1  0  0  0  0
 18 17  1  0  0  0  0
 19 17  1  0  0  0  0
 20 21  1  0  0  0  0
 21 19  1  0  0  0  0
 22 21  1  0  0  0  0
 23 24  1  0  0  0  0
 24 22  1  0  0  0  0
 24 26  1  0  0  0  0
 25 24  1  0  0  0  0
 27  6  1  0  0  0  0
 28 32  1  0  0  0  0
 29 28  1  0  0  0  0
 30 32  1  0  0  0  0
 30 27  1  0  0  0  0
 31 30  1  0  0  0  0
 33 29  1  0  0  0  0
 33 31  1  0  0  0  0
M  END
>  <MODEL>
9

>  <REMARK>
 VINA RESULT:      -8.2      2.399      3.630
  Name = 
  7 active torsions:
  status: ('A' for Active; 'I' for Inactive)
    1  A    between atoms: C_3  and  C_15
    2  A    between atoms: C_6  and  C_31
    3  A    between atoms: C_6  and  C_32
    4  A    between atoms: C_10  and  C_15
    5  A    between atoms: C_10  and  C_31
    6  A    between atoms: C_11  and  C_12
    7  A    between atoms: C_11  and  C_18
                            x       y       z     vdW  Elec       q    Type
                         _______ _______ _______ _____ _____    ______ ____

>  <TORSDO>
F 7

$$$$
