=
 OpenBabel10222416143D

 44 49  0  0  1  0  0  0  0  0999 V2000
  188.3300  176.2470  138.3140 O   0  0  0  0  0  0  0  0  0  0  0  0
  187.6890  170.3740  135.4260 N   0  0  0  0  0  2  0  0  0  0  0  0
  187.1970  173.6660  136.4120 C   0  0  0  0  0  0  0  0  0  0  0  0
  188.6980  175.3550  137.3000 C   0  0  0  0  0  2  0  0  0  0  0  0
  186.6090  175.9520  135.8690 C   0  0  1  0  0  3  0  0  0  0  0  0
  187.9190  171.3640  136.4720 C   0  0  0  0  0  2  0  0  0  0  0  0
  186.1840  178.3580  138.7850 C   0  0  0  0  0  1  0  0  0  0  0  0
  186.8020  179.1550  136.5310 C   0  0  0  0  0  1  0  0  0  0  0  0
  186.8830  172.4030  136.3060 C   0  0  0  0  0  0  0  0  0  0  0  0
  186.3140  170.5620  134.9670 C   0  0  0  0  0  2  0  0  0  0  0  0
  187.4930  174.9330  136.5180 C   0  0  0  0  0  0  0  0  0  0  0  0
  188.2640  177.4980  137.6870 C   0  0  1  0  0  3  0  0  0  0  0  0
  185.8760  171.9710  135.3190 C   0  0  1  0  0  3  0  0  0  0  0  0
  186.7960  177.9330  137.4500 C   0  0  0  0  0  0  0  0  0  0  0  0
  185.9760  176.8150  136.8870 N   0  0  0  0  0  0  0  0  0  0  0  0
  183.7890  173.2650  135.6860 C   0  0  0  0  0  2  0  0  0  0  0  0
  184.4900  171.9440  135.9420 C   0  0  0  0  0  3  0  0  0  0  0  0
  183.4440  172.0510  134.8480 C   0  0  0  0  0  2  0  0  0  0  0  0
  187.3360  176.7070  134.7550 C   0  0  0  0  0  2  0  0  0  0  0  0
  188.6810  176.1810  134.5940 N   0  0  0  0  0  1  0  0  0  0  0  0
  184.6710  177.2510  136.3860 C   0  0  0  0  0  2  0  0  0  0  0  0
  183.5730  176.3680  136.9480 C   0  0  0  0  0  2  0  0  0  0  0  0
  182.5480  177.1970  137.7080 C   0  0  0  0  0  2  0  0  0  0  0  0
  181.1200  175.4150  139.0740 C   0  0  0  0  0  2  0  0  0  0  0  0
  180.6870  176.8460  139.3240 C   0  0  0  0  0  2  0  0  0  0  0  0
  182.1400  176.5430  139.0250 C   0  0  0  0  0  0  0  0  0  0  0  0
  182.9250  176.7960  140.1610 O   0  0  0  0  0  0  0  0  0  0  0  0
  182.8120  178.1650  140.4380 C   0  0  0  0  0  2  0  0  0  0  0  0
  182.8040  178.3630  141.8430 O   0  0  0  0  0  0  0  0  0  0  0  0
  184.7820  178.1890  143.0320 O   0  0  0  0  0  0  0  0  0  0  0  0
  183.8910  178.9160  142.5170 C   0  0  0  0  0  3  0  0  0  0  0  0
  189.1000  178.5290  138.4480 C   0  0  0  0  0  2  0  0  0  0  0  0
  188.9620  177.6820  142.1140 C   0  0  0  0  0  3  0  0  0  0  0  0
  191.0760  176.8810  141.2760 C   0  0  0  0  0  3  0  0  0  0  0  0
  190.7700  177.3320  139.9870 C   0  0  0  0  0  0  0  0  0  0  0  0
  188.6380  178.1460  140.8390 C   0  0  0  0  0  3  0  0  0  0  0  0
  189.5260  177.9840  139.7710 C   0  0  0  0  0  0  0  0  0  0  0  0
  190.1820  177.0490  142.3400 C   0  0  0  0  0  0  0  0  0  0  0  0
  189.7060  176.9450  144.7660 C   0  0  0  0  0  1  0  0  0  0  0  0
  190.4810  176.5900  143.6280 O   0  0  0  0  0  0  0  0  0  0  0  0
  191.7280  177.0850  138.9890 O   0  0  0  0  0  0  0  0  0  0  0  0
  192.3100  176.0410  136.9150 C   0  0  0  0  0  2  0  0  0  0  0  0
  191.9880  175.8280  138.3820 C   0  0  0  0  0  3  0  0  0  0  0  0
  193.4280  175.7860  137.9040 C   0  0  0  0  0  2  0  0  0  0  0  0
  2  6  1  0  0  0  0
  3 11  2  0  0  0  0
  4  1  1  0  0  0  0
  5 19  1  6  0  0  0
  5 11  1  0  0  0  0
  5 15  1  0  0  0  0
  8 14  1  0  0  0  0
  9  3  2  0  0  0  0
  9  6  1  0  0  0  0
 10 13  1  0  0  0  0
 10  2  1  0  0  0  0
 11  4  1  0  0  0  0
 12  1  1  0  0  0  0
 12 32  1  1  0  0  0
 13 17  1  1  0  0  0
 13  9  1  0  0  0  0
 14 12  1  0  0  0  0
 14  7  1  0  0  0  0
 15 14  1  0  0  0  0
 16 17  1  0  0  0  0
 18 16  1  0  0  0  0
 18 17  1  0  0  0  0
 20 19  1  0  0  0  0
 21 15  1  0  0  0  0
 21 22  1  0  0  0  0
 22 23  1  0  0  0  0
 23 26  1  0  0  0  0
 24 25  1  0  0  0  0
 26 24  1  0  0  0  0
 26 25  1  0  0  0  0
 26 27  1  0  0  0  0
 27 28  1  0  0  0  0
 28 29  1  0  0  0  0
 29 31  1  0  0  0  0
 31 30  2  0  0  0  0
 32 37  1  0  0  0  0
 33 38  1  0  0  0  0
 34 38  2  0  0  0  0
 35 34  1  0  0  0  0
 36 33  2  0  0  0  0
 37 35  2  0  0  0  0
 37 36  1  0  0  0  0
 38 40  1  0  0  0  0
 40 39  1  0  0  0  0
 41 35  1  0  0  0  0
 42 44  1  0  0  0  0
 42 43  1  0  0  0  0
 43 41  1  0  0  0  0
 44 43  1  0  0  0  0
M  END
>  <MODEL>
1

>  <REMARK>
 VINA RESULT:      -5.2      0.000      0.000
  Name = 
  15 active torsions:
  status: ('A' for Active; 'I' for Inactive)
    1  A    between atoms: O_5  and  C_23
    2  A    between atoms: O_5  and  C_35
    3  A    between atoms: O_7  and  C_35
    4  A    between atoms: O_7  and  C_41
    5  A    between atoms: C_11  and  C_19
    6  A    between atoms: C_11  and  N_42
    7  A    between atoms: C_12  and  C_36
    8  A    between atoms: C_14  and  C_18
    9  A    between atoms: C_16  and  C_19
   10  A    between atoms: C_16  and  C_23
   11  A    between atoms: C_21  and  C_32
   12  A    between atoms: C_21  and  C_34
   13  A    between atoms: O_25  and  C_38
   14  A    between atoms: C_29  and  O_43
   15  A    between atoms: C_33  and  O_43
                            x       y       z     vdW  Elec       q    Type
                         _______ _______ _______ _____ _____    ______ ____

>  <TORSDO>
F 15

$$$$
=
 OpenBabel10222416143D

 44 49  0  0  1  0  0  0  0  0999 V2000
  185.9480  177.9330  139.1120 O   0  0  0  0  0  0  0  0  0  0  0  0
  192.0720  176.2880  137.3670 N   0  0  0  0  0  2  0  0  0  0  0  0
  188.6120  176.4740  137.5810 C   0  0  0  0  0  0  0  0  0  0  0  0
  187.1080  178.2060  138.3770 C   0  0  0  0  0  2  0  0  0  0  0  0
  186.4440  176.5290  136.5010 C   0  0  1  0  0  3  0  0  0  0  0  0
  190.9350  176.6090  138.2220 C   0  0  0  0  0  2  0  0  0  0  0  0
  183.3920  176.3130  138.7620 C   0  0  0  0  0  1  0  0  0  0  0  0
  183.2850  177.3960  136.5450 C   0  0  0  0  0  1  0  0  0  0  0  0
  189.7730  175.8840  137.6700 C   0  0  0  0  0  0  0  0  0  0  0  0
  191.7180  175.0710  136.6390 C   0  0  0  0  0  2  0  0  0  0  0  0
  187.4440  177.0490  137.4880 C   0  0  0  0  0  0  0  0  0  0  0  0
  184.8910  178.2520  138.2500 C   0  0  1  0  0  3  0  0  0  0  0  0
  190.2070  174.9420  136.6220 C   0  0  1  0  0  3  0  0  0  0  0  0
  184.2320  176.9750  137.6700 C   0  0  0  0  0  0  0  0  0  0  0  0
  185.2570  175.9930  137.1990 N   0  0  0  0  0  0  0  0  0  0  0  0
  188.3630  173.2800  136.5630 C   0  0  0  0  0  2  0  0  0  0  0  0
  189.8030  173.5200  136.9760 C   0  0  0  0  0  3  0  0  0  0  0  0
  189.4950  172.7520  135.7040 C   0  0  0  0  0  2  0  0  0  0  0  0
  186.1350  177.5560  135.4110 C   0  0  0  0  0  2  0  0  0  0  0  0
  187.3180  177.7930  134.6020 N   0  0  0  0  0  1  0  0  0  0  0  0
  184.6910  174.9090  136.3940 C   0  0  0  0  0  2  0  0  0  0  0  0
  184.8450  173.5840  137.1180 C   0  0  0  0  0  2  0  0  0  0  0  0
  184.7450  172.4210  136.1430 C   0  0  0  0  0  2  0  0  0  0  0  0
  183.5540  170.0450  136.2790 C   0  0  0  0  0  2  0  0  0  0  0  0
  183.0790  170.8840  135.1100 C   0  0  0  0  0  2  0  0  0  0  0  0
  183.5090  171.5610  136.3950 C   0  0  0  0  0  0  0  0  0  0  0  0
  182.4010  172.1610  137.0140 O   0  0  0  0  0  0  0  0  0  0  0  0
  181.6540  172.7800  136.0020 C   0  0  0  0  0  2  0  0  0  0  0  0
  181.1710  174.0300  136.4700 O   0  0  0  0  0  0  0  0  0  0  0  0
  179.3720  174.2790  137.9040 O   0  0  0  0  0  0  0  0  0  0  0  0
  180.6170  174.1780  137.7410 C   0  0  0  0  0  3  0  0  0  0  0  0
  183.9060  179.2030  138.9320 C   0  0  0  0  0  2  0  0  0  0  0  0
  185.3010  178.9100  142.4160 C   0  0  0  0  0  3  0  0  0  0  0  0
  182.9190  178.5640  142.5690 C   0  0  0  0  0  3  0  0  0  0  0  0
  182.7740  178.7500  141.1900 C   0  0  0  0  0  0  0  0  0  0  0  0
  185.1810  179.0930  141.0390 C   0  0  0  0  0  3  0  0  0  0  0  0
  183.9330  179.0120  140.4120 C   0  0  0  0  0  0  0  0  0  0  0  0
  184.1720  178.6440  143.1890 C   0  0  0  0  0  0  0  0  0  0  0  0
  185.3190  179.1410  145.3240 C   0  0  0  0  0  1  0  0  0  0  0  0
  184.3200  178.4680  144.5690 O   0  0  0  0  0  0  0  0  0  0  0  0
  181.4660  178.6760  140.6790 O   0  0  0  0  0  0  0  0  0  0  0  0
  179.2100  177.8780  140.6510 C   0  0  0  0  0  2  0  0  0  0  0  0
  180.6770  177.4990  140.5860 C   0  0  0  0  0  3  0  0  0  0  0  0
  179.8460  177.5480  139.3170 C   0  0  0  0  0  2  0  0  0  0  0  0
  2  6  1  0  0  0  0
  3  9  2  0  0  0  0
  4  1  1  0  0  0  0
  5 19  1  6  0  0  0
  5 15  1  0  0  0  0
  5 11  1  0  0  0  0
  8 14  1  0  0  0  0
  9  6  1  0  0  0  0
 10  2  1  0  0  0  0
 11  3  2  0  0  0  0
 11  4  1  0  0  0  0
 12 32  1  1  0  0  0
 12  1  1  0  0  0  0
 13 10  1  0  0  0  0
 13 17  1  1  0  0  0
 13  9  1  0  0  0  0
 14 12  1  0  0  0  0
 14  7  1  0  0  0  0
 15 14  1  0  0  0  0
 16 17  1  0  0  0  0
 18 16  1  0  0  0  0
 18 17  1  0  0  0  0
 20 19  1  0  0  0  0
 21 22  1  0  0  0  0
 21 15  1  0  0  0  0
 23 26  1  0  0  0  0
 23 22  1  0  0  0  0
 24 26  1  0  0  0  0
 25 24  1  0  0  0  0
 25 26  1  0  0  0  0
 26 27  1  0  0  0  0
 28 29  1  0  0  0  0
 28 27  1  0  0  0  0
 29 31  1  0  0  0  0
 31 30  2  0  0  0  0
 32 37  1  0  0  0  0
 33 38  1  0  0  0  0
 34 38  2  0  0  0  0
 35 34  1  0  0  0  0
 36 33  2  0  0  0  0
 37 36  1  0  0  0  0
 37 35  2  0  0  0  0
 38 40  1  0  0  0  0
 40 39  1  0  0  0  0
 41 35  1  0  0  0  0
 43 42  1  0  0  0  0
 43 41  1  0  0  0  0
 44 43  1  0  0  0  0
 44 42  1  0  0  0  0
M  END
>  <MODEL>
2

>  <REMARK>
 VINA RESULT:      -5.2      2.572      6.367
  Name = 
  15 active torsions:
  status: ('A' for Active; 'I' for Inactive)
    1  A    between atoms: O_5  and  C_23
    2  A    between atoms: O_5  and  C_35
    3  A    between atoms: O_7  and  C_35
    4  A    between atoms: O_7  and  C_41
    5  A    between atoms: C_11  and  C_19
    6  A    between atoms: C_11  and  N_42
    7  A    between atoms: C_12  and  C_36
    8  A    between atoms: C_14  and  C_18
    9  A    between atoms: C_16  and  C_19
   10  A    between atoms: C_16  and  C_23
   11  A    between atoms: C_21  and  C_32
   12  A    between atoms: C_21  and  C_34
   13  A    between atoms: O_25  and  C_38
   14  A    between atoms: C_29  and  O_43
   15  A    between atoms: C_33  and  O_43
                            x       y       z     vdW  Elec       q    Type
                         _______ _______ _______ _____ _____    ______ ____

>  <TORSDO>
F 15

$$$$
=
 OpenBabel10222416143D

 44 49  0  0  1  0  0  0  0  0999 V2000
  185.7050  179.3530  137.7690 O   0  0  0  0  0  0  0  0  0  0  0  0
  179.6530  180.9890  139.7580 N   0  0  0  0  0  2  0  0  0  0  0  0
  182.3400  179.3740  138.2650 C   0  0  0  0  0  0  0  0  0  0  0  0
  184.7170  179.3430  138.7610 C   0  0  0  0  0  2  0  0  0  0  0  0
  183.4880  177.3260  137.6690 C   0  0  1  0  0  3  0  0  0  0  0  0
  181.0050  181.1380  139.2300 C   0  0  0  0  0  2  0  0  0  0  0  0
  186.5020  177.6510  135.3710 C   0  0  0  0  0  1  0  0  0  0  0  0
  186.2660  175.7530  136.9340 C   0  0  0  0  0  1  0  0  0  0  0  0
  181.2120  180.0300  138.2760 C   0  0  0  0  0  0  0  0  0  0  0  0
  178.9310  180.1310  138.8200 C   0  0  0  0  0  2  0  0  0  0  0  0
  183.4640  178.7100  138.2390 C   0  0  0  0  0  0  0  0  0  0  0  0
  186.2880  178.0800  137.8290 C   0  0  1  0  0  3  0  0  0  0  0  0
  179.9420  179.3230  138.0290 C   0  0  1  0  0  3  0  0  0  0  0  0
  185.8140  177.1870  136.6550 C   0  0  0  0  0  0  0  0  0  0  0  0
  184.3340  177.2780  136.4580 N   0  0  0  0  0  0  0  0  0  0  0  0
  180.7360  178.7790  135.7400 C   0  0  0  0  0  2  0  0  0  0  0  0
  179.5880  179.3530  136.5510 C   0  0  0  0  0  3  0  0  0  0  0  0
  179.5120  177.9320  136.0230 C   0  0  0  0  0  2  0  0  0  0  0  0
  183.8320  176.2800  138.7310 C   0  0  0  0  0  2  0  0  0  0  0  0
  182.6980  176.0820  139.6180 N   0  0  0  0  0  1  0  0  0  0  0  0
  183.8060  176.2500  135.5600 C   0  0  0  0  0  2  0  0  0  0  0  0
  182.4060  175.8490  135.9870 C   0  0  0  0  0  2  0  0  0  0  0  0
  182.1260  174.3980  135.6290 C   0  0  0  0  0  2  0  0  0  0  0  0
  183.7120  172.7230  136.9550 C   0  0  0  0  0  2  0  0  0  0  0  0
  182.5340  172.0340  136.2960 C   0  0  0  0  0  2  0  0  0  0  0  0
  182.3870  173.4540  136.8000 C   0  0  0  0  0  0  0  0  0  0  0  0
  181.4990  173.4870  137.8860 O   0  0  0  0  0  0  0  0  0  0  0  0
  180.2250  173.1920  137.3810 C   0  0  0  0  0  2  0  0  0  0  0  0
  179.2660  173.3150  138.4200 O   0  0  0  0  0  0  0  0  0  0  0  0
  179.4230  173.6820  140.6990 O   0  0  0  0  0  0  0  0  0  0  0  0
  179.4770  174.1370  139.5260 C   0  0  0  0  0  3  0  0  0  0  0  0
  187.8090  178.1890  137.9500 C   0  0  0  0  0  2  0  0  0  0  0  0
  187.6070  178.1710  141.7080 C   0  0  0  0  0  3  0  0  0  0  0  0
  189.8380  177.4790  141.1110 C   0  0  0  0  0  3  0  0  0  0  0  0
  189.5390  177.5890  139.7490 C   0  0  0  0  0  0  0  0  0  0  0  0
  187.2870  178.2930  140.3560 C   0  0  0  0  0  3  0  0  0  0  0  0
  188.2370  178.0120  139.3690 C   0  0  0  0  0  0  0  0  0  0  0  0
  188.8820  177.7650  142.0940 C   0  0  0  0  0  0  0  0  0  0  0  0
  190.5080  177.6330  143.9550 C   0  0  0  0  0  1  0  0  0  0  0  0
  189.1750  177.6470  143.4570 O   0  0  0  0  0  0  0  0  0  0  0  0
  190.5650  177.2500  138.8490 O   0  0  0  0  0  0  0  0  0  0  0  0
  191.3880  175.9020  137.0500 C   0  0  0  0  0  2  0  0  0  0  0  0
  190.9650  175.9310  138.5070 C   0  0  0  0  0  3  0  0  0  0  0  0
  192.4380  175.9300  138.1420 C   0  0  0  0  0  2  0  0  0  0  0  0
  1 12  1  0  0  0  0
  1  4  1  0  0  0  0
  3  9  2  0  0  0  0
  5 11  1  0  0  0  0
  5 19  1  1  0  0  0
  6  2  1  0  0  0  0
  7 14  1  0  0  0  0
  9  6  1  0  0  0  0
 10  2  1  0  0  0  0
 11  3  2  0  0  0  0
 11  4  1  0  0  0  0
 12 32  1  6  0  0  0
 13 17  1  6  0  0  0
 13  9  1  0  0  0  0
 13 10  1  0  0  0  0
 14  8  1  0  0  0  0
 14 12  1  0  0  0  0
 15 14  1  0  0  0  0
 15  5  1  0  0  0  0
 16 18  1  0  0  0  0
 16 17  1  0  0  0  0
 18 17  1  0  0  0  0
 19 20  1  0  0  0  0
 21 22  1  0  0  0  0
 21 15  1  0  0  0  0
 23 22  1  0  0  0  0
 23 26  1  0  0  0  0
 25 26  1  0  0  0  0
 25 24  1  0  0  0  0
 26 24  1  0  0  0  0
 26 27  1  0  0  0  0
 28 27  1  0  0  0  0
 28 29  1  0  0  0  0
 29 31  1  0  0  0  0
 31 30  2  0  0  0  0
 32 37  1  0  0  0  0
 33 38  1  0  0  0  0
 34 38  2  0  0  0  0
 35 34  1  0  0  0  0
 36 33  2  0  0  0  0
 37 35  2  0  0  0  0
 37 36  1  0  0  0  0
 38 40  1  0  0  0  0
 40 39  1  0  0  0  0
 41 35  1  0  0  0  0
 42 44  1  0  0  0  0
 42 43  1  0  0  0  0
 43 41  1  0  0  0  0
 44 43  1  0  0  0  0
M  END
>  <MODEL>
3

>  <REMARK>
 VINA RESULT:      -5.0      2.712      5.789
  Name = 
  15 active torsions:
  status: ('A' for Active; 'I' for Inactive)
    1  A    between atoms: O_5  and  C_23
    2  A    between atoms: O_5  and  C_35
    3  A    between atoms: O_7  and  C_35
    4  A    between atoms: O_7  and  C_41
    5  A    between atoms: C_11  and  C_19
    6  A    between atoms: C_11  and  N_42
    7  A    between atoms: C_12  and  C_36
    8  A    between atoms: C_14  and  C_18
    9  A    between atoms: C_16  and  C_19
   10  A    between atoms: C_16  and  C_23
   11  A    between atoms: C_21  and  C_32
   12  A    between atoms: C_21  and  C_34
   13  A    between atoms: O_25  and  C_38
   14  A    between atoms: C_29  and  O_43
   15  A    between atoms: C_33  and  O_43
                            x       y       z     vdW  Elec       q    Type
                         _______ _______ _______ _____ _____    ______ ____

>  <TORSDO>
F 15

$$$$
=
 OpenBabel10222416143D

 44 49  0  0  1  0  0  0  0  0999 V2000
  183.4640  176.5190  138.0410 O   0  0  0  0  0  0  0  0  0  0  0  0
  179.1730  178.5240  142.6030 N   0  0  0  0  0  2  0  0  0  0  0  0
  182.0390  178.1090  140.6870 C   0  0  0  0  0  0  0  0  0  0  0  0
  182.3940  177.3410  138.4110 C   0  0  0  0  0  2  0  0  0  0  0  0
  183.9720  179.0530  139.5740 C   0  0  1  0  0  3  0  0  0  0  0  0
  179.9160  177.6240  141.7290 C   0  0  0  0  0  2  0  0  0  0  0  0
  186.5080  176.5990  138.1550 C   0  0  0  0  0  1  0  0  0  0  0  0
  186.2510  178.8730  137.2270 C   0  0  0  0  0  1  0  0  0  0  0  0
  181.3280  178.0520  141.7810 C   0  0  0  0  0  0  0  0  0  0  0  0
  180.1530  179.1440  143.4940 C   0  0  0  0  0  2  0  0  0  0  0  0
  182.7640  178.1690  139.6040 C   0  0  0  0  0  0  0  0  0  0  0  0
  184.2900  177.3340  137.2540 C   0  0  1  0  0  3  0  0  0  0  0  0
  181.5190  179.0580  142.8420 C   0  0  1  0  0  3  0  0  0  0  0  0
  185.5480  177.7830  138.0380 C   0  0  0  0  0  0  0  0  0  0  0  0
  185.2010  178.2490  139.4170 N   0  0  0  0  0  0  0  0  0  0  0  0
  183.9170  178.5220  143.2000 C   0  0  0  0  0  2  0  0  0  0  0  0
  182.5490  178.5840  143.8540 C   0  0  0  0  0  3  0  0  0  0  0  0
  183.5600  179.6880  144.1000 C   0  0  0  0  0  2  0  0  0  0  0  0
  183.8180  180.1890  138.5620 C   0  0  0  0  0  2  0  0  0  0  0  0
  182.6340  180.9730  138.8700 N   0  0  0  0  0  1  0  0  0  0  0  0
  186.3020  178.9410  140.0880 C   0  0  0  0  0  2  0  0  0  0  0  0
  186.6730  178.2180  141.3690 C   0  0  0  0  0  2  0  0  0  0  0  0
  188.1590  178.3600  141.6600 C   0  0  0  0  0  2  0  0  0  0  0  0
  187.9400  176.3860  143.4320 C   0  0  0  0  0  2  0  0  0  0  0  0
  188.9590  177.4350  143.8300 C   0  0  0  0  0  2  0  0  0  0  0  0
  188.7290  177.1310  142.3640 C   0  0  0  0  0  0  0  0  0  0  0  0
  189.8690  176.5240  141.8170 O   0  0  0  0  0  0  0  0  0  0  0  0
  190.0070  177.0180  140.5120 C   0  0  0  0  0  2  0  0  0  0  0  0
  190.6860  176.0610  139.7150 O   0  0  0  0  0  0  0  0  0  0  0  0
  190.3330  174.7580  137.8350 O   0  0  0  0  0  0  0  0  0  0  0  0
  190.4100  175.9020  138.3580 C   0  0  0  0  0  3  0  0  0  0  0  0
  184.6000  176.6580  135.9180 C   0  0  0  0  0  2  0  0  0  0  0  0
  181.4680  174.9370  134.7360 C   0  0  0  0  0  3  0  0  0  0  0  0
  182.8720  173.2520  135.7410 C   0  0  0  0  0  3  0  0  0  0  0  0
  183.8610  174.2020  136.0200 C   0  0  0  0  0  0  0  0  0  0  0  0
  182.4370  175.9010  135.0090 C   0  0  0  0  0  3  0  0  0  0  0  0
  183.6310  175.5550  135.6500 C   0  0  0  0  0  0  0  0  0  0  0  0
  181.6780  173.6080  135.1000 C   0  0  0  0  0  0  0  0  0  0  0  0
  180.2730  171.6790  135.7530 C   0  0  0  0  0  1  0  0  0  0  0  0
  180.6910  172.6600  134.8120 O   0  0  0  0  0  0  0  0  0  0  0  0
  185.0310  173.7290  136.6390 O   0  0  0  0  0  0  0  0  0  0  0  0
  187.2990  173.8090  135.8780 C   0  0  0  0  0  2  0  0  0  0  0  0
  186.0480  172.9610  136.0140 C   0  0  0  0  0  3  0  0  0  0  0  0
  187.2040  172.7730  136.9790 C   0  0  0  0  0  2  0  0  0  0  0  0
  1  4  1  0  0  0  0
  2 10  1  0  0  0  0
  3  9  2  0  0  0  0
  4 11  1  0  0  0  0
  5 19  1  6  0  0  0
  5 11  1  0  0  0  0
  6  9  1  0  0  0  0
  6  2  1  0  0  0  0
  8 14  1  0  0  0  0
  9 13  1  0  0  0  0
 11  3  2  0  0  0  0
 12 32  1  6  0  0  0
 12 14  1  0  0  0  0
 12  1  1  0  0  0  0
 13 10  1  0  0  0  0
 13 17  1  1  0  0  0
 14  7  1  0  0  0  0
 14 15  1  0  0  0  0
 15  5  1  0  0  0  0
 15 21  1  0  0  0  0
 16 17  1  0  0  0  0
 16 18  1  0  0  0  0
 17 18  1  0  0  0  0
 19 20  1  0  0  0  0
 21 22  1  0  0  0  0
 22 23  1  0  0  0  0
 23 26  1  0  0  0  0
 24 25  1  0  0  0  0
 26 24  1  0  0  0  0
 26 25  1  0  0  0  0
 27 26  1  0  0  0  0
 28 27  1  0  0  0  0
 29 28  1  0  0  0  0
 30 31  2  0  0  0  0
 31 29  1  0  0  0  0
 33 36  2  0  0  0  0
 33 38  1  0  0  0  0
 34 35  1  0  0  0  0
 35 41  1  0  0  0  0
 36 37  1  0  0  0  0
 37 32  1  0  0  0  0
 37 35  2  0  0  0  0
 38 34  2  0  0  0  0
 40 38  1  0  0  0  0
 40 39  1  0  0  0  0
 42 43  1  0  0  0  0
 42 44  1  0  0  0  0
 43 41  1  0  0  0  0
 43 44  1  0  0  0  0
M  END
>  <MODEL>
4

>  <REMARK>
 VINA RESULT:      -5.0      2.714      8.560
  Name = 
  15 active torsions:
  status: ('A' for Active; 'I' for Inactive)
    1  A    between atoms: O_5  and  C_23
    2  A    between atoms: O_5  and  C_35
    3  A    between atoms: O_7  and  C_35
    4  A    between atoms: O_7  and  C_41
    5  A    between atoms: C_11  and  C_19
    6  A    between atoms: C_11  and  N_42
    7  A    between atoms: C_12  and  C_36
    8  A    between atoms: C_14  and  C_18
    9  A    between atoms: C_16  and  C_19
   10  A    between atoms: C_16  and  C_23
   11  A    between atoms: C_21  and  C_32
   12  A    between atoms: C_21  and  C_34
   13  A    between atoms: O_25  and  C_38
   14  A    between atoms: C_29  and  O_43
   15  A    between atoms: C_33  and  O_43
                            x       y       z     vdW  Elec       q    Type
                         _______ _______ _______ _____ _____    ______ ____

>  <TORSDO>
F 15

$$$$
=
 OpenBabel10222416143D

 44 49  0  0  1  0  0  0  0  0999 V2000
  187.1610  175.6840  137.3700 O   0  0  0  0  0  0  0  0  0  0  0  0
  188.2080  178.4520  143.2430 N   0  0  0  0  0  2  0  0  0  0  0  0
  188.6350  177.2020  140.0320 C   0  0  0  0  0  0  0  0  0  0  0  0
  187.0840  176.8030  138.2070 C   0  0  0  0  0  2  0  0  0  0  0  0
  189.5860  177.4030  137.8130 C   0  0  1  0  0  3  0  0  0  0  0  0
  187.7250  177.5020  142.2470 C   0  0  0  0  0  2  0  0  0  0  0  0
  189.2000  174.4070  135.5010 C   0  0  0  0  0  1  0  0  0  0  0  0
  189.4760  176.6960  134.6160 C   0  0  0  0  0  1  0  0  0  0  0  0
  188.8460  177.2540  141.3190 C   0  0  0  0  0  0  0  0  0  0  0  0
  189.6680  178.4030  143.1940 C   0  0  0  0  0  2  0  0  0  0  0  0
  188.4410  177.1440  138.7430 C   0  0  0  0  0  0  0  0  0  0  0  0
  187.5560  176.1900  136.1250 C   0  0  1  0  0  3  0  0  0  0  0  0
  190.0870  177.8560  141.8420 C   0  0  1  0  0  3  0  0  0  0  0  0
  189.0500  175.8890  135.8430 C   0  0  0  0  0  0  0  0  0  0  0  0
  189.9060  176.1890  137.0330 N   0  0  0  0  0  0  0  0  0  0  0  0
  191.5990  176.7530  143.4740 C   0  0  0  0  0  2  0  0  0  0  0  0
  191.1630  176.7980  142.0210 C   0  0  0  0  0  3  0  0  0  0  0  0
  190.6470  175.7040  142.9370 C   0  0  0  0  0  2  0  0  0  0  0  0
  189.3620  178.6610  136.9740 C   0  0  0  0  0  2  0  0  0  0  0  0
  188.9560  179.7640  137.8290 N   0  0  0  0  0  1  0  0  0  0  0  0
  191.3380  176.1920  136.7290 C   0  0  0  0  0  2  0  0  0  0  0  0
  192.1210  175.6110  137.8920 C   0  0  0  0  0  2  0  0  0  0  0  0
  192.8090  174.3170  137.4870 C   0  0  0  0  0  2  0  0  0  0  0  0
  194.8150  174.2380  135.7400 C   0  0  0  0  0  2  0  0  0  0  0  0
  194.9380  173.2000  136.8380 C   0  0  0  0  0  2  0  0  0  0  0  0
  194.2780  174.5300  137.1340 C   0  0  0  0  0  0  0  0  0  0  0  0
  195.0720  175.2700  138.0240 O   0  0  0  0  0  0  0  0  0  0  0  0
  195.5920  174.3630  138.9570 C   0  0  0  0  0  2  0  0  0  0  0  0
  196.8110  174.8680  139.4780 O   0  0  0  0  0  0  0  0  0  0  0  0
  199.0070  175.4750  139.0740 O   0  0  0  0  0  0  0  0  0  0  0  0
  198.0130  174.7600  138.7810 C   0  0  0  0  0  3  0  0  0  0  0  0
  186.6090  175.7140  135.0220 C   0  0  0  0  0  2  0  0  0  0  0  0
  185.2250  172.3380  135.9500 C   0  0  0  0  0  3  0  0  0  0  0  0
  183.5620  173.9800  136.5480 C   0  0  0  0  0  3  0  0  0  0  0  0
  184.3860  175.0190  136.1000 C   0  0  0  0  0  0  0  0  0  0  0  0
  186.0600  173.3570  135.4910 C   0  0  0  0  0  3  0  0  0  0  0  0
  185.6570  174.6950  135.5540 C   0  0  0  0  0  0  0  0  0  0  0  0
  183.9720  172.6420  136.4790 C   0  0  0  0  0  0  0  0  0  0  0  0
  182.5440  170.6670  136.0550 C   0  0  0  0  0  1  0  0  0  0  0  0
  183.1560  171.6020  136.9350 O   0  0  0  0  0  0  0  0  0  0  0  0
  183.8850  176.3250  136.2430 O   0  0  0  0  0  0  0  0  0  0  0  0
  183.4440  176.7340  138.5590 C   0  0  0  0  0  2  0  0  0  0  0  0
  182.8750  176.7310  137.1530 C   0  0  0  0  0  3  0  0  0  0  0  0
  183.2800  178.0380  137.8080 C   0  0  0  0  0  2  0  0  0  0  0  0
  1  4  1  0  0  0  0
  3  9  2  0  0  0  0
  4 11  1  0  0  0  0
  5 19  1  6  0  0  0
  5 11  1  0  0  0  0
  6  2  1  0  0  0  0
  7 14  1  0  0  0  0
  8 14  1  0  0  0  0
  9 13  1  0  0  0  0
  9  6  1  0  0  0  0
 10  2  1  0  0  0  0
 11  3  2  0  0  0  0
 12 32  1  6  0  0  0
 12  1  1  0  0  0  0
 13 17  1  1  0  0  0
 13 10  1  0  0  0  0
 14 12  1  0  0  0  0
 14 15  1  0  0  0  0
 15  5  1  0  0  0  0
 17 18  1  0  0  0  0
 17 16  1  0  0  0  0
 18 16  1  0  0  0  0
 19 20  1  0  0  0  0
 21 15  1  0  0  0  0
 21 22  1  0  0  0  0
 23 22  1  0  0  0  0
 24 25  1  0  0  0  0
 24 26  1  0  0  0  0
 25 26  1  0  0  0  0
 26 23  1  0  0  0  0
 26 27  1  0  0  0  0
 27 28  1  0  0  0  0
 28 29  1  0  0  0  0
 31 30  2  0  0  0  0
 31 29  1  0  0  0  0
 32 37  1  0  0  0  0
 33 38  1  0  0  0  0
 35 41  1  0  0  0  0
 35 34  1  0  0  0  0
 36 37  1  0  0  0  0
 36 33  2  0  0  0  0
 37 35  2  0  0  0  0
 38 34  2  0  0  0  0
 38 40  1  0  0  0  0
 39 40  1  0  0  0  0
 41 43  1  0  0  0  0
 43 44  1  0  0  0  0
 43 42  1  0  0  0  0
 44 42  1  0  0  0  0
M  END
>  <MODEL>
5

>  <REMARK>
 VINA RESULT:      -5.0      2.786      9.459
  Name = 
  15 active torsions:
  status: ('A' for Active; 'I' for Inactive)
    1  A    between atoms: O_5  and  C_23
    2  A    between atoms: O_5  and  C_35
    3  A    between atoms: O_7  and  C_35
    4  A    between atoms: O_7  and  C_41
    5  A    between atoms: C_11  and  C_19
    6  A    between atoms: C_11  and  N_42
    7  A    between atoms: C_12  and  C_36
    8  A    between atoms: C_14  and  C_18
    9  A    between atoms: C_16  and  C_19
   10  A    between atoms: C_16  and  C_23
   11  A    between atoms: C_21  and  C_32
   12  A    between atoms: C_21  and  C_34
   13  A    between atoms: O_25  and  C_38
   14  A    between atoms: C_29  and  O_43
   15  A    between atoms: C_33  and  O_43
                            x       y       z     vdW  Elec       q    Type
                         _______ _______ _______ _____ _____    ______ ____

>  <TORSDO>
F 15

$$$$
=
 OpenBabel10222416143D

 44 49  0  0  1  0  0  0  0  0999 V2000
  184.2350  176.2900  137.9080 O   0  0  0  0  0  0  0  0  0  0  0  0
  180.1240  178.6010  142.4920 N   0  0  0  0  0  2  0  0  0  0  0  0
  182.9320  178.0080  140.5390 C   0  0  0  0  0  0  0  0  0  0  0  0
  183.2110  177.1700  138.2770 C   0  0  0  0  0  2  0  0  0  0  0  0
  184.8860  178.8340  139.3700 C   0  0  1  0  0  3  0  0  0  0  0  0
  180.8080  177.6460  141.6280 C   0  0  0  0  0  2  0  0  0  0  0  0
  187.2800  176.2320  137.9690 C   0  0  0  0  0  1  0  0  0  0  0  0
  187.1120  178.4930  136.9900 C   0  0  0  0  0  1  0  0  0  0  0  0
  182.2400  178.0100  141.6460 C   0  0  0  0  0  0  0  0  0  0  0  0
  181.1470  179.1960  143.3510 C   0  0  0  0  0  2  0  0  0  0  0  0
  183.6400  178.0080  139.4420 C   0  0  0  0  0  0  0  0  0  0  0  0
  185.0830  177.0470  137.0880 C   0  0  1  0  0  3  0  0  0  0  0  0
  182.4960  179.0310  142.6780 C   0  0  1  0  0  3  0  0  0  0  0  0
  186.3750  177.4560  137.8400 C   0  0  0  0  0  0  0  0  0  0  0  0
  186.0740  177.9700  139.2120 N   0  0  0  0  0  0  0  0  0  0  0  0
  184.9160  178.9060  143.2180 C   0  0  0  0  0  2  0  0  0  0  0  0
  183.5210  178.5330  143.6840 C   0  0  0  0  0  3  0  0  0  0  0  0
  184.2380  179.7200  144.3010 C   0  0  0  0  0  2  0  0  0  0  0  0
  184.7670  179.9520  138.3330 C   0  0  0  0  0  2  0  0  0  0  0  0
  183.7150  180.8780  138.7190 N   0  0  0  0  0  1  0  0  0  0  0  0
  187.2180  178.6270  139.8470 C   0  0  0  0  0  2  0  0  0  0  0  0
  187.5760  177.9190  141.1410 C   0  0  0  0  0  2  0  0  0  0  0  0
  188.7690  178.5860  141.8090 C   0  0  0  0  0  2  0  0  0  0  0  0
  191.1420  177.5030  141.2840 C   0  0  0  0  0  2  0  0  0  0  0  0
  189.9860  176.5590  141.0270 C   0  0  0  0  0  2  0  0  0  0  0  0
  189.8800  177.5900  142.1300 C   0  0  0  0  0  0  0  0  0  0  0  0
  189.8570  176.9530  143.3800 O   0  0  0  0  0  0  0  0  0  0  0  0
  189.8250  177.9630  144.3520 C   0  0  0  0  0  2  0  0  0  0  0  0
  189.0050  177.5500  145.4340 O   0  0  0  0  0  0  0  0  0  0  0  0
  186.8780  178.1720  146.0980 O   0  0  0  0  0  0  0  0  0  0  0  0
  187.6160  177.5000  145.3300 C   0  0  0  0  0  3  0  0  0  0  0  0
  185.3380  176.3260  135.7640 C   0  0  0  0  0  2  0  0  0  0  0  0
  182.2290  174.4240  134.8210 C   0  0  0  0  0  3  0  0  0  0  0  0
  183.7330  172.8570  135.8680 C   0  0  0  0  0  3  0  0  0  0  0  0
  184.6960  173.8570  136.0470 C   0  0  0  0  0  0  0  0  0  0  0  0
  183.1710  175.4380  134.9940 C   0  0  0  0  0  3  0  0  0  0  0  0
  184.4010  175.1750  135.6050 C   0  0  0  0  0  0  0  0  0  0  0  0
  182.5030  173.1300  135.2570 C   0  0  0  0  0  0  0  0  0  0  0  0
  180.7840  171.5850  136.1400 C   0  0  0  0  0  1  0  0  0  0  0  0
  181.5420  172.1310  135.0680 O   0  0  0  0  0  0  0  0  0  0  0  0
  185.9070  173.4660  136.6450 O   0  0  0  0  0  0  0  0  0  0  0  0
  188.1830  173.2030  135.9550 C   0  0  0  0  0  2  0  0  0  0  0  0
  186.8320  172.5310  136.1100 C   0  0  0  0  0  3  0  0  0  0  0  0
  187.9320  172.2730  137.1230 C   0  0  0  0  0  2  0  0  0  0  0  0
  1  4  1  0  0  0  0
  2 10  1  0  0  0  0
  3  9  2  0  0  0  0
  4 11  1  0  0  0  0
  5 19  1  6  0  0  0
  5 11  1  0  0  0  0
  6  9  1  0  0  0  0
  6  2  1  0  0  0  0
  8 14  1  0  0  0  0
  9 13  1  0  0  0  0
 11  3  2  0  0  0  0
 12 32  1  6  0  0  0
 12 14  1  0  0  0  0
 12  1  1  0  0  0  0
 13 10  1  0  0  0  0
 13 17  1  1  0  0  0
 14  7  1  0  0  0  0
 14 15  1  0  0  0  0
 15  5  1  0  0  0  0
 15 21  1  0  0  0  0
 16 17  1  0  0  0  0
 16 18  1  0  0  0  0
 17 18  1  0  0  0  0
 19 20  1  0  0  0  0
 21 22  1  0  0  0  0
 22 23  1  0  0  0  0
 23 26  1  0  0  0  0
 24 26  1  0  0  0  0
 25 24  1  0  0  0  0
 25 26  1  0  0  0  0
 26 27  1  0  0  0  0
 27 28  1  0  0  0  0
 28 29  1  0  0  0  0
 31 29  1  0  0  0  0
 31 30  2  0  0  0  0
 33 36  2  0  0  0  0
 33 38  1  0  0  0  0
 34 35  1  0  0  0  0
 35 41  1  0  0  0  0
 36 37  1  0  0  0  0
 37 32  1  0  0  0  0
 37 35  2  0  0  0  0
 38 34  2  0  0  0  0
 40 38  1  0  0  0  0
 40 39  1  0  0  0  0
 42 43  1  0  0  0  0
 42 44  1  0  0  0  0
 43 41  1  0  0  0  0
 43 44  1  0  0  0  0
M  END
>  <MODEL>
6

>  <REMARK>
 VINA RESULT:      -4.8      2.692      8.183
  Name = 
  15 active torsions:
  status: ('A' for Active; 'I' for Inactive)
    1  A    between atoms: O_5  and  C_23
    2  A    between atoms: O_5  and  C_35
    3  A    between atoms: O_7  and  C_35
    4  A    between atoms: O_7  and  C_41
    5  A    between atoms: C_11  and  C_19
    6  A    between atoms: C_11  and  N_42
    7  A    between atoms: C_12  and  C_36
    8  A    between atoms: C_14  and  C_18
    9  A    between atoms: C_16  and  C_19
   10  A    between atoms: C_16  and  C_23
   11  A    between atoms: C_21  and  C_32
   12  A    between atoms: C_21  and  C_34
   13  A    between atoms: O_25  and  C_38
   14  A    between atoms: C_29  and  O_43
   15  A    between atoms: C_33  and  O_43
                            x       y       z     vdW  Elec       q    Type
                         _______ _______ _______ _____ _____    ______ ____

>  <TORSDO>
F 15

$$$$
=
 OpenBabel10222416143D

 44 49  0  0  1  0  0  0  0  0999 V2000
  187.4610  175.6830  136.3380 O   0  0  0  0  0  0  0  0  0  0  0  0
  182.3410  179.1170  138.6280 N   0  0  0  0  0  2  0  0  0  0  0  0
  185.5150  177.7850  138.1710 C   0  0  0  0  0  0  0  0  0  0  0  0
  186.6180  176.7970  136.2470 C   0  0  0  0  0  2  0  0  0  0  0  0
  187.9190  178.0700  138.1070 C   0  0  1  0  0  3  0  0  0  0  0  0
  183.1100  177.9880  138.1170 C   0  0  0  0  0  2  0  0  0  0  0  0
  190.0170  174.9110  137.8060 C   0  0  0  0  0  1  0  0  0  0  0  0
  190.8540  177.0970  137.0210 C   0  0  0  0  0  1  0  0  0  0  0  0
  184.4060  178.0030  138.8250 C   0  0  0  0  0  0  0  0  0  0  0  0
  182.9490  179.4950  139.9020 C   0  0  0  0  0  2  0  0  0  0  0  0
  186.6320  177.5650  137.5330 C   0  0  0  0  0  0  0  0  0  0  0  0
  188.7430  176.1780  136.0620 C   0  0  1  0  0  3  0  0  0  0  0  0
  184.3770  178.9840  139.9260 C   0  0  1  0  0  3  0  0  0  0  0  0
  189.5880  176.3070  137.3550 C   0  0  0  0  0  0  0  0  0  0  0  0
  188.8070  176.9430  138.4610 N   0  0  0  0  0  0  0  0  0  0  0  0
  186.0780  178.6370  141.7010 C   0  0  0  0  0  2  0  0  0  0  0  0
  184.6650  178.3080  141.2560 C   0  0  0  0  0  3  0  0  0  0  0  0
  184.9020  179.3660  142.3180 C   0  0  0  0  0  2  0  0  0  0  0  0
  188.5610  179.1320  137.2140 C   0  0  0  0  0  2  0  0  0  0  0  0
  187.5330  179.8510  136.4800 N   0  0  0  0  0  1  0  0  0  0  0  0
  189.6370  177.3410  139.5990 C   0  0  0  0  0  2  0  0  0  0  0  0
  188.9480  176.9770  140.9020 C   0  0  0  0  0  2  0  0  0  0  0  0
  189.4190  177.8790  142.0320 C   0  0  0  0  0  2  0  0  0  0  0  0
  188.0860  177.4890  144.3020 C   0  0  0  0  0  2  0  0  0  0  0  0
  189.3800  178.2530  144.4940 C   0  0  0  0  0  2  0  0  0  0  0  0
  189.2790  177.2120  143.3980 C   0  0  0  0  0  0  0  0  0  0  0  0
  190.1140  176.1240  143.6930 O   0  0  0  0  0  0  0  0  0  0  0  0
  191.4120  176.6350  143.8420 C   0  0  0  0  0  2  0  0  0  0  0  0
  192.0200  176.0520  144.9840 O   0  0  0  0  0  0  0  0  0  0  0  0
  191.5350  175.6020  147.2010 O   0  0  0  0  0  0  0  0  0  0  0  0
  191.6880  176.4460  146.2790 C   0  0  0  0  0  3  0  0  0  0  0  0
  189.4150  175.3540  134.9620 C   0  0  0  0  0  2  0  0  0  0  0  0
  187.0090  172.4640  135.1350 C   0  0  0  0  0  3  0  0  0  0  0  0
  189.2320  171.5360  135.0120 C   0  0  0  0  0  3  0  0  0  0  0  0
  189.7940  172.8160  134.9510 C   0  0  0  0  0  0  0  0  0  0  0  0
  187.5480  173.7490  135.0820 C   0  0  0  0  0  3  0  0  0  0  0  0
  188.9300  173.9430  134.9950 C   0  0  0  0  0  0  0  0  0  0  0  0
  187.8470  171.3500  135.1010 C   0  0  0  0  0  0  0  0  0  0  0  0
  185.9070  169.8310  134.8730 C   0  0  0  0  0  1  0  0  0  0  0  0
  187.2800  170.0720  135.1530 O   0  0  0  0  0  0  0  0  0  0  0  0
  191.1940  172.8840  134.8330 O   0  0  0  0  0  0  0  0  0  0  0  0
  193.0680  171.7220  135.7620 C   0  0  0  0  0  2  0  0  0  0  0  0
  192.1170  172.8940  135.9110 C   0  0  0  0  0  3  0  0  0  0  0  0
  193.5190  173.1140  135.3730 C   0  0  0  0  0  2  0  0  0  0  0  0
  2 10  1  0  0  0  0
  3  9  2  0  0  0  0
  4  1  1  0  0  0  0
  4 11  1  0  0  0  0
  5 19  1  6  0  0  0
  5 15  1  0  0  0  0
  6  2  1  0  0  0  0
  6  9  1  0  0  0  0
  8 14  1  0  0  0  0
  9 13  1  0  0  0  0
 10 13  1  0  0  0  0
 11  5  1  0  0  0  0
 11  3  2  0  0  0  0
 12 32  1  6  0  0  0
 12  1  1  0  0  0  0
 12 14  1  0  0  0  0
 13 17  1  1  0  0  0
 14  7  1  0  0  0  0
 14 15  1  0  0  0  0
 15 21  1  0  0  0  0
 16 18  1  0  0  0  0
 17 16  1  0  0  0  0
 17 18  1  0  0  0  0
 20 19  1  0  0  0  0
 21 22  1  0  0  0  0
 22 23  1  0  0  0  0
 23 26  1  0  0  0  0
 24 25  1  0  0  0  0
 26 27  1  0  0  0  0
 26 24  1  0  0  0  0
 26 25  1  0  0  0  0
 27 28  1  0  0  0  0
 28 29  1  0  0  0  0
 29 31  1  0  0  0  0
 31 30  2  0  0  0  0
 32 37  1  0  0  0  0
 34 38  2  0  0  0  0
 35 37  2  0  0  0  0
 35 34  1  0  0  0  0
 36 33  2  0  0  0  0
 37 36  1  0  0  0  0
 38 33  1  0  0  0  0
 38 40  1  0  0  0  0
 39 40  1  0  0  0  0
 41 35  1  0  0  0  0
 41 43  1  0  0  0  0
 42 43  1  0  0  0  0
 44 42  1  0  0  0  0
 44 43  1  0  0  0  0
M  END
>  <MODEL>
7

>  <REMARK>
 VINA RESULT:      -4.8      2.849      7.398
  Name = 
  15 active torsions:
  status: ('A' for Active; 'I' for Inactive)
    1  A    between atoms: O_5  and  C_23
    2  A    between atoms: O_5  and  C_35
    3  A    between atoms: O_7  and  C_35
    4  A    between atoms: O_7  and  C_41
    5  A    between atoms: C_11  and  C_19
    6  A    between atoms: C_11  and  N_42
    7  A    between atoms: C_12  and  C_36
    8  A    between atoms: C_14  and  C_18
    9  A    between atoms: C_16  and  C_19
   10  A    between atoms: C_16  and  C_23
   11  A    between atoms: C_21  and  C_32
   12  A    between atoms: C_21  and  C_34
   13  A    between atoms: O_25  and  C_38
   14  A    between atoms: C_29  and  O_43
   15  A    between atoms: C_33  and  O_43
                            x       y       z     vdW  Elec       q    Type
                         _______ _______ _______ _____ _____    ______ ____

>  <TORSDO>
F 15

$$$$
=
 OpenBabel10222416143D

 44 49  0  0  1  0  0  0  0  0999 V2000
  186.2910  177.1630  138.9110 O   0  0  0  0  0  0  0  0  0  0  0  0
  190.2330  179.3310  143.7080 N   0  0  0  0  0  2  0  0  0  0  0  0
  189.0260  177.8290  140.8200 C   0  0  0  0  0  0  0  0  0  0  0  0
  187.0310  178.2020  139.4870 C   0  0  0  0  0  2  0  0  0  0  0  0
  189.2580  177.3330  138.4600 C   0  0  1  0  0  3  0  0  0  0  0  0
  189.0760  178.7240  143.0610 C   0  0  0  0  0  2  0  0  0  0  0  0
  186.7760  174.8640  136.9710 C   0  0  0  0  0  1  0  0  0  0  0  0
  187.8870  176.5770  135.5820 C   0  0  0  0  0  1  0  0  0  0  0  0
  189.5980  177.8480  141.9930 C   0  0  0  0  0  0  0  0  0  0  0  0
  191.3870  178.5010  143.3660 C   0  0  0  0  0  2  0  0  0  0  0  0
  188.4640  177.7960  139.6420 C   0  0  0  0  0  0  0  0  0  0  0  0
  186.5060  177.2890  137.5320 C   0  0  1  0  0  3  0  0  0  0  0  0
  191.0630  177.7230  142.1040 C   0  0  1  0  0  3  0  0  0  0  0  0
  187.4930  176.2130  137.0140 C   0  0  0  0  0  0  0  0  0  0  0  0
  188.6870  176.0870  137.9070 N   0  0  0  0  0  0  0  0  0  0  0  0
  191.6940  175.9680  143.7450 C   0  0  0  0  0  2  0  0  0  0  0  0
  191.4660  176.2670  142.2750 C   0  0  0  0  0  3  0  0  0  0  0  0
  190.4030  175.5400  143.0770 C   0  0  0  0  0  2  0  0  0  0  0  0
  189.4600  178.4520  137.4380 C   0  0  0  0  0  2  0  0  0  0  0  0
  189.3170  179.7460  138.0830 N   0  0  0  0  0  1  0  0  0  0  0  0
  189.7700  175.2980  137.3160 C   0  0  0  0  0  2  0  0  0  0  0  0
  191.0500  175.4910  138.1080 C   0  0  0  0  0  2  0  0  0  0  0  0
  192.1470  174.5710  137.5950 C   0  0  0  0  0  2  0  0  0  0  0  0
  193.6650  176.0300  135.9680 C   0  0  0  0  0  2  0  0  0  0  0  0
  194.2010  174.6300  136.1880 C   0  0  0  0  0  2  0  0  0  0  0  0
  193.4400  175.3250  137.2980 C   0  0  0  0  0  0  0  0  0  0  0  0
  194.3040  175.6050  138.3680 O   0  0  0  0  0  0  0  0  0  0  0  0
  195.1130  174.4740  138.5450 C   0  0  0  0  0  2  0  0  0  0  0  0
  196.3660  174.8690  139.0800 O   0  0  0  0  0  0  0  0  0  0  0  0
  197.7470  175.2840  137.2710 O   0  0  0  0  0  0  0  0  0  0  0  0
  197.5560  174.7060  138.3730 C   0  0  0  0  0  3  0  0  0  0  0  0
  185.1740  177.3220  136.7800 C   0  0  0  0  0  2  0  0  0  0  0  0
  182.4900  178.4200  139.1800 C   0  0  0  0  0  3  0  0  0  0  0  0
  182.3820  176.0140  139.0400 C   0  0  0  0  0  3  0  0  0  0  0  0
  183.4350  175.9920  138.1190 C   0  0  0  0  0  0  0  0  0  0  0  0
  183.5450  178.4210  138.2680 C   0  0  0  0  0  3  0  0  0  0  0  0
  184.0310  177.2230  137.7340 C   0  0  0  0  0  0  0  0  0  0  0  0
  181.9030  177.2180  139.5720 C   0  0  0  0  0  0  0  0  0  0  0  0
  180.2760  178.4590  140.9630 C   0  0  0  0  0  1  0  0  0  0  0  0
  180.8440  177.2450  140.4860 O   0  0  0  0  0  0  0  0  0  0  0  0
  183.8160  174.7300  137.6280 O   0  0  0  0  0  0  0  0  0  0  0  0
  183.4420  173.1120  135.9050 C   0  0  0  0  0  2  0  0  0  0  0  0
  182.9310  173.7040  137.2040 C   0  0  0  0  0  3  0  0  0  0  0  0
  183.6610  172.3740  137.2100 C   0  0  0  0  0  2  0  0  0  0  0  0
  1  4  1  0  0  0  0
  3  9  2  0  0  0  0
  4 11  1  0  0  0  0
  5 19  1  6  0  0  0
  5 11  1  0  0  0  0
  6  2  1  0  0  0  0
  7 14  1  0  0  0  0
  8 14  1  0  0  0  0
  9 13  1  0  0  0  0
  9  6  1  0  0  0  0
 10  2  1  0  0  0  0
 11  3  2  0  0  0  0
 12 32  1  6  0  0  0
 12  1  1  0  0  0  0
 13 17  1  1  0  0  0
 13 10  1  0  0  0  0
 14 12  1  0  0  0  0
 14 15  1  0  0  0  0
 15  5  1  0  0  0  0
 17 18  1  0  0  0  0
 17 16  1  0  0  0  0
 18 16  1  0  0  0  0
 19 20  1  0  0  0  0
 21 15  1  0  0  0  0
 21 22  1  0  0  0  0
 23 22  1  0  0  0  0
 24 25  1  0  0  0  0
 24 26  1  0  0  0  0
 25 26  1  0  0  0  0
 26 23  1  0  0  0  0
 26 27  1  0  0  0  0
 27 28  1  0  0  0  0
 28 29  1  0  0  0  0
 30 31  2  0  0  0  0
 31 29  1  0  0  0  0
 32 37  1  0  0  0  0
 33 38  1  0  0  0  0
 34 38  2  0  0  0  0
 35 34  1  0  0  0  0
 36 33  2  0  0  0  0
 37 35  2  0  0  0  0
 37 36  1  0  0  0  0
 38 40  1  0  0  0  0
 40 39  1  0  0  0  0
 41 35  1  0  0  0  0
 42 43  1  0  0  0  0
 42 44  1  0  0  0  0
 43 44  1  0  0  0  0
 43 41  1  0  0  0  0
M  END
>  <MODEL>
8

>  <REMARK>
 VINA RESULT:      -4.6      2.544      9.139
  Name = 
  15 active torsions:
  status: ('A' for Active; 'I' for Inactive)
    1  A    between atoms: O_5  and  C_23
    2  A    between atoms: O_5  and  C_35
    3  A    between atoms: O_7  and  C_35
    4  A    between atoms: O_7  and  C_41
    5  A    between atoms: C_11  and  C_19
    6  A    between atoms: C_11  and  N_42
    7  A    between atoms: C_12  and  C_36
    8  A    between atoms: C_14  and  C_18
    9  A    between atoms: C_16  and  C_19
   10  A    between atoms: C_16  and  C_23
   11  A    between atoms: C_21  and  C_32
   12  A    between atoms: C_21  and  C_34
   13  A    between atoms: O_25  and  C_38
   14  A    between atoms: C_29  and  O_43
   15  A    between atoms: C_33  and  O_43
                            x       y       z     vdW  Elec       q    Type
                         _______ _______ _______ _____ _____    ______ ____

>  <TORSDO>
F 15

$$$$
=
 OpenBabel10222416143D

 44 49  0  0  1  0  0  0  0  0999 V2000
  186.8300  176.1240  137.1880 O   0  0  0  0  0  0  0  0  0  0  0  0
  187.8050  178.5620  143.2180 N   0  0  0  0  0  2  0  0  0  0  0  0
  188.2890  177.4050  139.9800 C   0  0  0  0  0  0  0  0  0  0  0  0
  186.8070  177.2130  138.0670 C   0  0  0  0  0  2  0  0  0  0  0  0
  189.3670  177.6060  137.8200 C   0  0  1  0  0  3  0  0  0  0  0  0
  187.2940  177.6980  142.1600 C   0  0  0  0  0  2  0  0  0  0  0  0
  188.8470  174.7470  135.3660 C   0  0  0  0  0  1  0  0  0  0  0  0
  189.3630  177.0350  134.5940 C   0  0  0  0  0  1  0  0  0  0  0  0
  188.4370  177.3880  141.2770 C   0  0  0  0  0  0  0  0  0  0  0  0
  189.2560  178.3880  143.2370 C   0  0  0  0  0  2  0  0  0  0  0  0
  188.1570  177.4140  138.6820 C   0  0  0  0  0  0  0  0  0  0  0  0
  187.3310  176.6420  135.9860 C   0  0  1  0  0  3  0  0  0  0  0  0
  189.6960  177.8590  141.8850 C   0  0  1  0  0  3  0  0  0  0  0  0
  188.8060  176.2220  135.7640 C   0  0  0  0  0  0  0  0  0  0  0  0
  189.6220  176.4000  137.0050 N   0  0  0  0  0  0  0  0  0  0  0  0
  192.0550  177.1290  141.6260 C   0  0  0  0  0  2  0  0  0  0  0  0
  190.6670  176.7050  142.0700 C   0  0  0  0  0  3  0  0  0  0  0  0
  191.7130  177.0860  143.1020 C   0  0  0  0  0  2  0  0  0  0  0  0
  189.2960  178.9110  137.0260 C   0  0  0  0  0  2  0  0  0  0  0  0
  189.0450  180.0270  137.9230 N   0  0  0  0  0  1  0  0  0  0  0  0
  191.0630  176.2900  136.7710 C   0  0  0  0  0  2  0  0  0  0  0  0
  191.6940  175.3820  137.8110 C   0  0  0  0  0  2  0  0  0  0  0  0
  193.2040  175.5560  137.8350 C   0  0  0  0  0  2  0  0  0  0  0  0
  193.9900  174.0810  135.7650 C   0  0  0  0  0  2  0  0  0  0  0  0
  192.9420  173.3990  136.6200 C   0  0  0  0  0  2  0  0  0  0  0  0
  193.9350  174.3450  137.2620 C   0  0  0  0  0  0  0  0  0  0  0  0
  194.7970  173.6310  138.1080 O   0  0  0  0  0  0  0  0  0  0  0  0
  195.2210  174.5210  139.1040 C   0  0  0  0  0  2  0  0  0  0  0  0
  196.5540  174.2110  139.4790 O   0  0  0  0  0  0  0  0  0  0  0  0
  198.2170  175.6250  138.7120 O   0  0  0  0  0  0  0  0  0  0  0  0
  197.6400  174.5070  138.6560 C   0  0  0  0  0  3  0  0  0  0  0  0
  186.4050  176.2920  134.8200 C   0  0  0  0  0  2  0  0  0  0  0  0
  182.9040  176.6780  136.1470 C   0  0  0  0  0  3  0  0  0  0  0  0
  183.3470  174.3140  135.9810 C   0  0  0  0  0  3  0  0  0  0  0  0
  184.6300  174.5600  135.4790 C   0  0  0  0  0  0  0  0  0  0  0  0
  184.1810  176.9480  135.6550 C   0  0  0  0  0  3  0  0  0  0  0  0
  185.0530  175.9070  135.3220 C   0  0  0  0  0  0  0  0  0  0  0  0
  182.4800  175.3620  136.3140 C   0  0  0  0  0  0  0  0  0  0  0  0
  180.5750  175.9550  137.7780 C   0  0  0  0  0  1  0  0  0  0  0  0
  181.1930  175.1190  136.8070 O   0  0  0  0  0  0  0  0  0  0  0  0
  185.4050  173.4340  135.1510 O   0  0  0  0  0  0  0  0  0  0  0  0
  185.1410  171.0740  135.4520 C   0  0  0  0  0  2  0  0  0  0  0  0
  185.7150  172.3570  136.0230 C   0  0  0  0  0  3  0  0  0  0  0  0
  186.6190  171.3710  135.3070 C   0  0  0  0  0  2  0  0  0  0  0  0
  1  4  1  0  0  0  0
  2 10  1  0  0  0  0
  3  9  2  0  0  0  0
  4 11  1  0  0  0  0
  5 19  1  6  0  0  0
  5 11  1  0  0  0  0
  6  2  1  0  0  0  0
  7 14  1  0  0  0  0
  8 14  1  0  0  0  0
  9 13  1  0  0  0  0
  9  6  1  0  0  0  0
 11  3  2  0  0  0  0
 12 32  1  6  0  0  0
 12  1  1  0  0  0  0
 13 17  1  1  0  0  0
 13 10  1  0  0  0  0
 14 12  1  0  0  0  0
 14 15  1  0  0  0  0
 15  5  1  0  0  0  0
 16 17  1  0  0  0  0
 16 18  1  0  0  0  0
 17 18  1  0  0  0  0
 19 20  1  0  0  0  0
 21 15  1  0  0  0  0
 21 22  1  0  0  0  0
 22 23  1  0  0  0  0
 24 25  1  0  0  0  0
 24 26  1  0  0  0  0
 25 26  1  0  0  0  0
 26 23  1  0  0  0  0
 26 27  1  0  0  0  0
 27 28  1  0  0  0  0
 28 29  1  0  0  0  0
 31 30  2  0  0  0  0
 31 29  1  0  0  0  0
 32 37  1  0  0  0  0
 33 38  1  0  0  0  0
 34 38  2  0  0  0  0
 35 34  1  0  0  0  0
 36 33  2  0  0  0  0
 37 35  2  0  0  0  0
 37 36  1  0  0  0  0
 38 40  1  0  0  0  0
 40 39  1  0  0  0  0
 41 35  1  0  0  0  0
 41 43  1  0  0  0  0
 42 43  1  0  0  0  0
 44 42  1  0  0  0  0
 44 43  1  0  0  0  0
M  END
>  <MODEL>
9

>  <REMARK>
 VINA RESULT:      -4.6      2.777      9.195
  Name = 
  15 active torsions:
  status: ('A' for Active; 'I' for Inactive)
    1  A    between atoms: O_5  and  C_23
    2  A    between atoms: O_5  and  C_35
    3  A    between atoms: O_7  and  C_35
    4  A    between atoms: O_7  and  C_41
    5  A    between atoms: C_11  and  C_19
    6  A    between atoms: C_11  and  N_42
    7  A    between atoms: C_12  and  C_36
    8  A    between atoms: C_14  and  C_18
    9  A    between atoms: C_16  and  C_19
   10  A    between atoms: C_16  and  C_23
   11  A    between atoms: C_21  and  C_32
   12  A    between atoms: C_21  and  C_34
   13  A    between atoms: O_25  and  C_38
   14  A    between atoms: C_29  and  O_43
   15  A    between atoms: C_33  and  O_43
                            x       y       z     vdW  Elec       q    Type
                         _______ _______ _______ _____ _____    ______ ____

>  <TORSDO>
F 15

$$$$
