=
 OpenBabel10222418173D

 59 69  0  0  1  0  0  0  0  0999 V2000
  184.8640  176.0820  137.3630 C   0  0  1  0  0  3  0  0  0  0  0  0
  182.0400  177.8410  137.6710 C   0  0  0  0  0  2  0  0  0  0  0  0
  183.7190  173.7790  137.4660 C   0  0  0  0  0  2  0  0  0  0  0  0
  180.0760  178.6540  134.5940 C   0  0  0  0  0  2  0  0  0  0  0  0
  190.4490  175.7260  139.0030 F   0  0  0  0  0  0  0  0  0  0  0  0
  183.1260  180.5340  138.6710 C   0  0  0  0  0  2  0  0  0  0  0  0
  179.4680  180.4800  136.4840 C   0  0  0  0  0  2  0  0  0  0  0  0
  188.4930  175.0620  135.8050 C   0  0  2  0  0  3  0  0  0  0  0  0
  184.1240  176.7820  138.5170 C   0  0  0  0  0  2  0  0  0  0  0  0
  179.7780  181.7540  137.2640 C   0  0  0  0  0  2  0  0  0  0  0  0
  189.8740  177.7810  136.2800 C   0  0  0  0  0  2  0  0  0  0  0  0
  184.0310  175.0240  136.6080 C   0  0  1  0  0  3  0  0  0  0  0  0
  186.8720  176.9880  136.5990 C   0  0  2  0  0  3  0  0  0  0  0  0
  181.6160  180.7200  138.6580 C   0  0  0  0  0  2  0  0  0  0  0  0
  187.5760  176.2520  135.4410 C   0  0  0  0  0  2  0  0  0  0  0  0
  189.6730  176.0710  137.9180 C   0  0  2  0  0  0  0  0  0  0  0  0
  184.8300  173.2370  138.1670 O   0  0  0  0  0  0  0  0  0  0  0  0
  190.5460  176.5150  136.7730 C   0  0  1  0  0  3  0  0  0  0  0  0
  187.3450  176.6980  137.9010 O   0  0  0  0  0  0  0  0  0  0  0  0
  183.4760  178.1050  138.0950 C   0  0  2  0  0  3  0  0  0  0  0  0
  187.7590  173.7750  136.0560 C   0  0  0  0  0  0  0  0  0  0  0  0
  183.5230  179.1610  139.2120 C   0  0  1  0  0  3  0  0  0  0  0  0
  186.7220  173.8330  136.8780 C   0  0  0  0  0  3  0  0  0  0  0  0
  185.4610  177.0030  136.4750 O   0  0  0  0  0  0  0  0  0  0  0  0
  185.2990  171.9280  136.1420 C   0  0  0  0  0  3  0  0  0  0  0  0
  187.4850  171.5290  135.0860 N   0  0  0  0  0  0  0  0  0  0  0  0
  188.6630  177.1820  138.0820 C   0  0  2  0  0  3  0  0  0  0  0  0
  181.9090  177.9230  136.1560 C   0  0  2  0  0  3  0  0  0  0  0  0
  188.2600  172.5100  135.4620 C   0  0  0  0  0  0  0  0  0  0  0  0
  180.4500  177.7550  135.7690 C   0  0  0  0  0  2  0  0  0  0  0  0
  186.0590  171.3870  135.1900 C   0  0  0  0  0  3  0  0  0  0  0  0
  181.2440  181.8310  137.6830 C   0  0  2  0  0  3  0  0  0  0  0  0
  180.4000  180.4280  134.9180 S   0  0  0  0  0  0  0  0  0  0  0  0
  182.7860  175.5660  135.9500 C   0  0  0  0  0  0  0  0  0  0  0  0
  189.7640  175.1990  136.6830 C   0  0  2  0  0  3  0  0  0  0  0  0
  181.7820  174.8270  135.7700 O   0  0  0  0  0  0  0  0  0  0  0  0
  189.0070  178.2800  137.2660 O   0  0  0  0  0  0  0  0  0  0  0  0
  190.1820  171.3150  134.5950 O   0  0  0  0  0  1  0  0  0  0  0  0
  189.6550  172.4160  135.1840 N   0  0  0  0  0  2  0  0  0  0  0  0
  182.7490  176.9240  135.5030 N   0  0  0  0  0  2  0  0  0  0  0  0
  185.8320  172.7230  137.2990 C   0  0  2  0  0  3  0  0  0  0  0  0
  182.0520  184.1110  137.5220 N   0  0  0  0  0  2  0  0  0  0  0  0
  181.5540  183.1820  138.2510 C   0  0  0  0  0  3  0  0  0  0  0  0
  184.9170  179.2770  139.8310 C   0  0  0  0  0  2  0  0  0  0  0  0
  184.8310  179.7000  141.1870 O   0  0  0  0  0  0  0  0  0  0  0  0
  185.1440  178.8470  142.2430 C   0  0  0  0  0  0  0  0  0  0  0  0
  186.4840  178.3870  142.4310 N   0  0  0  0  0  2  0  0  0  0  0  0
  184.2270  178.4660  143.0170 O   0  0  0  0  0  0  0  0  0  0  0  0
  188.9700  177.4970  144.1920 N   0  0  2  0  0  0  0  0  0  0  0  0
  189.1970  178.3500  146.3810 N   0  0  0  0  0  2  0  0  0  0  0  0
  187.6110  177.8350  144.5000 C   0  0  2  0  0  0  0  0  0  0  0  0
  187.6060  176.3520  142.6730 O   0  0  0  0  0  0  0  0  0  0  0  0
  187.8340  177.8400  146.0140 C   0  0  2  0  0  0  0  0  0  0  0  0
  187.0730  176.7400  145.4950 C   0  0  0  0  0  2  0  0  0  0  0  0
  186.8060  177.3010  143.3450 C   0  0  2  0  0  3  0  0  0  0  0  0
  188.8440  176.3070  143.3550 C   0  0  1  0  0  3  0  0  0  0  0  0
  189.1330  177.1740  145.6070 C   0  0  1  0  0  3  0  0  0  0  0  0
  190.3380  177.6520  142.1760 C   0  0  0  0  0  1  0  0  0  0  0  0
  189.9280  176.2760  142.3890 N   0  0  0  0  0  2  0  0  0  0  0  0
  1  9  1  1  0  0  0
  3 17  1  0  0  0  0
  4 33  1  0  0  0  0
  4 30  1  0  0  0  0
  6 22  1  0  0  0  0
  7 10  1  0  0  0  0
  8 15  1  1  0  0  0
  8 21  1  0  0  0  0
  8 35  1  0  0  0  0
 10 32  1  0  0  0  0
 11 37  1  0  0  0  0
 12  1  1  0  0  0  0
 12  3  1  1  0  0  0
 13 15  1  6  0  0  0
 13 19  1  0  0  0  0
 14  6  1  0  0  0  0
 16 27  1  0  0  0  0
 16  5  1  1  0  0  0
 18 11  1  6  0  0  0
 18 16  1  0  0  0  0
 19 27  1  0  0  0  0
 20  2  1  1  0  0  0
 20  9  1  0  0  0  0
 20 22  1  0  0  0  0
 21 23  2  0  0  0  0
 22 44  1  6  0  0  0
 23 41  1  0  0  0  0
 24 13  1  0  0  0  0
 24  1  1  0  0  0  0
 25 41  1  0  0  0  0
 26 31  1  0  0  0  0
 26 29  2  0  0  0  0
 27 37  1  6  0  0  0
 28 30  1  1  0  0  0
 28  2  1  0  0  0  0
 29 21  1  0  0  0  0
 31 25  2  0  0  0  0
 32 43  1  1  0  0  0
 32 14  1  0  0  0  0
 33  7  1  0  0  0  0
 34 12  1  0  0  0  0
 35 18  1  0  0  0  0
 35 16  1  0  0  0  0
 36 34  2  0  0  0  0
 38 39  1  0  0  0  0
 39 29  1  0  0  0  0
 40 34  1  0  0  0  0
 40 28  1  0  0  0  0
 41 17  1  0  0  0  0
 42 43  2  0  0  0  0
 44 45  1  0  0  0  0
 45 46  1  0  0  0  0
 46 47  1  0  0  0  0
 46 48  2  0  0  0  0
 47 55  1  0  0  0  0
 49 51  1  0  0  0  0
 49 57  1  0  0  0  0
 51 54  1  0  0  0  0
 51 53  1  0  0  0  0
 52 55  1  0  0  0  0
 52 56  1  0  0  0  0
 53 50  1  0  0  0  0
 54 53  1  0  0  0  0
 55 51  1  0  0  0  0
 56 49  1  0  0  0  0
 57 53  1  0  0  0  0
 57 50  1  0  0  0  0
 58 59  1  0  0  0  0
 59 56  1  0  0  0  0
M  END
>  <MODEL>
1

>  <REMARK>
 VINA RESULT:      -9.0      0.000      0.000
  Name = 
  6 active torsions:
  status: ('A' for Active; 'I' for Inactive)
    1  A    between atoms: C_13  and  O_23
    2  A    between atoms: O_23  and  C_57
    3  A    between atoms: N_27  and  C_40
    4  A    between atoms: C_33  and  C_57
    5  A    between atoms: N_37  and  C_43
    6  A    between atoms: C_46  and  C_49
                            x       y       z     vdW  Elec       q    Type
                         _______ _______ _______ _____ _____    ______ ____

>  <TORSDO>
F 6

$$$$
=
 OpenBabel10222418173D

 59 69  0  0  1  0  0  0  0  0999 V2000
  184.6940  176.0260  137.3170 C   0  0  1  0  0  3  0  0  0  0  0  0
  181.7450  177.5640  137.6380 C   0  0  0  0  0  2  0  0  0  0  0  0
  183.7440  173.6450  137.5640 C   0  0  0  0  0  2  0  0  0  0  0  0
  179.6300  178.0670  134.5940 C   0  0  0  0  0  2  0  0  0  0  0  0
  190.3350  176.2000  138.7850 F   0  0  0  0  0  0  0  0  0  0  0  0
  182.6350  180.3800  138.4770 C   0  0  0  0  0  2  0  0  0  0  0  0
  178.9310  179.9270  136.4180 C   0  0  0  0  0  2  0  0  0  0  0  0
  188.3460  175.2270  135.6870 C   0  0  2  0  0  3  0  0  0  0  0  0
  183.9320  176.7190  138.4610 C   0  0  0  0  0  2  0  0  0  0  0  0
  179.1580  181.2570  137.1280 C   0  0  0  0  0  2  0  0  0  0  0  0
  189.5130  178.0690  135.9910 C   0  0  0  0  0  2  0  0  0  0  0  0
  183.9280  174.8680  136.6390 C   0  0  1  0  0  3  0  0  0  0  0  0
  186.5970  177.0520  136.4460 C   0  0  2  0  0  3  0  0  0  0  0  0
  181.1150  180.4440  138.5050 C   0  0  0  0  0  2  0  0  0  0  0  0
  187.3240  176.3200  135.3000 C   0  0  0  0  0  2  0  0  0  0  0  0
  189.5010  176.4290  137.7110 C   0  0  2  0  0  0  0  0  0  0  0  0
  184.9160  173.2290  138.2510 O   0  0  0  0  0  0  0  0  0  0  0  0
  190.3000  176.8860  136.5190 C   0  0  1  0  0  3  0  0  0  0  0  0
  187.1300  176.8640  137.7430 O   0  0  0  0  0  0  0  0  0  0  0  0
  183.1660  177.9630  138.0020 C   0  0  2  0  0  3  0  0  0  0  0  0
  187.7270  173.8990  136.0210 C   0  0  0  0  0  0  0  0  0  0  0  0
  183.1590  179.0720  139.0660 C   0  0  1  0  0  3  0  0  0  0  0  0
  186.7140  173.9120  136.8740 C   0  0  0  0  0  3  0  0  0  0  0  0
  185.1860  176.9480  136.3690 O   0  0  0  0  0  0  0  0  0  0  0  0
  185.4310  171.8660  136.2740 C   0  0  0  0  0  3  0  0  0  0  0  0
  187.6100  171.5930  135.1640 N   0  0  0  0  0  0  0  0  0  0  0  0
  188.4090  177.4610  137.8580 C   0  0  2  0  0  3  0  0  0  0  0  0
  181.5630  177.5620  136.1260 C   0  0  2  0  0  3  0  0  0  0  0  0
  188.3130  172.6510  135.4700 C   0  0  0  0  0  0  0  0  0  0  0  0
  180.1110  177.2590  135.7960 C   0  0  0  0  0  2  0  0  0  0  0  0
  186.2050  171.3420  135.3220 C   0  0  0  0  0  3  0  0  0  0  0  0
  180.6250  181.4730  137.4940 C   0  0  2  0  0  3  0  0  0  0  0  0
  179.8170  179.8740  134.8260 S   0  0  0  0  0  0  0  0  0  0  0  0
  182.6240  175.2760  135.9990 C   0  0  0  0  0  0  0  0  0  0  0  0
  189.6270  175.5080  136.5150 C   0  0  2  0  0  3  0  0  0  0  0  0
  181.6790  174.4500  135.8860 O   0  0  0  0  0  0  0  0  0  0  0  0
  188.6370  178.5430  136.9820 O   0  0  0  0  0  0  0  0  0  0  0  0
  190.3000  171.5750  134.5940 O   0  0  0  0  0  1  0  0  0  0  0  0
  189.7030  172.6560  135.1490 N   0  0  0  0  0  2  0  0  0  0  0  0
  182.4620  176.6030  135.4920 N   0  0  0  0  0  2  0  0  0  0  0  0
  185.9310  172.7560  137.3750 C   0  0  2  0  0  3  0  0  0  0  0  0
  181.2280  183.8020  137.2000 N   0  0  0  0  0  2  0  0  0  0  0  0
  180.8400  182.8700  137.9890 C   0  0  0  0  0  3  0  0  0  0  0  0
  184.5560  179.3300  139.6330 C   0  0  0  0  0  2  0  0  0  0  0  0
  184.7200  178.6720  140.8840 O   0  0  0  0  0  0  0  0  0  0  0  0
  185.7730  178.9800  141.7420 C   0  0  0  0  0  0  0  0  0  0  0  0
  187.0730  178.4250  141.5250 N   0  0  0  0  0  2  0  0  0  0  0  0
  185.5630  179.7360  142.7270 O   0  0  0  0  0  0  0  0  0  0  0  0
  188.5060  176.4360  143.5400 N   0  0  2  0  0  0  0  0  0  0  0  0
  190.3880  175.2120  142.8110 N   0  0  0  0  0  2  0  0  0  0  0  0
  188.9750  177.2630  142.4670 C   0  0  2  0  0  0  0  0  0  0  0  0
  187.5340  178.5470  143.8120 O   0  0  0  0  0  0  0  0  0  0  0  0
  190.3880  176.6760  142.4780 C   0  0  2  0  0  0  0  0  0  0  0  0
  190.2590  178.0130  142.9830 C   0  0  0  0  0  2  0  0  0  0  0  0
  188.1230  178.5030  142.5300 C   0  0  2  0  0  3  0  0  0  0  0  0
  187.9760  177.3960  144.5040 C   0  0  1  0  0  3  0  0  0  0  0  0
  189.9050  176.0990  143.7930 C   0  0  1  0  0  3  0  0  0  0  0  0
  186.2090  177.8750  145.9460 C   0  0  0  0  0  1  0  0  0  0  0  0
  186.8590  176.8020  145.2180 N   0  0  0  0  0  2  0  0  0  0  0  0
  1  9  1  1  0  0  0
  3 17  1  0  0  0  0
  4 33  1  0  0  0  0
  4 30  1  0  0  0  0
  6 14  1  0  0  0  0
  6 22  1  0  0  0  0
  7 10  1  0  0  0  0
  8 15  1  1  0  0  0
  8 21  1  0  0  0  0
  8 35  1  0  0  0  0
 10 32  1  0  0  0  0
 11 37  1  0  0  0  0
 12  1  1  0  0  0  0
 12  3  1  1  0  0  0
 13 15  1  6  0  0  0
 13 19  1  0  0  0  0
 16 27  1  0  0  0  0
 16  5  1  1  0  0  0
 18 11  1  6  0  0  0
 18 16  1  0  0  0  0
 19 27  1  0  0  0  0
 20  2  1  1  0  0  0
 20  9  1  0  0  0  0
 20 22  1  0  0  0  0
 21 23  2  0  0  0  0
 22 44  1  6  0  0  0
 23 41  1  0  0  0  0
 24 13  1  0  0  0  0
 24  1  1  0  0  0  0
 25 41  1  0  0  0  0
 26 31  1  0  0  0  0
 26 29  2  0  0  0  0
 27 37  1  6  0  0  0
 28 30  1  1  0  0  0
 28  2  1  0  0  0  0
 29 21  1  0  0  0  0
 31 25  2  0  0  0  0
 32 43  1  1  0  0  0
 32 14  1  0  0  0  0
 33  7  1  0  0  0  0
 34 12  1  0  0  0  0
 35 18  1  0  0  0  0
 35 16  1  0  0  0  0
 36 34  2  0  0  0  0
 38 39  1  0  0  0  0
 39 29  1  0  0  0  0
 40 34  1  0  0  0  0
 40 28  1  0  0  0  0
 41 17  1  0  0  0  0
 42 43  2  0  0  0  0
 44 45  1  0  0  0  0
 45 46  1  0  0  0  0
 46 48  2  0  0  0  0
 47 46  1  0  0  0  0
 47 55  1  0  0  0  0
 49 57  1  0  0  0  0
 49 56  1  0  0  0  0
 50 57  1  0  0  0  0
 51 53  1  0  0  0  0
 51 55  1  0  0  0  0
 51 54  1  0  0  0  0
 51 49  1  0  0  0  0
 52 56  1  0  0  0  0
 53 50  1  0  0  0  0
 53 54  1  0  0  0  0
 53 57  1  0  0  0  0
 55 52  1  0  0  0  0
 56 59  1  0  0  0  0
 59 58  1  0  0  0  0
M  END
>  <MODEL>
2

>  <REMARK>
 VINA RESULT:      -8.0      0.894      1.614
  Name = 
  6 active torsions:
  status: ('A' for Active; 'I' for Inactive)
    1  A    between atoms: C_13  and  O_23
    2  A    between atoms: O_23  and  C_57
    3  A    between atoms: N_27  and  C_40
    4  A    between atoms: C_33  and  C_57
    5  A    between atoms: N_37  and  C_43
    6  A    between atoms: C_46  and  C_49
                            x       y       z     vdW  Elec       q    Type
                         _______ _______ _______ _____ _____    ______ ____

>  <TORSDO>
F 6

$$$$
=
 OpenBabel10222418173D

 59 69  0  0  1  0  0  0  0  0999 V2000
  183.9100  178.2070  139.1030 C   0  0  1  0  0  3  0  0  0  0  0  0
  185.2690  176.6570  136.4730 C   0  0  0  0  0  2  0  0  0  0  0  0
  181.9540  179.2370  137.7830 C   0  0  0  0  0  2  0  0  0  0  0  0
  184.0510  173.2390  135.5650 C   0  0  0  0  0  2  0  0  0  0  0  0
  185.0500  181.2910  143.9190 F   0  0  0  0  0  0  0  0  0  0  0  0
  188.1520  176.2540  137.4500 C   0  0  0  0  0  2  0  0  0  0  0  0
  186.5520  173.5250  134.5940 C   0  0  0  0  0  2  0  0  0  0  0  0
  182.5430  178.6020  142.9260 C   0  0  2  0  0  3  0  0  0  0  0  0
  185.0580  178.5040  138.1230 C   0  0  0  0  0  2  0  0  0  0  0  0
  188.0660  173.5140  134.7730 C   0  0  0  0  0  2  0  0  0  0  0  0
  185.1860  177.8600  144.3390 C   0  0  0  0  0  2  0  0  0  0  0  0
  182.5370  177.9660  138.4370 C   0  0  1  0  0  3  0  0  0  0  0  0
  184.4240  177.6860  141.3160 C   0  0  2  0  0  3  0  0  0  0  0  0
  188.1570  175.7050  136.0310 C   0  0  0  0  0  2  0  0  0  0  0  0
  183.2400  177.3940  142.2600 C   0  0  0  0  0  2  0  0  0  0  0  0
  184.6600  180.0300  143.5240 C   0  0  2  0  0  0  0  0  0  0  0  0
  181.9990  180.4050  138.5920 O   0  0  0  0  0  0  0  0  0  0  0  0
  184.4750  179.1410  144.7260 C   0  0  1  0  0  3  0  0  0  0  0  0
  184.9500  178.9980  141.3640 O   0  0  0  0  0  0  0  0  0  0  0  0
  185.8570  177.2550  137.7420 C   0  0  2  0  0  3  0  0  0  0  0  0
  181.5500  179.3020  142.0420 C   0  0  0  0  0  0  0  0  0  0  0  0
  187.3540  177.5520  137.5530 C   0  0  1  0  0  3  0  0  0  0  0  0
  181.9560  179.6130  140.8200 C   0  0  0  0  0  3  0  0  0  0  0  0
  184.2350  177.1740  140.0080 O   0  0  0  0  0  0  0  0  0  0  0  0
  179.8380  179.6870  139.5140 C   0  0  0  0  0  3  0  0  0  0  0  0
  179.1280  179.7140  141.8690 N   0  0  0  0  0  0  0  0  0  0  0  0
  185.5750  179.2510  142.6090 C   0  0  2  0  0  3  0  0  0  0  0  0
  184.4850  175.3920  136.7950 C   0  0  2  0  0  3  0  0  0  0  0  0
  180.2210  179.6860  142.5830 C   0  0  0  0  0  0  0  0  0  0  0  0
  183.9940  174.7630  135.5020 C   0  0  0  0  0  2  0  0  0  0  0  0
  178.9350  179.4640  140.4680 C   0  0  0  0  0  3  0  0  0  0  0  0
  188.5010  174.2210  136.0550 C   0  0  2  0  0  3  0  0  0  0  0  0
  185.7280  172.6000  135.9320 S   0  0  0  0  0  0  0  0  0  0  0  0
  182.5040  176.7930  137.4880 C   0  0  0  0  0  0  0  0  0  0  0  0
  183.2630  179.5770  143.8940 C   0  0  2  0  0  3  0  0  0  0  0  0
  181.6980  176.7740  136.5200 O   0  0  0  0  0  0  0  0  0  0  0  0
  186.0630  178.1030  143.2680 O   0  0  0  0  0  0  0  0  0  0  0  0
  178.9340  180.2260  144.5640 O   0  0  0  0  0  1  0  0  0  0  0  0
  180.1200  179.9230  143.9860 N   0  0  0  0  0  2  0  0  0  0  0  0
  183.3760  175.6790  137.6990 N   0  0  0  0  0  2  0  0  0  0  0  0
  181.1870  180.3020  139.7550 C   0  0  2  0  0  3  0  0  0  0  0  0
  190.4020  173.7110  137.4700 N   0  0  0  0  0  2  0  0  0  0  0  0
  189.9620  174.0020  136.3020 C   0  0  0  0  0  3  0  0  0  0  0  0
  187.9240  178.3720  138.7120 C   0  0  0  0  0  2  0  0  0  0  0  0
  188.0290  177.5760  139.8870 O   0  0  0  0  0  0  0  0  0  0  0  0
  189.0450  177.7740  140.8190 C   0  0  0  0  0  0  0  0  0  0  0  0
  188.7690  177.7010  142.2200 N   0  0  0  0  0  2  0  0  0  0  0  0
  190.2060  178.0430  140.4140 O   0  0  0  0  0  0  0  0  0  0  0  0
  190.0410  176.5700  144.8980 N   0  0  2  0  0  0  0  0  0  0  0  0
  191.9950  175.2520  144.7800 N   0  0  0  0  0  2  0  0  0  0  0  0
  190.5930  177.0050  143.6490 C   0  0  2  0  0  0  0  0  0  0  0  0
  189.0220  178.6060  144.3590 O   0  0  0  0  0  0  0  0  0  0  0  0
  192.0070  176.5160  143.9710 C   0  0  2  0  0  0  0  0  0  0  0  0
  191.8160  177.9390  143.9810 C   0  0  0  0  0  2  0  0  0  0  0  0
  189.7230  178.1570  143.2190 C   0  0  2  0  0  3  0  0  0  0  0  0
  189.4150  177.7750  145.4330 C   0  0  1  0  0  3  0  0  0  0  0  0
  191.4150  176.3970  145.3610 C   0  0  1  0  0  3  0  0  0  0  0  0
  188.6860  177.2850  147.5920 C   0  0  0  0  0  1  0  0  0  0  0  0
  188.2460  177.4100  146.2150 N   0  0  0  0  0  2  0  0  0  0  0  0
  1  9  1  6  0  0  0
  1 24  1  0  0  0  0
  2 28  1  0  0  0  0
  3 17  1  0  0  0  0
  4 33  1  0  0  0  0
  6 22  1  0  0  0  0
  7 10  1  0  0  0  0
  7 33  1  0  0  0  0
  8 15  1  6  0  0  0
  8 35  1  0  0  0  0
 10 32  1  0  0  0  0
 12  3  1  6  0  0  0
 12  1  1  0  0  0  0
 13 19  1  0  0  0  0
 13 15  1  6  0  0  0
 14 32  1  0  0  0  0
 14  6  1  0  0  0  0
 16 35  1  0  0  0  0
 16  5  1  1  0  0  0
 16 18  1  0  0  0  0
 17 41  1  0  0  0  0
 18 11  1  6  0  0  0
 20  2  1  6  0  0  0
 20  9  1  0  0  0  0
 21 29  1  0  0  0  0
 21  8  1  0  0  0  0
 22 20  1  0  0  0  0
 22 44  1  1  0  0  0
 23 21  2  0  0  0  0
 24 13  1  0  0  0  0
 25 41  1  0  0  0  0
 25 31  2  0  0  0  0
 26 29  2  0  0  0  0
 27 19  1  6  0  0  0
 27 37  1  0  0  0  0
 27 16  1  0  0  0  0
 28 30  1  6  0  0  0
 28 40  1  0  0  0  0
 29 39  1  0  0  0  0
 30  4  1  0  0  0  0
 31 26  1  0  0  0  0
 32 43  1  6  0  0  0
 34 40  1  0  0  0  0
 34 12  1  0  0  0  0
 35 18  1  0  0  0  0
 36 34  2  0  0  0  0
 37 11  1  0  0  0  0
 39 38  1  0  0  0  0
 41 23  1  0  0  0  0
 43 42  2  0  0  0  0
 44 45  1  0  0  0  0
 45 46  1  0  0  0  0
 46 47  1  0  0  0  0
 47 55  1  0  0  0  0
 48 46  2  0  0  0  0
 49 57  1  0  0  0  0
 49 56  1  0  0  0  0
 50 57  1  0  0  0  0
 51 53  1  0  0  0  0
 51 54  1  0  0  0  0
 51 49  1  0  0  0  0
 52 56  1  0  0  0  0
 53 54  1  0  0  0  0
 53 50  1  0  0  0  0
 53 57  1  0  0  0  0
 55 51  1  0  0  0  0
 55 52  1  0  0  0  0
 56 59  1  0  0  0  0
 59 58  1  0  0  0  0
M  END
>  <MODEL>
3

>  <REMARK>
 VINA RESULT:      -6.6      3.053      7.790
  Name = 
  6 active torsions:
  status: ('A' for Active; 'I' for Inactive)
    1  A    between atoms: C_13  and  O_23
    2  A    between atoms: O_23  and  C_57
    3  A    between atoms: N_27  and  C_40
    4  A    between atoms: C_33  and  C_57
    5  A    between atoms: N_37  and  C_43
    6  A    between atoms: C_46  and  C_49
                            x       y       z     vdW  Elec       q    Type
                         _______ _______ _______ _____ _____    ______ ____

>  <TORSDO>
F 6

$$$$
