=
 OpenBabel10222416293D

 32 35  0  0  1  0  0  0  0  0999 V2000
  185.5890  178.3540  141.7380 C   0  0  0  0  0  0  0  0  0  0  0  0
  179.9220  176.3500  136.2730 C   0  0  0  0  0  2  0  0  0  0  0  0
  181.3100  179.3160  134.7580 C   0  0  0  0  0  1  0  0  0  0  0  0
  178.9310  176.9770  140.7260 C   0  0  0  0  0  2  0  0  0  0  0  0
  183.1100  177.7610  137.0690 N   0  0  0  0  0  2  0  0  0  0  0  0
  180.1220  177.2110  135.1080 N   0  0  0  0  0  2  0  0  0  0  0  0
  179.5110  179.1630  143.6750 O   0  0  0  0  0  1  0  0  0  0  0  0
  180.5340  174.8960  138.8910 C   0  0  1  0  0  3  0  0  0  0  0  0
  181.2920  176.0960  138.3830 C   0  0  0  0  0  0  0  0  0  0  0  0
  179.3420  177.3460  142.1380 C   0  0  0  0  0  2  0  0  0  0  0  0
  185.2790  177.9890  144.7710 C   0  0  0  0  0  3  0  0  0  0  0  0
  186.3420  177.6930  144.0120 C   0  0  0  0  0  3  0  0  0  0  0  0
  184.5920  177.7360  138.8820 O   0  0  0  0  0  0  0  0  0  0  0  0
  183.2420  177.7300  138.5270 C   0  0  2  0  0  3  0  0  0  0  0  0
  182.3500  179.2060  142.8700 N   0  0  0  0  0  0  0  0  0  0  0  0
  184.1950  178.9690  144.4020 C   0  0  2  0  0  3  0  0  0  0  0  0
  179.3230  178.8570  142.3280 C   0  0  2  0  0  3  0  0  0  0  0  0
  181.4000  177.9040  135.3030 C   0  0  2  0  0  3  0  0  0  0  0  0
  184.1910  177.8740  142.0220 C   0  0  0  0  0  2  0  0  0  0  0  0
  184.8160  179.0080  139.4120 C   0  0  0  0  0  2  0  0  0  0  0  0
  181.6900  177.9400  136.7870 C   0  0  1  0  0  3  0  0  0  0  0  0
  179.1960  175.2200  139.1460 O   0  0  0  0  0  0  0  0  0  0  0  0
  185.9620  178.9580  140.4140 C   0  0  0  0  0  2  0  0  0  0  0  0
  182.5590  176.4810  139.1150 C   0  0  0  0  0  2  0  0  0  0  0  0
  179.1430  175.4910  140.5150 C   0  0  0  0  0  2  0  0  0  0  0  0
  180.3870  179.5550  141.4780 C   0  0  0  0  0  2  0  0  0  0  0  0
  180.9290  176.7730  137.2730 C   0  0  0  0  0  0  0  0  0  0  0  0
  183.5280  178.7070  143.0800 C   0  0  0  0  0  0  0  0  0  0  0  0
  181.6760  178.9980  141.6870 O   0  0  0  0  0  0  0  0  0  0  0  0
  180.6190  173.7280  137.9240 C   0  0  0  0  0  1  0  0  0  0  0  0
  186.5590  178.2020  142.6430 C   0  0  0  0  0  3  0  0  0  0  0  0
  184.7100  180.3970  144.4720 C   0  0  0  0  0  1  0  0  0  0  0  0
  1 19  1  0  0  0  0
  1 31  2  0  0  0  0
  2 27  1  0  0  0  0
  4 10  1  0  0  0  0
  5 14  1  0  0  0  0
  6 18  1  0  0  0  0
  6  2  1  0  0  0  0
  8 30  1  6  0  0  0
  8 22  1  0  0  0  0
  9  8  1  0  0  0  0
  9 24  1  0  0  0  0
 10 17  1  0  0  0  0
 12 11  2  0  0  0  0
 13 20  1  0  0  0  0
 14 13  1  0  0  0  0
 14 24  1  6  0  0  0
 15 28  2  0  0  0  0
 16 32  1  6  0  0  0
 16 11  1  0  0  0  0
 17  7  1  1  0  0  0
 18  3  1  1  0  0  0
 18 21  1  0  0  0  0
 19 28  1  0  0  0  0
 20 23  1  0  0  0  0
 21  5  1  6  0  0  0
 21 27  1  0  0  0  0
 22 25  1  0  0  0  0
 23  1  1  0  0  0  0
 25  4  1  0  0  0  0
 26 29  1  0  0  0  0
 26 17  1  0  0  0  0
 27  9  2  0  0  0  0
 28 16  1  0  0  0  0
 29 15  1  0  0  0  0
 31 12  1  0  0  0  0
M  END
>  <MODEL>
1

>  <REMARK>
 VINA RESULT:      -6.7      0.000      0.000
  Name = 
  0 active torsions:
  status: ('A' for Active; 'I' for Inactive)
                            x       y       z     vdW  Elec       q    Type
                         _______ _______ _______ _____ _____    ______ ____

>  <TORSDO>
F 0

$$$$
=
 OpenBabel10222416293D

 32 35  0  0  1  0  0  0  0  0999 V2000
  187.8290  178.2850  138.8140 C   0  0  0  0  0  0  0  0  0  0  0  0
  180.0150  179.7670  140.4710 C   0  0  0  0  0  2  0  0  0  0  0  0
  181.0670  178.1620  143.5260 C   0  0  0  0  0  1  0  0  0  0  0  0
  181.3350  177.4210  136.7340 C   0  0  0  0  0  2  0  0  0  0  0  0
  183.4090  179.4230  141.5450 N   0  0  0  0  0  2  0  0  0  0  0  0
  179.8090  179.4620  141.8860 N   0  0  0  0  0  2  0  0  0  0  0  0
  183.6080  174.7620  135.4780 O   0  0  0  0  0  1  0  0  0  0  0  0
  181.4880  180.4130  137.8720 C   0  0  1  0  0  3  0  0  0  0  0  0
  182.1330  179.8000  139.0890 C   0  0  0  0  0  0  0  0  0  0  0  0
  182.4140  176.7890  135.8760 C   0  0  0  0  0  2  0  0  0  0  0  0
  188.8980  177.5120  136.0400 C   0  0  0  0  0  3  0  0  0  0  0  0
  189.4120  178.3990  136.9010 C   0  0  0  0  0  3  0  0  0  0  0  0
  185.5280  179.3910  140.5500 O   0  0  0  0  0  0  0  0  0  0  0  0
  184.1930  179.0250  140.3740 C   0  0  2  0  0  3  0  0  0  0  0  0
  185.7040  176.0070  137.1430 N   0  0  0  0  0  0  0  0  0  0  0  0
  187.9690  176.3830  136.4090 C   0  0  2  0  0  3  0  0  0  0  0  0
  182.7650  175.3990  136.3890 C   0  0  2  0  0  3  0  0  0  0  0  0
  181.1360  179.2530  142.4770 C   0  0  2  0  0  3  0  0  0  0  0  0
  186.6600  178.1100  137.8820 C   0  0  0  0  0  2  0  0  0  0  0  0
  186.2040  178.1870  140.7580 C   0  0  0  0  0  2  0  0  0  0  0  0
  182.0800  178.8460  141.3680 C   0  0  1  0  0  3  0  0  0  0  0  0
  180.5070  179.5650  137.3440 O   0  0  0  0  0  0  0  0  0  0  0  0
  187.6520  178.3200  140.3040 C   0  0  0  0  0  2  0  0  0  0  0  0
  183.6410  179.6820  139.0950 C   0  0  0  0  0  2  0  0  0  0  0  0
  181.1450  178.8660  136.3180 C   0  0  0  0  0  2  0  0  0  0  0  0
  183.4230  175.4460  137.7690 C   0  0  0  0  0  2  0  0  0  0  0  0
  181.4300  179.4360  140.1820 C   0  0  0  0  0  0  0  0  0  0  0  0
  186.7300  176.8000  137.1520 C   0  0  0  0  0  0  0  0  0  0  0  0
  184.5340  176.3300  137.7930 O   0  0  0  0  0  0  0  0  0  0  0  0
  180.8980  181.7790  138.1770 C   0  0  0  0  0  1  0  0  0  0  0  0
  189.0610  178.4750  138.3330 C   0  0  0  0  0  3  0  0  0  0  0  0
  188.7120  175.2960  137.1670 C   0  0  0  0  0  1  0  0  0  0  0  0
  1 23  1  0  0  0  0
  2  6  1  0  0  0  0
  6 18  1  0  0  0  0
  8 30  1  1  0  0  0
  8  9  1  0  0  0  0
  9 24  1  0  0  0  0
  9 27  2  0  0  0  0
 10 17  1  0  0  0  0
 10  4  1  0  0  0  0
 11 16  1  0  0  0  0
 11 12  2  0  0  0  0
 12 31  1  0  0  0  0
 13 20  1  0  0  0  0
 14 24  1  6  0  0  0
 14 13  1  0  0  0  0
 14  5  1  0  0  0  0
 15 28  2  0  0  0  0
 15 29  1  0  0  0  0
 16 28  1  0  0  0  0
 16 32  1  1  0  0  0
 17  7  1  6  0  0  0
 17 26  1  0  0  0  0
 18  3  1  1  0  0  0
 19  1  1  0  0  0  0
 21 27  1  6  0  0  0
 21  5  1  0  0  0  0
 21 18  1  0  0  0  0
 22  8  1  0  0  0  0
 23 20  1  0  0  0  0
 25  4  1  0  0  0  0
 25 22  1  0  0  0  0
 26 29  1  0  0  0  0
 27  2  1  0  0  0  0
 28 19  1  0  0  0  0
 31  1  2  0  0  0  0
M  END
>  <MODEL>
2

>  <REMARK>
 VINA RESULT:      -6.7      3.005      6.305
  Name = 
  0 active torsions:
  status: ('A' for Active; 'I' for Inactive)
                            x       y       z     vdW  Elec       q    Type
                         _______ _______ _______ _____ _____    ______ ____

>  <TORSDO>
F 0

$$$$
=
 OpenBabel10222416293D

 32 35  0  0  1  0  0  0  0  0999 V2000
  190.2530  177.1780  142.0960 C   0  0  0  0  0  0  0  0  0  0  0  0
  193.1150  175.1680  134.7630 C   0  0  0  0  0  2  0  0  0  0  0  0
  195.4280  177.7720  135.7070 C   0  0  0  0  0  1  0  0  0  0  0  0
  188.7330  176.4130  135.4360 C   0  0  0  0  0  2  0  0  0  0  0  0
  193.6640  176.3130  138.1070 N   0  0  0  0  0  2  0  0  0  0  0  0
  194.3920  175.8620  134.5940 N   0  0  0  0  0  2  0  0  0  0  0  0
  186.5090  178.8530  137.1430 O   0  0  0  0  0  1  0  0  0  0  0  0
  190.6770  173.9730  136.1660 C   0  0  1  0  0  3  0  0  0  0  0  0
  191.5820  175.0170  136.7680 C   0  0  0  0  0  0  0  0  0  0  0  0
  187.6150  176.8980  136.3380 C   0  0  0  0  0  2  0  0  0  0  0  0
  187.2760  177.2050  142.8480 C   0  0  0  0  0  3  0  0  0  0  0  0
  188.2990  176.7100  143.5580 C   0  0  0  0  0  3  0  0  0  0  0  0
  192.4790  176.3420  140.1260 O   0  0  0  0  0  0  0  0  0  0  0  0
  192.3490  176.4380  138.7390 C   0  0  2  0  0  3  0  0  0  0  0  0
  188.2270  178.4980  139.5170 N   0  0  0  0  0  0  0  0  0  0  0  0
  187.3950  178.2450  141.7650 C   0  0  2  0  0  3  0  0  0  0  0  0
  187.6530  178.4140  136.4770 C   0  0  2  0  0  3  0  0  0  0  0  0
  194.7460  176.4320  135.8980 C   0  0  2  0  0  3  0  0  0  0  0  0
  189.4450  176.8870  140.8600 C   0  0  0  0  0  2  0  0  0  0  0  0
  192.2480  177.6350  140.5980 C   0  0  0  0  0  2  0  0  0  0  0  0
  193.4700  176.6090  136.6910 C   0  0  1  0  0  3  0  0  0  0  0  0
  190.0340  174.4650  135.0240 O   0  0  0  0  0  0  0  0  0  0  0  0
  191.6980  177.5800  142.0170 C   0  0  0  0  0  2  0  0  0  0  0  0
  191.3890  175.3470  138.2320 C   0  0  0  0  0  2  0  0  0  0  0  0
  188.7840  174.8980  135.4710 C   0  0  0  0  0  2  0  0  0  0  0  0
  188.9060  178.8910  137.2150 C   0  0  0  0  0  2  0  0  0  0  0  0
  192.5900  175.5950  136.0810 C   0  0  0  0  0  0  0  0  0  0  0  0
  188.3590  177.9040  140.6610 C   0  0  0  0  0  0  0  0  0  0  0  0
  189.0670  178.2260  138.4600 O   0  0  0  0  0  0  0  0  0  0  0  0
  191.4340  172.6970  135.8370 C   0  0  0  0  0  1  0  0  0  0  0  0
  189.7190  177.0300  143.3110 C   0  0  0  0  0  3  0  0  0  0  0  0
  187.7130  179.6090  142.3560 C   0  0  0  0  0  1  0  0  0  0  0  0
  1 31  2  0  0  0  0
  2 27  1  0  0  0  0
  4 25  1  0  0  0  0
  4 10  1  0  0  0  0
  5 14  1  0  0  0  0
  6  2  1  0  0  0  0
  6 18  1  0  0  0  0
  8 30  1  6  0  0  0
  8  9  1  0  0  0  0
  9 24  1  0  0  0  0
 10 17  1  0  0  0  0
 11 12  2  0  0  0  0
 13 20  1  0  0  0  0
 14 24  1  6  0  0  0
 14 13  1  0  0  0  0
 15 28  2  0  0  0  0
 16 32  1  1  0  0  0
 16 11  1  0  0  0  0
 17  7  1  1  0  0  0
 17 26  1  0  0  0  0
 18  3  1  6  0  0  0
 18 21  1  0  0  0  0
 19  1  1  0  0  0  0
 20 23  1  0  0  0  0
 21 27  1  6  0  0  0
 21  5  1  0  0  0  0
 22 25  1  0  0  0  0
 22  8  1  0  0  0  0
 23  1  1  0  0  0  0
 26 29  1  0  0  0  0
 27  9  2  0  0  0  0
 28 19  1  0  0  0  0
 28 16  1  0  0  0  0
 29 15  1  0  0  0  0
 31 12  1  0  0  0  0
M  END
>  <MODEL>
3

>  <REMARK>
 VINA RESULT:      -6.0      6.793      9.436
  Name = 
  0 active torsions:
  status: ('A' for Active; 'I' for Inactive)
                            x       y       z     vdW  Elec       q    Type
                         _______ _______ _______ _____ _____    ______ ____

>  <TORSDO>
F 0

$$$$
=
 OpenBabel10222416293D

 32 35  0  0  1  0  0  0  0  0999 V2000
  189.0150  176.8130  136.6190 C   0  0  0  0  0  0  0  0  0  0  0  0
  181.1520  178.0320  138.2580 C   0  0  0  0  0  2  0  0  0  0  0  0
  182.6130  178.5390  141.5180 C   0  0  0  0  0  1  0  0  0  0  0  0
  182.6770  174.1770  136.2530 C   0  0  0  0  0  2  0  0  0  0  0  0
  184.6010  178.7480  138.8710 N   0  0  0  0  0  2  0  0  0  0  0  0
  181.0710  178.5450  139.6250 N   0  0  0  0  0  2  0  0  0  0  0  0
  185.3150  171.5600  136.3430 O   0  0  0  0  0  1  0  0  0  0  0  0
  182.3620  177.2880  135.5520 C   0  0  1  0  0  3  0  0  0  0  0  0
  183.1610  177.5380  136.8050 C   0  0  0  0  0  0  0  0  0  0  0  0
  183.8060  173.3070  135.7370 C   0  0  0  0  0  2  0  0  0  0  0  0
  190.0660  174.7580  134.5940 C   0  0  0  0  0  3  0  0  0  0  0  0
  190.4590  176.0280  134.7550 C   0  0  0  0  0  3  0  0  0  0  0  0
  186.6430  178.4180  137.7730 O   0  0  0  0  0  0  0  0  0  0  0  0
  185.3850  177.8610  138.0080 C   0  0  2  0  0  3  0  0  0  0  0  0
  187.2410  173.7580  136.7600 N   0  0  0  0  0  0  0  0  0  0  0  0
  189.3670  173.9260  135.6380 C   0  0  2  0  0  3  0  0  0  0  0  0
  184.4190  172.4910  136.8680 C   0  0  2  0  0  3  0  0  0  0  0  0
  182.4400  178.8590  140.0460 C   0  0  2  0  0  3  0  0  0  0  0  0
  187.8500  176.0120  136.1020 C   0  0  0  0  0  2  0  0  0  0  0  0
  187.5270  177.6240  138.5060 C   0  0  0  0  0  2  0  0  0  0  0  0
  183.3860  178.0180  139.2190 C   0  0  1  0  0  3  0  0  0  0  0  0
  181.5190  176.1810  135.7090 O   0  0  0  0  0  0  0  0  0  0  0  0
  188.9060  177.6510  137.8600 C   0  0  0  0  0  2  0  0  0  0  0  0
  184.6660  177.6230  136.6670 C   0  0  0  0  0  2  0  0  0  0  0  0
  182.2180  175.1100  135.1500 C   0  0  0  0  0  2  0  0  0  0  0  0
  185.1240  173.3770  137.8960 C   0  0  0  0  0  2  0  0  0  0  0  0
  182.5860  177.7660  138.0050 C   0  0  0  0  0  0  0  0  0  0  0  0
  188.1110  174.5360  136.1980 C   0  0  0  0  0  0  0  0  0  0  0  0
  186.0650  174.2480  137.2840 O   0  0  0  0  0  0  0  0  0  0  0  0
  181.5580  178.5110  135.1450 C   0  0  0  0  0  1  0  0  0  0  0  0
  190.1700  176.8460  135.9490 C   0  0  0  0  0  3  0  0  0  0  0  0
  190.3240  173.5430  136.7550 C   0  0  0  0  0  1  0  0  0  0  0  0
  1 23  1  0  0  0  0
  2  6  1  0  0  0  0
  5 21  1  0  0  0  0
  6 18  1  0  0  0  0
  8 30  1  1  0  0  0
  8 22  1  0  0  0  0
  8  9  1  0  0  0  0
  9 27  2  0  0  0  0
 10  4  1  0  0  0  0
 10 17  1  0  0  0  0
 11 12  2  0  0  0  0
 11 16  1  0  0  0  0
 12 31  1  0  0  0  0
 13 14  1  0  0  0  0
 13 20  1  0  0  0  0
 14 24  1  6  0  0  0
 14  5  1  0  0  0  0
 15 29  1  0  0  0  0
 16 28  1  0  0  0  0
 16 32  1  1  0  0  0
 17  7  1  6  0  0  0
 17 26  1  0  0  0  0
 18  3  1  1  0  0  0
 19 28  1  0  0  0  0
 19  1  1  0  0  0  0
 21 27  1  6  0  0  0
 21 18  1  0  0  0  0
 23 20  1  0  0  0  0
 24  9  1  0  0  0  0
 25 22  1  0  0  0  0
 25  4  1  0  0  0  0
 27  2  1  0  0  0  0
 28 15  2  0  0  0  0
 29 26  1  0  0  0  0
 31  1  2  0  0  0  0
M  END
>  <MODEL>
4

>  <REMARK>
 VINA RESULT:      -5.8      4.475      7.120
  Name = 
  0 active torsions:
  status: ('A' for Active; 'I' for Inactive)
                            x       y       z     vdW  Elec       q    Type
                         _______ _______ _______ _____ _____    ______ ____

>  <TORSDO>
F 0

$$$$
=
 OpenBabel10222416293D

 32 35  0  0  1  0  0  0  0  0999 V2000
  188.2100  177.6070  137.3650 C   0  0  0  0  0  0  0  0  0  0  0  0
  180.9980  179.3160  140.6920 C   0  0  0  0  0  2  0  0  0  0  0  0
  182.8730  178.3170  143.6080 C   0  0  0  0  0  1  0  0  0  0  0  0
  181.4580  176.3230  137.2220 C   0  0  0  0  0  2  0  0  0  0  0  0
  184.5660  179.2030  140.8970 N   0  0  0  0  0  2  0  0  0  0  0  0
  181.1730  179.2790  142.1440 N   0  0  0  0  0  2  0  0  0  0  0  0
  183.4840  173.4930  135.9180 O   0  0  0  0  0  1  0  0  0  0  0  0
  181.7290  179.4750  137.7290 C   0  0  1  0  0  3  0  0  0  0  0  0
  182.6920  179.1050  138.8270 C   0  0  0  0  0  0  0  0  0  0  0  0
  182.3190  175.5490  136.2420 C   0  0  0  0  0  2  0  0  0  0  0  0
  188.5840  176.3380  134.5940 C   0  0  0  0  0  3  0  0  0  0  0  0
  189.2500  177.3740  135.1200 C   0  0  0  0  0  3  0  0  0  0  0  0
  186.3640  179.0020  139.4100 O   0  0  0  0  0  0  0  0  0  0  0  0
  185.0490  178.5990  139.6530 C   0  0  2  0  0  3  0  0  0  0  0  0
  185.8610  175.0420  136.7340 N   0  0  0  0  0  0  0  0  0  0  0  0
  187.8420  175.2910  135.3850 C   0  0  2  0  0  3  0  0  0  0  0  0
  182.8640  174.2820  136.8860 C   0  0  2  0  0  3  0  0  0  0  0  0
  182.6150  179.1930  142.3990 C   0  0  2  0  0  3  0  0  0  0  0  0
  186.8550  177.2530  136.8140 C   0  0  0  0  0  2  0  0  0  0  0  0
  187.1360  177.8630  139.6480 C   0  0  0  0  0  2  0  0  0  0  0  0
  183.2700  178.5930  141.1740 C   0  0  1  0  0  3  0  0  0  0  0  0
  180.6940  178.5370  137.6330 O   0  0  0  0  0  0  0  0  0  0  0  0
  188.4120  177.9180  138.8190 C   0  0  0  0  0  2  0  0  0  0  0  0
  184.1580  179.0020  138.4640 C   0  0  0  0  0  2  0  0  0  0  0  0
  181.0900  177.6630  136.6180 C   0  0  0  0  0  2  0  0  0  0  0  0
  183.8450  174.5900  138.0190 C   0  0  0  0  0  2  0  0  0  0  0  0
  182.3090  178.9470  140.1120 C   0  0  0  0  0  0  0  0  0  0  0  0
  186.8100  175.8300  136.3370 C   0  0  0  0  0  0  0  0  0  0  0  0
  184.8760  175.4720  137.5960 O   0  0  0  0  0  0  0  0  0  0  0  0
  181.1600  180.8700  137.9270 C   0  0  0  0  0  1  0  0  0  0  0  0
  189.2680  177.7130  136.5560 C   0  0  0  0  0  3  0  0  0  0  0  0
  188.8120  174.3700  136.1070 C   0  0  0  0  0  1  0  0  0  0  0  0
  1 23  1  0  0  0  0
  2  6  1  0  0  0  0
  5 21  1  0  0  0  0
  6 18  1  0  0  0  0
  8 30  1  1  0  0  0
  8  9  1  0  0  0  0
  9 27  2  0  0  0  0
 10 17  1  0  0  0  0
 10  4  1  0  0  0  0
 11 12  2  0  0  0  0
 11 16  1  0  0  0  0
 12 31  1  0  0  0  0
 13 20  1  0  0  0  0
 13 14  1  0  0  0  0
 14 24  1  6  0  0  0
 14  5  1  0  0  0  0
 15 29  1  0  0  0  0
 16 32  1  1  0  0  0
 16 28  1  0  0  0  0
 17  7  1  6  0  0  0
 17 26  1  0  0  0  0
 18  3  1  1  0  0  0
 19  1  1  0  0  0  0
 21 27  1  6  0  0  0
 21 18  1  0  0  0  0
 22  8  1  0  0  0  0
 23 20  1  0  0  0  0
 24  9  1  0  0  0  0
 25  4  1  0  0  0  0
 25 22  1  0  0  0  0
 27  2  1  0  0  0  0
 28 15  2  0  0  0  0
 28 19  1  0  0  0  0
 29 26  1  0  0  0  0
 31  1  2  0  0  0  0
M  END
>  <MODEL>
5

>  <REMARK>
 VINA RESULT:      -5.8      3.485      6.698
  Name = 
  0 active torsions:
  status: ('A' for Active; 'I' for Inactive)
                            x       y       z     vdW  Elec       q    Type
                         _______ _______ _______ _____ _____    ______ ____

>  <TORSDO>
F 0

$$$$
=
 OpenBabel10222416293D

 32 35  0  0  1  0  0  0  0  0999 V2000
  180.6510  182.4030  135.6290 C   0  0  0  0  0  0  0  0  0  0  0  0
  182.0630  174.5610  137.2160 C   0  0  0  0  0  2  0  0  0  0  0  0
  178.9400  174.3410  135.4240 C   0  0  0  0  0  1  0  0  0  0  0  0
  181.9420  177.7580  140.5290 C   0  0  0  0  0  2  0  0  0  0  0  0
  180.7330  177.1110  135.0910 N   0  0  0  0  0  2  0  0  0  0  0  0
  181.0760  173.7850  136.4670 N   0  0  0  0  0  2  0  0  0  0  0  0
  180.0950  180.7170  141.8100 O   0  0  0  0  0  1  0  0  0  0  0  0
  183.7970  176.9370  138.0490 C   0  0  1  0  0  3  0  0  0  0  0  0
  182.5440  177.0440  137.2170 C   0  0  0  0  0  0  0  0  0  0  0  0
  181.7300  179.1880  140.9860 C   0  0  0  0  0  2  0  0  0  0  0  0
  181.3540  184.7100  137.5290 C   0  0  0  0  0  3  0  0  0  0  0  0
  181.5580  184.6430  136.2080 C   0  0  0  0  0  3  0  0  0  0  0  0
  180.9520  179.4300  134.8500 O   0  0  0  0  0  0  0  0  0  0  0  0
  180.9260  178.3890  135.7800 C   0  0  2  0  0  3  0  0  0  0  0  0
  179.9480  181.6250  139.0050 N   0  0  0  0  0  0  0  0  0  0  0  0
  180.3450  183.8930  138.2940 C   0  0  2  0  0  3  0  0  0  0  0  0
  180.2500  179.4700  141.2060 C   0  0  2  0  0  3  0  0  0  0  0  0
  180.4030  174.7150  135.5540 C   0  0  2  0  0  3  0  0  0  0  0  0
  181.1670  181.8210  136.9180 C   0  0  0  0  0  2  0  0  0  0  0  0
  179.7470  180.1080  135.0390 C   0  0  0  0  0  2  0  0  0  0  0  0
  180.5310  176.1080  136.1310 C   0  0  1  0  0  3  0  0  0  0  0  0
  183.5100  176.4370  139.3240 O   0  0  0  0  0  0  0  0  0  0  0  0
  179.9020  181.5670  134.6320 C   0  0  0  0  0  2  0  0  0  0  0  0
  182.2360  178.3850  136.5890 C   0  0  0  0  0  2  0  0  0  0  0  0
  183.3940  177.5660  140.1380 C   0  0  0  0  0  2  0  0  0  0  0  0
  179.4560  179.4180  139.9000 C   0  0  0  0  0  2  0  0  0  0  0  0
  181.7490  175.9840  136.9540 C   0  0  0  0  0  0  0  0  0  0  0  0
  180.4610  182.4060  138.1070 C   0  0  0  0  0  0  0  0  0  0  0  0
  180.0270  180.2540  138.9030 O   0  0  0  0  0  0  0  0  0  0  0  0
  184.8490  176.0780  137.3690 C   0  0  0  0  0  1  0  0  0  0  0  0
  180.8990  183.6750  135.3090 C   0  0  0  0  0  3  0  0  0  0  0  0
  178.9310  184.3650  137.9990 C   0  0  0  0  0  1  0  0  0  0  0  0
  1 19  1  0  0  0  0
  4 10  1  0  0  0  0
  5 14  1  0  0  0  0
  6  2  1  0  0  0  0
  8 30  1  6  0  0  0
  8 22  1  0  0  0  0
  9  8  1  0  0  0  0
 10 17  1  0  0  0  0
 11 16  1  0  0  0  0
 12 11  2  0  0  0  0
 13 20  1  0  0  0  0
 13 14  1  0  0  0  0
 14 24  1  6  0  0  0
 16 32  1  6  0  0  0
 17  7  1  6  0  0  0
 18  3  1  1  0  0  0
 18 21  1  0  0  0  0
 18  6  1  0  0  0  0
 19 28  1  0  0  0  0
 21  5  1  6  0  0  0
 21 27  1  0  0  0  0
 22 25  1  0  0  0  0
 23 20  1  0  0  0  0
 23  1  1  0  0  0  0
 24  9  1  0  0  0  0
 25  4  1  0  0  0  0
 26 17  1  0  0  0  0
 27  2  1  0  0  0  0
 27  9  2  0  0  0  0
 28 16  1  0  0  0  0
 28 15  2  0  0  0  0
 29 15  1  0  0  0  0
 29 26  1  0  0  0  0
 31  1  2  0  0  0  0
 31 12  1  0  0  0  0
M  END
>  <MODEL>
6

>  <REMARK>
 VINA RESULT:      -5.3      3.242      5.922
  Name = 
  0 active torsions:
  status: ('A' for Active; 'I' for Inactive)
                            x       y       z     vdW  Elec       q    Type
                         _______ _______ _______ _____ _____    ______ ____

>  <TORSDO>
F 0

$$$$
=
 OpenBabel10222416293D

 32 35  0  0  1  0  0  0  0  0999 V2000
  181.9850  173.4480  135.9810 C   0  0  0  0  0  0  0  0  0  0  0  0
  181.5010  181.2470  138.2070 C   0  0  0  0  0  2  0  0  0  0  0  0
  180.2440  181.4230  134.8300 C   0  0  0  0  0  1  0  0  0  0  0  0
  185.4260  178.8510  138.4750 C   0  0  0  0  0  2  0  0  0  0  0  0
  180.2570  178.4670  136.3330 N   0  0  0  0  0  2  0  0  0  0  0  0
  180.7680  181.9500  137.1550 N   0  0  0  0  0  2  0  0  0  0  0  0
  187.6290  176.4470  136.6930 O   0  0  0  0  0  1  0  0  0  0  0  0
  182.5540  178.9250  139.8930 C   0  0  1  0  0  3  0  0  0  0  0  0
  181.9860  178.7830  138.5040 C   0  0  0  0  0  0  0  0  0  0  0  0
  186.2230  177.5810  138.2510 C   0  0  0  0  0  2  0  0  0  0  0  0
  184.2160  171.5290  136.8590 C   0  0  0  0  0  3  0  0  0  0  0  0
  182.8980  171.2950  136.8200 C   0  0  0  0  0  3  0  0  0  0  0  0
  180.5150  176.1390  136.3410 O   0  0  0  0  0  0  0  0  0  0  0  0
  181.1760  177.3490  136.5600 C   0  0  2  0  0  3  0  0  0  0  0  0
  185.1660  174.9900  135.9680 N   0  0  0  0  0  0  0  0  0  0  0  0
  184.9310  172.5940  136.0670 C   0  0  2  0  0  3  0  0  0  0  0  0
  186.7410  177.5140  136.8210 C   0  0  2  0  0  3  0  0  0  0  0  0
  180.2140  180.9280  136.2620 C   0  0  2  0  0  3  0  0  0  0  0  0
  183.0060  174.2280  136.7650 C   0  0  0  0  0  2  0  0  0  0  0  0
  181.0470  175.6520  135.1460 C   0  0  0  0  0  2  0  0  0  0  0  0
  181.0610  179.6820  136.3970 C   0  0  1  0  0  3  0  0  0  0  0  0
  183.7120  179.7100  139.8830 O   0  0  0  0  0  0  0  0  0  0  0  0
  180.9610  174.1320  135.1220 C   0  0  0  0  0  2  0  0  0  0  0  0
  181.7370  177.3800  137.9930 C   0  0  0  0  0  2  0  0  0  0  0  0
  184.7690  178.7980  139.8400 C   0  0  0  0  0  2  0  0  0  0  0  0
  185.6060  177.3770  135.8050 C   0  0  0  0  0  2  0  0  0  0  0  0
  181.6240  179.8430  137.7510 C   0  0  0  0  0  0  0  0  0  0  0  0
  184.3960  173.9870  136.2510 C   0  0  0  0  0  0  0  0  0  0  0  0
  184.7450  176.2920  136.1230 O   0  0  0  0  0  0  0  0  0  0  0  0
  181.5340  179.5020  140.8610 C   0  0  0  0  0  1  0  0  0  0  0  0
  181.9250  172.1170  136.0760 C   0  0  0  0  0  3  0  0  0  0  0  0
  184.9870  172.2280  134.5940 C   0  0  0  0  0  1  0  0  0  0  0  0
  1 31  2  0  0  0  0
  1 19  1  0  0  0  0
  4 25  1  0  0  0  0
  5 14  1  0  0  0  0
  6  2  1  0  0  0  0
  8 30  1  1  0  0  0
  9  8  1  0  0  0  0
 10  4  1  0  0  0  0
 12 11  2  0  0  0  0
 13 14  1  0  0  0  0
 14 24  1  1  0  0  0
 15 29  1  0  0  0  0
 15 28  2  0  0  0  0
 16 32  1  6  0  0  0
 16 28  1  0  0  0  0
 16 11  1  0  0  0  0
 17  7  1  1  0  0  0
 17 10  1  0  0  0  0
 18  3  1  6  0  0  0
 18 21  1  0  0  0  0
 18  6  1  0  0  0  0
 20 13  1  0  0  0  0
 21  5  1  1  0  0  0
 21 27  1  0  0  0  0
 22  8  1  0  0  0  0
 23 20  1  0  0  0  0
 23  1  1  0  0  0  0
 24  9  1  0  0  0  0
 25 22  1  0  0  0  0
 26 29  1  0  0  0  0
 26 17  1  0  0  0  0
 27  2  1  0  0  0  0
 27  9  2  0  0  0  0
 28 19  1  0  0  0  0
 31 12  1  0  0  0  0
M  END
>  <MODEL>
7

>  <REMARK>
 VINA RESULT:      -5.3      3.140      7.259
  Name = 
  0 active torsions:
  status: ('A' for Active; 'I' for Inactive)
                            x       y       z     vdW  Elec       q    Type
                         _______ _______ _______ _____ _____    ______ ____

>  <TORSDO>
F 0

$$$$
=
 OpenBabel10222416293D

 32 35  0  0  1  0  0  0  0  0999 V2000
  186.8850  177.9530  137.2780 C   0  0  0  0  0  0  0  0  0  0  0  0
  179.3300  179.1760  140.0030 C   0  0  0  0  0  2  0  0  0  0  0  0
  181.0930  178.6370  143.1050 C   0  0  0  0  0  1  0  0  0  0  0  0
  180.3200  175.9570  136.8620 C   0  0  0  0  0  2  0  0  0  0  0  0
  182.8690  179.4570  140.4260 N   0  0  0  0  0  2  0  0  0  0  0  0
  179.4090  179.2830  141.4600 N   0  0  0  0  0  2  0  0  0  0  0  0
  182.7010  173.2540  135.9480 O   0  0  0  0  0  1  0  0  0  0  0  0
  180.2400  179.1530  137.0860 C   0  0  1  0  0  3  0  0  0  0  0  0
  181.1590  178.9830  138.2690 C   0  0  0  0  0  0  0  0  0  0  0  0
  181.3180  175.1970  136.0100 C   0  0  0  0  0  2  0  0  0  0  0  0
  187.5710  176.4940  134.6650 C   0  0  0  0  0  3  0  0  0  0  0  0
  188.0930  177.6360  135.1300 C   0  0  0  0  0  3  0  0  0  0  0  0
  184.7750  179.3180  139.0730 O   0  0  0  0  0  0  0  0  0  0  0  0
  183.4940  178.8020  139.2750 C   0  0  2  0  0  3  0  0  0  0  0  0
  184.8510  175.1100  136.7530 N   0  0  0  0  0  0  0  0  0  0  0  0
  186.8850  175.4480  135.5060 C   0  0  2  0  0  3  0  0  0  0  0  0
  181.9420  174.0550  136.8000 C   0  0  2  0  0  3  0  0  0  0  0  0
  180.8310  179.3730  141.8060 C   0  0  2  0  0  3  0  0  0  0  0  0
  185.6120  177.4110  136.6840 C   0  0  0  0  0  2  0  0  0  0  0  0
  185.6380  178.2910  139.4610 C   0  0  0  0  0  2  0  0  0  0  0  0
  181.6240  178.7410  140.6830 C   0  0  1  0  0  3  0  0  0  0  0  0
  179.3130  178.1060  137.0180 O   0  0  0  0  0  0  0  0  0  0  0  0
  186.9560  178.4090  138.7070 C   0  0  0  0  0  2  0  0  0  0  0  0
  182.6490  179.0030  138.0030 C   0  0  0  0  0  2  0  0  0  0  0  0
  179.8620  177.1940  136.1140 C   0  0  0  0  0  2  0  0  0  0  0  0
  182.8080  174.5620  137.9540 C   0  0  0  0  0  2  0  0  0  0  0  0
  180.7080  178.8980  139.5380 C   0  0  0  0  0  0  0  0  0  0  0  0
  185.7420  175.9550  136.3410 C   0  0  0  0  0  0  0  0  0  0  0  0
  183.7720  175.5070  137.5120 O   0  0  0  0  0  0  0  0  0  0  0  0
  179.5240  180.4920  137.1190 C   0  0  0  0  0  1  0  0  0  0  0  0
  187.9790  178.0990  136.5270 C   0  0  0  0  0  3  0  0  0  0  0  0
  187.8900  174.7000  136.3660 C   0  0  0  0  0  1  0  0  0  0  0  0
  1 23  1  0  0  0  0
  2  6  1  0  0  0  0
  5 21  1  0  0  0  0
  6 18  1  0  0  0  0
  8 30  1  1  0  0  0
  8  9  1  0  0  0  0
  9 27  2  0  0  0  0
 10 17  1  0  0  0  0
 10  4  1  0  0  0  0
 11 12  2  0  0  0  0
 11 16  1  0  0  0  0
 12 31  1  0  0  0  0
 13 14  1  0  0  0  0
 13 20  1  0  0  0  0
 14 24  1  6  0  0  0
 14  5  1  0  0  0  0
 15 29  1  0  0  0  0
 16 28  1  0  0  0  0
 16 32  1  1  0  0  0
 17  7  1  6  0  0  0
 17 26  1  0  0  0  0
 18  3  1  1  0  0  0
 19  1  1  0  0  0  0
 21 27  1  6  0  0  0
 21 18  1  0  0  0  0
 22  8  1  0  0  0  0
 23 20  1  0  0  0  0
 24  9  1  0  0  0  0
 25  4  1  0  0  0  0
 25 22  1  0  0  0  0
 27  2  1  0  0  0  0
 28 19  1  0  0  0  0
 28 15  2  0  0  0  0
 29 26  1  0  0  0  0
 31  1  2  0  0  0  0
M  END
>  <MODEL>
8

>  <REMARK>
 VINA RESULT:      -5.1      3.124      6.295
  Name = 
  0 active torsions:
  status: ('A' for Active; 'I' for Inactive)
                            x       y       z     vdW  Elec       q    Type
                         _______ _______ _______ _____ _____    ______ ____

>  <TORSDO>
F 0

$$$$
=
 OpenBabel10222416293D

 32 35  0  0  1  0  0  0  0  0999 V2000
  181.1620  179.5960  136.7290 C   0  0  0  0  0  0  0  0  0  0  0  0
  187.7890  174.9250  137.2450 C   0  0  0  0  0  2  0  0  0  0  0  0
  185.2330  172.4280  136.7460 C   0  0  0  0  0  1  0  0  0  0  0  0
  186.6480  177.9450  140.5280 C   0  0  0  0  0  2  0  0  0  0  0  0
  184.5310  175.5610  135.9140 N   0  0  0  0  0  2  0  0  0  0  0  0
  187.3890  173.5660  136.8800 N   0  0  0  0  0  2  0  0  0  0  0  0
  183.8420  179.2800  142.5670 O   0  0  0  0  0  1  0  0  0  0  0  0
  187.6730  177.9690  137.4930 C   0  0  1  0  0  3  0  0  0  0  0  0
  186.4840  177.0900  137.2000 C   0  0  0  0  0  0  0  0  0  0  0  0
  185.7060  178.9820  141.1080 C   0  0  0  0  0  2  0  0  0  0  0  0
  180.7230  182.1680  138.3480 C   0  0  0  0  0  3  0  0  0  0  0  0
  180.4900  181.9670  137.0450 C   0  0  0  0  0  3  0  0  0  0  0  0
  183.0790  177.3880  135.7350 O   0  0  0  0  0  0  0  0  0  0  0  0
  184.0390  176.7860  136.5490 C   0  0  2  0  0  3  0  0  0  0  0  0
  182.2580  179.2810  140.0750 N   0  0  0  0  0  0  0  0  0  0  0  0
  180.8120  181.0830  139.3910 C   0  0  2  0  0  3  0  0  0  0  0  0
  184.5780  178.3140  141.8820 C   0  0  2  0  0  3  0  0  0  0  0  0
  186.0280  173.6520  136.3380 C   0  0  2  0  0  3  0  0  0  0  0  0
  182.3040  179.7530  137.6970 C   0  0  0  0  0  2  0  0  0  0  0  0
  181.8680  177.1820  136.3980 C   0  0  0  0  0  2  0  0  0  0  0  0
  185.3820  174.8990  136.8990 C   0  0  1  0  0  3  0  0  0  0  0  0
  188.2090  177.6820  138.7540 O   0  0  0  0  0  0  0  0  0  0  0  0
  180.8850  178.2900  136.0420 C   0  0  0  0  0  2  0  0  0  0  0  0
  185.1920  177.7730  136.8060 C   0  0  0  0  0  2  0  0  0  0  0  0
  187.6430  178.6280  139.6120 C   0  0  0  0  0  2  0  0  0  0  0  0
  183.6570  177.5030  140.9680 C   0  0  0  0  0  2  0  0  0  0  0  0
  186.5550  175.7420  137.1970 C   0  0  0  0  0  0  0  0  0  0  0  0
  181.8120  179.9990  139.0940 C   0  0  0  0  0  0  0  0  0  0  0  0
  183.1820  178.2790  139.8770 O   0  0  0  0  0  0  0  0  0  0  0  0
  188.7440  177.8400  136.4230 C   0  0  0  0  0  1  0  0  0  0  0  0
  180.3930  180.6390  136.4080 C   0  0  0  0  0  3  0  0  0  0  0  0
  179.4420  180.4900  139.6730 C   0  0  0  0  0  1  0  0  0  0  0  0
  1 19  1  0  0  0  0
  4 10  1  0  0  0  0
  5 14  1  0  0  0  0
  6  2  1  0  0  0  0
  8 30  1  6  0  0  0
  8 22  1  0  0  0  0
  9  8  1  0  0  0  0
 10 17  1  0  0  0  0
 11 16  1  0  0  0  0
 12 11  2  0  0  0  0
 13 20  1  0  0  0  0
 13 14  1  0  0  0  0
 14 24  1  6  0  0  0
 16 32  1  6  0  0  0
 17  7  1  6  0  0  0
 18  3  1  1  0  0  0
 18  6  1  0  0  0  0
 18 21  1  0  0  0  0
 19 28  1  0  0  0  0
 21  5  1  6  0  0  0
 21 27  1  0  0  0  0
 22 25  1  0  0  0  0
 23 20  1  0  0  0  0
 23  1  1  0  0  0  0
 24  9  1  0  0  0  0
 25  4  1  0  0  0  0
 26 17  1  0  0  0  0
 27  9  2  0  0  0  0
 27  2  1  0  0  0  0
 28 16  1  0  0  0  0
 28 15  2  0  0  0  0
 29 15  1  0  0  0  0
 29 26  1  0  0  0  0
 31  1  2  0  0  0  0
 31 12  1  0  0  0  0
M  END
>  <MODEL>
9

>  <REMARK>
 VINA RESULT:      -5.1      3.221      6.568
  Name = 
  0 active torsions:
  status: ('A' for Active; 'I' for Inactive)
                            x       y       z     vdW  Elec       q    Type
                         _______ _______ _______ _____ _____    ______ ____

>  <TORSDO>
F 0

$$$$
