=
 OpenBabel10222416323D

 32 35  0  0  1  0  0  0  0  0999 V2000
  189.1030  177.9650  136.8920 S   0  0  0  0  0  1  0  0  0  0  0  0
  189.0780  177.6750  140.6820 C   0  0  1  0  0  3  0  0  0  0  0  0
  190.3010  176.8140  140.4310 C   0  0  2  0  0  3  0  0  0  0  0  0
  188.9700  176.8350  138.3370 C   0  0  1  0  0  3  0  0  0  0  0  0
  191.6460  177.5050  140.6510 C   0  0  2  0  0  3  0  0  0  0  0  0
  191.7410  176.5430  137.1050 F   0  0  0  0  0  0  0  0  0  0  0  0
  190.2850  176.5920  138.9890 C   0  0  1  0  0  3  0  0  0  0  0  0
  191.4860  176.6450  138.4480 C   0  0  2  0  0  3  0  0  0  0  0  0
  188.1760  177.5500  139.4290 C   0  0  0  0  0  2  0  0  0  0  0  0
  192.4910  177.1390  139.4210 C   0  0  0  0  0  2  0  0  0  0  0  0
  188.7280  176.0220  142.4270 O   0  0  0  0  0  1  0  0  0  0  0  0
  188.3400  177.1830  141.8640 N   0  0  0  0  0  0  0  0  0  0  0  0
  185.8810  178.2900  144.4580 C   0  0  0  0  0  0  0  0  0  0  0  0
  186.4430  178.7610  141.7470 C   0  0  0  0  0  3  0  0  0  0  0  0
  186.9710  177.6820  143.8290 C   0  0  0  0  0  3  0  0  0  0  0  0
  185.3390  179.3690  142.3530 C   0  0  0  0  0  3  0  0  0  0  0  0
  187.2890  177.9420  142.4920 C   0  0  0  0  0  0  0  0  0  0  0  0
  185.0630  179.1500  143.7010 C   0  0  0  0  0  3  0  0  0  0  0  0
  184.0340  178.3160  146.1570 C   0  0  0  0  0  1  0  0  0  0  0  0
  185.4820  177.9500  145.8790 C   0  0  2  0  0  3  0  0  0  0  0  0
  187.8200  176.6600  146.9020 O   0  0  0  0  0  1  0  0  0  0  0  0
  186.3710  178.5610  146.9370 C   0  0  0  0  0  0  0  0  0  0  0  0
  186.1140  179.9170  147.3650 N   0  0  0  0  0  1  0  0  0  0  0  0
  188.2750  178.4420  148.5100 C   0  0  0  0  0  1  0  0  0  0  0  0
  187.4310  177.8810  147.4260 C   0  0  0  0  0  0  0  0  0  0  0  0
  192.2870  177.0090  141.8810 N   0  0  0  0  0  2  0  0  0  0  0  0
  191.4690  177.1680  143.0870 C   0  0  1  0  0  3  0  0  0  0  0  0
  191.7150  176.1580  144.1750 C   0  0  0  0  0  3  0  0  0  0  0  0
  191.3140  176.3880  145.3700 N   0  0  0  0  0  0  0  0  0  0  0  0
  191.3690  178.5910  143.6130 C   0  0  0  0  0  2  0  0  0  0  0  0
  190.3280  178.6090  144.7110 C   0  0  0  0  0  2  0  0  0  0  0  0
  190.7430  177.6580  145.8410 C   0  0  0  0  0  2  0  0  0  0  0  0
  1  4  1  0  0  0  0
  2 12  1  1  0  0  0
  3  5  1  0  0  0  0
  3  2  1  0  0  0  0
  4  7  1  0  0  0  0
  4  9  1  0  0  0  0
  5 26  1  0  0  0  0
  6  8  1  0  0  0  0
  7  3  1  0  0  0  0
  8  7  1  0  0  0  0
  8 10  1  0  0  0  0
  9  2  1  0  0  0  0
 10  5  1  0  0  0  0
 12 11  1  0  0  0  0
 12 17  1  0  0  0  0
 13 20  1  0  0  0  0
 14 16  2  0  0  0  0
 14 17  1  0  0  0  0
 15 13  1  0  0  0  0
 16 18  1  0  0  0  0
 17 15  2  0  0  0  0
 18 13  2  0  0  0  0
 20 19  1  0  0  0  0
 20 22  1  0  0  0  0
 21 25  1  0  0  0  0
 22 23  1  0  0  0  0
 22 25  2  0  0  0  0
 25 24  1  0  0  0  0
 26 27  1  0  0  0  0
 27 30  1  0  0  0  0
 27 28  1  0  0  0  0
 28 29  2  0  0  0  0
 29 32  1  0  0  0  0
 30 31  1  0  0  0  0
 31 32  1  0  0  0  0
M  END
>  <MODEL>
1

>  <REMARK>
 VINA RESULT:      -8.9      0.000      0.000
  Name = 
  6 active torsions:
  status: ('A' for Active; 'I' for Inactive)
    1  A    between atoms: C_1  and  N_27
    2  A    between atoms: C_2  and  C_23
    3  A    between atoms: C_8  and  N_30
    4  A    between atoms: C_9  and  C_23
    5  A    between atoms: C_12  and  N_30
    6  A    between atoms: C_17  and  N_27
                            x       y       z     vdW  Elec       q    Type
                         _______ _______ _______ _____ _____    ______ ____

>  <TORSDO>
F 6

$$$$
=
 OpenBabel10222416323D

 32 35  0  0  1  0  0  0  0  0999 V2000
  186.0620  179.0230  147.0170 S   0  0  0  0  0  1  0  0  0  0  0  0
  187.6110  177.8910  143.7360 C   0  0  1  0  0  3  0  0  0  0  0  0
  186.1620  177.8410  143.2910 C   0  0  2  0  0  3  0  0  0  0  0  0
  186.1830  177.6780  145.7680 C   0  0  1  0  0  3  0  0  0  0  0  0
  185.6860  179.0380  142.4710 C   0  0  2  0  0  3  0  0  0  0  0  0
  183.5100  179.1030  145.4330 F   0  0  0  0  0  0  0  0  0  0  0  0
  185.4090  177.9810  144.5330 C   0  0  1  0  0  3  0  0  0  0  0  0
  184.3460  178.7500  144.4050 C   0  0  2  0  0  3  0  0  0  0  0  0
  187.6230  177.6260  145.2620 C   0  0  0  0  0  2  0  0  0  0  0  0
  184.3390  179.4400  143.0900 C   0  0  0  0  0  2  0  0  0  0  0  0
  188.0610  175.5500  143.2690 O   0  0  0  0  0  1  0  0  0  0  0  0
  188.3930  176.8380  143.0530 N   0  0  0  0  0  0  0  0  0  0  0  0
  190.1710  177.0930  139.7720 C   0  0  0  0  0  0  0  0  0  0  0  0
  190.7350  177.3990  142.5060 C   0  0  0  0  0  3  0  0  0  0  0  0
  189.1720  176.9440  140.7380 C   0  0  0  0  0  3  0  0  0  0  0  0
  191.7530  177.5390  141.5570 C   0  0  0  0  0  3  0  0  0  0  0  0
  189.4290  177.1370  142.0980 C   0  0  0  0  0  0  0  0  0  0  0  0
  191.4770  177.4020  140.1980 C   0  0  0  0  0  3  0  0  0  0  0  0
  191.2200  176.7120  137.5230 C   0  0  0  0  0  1  0  0  0  0  0  0
  189.9210  176.8040  138.3060 C   0  0  2  0  0  3  0  0  0  0  0  0
  187.8560  176.0130  136.4920 O   0  0  0  0  0  1  0  0  0  0  0  0
  188.9900  177.7830  137.6300 C   0  0  0  0  0  0  0  0  0  0  0  0
  189.0500  179.1760  138.0100 N   0  0  0  0  0  1  0  0  0  0  0  0
  187.1930  178.3160  136.0170 C   0  0  0  0  0  1  0  0  0  0  0  0
  188.0700  177.3590  136.7360 C   0  0  0  0  0  0  0  0  0  0  0  0
  185.5100  178.6590  141.0590 N   0  0  0  0  0  2  0  0  0  0  0  0
  184.1330  178.7850  140.5740 C   0  0  1  0  0  3  0  0  0  0  0  0
  183.9490  179.6580  139.3620 C   0  0  0  0  0  3  0  0  0  0  0  0
  182.8760  179.5780  138.6670 N   0  0  0  0  0  0  0  0  0  0  0  0
  183.3620  177.4780  140.4820 C   0  0  0  0  0  2  0  0  0  0  0  0
  181.9160  177.8100  140.1810 C   0  0  0  0  0  2  0  0  0  0  0  0
  181.8200  178.5710  138.8530 C   0  0  0  0  0  2  0  0  0  0  0  0
  2 12  1  6  0  0  0
  2  9  1  0  0  0  0
  3  2  1  0  0  0  0
  3  7  1  0  0  0  0
  4  1  1  0  0  0  0
  5 10  1  0  0  0  0
  5  3  1  0  0  0  0
  7  4  1  0  0  0  0
  8  7  1  0  0  0  0
  8  6  1  0  0  0  0
  9  4  1  0  0  0  0
 10  8  1  0  0  0  0
 12 11  1  0  0  0  0
 13 18  2  0  0  0  0
 13 15  1  0  0  0  0
 15 17  2  0  0  0  0
 16 14  2  0  0  0  0
 17 14  1  0  0  0  0
 17 12  1  0  0  0  0
 18 16  1  0  0  0  0
 19 20  1  0  0  0  0
 20 13  1  0  0  0  0
 21 25  1  0  0  0  0
 22 23  1  0  0  0  0
 22 20  1  0  0  0  0
 24 25  1  0  0  0  0
 25 22  2  0  0  0  0
 26  5  1  0  0  0  0
 27 26  1  0  0  0  0
 28 27  1  0  0  0  0
 29 32  1  0  0  0  0
 29 28  2  0  0  0  0
 30 27  1  0  0  0  0
 31 30  1  0  0  0  0
 32 31  1  0  0  0  0
M  END
>  <MODEL>
2

>  <REMARK>
 VINA RESULT:      -8.8      3.843      8.409
  Name = 
  6 active torsions:
  status: ('A' for Active; 'I' for Inactive)
    1  A    between atoms: C_1  and  N_27
    2  A    between atoms: C_2  and  C_23
    3  A    between atoms: C_8  and  N_30
    4  A    between atoms: C_9  and  C_23
    5  A    between atoms: C_12  and  N_30
    6  A    between atoms: C_17  and  N_27
                            x       y       z     vdW  Elec       q    Type
                         _______ _______ _______ _____ _____    ______ ____

>  <TORSDO>
F 6

$$$$
=
 OpenBabel10222416323D

 32 35  0  0  1  0  0  0  0  0999 V2000
  186.1340  178.9180  147.0440 S   0  0  0  0  0  1  0  0  0  0  0  0
  187.6820  177.8700  143.7350 C   0  0  1  0  0  3  0  0  0  0  0  0
  186.2330  177.8320  143.2890 C   0  0  2  0  0  3  0  0  0  0  0  0
  186.2540  177.6060  145.7610 C   0  0  1  0  0  3  0  0  0  0  0  0
  185.7570  179.0500  142.5000 C   0  0  2  0  0  3  0  0  0  0  0  0
  183.5820  179.0400  145.4630 F   0  0  0  0  0  0  0  0  0  0  0  0
  185.4800  177.9410  144.5350 C   0  0  1  0  0  3  0  0  0  0  0  0
  184.4180  178.7130  144.4270 C   0  0  2  0  0  3  0  0  0  0  0  0
  187.6950  177.5660  145.2540 C   0  0  0  0  0  2  0  0  0  0  0  0
  184.4100  179.4360  143.1300 C   0  0  0  0  0  2  0  0  0  0  0  0
  188.1060  175.5450  143.1760 O   0  0  0  0  0  1  0  0  0  0  0  0
  188.4630  176.8350  143.0250 N   0  0  0  0  0  0  0  0  0  0  0  0
  190.2500  177.4210  139.7910 C   0  0  0  0  0  0  0  0  0  0  0  0
  190.8570  177.1730  142.5220 C   0  0  0  0  0  3  0  0  0  0  0  0
  189.2430  177.2390  140.7430 C   0  0  0  0  0  3  0  0  0  0  0  0
  191.8820  177.3420  141.5860 C   0  0  0  0  0  3  0  0  0  0  0  0
  189.5270  177.1580  142.1090 C   0  0  0  0  0  0  0  0  0  0  0  0
  191.5870  177.4800  140.2300 C   0  0  0  0  0  3  0  0  0  0  0  0
  189.1280  178.6300  137.8990 C   0  0  0  0  0  1  0  0  0  0  0  0
  189.9600  177.4260  138.3040 C   0  0  2  0  0  3  0  0  0  0  0  0
  191.3560  174.9510  137.9840 O   0  0  0  0  0  1  0  0  0  0  0  0
  189.3040  176.1630  137.7960 C   0  0  0  0  0  0  0  0  0  0  0  0
  187.8750  176.1580  137.5830 N   0  0  0  0  0  1  0  0  0  0  0  0
  189.4100  173.8080  137.0490 C   0  0  0  0  0  1  0  0  0  0  0  0
  190.0260  175.0360  137.6080 C   0  0  0  0  0  0  0  0  0  0  0  0
  185.5800  178.7080  141.0790 N   0  0  0  0  0  2  0  0  0  0  0  0
  184.2010  178.8410  140.5990 C   0  0  1  0  0  3  0  0  0  0  0  0
  184.0260  179.6550  139.3460 C   0  0  0  0  0  3  0  0  0  0  0  0
  182.9450  179.5650  138.6650 N   0  0  0  0  0  0  0  0  0  0  0  0
  183.4000  177.5490  140.5800 C   0  0  0  0  0  2  0  0  0  0  0  0
  181.9590  177.8990  140.2750 C   0  0  0  0  0  2  0  0  0  0  0  0
  181.8690  178.5940  138.9100 C   0  0  0  0  0  2  0  0  0  0  0  0
  2 12  1  6  0  0  0
  2  9  1  0  0  0  0
  3  2  1  0  0  0  0
  3  7  1  0  0  0  0
  4  1  1  0  0  0  0
  5 10  1  0  0  0  0
  5  3  1  0  0  0  0
  7  4  1  0  0  0  0
  8  7  1  0  0  0  0
  8  6  1  0  0  0  0
  9  4  1  0  0  0  0
 10  8  1  0  0  0  0
 12 11  1  0  0  0  0
 13 18  2  0  0  0  0
 13 15  1  0  0  0  0
 15 17  2  0  0  0  0
 16 14  2  0  0  0  0
 17 14  1  0  0  0  0
 17 12  1  0  0  0  0
 18 16  1  0  0  0  0
 19 20  1  0  0  0  0
 20 13  1  0  0  0  0
 22 20  1  0  0  0  0
 23 22  1  0  0  0  0
 24 25  1  0  0  0  0
 25 22  2  0  0  0  0
 25 21  1  0  0  0  0
 26  5  1  0  0  0  0
 27 26  1  0  0  0  0
 28 27  1  0  0  0  0
 29 32  1  0  0  0  0
 29 28  2  0  0  0  0
 30 27  1  0  0  0  0
 31 30  1  0  0  0  0
 32 31  1  0  0  0  0
M  END
>  <MODEL>
3

>  <REMARK>
 VINA RESULT:      -8.8      3.803      8.324
  Name = 
  6 active torsions:
  status: ('A' for Active; 'I' for Inactive)
    1  A    between atoms: C_1  and  N_27
    2  A    between atoms: C_2  and  C_23
    3  A    between atoms: C_8  and  N_30
    4  A    between atoms: C_9  and  C_23
    5  A    between atoms: C_12  and  N_30
    6  A    between atoms: C_17  and  N_27
                            x       y       z     vdW  Elec       q    Type
                         _______ _______ _______ _____ _____    ______ ____

>  <TORSDO>
F 6

$$$$
=
 OpenBabel10222416323D

 32 35  0  0  1  0  0  0  0  0999 V2000
  189.0600  178.8200  138.2400 S   0  0  0  0  0  1  0  0  0  0  0  0
  188.6740  177.6570  141.8390 C   0  0  1  0  0  3  0  0  0  0  0  0
  189.9140  176.8490  141.5070 C   0  0  2  0  0  3  0  0  0  0  0  0
  188.7870  177.3880  139.3630 C   0  0  1  0  0  3  0  0  0  0  0  0
  191.2330  177.4380  142.0050 C   0  0  2  0  0  3  0  0  0  0  0  0
  191.6630  177.3240  138.3560 F   0  0  0  0  0  0  0  0  0  0  0  0
  190.0350  176.9690  140.0580 C   0  0  1  0  0  3  0  0  0  0  0  0
  191.2810  177.1170  139.6570 C   0  0  2  0  0  3  0  0  0  0  0  0
  187.8950  177.8490  140.5140 C   0  0  0  0  0  2  0  0  0  0  0  0
  192.1910  177.3480  140.8070 C   0  0  0  0  0  2  0  0  0  0  0  0
  188.2580  175.7310  143.2580 O   0  0  0  0  0  1  0  0  0  0  0  0
  187.8260  176.9230  142.8010 N   0  0  0  0  0  0  0  0  0  0  0  0
  184.4240  178.4760  142.9000 C   0  0  0  0  0  0  0  0  0  0  0  0
  186.5170  177.8650  144.6710 C   0  0  0  0  0  3  0  0  0  0  0  0
  185.5780  177.8220  142.4580 C   0  0  0  0  0  3  0  0  0  0  0  0
  185.3770  178.5320  145.1310 C   0  0  0  0  0  3  0  0  0  0  0  0
  186.6070  177.4720  143.3370 C   0  0  0  0  0  0  0  0  0  0  0  0
  184.3290  178.8260  144.2610 C   0  0  0  0  0  3  0  0  0  0  0  0
  181.9590  178.8000  142.5560 C   0  0  0  0  0  1  0  0  0  0  0  0
  183.3420  178.9320  141.9420 C   0  0  2  0  0  3  0  0  0  0  0  0
  184.7720  179.9410  139.6810 O   0  0  0  0  0  1  0  0  0  0  0  0
  183.3690  178.2380  140.6000 C   0  0  0  0  0  0  0  0  0  0  0  0
  182.7570  176.9350  140.4770 N   0  0  0  0  0  1  0  0  0  0  0  0
  183.9940  178.1540  138.2090 C   0  0  0  0  0  1  0  0  0  0  0  0
  184.0130  178.7910  139.5480 C   0  0  0  0  0  0  0  0  0  0  0  0
  191.7530  176.6550  143.1390 N   0  0  0  0  0  2  0  0  0  0  0  0
  190.9820  176.8090  144.3760 C   0  0  1  0  0  3  0  0  0  0  0  0
  191.5510  176.1180  145.5860 C   0  0  0  0  0  3  0  0  0  0  0  0
  191.1600  176.4490  146.7600 N   0  0  0  0  0  0  0  0  0  0  0  0
  190.5170  178.2270  144.6700 C   0  0  0  0  0  2  0  0  0  0  0  0
  189.5650  178.1700  145.8450 C   0  0  0  0  0  2  0  0  0  0  0  0
  190.2820  177.5870  147.0700 C   0  0  0  0  0  2  0  0  0  0  0  0
  1  4  1  0  0  0  0
  2 12  1  1  0  0  0
  3  2  1  0  0  0  0
  3  5  1  0  0  0  0
  4  7  1  0  0  0  0
  4  9  1  0  0  0  0
  5 26  1  0  0  0  0
  6  8  1  0  0  0  0
  7  3  1  0  0  0  0
  8  7  1  0  0  0  0
  8 10  1  0  0  0  0
  9  2  1  0  0  0  0
 10  5  1  0  0  0  0
 12 11  1  0  0  0  0
 12 17  1  0  0  0  0
 13 18  1  0  0  0  0
 14 16  1  0  0  0  0
 15 13  2  0  0  0  0
 15 17  1  0  0  0  0
 17 14  2  0  0  0  0
 18 16  2  0  0  0  0
 20 19  1  0  0  0  0
 20 13  1  0  0  0  0
 22 20  1  0  0  0  0
 23 22  1  0  0  0  0
 24 25  1  0  0  0  0
 25 21  1  0  0  0  0
 25 22  2  0  0  0  0
 26 27  1  0  0  0  0
 27 30  1  0  0  0  0
 27 28  1  0  0  0  0
 28 29  2  0  0  0  0
 29 32  1  0  0  0  0
 30 31  1  0  0  0  0
 31 32  1  0  0  0  0
M  END
>  <MODEL>
4

>  <REMARK>
 VINA RESULT:      -8.7      2.206      3.908
  Name = 
  6 active torsions:
  status: ('A' for Active; 'I' for Inactive)
    1  A    between atoms: C_1  and  N_27
    2  A    between atoms: C_2  and  C_23
    3  A    between atoms: C_8  and  N_30
    4  A    between atoms: C_9  and  C_23
    5  A    between atoms: C_12  and  N_30
    6  A    between atoms: C_17  and  N_27
                            x       y       z     vdW  Elec       q    Type
                         _______ _______ _______ _____ _____    ______ ____

>  <TORSDO>
F 6

$$$$
=
 OpenBabel10222416323D

 32 35  0  0  1  0  0  0  0  0999 V2000
  189.3830  176.4660  146.9010 S   0  0  0  0  0  1  0  0  0  0  0  0
  188.0340  177.4580  143.4890 C   0  0  1  0  0  3  0  0  0  0  0  0
  189.4440  177.9820  143.2970 C   0  0  2  0  0  3  0  0  0  0  0  0
  189.0290  177.8490  145.7410 C   0  0  1  0  0  3  0  0  0  0  0  0
  190.3750  177.0780  142.4920 C   0  0  2  0  0  3  0  0  0  0  0  0
  192.0300  177.3190  145.7650 F   0  0  0  0  0  0  0  0  0  0  0  0
  190.0230  177.9290  144.6360 C   0  0  1  0  0  3  0  0  0  0  0  0
  191.2780  177.5250  144.6370 C   0  0  2  0  0  3  0  0  0  0  0  0
  187.7280  177.5330  145.0060 C   0  0  0  0  0  2  0  0  0  0  0  0
  191.6810  177.0220  143.3000 C   0  0  0  0  0  2  0  0  0  0  0  0
  187.4940  178.9590  141.6570 O   0  0  0  0  0  1  0  0  0  0  0  0
  187.0690  178.3060  142.7560 N   0  0  0  0  0  0  0  0  0  0  0  0
  183.3610  178.6260  142.3770 C   0  0  0  0  0  0  0  0  0  0  0  0
  185.2810  178.6440  144.4260 C   0  0  0  0  0  3  0  0  0  0  0  0
  184.7160  178.4220  142.1000 C   0  0  0  0  0  3  0  0  0  0  0  0
  183.9330  178.8640  144.7230 C   0  0  0  0  0  3  0  0  0  0  0  0
  185.6770  178.3840  143.1150 C   0  0  0  0  0  0  0  0  0  0  0  0
  182.9730  178.8420  143.7130 C   0  0  0  0  0  3  0  0  0  0  0  0
  180.9590  178.2800  141.7380 C   0  0  0  0  0  1  0  0  0  0  0  0
  182.3270  178.7520  141.2770 C   0  0  2  0  0  3  0  0  0  0  0  0
  183.6190  180.0620  139.0880 O   0  0  0  0  0  1  0  0  0  0  0  0
  182.6990  178.0490  139.9910 C   0  0  0  0  0  0  0  0  0  0  0  0
  182.5190  176.6180  139.9030 N   0  0  0  0  0  1  0  0  0  0  0  0
  183.5670  178.0690  137.6760 C   0  0  0  0  0  1  0  0  0  0  0  0
  183.2550  178.7320  138.9660 C   0  0  0  0  0  0  0  0  0  0  0  0
  190.6220  177.6500  141.1570 N   0  0  0  0  0  2  0  0  0  0  0  0
  190.2300  176.7730  140.0490 C   0  0  1  0  0  3  0  0  0  0  0  0
  188.9360  177.1270  139.3670 C   0  0  0  0  0  3  0  0  0  0  0  0
  188.6680  176.6520  138.2080 N   0  0  0  0  0  0  0  0  0  0  0  0
  191.3430  176.4410  139.0680 C   0  0  0  0  0  2  0  0  0  0  0  0
  190.8320  175.3680  138.1300 C   0  0  0  0  0  2  0  0  0  0  0  0
  189.6000  175.8790  137.3740 C   0  0  0  0  0  2  0  0  0  0  0  0
  2 12  1  6  0  0  0
  2  9  1  0  0  0  0
  3  2  1  0  0  0  0
  3  7  1  0  0  0  0
  4  1  1  0  0  0  0
  5  3  1  0  0  0  0
  5 10  1  0  0  0  0
  7  8  1  0  0  0  0
  7  4  1  0  0  0  0
  8  6  1  0  0  0  0
  9  4  1  0  0  0  0
 10  8  1  0  0  0  0
 11 12  1  0  0  0  0
 12 17  1  0  0  0  0
 13 18  1  0  0  0  0
 14 16  1  0  0  0  0
 15 13  2  0  0  0  0
 15 17  1  0  0  0  0
 17 14  2  0  0  0  0
 18 16  2  0  0  0  0
 20 19  1  0  0  0  0
 20 13  1  0  0  0  0
 22 20  1  0  0  0  0
 23 22  1  0  0  0  0
 24 25  1  0  0  0  0
 25 21  1  0  0  0  0
 25 22  2  0  0  0  0
 26  5  1  0  0  0  0
 27 26  1  0  0  0  0
 28 27  1  0  0  0  0
 29 28  2  0  0  0  0
 30 27  1  0  0  0  0
 31 30  1  0  0  0  0
 32 31  1  0  0  0  0
 32 29  1  0  0  0  0
M  END
>  <MODEL>
5

>  <REMARK>
 VINA RESULT:      -8.2      3.630      6.171
  Name = 
  6 active torsions:
  status: ('A' for Active; 'I' for Inactive)
    1  A    between atoms: C_1  and  N_27
    2  A    between atoms: C_2  and  C_23
    3  A    between atoms: C_8  and  N_30
    4  A    between atoms: C_9  and  C_23
    5  A    between atoms: C_12  and  N_30
    6  A    between atoms: C_17  and  N_27
                            x       y       z     vdW  Elec       q    Type
                         _______ _______ _______ _____ _____    ______ ____

>  <TORSDO>
F 6

$$$$
=
 OpenBabel10222416323D

 32 35  0  0  1  0  0  0  0  0999 V2000
  191.0570  176.3410  138.6620 S   0  0  0  0  0  1  0  0  0  0  0  0
  187.8730  177.6200  140.2980 C   0  0  1  0  0  3  0  0  0  0  0  0
  187.7210  178.3550  138.9810 C   0  0  2  0  0  3  0  0  0  0  0  0
  190.1280  177.8150  139.2520 C   0  0  1  0  0  3  0  0  0  0  0  0
  186.7610  177.7140  137.9800 C   0  0  2  0  0  3  0  0  0  0  0  0
  189.9830  177.7060  136.2110 F   0  0  0  0  0  0  0  0  0  0  0  0
  189.0180  178.1890  138.3340 C   0  0  1  0  0  3  0  0  0  0  0  0
  188.9220  177.9670  137.0390 C   0  0  2  0  0  3  0  0  0  0  0  0
  189.3920  177.4310  140.5360 C   0  0  0  0  0  2  0  0  0  0  0  0
  187.5130  177.7220  136.6400 C   0  0  0  0  0  2  0  0  0  0  0  0
  186.4030  179.3780  141.1020 O   0  0  0  0  0  1  0  0  0  0  0  0
  187.3040  178.4230  141.4010 N   0  0  0  0  0  0  0  0  0  0  0  0
  189.2940  178.0130  144.5430 C   0  0  0  0  0  0  0  0  0  0  0  0
  186.6940  177.5040  143.6110 C   0  0  0  0  0  3  0  0  0  0  0  0
  188.9080  178.3680  143.2470 C   0  0  0  0  0  3  0  0  0  0  0  0
  187.0640  177.1280  144.9060 C   0  0  0  0  0  3  0  0  0  0  0  0
  187.6040  178.1610  142.7860 C   0  0  0  0  0  0  0  0  0  0  0  0
  188.3490  177.3900  145.3800 C   0  0  0  0  0  3  0  0  0  0  0  0
  191.5690  178.9460  144.0370 C   0  0  0  0  0  1  0  0  0  0  0  0
  190.7240  178.1570  145.0220 C   0  0  2  0  0  3  0  0  0  0  0  0
  191.2750  177.2770  147.6870 O   0  0  0  0  0  1  0  0  0  0  0  0
  191.4080  176.8470  145.3390 C   0  0  0  0  0  0  0  0  0  0  0  0
  191.6820  175.9260  144.2600 N   0  0  0  0  0  1  0  0  0  0  0  0
  192.4230  175.2560  146.9370 C   0  0  0  0  0  1  0  0  0  0  0  0
  191.6960  176.5080  146.6160 C   0  0  0  0  0  0  0  0  0  0  0  0
  185.5200  178.5010  137.8770 N   0  0  0  0  0  2  0  0  0  0  0  0
  184.3000  177.7280  138.1300 C   0  0  1  0  0  3  0  0  0  0  0  0
  184.2990  176.3230  137.5930 C   0  0  0  0  0  3  0  0  0  0  0  0
  183.4510  175.4670  138.0290 N   0  0  0  0  0  0  0  0  0  0  0  0
  183.7660  177.8180  139.5510 C   0  0  0  0  0  2  0  0  0  0  0  0
  182.4060  177.1530  139.5800 C   0  0  0  0  0  2  0  0  0  0  0  0
  182.5340  175.6840  139.1580 C   0  0  0  0  0  2  0  0  0  0  0  0
  1  4  1  0  0  0  0
  2  9  1  0  0  0  0
  2 12  1  1  0  0  0
  3  2  1  0  0  0  0
  4  9  1  0  0  0  0
  5  3  1  0  0  0  0
  6  8  1  0  0  0  0
  7  3  1  0  0  0  0
  7  4  1  0  0  0  0
  8  7  1  0  0  0  0
 10  8  1  0  0  0  0
 10  5  1  0  0  0  0
 11 12  1  0  0  0  0
 12 17  1  0  0  0  0
 13 20  1  0  0  0  0
 13 18  1  0  0  0  0
 14 16  1  0  0  0  0
 15 13  2  0  0  0  0
 16 18  2  0  0  0  0
 17 15  1  0  0  0  0
 17 14  2  0  0  0  0
 19 20  1  0  0  0  0
 20 22  1  0  0  0  0
 22 25  2  0  0  0  0
 23 22  1  0  0  0  0
 25 24  1  0  0  0  0
 25 21  1  0  0  0  0
 26  5  1  0  0  0  0
 26 27  1  0  0  0  0
 27 30  1  0  0  0  0
 28 29  2  0  0  0  0
 28 27  1  0  0  0  0
 29 32  1  0  0  0  0
 30 31  1  0  0  0  0
 32 31  1  0  0  0  0
M  END
>  <MODEL>
6

>  <REMARK>
 VINA RESULT:      -8.2      2.868      5.767
  Name = 
  6 active torsions:
  status: ('A' for Active; 'I' for Inactive)
    1  A    between atoms: C_1  and  N_27
    2  A    between atoms: C_2  and  C_23
    3  A    between atoms: C_8  and  N_30
    4  A    between atoms: C_9  and  C_23
    5  A    between atoms: C_12  and  N_30
    6  A    between atoms: C_17  and  N_27
                            x       y       z     vdW  Elec       q    Type
                         _______ _______ _______ _____ _____    ______ ____

>  <TORSDO>
F 6

$$$$
=
 OpenBabel10222416323D

 32 35  0  0  1  0  0  0  0  0999 V2000
  181.6470  178.2560  143.9630 S   0  0  0  0  0  1  0  0  0  0  0  0
  184.0970  178.2810  141.0570 C   0  0  1  0  0  3  0  0  0  0  0  0
  185.0140  178.9130  142.0870 C   0  0  2  0  0  3  0  0  0  0  0  0
  182.6810  179.2880  142.8450 C   0  0  1  0  0  3  0  0  0  0  0  0
  186.0290  177.9680  142.7280 C   0  0  2  0  0  3  0  0  0  0  0  0
  184.0230  179.1400  145.5760 F   0  0  0  0  0  0  0  0  0  0  0  0
  184.1250  179.2330  143.1990 C   0  0  1  0  0  3  0  0  0  0  0  0
  184.6680  178.9940  144.3750 C   0  0  2  0  0  3  0  0  0  0  0  0
  182.6480  178.6600  141.4520 C   0  0  0  0  0  2  0  0  0  0  0  0
  185.9470  178.2530  144.2360 C   0  0  0  0  0  2  0  0  0  0  0  0
  184.1810  180.1300  139.4840 O   0  0  0  0  0  1  0  0  0  0  0  0
  184.3910  178.8190  139.7120 N   0  0  0  0  0  0  0  0  0  0  0  0
  186.9510  177.4990  137.3250 C   0  0  0  0  0  0  0  0  0  0  0  0
  184.1880  177.2920  137.7810 C   0  0  0  0  0  3  0  0  0  0  0  0
  186.3460  178.1490  138.4040 C   0  0  0  0  0  3  0  0  0  0  0  0
  184.7710  176.6450  136.6870 C   0  0  0  0  0  3  0  0  0  0  0  0
  184.9790  178.0190  138.6680 C   0  0  0  0  0  0  0  0  0  0  0  0
  186.1440  176.7320  136.4630 C   0  0  0  0  0  3  0  0  0  0  0  0
  188.6980  177.3810  135.5260 C   0  0  0  0  0  1  0  0  0  0  0  0
  188.4130  177.7020  136.9830 C   0  0  2  0  0  3  0  0  0  0  0  0
  189.3770  178.6940  139.4860 O   0  0  0  0  0  1  0  0  0  0  0  0
  189.3700  176.9350  137.8670 C   0  0  0  0  0  0  0  0  0  0  0  0
  189.7170  175.5800  137.5050 N   0  0  0  0  0  1  0  0  0  0  0  0
  190.8270  176.7630  139.8570 C   0  0  0  0  0  1  0  0  0  0  0  0
  189.8390  177.4770  139.0120 C   0  0  0  0  0  0  0  0  0  0  0  0
  187.3840  178.2480  142.2250 N   0  0  0  0  0  2  0  0  0  0  0  0
  188.4550  177.6550  143.0320 C   0  0  1  0  0  3  0  0  0  0  0  0
  188.6790  176.1800  142.8290 C   0  0  0  0  0  3  0  0  0  0  0  0
  189.7720  175.6360  143.2150 N   0  0  0  0  0  0  0  0  0  0  0  0
  189.7510  178.4490  143.0640 C   0  0  0  0  0  2  0  0  0  0  0  0
  190.6570  177.8210  144.1000 C   0  0  0  0  0  2  0  0  0  0  0  0
  190.9450  176.3610  143.7260 C   0  0  0  0  0  2  0  0  0  0  0  0
  2 12  1  6  0  0  0
  2  9  1  0  0  0  0
  2  3  1  0  0  0  0
  3  5  1  0  0  0  0
  3  7  1  0  0  0  0
  4  7  1  0  0  0  0
  4  1  1  0  0  0  0
  5 10  1  0  0  0  0
  7  8  1  0  0  0  0
  8  6  1  0  0  0  0
  9  4  1  0  0  0  0
 10  8  1  0  0  0  0
 11 12  1  0  0  0  0
 13 15  1  0  0  0  0
 14 17  1  0  0  0  0
 15 17  2  0  0  0  0
 16 14  2  0  0  0  0
 17 12  1  0  0  0  0
 18 16  1  0  0  0  0
 18 13  2  0  0  0  0
 19 20  1  0  0  0  0
 20 13  1  0  0  0  0
 20 22  1  0  0  0  0
 22 25  2  0  0  0  0
 23 22  1  0  0  0  0
 25 21  1  0  0  0  0
 25 24  1  0  0  0  0
 26  5  1  0  0  0  0
 26 27  1  0  0  0  0
 27 30  1  0  0  0  0
 28 27  1  0  0  0  0
 28 29  2  0  0  0  0
 29 32  1  0  0  0  0
 30 31  1  0  0  0  0
 32 31  1  0  0  0  0
M  END
>  <MODEL>
7

>  <REMARK>
 VINA RESULT:      -8.1      3.875      7.258
  Name = 
  6 active torsions:
  status: ('A' for Active; 'I' for Inactive)
    1  A    between atoms: C_1  and  N_27
    2  A    between atoms: C_2  and  C_23
    3  A    between atoms: C_8  and  N_30
    4  A    between atoms: C_9  and  C_23
    5  A    between atoms: C_12  and  N_30
    6  A    between atoms: C_17  and  N_27
                            x       y       z     vdW  Elec       q    Type
                         _______ _______ _______ _____ _____    ______ ____

>  <TORSDO>
F 6

$$$$
=
 OpenBabel10222416323D

 32 35  0  0  1  0  0  0  0  0999 V2000
  188.1430  177.5160  140.4070 S   0  0  0  0  0  1  0  0  0  0  0  0
  185.9740  177.8120  143.5140 C   0  0  1  0  0  3  0  0  0  0  0  0
  185.1760  178.7530  142.6330 C   0  0  2  0  0  3  0  0  0  0  0  0
  187.4740  178.6370  141.7030 C   0  0  1  0  0  3  0  0  0  0  0  0
  183.9190  178.1560  142.0040 C   0  0  2  0  0  3  0  0  0  0  0  0
  185.9600  179.1150  139.1020 F   0  0  0  0  0  0  0  0  0  0  0  0
  186.0410  178.9710  141.4780 C   0  0  1  0  0  3  0  0  0  0  0  0
  185.3800  178.9980  140.3390 C   0  0  2  0  0  3  0  0  0  0  0  0
  187.4420  177.8720  143.0240 C   0  0  0  0  0  2  0  0  0  0  0  0
  183.9690  178.5760  140.5270 C   0  0  0  0  0  2  0  0  0  0  0  0
  184.7420  178.7210  145.4000 O   0  0  0  0  0  1  0  0  0  0  0  0
  185.9120  178.2540  144.9230 N   0  0  0  0  0  0  0  0  0  0  0  0
  189.3160  177.3490  146.1870 C   0  0  0  0  0  0  0  0  0  0  0  0
  186.8590  178.2530  147.2050 C   0  0  0  0  0  3  0  0  0  0  0  0
  188.2390  177.6250  145.3390 C   0  0  0  0  0  3  0  0  0  0  0  0
  187.9190  177.9700  148.0720 C   0  0  0  0  0  3  0  0  0  0  0  0
  187.0250  178.1180  145.8280 C   0  0  0  0  0  0  0  0  0  0  0  0
  189.1450  177.5340  147.5720 C   0  0  0  0  0  3  0  0  0  0  0  0
  191.6680  176.6860  146.7590 C   0  0  0  0  0  1  0  0  0  0  0  0
  190.6040  176.7370  145.6760 C   0  0  2  0  0  3  0  0  0  0  0  0
  190.3690  175.6450  143.0440 O   0  0  0  0  0  1  0  0  0  0  0  0
  191.1650  177.4100  144.4450 C   0  0  0  0  0  0  0  0  0  0  0  0
  191.7340  178.7320  144.5720 N   0  0  0  0  0  1  0  0  0  0  0  0
  191.6790  177.4380  142.0260 C   0  0  0  0  0  1  0  0  0  0  0  0
  191.0770  176.8190  143.2330 C   0  0  0  0  0  0  0  0  0  0  0  0
  182.7110  178.6970  142.6510 N   0  0  0  0  0  2  0  0  0  0  0  0
  181.5850  178.9050  141.7360 C   0  0  1  0  0  3  0  0  0  0  0  0
  181.0810  177.6710  141.0370 C   0  0  0  0  0  3  0  0  0  0  0  0
  179.9230  177.6690  140.4890 N   0  0  0  0  0  0  0  0  0  0  0  0
  180.4640  179.7720  142.2840 C   0  0  0  0  0  2  0  0  0  0  0  0
  179.5020  180.0610  141.1510 C   0  0  0  0  0  2  0  0  0  0  0  0
  178.9310  178.7480  140.6030 C   0  0  0  0  0  2  0  0  0  0  0  0
  1  4  1  0  0  0  0
  2 12  1  1  0  0  0
  3  2  1  0  0  0  0
  4  9  1  0  0  0  0
  5  3  1  0  0  0  0
  5 26  1  0  0  0  0
  6  8  1  0  0  0  0
  7  4  1  0  0  0  0
  7  3  1  0  0  0  0
  8 10  1  0  0  0  0
  8  7  1  0  0  0  0
  9  2  1  0  0  0  0
 10  5  1  0  0  0  0
 12 11  1  0  0  0  0
 12 17  1  0  0  0  0
 13 18  1  0  0  0  0
 14 16  1  0  0  0  0
 15 17  1  0  0  0  0
 15 13  2  0  0  0  0
 17 14  2  0  0  0  0
 18 16  2  0  0  0  0
 20 13  1  0  0  0  0
 20 19  1  0  0  0  0
 21 25  1  0  0  0  0
 22 23  1  0  0  0  0
 22 20  1  0  0  0  0
 24 25  1  0  0  0  0
 25 22  2  0  0  0  0
 27 30  1  0  0  0  0
 27 26  1  0  0  0  0
 28 27  1  0  0  0  0
 29 32  1  0  0  0  0
 29 28  2  0  0  0  0
 31 30  1  0  0  0  0
 32 31  1  0  0  0  0
M  END
>  <MODEL>
8

>  <REMARK>
 VINA RESULT:      -8.1      3.424      7.309
  Name = 
  6 active torsions:
  status: ('A' for Active; 'I' for Inactive)
    1  A    between atoms: C_1  and  N_27
    2  A    between atoms: C_2  and  C_23
    3  A    between atoms: C_8  and  N_30
    4  A    between atoms: C_9  and  C_23
    5  A    between atoms: C_12  and  N_30
    6  A    between atoms: C_17  and  N_27
                            x       y       z     vdW  Elec       q    Type
                         _______ _______ _______ _____ _____    ______ ____

>  <TORSDO>
F 6

$$$$
=
 OpenBabel10222416323D

 32 35  0  0  1  0  0  0  0  0999 V2000
  190.5520  177.1380  138.8800 S   0  0  0  0  0  1  0  0  0  0  0  0
  186.9580  177.8840  139.8680 C   0  0  1  0  0  3  0  0  0  0  0  0
  186.8310  178.2380  138.3990 C   0  0  2  0  0  3  0  0  0  0  0  0
  189.2330  178.4150  138.9970 C   0  0  1  0  0  3  0  0  0  0  0  0
  186.1990  177.1620  137.5170 C   0  0  2  0  0  3  0  0  0  0  0  0
  189.5560  177.5900  136.0820 F   0  0  0  0  0  0  0  0  0  0  0  0
  188.2110  178.2730  137.9250 C   0  0  1  0  0  3  0  0  0  0  0  0
  188.3550  177.7470  136.7250 C   0  0  2  0  0  3  0  0  0  0  0  0
  188.4300  178.1540  140.2700 C   0  0  0  0  0  2  0  0  0  0  0  0
  187.1130  177.0630  136.2860 C   0  0  0  0  0  2  0  0  0  0  0  0
  185.2320  179.5840  140.0430 O   0  0  0  0  0  1  0  0  0  0  0  0
  186.0670  178.7400  140.6790 N   0  0  0  0  0  0  0  0  0  0  0  0
  187.0000  177.8300  144.1860 C   0  0  0  0  0  0  0  0  0  0  0  0
  184.8000  178.8830  142.7940 C   0  0  0  0  0  3  0  0  0  0  0  0
  187.0630  178.0730  142.8110 C   0  0  0  0  0  3  0  0  0  0  0  0
  184.7100  178.6340  144.1670 C   0  0  0  0  0  3  0  0  0  0  0  0
  185.9910  178.6390  142.1140 C   0  0  0  0  0  0  0  0  0  0  0  0
  185.8030  178.1240  144.8670 C   0  0  0  0  0  3  0  0  0  0  0  0
  188.0840  177.4540  146.4180 C   0  0  0  0  0  1  0  0  0  0  0  0
  188.1250  177.1410  144.9330 C   0  0  2  0  0  3  0  0  0  0  0  0
  189.3700  175.5930  142.8760 O   0  0  0  0  0  1  0  0  0  0  0  0
  189.5030  177.4380  144.3890 C   0  0  0  0  0  0  0  0  0  0  0  0
  190.1810  178.6370  144.8280 N   0  0  0  0  0  1  0  0  0  0  0  0
  191.4440  176.8800  142.9630 C   0  0  0  0  0  1  0  0  0  0  0  0
  190.0670  176.6370  143.4580 C   0  0  0  0  0  0  0  0  0  0  0  0
  184.8380  177.5570  137.1160 N   0  0  0  0  0  2  0  0  0  0  0  0
  183.8090  177.2550  138.1150 C   0  0  1  0  0  3  0  0  0  0  0  0
  182.6600  178.2240  138.1760 C   0  0  0  0  0  3  0  0  0  0  0  0
  181.5680  177.8920  138.7580 N   0  0  0  0  0  0  0  0  0  0  0  0
  183.3600  175.8030  138.1560 C   0  0  0  0  0  2  0  0  0  0  0  0
  182.4730  175.6240  139.3690 C   0  0  0  0  0  2  0  0  0  0  0  0
  181.2540  176.5490  139.2660 C   0  0  0  0  0  2  0  0  0  0  0  0
  1  4  1  0  0  0  0
  2  9  1  0  0  0  0
  2 12  1  1  0  0  0
  3  2  1  0  0  0  0
  4  9  1  0  0  0  0
  5  3  1  0  0  0  0
  6  8  1  0  0  0  0
  7  3  1  0  0  0  0
  7  4  1  0  0  0  0
  8  7  1  0  0  0  0
 10  8  1  0  0  0  0
 10  5  1  0  0  0  0
 11 12  1  0  0  0  0
 12 17  1  0  0  0  0
 13 18  1  0  0  0  0
 13 20  1  0  0  0  0
 14 16  1  0  0  0  0
 15 13  2  0  0  0  0
 16 18  2  0  0  0  0
 17 14  2  0  0  0  0
 17 15  1  0  0  0  0
 20 19  1  0  0  0  0
 21 25  1  0  0  0  0
 22 23  1  0  0  0  0
 22 20  1  0  0  0  0
 24 25  1  0  0  0  0
 25 22  2  0  0  0  0
 26  5  1  0  0  0  0
 26 27  1  0  0  0  0
 27 30  1  0  0  0  0
 27 28  1  0  0  0  0
 28 29  2  0  0  0  0
 29 32  1  0  0  0  0
 30 31  1  0  0  0  0
 32 31  1  0  0  0  0
M  END
>  <MODEL>
9

>  <REMARK>
 VINA RESULT:      -8.1      3.226      5.898
  Name = 
  6 active torsions:
  status: ('A' for Active; 'I' for Inactive)
    1  A    between atoms: C_1  and  N_27
    2  A    between atoms: C_2  and  C_23
    3  A    between atoms: C_8  and  N_30
    4  A    between atoms: C_9  and  C_23
    5  A    between atoms: C_12  and  N_30
    6  A    between atoms: C_17  and  N_27
                            x       y       z     vdW  Elec       q    Type
                         _______ _______ _______ _____ _____    ______ ____

>  <TORSDO>
F 6

$$$$
