=
 OpenBabel10222418253D

 26 28  0  0  1  0  0  0  0  0999 V2000
  188.9530  177.8370  143.6370 C   0  0  0  0  0  0  0  0  0  0  0  0
  186.2990  178.1760  142.8440 C   0  0  0  0  0  3  0  0  0  0  0  0
  188.6560  178.1840  142.3180 C   0  0  0  0  0  3  0  0  0  0  0  0
  186.5830  177.8220  144.1680 C   0  0  0  0  0  0  0  0  0  0  0  0
  187.9200  177.6590  144.5610 C   0  0  0  0  0  3  0  0  0  0  0  0
  187.3250  178.3630  141.9110 C   0  0  0  0  0  0  0  0  0  0  0  0
  190.3070  177.6660  144.0390 N   0  0  0  0  0  0  0  0  0  0  0  0
  191.4000  176.8990  144.6950 C   0  0  1  0  0  0  0  0  0  0  0  0
  191.7460  175.6460  143.9140 C   0  0  0  0  0  1  0  0  0  0  0  0
  191.7320  178.1130  144.1350 C   0  0  0  0  0  2  0  0  0  0  0  0
  191.2100  176.8320  146.2040 C   0  0  0  0  0  2  0  0  0  0  0  0
  192.5900  176.2060  148.1140 N   0  0  0  0  0  1  0  0  0  0  0  0
  192.0850  175.7560  146.8290 C   0  0  0  0  0  2  0  0  0  0  0  0
  185.5150  177.6650  145.0620 O   0  0  0  0  0  0  0  0  0  0  0  0
  183.6410  179.1340  145.4460 O   0  0  0  0  0  0  0  0  0  0  0  0
  185.5850  179.3510  146.5770 O   0  0  0  0  0  0  0  0  0  0  0  0
  184.9120  178.7050  145.7500 N   0  0  0  0  0  0  0  0  0  0  0  0
  186.9720  178.7010  140.5940 O   0  0  0  0  0  0  0  0  0  0  0  0
  187.6210  178.3060  139.4130 C   0  0  0  0  0  0  0  0  0  0  0  0
  189.0150  178.3180  139.2630 C   0  0  0  0  0  3  0  0  0  0  0  0
  187.4250  177.5250  137.1570 N   0  0  0  0  0  0  0  0  0  0  0  0
  186.8390  177.9040  138.3250 C   0  0  0  0  0  3  0  0  0  0  0  0
  188.7750  177.5250  136.9980 C   0  0  0  0  0  0  0  0  0  0  0  0
  189.5970  177.9250  138.0580 C   0  0  0  0  0  3  0  0  0  0  0  0
  189.3480  177.1060  135.7170 C   0  0  0  0  0  3  0  0  0  0  0  0
  188.8340  176.1740  135.0430 O   0  0  0  0  0  0  0  0  0  0  0  0
  1  7  1  0  0  0  0
  1  5  1  0  0  0  0
  2  4  1  0  0  0  0
  3  1  2  0  0  0  0
  4  5  2  0  0  0  0
  4 14  1  0  0  0  0
  6  3  1  0  0  0  0
  6  2  2  0  0  0  0
  7 10  1  0  0  0  0
  7  8  1  0  0  0  0
  8  9  1  6  0  0  0
  8 11  1  0  0  0  0
 10  8  1  0  0  0  0
 11 13  1  0  0  0  0
 13 12  1  0  0  0  0
 14 17  1  0  0  0  0
 15 17  2  0  0  0  0
 17 16  2  0  0  0  0
 18  6  1  0  0  0  0
 19 18  1  0  0  0  0
 20 19  1  0  0  0  0
 21 22  1  0  0  0  0
 22 19  2  0  0  0  0
 23 21  2  0  0  0  0
 23 24  1  0  0  0  0
 24 20  2  0  0  0  0
 25 23  1  0  0  0  0
 26 25  2  0  0  0  0
M  END
>  <MODEL>
1

>  <REMARK>
 VINA RESULT:      -7.5      0.000      0.000
  Name = 
  8 active torsions:
  status: ('A' for Active; 'I' for Inactive)
    1  A    between atoms: C_1  and  N_11
    2  A    between atoms: C_2  and  CA_16
    3  A    between atoms: C_4  and  C_17
    4  A    between atoms: C_4  and  C_18
    5  A    between atoms: O_5  and  C_19
    6  A    between atoms: O_5  and  N_21
    7  A    between atoms: C_6  and  O_22
    8  A    between atoms: O_22  and  C_26
                            x       y       z     vdW  Elec       q    Type
                         _______ _______ _______ _____ _____    ______ ____

>  <TORSDO>
F 8

$$$$
=
 OpenBabel10222418253D

 26 28  0  0  1  0  0  0  0  0999 V2000
  182.5390  178.8720  143.6390 C   0  0  0  0  0  0  0  0  0  0  0  0
  185.3210  179.0750  143.6660 C   0  0  0  0  0  3  0  0  0  0  0  0
  183.2340  178.7810  144.8460 C   0  0  0  0  0  3  0  0  0  0  0  0
  184.6350  179.1610  142.4490 C   0  0  0  0  0  0  0  0  0  0  0  0
  183.2360  179.0640  142.4440 C   0  0  0  0  0  3  0  0  0  0  0  0
  184.6330  178.8880  144.8710 C   0  0  0  0  0  0  0  0  0  0  0  0
  181.1190  178.7700  143.6280 N   0  0  0  0  0  0  0  0  0  0  0  0
  179.7920  178.9210  142.9730 C   0  0  1  0  0  0  0  0  0  0  0  0
  179.6140  177.9270  141.8420 C   0  0  0  0  0  1  0  0  0  0  0  0
  179.8050  178.4310  144.2600 C   0  0  0  0  0  2  0  0  0  0  0  0
  179.4330  180.3870  142.7660 C   0  0  0  0  0  2  0  0  0  0  0  0
  180.0940  181.1400  140.5430 N   0  0  0  0  0  1  0  0  0  0  0  0
  178.9800  180.6540  141.3400 C   0  0  0  0  0  2  0  0  0  0  0  0
  185.3770  179.3660  141.2780 O   0  0  0  0  0  0  0  0  0  0  0  0
  184.3680  180.2340  139.2670 O   0  0  0  0  0  0  0  0  0  0  0  0
  184.7810  178.0290  139.5460 O   0  0  0  0  0  0  0  0  0  0  0  0
  184.8820  179.1870  139.9970 N   0  0  0  0  0  0  0  0  0  0  0  0
  185.3810  178.7930  146.0560 O   0  0  0  0  0  0  0  0  0  0  0  0
  186.6760  178.2690  146.2030 C   0  0  0  0  0  0  0  0  0  0  0  0
  187.4110  177.7310  145.1370 C   0  0  0  0  0  3  0  0  0  0  0  0
  188.4980  177.7510  147.6690 N   0  0  0  0  0  0  0  0  0  0  0  0
  187.2520  178.2610  147.4780 C   0  0  0  0  0  3  0  0  0  0  0  0
  189.2260  177.2330  146.6440 C   0  0  0  0  0  0  0  0  0  0  0  0
  188.6890  177.2140  145.3520 C   0  0  0  0  0  3  0  0  0  0  0  0
  190.5640  176.6990  146.9100 C   0  0  0  0  0  3  0  0  0  0  0  0
  191.5780  177.1450  146.3110 O   0  0  0  0  0  0  0  0  0  0  0  0
  1  3  1  0  0  0  0
  2  6  1  0  0  0  0
  3  6  2  0  0  0  0
  4  2  2  0  0  0  0
  5  4  1  0  0  0  0
  5  1  2  0  0  0  0
  6 18  1  0  0  0  0
  7  1  1  0  0  0  0
  7 10  1  0  0  0  0
  8  9  1  6  0  0  0
  8  7  1  0  0  0  0
  8 10  1  0  0  0  0
 11  8  1  0  0  0  0
 12 13  1  0  0  0  0
 13 11  1  0  0  0  0
 14  4  1  0  0  0  0
 15 17  2  0  0  0  0
 16 17  2  0  0  0  0
 17 14  1  0  0  0  0
 18 19  1  0  0  0  0
 19 22  1  0  0  0  0
 20 24  1  0  0  0  0
 20 19  2  0  0  0  0
 22 21  2  0  0  0  0
 23 25  1  0  0  0  0
 23 21  1  0  0  0  0
 24 23  2  0  0  0  0
 26 25  2  0  0  0  0
M  END
>  <MODEL>
2

>  <REMARK>
 VINA RESULT:      -7.3      4.326      9.099
  Name = 
  8 active torsions:
  status: ('A' for Active; 'I' for Inactive)
    1  A    between atoms: C_1  and  N_11
    2  A    between atoms: C_2  and  CA_16
    3  A    between atoms: C_4  and  C_17
    4  A    between atoms: C_4  and  C_18
    5  A    between atoms: O_5  and  C_19
    6  A    between atoms: O_5  and  N_21
    7  A    between atoms: C_6  and  O_22
    8  A    between atoms: O_22  and  C_26
                            x       y       z     vdW  Elec       q    Type
                         _______ _______ _______ _____ _____    ______ ____

>  <TORSDO>
F 8

$$$$
=
 OpenBabel10222418253D

 26 28  0  0  1  0  0  0  0  0999 V2000
  189.7510  177.8780  141.8210 C   0  0  0  0  0  0  0  0  0  0  0  0
  188.7260  177.1460  139.3320 C   0  0  0  0  0  3  0  0  0  0  0  0
  190.4280  176.9450  141.0340 C   0  0  0  0  0  3  0  0  0  0  0  0
  188.0350  178.0780  140.1150 C   0  0  0  0  0  0  0  0  0  0  0  0
  188.5600  178.4450  141.3630 C   0  0  0  0  0  3  0  0  0  0  0  0
  189.9230  176.5750  139.7770 C   0  0  0  0  0  0  0  0  0  0  0  0
  190.2770  178.2510  143.0900 N   0  0  0  0  0  0  0  0  0  0  0  0
  190.4880  178.0300  144.5460 C   0  0  1  0  0  0  0  0  0  0  0  0
  191.4050  176.8510  144.8030 C   0  0  0  0  0  1  0  0  0  0  0  0
  191.0430  179.1640  143.9960 C   0  0  0  0  0  2  0  0  0  0  0  0
  189.1880  178.1730  145.3280 C   0  0  0  0  0  2  0  0  0  0  0  0
  186.9290  177.6850  144.5510 N   0  0  0  0  0  1  0  0  0  0  0  0
  188.1910  177.0880  144.9530 C   0  0  0  0  0  2  0  0  0  0  0  0
  186.8500  178.6280  139.6090 O   0  0  0  0  0  0  0  0  0  0  0  0
  185.4520  178.2520  141.5370 O   0  0  0  0  0  0  0  0  0  0  0  0
  184.9080  179.7520  139.9370 O   0  0  0  0  0  0  0  0  0  0  0  0
  185.7380  178.9310  140.3760 N   0  0  0  0  0  0  0  0  0  0  0  0
  190.5590  175.6330  138.9510 O   0  0  0  0  0  0  0  0  0  0  0  0
  191.5440  175.8820  137.9820 C   0  0  0  0  0  0  0  0  0  0  0  0
  191.3820  175.5650  136.6250 C   0  0  0  0  0  3  0  0  0  0  0  0
  193.7420  176.6950  137.4880 N   0  0  0  0  0  0  0  0  0  0  0  0
  192.7550  176.4490  138.3910 C   0  0  0  0  0  3  0  0  0  0  0  0
  193.5970  176.4000  136.1690 C   0  0  0  0  0  0  0  0  0  0  0  0
  192.4050  175.8250  135.7140 C   0  0  0  0  0  3  0  0  0  0  0  0
  194.6950  176.6880  135.2420 C   0  0  0  0  0  3  0  0  0  0  0  0
  195.5710  177.5520  135.5140 O   0  0  0  0  0  0  0  0  0  0  0  0
  1  7  1  0  0  0  0
  2  6  2  0  0  0  0
  2  4  1  0  0  0  0
  3  1  2  0  0  0  0
  4  5  2  0  0  0  0
  5  1  1  0  0  0  0
  6  3  1  0  0  0  0
  7 10  1  0  0  0  0
  7  8  1  0  0  0  0
  8  9  1  1  0  0  0
  8 11  1  0  0  0  0
 10  8  1  0  0  0  0
 12 13  1  0  0  0  0
 13 11  1  0  0  0  0
 14  4  1  0  0  0  0
 14 17  1  0  0  0  0
 16 17  2  0  0  0  0
 17 15  2  0  0  0  0
 18  6  1  0  0  0  0
 19 22  1  0  0  0  0
 19 18  1  0  0  0  0
 20 19  2  0  0  0  0
 21 22  2  0  0  0  0
 23 21  1  0  0  0  0
 24 23  2  0  0  0  0
 24 20  1  0  0  0  0
 25 26  2  0  0  0  0
 25 23  1  0  0  0  0
M  END
>  <MODEL>
3

>  <REMARK>
 VINA RESULT:      -7.2      3.087      4.587
  Name = 
  8 active torsions:
  status: ('A' for Active; 'I' for Inactive)
    1  A    between atoms: C_1  and  N_11
    2  A    between atoms: C_2  and  CA_16
    3  A    between atoms: C_4  and  C_17
    4  A    between atoms: C_4  and  C_18
    5  A    between atoms: O_5  and  C_19
    6  A    between atoms: O_5  and  N_21
    7  A    between atoms: C_6  and  O_22
    8  A    between atoms: O_22  and  C_26
                            x       y       z     vdW  Elec       q    Type
                         _______ _______ _______ _____ _____    ______ ____

>  <TORSDO>
F 8

$$$$
=
 OpenBabel10222418253D

 26 28  0  0  1  0  0  0  0  0999 V2000
  189.9290  177.9800  141.7420 C   0  0  0  0  0  0  0  0  0  0  0  0
  188.5760  177.7970  139.3090 C   0  0  0  0  0  3  0  0  0  0  0  0
  188.6070  178.4160  141.6430 C   0  0  0  0  0  3  0  0  0  0  0  0
  189.9040  177.3620  139.3940 C   0  0  0  0  0  0  0  0  0  0  0  0
  190.5760  177.4520  140.6220 C   0  0  0  0  0  3  0  0  0  0  0  0
  187.9160  178.3220  140.4250 C   0  0  0  0  0  0  0  0  0  0  0  0
  190.6170  178.0730  142.9850 N   0  0  0  0  0  0  0  0  0  0  0  0
  190.8560  177.6580  144.3930 C   0  0  1  0  0  0  0  0  0  0  0  0
  191.4430  176.2620  144.4690 C   0  0  0  0  0  1  0  0  0  0  0  0
  191.6540  178.6610  143.8900 C   0  0  0  0  0  2  0  0  0  0  0  0
  189.6950  178.0500  145.2970 C   0  0  0  0  0  2  0  0  0  0  0  0
  187.4160  177.5220  145.9840 N   0  0  0  0  0  1  0  0  0  0  0  0
  188.5000  177.1290  145.1020 C   0  0  0  0  0  2  0  0  0  0  0  0
  190.5070  176.8280  138.2470 O   0  0  0  0  0  0  0  0  0  0  0  0
  192.8350  176.2010  138.1880 O   0  0  0  0  0  0  0  0  0  0  0  0
  191.1800  174.6630  138.2130 O   0  0  0  0  0  0  0  0  0  0  0  0
  191.5030  175.8660  138.2620 N   0  0  0  0  0  0  0  0  0  0  0  0
  186.5890  178.7560  140.2690 O   0  0  0  0  0  0  0  0  0  0  0  0
  185.5740  178.7520  141.2400 C   0  0  0  0  0  0  0  0  0  0  0  0
  185.8320  178.6890  142.6170 C   0  0  0  0  0  3  0  0  0  0  0  0
  183.2280  178.7720  141.7190 N   0  0  0  0  0  0  0  0  0  0  0  0
  184.2430  178.7870  140.8140 C   0  0  0  0  0  3  0  0  0  0  0  0
  183.4610  178.7170  143.0570 C   0  0  0  0  0  0  0  0  0  0  0  0
  184.7770  178.6740  143.5300 C   0  0  0  0  0  3  0  0  0  0  0  0
  182.3270  178.7040  143.9850 C   0  0  0  0  0  3  0  0  0  0  0  0
  181.1780  179.0690  143.6200 O   0  0  0  0  0  0  0  0  0  0  0  0
  1  7  1  0  0  0  0
  2  4  2  0  0  0  0
  2  6  1  0  0  0  0
  3  1  1  0  0  0  0
  4  5  1  0  0  0  0
  5  1  2  0  0  0  0
  6  3  2  0  0  0  0
  7 10  1  0  0  0  0
  7  8  1  0  0  0  0
  8  9  1  1  0  0  0
  8 11  1  0  0  0  0
 10  8  1  0  0  0  0
 13 11  1  0  0  0  0
 13 12  1  0  0  0  0
 14 17  1  0  0  0  0
 14  4  1  0  0  0  0
 15 17  2  0  0  0  0
 16 17  2  0  0  0  0
 18  6  1  0  0  0  0
 18 19  1  0  0  0  0
 19 20  1  0  0  0  0
 20 24  2  0  0  0  0
 21 23  2  0  0  0  0
 22 19  2  0  0  0  0
 22 21  1  0  0  0  0
 23 24  1  0  0  0  0
 23 25  1  0  0  0  0
 26 25  2  0  0  0  0
M  END
>  <MODEL>
4

>  <REMARK>
 VINA RESULT:      -7.1      2.672      6.366
  Name = 
  8 active torsions:
  status: ('A' for Active; 'I' for Inactive)
    1  A    between atoms: C_1  and  N_11
    2  A    between atoms: C_2  and  CA_16
    3  A    between atoms: C_4  and  C_17
    4  A    between atoms: C_4  and  C_18
    5  A    between atoms: O_5  and  C_19
    6  A    between atoms: O_5  and  N_21
    7  A    between atoms: C_6  and  O_22
    8  A    between atoms: O_22  and  C_26
                            x       y       z     vdW  Elec       q    Type
                         _______ _______ _______ _____ _____    ______ ____

>  <TORSDO>
F 8

$$$$
=
 OpenBabel10222418253D

 26 28  0  0  1  0  0  0  0  0999 V2000
  188.0530  177.8880  142.3780 C   0  0  0  0  0  0  0  0  0  0  0  0
  185.3840  178.6470  142.6640 C   0  0  0  0  0  3  0  0  0  0  0  0
  187.3950  178.5370  141.3320 C   0  0  0  0  0  3  0  0  0  0  0  0
  186.0300  177.9920  143.7180 C   0  0  0  0  0  0  0  0  0  0  0  0
  187.3740  177.6180  143.5690 C   0  0  0  0  0  3  0  0  0  0  0  0
  186.0540  178.9290  141.4680 C   0  0  0  0  0  0  0  0  0  0  0  0
  189.4150  177.5030  142.2310 N   0  0  0  0  0  0  0  0  0  0  0  0
  190.7010  176.9760  142.7630 C   0  0  1  0  0  0  0  0  0  0  0  0
  190.5940  175.5060  143.1190 C   0  0  0  0  0  1  0  0  0  0  0  0
  190.6650  177.3150  141.4290 C   0  0  0  0  0  2  0  0  0  0  0  0
  191.3470  177.9530  143.7350 C   0  0  0  0  0  2  0  0  0  0  0  0
  191.6370  177.0990  146.0010 N   0  0  0  0  0  1  0  0  0  0  0  0
  190.7430  177.8380  145.1260 C   0  0  0  0  0  2  0  0  0  0  0  0
  185.3110  177.7520  144.8970 O   0  0  0  0  0  0  0  0  0  0  0  0
  185.7390  179.3570  146.6450 O   0  0  0  0  0  0  0  0  0  0  0  0
  183.6610  178.9900  145.8380 O   0  0  0  0  0  0  0  0  0  0  0  0
  184.8810  178.7420  145.7640 N   0  0  0  0  0  0  0  0  0  0  0  0
  185.3440  179.5740  140.4430 O   0  0  0  0  0  0  0  0  0  0  0  0
  184.5340  178.9760  139.4640 C   0  0  0  0  0  0  0  0  0  0  0  0
  185.0500  178.2400  138.3870 C   0  0  0  0  0  3  0  0  0  0  0  0
  182.3260  178.5900  138.6190 N   0  0  0  0  0  0  0  0  0  0  0  0
  183.1480  179.1410  139.5520 C   0  0  0  0  0  3  0  0  0  0  0  0
  182.8100  177.8690  137.5730 C   0  0  0  0  0  0  0  0  0  0  0  0
  184.1910  177.6820  137.4400 C   0  0  0  0  0  3  0  0  0  0  0  0
  181.8760  177.2990  136.5990 C   0  0  0  0  0  3  0  0  0  0  0  0
  180.6910  177.7160  136.5070 O   0  0  0  0  0  0  0  0  0  0  0  0
  1  5  1  0  0  0  0
  2  4  1  0  0  0  0
  3  6  1  0  0  0  0
  3  1  2  0  0  0  0
  4 14  1  0  0  0  0
  5  4  2  0  0  0  0
  6  2  2  0  0  0  0
  7  1  1  0  0  0  0
  7  8  1  0  0  0  0
  8  9  1  1  0  0  0
  8 11  1  0  0  0  0
 10  7  1  0  0  0  0
 10  8  1  0  0  0  0
 11 13  1  0  0  0  0
 13 12  1  0  0  0  0
 14 17  1  0  0  0  0
 17 16  2  0  0  0  0
 17 15  2  0  0  0  0
 18  6  1  0  0  0  0
 19 22  1  0  0  0  0
 19 18  1  0  0  0  0
 20 19  2  0  0  0  0
 21 22  2  0  0  0  0
 23 21  1  0  0  0  0
 24 23  2  0  0  0  0
 24 20  1  0  0  0  0
 25 23  1  0  0  0  0
 26 25  2  0  0  0  0
M  END
>  <MODEL>
5

>  <REMARK>
 VINA RESULT:      -7.1      2.771      3.570
  Name = 
  8 active torsions:
  status: ('A' for Active; 'I' for Inactive)
    1  A    between atoms: C_1  and  N_11
    2  A    between atoms: C_2  and  CA_16
    3  A    between atoms: C_4  and  C_17
    4  A    between atoms: C_4  and  C_18
    5  A    between atoms: O_5  and  C_19
    6  A    between atoms: O_5  and  N_21
    7  A    between atoms: C_6  and  O_22
    8  A    between atoms: O_22  and  C_26
                            x       y       z     vdW  Elec       q    Type
                         _______ _______ _______ _____ _____    ______ ____

>  <TORSDO>
F 8

$$$$
=
 OpenBabel10222418253D

 26 28  0  0  1  0  0  0  0  0999 V2000
  183.3560  178.6010  142.4760 C   0  0  0  0  0  0  0  0  0  0  0  0
  185.6720  178.5280  144.0300 C   0  0  0  0  0  3  0  0  0  0  0  0
  184.5920  178.3510  141.8770 C   0  0  0  0  0  3  0  0  0  0  0  0
  184.4390  178.7870  144.6410 C   0  0  0  0  0  0  0  0  0  0  0  0
  183.2790  178.8160  143.8530 C   0  0  0  0  0  3  0  0  0  0  0  0
  185.7620  178.3050  142.6520 C   0  0  0  0  0  0  0  0  0  0  0  0
  182.1760  178.6370  141.6810 N   0  0  0  0  0  0  0  0  0  0  0  0
  181.4510  178.4830  140.3910 C   0  0  1  0  0  0  0  0  0  0  0  0
  181.3870  177.0310  139.9580 C   0  0  0  0  0  1  0  0  0  0  0  0
  180.7080  178.8570  141.4890 C   0  0  0  0  0  2  0  0  0  0  0  0
  181.8500  179.5620  139.3920 C   0  0  0  0  0  2  0  0  0  0  0  0
  184.1930  180.1410  139.0510 N   0  0  0  0  0  1  0  0  0  0  0  0
  183.1440  179.2080  138.6770 C   0  0  0  0  0  2  0  0  0  0  0  0
  184.4090  178.9840  146.0280 O   0  0  0  0  0  0  0  0  0  0  0  0
  186.2140  177.6850  146.9620 O   0  0  0  0  0  0  0  0  0  0  0  0
  185.7920  179.8020  147.6290 O   0  0  0  0  0  0  0  0  0  0  0  0
  185.5100  178.8620  146.8590 N   0  0  0  0  0  0  0  0  0  0  0  0
  187.0310  178.0680  142.0980 O   0  0  0  0  0  0  0  0  0  0  0  0
  188.2060  177.7240  142.7850 C   0  0  0  0  0  0  0  0  0  0  0  0
  189.2520  178.6300  143.0170 C   0  0  0  0  0  3  0  0  0  0  0  0
  189.4820  176.0290  143.8970 N   0  0  0  0  0  0  0  0  0  0  0  0
  188.3540  176.4090  143.2380 C   0  0  0  0  0  3  0  0  0  0  0  0
  190.5010  176.8970  144.1350 C   0  0  0  0  0  0  0  0  0  0  0  0
  190.4000  178.2210  143.6940 C   0  0  0  0  0  3  0  0  0  0  0  0
  191.6910  176.4300  144.8500 C   0  0  0  0  0  3  0  0  0  0  0  0
  191.9050  176.7560  146.0480 O   0  0  0  0  0  0  0  0  0  0  0  0
  1  5  1  0  0  0  0
  2  4  1  0  0  0  0
  3  1  2  0  0  0  0
  3  6  1  0  0  0  0
  4 14  1  0  0  0  0
  5  4  2  0  0  0  0
  6  2  2  0  0  0  0
  7  1  1  0  0  0  0
  8  9  1  6  0  0  0
  8 10  1  0  0  0  0
  8  7  1  0  0  0  0
 10  7  1  0  0  0  0
 11  8  1  0  0  0  0
 13 12  1  0  0  0  0
 13 11  1  0  0  0  0
 14 17  1  0  0  0  0
 17 15  2  0  0  0  0
 17 16  2  0  0  0  0
 18  6  1  0  0  0  0
 18 19  1  0  0  0  0
 19 20  2  0  0  0  0
 19 22  1  0  0  0  0
 20 24  1  0  0  0  0
 21 23  1  0  0  0  0
 22 21  2  0  0  0  0
 23 25  1  0  0  0  0
 24 23  2  0  0  0  0
 25 26  2  0  0  0  0
M  END
>  <MODEL>
6

>  <REMARK>
 VINA RESULT:      -7.1      3.332      7.424
  Name = 
  8 active torsions:
  status: ('A' for Active; 'I' for Inactive)
    1  A    between atoms: C_1  and  N_11
    2  A    between atoms: C_2  and  CA_16
    3  A    between atoms: C_4  and  C_17
    4  A    between atoms: C_4  and  C_18
    5  A    between atoms: O_5  and  C_19
    6  A    between atoms: O_5  and  N_21
    7  A    between atoms: C_6  and  O_22
    8  A    between atoms: O_22  and  C_26
                            x       y       z     vdW  Elec       q    Type
                         _______ _______ _______ _____ _____    ______ ____

>  <TORSDO>
F 8

$$$$
=
 OpenBabel10222418253D

 26 28  0  0  1  0  0  0  0  0999 V2000
  189.9390  177.1050  144.4690 C   0  0  0  0  0  0  0  0  0  0  0  0
  189.3930  177.5440  147.1690 C   0  0  0  0  0  3  0  0  0  0  0  0
  188.6430  177.4250  144.8760 C   0  0  0  0  0  3  0  0  0  0  0  0
  190.6950  177.2170  146.7730 C   0  0  0  0  0  0  0  0  0  0  0  0
  190.9630  177.0030  145.4130 C   0  0  0  0  0  3  0  0  0  0  0  0
  188.3590  177.6540  146.2320 C   0  0  0  0  0  0  0  0  0  0  0  0
  190.2160  176.8830  143.0900 N   0  0  0  0  0  0  0  0  0  0  0  0
  190.5630  177.3560  141.7230 C   0  0  1  0  0  0  0  0  0  0  0  0
  191.9860  177.8740  141.6580 C   0  0  0  0  0  1  0  0  0  0  0  0
  190.3830  176.0010  141.8930 C   0  0  0  0  0  2  0  0  0  0  0  0
  189.4270  178.1590  141.1030 C   0  0  0  0  0  2  0  0  0  0  0  0
  188.2710  178.6170  139.0060 N   0  0  0  0  0  1  0  0  0  0  0  0
  189.0560  177.6300  139.7270 C   0  0  0  0  0  2  0  0  0  0  0  0
  191.6920  177.1370  147.7560 O   0  0  0  0  0  0  0  0  0  0  0  0
  193.5470  176.0040  148.7990 O   0  0  0  0  0  0  0  0  0  0  0  0
  191.9640  174.8900  147.6320 O   0  0  0  0  0  0  0  0  0  0  0  0
  192.3670  175.9770  148.0920 N   0  0  0  0  0  0  0  0  0  0  0  0
  187.0720  177.9680  146.6960 O   0  0  0  0  0  0  0  0  0  0  0  0
  185.9240  178.2040  145.9210 C   0  0  0  0  0  0  0  0  0  0  0  0
  185.8740  177.9790  144.5380 C   0  0  0  0  0  3  0  0  0  0  0  0
  183.6550  178.9650  145.8410 N   0  0  0  0  0  0  0  0  0  0  0  0
  184.7840  178.7090  146.5540 C   0  0  0  0  0  3  0  0  0  0  0  0
  183.5880  178.7460  144.5010 C   0  0  0  0  0  0  0  0  0  0  0  0
  184.7060  178.2470  143.8230 C   0  0  0  0  0  3  0  0  0  0  0  0
  182.3430  179.0390  143.7850 C   0  0  0  0  0  3  0  0  0  0  0  0
  182.2990  179.0500  142.5260 O   0  0  0  0  0  0  0  0  0  0  0  0
  1  3  2  0  0  0  0
  1  5  1  0  0  0  0
  3  6  1  0  0  0  0
  4  2  1  0  0  0  0
  4 14  1  0  0  0  0
  5  4  2  0  0  0  0
  6 18  1  0  0  0  0
  6  2  2  0  0  0  0
  7  1  1  0  0  0  0
  8  9  1  6  0  0  0
  8 10  1  0  0  0  0
  8  7  1  0  0  0  0
 10  7  1  0  0  0  0
 11  8  1  0  0  0  0
 12 13  1  0  0  0  0
 13 11  1  0  0  0  0
 14 17  1  0  0  0  0
 16 17  2  0  0  0  0
 17 15  2  0  0  0  0
 19 22  1  0  0  0  0
 19 18  1  0  0  0  0
 20 19  2  0  0  0  0
 21 22  2  0  0  0  0
 23 21  1  0  0  0  0
 24 23  2  0  0  0  0
 24 20  1  0  0  0  0
 25 23  1  0  0  0  0
 26 25  2  0  0  0  0
M  END
>  <MODEL>
7

>  <REMARK>
 VINA RESULT:      -7.1      3.274      7.000
  Name = 
  8 active torsions:
  status: ('A' for Active; 'I' for Inactive)
    1  A    between atoms: C_1  and  N_11
    2  A    between atoms: C_2  and  CA_16
    3  A    between atoms: C_4  and  C_17
    4  A    between atoms: C_4  and  C_18
    5  A    between atoms: O_5  and  C_19
    6  A    between atoms: O_5  and  N_21
    7  A    between atoms: C_6  and  O_22
    8  A    between atoms: O_22  and  C_26
                            x       y       z     vdW  Elec       q    Type
                         _______ _______ _______ _____ _____    ______ ____

>  <TORSDO>
F 8

$$$$
=
 OpenBabel10222418253D

 26 28  0  0  1  0  0  0  0  0999 V2000
  188.0710  177.4440  143.2510 C   0  0  0  0  0  0  0  0  0  0  0  0
  185.5760  178.6110  143.6930 C   0  0  0  0  0  3  0  0  0  0  0  0
  187.3850  178.0470  142.1960 C   0  0  0  0  0  3  0  0  0  0  0  0
  186.2510  178.0030  144.7580 C   0  0  0  0  0  0  0  0  0  0  0  0
  187.5080  177.4230  144.5280 C   0  0  0  0  0  3  0  0  0  0  0  0
  186.1320  178.6430  142.4090 C   0  0  0  0  0  0  0  0  0  0  0  0
  189.3450  176.8500  143.0230 N   0  0  0  0  0  0  0  0  0  0  0  0
  190.8160  176.9270  142.8140 C   0  0  1  0  0  0  0  0  0  0  0  0
  191.5350  177.3660  144.0740 C   0  0  0  0  0  1  0  0  0  0  0  0
  190.2440  175.6730  142.8080 C   0  0  0  0  0  2  0  0  0  0  0  0
  191.1590  177.5660  141.4750 C   0  0  0  0  0  2  0  0  0  0  0  0
  189.7730  177.7780  139.4800 N   0  0  0  0  0  1  0  0  0  0  0  0
  190.4910  176.8360  140.3210 C   0  0  0  0  0  2  0  0  0  0  0  0
  185.6510  178.0170  146.0240 O   0  0  0  0  0  0  0  0  0  0  0  0
  187.1220  178.0720  147.9340 O   0  0  0  0  0  0  0  0  0  0  0  0
  185.6850  179.7560  147.4800 O   0  0  0  0  0  0  0  0  0  0  0  0
  186.1760  178.6640  147.1310 N   0  0  0  0  0  0  0  0  0  0  0  0
  185.3960  179.2530  141.3800 O   0  0  0  0  0  0  0  0  0  0  0  0
  184.5820  178.6200  140.4270 C   0  0  0  0  0  0  0  0  0  0  0  0
  183.4380  177.8820  140.7650 C   0  0  0  0  0  3  0  0  0  0  0  0
  184.1900  178.0980  138.1230 N   0  0  0  0  0  0  0  0  0  0  0  0
  184.9420  178.7070  139.0780 C   0  0  0  0  0  3  0  0  0  0  0  0
  183.0750  177.3860  138.4330 C   0  0  0  0  0  0  0  0  0  0  0  0
  182.6790  177.2650  139.7700 C   0  0  0  0  0  3  0  0  0  0  0  0
  182.3040  176.7520  137.3600 C   0  0  0  0  0  3  0  0  0  0  0  0
  181.7980  175.6080  137.5060 O   0  0  0  0  0  0  0  0  0  0  0  0
  1  5  1  0  0  0  0
  2  4  1  0  0  0  0
  3  6  1  0  0  0  0
  3  1  2  0  0  0  0
  4 14  1  0  0  0  0
  5  4  2  0  0  0  0
  6  2  2  0  0  0  0
  7  1  1  0  0  0  0
  8  7  1  0  0  0  0
  8  9  1  1  0  0  0
 10  8  1  0  0  0  0
 10  7  1  0  0  0  0
 11  8  1  0  0  0  0
 12 13  1  0  0  0  0
 13 11  1  0  0  0  0
 14 17  1  0  0  0  0
 17 16  2  0  0  0  0
 17 15  2  0  0  0  0
 18  6  1  0  0  0  0
 19 20  1  0  0  0  0
 19 18  1  0  0  0  0
 21 23  2  0  0  0  0
 21 22  1  0  0  0  0
 22 19  2  0  0  0  0
 23 24  1  0  0  0  0
 24 20  2  0  0  0  0
 25 26  2  0  0  0  0
 25 23  1  0  0  0  0
M  END
>  <MODEL>
8

>  <REMARK>
 VINA RESULT:      -7.1      2.819      4.220
  Name = 
  8 active torsions:
  status: ('A' for Active; 'I' for Inactive)
    1  A    between atoms: C_1  and  N_11
    2  A    between atoms: C_2  and  CA_16
    3  A    between atoms: C_4  and  C_17
    4  A    between atoms: C_4  and  C_18
    5  A    between atoms: O_5  and  C_19
    6  A    between atoms: O_5  and  N_21
    7  A    between atoms: C_6  and  O_22
    8  A    between atoms: O_22  and  C_26
                            x       y       z     vdW  Elec       q    Type
                         _______ _______ _______ _____ _____    ______ ____

>  <TORSDO>
F 8

$$$$
=
 OpenBabel10222418253D

 26 28  0  0  1  0  0  0  0  0999 V2000
  188.7150  178.0880  143.4680 C   0  0  0  0  0  0  0  0  0  0  0  0
  185.9380  178.1020  143.1960 C   0  0  0  0  0  3  0  0  0  0  0  0
  188.1360  178.3330  142.2220 C   0  0  0  0  0  3  0  0  0  0  0  0
  186.5070  177.8480  144.4500 C   0  0  0  0  0  0  0  0  0  0  0  0
  187.9030  177.8480  144.5800 C   0  0  0  0  0  3  0  0  0  0  0  0
  186.7400  178.3490  142.0760 C   0  0  0  0  0  0  0  0  0  0  0  0
  190.1320  178.0830  143.6050 N   0  0  0  0  0  0  0  0  0  0  0  0
  191.4630  177.4280  143.4990 C   0  0  1  0  0  0  0  0  0  0  0  0
  191.8620  177.2110  142.0520 C   0  0  0  0  0  1  0  0  0  0  0  0
  191.4350  178.7240  143.9670 C   0  0  0  0  0  2  0  0  0  0  0  0
  191.6170  176.3020  144.5120 C   0  0  0  0  0  2  0  0  0  0  0  0
  192.2270  176.2150  146.8710 N   0  0  0  0  0  1  0  0  0  0  0  0
  191.2790  176.7680  145.9190 C   0  0  0  0  0  2  0  0  0  0  0  0
  185.6520  177.6250  145.5380 O   0  0  0  0  0  0  0  0  0  0  0  0
  183.7090  179.0290  145.7960 O   0  0  0  0  0  0  0  0  0  0  0  0
  185.5310  179.2490  147.1150 O   0  0  0  0  0  0  0  0  0  0  0  0
  184.9570  178.6200  146.2040 N   0  0  0  0  0  0  0  0  0  0  0  0
  186.1080  178.5790  140.8430 O   0  0  0  0  0  0  0  0  0  0  0  0
  184.7340  178.7550  140.6130 C   0  0  0  0  0  0  0  0  0  0  0  0
  183.7430  178.2620  141.4760 C   0  0  0  0  0  3  0  0  0  0  0  0
  183.0110  179.6130  139.1890 N   0  0  0  0  0  0  0  0  0  0  0  0
  184.3320  179.4320  139.4580 C   0  0  0  0  0  3  0  0  0  0  0  0
  182.0390  179.1470  140.0170 C   0  0  0  0  0  0  0  0  0  0  0  0
  182.3940  178.4580  141.1820 C   0  0  0  0  0  3  0  0  0  0  0  0
  180.6320  179.3730  139.6760 C   0  0  0  0  0  3  0  0  0  0  0  0
  180.3000  180.2060  138.7900 O   0  0  0  0  0  0  0  0  0  0  0  0
  1  7  1  0  0  0  0
  1  5  1  0  0  0  0
  2  4  1  0  0  0  0
  3  1  2  0  0  0  0
  4  5  2  0  0  0  0
  4 14  1  0  0  0  0
  6  3  1  0  0  0  0
  6  2  2  0  0  0  0
  7 10  1  0  0  0  0
  8  9  1  6  0  0  0
  8  7  1  0  0  0  0
  8 10  1  0  0  0  0
  8 11  1  0  0  0  0
 11 13  1  0  0  0  0
 13 12  1  0  0  0  0
 14 17  1  0  0  0  0
 15 17  2  0  0  0  0
 17 16  2  0  0  0  0
 18  6  1  0  0  0  0
 19 18  1  0  0  0  0
 19 20  1  0  0  0  0
 21 22  1  0  0  0  0
 21 23  2  0  0  0  0
 22 19  2  0  0  0  0
 23 24  1  0  0  0  0
 24 20  2  0  0  0  0
 25 23  1  0  0  0  0
 26 25  2  0  0  0  0
M  END
>  <MODEL>
9

>  <REMARK>
 VINA RESULT:      -7.1      2.801      4.012
  Name = 
  8 active torsions:
  status: ('A' for Active; 'I' for Inactive)
    1  A    between atoms: C_1  and  N_11
    2  A    between atoms: C_2  and  CA_16
    3  A    between atoms: C_4  and  C_17
    4  A    between atoms: C_4  and  C_18
    5  A    between atoms: O_5  and  C_19
    6  A    between atoms: O_5  and  N_21
    7  A    between atoms: C_6  and  O_22
    8  A    between atoms: O_22  and  C_26
                            x       y       z     vdW  Elec       q    Type
                         _______ _______ _______ _____ _____    ______ ____

>  <TORSDO>
F 8

$$$$
