=
 OpenBabel10222417293D

 44 47  0  0  1  0  0  0  0  0999 V2000
  182.9400  178.0040  140.7270 C   0  0  0  0  0  3  0  0  0  0  0  0
  184.7190  179.4180  144.2460 N   0  0  0  0  0  0  0  0  0  0  0  0
  181.5870  178.2500  140.4810 C   0  0  0  0  0  3  0  0  0  0  0  0
  181.3440  179.1730  142.7070 C   0  0  0  0  0  3  0  0  0  0  0  0
  183.2690  179.2450  144.3130 C   0  0  0  0  0  2  0  0  0  0  0  0
  182.7010  178.9450  142.9540 C   0  0  0  0  0  0  0  0  0  0  0  0
  185.2960  178.1940  143.6960 C   0  0  0  0  0  2  0  0  0  0  0  0
  183.5040  178.3400  141.9620 C   0  0  0  0  0  0  0  0  0  0  0  0
  180.7830  178.8330  141.4660 C   0  0  0  0  0  0  0  0  0  0  0  0
  184.9730  178.1000  142.2010 C   0  0  1  0  0  3  0  0  0  0  0  0
  185.7990  179.1200  141.4270 C   0  0  0  0  0  2  0  0  0  0  0  0
  186.1120  178.5970  140.0390 C   0  0  0  0  0  2  0  0  0  0  0  0
  187.5030  178.1650  139.9850 N   0  0  0  0  0  2  0  0  0  0  0  0
  188.0000  178.2300  138.6090 C   0  0  2  0  0  3  0  0  0  0  0  0
  187.0680  178.8590  137.7800 O   0  0  0  0  0  1  0  0  0  0  0  0
  188.3580  176.8470  138.0520 C   0  0  0  0  0  2  0  0  0  0  0  0
  189.5680  176.1590  136.0760 O   0  0  0  0  0  1  0  0  0  0  0  0
  189.6940  176.8010  137.3100 C   0  0  2  0  0  3  0  0  0  0  0  0
  191.0800  174.3680  137.9320 O   0  0  0  0  0  0  0  0  0  0  0  0
  190.6920  176.1880  139.7680 O   0  0  0  0  0  1  0  0  0  0  0  0
  191.0050  176.0170  138.2990 P   0  0  0  0  0  0  0  0  0  0  0  0
  192.4960  176.7400  137.9560 O   0  0  0  0  0  1  0  0  0  0  0  0
  185.2120  179.5460  145.6040 C   0  0  0  0  0  2  0  0  0  0  0  0
  185.3900  178.1660  146.2100 C   0  0  0  0  0  2  0  0  0  0  0  0
  187.4940  177.9600  147.5480 C   0  0  0  0  0  3  0  0  0  0  0  0
  190.9550  176.4740  144.1990 N   0  0  0  0  0  0  0  0  0  0  0  0
  187.5290  177.3640  145.2010 C   0  0  0  0  0  3  0  0  0  0  0  0
  189.5510  177.1870  146.5310 C   0  0  0  0  0  0  0  0  0  0  0  0
  190.9870  176.7720  146.6580 C   0  0  0  0  0  2  0  0  0  0  0  0
  188.8890  177.0410  145.2990 C   0  0  0  0  0  0  0  0  0  0  0  0
  188.8500  177.6330  147.6540 C   0  0  0  0  0  3  0  0  0  0  0  0
  189.6570  176.5470  144.1370 C   0  0  0  0  0  0  0  0  0  0  0  0
  191.7320  176.9800  145.3350 C   0  0  2  0  0  3  0  0  0  0  0  0
  186.8350  177.8310  146.3210 C   0  0  0  0  0  0  0  0  0  0  0  0
  191.9930  178.3390  145.1540 O   0  0  0  0  0  1  0  0  0  0  0  0
  188.9640  176.0540  142.9140 C   0  0  0  0  0  1  0  0  0  0  0  0
  179.4010  179.0640  141.1870 N   0  0  0  0  0  2  0  0  0  0  0  0
  178.9410  179.8320  140.0410 C   0  0  0  0  0  2  0  0  0  0  0  0
  179.7940  181.0750  139.8940 C   0  0  0  0  0  2  0  0  0  0  0  0
  180.4480  181.0820  138.5290 C   0  0  0  0  0  2  0  0  0  0  0  0
  181.2830  184.5200  136.9680 C   0  0  0  0  0  1  0  0  0  0  0  0
  179.8910  182.7240  136.2740 O   0  0  0  0  0  0  0  0  0  0  0  0
  180.6890  183.1700  137.1400 C   0  0  0  0  0  0  0  0  0  0  0  0
  181.0370  182.3860  138.2820 N   0  0  0  0  0  2  0  0  0  0  0  0
  1  8  1  0  0  0  0
  2  5  1  0  0  0  0
  2 23  1  0  0  0  0
  3  1  2  0  0  0  0
  3  9  1  0  0  0  0
  4  6  1  0  0  0  0
  6  5  1  0  0  0  0
  7  2  1  0  0  0  0
  8 10  1  0  0  0  0
  8  6  2  0  0  0  0
  9  4  2  0  0  0  0
 10 11  1  6  0  0  0
 10  7  1  0  0  0  0
 12 11  1  0  0  0  0
 13 12  1  0  0  0  0
 14 15  1  6  0  0  0
 14 13  1  0  0  0  0
 16 14  1  0  0  0  0
 18 17  1  6  0  0  0
 18 16  1  0  0  0  0
 18 21  1  0  0  0  0
 19 21  2  0  0  0  0
 21 20  1  0  0  0  0
 22 21  1  0  0  0  0
 23 24  1  0  0  0  0
 24 34  1  0  0  0  0
 25 31  1  0  0  0  0
 26 33  1  0  0  0  0
 27 30  2  0  0  0  0
 27 34  1  0  0  0  0
 28 29  1  0  0  0  0
 28 31  2  0  0  0  0
 30 28  1  0  0  0  0
 32 26  2  0  0  0  0
 32 30  1  0  0  0  0
 33 35  1  6  0  0  0
 33 29  1  0  0  0  0
 34 25  2  0  0  0  0
 36 32  1  0  0  0  0
 37  9  1  0  0  0  0
 38 37  1  0  0  0  0
 39 38  1  0  0  0  0
 40 39  1  0  0  0  0
 41 43  1  0  0  0  0
 42 43  2  0  0  0  0
 43 44  1  0  0  0  0
 44 40  1  0  0  0  0
M  END
>  <MODEL>
1

>  <REMARK>
 VINA RESULT:      -9.1      0.000      0.000
  Name = 
  15 active torsions:
  status: ('A' for Active; 'I' for Inactive)
    1  A    between atoms: C_5  and  C_29
    2  A    between atoms: C_5  and  C_36
    3  A    between atoms: C_6  and  C_24
    4  A    between atoms: C_6  and  C_37
    5  A    between atoms: N_7  and  C_36
    6  A    between atoms: N_19  and  C_23
    7  A    between atoms: N_19  and  C_24
    8  A    between atoms: C_21  and  C_28
    9  A    between atoms: C_21  and  N_41
   10  A    between atoms: C_23  and  C_43
   11  A    between atoms: C_28  and  C_33
   12  A    between atoms: C_32  and  N_41
   13  A    between atoms: C_33  and  N_42
   14  A    between atoms: P_35  and  C_44
   15  A    between atoms: C_43  and  C_44
                            x       y       z     vdW  Elec       q    Type
                         _______ _______ _______ _____ _____    ______ ____

>  <TORSDO>
F 15

$$$$
=
 OpenBabel10222417293D

 44 47  0  0  1  0  0  0  0  0999 V2000
  190.2800  176.8070  135.9220 C   0  0  0  0  0  3  0  0  0  0  0  0
  189.3570  177.3610  139.9700 N   0  0  0  0  0  0  0  0  0  0  0  0
  191.2770  175.9010  135.5500 C   0  0  0  0  0  3  0  0  0  0  0  0
  191.8660  175.5850  137.8780 C   0  0  0  0  0  3  0  0  0  0  0  0
  190.6990  176.8430  139.7070 C   0  0  0  0  0  2  0  0  0  0  0  0
  190.8590  176.4780  138.2580 C   0  0  0  0  0  0  0  0  0  0  0  0
  189.1430  178.5210  139.1110 C   0  0  0  0  0  2  0  0  0  0  0  0
  190.0690  177.1080  137.2720 C   0  0  0  0  0  0  0  0  0  0  0  0
  192.0730  175.2870  136.5220 C   0  0  0  0  0  0  0  0  0  0  0  0
  188.9680  178.0610  137.6590 C   0  0  1  0  0  3  0  0  0  0  0  0
  187.6120  177.3870  137.4880 C   0  0  0  0  0  2  0  0  0  0  0  0
  186.8410  178.0380  136.3580 C   0  0  0  0  0  2  0  0  0  0  0  0
  185.5510  177.3750  136.2040 N   0  0  0  0  0  2  0  0  0  0  0  0
  184.9490  177.1290  137.5160 C   0  0  2  0  0  3  0  0  0  0  0  0
  184.4480  175.8260  137.5890 O   0  0  0  0  0  1  0  0  0  0  0  0
  183.8470  178.1410  137.8510 C   0  0  0  0  0  2  0  0  0  0  0  0
  185.4430  178.9460  139.4760 O   0  0  0  0  0  1  0  0  0  0  0  0
  184.0860  178.9150  139.1480 C   0  0  2  0  0  3  0  0  0  0  0  0
  181.6880  179.1430  140.7050 O   0  0  0  0  0  1  0  0  0  0  0  0
  183.9250  178.3570  141.8070 O   0  0  0  0  0  1  0  0  0  0  0  0
  183.1150  178.2510  140.5360 P   0  0  0  0  0  0  0  0  0  0  0  0
  182.7340  176.6280  140.2470 O   0  0  0  0  0  0  0  0  0  0  0  0
  189.3270  177.8360  141.3400 C   0  0  0  0  0  2  0  0  0  0  0  0
  187.8930  177.8540  141.8370 C   0  0  0  0  0  2  0  0  0  0  0  0
  186.6310  177.7020  143.9930 C   0  0  0  0  0  3  0  0  0  0  0  0
  190.2170  177.1910  147.4970 N   0  0  0  0  0  0  0  0  0  0  0  0
  189.0430  177.4870  144.0230 C   0  0  0  0  0  3  0  0  0  0  0  0
  187.7840  177.3550  146.0940 C   0  0  0  0  0  0  0  0  0  0  0  0
  187.7420  177.1040  147.5720 C   0  0  0  0  0  2  0  0  0  0  0  0
  189.0150  177.3230  145.4140 C   0  0  0  0  0  0  0  0  0  0  0  0
  186.5950  177.5310  145.3800 C   0  0  0  0  0  3  0  0  0  0  0  0
  190.2500  177.1130  146.1980 C   0  0  0  0  0  0  0  0  0  0  0  0
  189.0260  177.6060  148.2440 C   0  0  2  0  0  3  0  0  0  0  0  0
  187.8550  177.6860  143.3140 C   0  0  0  0  0  0  0  0  0  0  0  0
  188.9920  178.9980  148.3350 O   0  0  0  0  0  1  0  0  0  0  0  0
  191.5270  176.7350  145.5300 C   0  0  0  0  0  1  0  0  0  0  0  0
  193.0890  174.3710  136.1100 N   0  0  0  0  0  2  0  0  0  0  0  0
  194.4640  174.4490  136.5800 C   0  0  0  0  0  2  0  0  0  0  0  0
  194.9250  173.0730  137.0140 C   0  0  0  0  0  2  0  0  0  0  0  0
  195.1150  173.0540  138.5160 C   0  0  0  0  0  2  0  0  0  0  0  0
  197.9810  175.1920  139.9890 C   0  0  0  0  0  1  0  0  0  0  0  0
  195.6150  175.3980  140.0490 O   0  0  0  0  0  0  0  0  0  0  0  0
  196.6090  174.7400  139.6420 C   0  0  0  0  0  0  0  0  0  0  0  0
  196.4330  173.5710  138.8420 N   0  0  0  0  0  2  0  0  0  0  0  0
  1  8  1  0  0  0  0
  2 23  1  0  0  0  0
  3  1  2  0  0  0  0
  3  9  1  0  0  0  0
  4  6  1  0  0  0  0
  5  2  1  0  0  0  0
  6  5  1  0  0  0  0
  7  2  1  0  0  0  0
  8 10  1  0  0  0  0
  8  6  2  0  0  0  0
  9  4  2  0  0  0  0
 10 11  1  1  0  0  0
 10  7  1  0  0  0  0
 12 11  1  0  0  0  0
 13 12  1  0  0  0  0
 13 14  1  0  0  0  0
 14 15  1  6  0  0  0
 14 16  1  0  0  0  0
 16 18  1  0  0  0  0
 18 17  1  1  0  0  0
 18 21  1  0  0  0  0
 21 19  1  0  0  0  0
 21 20  1  0  0  0  0
 22 21  2  0  0  0  0
 23 24  1  0  0  0  0
 24 34  1  0  0  0  0
 25 31  1  0  0  0  0
 26 33  1  0  0  0  0
 27 30  2  0  0  0  0
 28 29  1  0  0  0  0
 29 33  1  0  0  0  0
 30 28  1  0  0  0  0
 30 32  1  0  0  0  0
 31 28  2  0  0  0  0
 32 26  2  0  0  0  0
 33 35  1  6  0  0  0
 34 25  2  0  0  0  0
 34 27  1  0  0  0  0
 36 32  1  0  0  0  0
 37  9  1  0  0  0  0
 37 38  1  0  0  0  0
 38 39  1  0  0  0  0
 39 40  1  0  0  0  0
 40 44  1  0  0  0  0
 43 41  1  0  0  0  0
 43 42  2  0  0  0  0
 44 43  1  0  0  0  0
M  END
>  <MODEL>
2

>  <REMARK>
 VINA RESULT:      -8.9      4.037      9.554
  Name = 
  15 active torsions:
  status: ('A' for Active; 'I' for Inactive)
    1  A    between atoms: C_5  and  C_29
    2  A    between atoms: C_5  and  C_36
    3  A    between atoms: C_6  and  C_24
    4  A    between atoms: C_6  and  C_37
    5  A    between atoms: N_7  and  C_36
    6  A    between atoms: N_19  and  C_23
    7  A    between atoms: N_19  and  C_24
    8  A    between atoms: C_21  and  C_28
    9  A    between atoms: C_21  and  N_41
   10  A    between atoms: C_23  and  C_43
   11  A    between atoms: C_28  and  C_33
   12  A    between atoms: C_32  and  N_41
   13  A    between atoms: C_33  and  N_42
   14  A    between atoms: P_35  and  C_44
   15  A    between atoms: C_43  and  C_44
                            x       y       z     vdW  Elec       q    Type
                         _______ _______ _______ _____ _____    ______ ____

>  <TORSDO>
F 15

$$$$
=
 OpenBabel10222417293D

 44 47  0  0  1  0  0  0  0  0999 V2000
  191.4700  177.4000  142.5050 C   0  0  0  0  0  3  0  0  0  0  0  0
  187.3760  177.8480  141.7410 N   0  0  0  0  0  0  0  0  0  0  0  0
  191.9060  177.0200  143.7770 C   0  0  0  0  0  3  0  0  0  0  0  0
  189.6450  177.2290  144.6200 C   0  0  0  0  0  3  0  0  0  0  0  0
  187.7610  177.9790  143.1460 C   0  0  0  0  0  2  0  0  0  0  0  0
  189.2000  177.5930  143.3460 C   0  0  0  0  0  0  0  0  0  0  0  0
  188.2610  178.6950  140.9470 C   0  0  0  0  0  2  0  0  0  0  0  0
  190.1210  177.6960  142.2820 C   0  0  0  0  0  0  0  0  0  0  0  0
  191.0000  176.9330  144.8390 C   0  0  0  0  0  0  0  0  0  0  0  0
  189.6610  178.0710  140.8960 C   0  0  1  0  0  3  0  0  0  0  0  0
  189.6470  176.8390  140.0010 C   0  0  0  0  0  2  0  0  0  0  0  0
  190.1440  177.1930  138.6140 C   0  0  0  0  0  2  0  0  0  0  0  0
  189.0640  177.0140  137.6500 N   0  0  0  0  0  2  0  0  0  0  0  0
  188.9120  178.2180  136.8310 C   0  0  2  0  0  3  0  0  0  0  0  0
  188.9200  179.3620  137.6330 O   0  0  0  0  0  1  0  0  0  0  0  0
  187.6420  178.1820  135.9710 C   0  0  0  0  0  2  0  0  0  0  0  0
  186.8370  176.3670  134.5940 O   0  0  0  0  0  1  0  0  0  0  0  0
  186.9710  176.8090  135.9120 C   0  0  2  0  0  3  0  0  0  0  0  0
  185.0010  175.2240  137.2660 O   0  0  0  0  0  1  0  0  0  0  0  0
  184.2890  177.2570  135.7850 O   0  0  0  0  0  0  0  0  0  0  0  0
  185.3560  176.7940  136.7500 P   0  0  0  0  0  0  0  0  0  0  0  0
  185.3910  177.8330  138.0860 O   0  0  0  0  0  1  0  0  0  0  0  0
  186.0350  178.3820  141.5980 C   0  0  0  0  0  2  0  0  0  0  0  0
  185.3930  178.5080  142.9670 C   0  0  0  0  0  2  0  0  0  0  0  0
  183.1210  178.8040  143.9740 C   0  0  0  0  0  3  0  0  0  0  0  0
  179.9700  178.4450  140.0560 N   0  0  0  0  0  0  0  0  0  0  0  0
  183.3200  178.5430  141.5740 C   0  0  0  0  0  3  0  0  0  0  0  0
  181.1340  178.8230  142.5900 C   0  0  0  0  0  0  0  0  0  0  0  0
  179.6520  179.0080  142.4470 C   0  0  0  0  0  2  0  0  0  0  0  0
  181.9290  178.6460  141.4440 C   0  0  0  0  0  0  0  0  0  0  0  0
  181.7320  178.9140  143.8490 C   0  0  0  0  0  3  0  0  0  0  0  0
  181.2640  178.5750  140.1260 C   0  0  0  0  0  0  0  0  0  0  0  0
  179.1220  178.2360  141.2330 C   0  0  2  0  0  3  0  0  0  0  0  0
  183.9150  178.6120  142.8370 C   0  0  0  0  0  0  0  0  0  0  0  0
  179.0660  176.8750  141.5340 O   0  0  0  0  0  1  0  0  0  0  0  0
  182.0430  178.7270  138.8650 C   0  0  0  0  0  1  0  0  0  0  0  0
  191.4770  176.5500  146.1300 N   0  0  0  0  0  2  0  0  0  0  0  0
  190.5940  176.2750  147.2520 C   0  0  0  0  0  2  0  0  0  0  0  0
  189.8360  177.5350  147.6160 C   0  0  0  0  0  2  0  0  0  0  0  0
  188.4670  177.1670  148.1470 C   0  0  0  0  0  2  0  0  0  0  0  0
  185.5820  179.2620  146.6480 C   0  0  0  0  0  1  0  0  0  0  0  0
  186.4780  177.1270  146.1140 O   0  0  0  0  0  0  0  0  0  0  0  0
  186.5420  178.1470  146.8500 C   0  0  0  0  0  0  0  0  0  0  0  0
  187.5360  178.2480  147.8710 N   0  0  0  0  0  2  0  0  0  0  0  0
  1  3  1  0  0  0  0
  2  5  1  0  0  0  0
  3  9  2  0  0  0  0
  4  9  1  0  0  0  0
  5  6  1  0  0  0  0
  6  4  2  0  0  0  0
  7  2  1  0  0  0  0
  8  1  2  0  0  0  0
  8  6  1  0  0  0  0
  9 37  1  0  0  0  0
 10 11  1  6  0  0  0
 10  7  1  0  0  0  0
 10  8  1  0  0  0  0
 12 11  1  0  0  0  0
 13 12  1  0  0  0  0
 14 15  1  1  0  0  0
 14 13  1  0  0  0  0
 16 14  1  0  0  0  0
 18 17  1  6  0  0  0
 18 16  1  0  0  0  0
 18 21  1  0  0  0  0
 20 21  2  0  0  0  0
 21 19  1  0  0  0  0
 21 22  1  0  0  0  0
 23  2  1  0  0  0  0
 23 24  1  0  0  0  0
 26 32  2  0  0  0  0
 26 33  1  0  0  0  0
 27 34  1  0  0  0  0
 28 31  2  0  0  0  0
 29 28  1  0  0  0  0
 30 27  2  0  0  0  0
 30 28  1  0  0  0  0
 31 25  1  0  0  0  0
 32 30  1  0  0  0  0
 33 35  1  1  0  0  0
 33 29  1  0  0  0  0
 34 24  1  0  0  0  0
 34 25  2  0  0  0  0
 36 32  1  0  0  0  0
 37 38  1  0  0  0  0
 38 39  1  0  0  0  0
 39 40  1  0  0  0  0
 41 43  1  0  0  0  0
 42 43  2  0  0  0  0
 43 44  1  0  0  0  0
 44 40  1  0  0  0  0
M  END
>  <MODEL>
3

>  <REMARK>
 VINA RESULT:      -8.9      2.867      8.682
  Name = 
  15 active torsions:
  status: ('A' for Active; 'I' for Inactive)
    1  A    between atoms: C_5  and  C_29
    2  A    between atoms: C_5  and  C_36
    3  A    between atoms: C_6  and  C_24
    4  A    between atoms: C_6  and  C_37
    5  A    between atoms: N_7  and  C_36
    6  A    between atoms: N_19  and  C_23
    7  A    between atoms: N_19  and  C_24
    8  A    between atoms: C_21  and  C_28
    9  A    between atoms: C_21  and  N_41
   10  A    between atoms: C_23  and  C_43
   11  A    between atoms: C_28  and  C_33
   12  A    between atoms: C_32  and  N_41
   13  A    between atoms: C_33  and  N_42
   14  A    between atoms: P_35  and  C_44
   15  A    between atoms: C_43  and  C_44
                            x       y       z     vdW  Elec       q    Type
                         _______ _______ _______ _____ _____    ______ ____

>  <TORSDO>
F 15

$$$$
=
 OpenBabel10222417293D

 44 47  0  0  1  0  0  0  0  0999 V2000
  191.0310  176.1680  139.2050 C   0  0  0  0  0  3  0  0  0  0  0  0
  188.1070  178.5800  140.9890 N   0  0  0  0  0  0  0  0  0  0  0  0
  191.1630  176.1440  137.8150 C   0  0  0  0  0  3  0  0  0  0  0  0
  189.1610  177.4890  137.5950 C   0  0  0  0  0  3  0  0  0  0  0  0
  187.8380  178.2080  139.6010 C   0  0  0  0  0  2  0  0  0  0  0  0
  189.0320  177.5310  138.9860 C   0  0  0  0  0  0  0  0  0  0  0  0
  188.4580  177.3680  141.7240 C   0  0  0  0  0  2  0  0  0  0  0  0
  189.9640  176.8520  139.8000 C   0  0  0  0  0  0  0  0  0  0  0  0
  190.2320  176.8010  137.0040 C   0  0  0  0  0  0  0  0  0  0  0  0
  189.8540  176.8980  141.3030 C   0  0  1  0  0  3  0  0  0  0  0  0
  190.9110  177.8340  141.8740 C   0  0  0  0  0  2  0  0  0  0  0  0
  191.8650  177.0670  142.7670 C   0  0  0  0  0  2  0  0  0  0  0  0
  191.1510  176.5920  143.9460 N   0  0  0  0  0  2  0  0  0  0  0  0
  191.2240  177.5870  145.0180 C   0  0  2  0  0  3  0  0  0  0  0  0
  191.8070  177.0350  146.1610 O   0  0  0  0  0  1  0  0  0  0  0  0
  189.8510  178.1810  145.3560 C   0  0  0  0  0  2  0  0  0  0  0  0
  187.7640  176.9920  145.0940 O   0  0  0  0  0  1  0  0  0  0  0  0
  188.8620  177.1700  145.9370 C   0  0  2  0  0  3  0  0  0  0  0  0
  188.0070  176.2310  148.5090 O   0  0  0  0  0  1  0  0  0  0  0  0
  187.0370  178.4420  147.5060 O   0  0  0  0  0  0  0  0  0  0  0  0
  188.3080  177.6300  147.6080 P   0  0  0  0  0  0  0  0  0  0  0  0
  189.5010  178.5510  148.3780 O   0  0  0  0  0  1  0  0  0  0  0  0
  186.8700  179.0800  141.5600 C   0  0  0  0  0  2  0  0  0  0  0  0
  186.2330  177.9970  142.4100 C   0  0  0  0  0  2  0  0  0  0  0  0
  184.3390  178.5130  143.9630 C   0  0  0  0  0  3  0  0  0  0  0  0
  180.3250  178.9000  140.9390 N   0  0  0  0  0  0  0  0  0  0  0  0
  183.9160  178.4230  141.5790 C   0  0  0  0  0  3  0  0  0  0  0  0
  182.1050  178.9120  143.1180 C   0  0  0  0  0  0  0  0  0  0  0  0
  180.6770  179.3060  143.3570 C   0  0  0  0  0  2  0  0  0  0  0  0
  182.5660  178.7220  141.8040 C   0  0  0  0  0  0  0  0  0  0  0  0
  182.9940  178.8190  144.1920 C   0  0  0  0  0  3  0  0  0  0  0  0
  181.6020  178.8490  140.6900 C   0  0  0  0  0  0  0  0  0  0  0  0
  179.7620  178.7130  142.2790 C   0  0  2  0  0  3  0  0  0  0  0  0
  184.8000  178.3090  142.6570 C   0  0  0  0  0  0  0  0  0  0  0  0
  179.5750  177.3520  142.5230 O   0  0  0  0  0  1  0  0  0  0  0  0
  182.0700  178.9950  139.2840 C   0  0  0  0  0  1  0  0  0  0  0  0
  190.3890  176.7510  135.5850 N   0  0  0  0  0  2  0  0  0  0  0  0
  189.3570  176.2520  134.6900 C   0  0  0  0  0  2  0  0  0  0  0  0
  188.6650  175.0680  135.3320 C   0  0  0  0  0  2  0  0  0  0  0  0
  187.2000  175.0700  134.9510 C   0  0  0  0  0  2  0  0  0  0  0  0
  185.0160  177.0800  137.4300 C   0  0  0  0  0  1  0  0  0  0  0  0
  186.1260  177.6640  135.4120 O   0  0  0  0  0  0  0  0  0  0  0  0
  185.8700  176.7650  136.2570 C   0  0  0  0  0  0  0  0  0  0  0  0
  186.4020  175.4490  136.1040 N   0  0  0  0  0  2  0  0  0  0  0  0
  1  8  1  0  0  0  0
  2 23  1  0  0  0  0
  2  7  1  0  0  0  0
  3  1  2  0  0  0  0
  4  6  1  0  0  0  0
  5  2  1  0  0  0  0
  6  5  1  0  0  0  0
  6  8  2  0  0  0  0
  8 10  1  0  0  0  0
  9  4  2  0  0  0  0
  9  3  1  0  0  0  0
 10  7  1  0  0  0  0
 10 11  1  6  0  0  0
 11 12  1  0  0  0  0
 12 13  1  0  0  0  0
 13 14  1  0  0  0  0
 14 16  1  0  0  0  0
 14 15  1  1  0  0  0
 16 18  1  0  0  0  0
 18 17  1  6  0  0  0
 18 21  1  0  0  0  0
 20 21  2  0  0  0  0
 21 22  1  0  0  0  0
 21 19  1  0  0  0  0
 23 24  1  0  0  0  0
 24 34  1  0  0  0  0
 25 31  1  0  0  0  0
 26 33  1  0  0  0  0
 27 30  2  0  0  0  0
 27 34  1  0  0  0  0
 28 29  1  0  0  0  0
 28 31  2  0  0  0  0
 30 28  1  0  0  0  0
 32 26  2  0  0  0  0
 32 30  1  0  0  0  0
 33 35  1  1  0  0  0
 33 29  1  0  0  0  0
 34 25  2  0  0  0  0
 36 32  1  0  0  0  0
 37  9  1  0  0  0  0
 38 39  1  0  0  0  0
 38 37  1  0  0  0  0
 40 39  1  0  0  0  0
 40 44  1  0  0  0  0
 42 43  2  0  0  0  0
 43 41  1  0  0  0  0
 44 43  1  0  0  0  0
M  END
>  <MODEL>
4

>  <REMARK>
 VINA RESULT:      -8.8      3.357      8.661
  Name = 
  15 active torsions:
  status: ('A' for Active; 'I' for Inactive)
    1  A    between atoms: C_5  and  C_29
    2  A    between atoms: C_5  and  C_36
    3  A    between atoms: C_6  and  C_24
    4  A    between atoms: C_6  and  C_37
    5  A    between atoms: N_7  and  C_36
    6  A    between atoms: N_19  and  C_23
    7  A    between atoms: N_19  and  C_24
    8  A    between atoms: C_21  and  C_28
    9  A    between atoms: C_21  and  N_41
   10  A    between atoms: C_23  and  C_43
   11  A    between atoms: C_28  and  C_33
   12  A    between atoms: C_32  and  N_41
   13  A    between atoms: C_33  and  N_42
   14  A    between atoms: P_35  and  C_44
   15  A    between atoms: C_43  and  C_44
                            x       y       z     vdW  Elec       q    Type
                         _______ _______ _______ _____ _____    ______ ____

>  <TORSDO>
F 15

$$$$
=
 OpenBabel10222417293D

 44 47  0  0  1  0  0  0  0  0999 V2000
  189.8810  176.9260  135.9350 C   0  0  0  0  0  3  0  0  0  0  0  0
  189.3540  177.4410  140.0590 N   0  0  0  0  0  0  0  0  0  0  0  0
  190.8620  176.0510  135.4600 C   0  0  0  0  0  3  0  0  0  0  0  0
  191.6910  175.7460  137.7150 C   0  0  0  0  0  3  0  0  0  0  0  0
  190.6770  176.9640  139.6600 C   0  0  0  0  0  2  0  0  0  0  0  0
  190.7020  176.6080  138.1990 C   0  0  0  0  0  0  0  0  0  0  0  0
  189.0200  178.5970  139.2320 C   0  0  0  0  0  2  0  0  0  0  0  0
  189.7980  177.2160  137.3010 C   0  0  0  0  0  0  0  0  0  0  0  0
  191.7700  175.4590  136.3440 C   0  0  0  0  0  0  0  0  0  0  0  0
  188.7140  178.1350  137.8020 C   0  0  1  0  0  3  0  0  0  0  0  0
  187.3680  177.4210  137.7650 C   0  0  0  0  0  2  0  0  0  0  0  0
  186.2400  178.4180  137.9390 C   0  0  0  0  0  2  0  0  0  0  0  0
  184.9680  177.7080  137.9880 N   0  0  0  0  0  2  0  0  0  0  0  0
  183.9990  178.4590  138.7900 C   0  0  2  0  0  3  0  0  0  0  0  0
  184.5970  179.5950  139.3430 O   0  0  0  0  0  1  0  0  0  0  0  0
  183.3660  177.6020  139.8930 C   0  0  0  0  0  2  0  0  0  0  0  0
  181.3280  178.1230  138.7020 O   0  0  0  0  0  1  0  0  0  0  0  0
  181.8370  177.6420  139.9100 C   0  0  2  0  0  3  0  0  0  0  0  0
  180.5750  180.0850  140.7260 O   0  0  0  0  0  0  0  0  0  0  0  0
  182.3070  178.8950  142.2800 O   0  0  0  0  0  1  0  0  0  0  0  0
  181.1890  178.6190  141.3020 P   0  0  0  0  0  0  0  0  0  0  0  0
  179.9580  177.7610  142.0840 O   0  0  0  0  0  1  0  0  0  0  0  0
  189.4470  177.9110  141.4280 C   0  0  0  0  0  2  0  0  0  0  0  0
  189.1520  176.7640  142.3770 C   0  0  0  0  0  2  0  0  0  0  0  0
  186.8360  177.5070  142.9700 C   0  0  0  0  0  3  0  0  0  0  0  0
  186.9910  178.1850  147.9620 N   0  0  0  0  0  0  0  0  0  0  0  0
  188.4630  177.1980  144.7380 C   0  0  0  0  0  3  0  0  0  0  0  0
  186.2100  177.9260  145.2710 C   0  0  0  0  0  0  0  0  0  0  0  0
  185.1630  178.2580  146.2930 C   0  0  0  0  0  2  0  0  0  0  0  0
  187.5070  177.5760  145.6890 C   0  0  0  0  0  0  0  0  0  0  0  0
  185.8750  177.8780  143.9160 C   0  0  0  0  0  3  0  0  0  0  0  0
  187.8200  177.6170  147.1330 C   0  0  0  0  0  0  0  0  0  0  0  0
  185.7960  178.9120  147.5270 C   0  0  2  0  0  3  0  0  0  0  0  0
  188.1320  177.1720  143.3800 C   0  0  0  0  0  0  0  0  0  0  0  0
  186.1330  180.2340  147.2340 O   0  0  0  0  0  1  0  0  0  0  0  0
  189.0370  176.9510  147.6730 C   0  0  0  0  0  1  0  0  0  0  0  0
  192.7660  174.5750  135.8270 N   0  0  0  0  0  2  0  0  0  0  0  0
  194.1860  174.7350  136.0990 C   0  0  0  0  0  2  0  0  0  0  0  0
  194.7220  173.4680  136.7310 C   0  0  0  0  0  2  0  0  0  0  0  0
  194.7560  173.6280  138.2360 C   0  0  0  0  0  2  0  0  0  0  0  0
  197.8700  174.9770  140.0910 C   0  0  0  0  0  1  0  0  0  0  0  0
  195.5720  175.5810  140.1360 O   0  0  0  0  0  0  0  0  0  0  0  0
  196.4590  174.8310  139.6490 C   0  0  0  0  0  0  0  0  0  0  0  0
  196.1250  173.8490  138.6680 N   0  0  0  0  0  2  0  0  0  0  0  0
  1  8  1  0  0  0  0
  2 23  1  0  0  0  0
  3  1  2  0  0  0  0
  3  9  1  0  0  0  0
  4  6  1  0  0  0  0
  5  2  1  0  0  0  0
  6  5  1  0  0  0  0
  7  2  1  0  0  0  0
  8 10  1  0  0  0  0
  8  6  2  0  0  0  0
  9  4  2  0  0  0  0
 10 11  1  1  0  0  0
 10  7  1  0  0  0  0
 11 12  1  0  0  0  0
 12 13  1  0  0  0  0
 13 14  1  0  0  0  0
 14 15  1  1  0  0  0
 14 16  1  0  0  0  0
 16 18  1  0  0  0  0
 18 17  1  6  0  0  0
 18 21  1  0  0  0  0
 19 21  2  0  0  0  0
 21 22  1  0  0  0  0
 21 20  1  0  0  0  0
 23 24  1  0  0  0  0
 24 34  1  0  0  0  0
 25 34  2  0  0  0  0
 25 31  1  0  0  0  0
 27 30  2  0  0  0  0
 28 30  1  0  0  0  0
 28 29  1  0  0  0  0
 29 33  1  0  0  0  0
 30 32  1  0  0  0  0
 31 28  2  0  0  0  0
 32 36  1  0  0  0  0
 32 26  2  0  0  0  0
 33 35  1  6  0  0  0
 33 26  1  0  0  0  0
 34 27  1  0  0  0  0
 37 38  1  0  0  0  0
 37  9  1  0  0  0  0
 38 39  1  0  0  0  0
 39 40  1  0  0  0  0
 40 44  1  0  0  0  0
 43 41  1  0  0  0  0
 43 42  2  0  0  0  0
 44 43  1  0  0  0  0
M  END
>  <MODEL>
5

>  <REMARK>
 VINA RESULT:      -8.7      4.206      9.878
  Name = 
  15 active torsions:
  status: ('A' for Active; 'I' for Inactive)
    1  A    between atoms: C_5  and  C_29
    2  A    between atoms: C_5  and  C_36
    3  A    between atoms: C_6  and  C_24
    4  A    between atoms: C_6  and  C_37
    5  A    between atoms: N_7  and  C_36
    6  A    between atoms: N_19  and  C_23
    7  A    between atoms: N_19  and  C_24
    8  A    between atoms: C_21  and  C_28
    9  A    between atoms: C_21  and  N_41
   10  A    between atoms: C_23  and  C_43
   11  A    between atoms: C_28  and  C_33
   12  A    between atoms: C_32  and  N_41
   13  A    between atoms: C_33  and  N_42
   14  A    between atoms: P_35  and  C_44
   15  A    between atoms: C_43  and  C_44
                            x       y       z     vdW  Elec       q    Type
                         _______ _______ _______ _____ _____    ______ ____

>  <TORSDO>
F 15

$$$$
=
 OpenBabel10222417293D

 44 47  0  0  1  0  0  0  0  0999 V2000
  183.1540  178.0590  140.8450 C   0  0  0  0  0  3  0  0  0  0  0  0
  184.8450  179.3520  144.4530 N   0  0  0  0  0  0  0  0  0  0  0  0
  181.8330  178.3910  140.5350 C   0  0  0  0  0  3  0  0  0  0  0  0
  181.5400  179.3250  142.7500 C   0  0  0  0  0  3  0  0  0  0  0  0
  183.3850  179.2720  144.4480 C   0  0  0  0  0  2  0  0  0  0  0  0
  182.8660  179.0110  143.0620 C   0  0  0  0  0  0  0  0  0  0  0  0
  185.3690  178.0950  143.9260 C   0  0  0  0  0  2  0  0  0  0  0  0
  183.6770  178.3570  142.1080 C   0  0  0  0  0  0  0  0  0  0  0  0
  181.0200  179.0230  141.4810 C   0  0  0  0  0  0  0  0  0  0  0  0
  185.1140  178.0240  142.4170 C   0  0  1  0  0  3  0  0  0  0  0  0
  186.0400  178.9890  141.6880 C   0  0  0  0  0  2  0  0  0  0  0  0
  187.3510  178.3070  141.3530 C   0  0  0  0  0  2  0  0  0  0  0  0
  187.9910  179.0030  140.2420 N   0  0  0  0  0  2  0  0  0  0  0  0
  188.2760  178.0650  139.1540 C   0  0  2  0  0  3  0  0  0  0  0  0
  189.4950  178.3770  138.5450 O   0  0  0  0  0  1  0  0  0  0  0  0
  187.1540  178.0260  138.1090 C   0  0  0  0  0  2  0  0  0  0  0  0
  187.9010  176.2610  136.6380 O   0  0  0  0  0  1  0  0  0  0  0  0
  186.8930  176.6360  137.5290 C   0  0  2  0  0  3  0  0  0  0  0  0
  184.1860  177.5840  137.4780 O   0  0  0  0  0  1  0  0  0  0  0  0
  184.7440  175.1060  136.8570 O   0  0  0  0  0  1  0  0  0  0  0  0
  185.2640  176.5190  136.7270 P   0  0  0  0  0  0  0  0  0  0  0  0
  185.4000  176.9170  135.0870 O   0  0  0  0  0  0  0  0  0  0  0  0
  185.2780  179.4470  145.8340 C   0  0  0  0  0  2  0  0  0  0  0  0
  185.5000  178.0530  146.3910 C   0  0  0  0  0  2  0  0  0  0  0  0
  187.6560  177.8810  147.6500 C   0  0  0  0  0  3  0  0  0  0  0  0
  191.0150  176.4600  144.1710 N   0  0  0  0  0  0  0  0  0  0  0  0
  187.6130  177.2890  145.3010 C   0  0  0  0  0  3  0  0  0  0  0  0
  189.6870  177.1450  146.5550 C   0  0  0  0  0  0  0  0  0  0  0  0
  191.1330  176.7540  146.6270 C   0  0  0  0  0  2  0  0  0  0  0  0
  188.9810  176.9900  145.3480 C   0  0  0  0  0  0  0  0  0  0  0  0
  189.0200  177.5770  147.7040 C   0  0  0  0  0  3  0  0  0  0  0  0
  189.7140  176.5110  144.1570 C   0  0  0  0  0  0  0  0  0  0  0  0
  191.8250  176.9780  145.2770 C   0  0  2  0  0  3  0  0  0  0  0  0
  186.9530  177.7430  146.4470 C   0  0  0  0  0  0  0  0  0  0  0  0
  192.0550  178.3410  145.0910 O   0  0  0  0  0  1  0  0  0  0  0  0
  188.9840  176.0090  142.9590 C   0  0  0  0  0  1  0  0  0  0  0  0
  179.6710  179.3420  141.1370 N   0  0  0  0  0  2  0  0  0  0  0  0
  179.2660  179.7310  139.7960 C   0  0  0  0  0  2  0  0  0  0  0  0
  179.5880  181.1950  139.5790 C   0  0  0  0  0  2  0  0  0  0  0  0
  180.0140  181.4130  138.1420 C   0  0  0  0  0  2  0  0  0  0  0  0
  181.1810  184.7470  136.5680 C   0  0  0  0  0  1  0  0  0  0  0  0
  180.7740  182.5870  135.6650 O   0  0  0  0  0  0  0  0  0  0  0  0
  180.7910  183.3190  136.6900 C   0  0  0  0  0  0  0  0  0  0  0  0
  180.4520  182.7870  137.9710 N   0  0  0  0  0  2  0  0  0  0  0  0
  1  8  1  0  0  0  0
  2 23  1  0  0  0  0
  3  1  2  0  0  0  0
  3  9  1  0  0  0  0
  4  6  1  0  0  0  0
  5  2  1  0  0  0  0
  6  5  1  0  0  0  0
  7  2  1  0  0  0  0
  8 10  1  0  0  0  0
  8  6  2  0  0  0  0
  9  4  2  0  0  0  0
 10 11  1  6  0  0  0
 10  7  1  0  0  0  0
 12 11  1  0  0  0  0
 13 12  1  0  0  0  0
 14 15  1  6  0  0  0
 14 13  1  0  0  0  0
 16 14  1  0  0  0  0
 18 17  1  6  0  0  0
 18 16  1  0  0  0  0
 21 20  1  0  0  0  0
 21 19  1  0  0  0  0
 21 18  1  0  0  0  0
 22 21  2  0  0  0  0
 23 24  1  0  0  0  0
 24 34  1  0  0  0  0
 25 31  1  0  0  0  0
 26 33  1  0  0  0  0
 27 30  2  0  0  0  0
 27 34  1  0  0  0  0
 28 29  1  0  0  0  0
 28 31  2  0  0  0  0
 30 28  1  0  0  0  0
 32 26  2  0  0  0  0
 32 30  1  0  0  0  0
 33 35  1  6  0  0  0
 33 29  1  0  0  0  0
 34 25  2  0  0  0  0
 36 32  1  0  0  0  0
 37  9  1  0  0  0  0
 38 37  1  0  0  0  0
 39 38  1  0  0  0  0
 40 39  1  0  0  0  0
 41 43  1  0  0  0  0
 42 43  2  0  0  0  0
 43 44  1  0  0  0  0
 44 40  1  0  0  0  0
M  END
>  <MODEL>
6

>  <REMARK>
 VINA RESULT:      -8.7      1.522      2.271
  Name = 
  15 active torsions:
  status: ('A' for Active; 'I' for Inactive)
    1  A    between atoms: C_5  and  C_29
    2  A    between atoms: C_5  and  C_36
    3  A    between atoms: C_6  and  C_24
    4  A    between atoms: C_6  and  C_37
    5  A    between atoms: N_7  and  C_36
    6  A    between atoms: N_19  and  C_23
    7  A    between atoms: N_19  and  C_24
    8  A    between atoms: C_21  and  C_28
    9  A    between atoms: C_21  and  N_41
   10  A    between atoms: C_23  and  C_43
   11  A    between atoms: C_28  and  C_33
   12  A    between atoms: C_32  and  N_41
   13  A    between atoms: C_33  and  N_42
   14  A    between atoms: P_35  and  C_44
   15  A    between atoms: C_43  and  C_44
                            x       y       z     vdW  Elec       q    Type
                         _______ _______ _______ _____ _____    ______ ____

>  <TORSDO>
F 15

$$$$
=
 OpenBabel10222417293D

 44 47  0  0  1  0  0  0  0  0999 V2000
  188.4300  177.0920  142.4680 C   0  0  0  0  0  3  0  0  0  0  0  0
  191.7900  177.3490  139.9800 N   0  0  0  0  0  0  0  0  0  0  0  0
  188.5890  177.0680  143.8560 C   0  0  0  0  0  3  0  0  0  0  0  0
  190.9900  176.9120  143.5850 C   0  0  0  0  0  3  0  0  0  0  0  0
  192.0480  176.8060  141.3130 C   0  0  0  0  0  2  0  0  0  0  0  0
  190.8400  176.9530  142.1960 C   0  0  0  0  0  0  0  0  0  0  0  0
  190.6420  176.6430  139.4180 C   0  0  0  0  0  2  0  0  0  0  0  0
  189.5480  177.0270  141.6300 C   0  0  0  0  0  0  0  0  0  0  0  0
  189.8650  176.9780  144.4210 C   0  0  0  0  0  0  0  0  0  0  0  0
  189.3630  177.0880  140.1350 C   0  0  1  0  0  3  0  0  0  0  0  0
  188.9980  178.5060  139.7140 C   0  0  0  0  0  2  0  0  0  0  0  0
  189.0440  178.6330  138.2050 C   0  0  0  0  0  2  0  0  0  0  0  0
  187.7020  178.8950  137.6980 N   0  0  0  0  0  2  0  0  0  0  0  0
  186.8800  177.6860  137.7920 C   0  0  2  0  0  3  0  0  0  0  0  0
  187.3520  176.7030  136.9180 O   0  0  0  0  0  1  0  0  0  0  0  0
  185.3970  177.9670  137.5240 C   0  0  0  0  0  2  0  0  0  0  0  0
  183.1980  177.2970  138.2690 O   0  0  0  0  0  1  0  0  0  0  0  0
  184.4790  177.6430  138.7030 C   0  0  2  0  0  3  0  0  0  0  0  0
  185.8180  179.0550  140.8110 O   0  0  0  0  0  1  0  0  0  0  0  0
  183.2180  178.7840  140.8290 O   0  0  0  0  0  1  0  0  0  0  0  0
  184.3920  179.0080  139.9040 P   0  0  0  0  0  0  0  0  0  0  0  0
  184.1920  180.4780  139.0900 O   0  0  0  0  0  0  0  0  0  0  0  0
  192.9340  177.0340  139.1450 C   0  0  0  0  0  2  0  0  0  0  0  0
  192.4510  176.5580  137.7870 C   0  0  0  0  0  2  0  0  0  0  0  0
  192.2870  174.2970  136.7270 C   0  0  0  0  0  3  0  0  0  0  0  0
  196.6200  172.0330  137.9530 N   0  0  0  0  0  0  0  0  0  0  0  0
  194.3170  174.9010  137.9020 C   0  0  0  0  0  3  0  0  0  0  0  0
  194.1140  172.7150  136.8690 C   0  0  0  0  0  0  0  0  0  0  0  0
  194.7280  171.4010  136.4840 C   0  0  0  0  0  2  0  0  0  0  0  0
  194.8660  173.6470  137.6050 C   0  0  0  0  0  0  0  0  0  0  0  0
  192.8330  173.0460  136.4210 C   0  0  0  0  0  3  0  0  0  0  0  0
  196.2260  173.2700  138.0440 C   0  0  0  0  0  0  0  0  0  0  0  0
  195.7320  170.9390  137.5460 C   0  0  2  0  0  3  0  0  0  0  0  0
  193.0260  175.2230  137.4730 C   0  0  0  0  0  0  0  0  0  0  0  0
  195.0460  170.4540  138.6600 O   0  0  0  0  0  1  0  0  0  0  0  0
  197.1910  174.3010  138.5220 C   0  0  0  0  0  1  0  0  0  0  0  0
  189.9940  176.9470  145.8430 N   0  0  0  0  0  2  0  0  0  0  0  0
  189.3300  177.8980  146.7210 C   0  0  0  0  0  2  0  0  0  0  0  0
  188.1640  177.2180  147.4080 C   0  0  0  0  0  2  0  0  0  0  0  0
  186.9590  178.1340  147.3850 C   0  0  0  0  0  2  0  0  0  0  0  0
  184.8250  178.8960  144.2520 C   0  0  0  0  0  1  0  0  0  0  0  0
  184.2890  178.6540  146.5540 O   0  0  0  0  0  0  0  0  0  0  0  0
  185.1850  178.6330  145.6690 C   0  0  0  0  0  0  0  0  0  0  0  0
  186.5410  178.3480  146.0110 N   0  0  0  0  0  2  0  0  0  0  0  0
  1  3  1  0  0  0  0
  2  5  1  0  0  0  0
  3  9  2  0  0  0  0
  4  9  1  0  0  0  0
  5  6  1  0  0  0  0
  6  4  2  0  0  0  0
  7  2  1  0  0  0  0
  7 10  1  0  0  0  0
  8  6  1  0  0  0  0
  8  1  2  0  0  0  0
  9 37  1  0  0  0  0
 10 11  1  6  0  0  0
 10  8  1  0  0  0  0
 12 11  1  0  0  0  0
 13 14  1  0  0  0  0
 13 12  1  0  0  0  0
 14 15  1  6  0  0  0
 16 14  1  0  0  0  0
 16 18  1  0  0  0  0
 18 17  1  6  0  0  0
 18 21  1  0  0  0  0
 21 19  1  0  0  0  0
 21 20  1  0  0  0  0
 22 21  2  0  0  0  0
 23  2  1  0  0  0  0
 24 23  1  0  0  0  0
 25 34  1  0  0  0  0
 26 32  2  0  0  0  0
 28 30  2  0  0  0  0
 29 28  1  0  0  0  0
 29 33  1  0  0  0  0
 30 27  1  0  0  0  0
 30 32  1  0  0  0  0
 31 25  2  0  0  0  0
 31 28  1  0  0  0  0
 32 36  1  0  0  0  0
 33 26  1  0  0  0  0
 33 35  1  1  0  0  0
 34 24  1  0  0  0  0
 34 27  2  0  0  0  0
 37 38  1  0  0  0  0
 38 39  1  0  0  0  0
 40 39  1  0  0  0  0
 41 43  1  0  0  0  0
 43 44  1  0  0  0  0
 43 42  2  0  0  0  0
 44 40  1  0  0  0  0
M  END
>  <MODEL>
7

>  <REMARK>
 VINA RESULT:      -8.6      4.323      9.183
  Name = 
  15 active torsions:
  status: ('A' for Active; 'I' for Inactive)
    1  A    between atoms: C_5  and  C_29
    2  A    between atoms: C_5  and  C_36
    3  A    between atoms: C_6  and  C_24
    4  A    between atoms: C_6  and  C_37
    5  A    between atoms: N_7  and  C_36
    6  A    between atoms: N_19  and  C_23
    7  A    between atoms: N_19  and  C_24
    8  A    between atoms: C_21  and  C_28
    9  A    between atoms: C_21  and  N_41
   10  A    between atoms: C_23  and  C_43
   11  A    between atoms: C_28  and  C_33
   12  A    between atoms: C_32  and  N_41
   13  A    between atoms: C_33  and  N_42
   14  A    between atoms: P_35  and  C_44
   15  A    between atoms: C_43  and  C_44
                            x       y       z     vdW  Elec       q    Type
                         _______ _______ _______ _____ _____    ______ ____

>  <TORSDO>
F 15

$$$$
=
 OpenBabel10222417293D

 44 47  0  0  1  0  0  0  0  0999 V2000
  187.4210  176.8670  137.1930 C   0  0  0  0  0  3  0  0  0  0  0  0
  190.1660  177.6110  140.2700 N   0  0  0  0  0  0  0  0  0  0  0  0
  186.1620  177.4720  137.2190 C   0  0  0  0  0  3  0  0  0  0  0  0
  186.6150  178.3330  139.4370 C   0  0  0  0  0  3  0  0  0  0  0  0
  188.7640  177.8260  140.6260 C   0  0  0  0  0  2  0  0  0  0  0  0
  187.8820  177.7440  139.4110 C   0  0  0  0  0  0  0  0  0  0  0  0
  190.2750  176.3030  139.6310 C   0  0  0  0  0  2  0  0  0  0  0  0
  188.2850  176.9910  138.2870 C   0  0  0  0  0  0  0  0  0  0  0  0
  185.7530  178.2060  138.3360 C   0  0  0  0  0  0  0  0  0  0  0  0
  189.6530  176.3600  138.2310 C   0  0  1  0  0  3  0  0  0  0  0  0
  190.5540  177.1560  137.2950 C   0  0  0  0  0  2  0  0  0  0  0  0
  190.8750  176.3430  136.0570 C   0  0  0  0  0  2  0  0  0  0  0  0
  190.8890  174.9250  136.3970 N   0  0  0  0  0  2  0  0  0  0  0  0
  192.1090  174.2940  135.8890 C   0  0  2  0  0  3  0  0  0  0  0  0
  192.2390  172.9990  136.3960 O   0  0  0  0  0  1  0  0  0  0  0  0
  193.3640  175.1170  136.2050 C   0  0  0  0  0  2  0  0  0  0  0  0
  193.9120  176.0960  138.3450 O   0  0  0  0  0  1  0  0  0  0  0  0
  193.9080  174.9040  137.6180 C   0  0  2  0  0  3  0  0  0  0  0  0
  195.8480  173.3880  139.0900 O   0  0  0  0  0  1  0  0  0  0  0  0
  196.6010  175.2500  137.4160 O   0  0  0  0  0  1  0  0  0  0  0  0
  195.5700  174.1620  137.6130 P   0  0  0  0  0  0  0  0  0  0  0  0
  195.6940  173.0370  136.3550 O   0  0  0  0  0  0  0  0  0  0  0  0
  190.9300  177.5480  141.5000 C   0  0  0  0  0  2  0  0  0  0  0  0
  190.4920  176.3390  142.3060 C   0  0  0  0  0  2  0  0  0  0  0  0
  191.2800  176.7400  144.6470 C   0  0  0  0  0  3  0  0  0  0  0  0
  187.0960  177.9760  147.1710 N   0  0  0  0  0  0  0  0  0  0  0  0
  188.9440  177.0950  144.1140 C   0  0  0  0  0  3  0  0  0  0  0  0
  189.7460  177.4650  146.3750 C   0  0  0  0  0  0  0  0  0  0  0  0
  189.4970  177.9320  147.7780 C   0  0  0  0  0  2  0  0  0  0  0  0
  188.6930  177.4650  145.4420 C   0  0  0  0  0  0  0  0  0  0  0  0
  191.0380  177.1150  145.9720 C   0  0  0  0  0  3  0  0  0  0  0  0
  187.3440  177.8600  145.8980 C   0  0  0  0  0  0  0  0  0  0  0  0
  188.0620  177.6100  148.2110 C   0  0  2  0  0  3  0  0  0  0  0  0
  190.2330  176.7240  143.7190 C   0  0  0  0  0  0  0  0  0  0  0  0
  187.9530  176.2490  148.4940 O   0  0  0  0  0  1  0  0  0  0  0  0
  186.2750  178.2050  144.9200 C   0  0  0  0  0  1  0  0  0  0  0  0
  184.4560  178.8060  138.3360 N   0  0  0  0  0  2  0  0  0  0  0  0
  183.2820  178.1580  137.7720 C   0  0  0  0  0  2  0  0  0  0  0  0
  182.1330  178.2600  138.7540 C   0  0  0  0  0  2  0  0  0  0  0  0
  182.3870  177.3390  139.9280 C   0  0  0  0  0  2  0  0  0  0  0  0
  182.8400  179.1040  143.3390 C   0  0  0  0  0  1  0  0  0  0  0  0
  184.3280  177.9000  141.9300 O   0  0  0  0  0  0  0  0  0  0  0  0
  183.1560  178.3240  142.1150 C   0  0  0  0  0  0  0  0  0  0  0  0
  182.1240  178.0520  141.1660 N   0  0  0  0  0  2  0  0  0  0  0  0
  1  3  2  0  0  0  0
  1  8  1  0  0  0  0
  2  5  1  0  0  0  0
  2 23  1  0  0  0  0
  3  9  1  0  0  0  0
  6  4  1  0  0  0  0
  6  5  1  0  0  0  0
  7  2  1  0  0  0  0
  8  6  2  0  0  0  0
  9  4  2  0  0  0  0
 10 11  1  6  0  0  0
 10  8  1  0  0  0  0
 10  7  1  0  0  0  0
 12 13  1  0  0  0  0
 12 11  1  0  0  0  0
 14 16  1  0  0  0  0
 14 15  1  1  0  0  0
 14 13  1  0  0  0  0
 16 18  1  0  0  0  0
 18 17  1  6  0  0  0
 20 21  1  0  0  0  0
 21 18  1  0  0  0  0
 21 19  1  0  0  0  0
 22 21  2  0  0  0  0
 23 24  1  0  0  0  0
 24 34  1  0  0  0  0
 25 31  1  0  0  0  0
 26 33  1  0  0  0  0
 27 30  2  0  0  0  0
 28 29  1  0  0  0  0
 29 33  1  0  0  0  0
 30 32  1  0  0  0  0
 30 28  1  0  0  0  0
 31 28  2  0  0  0  0
 32 26  2  0  0  0  0
 33 35  1  6  0  0  0
 34 27  1  0  0  0  0
 34 25  2  0  0  0  0
 36 32  1  0  0  0  0
 37  9  1  0  0  0  0
 38 37  1  0  0  0  0
 38 39  1  0  0  0  0
 39 40  1  0  0  0  0
 40 44  1  0  0  0  0
 42 43  2  0  0  0  0
 43 41  1  0  0  0  0
 44 43  1  0  0  0  0
M  END
>  <MODEL>
8

>  <REMARK>
 VINA RESULT:      -8.5      3.094      5.656
  Name = 
  15 active torsions:
  status: ('A' for Active; 'I' for Inactive)
    1  A    between atoms: C_5  and  C_29
    2  A    between atoms: C_5  and  C_36
    3  A    between atoms: C_6  and  C_24
    4  A    between atoms: C_6  and  C_37
    5  A    between atoms: N_7  and  C_36
    6  A    between atoms: N_19  and  C_23
    7  A    between atoms: N_19  and  C_24
    8  A    between atoms: C_21  and  C_28
    9  A    between atoms: C_21  and  N_41
   10  A    between atoms: C_23  and  C_43
   11  A    between atoms: C_28  and  C_33
   12  A    between atoms: C_32  and  N_41
   13  A    between atoms: C_33  and  N_42
   14  A    between atoms: P_35  and  C_44
   15  A    between atoms: C_43  and  C_44
                            x       y       z     vdW  Elec       q    Type
                         _______ _______ _______ _____ _____    ______ ____

>  <TORSDO>
F 15

$$$$
=
 OpenBabel10222417293D

 44 47  0  0  1  0  0  0  0  0999 V2000
  189.7080  177.0140  135.8680 C   0  0  0  0  0  3  0  0  0  0  0  0
  189.2560  177.3310  140.0210 N   0  0  0  0  0  0  0  0  0  0  0  0
  190.6470  176.1280  135.3330 C   0  0  0  0  0  3  0  0  0  0  0  0
  191.4930  175.6730  137.5570 C   0  0  0  0  0  3  0  0  0  0  0  0
  190.5550  176.8250  139.5770 C   0  0  0  0  0  2  0  0  0  0  0  0
  190.5450  176.5450  138.1000 C   0  0  0  0  0  0  0  0  0  0  0  0
  188.9580  178.5410  139.2600 C   0  0  0  0  0  2  0  0  0  0  0  0
  189.6550  177.2350  137.2490 C   0  0  0  0  0  0  0  0  0  0  0  0
  191.5420  175.4540  136.1710 C   0  0  0  0  0  0  0  0  0  0  0  0
  188.6150  178.1680  137.8140 C   0  0  1  0  0  3  0  0  0  0  0  0
  187.2420  177.5110  137.7600 C   0  0  0  0  0  2  0  0  0  0  0  0
  186.1550  178.5450  137.9750 C   0  0  0  0  0  2  0  0  0  0  0  0
  184.9120  177.8750  138.3380 N   0  0  0  0  0  2  0  0  0  0  0  0
  184.1070  178.7380  139.2070 C   0  0  2  0  0  3  0  0  0  0  0  0
  184.9320  179.5430  139.9970 O   0  0  0  0  0  1  0  0  0  0  0  0
  183.1420  177.9380  140.0900 C   0  0  0  0  0  2  0  0  0  0  0  0
  181.5610  179.5190  139.1740 O   0  0  0  0  0  1  0  0  0  0  0  0
  181.7060  178.4640  140.0770 C   0  0  2  0  0  3  0  0  0  0  0  0
  182.4580  179.0060  142.7910 O   0  0  0  0  0  1  0  0  0  0  0  0
  180.1250  177.9660  142.2360 O   0  0  0  0  0  1  0  0  0  0  0  0
  181.1410  178.9650  141.7320 P   0  0  0  0  0  0  0  0  0  0  0  0
  180.4300  180.4990  141.6570 O   0  0  0  0  0  0  0  0  0  0  0  0
  189.3870  177.7250  141.4110 C   0  0  0  0  0  2  0  0  0  0  0  0
  188.8520  176.6180  142.3010 C   0  0  0  0  0  2  0  0  0  0  0  0
  190.1850  176.9930  144.3860 C   0  0  0  0  0  3  0  0  0  0  0  0
  186.7600  178.3760  147.8160 N   0  0  0  0  0  0  0  0  0  0  0  0
  187.8020  177.4290  144.4170 C   0  0  0  0  0  3  0  0  0  0  0  0
  189.1280  177.7720  146.4210 C   0  0  0  0  0  0  0  0  0  0  0  0
  189.2340  178.2480  147.8400 C   0  0  0  0  0  2  0  0  0  0  0  0
  187.8850  177.8080  145.7630 C   0  0  0  0  0  0  0  0  0  0  0  0
  190.2750  177.3770  145.7280 C   0  0  0  0  0  3  0  0  0  0  0  0
  186.6960  178.2510  146.5210 C   0  0  0  0  0  0  0  0  0  0  0  0
  187.9310  177.9780  148.6020 C   0  0  2  0  0  3  0  0  0  0  0  0
  188.9480  177.0130  143.7320 C   0  0  0  0  0  0  0  0  0  0  0  0
  187.8460  176.6210  148.9140 O   0  0  0  0  0  1  0  0  0  0  0  0
  185.4390  178.6330  145.8200 C   0  0  0  0  0  1  0  0  0  0  0  0
  192.4950  174.5610  135.5940 N   0  0  0  0  0  2  0  0  0  0  0  0
  193.5440  174.9990  134.6860 C   0  0  0  0  0  2  0  0  0  0  0  0
  194.8510  174.3360  135.0710 C   0  0  0  0  0  2  0  0  0  0  0  0
  195.1740  174.6570  136.5150 C   0  0  0  0  0  2  0  0  0  0  0  0
  198.9330  174.1510  137.2720 C   0  0  0  0  0  1  0  0  0  0  0  0
  197.6800  176.0030  136.4680 O   0  0  0  0  0  0  0  0  0  0  0  0
  197.6670  174.8020  136.8490 C   0  0  0  0  0  0  0  0  0  0  0  0
  196.4490  174.0570  136.8680 N   0  0  0  0  0  2  0  0  0  0  0  0
  1  8  1  0  0  0  0
  2 23  1  0  0  0  0
  3  1  2  0  0  0  0
  3  9  1  0  0  0  0
  4  6  1  0  0  0  0
  5  2  1  0  0  0  0
  6  5  1  0  0  0  0
  7  2  1  0  0  0  0
  8 10  1  0  0  0  0
  8  6  2  0  0  0  0
  9  4  2  0  0  0  0
 10 11  1  1  0  0  0
 10  7  1  0  0  0  0
 11 12  1  0  0  0  0
 12 13  1  0  0  0  0
 13 14  1  0  0  0  0
 14 15  1  1  0  0  0
 14 16  1  0  0  0  0
 18 17  1  6  0  0  0
 18 16  1  0  0  0  0
 18 21  1  0  0  0  0
 21 20  1  0  0  0  0
 21 19  1  0  0  0  0
 22 21  2  0  0  0  0
 23 24  1  0  0  0  0
 24 34  1  0  0  0  0
 25 31  1  0  0  0  0
 26 33  1  0  0  0  0
 27 30  2  0  0  0  0
 28 29  1  0  0  0  0
 29 33  1  0  0  0  0
 30 28  1  0  0  0  0
 30 32  1  0  0  0  0
 31 28  2  0  0  0  0
 32 26  2  0  0  0  0
 33 35  1  6  0  0  0
 34 25  2  0  0  0  0
 34 27  1  0  0  0  0
 36 32  1  0  0  0  0
 37  9  1  0  0  0  0
 38 39  1  0  0  0  0
 38 37  1  0  0  0  0
 39 40  1  0  0  0  0
 40 44  1  0  0  0  0
 42 43  2  0  0  0  0
 43 44  1  0  0  0  0
 43 41  1  0  0  0  0
M  END
>  <MODEL>
9

>  <REMARK>
 VINA RESULT:      -8.5      4.370      9.944
  Name = 
  15 active torsions:
  status: ('A' for Active; 'I' for Inactive)
    1  A    between atoms: C_5  and  C_29
    2  A    between atoms: C_5  and  C_36
    3  A    between atoms: C_6  and  C_24
    4  A    between atoms: C_6  and  C_37
    5  A    between atoms: N_7  and  C_36
    6  A    between atoms: N_19  and  C_23
    7  A    between atoms: N_19  and  C_24
    8  A    between atoms: C_21  and  C_28
    9  A    between atoms: C_21  and  N_41
   10  A    between atoms: C_23  and  C_43
   11  A    between atoms: C_28  and  C_33
   12  A    between atoms: C_32  and  N_41
   13  A    between atoms: C_33  and  N_42
   14  A    between atoms: P_35  and  C_44
   15  A    between atoms: C_43  and  C_44
                            x       y       z     vdW  Elec       q    Type
                         _______ _______ _______ _____ _____    ______ ____

>  <TORSDO>
F 15

$$$$
