=
 OpenBabel10222416453D

 45 49  0  0  1  0  0  0  0  0999 V2000
  183.0000  177.4050  140.5490 C   0  0  0  0  0  3  0  0  0  0  0  0
  184.3500  177.9010  138.5880 C   0  0  0  0  0  0  0  0  0  0  0  0
  184.8040  178.9920  140.7170 C   0  0  0  0  0  3  0  0  0  0  0  0
  183.2880  177.1900  139.1960 C   0  0  0  0  0  0  0  0  0  0  0  0
  183.7390  178.3160  141.3090 C   0  0  0  0  0  0  0  0  0  0  0  0
  185.1080  178.7870  139.3720 C   0  0  0  0  0  3  0  0  0  0  0  0
  183.0790  174.8700  138.5620 O   0  0  0  0  0  1  0  0  0  0  0  0
  182.4790  176.1310  138.4900 C   0  0  1  0  0  3  0  0  0  0  0  0
  180.7170  175.2240  139.8330 O   0  0  0  0  0  0  0  0  0  0  0  0
  181.0640  176.0880  138.9850 C   0  0  0  0  0  0  0  0  0  0  0  0
  180.0970  177.0290  138.5160 N   0  0  0  0  0  2  0  0  0  0  0  0
  180.5610  179.2530  138.0210 O   0  0  0  0  0  1  0  0  0  0  0  0
  180.3850  177.9870  137.4630 C   0  0  0  0  0  2  0  0  0  0  0  0
  183.4510  178.5270  142.6950 N   0  0  0  0  0  2  0  0  0  0  0  0
  184.1240  179.5270  143.5190 C   0  0  0  0  0  2  0  0  0  0  0  0
  187.4880  177.7150  145.9890 C   0  0  0  0  0  0  0  0  0  0  0  0
  189.4470  176.7310  144.1470 C   0  0  0  0  0  3  0  0  0  0  0  0
  188.7570  177.5110  146.3520 C   0  0  0  0  0  2  0  0  0  0  0  0
  185.4080  178.5370  146.9530 N   0  0  0  0  0  0  0  0  0  0  0  0
  185.0190  178.8690  144.5170 C   0  0  0  0  0  0  0  0  0  0  0  0
  187.1110  177.4690  144.5800 C   0  0  0  0  0  0  0  0  0  0  0  0
  186.5520  177.9790  147.0340 N   0  0  0  0  0  2  0  0  0  0  0  0
  184.7480  179.0800  145.8040 C   0  0  0  0  0  3  0  0  0  0  0  0
  186.0480  177.9780  143.9780 C   0  0  0  0  0  3  0  0  0  0  0  0
  188.0060  176.6040  143.7410 C   0  0  0  0  0  2  0  0  0  0  0  0
  189.7900  177.1090  145.3800 C   0  0  0  0  0  0  0  0  0  0  0  0
  191.2280  177.1560  145.7610 C   0  0  0  0  0  2  0  0  0  0  0  0
  191.4890  176.3220  147.0050 C   0  0  0  0  0  3  0  0  0  0  0  0
  192.4140  175.3190  146.7150 O   0  0  0  0  0  1  0  0  0  0  0  0
  192.0000  177.1430  148.0070 O   0  0  0  0  0  1  0  0  0  0  0  0
  184.6750  177.6970  137.1330 C   0  0  0  0  0  2  0  0  0  0  0  0
  186.0480  176.5340  136.8110 S   0  0  0  0  0  0  0  0  0  0  0  0
  187.5510  178.0420  135.2380 O   0  0  0  0  0  0  0  0  0  0  0  0
  187.2770  177.7830  136.4000 C   0  0  0  0  0  0  0  0  0  0  0  0
  188.9480  178.0690  139.9270 C   0  0  0  0  0  2  0  0  0  0  0  0
  191.1250  177.0370  139.5280 O   0  0  0  0  0  0  0  0  0  0  0  0
  190.2060  176.6820  137.2880 C   0  0  1  0  0  3  0  0  0  0  0  0
  188.0060  178.4680  137.5140 C   0  0  2  0  0  3  0  0  0  0  0  0
  189.4630  177.9970  137.6140 C   0  0  1  0  0  3  0  0  0  0  0  0
  188.4110  177.5300  138.6180 C   0  0  1  0  0  3  0  0  0  0  0  0
  190.8280  176.0490  138.5640 C   0  0  0  0  0  2  0  0  0  0  0  0
  190.0300  177.0880  140.4180 C   0  0  0  0  0  2  0  0  0  0  0  0
  189.3890  174.2910  136.9600 C   0  0  0  0  0  1  0  0  0  0  0  0
  190.2700  175.5860  135.0420 C   0  0  0  0  0  1  0  0  0  0  0  0
  189.5140  175.6790  136.3510 C   0  0  0  0  0  3  0  0  0  0  0  0
  1  5  1  0  0  0  0
  2  4  1  0  0  0  0
  2  6  2  0  0  0  0
  3  5  2  0  0  0  0
  4  1  2  0  0  0  0
  5 14  1  0  0  0  0
  6  3  1  0  0  0  0
  8  7  1  1  0  0  0
  8 10  1  0  0  0  0
  8  4  1  0  0  0  0
 10  9  2  0  0  0  0
 11 10  1  0  0  0  0
 13 12  1  0  0  0  0
 13 11  1  0  0  0  0
 14 15  1  0  0  0  0
 15 20  1  0  0  0  0
 16 18  1  0  0  0  0
 16 22  1  0  0  0  0
 17 26  2  0  0  0  0
 19 22  1  0  0  0  0
 20 23  1  0  0  0  0
 21 16  2  0  0  0  0
 23 19  2  0  0  0  0
 24 20  2  0  0  0  0
 24 21  1  0  0  0  0
 25 17  1  0  0  0  0
 25 21  1  0  0  0  0
 26 27  1  0  0  0  0
 26 18  1  0  0  0  0
 27 28  1  0  0  0  0
 28 30  1  0  0  0  0
 29 28  1  0  0  0  0
 31  2  1  0  0  0  0
 32 31  1  0  0  0  0
 33 34  2  0  0  0  0
 34 32  1  0  0  0  0
 35 42  1  0  0  0  0
 36 42  1  0  0  0  0
 37 45  1  1  0  0  0
 37 39  1  0  0  0  0
 37 41  1  0  0  0  0
 38 34  1  6  0  0  0
 38 39  1  0  0  0  0
 38 40  1  0  0  0  0
 39 40  1  0  0  0  0
 40 35  1  0  0  0  0
 41 36  1  0  0  0  0
 44 45  1  0  0  0  0
 45 43  1  0  0  0  0
M  END
>  <MODEL>
1

>  <REMARK>
 VINA RESULT:      -9.1      0.000      0.000
  Name = 
  13 active torsions:
  status: ('A' for Active; 'I' for Inactive)
    1  A    between atoms: C_1  and  N_15
    2  A    between atoms: C_1  and  C_26
    3  A    between atoms: C_4  and  C_10
    4  A    between atoms: C_9  and  C_28
    5  A    between atoms: C_10  and  C_44
    6  A    between atoms: C_12  and  C_37
    7  A    between atoms: N_15  and  C_29
    8  A    between atoms: C_16  and  C_33
    9  A    between atoms: N_18  and  C_42
   10  A    between atoms: C_21  and  C_35
   11  A    between atoms: C_24  and  C_33
   12  A    between atoms: C_28  and  S_39
   13  A    between atoms: C_35  and  S_39
                            x       y       z     vdW  Elec       q    Type
                         _______ _______ _______ _____ _____    ______ ____

>  <TORSDO>
F 13

$$$$
=
 OpenBabel10222416453D

 45 49  0  0  1  0  0  0  0  0999 V2000
  182.9580  178.8120  140.9280 C   0  0  0  0  0  3  0  0  0  0  0  0
  184.2500  178.5870  142.9760 C   0  0  0  0  0  0  0  0  0  0  0  0
  185.3580  178.9980  140.8470 C   0  0  0  0  0  3  0  0  0  0  0  0
  183.0000  178.6080  142.3130 C   0  0  0  0  0  0  0  0  0  0  0  0
  184.1300  178.9880  140.1870 C   0  0  0  0  0  0  0  0  0  0  0  0
  185.4180  178.8010  142.2260 C   0  0  0  0  0  3  0  0  0  0  0  0
  181.7500  178.9330  144.3520 O   0  0  0  0  0  1  0  0  0  0  0  0
  181.6740  178.5060  143.0230 C   0  0  1  0  0  3  0  0  0  0  0  0
  180.4780  180.4780  142.3810 O   0  0  0  0  0  0  0  0  0  0  0  0
  180.5870  179.2270  142.2830 C   0  0  0  0  0  0  0  0  0  0  0  0
  179.6720  178.5140  141.4500 N   0  0  0  0  0  2  0  0  0  0  0  0
  180.4410  176.6540  140.2840 O   0  0  0  0  0  1  0  0  0  0  0  0
  179.6610  177.0640  141.3650 C   0  0  0  0  0  2  0  0  0  0  0  0
  184.0870  179.2080  138.7740 N   0  0  0  0  0  2  0  0  0  0  0  0
  183.8070  178.1580  137.7990 C   0  0  0  0  0  2  0  0  0  0  0  0
  187.9160  176.2250  137.5360 C   0  0  0  0  0  0  0  0  0  0  0  0
  189.8000  178.1110  138.5800 C   0  0  0  0  0  3  0  0  0  0  0  0
  189.1150  175.8470  137.9900 C   0  0  0  0  0  2  0  0  0  0  0  0
  185.9000  175.2210  136.6090 N   0  0  0  0  0  0  0  0  0  0  0  0
  185.0480  177.3920  137.4800 C   0  0  0  0  0  0  0  0  0  0  0  0
  187.5480  177.6540  137.6280 C   0  0  1  0  0  3  0  0  0  0  0  0
  187.1560  175.2460  136.8280 N   0  0  0  0  0  0  0  0  0  0  0  0
  184.8930  176.1470  137.0320 C   0  0  0  0  0  3  0  0  0  0  0  0
  186.3100  178.1230  137.6020 C   0  0  0  0  0  3  0  0  0  0  0  0
  188.6450  178.6660  137.7980 C   0  0  0  0  0  2  0  0  0  0  0  0
  190.0420  176.8000  138.6270 C   0  0  0  0  0  0  0  0  0  0  0  0
  191.2380  176.2980  139.3570 C   0  0  0  0  0  2  0  0  0  0  0  0
  192.0410  177.4480  139.9440 C   0  0  0  0  0  3  0  0  0  0  0  0
  192.0410  177.3620  141.3350 O   0  0  0  0  0  1  0  0  0  0  0  0
  193.3510  177.3750  139.4780 O   0  0  0  0  0  1  0  0  0  0  0  0
  184.3240  178.3590  144.4610 C   0  0  0  0  0  2  0  0  0  0  0  0
  185.6460  179.2930  145.3130 S   0  0  0  0  0  0  0  0  0  0  0  0
  186.4850  176.7880  145.1410 O   0  0  0  0  0  0  0  0  0  0  0  0
  186.7080  177.8770  145.6460 C   0  0  0  0  0  0  0  0  0  0  0  0
  189.9820  176.8240  147.5150 C   0  0  0  0  0  2  0  0  0  0  0  0
  191.6900  177.3390  145.8470 O   0  0  0  0  0  0  0  0  0  0  0  0
  189.7480  177.9540  144.4920 C   0  0  1  0  0  3  0  0  0  0  0  0
  187.8470  178.0420  146.6030 C   0  0  2  0  0  3  0  0  0  0  0  0
  189.1660  178.3280  145.8740 C   0  0  1  0  0  3  0  0  0  0  0  0
  188.8810  176.9570  146.4820 C   0  0  1  0  0  3  0  0  0  0  0  0
  191.0230  177.0780  144.6300 C   0  0  0  0  0  2  0  0  0  0  0  0
  191.2530  176.3670  146.7740 C   0  0  0  0  0  2  0  0  0  0  0  0
  189.0190  176.0540  142.9580 C   0  0  0  0  0  1  0  0  0  0  0  0
  188.8530  178.4060  142.2010 C   0  0  0  0  0  1  0  0  0  0  0  0
  188.7680  177.4870  143.4020 C   0  0  0  0  0  3  0  0  0  0  0  0
  1  4  1  0  0  0  0
  2 31  1  0  0  0  0
  3  6  2  0  0  0  0
  4  2  2  0  0  0  0
  4  8  1  0  0  0  0
  5  3  1  0  0  0  0
  5  1  2  0  0  0  0
  6  2  1  0  0  0  0
  8  7  1  1  0  0  0
 10  9  2  0  0  0  0
 10  8  1  0  0  0  0
 11 10  1  0  0  0  0
 12 13  1  0  0  0  0
 13 11  1  0  0  0  0
 14  5  1  0  0  0  0
 15 14  1  0  0  0  0
 16 21  1  0  0  0  0
 16 18  1  0  0  0  0
 17 26  2  0  0  0  0
 18 26  1  0  0  0  0
 19 22  1  0  0  0  0
 19 23  2  0  0  0  0
 20 24  2  0  0  0  0
 20 15  1  0  0  0  0
 21 24  1  1  0  0  0
 21 25  1  0  0  0  0
 22 16  2  0  0  0  0
 23 20  1  0  0  0  0
 25 17  1  0  0  0  0
 26 27  1  0  0  0  0
 27 28  1  0  0  0  0
 28 29  1  0  0  0  0
 30 28  1  0  0  0  0
 31 32  1  0  0  0  0
 32 34  1  0  0  0  0
 33 34  2  0  0  0  0
 36 42  1  0  0  0  0
 37 45  1  6  0  0  0
 37 41  1  0  0  0  0
 37 39  1  0  0  0  0
 38 34  1  6  0  0  0
 39 40  1  0  0  0  0
 39 38  1  0  0  0  0
 40 38  1  0  0  0  0
 40 35  1  0  0  0  0
 41 36  1  0  0  0  0
 42 35  1  0  0  0  0
 43 45  1  0  0  0  0
 44 45  1  0  0  0  0
M  END
>  <MODEL>
2

>  <REMARK>
 VINA RESULT:      -8.1      3.062      6.855
  Name = 
  13 active torsions:
  status: ('A' for Active; 'I' for Inactive)
    1  A    between atoms: C_1  and  N_15
    2  A    between atoms: C_1  and  C_26
    3  A    between atoms: C_4  and  C_10
    4  A    between atoms: C_9  and  C_28
    5  A    between atoms: C_10  and  C_44
    6  A    between atoms: C_12  and  C_37
    7  A    between atoms: N_15  and  C_29
    8  A    between atoms: C_16  and  C_33
    9  A    between atoms: N_18  and  C_42
   10  A    between atoms: C_21  and  C_35
   11  A    between atoms: C_24  and  C_33
   12  A    between atoms: C_28  and  S_39
   13  A    between atoms: C_35  and  S_39
                            x       y       z     vdW  Elec       q    Type
                         _______ _______ _______ _____ _____    ______ ____

>  <TORSDO>
F 13

$$$$
=
 OpenBabel10222416453D

 45 49  0  0  1  0  0  0  0  0999 V2000
  185.9480  178.6590  139.5530 C   0  0  0  0  0  3  0  0  0  0  0  0
  184.4030  177.8200  137.8750 C   0  0  0  0  0  0  0  0  0  0  0  0
  183.5920  178.5660  140.0460 C   0  0  0  0  0  3  0  0  0  0  0  0
  185.7220  178.1430  138.2720 C   0  0  0  0  0  0  0  0  0  0  0  0
  184.8940  178.8550  140.4500 C   0  0  0  0  0  0  0  0  0  0  0  0
  183.3480  178.0540  138.7720 C   0  0  0  0  0  3  0  0  0  0  0  0
  187.3310  179.2950  136.8880 O   0  0  0  0  0  1  0  0  0  0  0  0
  186.9180  178.0440  137.3600 C   0  0  1  0  0  3  0  0  0  0  0  0
  188.8580  177.9190  138.7570 O   0  0  0  0  0  0  0  0  0  0  0  0
  188.0540  177.3070  138.0060 C   0  0  0  0  0  0  0  0  0  0  0  0
  188.2300  175.9060  137.7930 N   0  0  0  0  0  2  0  0  0  0  0  0
  188.2260  174.5990  135.8690 O   0  0  0  0  0  1  0  0  0  0  0  0
  187.4140  175.1480  136.8610 C   0  0  0  0  0  2  0  0  0  0  0  0
  185.1240  179.3940  141.7560 N   0  0  0  0  0  2  0  0  0  0  0  0
  184.2740  179.1150  142.9090 C   0  0  0  0  0  2  0  0  0  0  0  0
  187.4330  177.6930  145.8570 C   0  0  0  0  0  0  0  0  0  0  0  0
  189.6350  176.7040  144.3170 C   0  0  0  0  0  3  0  0  0  0  0  0
  188.6640  177.5930  146.3690 C   0  0  0  0  0  2  0  0  0  0  0  0
  185.2180  178.4510  146.5270 N   0  0  0  0  0  0  0  0  0  0  0  0
  185.0860  178.5860  144.0450 C   0  0  0  0  0  0  0  0  0  0  0  0
  187.2290  177.3250  144.4400 C   0  0  0  0  0  0  0  0  0  0  0  0
  186.3740  177.9720  146.7730 N   0  0  0  0  0  2  0  0  0  0  0  0
  184.6630  178.8700  145.2760 C   0  0  0  0  0  3  0  0  0  0  0  0
  186.2140  177.7240  143.6900 C   0  0  0  0  0  3  0  0  0  0  0  0
  188.2580  176.4590  143.7700 C   0  0  0  0  0  2  0  0  0  0  0  0
  189.8180  177.1880  145.5470 C   0  0  0  0  0  0  0  0  0  0  0  0
  191.2000  177.3500  146.0750 C   0  0  0  0  0  2  0  0  0  0  0  0
  191.5530  176.2240  147.0340 C   0  0  0  0  0  3  0  0  0  0  0  0
  192.3460  175.2810  146.3830 O   0  0  0  0  0  1  0  0  0  0  0  0
  192.2550  176.7480  148.1160 O   0  0  0  0  0  1  0  0  0  0  0  0
  184.1320  177.2530  136.5070 C   0  0  0  0  0  2  0  0  0  0  0  0
  183.7030  175.4760  136.4850 S   0  0  0  0  0  0  0  0  0  0  0  0
  181.7200  176.7520  135.2830 O   0  0  0  0  0  0  0  0  0  0  0  0
  182.1730  175.6510  135.5520 C   0  0  0  0  0  0  0  0  0  0  0  0
  180.8530  171.9900  135.9690 C   0  0  0  0  0  2  0  0  0  0  0  0
  178.9310  172.3230  137.4380 O   0  0  0  0  0  0  0  0  0  0  0  0
  179.6710  174.6540  137.3740 C   0  0  1  0  0  3  0  0  0  0  0  0
  181.4290  174.4140  135.1540 C   0  0  2  0  0  3  0  0  0  0  0  0
  180.1320  174.2480  135.9560 C   0  0  1  0  0  3  0  0  0  0  0  0
  181.3580  173.3890  136.2530 C   0  0  1  0  0  3  0  0  0  0  0  0
  179.3390  173.4090  138.2420 C   0  0  0  0  0  2  0  0  0  0  0  0
  180.0730  171.5230  137.2130 C   0  0  0  0  0  2  0  0  0  0  0  0
  181.0140  175.2830  139.4460 C   0  0  0  0  0  1  0  0  0  0  0  0
  179.5990  176.9710  138.3130 C   0  0  0  0  0  1  0  0  0  0  0  0
  180.4680  175.7470  138.1050 C   0  0  0  0  0  3  0  0  0  0  0  0
  1  5  1  0  0  0  0
  2  4  1  0  0  0  0
  2  6  2  0  0  0  0
  3  5  2  0  0  0  0
  4  1  2  0  0  0  0
  5 14  1  0  0  0  0
  6  3  1  0  0  0  0
  8  7  1  1  0  0  0
  8 10  1  0  0  0  0
  8  4  1  0  0  0  0
 10  9  2  0  0  0  0
 11 10  1  0  0  0  0
 12 13  1  0  0  0  0
 13 11  1  0  0  0  0
 14 15  1  0  0  0  0
 15 20  1  0  0  0  0
 16 18  1  0  0  0  0
 16 22  1  0  0  0  0
 17 26  2  0  0  0  0
 19 22  1  0  0  0  0
 20 23  1  0  0  0  0
 21 16  2  0  0  0  0
 23 19  2  0  0  0  0
 24 20  2  0  0  0  0
 24 21  1  0  0  0  0
 25 17  1  0  0  0  0
 25 21  1  0  0  0  0
 26 27  1  0  0  0  0
 26 18  1  0  0  0  0
 27 28  1  0  0  0  0
 28 30  1  0  0  0  0
 29 28  1  0  0  0  0
 31  2  1  0  0  0  0
 32 31  1  0  0  0  0
 33 34  2  0  0  0  0
 34 32  1  0  0  0  0
 35 40  1  0  0  0  0
 35 42  1  0  0  0  0
 36 41  1  0  0  0  0
 37 45  1  1  0  0  0
 37 41  1  0  0  0  0
 38 34  1  1  0  0  0
 38 39  1  0  0  0  0
 38 40  1  0  0  0  0
 39 40  1  0  0  0  0
 39 37  1  0  0  0  0
 42 36  1  0  0  0  0
 45 44  1  0  0  0  0
 45 43  1  0  0  0  0
M  END
>  <MODEL>
3

>  <REMARK>
 VINA RESULT:      -7.9      2.406      6.200
  Name = 
  13 active torsions:
  status: ('A' for Active; 'I' for Inactive)
    1  A    between atoms: C_1  and  N_15
    2  A    between atoms: C_1  and  C_26
    3  A    between atoms: C_4  and  C_10
    4  A    between atoms: C_9  and  C_28
    5  A    between atoms: C_10  and  C_44
    6  A    between atoms: C_12  and  C_37
    7  A    between atoms: N_15  and  C_29
    8  A    between atoms: C_16  and  C_33
    9  A    between atoms: N_18  and  C_42
   10  A    between atoms: C_21  and  C_35
   11  A    between atoms: C_24  and  C_33
   12  A    between atoms: C_28  and  S_39
   13  A    between atoms: C_35  and  S_39
                            x       y       z     vdW  Elec       q    Type
                         _______ _______ _______ _____ _____    ______ ____

>  <TORSDO>
F 13

$$$$
=
 OpenBabel10222416453D

 45 49  0  0  1  0  0  0  0  0999 V2000
  183.0560  177.2010  140.0050 C   0  0  0  0  0  3  0  0  0  0  0  0
  184.3170  177.5050  137.9480 C   0  0  0  0  0  0  0  0  0  0  0  0
  184.9880  178.6390  139.9960 C   0  0  0  0  0  3  0  0  0  0  0  0
  183.2420  176.9080  138.6480 C   0  0  0  0  0  0  0  0  0  0  0  0
  183.9110  178.0780  140.6790 C   0  0  0  0  0  0  0  0  0  0  0  0
  185.1900  178.3560  138.6450 C   0  0  0  0  0  3  0  0  0  0  0  0
  182.8760  174.6150  137.9880 O   0  0  0  0  0  1  0  0  0  0  0  0
  182.3090  175.8920  138.0400 C   0  0  1  0  0  3  0  0  0  0  0  0
  180.8040  175.1180  139.7330 O   0  0  0  0  0  0  0  0  0  0  0  0
  180.9800  175.8670  138.7370 C   0  0  0  0  0  0  0  0  0  0  0  0
  179.9060  176.6960  138.2930 N   0  0  0  0  0  2  0  0  0  0  0  0
  180.5060  178.7640  137.4130 O   0  0  0  0  0  1  0  0  0  0  0  0
  179.9910  177.5080  137.0910 C   0  0  0  0  0  2  0  0  0  0  0  0
  183.7280  178.3670  142.0680 N   0  0  0  0  0  2  0  0  0  0  0  0
  184.5020  179.3680  142.7960 C   0  0  0  0  0  2  0  0  0  0  0  0
  187.6300  177.6250  145.6010 C   0  0  0  0  0  0  0  0  0  0  0  0
  189.7980  176.7030  143.9730 C   0  0  0  0  0  3  0  0  0  0  0  0
  188.8590  177.4500  146.0960 C   0  0  0  0  0  2  0  0  0  0  0  0
  185.4400  178.3890  146.3430 N   0  0  0  0  0  0  0  0  0  0  0  0
  185.3030  178.7270  143.8810 C   0  0  0  0  0  0  0  0  0  0  0  0
  187.4110  177.3790  144.1600 C   0  0  0  0  0  0  0  0  0  0  0  0
  186.5830  177.8600  146.5430 N   0  0  0  0  0  2  0  0  0  0  0  0
  184.8920  178.9230  145.1330 C   0  0  0  0  0  3  0  0  0  0  0  0
  186.4050  177.8650  143.4500 C   0  0  0  0  0  3  0  0  0  0  0  0
  188.4120  176.5420  143.4160 C   0  0  0  0  0  2  0  0  0  0  0  0
  189.9990  177.0810  145.2370 C   0  0  0  0  0  0  0  0  0  0  0  0
  191.3870  177.1620  145.7680 C   0  0  0  0  0  2  0  0  0  0  0  0
  191.5680  176.2350  146.9600 C   0  0  0  0  0  3  0  0  0  0  0  0
  192.4370  175.1970  146.6230 O   0  0  0  0  0  1  0  0  0  0  0  0
  192.1050  176.9570  148.0230 O   0  0  0  0  0  1  0  0  0  0  0  0
  184.5330  177.2160  136.4870 C   0  0  0  0  0  2  0  0  0  0  0  0
  186.2770  177.2920  135.9420 S   0  0  0  0  0  0  0  0  0  0  0  0
  186.1860  175.1720  137.5240 O   0  0  0  0  0  0  0  0  0  0  0  0
  186.7520  175.6710  136.5640 C   0  0  0  0  0  0  0  0  0  0  0  0
  190.1220  175.3880  134.5940 C   0  0  0  0  0  2  0  0  0  0  0  0
  191.7610  175.8110  136.3550 O   0  0  0  0  0  0  0  0  0  0  0  0
  189.7560  176.1230  137.7240 C   0  0  1  0  0  3  0  0  0  0  0  0
  187.8990  174.9600  135.9140 C   0  0  2  0  0  3  0  0  0  0  0  0
  189.1820  175.0720  136.7470 C   0  0  1  0  0  3  0  0  0  0  0  0
  188.9940  175.8900  135.4720 C   0  0  1  0  0  3  0  0  0  0  0  0
  191.0860  176.7260  137.1920 C   0  0  0  0  0  2  0  0  0  0  0  0
  191.4030  176.1280  135.0250 C   0  0  0  0  0  2  0  0  0  0  0  0
  189.0220  178.5620  137.8070 C   0  0  0  0  0  1  0  0  0  0  0  0
  188.8960  177.1470  139.8360 C   0  0  0  0  0  1  0  0  0  0  0  0
  188.7850  177.1520  138.3260 C   0  0  0  0  0  3  0  0  0  0  0  0
  1  5  1  0  0  0  0
  2  6  2  0  0  0  0
  2  4  1  0  0  0  0
  3  5  2  0  0  0  0
  4  1  2  0  0  0  0
  5 14  1  0  0  0  0
  6  3  1  0  0  0  0
  8  7  1  1  0  0  0
  8  4  1  0  0  0  0
  8 10  1  0  0  0  0
 10  9  2  0  0  0  0
 11 10  1  0  0  0  0
 13 12  1  0  0  0  0
 13 11  1  0  0  0  0
 14 15  1  0  0  0  0
 15 20  1  0  0  0  0
 16 18  1  0  0  0  0
 16 22  1  0  0  0  0
 17 26  2  0  0  0  0
 19 22  1  0  0  0  0
 20 23  1  0  0  0  0
 21 16  2  0  0  0  0
 23 19  2  0  0  0  0
 24 20  2  0  0  0  0
 24 21  1  0  0  0  0
 25 17  1  0  0  0  0
 25 21  1  0  0  0  0
 26 27  1  0  0  0  0
 26 18  1  0  0  0  0
 27 28  1  0  0  0  0
 28 30  1  0  0  0  0
 29 28  1  0  0  0  0
 31  2  1  0  0  0  0
 32 31  1  0  0  0  0
 32 34  1  0  0  0  0
 34 33  2  0  0  0  0
 35 42  1  0  0  0  0
 35 40  1  0  0  0  0
 36 41  1  0  0  0  0
 37 45  1  6  0  0  0
 38 34  1  1  0  0  0
 38 39  1  0  0  0  0
 39 37  1  0  0  0  0
 40 38  1  0  0  0  0
 40 39  1  0  0  0  0
 41 37  1  0  0  0  0
 42 36  1  0  0  0  0
 43 45  1  0  0  0  0
 45 44  1  0  0  0  0
M  END
>  <MODEL>
4

>  <REMARK>
 VINA RESULT:      -7.9      1.077      2.140
  Name = 
  13 active torsions:
  status: ('A' for Active; 'I' for Inactive)
    1  A    between atoms: C_1  and  N_15
    2  A    between atoms: C_1  and  C_26
    3  A    between atoms: C_4  and  C_10
    4  A    between atoms: C_9  and  C_28
    5  A    between atoms: C_10  and  C_44
    6  A    between atoms: C_12  and  C_37
    7  A    between atoms: N_15  and  C_29
    8  A    between atoms: C_16  and  C_33
    9  A    between atoms: N_18  and  C_42
   10  A    between atoms: C_21  and  C_35
   11  A    between atoms: C_24  and  C_33
   12  A    between atoms: C_28  and  S_39
   13  A    between atoms: C_35  and  S_39
                            x       y       z     vdW  Elec       q    Type
                         _______ _______ _______ _____ _____    ______ ____

>  <TORSDO>
F 13

$$$$
=
 OpenBabel10222416453D

 45 49  0  0  1  0  0  0  0  0999 V2000
  183.1250  178.5290  141.0650 C   0  0  0  0  0  3  0  0  0  0  0  0
  181.1640  177.8390  139.8030 C   0  0  0  0  0  0  0  0  0  0  0  0
  181.0020  178.3210  142.1840 C   0  0  0  0  0  3  0  0  0  0  0  0
  182.5430  178.1510  139.8490 C   0  0  0  0  0  0  0  0  0  0  0  0
  182.3670  178.5980  142.2370 C   0  0  0  0  0  0  0  0  0  0  0  0
  180.4060  177.9460  140.9810 C   0  0  0  0  0  3  0  0  0  0  0  0
  182.7460  178.5770  137.4810 O   0  0  0  0  0  1  0  0  0  0  0  0
  183.4340  178.1830  138.6330 C   0  0  1  0  0  3  0  0  0  0  0  0
  184.5530  180.1300  139.4620 O   0  0  0  0  0  0  0  0  0  0  0  0
  184.6510  179.0320  138.8540 C   0  0  0  0  0  0  0  0  0  0  0  0
  185.9340  178.6040  138.3950 N   0  0  0  0  0  2  0  0  0  0  0  0
  187.1390  177.6170  136.6680 O   0  0  0  0  0  1  0  0  0  0  0  0
  186.1180  177.4060  137.5950 C   0  0  0  0  0  2  0  0  0  0  0  0
  182.9590  178.9950  143.4780 N   0  0  0  0  0  2  0  0  0  0  0  0
  184.2680  179.6320  143.5840 C   0  0  0  0  0  2  0  0  0  0  0  0
  187.5740  177.6170  145.9740 C   0  0  0  0  0  0  0  0  0  0  0  0
  189.6060  176.8450  144.1110 C   0  0  0  0  0  3  0  0  0  0  0  0
  188.8330  177.3910  146.3580 C   0  0  0  0  0  2  0  0  0  0  0  0
  185.4520  178.3150  146.9440 N   0  0  0  0  0  0  0  0  0  0  0  0
  185.1390  178.8870  144.5420 C   0  0  0  0  0  0  0  0  0  0  0  0
  187.2470  177.5100  144.5350 C   0  0  0  0  0  0  0  0  0  0  0  0
  186.6000  177.7650  147.0080 N   0  0  0  0  0  2  0  0  0  0  0  0
  184.8230  178.9650  145.8330 C   0  0  0  0  0  3  0  0  0  0  0  0
  186.1970  178.0660  143.9510 C   0  0  0  0  0  3  0  0  0  0  0  0
  188.1820  176.7440  143.6440 C   0  0  0  0  0  2  0  0  0  0  0  0
  189.9030  177.1010  145.3860 C   0  0  0  0  0  0  0  0  0  0  0  0
  191.3270  177.1250  145.8190 C   0  0  0  0  0  2  0  0  0  0  0  0
  191.5250  176.3080  147.0870 C   0  0  0  0  0  3  0  0  0  0  0  0
  192.4120  175.2610  146.8400 O   0  0  0  0  0  1  0  0  0  0  0  0
  192.0470  177.1290  148.0820 O   0  0  0  0  0  1  0  0  0  0  0  0
  180.5160  177.4190  138.5120 C   0  0  0  0  0  2  0  0  0  0  0  0
  180.3910  175.6110  138.2700 S   0  0  0  0  0  0  0  0  0  0  0  0
  180.2470  175.7250  135.6290 O   0  0  0  0  0  0  0  0  0  0  0  0
  181.0040  175.5930  136.5770 C   0  0  0  0  0  0  0  0  0  0  0  0
  184.5510  174.1340  137.3570 C   0  0  0  0  0  2  0  0  0  0  0  0
  184.3420  171.8500  136.5160 O   0  0  0  0  0  0  0  0  0  0  0  0
  182.0480  172.5580  136.0450 C   0  0  1  0  0  3  0  0  0  0  0  0
  182.4640  175.3540  136.3440 C   0  0  2  0  0  3  0  0  0  0  0  0
  182.7350  173.9280  135.8470 C   0  0  1  0  0  3  0  0  0  0  0  0
  183.0520  174.3370  137.2840 C   0  0  1  0  0  3  0  0  0  0  0  0
  182.9850  171.5510  136.7660 C   0  0  0  0  0  2  0  0  0  0  0  0
  184.7990  172.6330  137.6000 C   0  0  0  0  0  2  0  0  0  0  0  0
  180.4330  171.8240  137.8740 C   0  0  0  0  0  1  0  0  0  0  0  0
  179.6940  171.9070  135.5120 C   0  0  0  0  0  1  0  0  0  0  0  0
  180.5940  172.5490  136.5470 C   0  0  0  0  0  3  0  0  0  0  0  0
  1  5  1  0  0  0  0
  2  4  1  0  0  0  0
  2  6  2  0  0  0  0
  3  5  2  0  0  0  0
  4  1  2  0  0  0  0
  5 14  1  0  0  0  0
  6  3  1  0  0  0  0
  8  7  1  6  0  0  0
  8 10  1  0  0  0  0
  8  4  1  0  0  0  0
 10  9  2  0  0  0  0
 11 10  1  0  0  0  0
 12 13  1  0  0  0  0
 13 11  1  0  0  0  0
 14 15  1  0  0  0  0
 15 20  1  0  0  0  0
 16 18  1  0  0  0  0
 16 22  1  0  0  0  0
 17 26  2  0  0  0  0
 19 22  1  0  0  0  0
 20 23  1  0  0  0  0
 21 16  2  0  0  0  0
 23 19  2  0  0  0  0
 24 21  1  0  0  0  0
 24 20  2  0  0  0  0
 25 17  1  0  0  0  0
 25 21  1  0  0  0  0
 26 27  1  0  0  0  0
 26 18  1  0  0  0  0
 27 28  1  0  0  0  0
 28 30  1  0  0  0  0
 29 28  1  0  0  0  0
 31  2  1  0  0  0  0
 32 31  1  0  0  0  0
 33 34  2  0  0  0  0
 34 32  1  0  0  0  0
 35 42  1  0  0  0  0
 36 41  1  0  0  0  0
 36 42  1  0  0  0  0
 37 45  1  1  0  0  0
 37 41  1  0  0  0  0
 38 34  1  1  0  0  0
 38 40  1  0  0  0  0
 39 37  1  0  0  0  0
 39 38  1  0  0  0  0
 39 40  1  0  0  0  0
 40 35  1  0  0  0  0
 44 45  1  0  0  0  0
 45 43  1  0  0  0  0
M  END
>  <MODEL>
5

>  <REMARK>
 VINA RESULT:      -7.5      2.657      5.197
  Name = 
  13 active torsions:
  status: ('A' for Active; 'I' for Inactive)
    1  A    between atoms: C_1  and  N_15
    2  A    between atoms: C_1  and  C_26
    3  A    between atoms: C_4  and  C_10
    4  A    between atoms: C_9  and  C_28
    5  A    between atoms: C_10  and  C_44
    6  A    between atoms: C_12  and  C_37
    7  A    between atoms: N_15  and  C_29
    8  A    between atoms: C_16  and  C_33
    9  A    between atoms: N_18  and  C_42
   10  A    between atoms: C_21  and  C_35
   11  A    between atoms: C_24  and  C_33
   12  A    between atoms: C_28  and  S_39
   13  A    between atoms: C_35  and  S_39
                            x       y       z     vdW  Elec       q    Type
                         _______ _______ _______ _____ _____    ______ ____

>  <TORSDO>
F 13

$$$$
=
 OpenBabel10222416453D

 45 49  0  0  1  0  0  0  0  0999 V2000
  187.7650  175.6680  137.0170 C   0  0  0  0  0  3  0  0  0  0  0  0
  185.4620  176.2650  136.5170 C   0  0  0  0  0  0  0  0  0  0  0  0
  186.9780  177.8900  137.5110 C   0  0  0  0  0  3  0  0  0  0  0  0
  186.5090  175.3130  136.5110 C   0  0  0  0  0  0  0  0  0  0  0  0
  188.0010  176.9440  137.5350 C   0  0  0  0  0  0  0  0  0  0  0  0
  185.7220  177.5560  137.0070 C   0  0  0  0  0  3  0  0  0  0  0  0
  187.4010  173.6700  134.9840 O   0  0  0  0  0  1  0  0  0  0  0  0
  186.3850  173.9370  135.9070 C   0  0  1  0  0  3  0  0  0  0  0  0
  187.3620  172.4850  137.5410 O   0  0  0  0  0  0  0  0  0  0  0  0
  186.3130  172.8710  136.9590 C   0  0  0  0  0  0  0  0  0  0  0  0
  185.0620  172.2890  137.3260 N   0  0  0  0  0  2  0  0  0  0  0  0
  182.7770  171.8730  137.2040 O   0  0  0  0  0  1  0  0  0  0  0  0
  183.8230  172.5980  136.6340 C   0  0  0  0  0  2  0  0  0  0  0  0
  189.2890  177.3100  138.0420 N   0  0  0  0  0  2  0  0  0  0  0  0
  190.0740  176.4700  138.9410 C   0  0  0  0  0  2  0  0  0  0  0  0
  189.3380  177.7630  143.2410 C   0  0  0  0  0  0  0  0  0  0  0  0
  186.5010  177.8860  143.6070 C   0  0  0  0  0  3  0  0  0  0  0  0
  188.7800  177.6970  144.4530 C   0  0  0  0  0  2  0  0  0  0  0  0
  191.5510  177.6740  142.2270 N   0  0  0  0  0  0  0  0  0  0  0  0
  190.0790  177.0400  140.3220 C   0  0  0  0  0  0  0  0  0  0  0  0
  188.4500  177.8520  142.0620 C   0  0  0  0  0  0  0  0  0  0  0  0
  190.7560  177.9280  143.1900 N   0  0  0  0  0  2  0  0  0  0  0  0
  191.2580  177.1270  140.9360 C   0  0  0  0  0  3  0  0  0  0  0  0
  188.7960  177.5340  140.8240 C   0  0  0  0  0  3  0  0  0  0  0  0
  187.0330  178.3040  142.2660 C   0  0  0  0  0  2  0  0  0  0  0  0
  187.3180  177.6500  144.6360 C   0  0  0  0  0  0  0  0  0  0  0  0
  186.7460  177.3050  145.9650 C   0  0  0  0  0  2  0  0  0  0  0  0
  186.3660  178.5590  146.7370 C   0  0  0  0  0  3  0  0  0  0  0  0
  184.9880  178.5850  146.9470 O   0  0  0  0  0  1  0  0  0  0  0  0
  187.0190  178.5540  147.9670 O   0  0  0  0  0  1  0  0  0  0  0  0
  184.0990  175.9070  135.9880 C   0  0  0  0  0  2  0  0  0  0  0  0
  182.7810  177.1070  136.3950 S   0  0  0  0  0  0  0  0  0  0  0  0
  182.9180  175.4830  138.4810 O   0  0  0  0  0  0  0  0  0  0  0  0
  182.2050  176.2740  137.8840 C   0  0  0  0  0  0  0  0  0  0  0  0
  179.3320  176.6200  140.5200 C   0  0  0  0  0  2  0  0  0  0  0  0
  179.7160  178.8750  141.3760 O   0  0  0  0  0  0  0  0  0  0  0  0
  181.6270  178.8010  139.8490 C   0  0  1  0  0  3  0  0  0  0  0  0
  180.8060  176.5270  138.3540 C   0  0  2  0  0  3  0  0  0  0  0  0
  180.6740  177.8940  139.0380 C   0  0  1  0  0  3  0  0  0  0  0  0
  180.6920  176.6030  139.8520 C   0  0  1  0  0  3  0  0  0  0  0  0
  181.1210  178.9990  141.3050 C   0  0  0  0  0  2  0  0  0  0  0  0
  179.4380  177.5410  141.7500 C   0  0  0  0  0  2  0  0  0  0  0  0
  183.7860  178.1970  141.0580 C   0  0  0  0  0  1  0  0  0  0  0  0
  183.8220  179.7640  139.1410 C   0  0  0  0  0  1  0  0  0  0  0  0
  183.1380  178.5470  139.7280 C   0  0  0  0  0  3  0  0  0  0  0  0
  1  5  1  0  0  0  0
  2  6  2  0  0  0  0
  3  5  2  0  0  0  0
  4  2  1  0  0  0  0
  4  1  2  0  0  0  0
  5 14  1  0  0  0  0
  6  3  1  0  0  0  0
  8  7  1  6  0  0  0
  8  4  1  0  0  0  0
  8 10  1  0  0  0  0
 10 11  1  0  0  0  0
 10  9  2  0  0  0  0
 13 12  1  0  0  0  0
 13 11  1  0  0  0  0
 14 15  1  0  0  0  0
 15 20  1  0  0  0  0
 16 18  1  0  0  0  0
 17 26  2  0  0  0  0
 18 26  1  0  0  0  0
 19 22  1  0  0  0  0
 20 24  2  0  0  0  0
 20 23  1  0  0  0  0
 21 25  1  0  0  0  0
 21 16  2  0  0  0  0
 22 16  1  0  0  0  0
 23 19  2  0  0  0  0
 24 21  1  0  0  0  0
 25 17  1  0  0  0  0
 26 27  1  0  0  0  0
 27 28  1  0  0  0  0
 28 29  1  0  0  0  0
 28 30  1  0  0  0  0
 31 32  1  0  0  0  0
 31  2  1  0  0  0  0
 32 34  1  0  0  0  0
 34 33  2  0  0  0  0
 35 42  1  0  0  0  0
 36 42  1  0  0  0  0
 37 45  1  1  0  0  0
 37 41  1  0  0  0  0
 38 34  1  1  0  0  0
 38 39  1  0  0  0  0
 38 40  1  0  0  0  0
 39 37  1  0  0  0  0
 39 40  1  0  0  0  0
 40 35  1  0  0  0  0
 41 36  1  0  0  0  0
 44 45  1  0  0  0  0
 45 43  1  0  0  0  0
M  END
>  <MODEL>
6

>  <REMARK>
 VINA RESULT:      -7.5      3.212      6.663
  Name = 
  13 active torsions:
  status: ('A' for Active; 'I' for Inactive)
    1  A    between atoms: C_1  and  N_15
    2  A    between atoms: C_1  and  C_26
    3  A    between atoms: C_4  and  C_10
    4  A    between atoms: C_9  and  C_28
    5  A    between atoms: C_10  and  C_44
    6  A    between atoms: C_12  and  C_37
    7  A    between atoms: N_15  and  C_29
    8  A    between atoms: C_16  and  C_33
    9  A    between atoms: N_18  and  C_42
   10  A    between atoms: C_21  and  C_35
   11  A    between atoms: C_24  and  C_33
   12  A    between atoms: C_28  and  S_39
   13  A    between atoms: C_35  and  S_39
                            x       y       z     vdW  Elec       q    Type
                         _______ _______ _______ _____ _____    ______ ____

>  <TORSDO>
F 13

$$$$
=
 OpenBabel10222416453D

 45 49  0  0  1  0  0  0  0  0999 V2000
  183.4400  178.8850  141.1590 C   0  0  0  0  0  3  0  0  0  0  0  0
  182.0640  178.3450  139.2280 C   0  0  0  0  0  0  0  0  0  0  0  0
  181.1430  178.2360  141.4790 C   0  0  0  0  0  3  0  0  0  0  0  0
  183.3050  178.7550  139.7710 C   0  0  0  0  0  0  0  0  0  0  0  0
  182.3720  178.6090  142.0180 C   0  0  0  0  0  0  0  0  0  0  0  0
  180.9890  178.1050  140.0990 C   0  0  0  0  0  3  0  0  0  0  0  0
  184.5540  180.5310  138.7160 O   0  0  0  0  0  1  0  0  0  0  0  0
  184.4950  179.1510  138.9350 C   0  0  1  0  0  3  0  0  0  0  0  0
  185.9580  178.6430  140.7600 O   0  0  0  0  0  0  0  0  0  0  0  0
  185.7800  178.6380  139.5130 C   0  0  0  0  0  0  0  0  0  0  0  0
  186.8090  178.1250  138.6670 N   0  0  0  0  0  2  0  0  0  0  0  0
  187.2580  179.3890  136.7670 O   0  0  0  0  0  1  0  0  0  0  0  0
  186.7290  178.1800  137.2170 C   0  0  0  0  0  2  0  0  0  0  0  0
  182.5070  178.7530  143.4350 N   0  0  0  0  0  2  0  0  0  0  0  0
  183.4140  179.7040  144.0710 C   0  0  0  0  0  2  0  0  0  0  0  0
  187.1000  177.8370  145.9730 C   0  0  0  0  0  0  0  0  0  0  0  0
  188.9370  177.2570  143.8540 C   0  0  0  0  0  3  0  0  0  0  0  0
  188.4080  177.6810  146.1950 C   0  0  0  0  0  2  0  0  0  0  0  0
  185.0720  178.3640  147.2130 N   0  0  0  0  0  0  0  0  0  0  0  0
  184.4380  178.9880  144.8890 C   0  0  0  0  0  0  0  0  0  0  0  0
  186.6100  177.7530  144.5800 C   0  0  0  0  0  0  0  0  0  0  0  0
  186.2510  177.8880  147.1190 N   0  0  0  0  0  2  0  0  0  0  0  0
  184.2750  179.0050  146.2110 C   0  0  0  0  0  3  0  0  0  0  0  0
  185.4650  178.2570  144.1460 C   0  0  0  0  0  3  0  0  0  0  0  0
  187.4760  177.0780  143.5560 C   0  0  0  0  0  2  0  0  0  0  0  0
  189.3690  177.4920  145.0940 C   0  0  0  0  0  0  0  0  0  0  0  0
  190.8310  177.5950  145.3560 C   0  0  0  0  0  2  0  0  0  0  0  0
  191.4280  176.2300  145.6590 C   0  0  0  0  0  3  0  0  0  0  0  0
  192.0480  175.7220  144.5180 O   0  0  0  0  0  1  0  0  0  0  0  0
  192.3700  176.3590  146.6760 O   0  0  0  0  0  1  0  0  0  0  0  0
  181.8950  178.1870  137.7410 C   0  0  0  0  0  2  0  0  0  0  0  0
  182.8980  176.8530  136.9930 S   0  0  0  0  0  0  0  0  0  0  0  0
  183.0290  175.2510  139.0970 O   0  0  0  0  0  0  0  0  0  0  0  0
  182.3660  175.5500  138.1170 C   0  0  0  0  0  0  0  0  0  0  0  0
  179.7390  173.8150  135.7910 C   0  0  0  0  0  2  0  0  0  0  0  0
  180.8060  171.6600  135.3610 O   0  0  0  0  0  0  0  0  0  0  0  0
  182.6010  172.6230  136.7180 C   0  0  1  0  0  3  0  0  0  0  0  0
  181.1150  174.7920  137.7970 C   0  0  2  0  0  3  0  0  0  0  0  0
  181.4150  173.3410  137.3990 C   0  0  1  0  0  3  0  0  0  0  0  0
  181.0270  174.3820  136.3520 C   0  0  1  0  0  3  0  0  0  0  0  0
  182.1800  171.9890  135.3630 C   0  0  0  0  0  2  0  0  0  0  0  0
  180.1240  172.7400  134.7570 C   0  0  0  0  0  2  0  0  0  0  0  0
  184.5400  173.4520  135.2870 C   0  0  0  0  0  1  0  0  0  0  0  0
  184.9450  172.6310  137.5880 C   0  0  0  0  0  1  0  0  0  0  0  0
  183.9580  173.3460  136.6880 C   0  0  0  0  0  3  0  0  0  0  0  0
  1  5  1  0  0  0  0
  2  4  1  0  0  0  0
  2  6  2  0  0  0  0
  3  5  2  0  0  0  0
  4  1  2  0  0  0  0
  5 14  1  0  0  0  0
  6  3  1  0  0  0  0
  8  7  1  1  0  0  0
  8 10  1  0  0  0  0
  8  4  1  0  0  0  0
 10  9  2  0  0  0  0
 11 10  1  0  0  0  0
 12 13  1  0  0  0  0
 13 11  1  0  0  0  0
 14 15  1  0  0  0  0
 15 20  1  0  0  0  0
 16 18  1  0  0  0  0
 16 22  1  0  0  0  0
 17 26  2  0  0  0  0
 20 23  1  0  0  0  0
 21 16  2  0  0  0  0
 22 19  1  0  0  0  0
 23 19  2  0  0  0  0
 24 21  1  0  0  0  0
 24 20  2  0  0  0  0
 25 17  1  0  0  0  0
 25 21  1  0  0  0  0
 26 27  1  0  0  0  0
 26 18  1  0  0  0  0
 27 28  1  0  0  0  0
 28 30  1  0  0  0  0
 29 28  1  0  0  0  0
 31  2  1  0  0  0  0
 32 31  1  0  0  0  0
 32 34  1  0  0  0  0
 34 33  2  0  0  0  0
 35 40  1  0  0  0  0
 36 41  1  0  0  0  0
 37 45  1  6  0  0  0
 37 39  1  0  0  0  0
 38 34  1  6  0  0  0
 39 38  1  0  0  0  0
 40 39  1  0  0  0  0
 40 38  1  0  0  0  0
 41 37  1  0  0  0  0
 42 36  1  0  0  0  0
 42 35  1  0  0  0  0
 43 45  1  0  0  0  0
 45 44  1  0  0  0  0
M  END
>  <MODEL>
7

>  <REMARK>
 VINA RESULT:      -7.2      2.654      5.432
  Name = 
  13 active torsions:
  status: ('A' for Active; 'I' for Inactive)
    1  A    between atoms: C_1  and  N_15
    2  A    between atoms: C_1  and  C_26
    3  A    between atoms: C_4  and  C_10
    4  A    between atoms: C_9  and  C_28
    5  A    between atoms: C_10  and  C_44
    6  A    between atoms: C_12  and  C_37
    7  A    between atoms: N_15  and  C_29
    8  A    between atoms: C_16  and  C_33
    9  A    between atoms: N_18  and  C_42
   10  A    between atoms: C_21  and  C_35
   11  A    between atoms: C_24  and  C_33
   12  A    between atoms: C_28  and  S_39
   13  A    between atoms: C_35  and  S_39
                            x       y       z     vdW  Elec       q    Type
                         _______ _______ _______ _____ _____    ______ ____

>  <TORSDO>
F 13

$$$$
=
 OpenBabel10222416453D

 45 49  0  0  1  0  0  0  0  0999 V2000
  183.8110  178.7500  142.0570 C   0  0  0  0  0  3  0  0  0  0  0  0
  182.0810  178.7750  140.3480 C   0  0  0  0  0  0  0  0  0  0  0  0
  181.4950  178.6240  142.7060 C   0  0  0  0  0  3  0  0  0  0  0  0
  183.4500  178.8180  140.7060 C   0  0  0  0  0  0  0  0  0  0  0  0
  182.8440  178.6340  143.0590 C   0  0  0  0  0  0  0  0  0  0  0  0
  181.1170  178.6950  141.3660 C   0  0  0  0  0  3  0  0  0  0  0  0
  184.4230  180.2010  138.9830 O   0  0  0  0  0  1  0  0  0  0  0  0
  184.5680  179.0180  139.7140 C   0  0  1  0  0  3  0  0  0  0  0  0
  186.0850  179.4360  141.5190 O   0  0  0  0  0  0  0  0  0  0  0  0
  185.9150  178.9480  140.3700 C   0  0  0  0  0  0  0  0  0  0  0  0
  187.0160  178.3180  139.7140 N   0  0  0  0  0  2  0  0  0  0  0  0
  187.0270  178.8970  137.4610 O   0  0  0  0  0  1  0  0  0  0  0  0
  186.9340  177.8260  138.3490 C   0  0  0  0  0  2  0  0  0  0  0  0
  183.2130  178.5760  144.4400 N   0  0  0  0  0  2  0  0  0  0  0  0
  184.1400  179.5110  145.0710 C   0  0  0  0  0  2  0  0  0  0  0  0
  188.1400  177.4820  145.8320 C   0  0  0  0  0  0  0  0  0  0  0  0
  189.0300  176.4130  143.3300 C   0  0  0  0  0  3  0  0  0  0  0  0
  189.4260  177.2020  145.6020 C   0  0  0  0  0  2  0  0  0  0  0  0
  186.7470  178.4070  147.6030 N   0  0  0  0  0  0  0  0  0  0  0  0
  185.3450  178.7910  145.5820 C   0  0  0  0  0  0  0  0  0  0  0  0
  187.1680  177.2750  144.7370 C   0  0  0  0  0  0  0  0  0  0  0  0
  187.7760  177.7850  147.1790 N   0  0  0  0  0  2  0  0  0  0  0  0
  185.6800  179.0010  146.8540 C   0  0  0  0  0  3  0  0  0  0  0  0
  185.9790  177.8510  144.6570 C   0  0  0  0  0  3  0  0  0  0  0  0
  187.5530  176.3720  143.6010 C   0  0  0  0  0  2  0  0  0  0  0  0
  189.9010  176.7550  144.2800 C   0  0  0  0  0  0  0  0  0  0  0  0
  191.3600  176.7170  143.9890 C   0  0  0  0  0  2  0  0  0  0  0  0
  191.7620  177.8570  143.0660 C   0  0  0  0  0  3  0  0  0  0  0  0
  191.0570  177.7620  141.8660 O   0  0  0  0  0  1  0  0  0  0  0  0
  191.4630  179.0690  143.6810 O   0  0  0  0  0  1  0  0  0  0  0  0
  181.6660  178.8360  138.9030 C   0  0  0  0  0  2  0  0  0  0  0  0
  180.1880  177.8420  138.4890 S   0  0  0  0  0  0  0  0  0  0  0  0
  179.7610  177.6200  135.8860 O   0  0  0  0  0  0  0  0  0  0  0  0
  180.6100  177.5650  136.7610 C   0  0  0  0  0  0  0  0  0  0  0  0
  184.0990  175.8730  137.2990 C   0  0  0  0  0  2  0  0  0  0  0  0
  183.6520  173.5810  136.5830 O   0  0  0  0  0  0  0  0  0  0  0  0
  181.3820  174.4420  136.2800 C   0  0  1  0  0  3  0  0  0  0  0  0
  182.0230  177.2080  136.4150 C   0  0  2  0  0  3  0  0  0  0  0  0
  182.1450  175.7470  135.9620 C   0  0  1  0  0  3  0  0  0  0  0  0
  182.6180  176.1860  137.3450 C   0  0  1  0  0  3  0  0  0  0  0  0
  182.3050  173.3950  136.9620 C   0  0  0  0  0  2  0  0  0  0  0  0
  184.2590  174.3680  137.5870 C   0  0  0  0  0  2  0  0  0  0  0  0
  179.8470  173.7840  138.2040 C   0  0  0  0  0  1  0  0  0  0  0  0
  178.9340  174.0820  135.9220 C   0  0  0  0  0  1  0  0  0  0  0  0
  179.9820  174.5620  136.9040 C   0  0  0  0  0  3  0  0  0  0  0  0
  1  5  1  0  0  0  0
  2  4  1  0  0  0  0
  2  6  2  0  0  0  0
  3  5  2  0  0  0  0
  4  1  2  0  0  0  0
  5 14  1  0  0  0  0
  6  3  1  0  0  0  0
  8  7  1  1  0  0  0
  8 10  1  0  0  0  0
  8  4  1  0  0  0  0
 10  9  2  0  0  0  0
 11 10  1  0  0  0  0
 12 13  1  0  0  0  0
 13 11  1  0  0  0  0
 14 15  1  0  0  0  0
 15 20  1  0  0  0  0
 16 22  1  0  0  0  0
 17 25  1  0  0  0  0
 17 26  2  0  0  0  0
 18 16  1  0  0  0  0
 20 23  1  0  0  0  0
 21 16  2  0  0  0  0
 22 19  1  0  0  0  0
 23 19  2  0  0  0  0
 24 21  1  0  0  0  0
 24 20  2  0  0  0  0
 25 21  1  0  0  0  0
 26 18  1  0  0  0  0
 27 26  1  0  0  0  0
 28 30  1  0  0  0  0
 28 27  1  0  0  0  0
 29 28  1  0  0  0  0
 31  2  1  0  0  0  0
 32 31  1  0  0  0  0
 33 34  2  0  0  0  0
 34 32  1  0  0  0  0
 35 40  1  0  0  0  0
 35 42  1  0  0  0  0
 36 41  1  0  0  0  0
 36 42  1  0  0  0  0
 37 45  1  1  0  0  0
 37 41  1  0  0  0  0
 38 34  1  1  0  0  0
 38 40  1  0  0  0  0
 39 37  1  0  0  0  0
 39 38  1  0  0  0  0
 39 40  1  0  0  0  0
 44 45  1  0  0  0  0
 45 43  1  0  0  0  0
M  END
>  <MODEL>
8

>  <REMARK>
 VINA RESULT:      -7.1      2.798      5.484
  Name = 
  13 active torsions:
  status: ('A' for Active; 'I' for Inactive)
    1  A    between atoms: C_1  and  N_15
    2  A    between atoms: C_1  and  C_26
    3  A    between atoms: C_4  and  C_10
    4  A    between atoms: C_9  and  C_28
    5  A    between atoms: C_10  and  C_44
    6  A    between atoms: C_12  and  C_37
    7  A    between atoms: N_15  and  C_29
    8  A    between atoms: C_16  and  C_33
    9  A    between atoms: N_18  and  C_42
   10  A    between atoms: C_21  and  C_35
   11  A    between atoms: C_24  and  C_33
   12  A    between atoms: C_28  and  S_39
   13  A    between atoms: C_35  and  S_39
                            x       y       z     vdW  Elec       q    Type
                         _______ _______ _______ _____ _____    ______ ____

>  <TORSDO>
F 13

$$$$
=
 OpenBabel10222416453D

 45 49  0  0  1  0  0  0  0  0999 V2000
  186.3950  177.9070  143.8050 C   0  0  0  0  0  3  0  0  0  0  0  0
  187.5530  178.5380  141.7630 C   0  0  0  0  0  0  0  0  0  0  0  0
  185.1650  178.9390  142.0110 C   0  0  0  0  0  3  0  0  0  0  0  0
  187.5810  177.9830  143.0640 C   0  0  0  0  0  0  0  0  0  0  0  0
  185.1840  178.3640  143.2800 C   0  0  0  0  0  0  0  0  0  0  0  0
  186.3360  179.0270  141.2600 C   0  0  0  0  0  3  0  0  0  0  0  0
  188.7600  177.6570  145.1450 O   0  0  0  0  0  1  0  0  0  0  0  0
  188.8420  177.5320  143.7550 C   0  0  1  0  0  3  0  0  0  0  0  0
  188.3440  175.2530  143.2180 O   0  0  0  0  0  0  0  0  0  0  0  0
  189.2290  176.1380  143.3580 C   0  0  0  0  0  0  0  0  0  0  0  0
  190.5950  175.7980  143.1190 N   0  0  0  0  0  2  0  0  0  0  0  0
  191.8580  177.5430  142.2420 O   0  0  0  0  0  1  0  0  0  0  0  0
  191.6850  176.7270  143.3600 C   0  0  0  0  0  2  0  0  0  0  0  0
  183.9750  178.2970  144.0430 N   0  0  0  0  0  2  0  0  0  0  0  0
  182.9730  179.3580  144.0680 C   0  0  0  0  0  2  0  0  0  0  0  0
  179.8400  177.6980  141.2170 C   0  0  0  0  0  0  0  0  0  0  0  0
  181.0680  177.5070  138.6380 C   0  0  0  0  0  3  0  0  0  0  0  0
  179.3670  176.8840  140.2690 C   0  0  0  0  0  2  0  0  0  0  0  0
  179.3650  178.3030  143.5280 N   0  0  0  0  0  0  0  0  0  0  0  0
  181.7570  178.9510  143.3010 C   0  0  0  0  0  0  0  0  0  0  0  0
  181.0620  178.4780  140.9280 C   0  0  0  0  0  0  0  0  0  0  0  0
  179.0220  177.8890  142.3720 N   0  0  0  0  0  2  0  0  0  0  0  0
  180.6640  178.6660  144.0070 C   0  0  0  0  0  3  0  0  0  0  0  0
  181.8640  179.0020  141.8420 C   0  0  0  0  0  3  0  0  0  0  0  0
  181.4620  178.6760  139.4940 C   0  0  0  0  0  2  0  0  0  0  0  0
  180.0600  176.7030  138.9810 C   0  0  0  0  0  0  0  0  0  0  0  0
  179.6580  175.5970  138.0690 C   0  0  0  0  0  2  0  0  0  0  0  0
  180.4300  174.3250  138.3830 C   0  0  0  0  0  3  0  0  0  0  0  0
  179.5760  173.2250  138.3090 O   0  0  0  0  0  1  0  0  0  0  0  0
  181.4570  174.1730  137.4560 O   0  0  0  0  0  1  0  0  0  0  0  0
  188.8110  178.6220  140.9400 C   0  0  0  0  0  2  0  0  0  0  0  0
  189.0450  177.2470  139.7570 S   0  0  0  0  0  0  0  0  0  0  0  0
  188.6230  178.9960  137.8150 O   0  0  0  0  0  0  0  0  0  0  0  0
  188.1700  178.0140  138.3830 C   0  0  0  0  0  0  0  0  0  0  0  0
  185.2670  177.1500  135.9040 C   0  0  0  0  0  2  0  0  0  0  0  0
  186.1090  175.1140  134.8490 O   0  0  0  0  0  0  0  0  0  0  0  0
  188.0590  175.5520  136.2610 C   0  0  1  0  0  3  0  0  0  0  0  0
  186.8390  177.4600  137.9790 C   0  0  2  0  0  3  0  0  0  0  0  0
  186.9830  176.1480  137.1970 C   0  0  1  0  0  3  0  0  0  0  0  0
  186.6310  177.4540  136.4890 C   0  0  1  0  0  3  0  0  0  0  0  0
  187.5040  175.3300  134.8270 C   0  0  0  0  0  2  0  0  0  0  0  0
  185.4930  176.3610  134.6000 C   0  0  0  0  0  2  0  0  0  0  0  0
  189.9430  176.6700  134.9600 C   0  0  0  0  0  1  0  0  0  0  0  0
  190.4560  175.1300  136.8300 C   0  0  0  0  0  1  0  0  0  0  0  0
  189.4720  176.1570  136.3120 C   0  0  0  0  0  3  0  0  0  0  0  0
  2  4  1  0  0  0  0
  3  5  2  0  0  0  0
  4  8  1  0  0  0  0
  4  1  2  0  0  0  0
  5  1  1  0  0  0  0
  5 14  1  0  0  0  0
  6  2  2  0  0  0  0
  6  3  1  0  0  0  0
  8  7  1  1  0  0  0
  9 10  2  0  0  0  0
 10  8  1  0  0  0  0
 11 10  1  0  0  0  0
 11 13  1  0  0  0  0
 12 13  1  0  0  0  0
 14 15  1  0  0  0  0
 16 22  1  0  0  0  0
 17 26  2  0  0  0  0
 17 25  1  0  0  0  0
 18 16  1  0  0  0  0
 19 23  2  0  0  0  0
 20 23  1  0  0  0  0
 20 15  1  0  0  0  0
 21 16  2  0  0  0  0
 21 24  1  0  0  0  0
 22 19  1  0  0  0  0
 24 20  2  0  0  0  0
 25 21  1  0  0  0  0
 26 18  1  0  0  0  0
 27 28  1  0  0  0  0
 27 26  1  0  0  0  0
 29 28  1  0  0  0  0
 30 28  1  0  0  0  0
 31  2  1  0  0  0  0
 32 31  1  0  0  0  0
 33 34  2  0  0  0  0
 34 32  1  0  0  0  0
 35 40  1  0  0  0  0
 37 45  1  6  0  0  0
 37 39  1  0  0  0  0
 38 34  1  6  0  0  0
 39 38  1  0  0  0  0
 40 39  1  0  0  0  0
 40 38  1  0  0  0  0
 41 36  1  0  0  0  0
 41 37  1  0  0  0  0
 42 36  1  0  0  0  0
 42 35  1  0  0  0  0
 43 45  1  0  0  0  0
 45 44  1  0  0  0  0
M  END
>  <MODEL>
9

>  <REMARK>
 VINA RESULT:      -7.1      2.521      7.780
  Name = 
  13 active torsions:
  status: ('A' for Active; 'I' for Inactive)
    1  A    between atoms: C_1  and  N_15
    2  A    between atoms: C_1  and  C_26
    3  A    between atoms: C_4  and  C_10
    4  A    between atoms: C_9  and  C_28
    5  A    between atoms: C_10  and  C_44
    6  A    between atoms: C_12  and  C_37
    7  A    between atoms: N_15  and  C_29
    8  A    between atoms: C_16  and  C_33
    9  A    between atoms: N_18  and  C_42
   10  A    between atoms: C_21  and  C_35
   11  A    between atoms: C_24  and  C_33
   12  A    between atoms: C_28  and  S_39
   13  A    between atoms: C_35  and  S_39
                            x       y       z     vdW  Elec       q    Type
                         _______ _______ _______ _____ _____    ______ ____

>  <TORSDO>
F 13

$$$$
