=
 OpenBabel10222417083D

 25 28  0  0  1  0  0  0  0  0999 V2000
  187.9010  177.9560  145.8770 C   0  0  0  0  0  0  0  0  0  0  0  0
  186.0100  178.1950  144.3280 C   0  0  0  0  0  0  0  0  0  0  0  0
  188.7160  177.6200  144.7930 C   0  0  0  0  0  3  0  0  0  0  0  0
  186.5300  178.2480  145.6440 C   0  0  0  0  0  0  0  0  0  0  0  0
  188.2110  177.5670  143.4910 C   0  0  0  0  0  0  0  0  0  0  0  0
  185.6940  178.5920  146.7030 O   0  0  0  0  0  1  0  0  0  0  0  0
  186.8640  177.8550  143.2720 C   0  0  0  0  0  3  0  0  0  0  0  0
  190.4160  177.2520  139.2490 O   0  0  0  0  0  0  0  0  0  0  0  0
  190.0890  176.2010  142.4230 N   0  0  0  0  0  0  0  0  0  0  0  0
  190.0760  177.0670  140.4450 C   0  0  0  0  0  0  0  0  0  0  0  0
  189.0280  177.7830  141.1490 C   0  0  0  0  0  3  0  0  0  0  0  0
  190.6770  176.1130  141.3010 N   0  0  0  0  0  0  0  0  0  0  0  0
  189.0790  177.2130  142.3550 C   0  0  0  0  0  0  0  0  0  0  0  0
  188.5900  177.9590  147.2250 C   0  0  2  0  0  3  0  0  0  0  0  0
  189.7490  177.0210  147.2570 N   0  0  0  0  0  0  0  0  0  0  0  0
  191.6020  175.4010  147.3550 N   0  0  0  0  0  1  0  0  0  0  0  0
  191.0730  176.6410  146.9030 C   0  0  0  0  0  0  0  0  0  0  0  0
  188.4350  176.7830  147.9320 C   0  0  0  0  0  2  0  0  0  0  0  0
  191.7750  177.4000  146.1870 O   0  0  0  0  0  0  0  0  0  0  0  0
  182.3510  178.9890  144.3640 N   0  0  0  0  0  0  0  0  0  0  0  0
  182.3870  178.9070  143.0180 C   0  0  0  0  0  0  0  0  0  0  0  0
  183.9270  178.5440  142.4620 S   0  0  0  0  0  0  0  0  0  0  0  0
  183.5680  178.7560  144.9260 C   0  0  0  0  0  3  0  0  0  0  0  0
  180.9910  179.1530  141.9930 Cl  0  0  0  0  0  0  0  0  0  0  0  0
  184.5890  178.4860  144.0140 C   0  0  0  0  0  0  0  0  0  0  0  0
  2  4  2  0  0  0  0
  3  1  2  0  0  0  0
  4  1  1  0  0  0  0
  4  6  1  0  0  0  0
  5  3  1  0  0  0  0
  7  5  2  0  0  0  0
  7  2  1  0  0  0  0
  8 10  2  0  0  0  0
 10 11  1  0  0  0  0
 10 12  1  0  0  0  0
 11 13  2  0  0  0  0
 12  9  2  0  0  0  0
 13  9  1  0  0  0  0
 13  5  1  0  0  0  0
 14  1  1  6  0  0  0
 14 15  1  0  0  0  0
 14 18  1  0  0  0  0
 15 18  1  0  0  0  0
 17 15  1  0  0  0  0
 17 16  1  0  0  0  0
 19 17  2  0  0  0  0
 20 23  1  0  0  0  0
 21 20  2  0  0  0  0
 22 21  1  0  0  0  0
 22 25  1  0  0  0  0
 24 21  1  0  0  0  0
 25  2  1  0  0  0  0
 25 23  2  0  0  0  0
M  END
>  <MODEL>
1

>  <REMARK>
 VINA RESULT:      -9.4      0.000      0.000
  Name = 
  3 active torsions:
  status: ('A' for Active; 'I' for Inactive)
    1  A    between atoms: C_3  and  C_4
    2  A    between atoms: C_6  and  C_21
    3  A    between atoms: C_17  and  C_23
                            x       y       z     vdW  Elec       q    Type
                         _______ _______ _______ _____ _____    ______ ____

>  <TORSDO>
F 3

$$$$
=
 OpenBabel10222417083D

 25 28  0  0  1  0  0  0  0  0999 V2000
  189.9950  177.5510  141.0120 C   0  0  0  0  0  0  0  0  0  0  0  0
  189.6810  177.4050  143.4440 C   0  0  0  0  0  0  0  0  0  0  0  0
  188.6550  177.9250  140.8850 C   0  0  0  0  0  3  0  0  0  0  0  0
  190.5170  177.2880  142.3070 C   0  0  0  0  0  0  0  0  0  0  0  0
  187.8230  178.0450  142.0010 C   0  0  0  0  0  0  0  0  0  0  0  0
  191.8500  176.9190  142.4660 O   0  0  0  0  0  1  0  0  0  0  0  0
  188.3440  177.7830  143.2690 C   0  0  0  0  0  3  0  0  0  0  0  0
  183.1210  178.7790  142.5620 O   0  0  0  0  0  0  0  0  0  0  0  0
  185.9130  179.1800  140.7370 N   0  0  0  0  0  0  0  0  0  0  0  0
  184.2920  178.7750  142.1050 C   0  0  0  0  0  0  0  0  0  0  0  0
  185.4470  178.1620  142.7360 C   0  0  0  0  0  2  0  0  0  0  0  0
  184.6680  179.3780  140.8810 N   0  0  0  0  0  2  0  0  0  0  0  0
  186.4110  178.4410  141.8570 C   0  0  0  0  0  0  0  0  0  0  0  0
  190.7640  177.4540  139.7120 C   0  0  2  0  0  3  0  0  0  0  0  0
  189.8730  177.6290  138.5280 N   0  0  0  0  0  0  0  0  0  0  0  0
  188.3970  177.8140  136.5630 N   0  0  0  0  0  1  0  0  0  0  0  0
  189.0700  178.4190  137.6600 C   0  0  0  0  0  0  0  0  0  0  0  0
  190.4630  176.3280  138.9710 C   0  0  0  0  0  2  0  0  0  0  0  0
  188.9500  179.6540  137.8660 O   0  0  0  0  0  0  0  0  0  0  0  0
  190.1720  177.1070  147.1430 N   0  0  0  0  0  0  0  0  0  0  0  0
  191.3500  176.5110  146.8730 C   0  0  0  0  0  0  0  0  0  0  0  0
  191.6200  176.3950  145.2220 S   0  0  0  0  0  0  0  0  0  0  0  0
  189.5030  177.4610  146.0130 C   0  0  0  0  0  3  0  0  0  0  0  0
  192.4520  175.9350  148.1040 Cl  0  0  0  0  0  0  0  0  0  0  0  0
  190.1600  177.1430  144.8240 C   0  0  0  0  0  0  0  0  0  0  0  0
  1  4  1  0  0  0  0
  2 25  1  0  0  0  0
  3  1  2  0  0  0  0
  3  5  1  0  0  0  0
  4  6  1  0  0  0  0
  4  2  2  0  0  0  0
  5  7  2  0  0  0  0
  7  2  1  0  0  0  0
  9 12  1  0  0  0  0
  9 13  2  0  0  0  0
 10  8  2  0  0  0  0
 10 11  1  0  0  0  0
 12 10  1  0  0  0  0
 13  5  1  0  0  0  0
 13 11  1  0  0  0  0
 14  1  1  1  0  0  0
 15 18  1  0  0  0  0
 15 14  1  0  0  0  0
 16 17  1  0  0  0  0
 17 19  2  0  0  0  0
 17 15  1  0  0  0  0
 18 14  1  0  0  0  0
 21 20  2  0  0  0  0
 21 24  1  0  0  0  0
 22 21  1  0  0  0  0
 23 20  1  0  0  0  0
 25 22  1  0  0  0  0
 25 23  2  0  0  0  0
M  END
>  <MODEL>
2

>  <REMARK>
 VINA RESULT:      -9.0      4.081      7.434
  Name = 
  3 active torsions:
  status: ('A' for Active; 'I' for Inactive)
    1  A    between atoms: C_3  and  C_4
    2  A    between atoms: C_6  and  C_21
    3  A    between atoms: C_17  and  C_23
                            x       y       z     vdW  Elec       q    Type
                         _______ _______ _______ _____ _____    ______ ____

>  <TORSDO>
F 3

$$$$
=
 OpenBabel10222417083D

 25 28  0  0  1  0  0  0  0  0999 V2000
  188.3150  178.3240  140.7390 C   0  0  0  0  0  0  0  0  0  0  0  0
  186.7310  178.2820  142.6160 C   0  0  0  0  0  0  0  0  0  0  0  0
  189.3050  177.8330  141.5940 C   0  0  0  0  0  3  0  0  0  0  0  0
  187.0100  178.5510  141.2540 C   0  0  0  0  0  0  0  0  0  0  0  0
  189.0370  177.5630  142.9390 C   0  0  0  0  0  0  0  0  0  0  0  0
  186.0010  179.0340  140.4250 O   0  0  0  0  0  1  0  0  0  0  0  0
  187.7540  177.7910  143.4360 C   0  0  0  0  0  3  0  0  0  0  0  0
  192.0100  176.6700  146.5900 O   0  0  0  0  0  0  0  0  0  0  0  0
  190.9990  176.0080  143.4550 N   0  0  0  0  0  0  0  0  0  0  0  0
  191.4300  176.6380  145.4750 C   0  0  0  0  0  0  0  0  0  0  0  0
  190.3120  177.4730  145.0760 C   0  0  0  0  0  2  0  0  0  0  0  0
  191.7890  175.7660  144.4190 N   0  0  0  0  0  2  0  0  0  0  0  0
  190.0880  177.0450  143.8320 C   0  0  0  0  0  0  0  0  0  0  0  0
  188.7610  178.5770  139.3150 C   0  0  2  0  0  3  0  0  0  0  0  0
  188.3190  177.4890  138.3950 N   0  0  0  0  0  0  0  0  0  0  0  0
  187.6840  175.6490  136.8850 N   0  0  0  0  0  1  0  0  0  0  0  0
  187.3260  176.7890  137.6550 C   0  0  0  0  0  0  0  0  0  0  0  0
  189.7230  177.6940  138.8680 C   0  0  0  0  0  2  0  0  0  0  0  0
  186.1300  177.1760  137.6870 O   0  0  0  0  0  0  0  0  0  0  0  0
  183.7960  178.9990  144.8260 N   0  0  0  0  0  0  0  0  0  0  0  0
  183.0130  178.7390  143.7600 C   0  0  0  0  0  0  0  0  0  0  0  0
  183.9210  178.3350  142.4090 S   0  0  0  0  0  0  0  0  0  0  0  0
  185.1180  178.8690  144.5360 C   0  0  0  0  0  3  0  0  0  0  0  0
  181.2650  178.8160  143.7970 Cl  0  0  0  0  0  0  0  0  0  0  0  0
  185.3930  178.4990  143.2200 C   0  0  0  0  0  0  0  0  0  0  0  0
  1  4  2  0  0  0  0
  1  3  1  0  0  0  0
  2 25  1  0  0  0  0
  2  7  2  0  0  0  0
  3  5  2  0  0  0  0
  4  2  1  0  0  0  0
  5  7  1  0  0  0  0
  5 13  1  0  0  0  0
  6  4  1  0  0  0  0
  9 13  2  0  0  0  0
  9 12  1  0  0  0  0
 10  8  2  0  0  0  0
 11 10  1  0  0  0  0
 12 10  1  0  0  0  0
 13 11  1  0  0  0  0
 14  1  1  1  0  0  0
 15 18  1  0  0  0  0
 15 14  1  0  0  0  0
 16 17  1  0  0  0  0
 17 19  2  0  0  0  0
 17 15  1  0  0  0  0
 18 14  1  0  0  0  0
 21 24  1  0  0  0  0
 21 20  2  0  0  0  0
 22 25  1  0  0  0  0
 22 21  1  0  0  0  0
 23 20  1  0  0  0  0
 25 23  2  0  0  0  0
M  END
>  <MODEL>
3

>  <REMARK>
 VINA RESULT:      -8.9      2.413      5.611
  Name = 
  3 active torsions:
  status: ('A' for Active; 'I' for Inactive)
    1  A    between atoms: C_3  and  C_4
    2  A    between atoms: C_6  and  C_21
    3  A    between atoms: C_17  and  C_23
                            x       y       z     vdW  Elec       q    Type
                         _______ _______ _______ _____ _____    ______ ____

>  <TORSDO>
F 3

$$$$
=
 OpenBabel10222417083D

 25 28  0  0  1  0  0  0  0  0999 V2000
  188.6490  178.0070  140.8920 C   0  0  0  0  0  0  0  0  0  0  0  0
  189.3080  177.2690  143.1410 C   0  0  0  0  0  0  0  0  0  0  0  0
  187.3660  178.2660  141.3780 C   0  0  0  0  0  3  0  0  0  0  0  0
  189.6350  177.5030  141.7830 C   0  0  0  0  0  0  0  0  0  0  0  0
  187.0350  178.0390  142.7170 C   0  0  0  0  0  0  0  0  0  0  0  0
  190.9250  177.2410  141.3300 O   0  0  0  0  0  1  0  0  0  0  0  0
  188.0080  177.5440  143.5840 C   0  0  0  0  0  3  0  0  0  0  0  0
  183.1740  179.0030  145.3880 O   0  0  0  0  0  0  0  0  0  0  0  0
  184.5230  178.3720  142.3760 N   0  0  0  0  0  0  0  0  0  0  0  0
  183.9350  178.7510  144.4190 C   0  0  0  0  0  0  0  0  0  0  0  0
  185.3690  178.5440  144.4980 C   0  0  0  0  0  3  0  0  0  0  0  0
  183.4970  178.6280  143.0780 N   0  0  0  0  0  0  0  0  0  0  0  0
  185.6770  178.3160  143.2200 C   0  0  0  0  0  0  0  0  0  0  0  0
  188.8510  178.2910  139.4190 C   0  0  2  0  0  3  0  0  0  0  0  0
  187.6690  177.8770  138.6090 N   0  0  0  0  0  0  0  0  0  0  0  0
  185.7650  177.1050  137.2480 N   0  0  0  0  0  1  0  0  0  0  0  0
  186.3280  178.0370  138.1620 C   0  0  0  0  0  0  0  0  0  0  0  0
  188.9780  177.1540  138.6450 C   0  0  0  0  0  2  0  0  0  0  0  0
  185.6380  179.0030  138.5790 O   0  0  0  0  0  0  0  0  0  0  0  0
  192.0550  175.5030  144.9690 N   0  0  0  0  0  0  0  0  0  0  0  0
  191.6630  176.1720  146.0720 C   0  0  0  0  0  0  0  0  0  0  0  0
  190.3610  177.1790  145.7530 S   0  0  0  0  0  0  0  0  0  0  0  0
  191.2970  175.8120  143.8830 C   0  0  0  0  0  3  0  0  0  0  0  0
  192.4300  176.0010  147.6350 Cl  0  0  0  0  0  0  0  0  0  0  0  0
  190.2860  176.7420  144.1240 C   0  0  0  0  0  0  0  0  0  0  0  0
  1  3  2  0  0  0  0
  1  4  1  0  0  0  0
  2  7  1  0  0  0  0
  2 25  1  0  0  0  0
  3  5  1  0  0  0  0
  4  2  2  0  0  0  0
  5 13  1  0  0  0  0
  5  7  2  0  0  0  0
  6  4  1  0  0  0  0
  9 12  2  0  0  0  0
  9 13  1  0  0  0  0
 10 11  1  0  0  0  0
 10  8  2  0  0  0  0
 12 10  1  0  0  0  0
 13 11  2  0  0  0  0
 14  1  1  1  0  0  0
 15 18  1  0  0  0  0
 15 14  1  0  0  0  0
 16 17  1  0  0  0  0
 17 19  2  0  0  0  0
 17 15  1  0  0  0  0
 18 14  1  0  0  0  0
 20 21  2  0  0  0  0
 21 24  1  0  0  0  0
 22 21  1  0  0  0  0
 23 25  2  0  0  0  0
 23 20  1  0  0  0  0
 25 22  1  0  0  0  0
M  END
>  <MODEL>
4

>  <REMARK>
 VINA RESULT:      -8.8      3.952      7.826
  Name = 
  3 active torsions:
  status: ('A' for Active; 'I' for Inactive)
    1  A    between atoms: C_3  and  C_4
    2  A    between atoms: C_6  and  C_21
    3  A    between atoms: C_17  and  C_23
                            x       y       z     vdW  Elec       q    Type
                         _______ _______ _______ _____ _____    ______ ____

>  <TORSDO>
F 3

$$$$
=
 OpenBabel10222417083D

 25 28  0  0  1  0  0  0  0  0999 V2000
  189.2520  176.9360  144.4060 C   0  0  0  0  0  0  0  0  0  0  0  0
  188.7240  177.4380  142.0600 C   0  0  0  0  0  0  0  0  0  0  0  0
  187.9670  177.3540  144.7610 C   0  0  0  0  0  3  0  0  0  0  0  0
  189.6380  176.9770  143.0390 C   0  0  0  0  0  0  0  0  0  0  0  0
  187.0590  177.8090  143.8010 C   0  0  0  0  0  0  0  0  0  0  0  0
  190.9090  176.5600  142.6540 O   0  0  0  0  0  1  0  0  0  0  0  0
  187.4460  177.8470  142.4610 C   0  0  0  0  0  3  0  0  0  0  0  0
  182.4220  179.0110  143.9210 O   0  0  0  0  0  0  0  0  0  0  0  0
  185.3610  178.6660  145.5090 N   0  0  0  0  0  0  0  0  0  0  0  0
  183.6160  178.7900  144.2450 C   0  0  0  0  0  0  0  0  0  0  0  0
  184.6590  178.3050  143.3590 C   0  0  0  0  0  3  0  0  0  0  0  0
  184.1340  178.9850  145.5470 N   0  0  0  0  0  0  0  0  0  0  0  0
  185.7050  178.2470  144.1850 C   0  0  0  0  0  0  0  0  0  0  0  0
  190.1230  176.4820  145.5570 C   0  0  2  0  0  3  0  0  0  0  0  0
  189.8210  177.2330  146.8100 N   0  0  0  0  0  0  0  0  0  0  0  0
  189.4010  178.5360  148.8590 N   0  0  0  0  0  1  0  0  0  0  0  0
  188.9980  177.5380  147.9300 C   0  0  0  0  0  0  0  0  0  0  0  0
  191.0410  177.4280  145.9680 C   0  0  0  0  0  2  0  0  0  0  0  0
  187.9100  176.9280  148.0960 O   0  0  0  0  0  0  0  0  0  0  0  0
  190.2490  177.1870  138.6500 N   0  0  0  0  0  0  0  0  0  0  0  0
  189.1870  177.8830  138.1960 C   0  0  0  0  0  0  0  0  0  0  0  0
  188.1240  178.2670  139.4340 S   0  0  0  0  0  0  0  0  0  0  0  0
  190.1880  176.9750  139.9930 C   0  0  0  0  0  3  0  0  0  0  0  0
  188.9610  178.3230  136.5170 Cl  0  0  0  0  0  0  0  0  0  0  0  0
  189.0610  177.5090  140.6170 C   0  0  0  0  0  0  0  0  0  0  0  0
  1  3  1  0  0  0  0
  2  7  2  0  0  0  0
  2  4  1  0  0  0  0
  4  1  2  0  0  0  0
  5 13  1  0  0  0  0
  5  3  2  0  0  0  0
  6  4  1  0  0  0  0
  7  5  1  0  0  0  0
  8 10  2  0  0  0  0
  9 12  2  0  0  0  0
 10 12  1  0  0  0  0
 11 13  2  0  0  0  0
 11 10  1  0  0  0  0
 13  9  1  0  0  0  0
 14  1  1  6  0  0  0
 14 18  1  0  0  0  0
 14 15  1  0  0  0  0
 15 17  1  0  0  0  0
 17 19  2  0  0  0  0
 17 16  1  0  0  0  0
 18 15  1  0  0  0  0
 20 23  1  0  0  0  0
 21 20  2  0  0  0  0
 21 22  1  0  0  0  0
 22 25  1  0  0  0  0
 23 25  2  0  0  0  0
 24 21  1  0  0  0  0
 25  2  1  0  0  0  0
M  END
>  <MODEL>
5

>  <REMARK>
 VINA RESULT:      -8.8      2.881      5.784
  Name = 
  3 active torsions:
  status: ('A' for Active; 'I' for Inactive)
    1  A    between atoms: C_3  and  C_4
    2  A    between atoms: C_6  and  C_21
    3  A    between atoms: C_17  and  C_23
                            x       y       z     vdW  Elec       q    Type
                         _______ _______ _______ _____ _____    ______ ____

>  <TORSDO>
F 3

$$$$
=
 OpenBabel10222417083D

 25 28  0  0  1  0  0  0  0  0999 V2000
  187.8580  177.3530  144.4500 C   0  0  0  0  0  0  0  0  0  0  0  0
  189.0580  177.5160  142.3130 C   0  0  0  0  0  0  0  0  0  0  0  0
  186.6980  177.7900  143.8060 C   0  0  0  0  0  3  0  0  0  0  0  0
  189.0550  177.2120  143.6960 C   0  0  0  0  0  0  0  0  0  0  0  0
  186.6930  178.0900  142.4410 C   0  0  0  0  0  0  0  0  0  0  0  0
  190.2250  176.7730  144.3080 O   0  0  0  0  0  1  0  0  0  0  0  0
  187.8720  177.9500  141.7090 C   0  0  0  0  0  3  0  0  0  0  0  0
  182.1730  178.9700  141.1150 O   0  0  0  0  0  0  0  0  0  0  0  0
  185.4680  179.3780  140.6040 N   0  0  0  0  0  0  0  0  0  0  0  0
  183.4290  178.9500  141.1690 C   0  0  0  0  0  0  0  0  0  0  0  0
  184.2240  178.2530  142.1640 C   0  0  0  0  0  3  0  0  0  0  0  0
  184.2730  179.6150  140.2480 N   0  0  0  0  0  0  0  0  0  0  0  0
  185.4640  178.5490  141.7710 C   0  0  0  0  0  0  0  0  0  0  0  0
  187.7100  177.0790  145.9310 C   0  0  2  0  0  3  0  0  0  0  0  0
  187.0500  178.2140  146.6400 N   0  0  0  0  0  0  0  0  0  0  0  0
  186.0560  180.1230  147.8390 N   0  0  0  0  0  1  0  0  0  0  0  0
  185.9170  179.0100  146.9660 C   0  0  0  0  0  0  0  0  0  0  0  0
  188.5060  177.8790  146.7280 C   0  0  0  0  0  2  0  0  0  0  0  0
  184.7920  178.7300  146.4780 O   0  0  0  0  0  0  0  0  0  0  0  0
  192.5140  177.4350  140.8760 N   0  0  0  0  0  0  0  0  0  0  0  0
  191.9490  177.0680  139.7080 C   0  0  0  0  0  0  0  0  0  0  0  0
  190.2810  176.9530  139.8370 S   0  0  0  0  0  0  0  0  0  0  0  0
  191.5910  177.6190  141.8580 C   0  0  0  0  0  3  0  0  0  0  0  0
  192.8580  176.7530  138.2460 Cl  0  0  0  0  0  0  0  0  0  0  0  0
  190.2710  177.3940  141.4660 C   0  0  0  0  0  0  0  0  0  0  0  0
  2  4  1  0  0  0  0
  3  1  1  0  0  0  0
  4  6  1  0  0  0  0
  4  1  2  0  0  0  0
  5  3  2  0  0  0  0
  7  2  2  0  0  0  0
  7  5  1  0  0  0  0
  8 10  2  0  0  0  0
  9 13  1  0  0  0  0
 10 11  1  0  0  0  0
 12  9  2  0  0  0  0
 12 10  1  0  0  0  0
 13 11  2  0  0  0  0
 13  5  1  0  0  0  0
 14  1  1  6  0  0  0
 14 15  1  0  0  0  0
 14 18  1  0  0  0  0
 15 18  1  0  0  0  0
 15 17  1  0  0  0  0
 17 16  1  0  0  0  0
 19 17  2  0  0  0  0
 20 23  1  0  0  0  0
 21 22  1  0  0  0  0
 21 20  2  0  0  0  0
 22 25  1  0  0  0  0
 24 21  1  0  0  0  0
 25 23  2  0  0  0  0
 25  2  1  0  0  0  0
M  END
>  <MODEL>
6

>  <REMARK>
 VINA RESULT:      -8.7      3.876      6.390
  Name = 
  3 active torsions:
  status: ('A' for Active; 'I' for Inactive)
    1  A    between atoms: C_3  and  C_4
    2  A    between atoms: C_6  and  C_21
    3  A    between atoms: C_17  and  C_23
                            x       y       z     vdW  Elec       q    Type
                         _______ _______ _______ _____ _____    ______ ____

>  <TORSDO>
F 3

$$$$
=
 OpenBabel10222417083D

 25 28  0  0  1  0  0  0  0  0999 V2000
  189.4030  177.9000  141.2230 C   0  0  0  0  0  0  0  0  0  0  0  0
  187.2640  178.0530  142.4230 C   0  0  0  0  0  0  0  0  0  0  0  0
  190.0270  177.5630  142.4260 C   0  0  0  0  0  3  0  0  0  0  0  0
  188.0030  178.1480  141.2180 C   0  0  0  0  0  0  0  0  0  0  0  0
  189.3050  177.4660  143.6190 C   0  0  0  0  0  0  0  0  0  0  0  0
  187.3510  178.4800  140.0340 O   0  0  0  0  0  1  0  0  0  0  0  0
  187.9320  177.7120  143.6050 C   0  0  0  0  0  3  0  0  0  0  0  0
  192.4150  176.1870  147.0330 O   0  0  0  0  0  0  0  0  0  0  0  0
  189.3000  177.0770  146.1450 N   0  0  0  0  0  0  0  0  0  0  0  0
  191.3700  176.5340  146.4250 C   0  0  0  0  0  0  0  0  0  0  0  0
  191.2610  176.7800  144.9990 C   0  0  0  0  0  3  0  0  0  0  0  0
  190.1190  176.7390  147.0540 N   0  0  0  0  0  0  0  0  0  0  0  0
  189.9730  177.1090  144.8830 C   0  0  0  0  0  0  0  0  0  0  0  0
  190.3180  177.9770  140.0200 C   0  0  2  0  0  3  0  0  0  0  0  0
  190.2320  176.7490  139.1790 N   0  0  0  0  0  0  0  0  0  0  0  0
  190.1730  174.6830  137.8370 N   0  0  0  0  0  1  0  0  0  0  0  0
  189.5640  175.8970  138.2560 C   0  0  0  0  0  0  0  0  0  0  0  0
  191.3800  177.0960  140.0720 C   0  0  0  0  0  2  0  0  0  0  0  0
  188.4310  176.2170  137.8120 O   0  0  0  0  0  0  0  0  0  0  0  0
  183.6330  178.6800  141.7620 N   0  0  0  0  0  0  0  0  0  0  0  0
  183.4600  178.6950  143.0980 C   0  0  0  0  0  0  0  0  0  0  0  0
  184.9040  178.4390  143.9120 S   0  0  0  0  0  0  0  0  0  0  0  0
  184.9300  178.4630  141.4140 C   0  0  0  0  0  3  0  0  0  0  0  0
  181.9120  178.9520  143.8740 Cl  0  0  0  0  0  0  0  0  0  0  0  0
  185.8030  178.3020  142.4900 C   0  0  0  0  0  0  0  0  0  0  0  0
  1  3  1  0  0  0  0
  2 25  1  0  0  0  0
  2  7  2  0  0  0  0
  3  5  2  0  0  0  0
  4  1  2  0  0  0  0
  4  2  1  0  0  0  0
  5 13  1  0  0  0  0
  6  4  1  0  0  0  0
  7  5  1  0  0  0  0
  9 12  2  0  0  0  0
 10  8  2  0  0  0  0
 10 12  1  0  0  0  0
 11 10  1  0  0  0  0
 13 11  2  0  0  0  0
 13  9  1  0  0  0  0
 14 18  1  0  0  0  0
 14  1  1  1  0  0  0
 15 14  1  0  0  0  0
 15 18  1  0  0  0  0
 16 17  1  0  0  0  0
 17 15  1  0  0  0  0
 19 17  2  0  0  0  0
 20 21  2  0  0  0  0
 21 24  1  0  0  0  0
 21 22  1  0  0  0  0
 23 20  1  0  0  0  0
 23 25  2  0  0  0  0
 25 22  1  0  0  0  0
M  END
>  <MODEL>
7

>  <REMARK>
 VINA RESULT:      -8.6      2.361      5.543
  Name = 
  3 active torsions:
  status: ('A' for Active; 'I' for Inactive)
    1  A    between atoms: C_3  and  C_4
    2  A    between atoms: C_6  and  C_21
    3  A    between atoms: C_17  and  C_23
                            x       y       z     vdW  Elec       q    Type
                         _______ _______ _______ _____ _____    ______ ____

>  <TORSDO>
F 3

$$$$
=
 OpenBabel10222417083D

 25 28  0  0  1  0  0  0  0  0999 V2000
  187.7080  178.4500  141.4680 C   0  0  0  0  0  0  0  0  0  0  0  0
  185.4990  178.4390  142.5440 C   0  0  0  0  0  0  0  0  0  0  0  0
  188.2790  178.0850  142.6900 C   0  0  0  0  0  3  0  0  0  0  0  0
  186.3000  178.6290  141.3920 C   0  0  0  0  0  0  0  0  0  0  0  0
  187.4960  177.8930  143.8310 C   0  0  0  0  0  0  0  0  0  0  0  0
  185.7010  178.9870  140.1870 O   0  0  0  0  0  1  0  0  0  0  0  0
  186.1150  178.0720  143.7470 C   0  0  0  0  0  3  0  0  0  0  0  0
  190.4400  176.4820  147.3390 O   0  0  0  0  0  0  0  0  0  0  0  0
  187.3940  177.5010  146.3550 N   0  0  0  0  0  0  0  0  0  0  0  0
  189.4300  176.8720  146.7000 C   0  0  0  0  0  0  0  0  0  0  0  0
  189.3760  177.1250  145.2710 C   0  0  0  0  0  3  0  0  0  0  0  0
  188.1690  177.1280  147.2880 N   0  0  0  0  0  0  0  0  0  0  0  0
  188.1080  177.5070  145.1150 C   0  0  0  0  0  0  0  0  0  0  0  0
  188.6860  178.6320  140.3280 C   0  0  2  0  0  3  0  0  0  0  0  0
  188.5160  177.5830  139.2810 N   0  0  0  0  0  0  0  0  0  0  0  0
  188.3130  175.7980  137.5950 N   0  0  0  0  0  1  0  0  0  0  0  0
  187.8120  176.9820  138.2010 C   0  0  0  0  0  0  0  0  0  0  0  0
  189.6480  177.6430  140.2570 C   0  0  0  0  0  2  0  0  0  0  0  0
  186.7410  177.4950  137.7850 O   0  0  0  0  0  0  0  0  0  0  0  0
  181.8580  178.6970  141.7120 N   0  0  0  0  0  0  0  0  0  0  0  0
  181.6500  178.9930  143.0100 C   0  0  0  0  0  0  0  0  0  0  0  0
  183.0840  179.0040  143.8800 S   0  0  0  0  0  0  0  0  0  0  0  0
  183.1740  178.4830  141.4380 C   0  0  0  0  0  3  0  0  0  0  0  0
  180.0710  179.3230  143.6890 Cl  0  0  0  0  0  0  0  0  0  0  0  0
  184.0250  178.6110  142.5350 C   0  0  0  0  0  0  0  0  0  0  0  0
  1  3  1  0  0  0  0
  2  7  2  0  0  0  0
  3  5  2  0  0  0  0
  4  1  2  0  0  0  0
  4  2  1  0  0  0  0
  5 13  1  0  0  0  0
  6  4  1  0  0  0  0
  7  5  1  0  0  0  0
  9 12  2  0  0  0  0
 10 12  1  0  0  0  0
 10  8  2  0  0  0  0
 11 10  1  0  0  0  0
 13 11  2  0  0  0  0
 13  9  1  0  0  0  0
 14  1  1  1  0  0  0
 15 18  1  0  0  0  0
 15 14  1  0  0  0  0
 16 17  1  0  0  0  0
 17 15  1  0  0  0  0
 18 14  1  0  0  0  0
 19 17  2  0  0  0  0
 20 21  2  0  0  0  0
 21 24  1  0  0  0  0
 21 22  1  0  0  0  0
 23 20  1  0  0  0  0
 23 25  2  0  0  0  0
 25  2  1  0  0  0  0
 25 22  1  0  0  0  0
M  END
>  <MODEL>
8

>  <REMARK>
 VINA RESULT:      -8.6      2.306      5.595
  Name = 
  3 active torsions:
  status: ('A' for Active; 'I' for Inactive)
    1  A    between atoms: C_3  and  C_4
    2  A    between atoms: C_6  and  C_21
    3  A    between atoms: C_17  and  C_23
                            x       y       z     vdW  Elec       q    Type
                         _______ _______ _______ _____ _____    ______ ____

>  <TORSDO>
F 3

$$$$
=
 OpenBabel10222417083D

 25 28  0  0  1  0  0  0  0  0999 V2000
  186.1480  178.0780  143.6680 C   0  0  0  0  0  0  0  0  0  0  0  0
  188.3880  177.5400  144.5220 C   0  0  0  0  0  0  0  0  0  0  0  0
  186.6790  178.1300  142.3770 C   0  0  0  0  0  3  0  0  0  0  0  0
  187.0120  177.7790  144.7570 C   0  0  0  0  0  0  0  0  0  0  0  0
  188.0350  177.8950  142.1370 C   0  0  0  0  0  0  0  0  0  0  0  0
  186.5120  177.7130  146.0540 O   0  0  0  0  0  1  0  0  0  0  0  0
  188.8760  177.6030  143.2110 C   0  0  0  0  0  3  0  0  0  0  0  0
  190.5310  177.2340  138.1000 O   0  0  0  0  0  0  0  0  0  0  0  0
  188.0950  178.8420  139.7630 N   0  0  0  0  0  0  0  0  0  0  0  0
  189.7060  177.6580  138.9490 C   0  0  0  0  0  0  0  0  0  0  0  0
  189.5850  177.1930  140.3190 C   0  0  0  0  0  2  0  0  0  0  0  0
  188.7520  178.6710  138.6910 N   0  0  0  0  0  2  0  0  0  0  0  0
  188.5850  177.9510  140.7710 C   0  0  0  0  0  0  0  0  0  0  0  0
  184.6660  178.3670  143.7690 C   0  0  2  0  0  3  0  0  0  0  0  0
  184.0790  178.7150  142.4430 N   0  0  0  0  0  0  0  0  0  0  0  0
  183.1180  179.3910  140.2770 N   0  0  0  0  0  1  0  0  0  0  0  0
  183.6320  178.3800  141.1350 C   0  0  0  0  0  0  0  0  0  0  0  0
  184.3410  179.6900  143.5460 C   0  0  0  0  0  2  0  0  0  0  0  0
  183.6960  177.1890  140.7340 O   0  0  0  0  0  0  0  0  0  0  0  0
  190.2320  177.1140  147.7520 N   0  0  0  0  0  0  0  0  0  0  0  0
  191.2050  176.5080  147.0410 C   0  0  0  0  0  0  0  0  0  0  0  0
  190.8270  176.4420  145.4080 S   0  0  0  0  0  0  0  0  0  0  0  0
  189.1960  177.5160  146.9670 C   0  0  0  0  0  3  0  0  0  0  0  0
  192.6740  175.8750  147.7490 Cl  0  0  0  0  0  0  0  0  0  0  0  0
  189.3460  177.2260  145.6110 C   0  0  0  0  0  0  0  0  0  0  0  0
  1  4  1  0  0  0  0
  2  4  2  0  0  0  0
  2 25  1  0  0  0  0
  3  1  2  0  0  0  0
  4  6  1  0  0  0  0
  5  3  1  0  0  0  0
  5  7  2  0  0  0  0
  7  2  1  0  0  0  0
  8 10  2  0  0  0  0
  9 13  2  0  0  0  0
 10 11  1  0  0  0  0
 11 13  1  0  0  0  0
 12 10  1  0  0  0  0
 12  9  1  0  0  0  0
 13  5  1  0  0  0  0
 14  1  1  6  0  0  0
 15 18  1  0  0  0  0
 15 14  1  0  0  0  0
 16 17  1  0  0  0  0
 17 15  1  0  0  0  0
 18 14  1  0  0  0  0
 19 17  2  0  0  0  0
 21 24  1  0  0  0  0
 21 20  2  0  0  0  0
 22 25  1  0  0  0  0
 22 21  1  0  0  0  0
 23 20  1  0  0  0  0
 25 23  2  0  0  0  0
M  END
>  <MODEL>
9

>  <REMARK>
 VINA RESULT:      -8.6      3.803      6.369
  Name = 
  3 active torsions:
  status: ('A' for Active; 'I' for Inactive)
    1  A    between atoms: C_3  and  C_4
    2  A    between atoms: C_6  and  C_21
    3  A    between atoms: C_17  and  C_23
                            x       y       z     vdW  Elec       q    Type
                         _______ _______ _______ _____ _____    ______ ____

>  <TORSDO>
F 3

$$$$
