=
 OpenBabel10222417453D

 52 56  0  0  1  0  0  0  0  0999 V2000
  188.3390  172.7380  137.4210 O   0  0  0  0  0  0  0  0  0  0  0  0
  187.9190  171.7270  135.2990 C   0  0  0  0  0  2  0  0  0  0  0  0
  186.1690  178.1830  137.7160 C   0  0  0  0  0  0  0  0  0  0  0  0
  188.3870  177.0280  137.6750 C   0  0  0  0  0  2  0  0  0  0  0  0
  182.4480  175.2250  138.3560 S   0  0  0  0  0  0  0  0  0  0  0  0
  179.8320  176.3160  138.2490 C   0  0  0  0  0  1  0  0  0  0  0  0
  183.5840  177.5650  139.5600 C   0  0  1  0  0  3  0  0  0  0  0  0
  188.1320  175.9800  136.5970 C   0  0  0  0  0  2  0  0  0  0  0  0
  181.0130  175.8580  137.4660 C   0  0  0  0  0  0  0  0  0  0  0  0
  183.6680  173.7300  134.5940 C   0  0  0  0  0  2  0  0  0  0  0  0
  185.7350  172.3690  134.7170 C   0  0  0  0  0  2  0  0  0  0  0  0
  189.0300  173.9790  135.5640 N   0  0  0  0  0  2  0  0  0  0  0  0
  183.3280  176.7840  138.2970 C   0  0  1  0  0  3  0  0  0  0  0  0
  182.0890  175.5240  135.2180 C   0  0  0  0  0  2  0  0  0  0  0  0
  180.9610  175.9220  136.1230 C   0  0  0  0  0  3  0  0  0  0  0  0
  187.6160  178.3070  137.3690 C   0  0  0  0  0  2  0  0  0  0  0  0
  184.3830  172.6320  135.3530 C   0  0  0  0  0  2  0  0  0  0  0  0
  185.7420  178.7450  138.8250 N   0  0  0  0  0  0  0  0  0  0  0  0
  186.2360  170.1230  135.1190 C   0  0  0  0  0  1  0  0  0  0  0  0
  184.3470  178.8950  139.3000 C   0  0  0  0  0  2  0  0  0  0  0  0
  188.4300  172.8310  136.1680 C   0  0  0  0  0  0  0  0  0  0  0  0
  184.2260  176.9610  137.3870 C   0  0  0  0  0  2  0  0  0  0  0  0
  185.2970  177.3930  136.8210 C   0  0  0  0  0  2  0  0  0  0  0  0
  186.5120  171.4780  135.5670 N   0  0  0  0  0  0  0  0  0  0  0  0
  189.3860  175.1640  136.3350 C   0  0  1  0  0  3  0  0  0  0  0  0
  182.3520  174.0300  135.2820 C   0  0  0  0  0  2  0  0  0  0  0  0
  182.1280  178.9960  140.7640 N   0  0  0  0  0  0  0  0  0  0  0  0
  182.3160  177.8680  140.2080 N   0  0  0  0  0  0  0  0  0  0  0  0
  180.0810  178.2040  142.5050 S   0  0  0  0  0  0  0  0  0  0  0  0
  180.8800  179.3220  141.3740 C   0  0  0  0  0  0  0  0  0  0  0  0
  179.1220  180.6710  142.0090 C   0  0  0  0  0  2  0  0  0  0  0  0
  179.1440  179.6360  143.1250 C   0  0  0  0  0  2  0  0  0  0  0  0
  180.3320  180.4830  141.2340 N   0  0  0  0  0  0  0  0  0  0  0  0
  190.3670  176.0180  135.5430 C   0  0  0  0  0  2  0  0  0  0  0  0
  191.7590  175.3990  135.5370 C   0  0  0  0  0  2  0  0  0  0  0  0
  192.3070  175.3450  136.9560 C   0  0  0  0  0  2  0  0  0  0  0  0
  192.5860  176.7370  137.5040 C   0  0  0  0  0  2  0  0  0  0  0  0
  190.9590  176.8180  139.4290 N   0  0  0  0  0  2  0  0  0  0  0  0
  189.0660  176.8030  141.1110 C   0  0  0  0  0  2  0  0  0  0  0  0
  189.3930  177.9150  145.0830 S   0  0  0  0  0  0  0  0  0  0  0  0
  190.5390  176.9510  140.7970 C   0  0  0  0  0  0  0  0  0  0  0  0
  193.2780  176.7660  139.7800 O   0  0  0  0  0  0  0  0  0  0  0  0
  188.6860  177.4790  142.4370 C   0  0  0  0  0  2  0  0  0  0  0  0
  191.8100  177.7880  143.9980 N   0  0  0  0  0  0  0  0  0  0  0  0
  189.6290  177.0000  143.5340 C   0  0  1  0  0  3  0  0  0  0  0  0
  191.2120  177.9740  145.3100 C   0  0  2  0  0  3  0  0  0  0  0  0
  192.3150  176.7950  138.9660 C   0  0  0  0  0  0  0  0  0  0  0  0
  191.0200  177.2910  143.1120 C   0  0  0  0  0  0  0  0  0  0  0  0
  191.4130  177.1670  141.7410 N   0  0  0  0  0  0  0  0  0  0  0  0
  192.0660  175.7450  145.5270 O   0  0  0  0  0  1  0  0  0  0  0  0
  191.6690  176.8670  146.2530 C   0  0  2  0  0  3  0  0  0  0  0  0
  190.5810  176.5020  147.1470 N   0  0  0  0  0  1  0  0  0  0  0  0
  2 24  1  0  0  0  0
  2 21  1  0  0  0  0
  3 18  2  0  0  0  0
  7 28  1  6  0  0  0
  8  4  1  0  0  0  0
  9  6  1  0  0  0  0
  9  5  1  0  0  0  0
 10 26  1  0  0  0  0
 10 17  1  0  0  0  0
 11 17  1  0  0  0  0
 11 24  1  0  0  0  0
 12 21  1  0  0  0  0
 12 25  1  0  0  0  0
 13 22  1  1  0  0  0
 13  5  1  0  0  0  0
 13  7  1  0  0  0  0
 14 26  1  0  0  0  0
 14 15  1  0  0  0  0
 15  9  2  0  0  0  0
 16  4  1  0  0  0  0
 16  3  1  0  0  0  0
 18 20  1  0  0  0  0
 19 24  1  0  0  0  0
 20  7  1  0  0  0  0
 21  1  2  0  0  0  0
 23 22  1  0  0  0  0
 23  3  1  0  0  0  0
 25 34  1  6  0  0  0
 25  8  1  0  0  0  0
 27 30  1  0  0  0  0
 28 27  2  0  0  0  0
 29 32  1  0  0  0  0
 30 29  1  0  0  0  0
 31 32  1  0  0  0  0
 33 30  2  0  0  0  0
 33 31  1  0  0  0  0
 35 34  1  0  0  0  0
 35 36  1  0  0  0  0
 36 37  1  0  0  0  0
 37 47  1  0  0  0  0
 38 41  1  0  0  0  0
 39 43  1  0  0  0  0
 40 46  1  0  0  0  0
 41 39  1  0  0  0  0
 41 49  2  0  0  0  0
 44 46  1  0  0  0  0
 45 43  1  6  0  0  0
 45 40  1  0  0  0  0
 46 51  1  1  0  0  0
 47 38  1  0  0  0  0
 47 42  2  0  0  0  0
 48 45  1  0  0  0  0
 48 44  2  0  0  0  0
 49 48  1  0  0  0  0
 51 50  1  6  0  0  0
 51 52  1  0  0  0  0
M  END
>  <MODEL>
1

>  <REMARK>
 VINA RESULT:      -8.1      0.000      0.000
  Name = 
  8 active torsions:
  status: ('A' for Active; 'I' for Inactive)
    1  A    between atoms: C_6  and  C_14
    2  A    between atoms: C_6  and  C_21
    3  A    between atoms: C_9  and  N_22
    4  A    between atoms: C_14  and  C_24
    5  A    between atoms: C_17  and  N_41
    6  A    between atoms: C_21  and  C_48
    7  A    between atoms: C_24  and  C_42
    8  A    between atoms: C_32  and  C_40
                            x       y       z     vdW  Elec       q    Type
                         _______ _______ _______ _____ _____    ______ ____

>  <TORSDO>
F 8

$$$$
=
 OpenBabel10222417453D

 52 56  0  0  1  0  0  0  0  0999 V2000
  184.3850  175.3140  138.1280 O   0  0  0  0  0  0  0  0  0  0  0  0
  182.4300  176.6850  138.1310 C   0  0  0  0  0  2  0  0  0  0  0  0
  189.0330  178.1340  140.3400 C   0  0  0  0  0  0  0  0  0  0  0  0
  188.2320  177.2320  138.1500 C   0  0  0  0  0  2  0  0  0  0  0  0
  186.4130  176.7200  144.1020 S   0  0  0  0  0  0  0  0  0  0  0  0
  187.0470  177.7810  146.6550 C   0  0  0  0  0  1  0  0  0  0  0  0
  189.1430  176.6770  143.2270 C   0  0  1  0  0  3  0  0  0  0  0  0
  186.7720  177.6680  138.1900 C   0  0  0  0  0  2  0  0  0  0  0  0
  186.3850  178.0270  145.3430 C   0  0  0  0  0  0  0  0  0  0  0  0
  183.3990  178.9780  142.1790 C   0  0  0  0  0  2  0  0  0  0  0  0
  182.4850  177.8570  140.1670 C   0  0  0  0  0  2  0  0  0  0  0  0
  184.6220  177.4020  137.1020 N   0  0  0  0  0  2  0  0  0  0  0  0
  187.8230  177.4050  143.2340 C   0  0  1  0  0  3  0  0  0  0  0  0
  185.1030  179.5980  143.8570 C   0  0  0  0  0  2  0  0  0  0  0  0
  185.7780  179.2100  145.1380 C   0  0  0  0  0  3  0  0  0  0  0  0
  189.1150  178.2560  138.8550 C   0  0  0  0  0  2  0  0  0  0  0  0
  182.8900  177.6670  141.6170 C   0  0  0  0  0  2  0  0  0  0  0  0
  190.0200  177.5400  140.9740 N   0  0  0  0  0  0  0  0  0  0  0  0
  180.7840  176.3130  139.7420 C   0  0  0  0  0  1  0  0  0  0  0  0
  190.2440  177.4380  142.4350 C   0  0  0  0  0  2  0  0  0  0  0  0
  183.8620  176.4140  137.8000 C   0  0  0  0  0  0  0  0  0  0  0  0
  187.6210  178.1210  142.1800 C   0  0  0  0  0  2  0  0  0  0  0  0
  187.8240  178.6440  141.0220 C   0  0  0  0  0  2  0  0  0  0  0  0
  182.2060  176.5620  139.5630 N   0  0  0  0  0  0  0  0  0  0  0  0
  186.0610  177.2790  136.9050 C   0  0  1  0  0  3  0  0  0  0  0  0
  183.8660  178.7560  143.6040 C   0  0  0  0  0  2  0  0  0  0  0  0
  190.8150  176.6740  144.9070 N   0  0  0  0  0  0  0  0  0  0  0  0
  189.5970  176.4840  144.5970 N   0  0  0  0  0  0  0  0  0  0  0  0
  192.0980  175.0390  146.7860 S   0  0  0  0  0  0  0  0  0  0  0  0
  191.2700  176.5210  146.2500 C   0  0  0  0  0  0  0  0  0  0  0  0
  191.8170  177.1840  148.3890 C   0  0  0  0  0  2  0  0  0  0  0  0
  192.7660  176.0150  148.1700 C   0  0  0  0  0  2  0  0  0  0  0  0
  191.2140  177.4860  147.1060 N   0  0  0  0  0  0  0  0  0  0  0  0
  186.5110  178.2190  135.7950 C   0  0  0  0  0  2  0  0  0  0  0  0
  187.0370  177.4450  134.5940 C   0  0  0  0  0  2  0  0  0  0  0  0
  188.5040  177.0950  134.8070 C   0  0  0  0  0  2  0  0  0  0  0  0
  188.7250  175.5900  134.8380 C   0  0  0  0  0  2  0  0  0  0  0  0
  190.6270  173.9630  135.1430 N   0  0  0  0  0  2  0  0  0  0  0  0
  192.3690  172.1270  135.1850 C   0  0  0  0  0  2  0  0  0  0  0  0
  195.5530  171.9160  137.8190 S   0  0  0  0  0  0  0  0  0  0  0  0
  191.8740  173.4740  135.6630 C   0  0  0  0  0  0  0  0  0  0  0  0
  190.7300  176.1490  135.9870 O   0  0  0  0  0  0  0  0  0  0  0  0
  193.3660  171.4930  136.1670 C   0  0  0  0  0  2  0  0  0  0  0  0
  194.3580  174.2720  138.0610 N   0  0  0  0  0  0  0  0  0  0  0  0
  194.4590  172.5030  136.4950 C   0  0  1  0  0  3  0  0  0  0  0  0
  195.5530  173.5990  138.5480 C   0  0  2  0  0  3  0  0  0  0  0  0
  190.0710  175.2630  135.3790 C   0  0  0  0  0  0  0  0  0  0  0  0
  193.8180  173.7270  137.0290 C   0  0  0  0  0  0  0  0  0  0  0  0
  192.5680  174.1890  136.5060 N   0  0  0  0  0  0  0  0  0  0  0  0
  197.7160  173.5070  137.5210 O   0  0  0  0  0  1  0  0  0  0  0  0
  196.7960  174.3680  138.1180 C   0  0  2  0  0  3  0  0  0  0  0  0
  197.4080  175.0010  139.2760 N   0  0  0  0  0  1  0  0  0  0  0  0
  2 24  1  0  0  0  0
  3 18  2  0  0  0  0
  3 23  1  0  0  0  0
  4  8  1  0  0  0  0
  4 16  1  0  0  0  0
  5  9  1  0  0  0  0
  7 13  1  0  0  0  0
  7 28  1  1  0  0  0
  9  6  1  0  0  0  0
 10 26  1  0  0  0  0
 11 17  1  0  0  0  0
 12 21  1  0  0  0  0
 13 22  1  6  0  0  0
 13  5  1  0  0  0  0
 14 15  1  0  0  0  0
 15  9  2  0  0  0  0
 16  3  1  0  0  0  0
 17 10  1  0  0  0  0
 18 20  1  0  0  0  0
 20  7  1  0  0  0  0
 21  1  2  0  0  0  0
 21  2  1  0  0  0  0
 23 22  1  0  0  0  0
 24 19  1  0  0  0  0
 24 11  1  0  0  0  0
 25 34  1  6  0  0  0
 25 12  1  0  0  0  0
 25  8  1  0  0  0  0
 26 14  1  0  0  0  0
 27 30  1  0  0  0  0
 28 27  2  0  0  0  0
 29 32  1  0  0  0  0
 30 29  1  0  0  0  0
 30 33  2  0  0  0  0
 32 31  1  0  0  0  0
 33 31  1  0  0  0  0
 35 36  1  0  0  0  0
 35 34  1  0  0  0  0
 36 37  1  0  0  0  0
 37 47  1  0  0  0  0
 38 47  1  0  0  0  0
 38 41  1  0  0  0  0
 39 41  1  0  0  0  0
 39 43  1  0  0  0  0
 40 46  1  0  0  0  0
 41 49  2  0  0  0  0
 44 46  1  0  0  0  0
 45 43  1  1  0  0  0
 45 48  1  0  0  0  0
 45 40  1  0  0  0  0
 46 51  1  6  0  0  0
 47 42  2  0  0  0  0
 48 44  2  0  0  0  0
 49 48  1  0  0  0  0
 51 50  1  1  0  0  0
 51 52  1  0  0  0  0
M  END
>  <MODEL>
2

>  <REMARK>
 VINA RESULT:      -7.8      3.332      8.306
  Name = 
  8 active torsions:
  status: ('A' for Active; 'I' for Inactive)
    1  A    between atoms: C_6  and  C_14
    2  A    between atoms: C_6  and  C_21
    3  A    between atoms: C_9  and  N_22
    4  A    between atoms: C_14  and  C_24
    5  A    between atoms: C_17  and  N_41
    6  A    between atoms: C_21  and  C_48
    7  A    between atoms: C_24  and  C_42
    8  A    between atoms: C_32  and  C_40
                            x       y       z     vdW  Elec       q    Type
                         _______ _______ _______ _____ _____    ______ ____

>  <TORSDO>
F 8

$$$$
=
 OpenBabel10222417453D

 52 56  0  0  1  0  0  0  0  0999 V2000
  186.6010  179.3340  137.1290 O   0  0  0  0  0  0  0  0  0  0  0  0
  184.8390  177.7700  136.7410 C   0  0  0  0  0  2  0  0  0  0  0  0
  191.1550  176.8570  139.8800 C   0  0  0  0  0  0  0  0  0  0  0  0
  189.3690  178.5510  140.3230 C   0  0  0  0  0  2  0  0  0  0  0  0
  191.5090  175.5600  135.2760 S   0  0  0  0  0  0  0  0  0  0  0  0
  193.3500  173.5130  134.5950 C   0  0  0  0  0  1  0  0  0  0  0  0
  193.1660  176.6270  137.3570 C   0  0  1  0  0  3  0  0  0  0  0  0
  188.1670  177.8530  139.6970 C   0  0  0  0  0  2  0  0  0  0  0  0
  192.0150  173.8330  135.1720 C   0  0  0  0  0  0  0  0  0  0  0  0
  187.6370  174.0080  135.9640 C   0  0  0  0  0  2  0  0  0  0  0  0
  185.9000  175.7690  136.1140 C   0  0  0  0  0  2  0  0  0  0  0  0
  185.8610  178.1660  139.0150 N   0  0  0  0  0  2  0  0  0  0  0  0
  192.0100  175.7330  136.9860 C   0  0  1  0  0  3  0  0  0  0  0  0
  189.8790  173.0030  136.2080 C   0  0  0  0  0  2  0  0  0  0  0  0
  191.2300  172.8200  135.5820 C   0  0  0  0  0  3  0  0  0  0  0  0
  190.3260  177.5270  140.9250 C   0  0  0  0  0  2  0  0  0  0  0  0
  187.1040  175.2770  135.3320 C   0  0  0  0  0  2  0  0  0  0  0  0
  192.4030  177.2410  139.7300 N   0  0  0  0  0  0  0  0  0  0  0  0
  184.5390  176.9080  134.5940 C   0  0  0  0  0  1  0  0  0  0  0  0
  193.4560  176.6310  138.8850 C   0  0  0  0  0  2  0  0  0  0  0  0
  185.8230  178.4720  137.6200 C   0  0  0  0  0  0  0  0  0  0  0  0
  191.1190  175.6280  137.9130 C   0  0  0  0  0  2  0  0  0  0  0  0
  190.5180  175.8240  139.0340 C   0  0  0  0  0  2  0  0  0  0  0  0
  185.5230  177.0960  135.6480 N   0  0  0  0  0  0  0  0  0  0  0  0
  186.9070  178.6780  139.8930 C   0  0  1  0  0  3  0  0  0  0  0  0
  188.8790  173.5690  135.2160 C   0  0  0  0  0  2  0  0  0  0  0  0
  195.1690  175.3700  137.1950 N   0  0  0  0  0  0  0  0  0  0  0  0
  194.3630  176.1890  136.6520 N   0  0  0  0  0  0  0  0  0  0  0  0
  196.8920  173.2240  136.6680 S   0  0  0  0  0  0  0  0  0  0  0  0
  196.3290  174.9050  136.5060 C   0  0  0  0  0  0  0  0  0  0  0  0
  198.0440  174.9640  134.9680 C   0  0  0  0  0  2  0  0  0  0  0  0
  197.8020  173.4690  135.1110 C   0  0  0  0  0  2  0  0  0  0  0  0
  196.9530  175.6370  135.6450 N   0  0  0  0  0  0  0  0  0  0  0  0
  186.4650  178.5550  141.3450 C   0  0  0  0  0  2  0  0  0  0  0  0
  185.0950  179.1870  141.5620 C   0  0  0  0  0  2  0  0  0  0  0  0
  184.2030  178.2300  142.3400 C   0  0  0  0  0  2  0  0  0  0  0  0
  184.2730  178.4870  143.8390 C   0  0  0  0  0  2  0  0  0  0  0  0
  185.8950  178.3120  145.7620 N   0  0  0  0  0  2  0  0  0  0  0  0
  187.2390  178.2490  147.9060 C   0  0  0  0  0  2  0  0  0  0  0  0
  191.2840  177.4190  148.1650 S   0  0  0  0  0  0  0  0  0  0  0  0
  187.1340  177.9980  146.4170 C   0  0  0  0  0  0  0  0  0  0  0  0
  186.3420  177.3260  143.6800 O   0  0  0  0  0  0  0  0  0  0  0  0
  188.6960  178.3960  148.3680 C   0  0  0  0  0  2  0  0  0  0  0  0
  190.4370  176.9340  145.6980 N   0  0  0  0  0  0  0  0  0  0  0  0
  189.5080  177.2120  147.8550 C   0  0  1  0  0  3  0  0  0  0  0  0
  191.6400  176.7490  146.4950 C   0  0  2  0  0  3  0  0  0  0  0  0
  185.5710  178.0200  144.3960 C   0  0  0  0  0  0  0  0  0  0  0  0
  189.3690  177.1560  146.3810 C   0  0  0  0  0  0  0  0  0  0  0  0
  188.1290  177.4870  145.7470 N   0  0  0  0  0  0  0  0  0  0  0  0
  192.9980  175.0590  147.5150 O   0  0  0  0  0  1  0  0  0  0  0  0
  191.9890  175.2680  146.5760 C   0  0  2  0  0  3  0  0  0  0  0  0
  192.4350  174.7950  145.2750 N   0  0  0  0  0  1  0  0  0  0  0  0
  1 21  2  0  0  0  0
  2 21  1  0  0  0  0
  3 16  1  0  0  0  0
  4 16  1  0  0  0  0
  5 13  1  0  0  0  0
  6  9  1  0  0  0  0
  7 28  1  6  0  0  0
  7 20  1  0  0  0  0
  8 25  1  0  0  0  0
  8  4  1  0  0  0  0
  9  5  1  0  0  0  0
  9 15  2  0  0  0  0
 12 25  1  0  0  0  0
 13  7  1  0  0  0  0
 13 22  1  1  0  0  0
 15 14  1  0  0  0  0
 17 10  1  0  0  0  0
 17 11  1  0  0  0  0
 18  3  2  0  0  0  0
 19 24  1  0  0  0  0
 20 18  1  0  0  0  0
 21 12  1  0  0  0  0
 22 23  1  0  0  0  0
 23  3  1  0  0  0  0
 24 11  1  0  0  0  0
 24  2  1  0  0  0  0
 25 34  1  1  0  0  0
 26 10  1  0  0  0  0
 26 14  1  0  0  0  0
 28 27  2  0  0  0  0
 30 29  1  0  0  0  0
 30 27  1  0  0  0  0
 31 32  1  0  0  0  0
 31 33  1  0  0  0  0
 32 29  1  0  0  0  0
 33 30  2  0  0  0  0
 34 35  1  0  0  0  0
 35 36  1  0  0  0  0
 36 37  1  0  0  0  0
 37 47  1  0  0  0  0
 38 41  1  0  0  0  0
 39 43  1  0  0  0  0
 41 39  1  0  0  0  0
 42 47  2  0  0  0  0
 44 48  2  0  0  0  0
 44 46  1  0  0  0  0
 45 40  1  0  0  0  0
 45 43  1  6  0  0  0
 46 51  1  1  0  0  0
 46 40  1  0  0  0  0
 47 38  1  0  0  0  0
 48 45  1  0  0  0  0
 49 48  1  0  0  0  0
 49 41  2  0  0  0  0
 51 52  1  6  0  0  0
 51 50  1  0  0  0  0
M  END
>  <MODEL>
3

>  <REMARK>
 VINA RESULT:      -7.5      3.923      9.264
  Name = 
  8 active torsions:
  status: ('A' for Active; 'I' for Inactive)
    1  A    between atoms: C_6  and  C_14
    2  A    between atoms: C_6  and  C_21
    3  A    between atoms: C_9  and  N_22
    4  A    between atoms: C_14  and  C_24
    5  A    between atoms: C_17  and  N_41
    6  A    between atoms: C_21  and  C_48
    7  A    between atoms: C_24  and  C_42
    8  A    between atoms: C_32  and  C_40
                            x       y       z     vdW  Elec       q    Type
                         _______ _______ _______ _____ _____    ______ ____

>  <TORSDO>
F 8

$$$$
=
 OpenBabel10222417453D

 52 56  0  0  1  0  0  0  0  0999 V2000
  182.4680  175.2380  138.8030 O   0  0  0  0  0  0  0  0  0  0  0  0
  180.5100  176.5910  138.9950 C   0  0  0  0  0  2  0  0  0  0  0  0
  187.3550  178.2960  139.9020 C   0  0  0  0  0  0  0  0  0  0  0  0
  186.2200  177.1670  137.9810 C   0  0  0  0  0  2  0  0  0  0  0  0
  185.4320  177.2670  144.1750 S   0  0  0  0  0  0  0  0  0  0  0  0
  186.4590  178.5910  146.4640 C   0  0  0  0  0  1  0  0  0  0  0  0
  187.9780  177.1470  142.8620 C   0  0  1  0  0  3  0  0  0  0  0  0
  184.7770  177.5970  138.2220 C   0  0  0  0  0  2  0  0  0  0  0  0
  185.5830  178.6960  145.2640 C   0  0  0  0  0  0  0  0  0  0  0  0
  182.0900  179.2970  142.5680 C   0  0  0  0  0  2  0  0  0  0  0  0
  180.8780  177.9690  140.8630 C   0  0  0  0  0  2  0  0  0  0  0  0
  182.4830  177.2090  137.5440 N   0  0  0  0  0  2  0  0  0  0  0  0
  186.6620  177.8650  143.0170 C   0  0  1  0  0  3  0  0  0  0  0  0
  184.0350  180.0970  143.8630 C   0  0  0  0  0  2  0  0  0  0  0  0
  184.9230  179.8480  145.0450 C   0  0  0  0  0  3  0  0  0  0  0  0
  187.1850  178.2630  138.4200 C   0  0  0  0  0  2  0  0  0  0  0  0
  181.5230  177.9330  142.2360 C   0  0  0  0  0  2  0  0  0  0  0  0
  188.4470  177.7770  140.4180 N   0  0  0  0  0  0  0  0  0  0  0  0
  179.1650  176.3800  140.8890 C   0  0  0  0  0  1  0  0  0  0  0  0
  188.9140  177.8280  141.8230 C   0  0  0  0  0  2  0  0  0  0  0  0
  181.8730  176.2940  138.4570 C   0  0  0  0  0  0  0  0  0  0  0  0
  186.2700  178.4670  141.9450 C   0  0  0  0  0  2  0  0  0  0  0  0
  186.2660  178.8680  140.7230 C   0  0  0  0  0  2  0  0  0  0  0  0
  180.5310  176.6170  140.4490 N   0  0  0  0  0  0  0  0  0  0  0  0
  183.8710  177.0740  137.1220 C   0  0  1  0  0  3  0  0  0  0  0  0
  182.7920  179.2270  143.9090 C   0  0  0  0  0  2  0  0  0  0  0  0
  189.8470  176.6570  144.2350 N   0  0  0  0  0  0  0  0  0  0  0  0
  188.6580  177.1000  144.1480 N   0  0  0  0  0  0  0  0  0  0  0  0
  189.7160  177.0290  147.0090 S   0  0  0  0  0  0  0  0  0  0  0  0
  190.5410  176.6340  145.4810 C   0  0  0  0  0  0  0  0  0  0  0  0
  192.2640  176.1630  146.9370 C   0  0  0  0  0  2  0  0  0  0  0  0
  191.0560  176.1410  147.8620 C   0  0  0  0  0  2  0  0  0  0  0  0
  191.7570  176.2130  145.5800 N   0  0  0  0  0  0  0  0  0  0  0  0
  184.1080  177.8960  135.8620 C   0  0  0  0  0  2  0  0  0  0  0  0
  184.3190  176.9990  134.6480 C   0  0  0  0  0  2  0  0  0  0  0  0
  185.7690  176.5370  134.5940 C   0  0  0  0  0  2  0  0  0  0  0  0
  186.7360  177.7100  134.6530 C   0  0  0  0  0  2  0  0  0  0  0  0
  188.3350  175.9260  135.4400 N   0  0  0  0  0  2  0  0  0  0  0  0
  189.6470  173.9040  136.2150 C   0  0  0  0  0  2  0  0  0  0  0  0
  193.6070  173.9440  137.4150 S   0  0  0  0  0  0  0  0  0  0  0  0
  189.6040  175.3610  135.8080 C   0  0  0  0  0  0  0  0  0  0  0  0
  189.0990  177.9770  134.5950 O   0  0  0  0  0  0  0  0  0  0  0  0
  190.8790  173.5780  137.0720 C   0  0  0  0  0  2  0  0  0  0  0  0
  192.9770  176.2970  136.3640 N   0  0  0  0  0  0  0  0  0  0  0  0
  192.1310  174.0880  136.3680 C   0  0  1  0  0  3  0  0  0  0  0  0
  194.1590  175.5970  136.8420 C   0  0  2  0  0  3  0  0  0  0  0  0
  188.1250  177.2400  134.9060 C   0  0  0  0  0  0  0  0  0  0  0  0
  191.9660  175.5390  136.1190 C   0  0  0  0  0  0  0  0  0  0  0  0
  190.6890  176.0830  135.7670 N   0  0  0  0  0  0  0  0  0  0  0  0
  195.9090  174.2840  135.8640 O   0  0  0  0  0  1  0  0  0  0  0  0
  195.1750  175.4590  135.7140 C   0  0  2  0  0  3  0  0  0  0  0  0
  196.0800  176.5980  135.7250 N   0  0  0  0  0  1  0  0  0  0  0  0
  2 24  1  0  0  0  0
  3 18  2  0  0  0  0
  3 23  1  0  0  0  0
  4  8  1  0  0  0  0
  4 16  1  0  0  0  0
  5  9  1  0  0  0  0
  7 13  1  0  0  0  0
  7 28  1  1  0  0  0
  9  6  1  0  0  0  0
 10 26  1  0  0  0  0
 11 17  1  0  0  0  0
 12 21  1  0  0  0  0
 13 22  1  6  0  0  0
 13  5  1  0  0  0  0
 14 26  1  0  0  0  0
 14 15  1  0  0  0  0
 15  9  2  0  0  0  0
 16  3  1  0  0  0  0
 17 10  1  0  0  0  0
 18 20  1  0  0  0  0
 20  7  1  0  0  0  0
 21  1  2  0  0  0  0
 21  2  1  0  0  0  0
 23 22  1  0  0  0  0
 24 11  1  0  0  0  0
 24 19  1  0  0  0  0
 25 34  1  6  0  0  0
 25 12  1  0  0  0  0
 25  8  1  0  0  0  0
 27 30  1  0  0  0  0
 28 27  2  0  0  0  0
 29 32  1  0  0  0  0
 30 33  2  0  0  0  0
 30 29  1  0  0  0  0
 31 32  1  0  0  0  0
 33 31  1  0  0  0  0
 35 34  1  0  0  0  0
 36 35  1  0  0  0  0
 36 37  1  0  0  0  0
 37 47  1  0  0  0  0
 38 41  1  0  0  0  0
 39 43  1  0  0  0  0
 41 39  1  0  0  0  0
 42 47  2  0  0  0  0
 44 46  1  0  0  0  0
 45 43  1  1  0  0  0
 45 40  1  0  0  0  0
 46 51  1  6  0  0  0
 46 40  1  0  0  0  0
 47 38  1  0  0  0  0
 48 44  2  0  0  0  0
 48 45  1  0  0  0  0
 49 41  2  0  0  0  0
 49 48  1  0  0  0  0
 51 52  1  1  0  0  0
 51 50  1  0  0  0  0
M  END
>  <MODEL>
4

>  <REMARK>
 VINA RESULT:      -6.5      3.232      8.367
  Name = 
  8 active torsions:
  status: ('A' for Active; 'I' for Inactive)
    1  A    between atoms: C_6  and  C_14
    2  A    between atoms: C_6  and  C_21
    3  A    between atoms: C_9  and  N_22
    4  A    between atoms: C_14  and  C_24
    5  A    between atoms: C_17  and  N_41
    6  A    between atoms: C_21  and  C_48
    7  A    between atoms: C_24  and  C_42
    8  A    between atoms: C_32  and  C_40
                            x       y       z     vdW  Elec       q    Type
                         _______ _______ _______ _____ _____    ______ ____

>  <TORSDO>
F 8

$$$$
=
 OpenBabel10222417453D

 52 56  0  0  1  0  0  0  0  0999 V2000
  186.1060  179.1410  137.3360 O   0  0  0  0  0  0  0  0  0  0  0  0
  184.4090  177.4820  137.0730 C   0  0  0  0  0  2  0  0  0  0  0  0
  190.9100  176.9640  139.9110 C   0  0  0  0  0  0  0  0  0  0  0  0
  189.0640  178.5780  140.4030 C   0  0  0  0  0  2  0  0  0  0  0  0
  191.1020  175.5690  135.3250 S   0  0  0  0  0  0  0  0  0  0  0  0
  193.0100  173.5990  134.6000 C   0  0  0  0  0  1  0  0  0  0  0  0
  192.8040  176.7700  137.2950 C   0  0  1  0  0  3  0  0  0  0  0  0
  187.8700  177.8050  139.8550 C   0  0  0  0  0  2  0  0  0  0  0  0
  191.6900  173.8670  135.2360 C   0  0  0  0  0  0  0  0  0  0  0  0
  187.3530  173.8450  136.2430 C   0  0  0  0  0  2  0  0  0  0  0  0
  185.5380  175.5210  136.4400 C   0  0  0  0  0  2  0  0  0  0  0  0
  185.5210  177.9860  139.2840 N   0  0  0  0  0  2  0  0  0  0  0  0
  191.6780  175.8100  137.0040 C   0  0  1  0  0  3  0  0  0  0  0  0
  189.6530  172.9590  136.3980 C   0  0  0  0  0  2  0  0  0  0  0  0
  190.9790  172.8270  135.7080 C   0  0  0  0  0  3  0  0  0  0  0  0
  190.1000  177.6190  140.9800 C   0  0  0  0  0  2  0  0  0  0  0  0
  186.7260  175.0690  135.6100 C   0  0  0  0  0  2  0  0  0  0  0  0
  192.1280  177.4060  139.6890 N   0  0  0  0  0  0  0  0  0  0  0  0
  184.0480  176.5520  134.9650 C   0  0  0  0  0  1  0  0  0  0  0  0
  193.1680  176.8280  138.8070 C   0  0  0  0  0  2  0  0  0  0  0  0
  185.3980  178.2540  137.8860 C   0  0  0  0  0  0  0  0  0  0  0  0
  190.8400  175.6850  137.9770 C   0  0  0  0  0  2  0  0  0  0  0  0
  190.2860  175.8800  139.1220 C   0  0  0  0  0  2  0  0  0  0  0  0
  185.0720  176.8150  135.9630 N   0  0  0  0  0  0  0  0  0  0  0  0
  186.5800  178.5710  140.0960 C   0  0  1  0  0  3  0  0  0  0  0  0
  188.5780  173.4490  135.4440 C   0  0  0  0  0  2  0  0  0  0  0  0
  194.8260  175.5600  137.0380 N   0  0  0  0  0  0  0  0  0  0  0  0
  193.9850  176.3740  136.5410 N   0  0  0  0  0  0  0  0  0  0  0  0
  196.7590  176.2050  135.1150 S   0  0  0  0  0  0  0  0  0  0  0  0
  195.9710  175.1360  136.3000 C   0  0  0  0  0  0  0  0  0  0  0  0
  197.7680  173.7950  135.7660 C   0  0  0  0  0  2  0  0  0  0  0  0
  198.2390  175.1600  135.2840 C   0  0  0  0  0  2  0  0  0  0  0  0
  196.5620  174.0130  136.5390 N   0  0  0  0  0  0  0  0  0  0  0  0
  186.2170  178.4640  141.5710 C   0  0  0  0  0  2  0  0  0  0  0  0
  185.0250  179.3480  141.9120 C   0  0  0  0  0  2  0  0  0  0  0  0
  185.0430  179.6880  143.3970 C   0  0  0  0  0  2  0  0  0  0  0  0
  184.9530  178.4400  144.2610 C   0  0  0  0  0  2  0  0  0  0  0  0
  187.3160  177.5880  144.0450 N   0  0  0  0  0  2  0  0  0  0  0  0
  189.6380  176.7650  143.4590 C   0  0  0  0  0  2  0  0  0  0  0  0
  192.4290  175.3630  146.1720 S   0  0  0  0  0  0  0  0  0  0  0  0
  188.6110  177.1600  144.4980 C   0  0  0  0  0  0  0  0  0  0  0  0
  186.4740  178.3740  146.0890 O   0  0  0  0  0  0  0  0  0  0  0  0
  190.7250  175.8480  144.0390 C   0  0  0  0  0  2  0  0  0  0  0  0
  190.3790  176.4230  147.4800 N   0  0  0  0  0  0  0  0  0  0  0  0
  191.2970  176.4820  145.3010 C   0  0  1  0  0  3  0  0  0  0  0  0
  191.7010  175.8910  147.7710 C   0  0  2  0  0  3  0  0  0  0  0  0
  186.2720  178.1200  144.8700 C   0  0  0  0  0  0  0  0  0  0  0  0
  190.1810  176.7270  146.2450 C   0  0  0  0  0  0  0  0  0  0  0  0
  188.8950  177.1390  145.7710 N   0  0  0  0  0  0  0  0  0  0  0  0
  193.4470  176.3920  149.3340 O   0  0  0  0  0  1  0  0  0  0  0  0
  192.5640  176.9670  148.4220 C   0  0  2  0  0  3  0  0  0  0  0  0
  191.7160  177.9280  149.1090 N   0  0  0  0  0  1  0  0  0  0  0  0
  1 21  2  0  0  0  0
  2 21  1  0  0  0  0
  3 16  1  0  0  0  0
  4 16  1  0  0  0  0
  5 13  1  0  0  0  0
  6  9  1  0  0  0  0
  7 28  1  6  0  0  0
  7 20  1  0  0  0  0
  8 25  1  0  0  0  0
  8  4  1  0  0  0  0
  9  5  1  0  0  0  0
  9 15  2  0  0  0  0
 12 25  1  0  0  0  0
 13  7  1  0  0  0  0
 13 22  1  1  0  0  0
 15 14  1  0  0  0  0
 17 10  1  0  0  0  0
 17 11  1  0  0  0  0
 18  3  2  0  0  0  0
 19 24  1  0  0  0  0
 20 18  1  0  0  0  0
 21 12  1  0  0  0  0
 22 23  1  0  0  0  0
 23  3  1  0  0  0  0
 24 11  1  0  0  0  0
 24  2  1  0  0  0  0
 25 34  1  1  0  0  0
 26 10  1  0  0  0  0
 26 14  1  0  0  0  0
 28 27  2  0  0  0  0
 29 32  1  0  0  0  0
 29 30  1  0  0  0  0
 30 33  2  0  0  0  0
 30 27  1  0  0  0  0
 31 33  1  0  0  0  0
 32 31  1  0  0  0  0
 34 35  1  0  0  0  0
 35 36  1  0  0  0  0
 36 37  1  0  0  0  0
 37 47  1  0  0  0  0
 38 41  1  0  0  0  0
 38 47  1  0  0  0  0
 39 43  1  0  0  0  0
 39 41  1  0  0  0  0
 40 46  1  0  0  0  0
 41 49  2  0  0  0  0
 44 46  1  0  0  0  0
 45 43  1  6  0  0  0
 45 40  1  0  0  0  0
 45 48  1  0  0  0  0
 46 51  1  6  0  0  0
 47 42  2  0  0  0  0
 48 44  2  0  0  0  0
 49 48  1  0  0  0  0
 51 52  1  1  0  0  0
 51 50  1  0  0  0  0
M  END
>  <MODEL>
5

>  <REMARK>
 VINA RESULT:      -6.1      3.898      9.054
  Name = 
  8 active torsions:
  status: ('A' for Active; 'I' for Inactive)
    1  A    between atoms: C_6  and  C_14
    2  A    between atoms: C_6  and  C_21
    3  A    between atoms: C_9  and  N_22
    4  A    between atoms: C_14  and  C_24
    5  A    between atoms: C_17  and  N_41
    6  A    between atoms: C_21  and  C_48
    7  A    between atoms: C_24  and  C_42
    8  A    between atoms: C_32  and  C_40
                            x       y       z     vdW  Elec       q    Type
                         _______ _______ _______ _____ _____    ______ ____

>  <TORSDO>
F 8

$$$$
=
 OpenBabel10222417453D

 52 56  0  0  1  0  0  0  0  0999 V2000
  180.2640  178.0370  135.3180 O   0  0  0  0  0  0  0  0  0  0  0  0
  178.9330  176.1550  135.9410 C   0  0  0  0  0  2  0  0  0  0  0  0
  185.1050  178.4720  138.6070 C   0  0  0  0  0  0  0  0  0  0  0  0
  182.9560  179.6950  138.2290 C   0  0  0  0  0  2  0  0  0  0  0  0
  186.0020  175.0640  135.3540 S   0  0  0  0  0  0  0  0  0  0  0  0
  188.2990  173.4390  135.7100 C   0  0  0  0  0  1  0  0  0  0  0  0
  187.2520  177.4060  136.4350 C   0  0  1  0  0  3  0  0  0  0  0  0
  181.9830  178.5240  138.1550 C   0  0  0  0  0  2  0  0  0  0  0  0
  186.8960  173.7060  136.1320 C   0  0  0  0  0  0  0  0  0  0  0  0
  182.5580  173.2870  137.0420 C   0  0  0  0  0  2  0  0  0  0  0  0
  180.4570  174.4210  136.3770 C   0  0  0  0  0  2  0  0  0  0  0  0
  179.7080  177.9060  137.5860 N   0  0  0  0  0  2  0  0  0  0  0  0
  186.3550  176.2190  136.6770 C   0  0  1  0  0  3  0  0  0  0  0  0
  184.9540  173.0930  137.6070 C   0  0  0  0  0  2  0  0  0  0  0  0
  186.3430  172.9160  137.0700 C   0  0  0  0  0  3  0  0  0  0  0  0
  184.0870  179.3870  139.2050 C   0  0  0  0  0  2  0  0  0  0  0  0
  181.7840  173.8760  135.8820 C   0  0  0  0  0  2  0  0  0  0  0  0
  186.2380  178.9880  138.1840 N   0  0  0  0  0  0  0  0  0  0  0  0
  178.9580  174.2510  134.5930 C   0  0  0  0  0  1  0  0  0  0  0  0
  187.4480  178.2790  137.7080 C   0  0  0  0  0  2  0  0  0  0  0  0
  179.6780  177.4140  136.2450 C   0  0  0  0  0  0  0  0  0  0  0  0
  185.4610  176.4220  137.5850 C   0  0  0  0  0  2  0  0  0  0  0  0
  184.7700  177.0380  138.4780 C   0  0  0  0  0  2  0  0  0  0  0  0
  179.8120  175.1800  135.3150 N   0  0  0  0  0  0  0  0  0  0  0  0
  180.5580  179.0220  137.9840 C   0  0  1  0  0  3  0  0  0  0  0  0
  183.9080  172.8110  136.5450 C   0  0  0  0  0  2  0  0  0  0  0  0
  189.4530  176.6110  136.8130 N   0  0  0  0  0  0  0  0  0  0  0  0
  188.5550  176.9440  135.9770 N   0  0  0  0  0  0  0  0  0  0  0  0
  192.0640  175.8890  137.5270 S   0  0  0  0  0  0  0  0  0  0  0  0
  190.7230  176.1240  136.3810 C   0  0  0  0  0  0  0  0  0  0  0  0
  192.2440  175.1620  134.9400 C   0  0  0  0  0  2  0  0  0  0  0  0
  192.8030  174.7660  136.2990 C   0  0  0  0  0  2  0  0  0  0  0  0
  190.9260  175.7200  135.1720 N   0  0  0  0  0  0  0  0  0  0  0  0
  180.0760  179.5860  139.3130 C   0  0  0  0  0  2  0  0  0  0  0  0
  180.5410  178.7260  140.4810 C   0  0  0  0  0  2  0  0  0  0  0  0
  181.0740  179.6140  141.5970 C   0  0  0  0  0  2  0  0  0  0  0  0
  180.9380  178.9490  142.9600 C   0  0  0  0  0  2  0  0  0  0  0  0
  183.4340  178.6490  142.7650 N   0  0  0  0  0  2  0  0  0  0  0  0
  185.8970  178.4510  142.2150 C   0  0  0  0  0  2  0  0  0  0  0  0
  188.8140  177.0460  144.7910 S   0  0  0  0  0  0  0  0  0  0  0  0
  184.7710  178.3910  143.2240 C   0  0  0  0  0  0  0  0  0  0  0  0
  182.3680  178.7720  144.8520 O   0  0  0  0  0  0  0  0  0  0  0  0
  187.1300  177.6580  142.6740 C   0  0  0  0  0  2  0  0  0  0  0  0
  186.5390  177.3610  146.1180 N   0  0  0  0  0  0  0  0  0  0  0  0
  187.5070  178.0890  144.0870 C   0  0  1  0  0  3  0  0  0  0  0  0
  187.9310  177.0470  146.3990 C   0  0  2  0  0  3  0  0  0  0  0  0
  182.2710  178.7650  143.5950 C   0  0  0  0  0  0  0  0  0  0  0  0
  186.3300  177.8910  144.9640 C   0  0  0  0  0  0  0  0  0  0  0  0
  185.0050  178.1390  144.4820 N   0  0  0  0  0  0  0  0  0  0  0  0
  189.9140  178.0000  147.3470 O   0  0  0  0  0  1  0  0  0  0  0  0
  188.5240  178.0950  147.3330 C   0  0  2  0  0  3  0  0  0  0  0  0
  188.0130  177.8960  148.6810 N   0  0  0  0  0  1  0  0  0  0  0  0
  1 21  2  0  0  0  0
  2 21  1  0  0  0  0
  3 16  1  0  0  0  0
  4 16  1  0  0  0  0
  5  9  1  0  0  0  0
  5 13  1  0  0  0  0
  6  9  1  0  0  0  0
  7 28  1  1  0  0  0
  7 13  1  0  0  0  0
  7 20  1  0  0  0  0
  8  4  1  0  0  0  0
  9 15  2  0  0  0  0
 12 25  1  0  0  0  0
 13 22  1  6  0  0  0
 15 14  1  0  0  0  0
 17 11  1  0  0  0  0
 17 10  1  0  0  0  0
 18  3  2  0  0  0  0
 19 24  1  0  0  0  0
 20 18  1  0  0  0  0
 21 12  1  0  0  0  0
 22 23  1  0  0  0  0
 23  3  1  0  0  0  0
 24  2  1  0  0  0  0
 24 11  1  0  0  0  0
 25  8  1  0  0  0  0
 25 34  1  1  0  0  0
 26 10  1  0  0  0  0
 26 14  1  0  0  0  0
 28 27  2  0  0  0  0
 30 27  1  0  0  0  0
 30 29  1  0  0  0  0
 31 33  1  0  0  0  0
 31 32  1  0  0  0  0
 32 29  1  0  0  0  0
 33 30  2  0  0  0  0
 34 35  1  0  0  0  0
 35 36  1  0  0  0  0
 36 37  1  0  0  0  0
 37 47  1  0  0  0  0
 38 41  1  0  0  0  0
 38 47  1  0  0  0  0
 39 43  1  0  0  0  0
 39 41  1  0  0  0  0
 40 46  1  0  0  0  0
 41 49  2  0  0  0  0
 44 46  1  0  0  0  0
 45 43  1  6  0  0  0
 45 40  1  0  0  0  0
 45 48  1  0  0  0  0
 46 51  1  1  0  0  0
 47 42  2  0  0  0  0
 48 44  2  0  0  0  0
 49 48  1  0  0  0  0
 51 50  1  1  0  0  0
 51 52  1  0  0  0  0
M  END
>  <MODEL>
6

>  <REMARK>
 VINA RESULT:      -5.7      3.381      8.045
  Name = 
  8 active torsions:
  status: ('A' for Active; 'I' for Inactive)
    1  A    between atoms: C_6  and  C_14
    2  A    between atoms: C_6  and  C_21
    3  A    between atoms: C_9  and  N_22
    4  A    between atoms: C_14  and  C_24
    5  A    between atoms: C_17  and  N_41
    6  A    between atoms: C_21  and  C_48
    7  A    between atoms: C_24  and  C_42
    8  A    between atoms: C_32  and  C_40
                            x       y       z     vdW  Elec       q    Type
                         _______ _______ _______ _____ _____    ______ ____

>  <TORSDO>
F 8

$$$$
