=
 OpenBabel10222420583D

 51 54  0  0  1  0  0  0  0  0999 V2000
  183.4960  178.3630  139.5820 C   0  0  2  0  0  0  0  0  0  0  0  0
  183.0310  176.9920  140.0790 C   0  0  0  0  0  1  0  0  0  0  0  0
  182.3500  179.4120  139.7140 C   0  0  1  0  0  3  0  0  0  0  0  0
  182.3610  180.4910  138.7180 C   0  0  0  0  0  0  0  0  0  0  0  0
  180.5200  179.2050  138.1500 O   0  0  0  0  0  0  0  0  0  0  0  0
  183.1350  181.4330  138.7280 O   0  0  0  0  0  0  0  0  0  0  0  0
  180.9770  178.8090  139.4320 C   0  0  0  0  0  2  0  0  0  0  0  0
  181.2150  180.3800  137.7980 C   0  0  1  0  0  3  0  0  0  0  0  0
  180.3730  181.4840  137.9490 O   0  0  0  0  0  0  0  0  0  0  0  0
  180.4950  182.1920  136.7530 C   0  0  0  0  0  2  0  0  0  0  0  0
  180.1020  183.6360  136.9790 C   0  0  0  0  0  2  0  0  0  0  0  0
  181.2830  184.5310  136.6740 C   0  0  0  0  0  1  0  0  0  0  0  0
  183.9750  178.2480  138.1030 C   0  0  2  0  0  3  0  0  0  0  0  0
  183.2690  177.2700  137.3920 O   0  0  0  0  0  1  0  0  0  0  0  0
  185.4830  178.0420  137.9060 C   0  0  0  0  0  2  0  0  0  0  0  0
  185.8110  176.7180  137.2290 C   0  0  0  0  0  2  0  0  0  0  0  0
  186.9690  176.8710  136.2480 C   0  0  0  0  0  2  0  0  0  0  0  0
  187.2900  174.5970  136.9120 O   0  0  0  0  0  1  0  0  0  0  0  0
  187.7590  175.5770  136.0320 C   0  0  2  0  0  3  0  0  0  0  0  0
  191.4210  175.1960  135.0340 C   0  0  0  0  0  2  0  0  0  0  0  0
  190.1310  174.6290  135.6060 C   0  0  2  0  0  3  0  0  0  0  0  0
  189.4680  173.9320  134.5940 O   0  0  0  0  0  1  0  0  0  0  0  0
  192.7130  175.2400  136.2650 S   0  0  0  0  0  0  0  0  0  0  0  0
  193.4020  173.9060  136.2980 O   0  0  0  0  0  0  0  0  0  0  0  0
  189.6360  175.9860  137.6590 C   0  0  0  0  0  2  0  0  0  0  0  0
  192.0890  175.6060  137.8940 C   0  0  0  0  0  2  0  0  0  0  0  0
  189.2820  175.7790  136.1840 C   0  0  2  0  0  3  0  0  0  0  0  0
  190.9910  176.6530  137.8350 C   0  0  0  0  0  2  0  0  0  0  0  0
  193.7090  176.2950  135.8790 O   0  0  0  0  0  0  0  0  0  0  0  0
  184.6630  178.7950  140.4920 C   0  0  0  0  0  2  0  0  0  0  0  0
  184.5440  178.2720  141.9250 C   0  0  2  0  0  3  0  0  0  0  0  0
  183.8690  179.2750  142.8550 C   0  0  0  0  0  1  0  0  0  0  0  0
  185.7450  177.6800  142.4070 O   0  0  0  0  0  0  0  0  0  0  0  0
  186.2090  178.2180  143.6440 C   0  0  2  0  0  3  0  0  0  0  0  0
  189.0500  177.2650  146.9530 C   0  0  0  0  0  3  0  0  0  0  0  0
  190.7180  177.4870  141.2990 C   0  0  0  0  0  1  0  0  0  0  0  0
  190.5390  176.6320  143.5820 C   0  0  0  0  0  2  0  0  0  0  0  0
  190.0580  177.7330  142.6470 C   0  0  2  0  0  3  0  0  0  0  0  0
  187.9580  176.8850  144.7960 C   0  0  0  0  0  2  0  0  0  0  0  0
  191.5070  176.2490  145.8550 C   0  0  0  0  0  2  0  0  0  0  0  0
  187.7380  178.0510  143.8320 C   0  0  1  0  0  3  0  0  0  0  0  0
  188.5140  177.8190  142.4990 C   0  0  1  0  0  3  0  0  0  0  0  0
  190.2850  177.4630  147.7850 C   0  0  0  0  0  2  0  0  0  0  0  0
  191.3730  176.4570  147.3810 C   0  0  0  0  0  2  0  0  0  0  0  0
  190.5560  177.1180  145.0230 C   0  0  2  0  0  3  0  0  0  0  0  0
  189.1750  177.1120  145.6300 C   0  0  0  0  0  0  0  0  0  0  0  0
  188.1640  178.8750  141.4400 C   0  0  0  0  0  2  0  0  0  0  0  0
  188.1830  178.3030  140.0280 C   0  0  0  0  0  1  0  0  0  0  0  0
  185.4640  177.7560  144.7410 O   0  0  0  0  0  0  0  0  0  0  0  0
  185.5280  178.7880  145.6820 C   0  0  0  0  0  2  0  0  0  0  0  0
  184.2920  178.9280  146.3150 O   0  0  0  0  0  1  0  0  0  0  0  0
  1  2  1  1  0  0  0
  1 30  1  0  0  0  0
  3  1  1  6  0  0  0
  4  6  2  0  0  0  0
  4  3  1  0  0  0  0
  5  7  1  0  0  0  0
  7  3  1  0  0  0  0
  8  9  1  1  0  0  0
  8  5  1  0  0  0  0
  8  4  1  0  0  0  0
 10 11  1  0  0  0  0
 10  9  1  0  0  0  0
 12 11  1  0  0  0  0
 13 14  1  1  0  0  0
 13  1  1  0  0  0  0
 15 13  1  0  0  0  0
 16 15  1  0  0  0  0
 17 16  1  0  0  0  0
 19 17  1  0  0  0  0
 19 18  1  1  0  0  0
 20 21  1  0  0  0  0
 20 23  1  0  0  0  0
 21 22  1  6  0  0  0
 21 27  1  0  0  0  0
 23 24  2  0  0  0  0
 23 26  1  0  0  0  0
 25 28  1  0  0  0  0
 27 19  1  1  0  0  0
 27 25  1  0  0  0  0
 28 26  1  0  0  0  0
 29 23  2  0  0  0  0
 30 31  1  0  0  0  0
 31 33  1  0  0  0  0
 31 32  1  1  0  0  0
 34 33  1  6  0  0  0
 34 49  1  0  0  0  0
 35 43  1  0  0  0  0
 38 36  1  6  0  0  0
 38 37  1  0  0  0  0
 39 46  1  0  0  0  0
 40 44  1  0  0  0  0
 41 34  1  6  0  0  0
 41 39  1  0  0  0  0
 42 47  1  6  0  0  0
 42 38  1  0  0  0  0
 42 41  1  0  0  0  0
 44 43  1  0  0  0  0
 45 37  1  6  0  0  0
 45 46  1  0  0  0  0
 45 40  1  0  0  0  0
 46 35  2  0  0  0  0
 48 47  1  0  0  0  0
 49 50  1  0  0  0  0
 50 51  1  0  0  0  0
M  END
>  <MODEL>
1

>  <REMARK>
 VINA RESULT:      -7.7      0.000      0.000
  Name = 
  18 active torsions:
  status: ('A' for Active; 'I' for Inactive)
    1  A    between atoms: C_1  and  C_4
    2  A    between atoms: C_1  and  C_10
    3  A    between atoms: C_4  and  C_9
    4  A    between atoms: C_5  and  C_9
    5  A    between atoms: C_9  and  C_38
    6  A    between atoms: C_10  and  C_43
    7  A    between atoms: C_11  and  O_15
    8  A    between atoms: C_11  and  C_38
    9  A    between atoms: O_15  and  C_26
   10  A    between atoms: O_18  and  C_19
   11  A    between atoms: O_18  and  C_45
   12  A    between atoms: C_19  and  C_21
   13  A    between atoms: C_22  and  O_47
   14  A    between atoms: C_26  and  C_34
   15  A    between atoms: C_26  and  O_47
   16  A    between atoms: C_29  and  C_35
   17  A    between atoms: C_37  and  C_50
   18  A    between atoms: C_43  and  C_50
                            x       y       z     vdW  Elec       q    Type
                         _______ _______ _______ _____ _____    ______ ____

>  <TORSDO>
F 18

$$$$
=
 OpenBabel10222420583D

 51 54  0  0  1  0  0  0  0  0999 V2000
  188.2400  177.7230  138.1340 C   0  0  2  0  0  0  0  0  0  0  0  0
  189.1110  178.9520  137.8600 C   0  0  0  0  0  1  0  0  0  0  0  0
  188.4720  176.6320  137.0430 C   0  0  1  0  0  3  0  0  0  0  0  0
  189.4740  176.9610  136.0210 C   0  0  0  0  0  0  0  0  0  0  0  0
  190.4640  175.2870  137.2780 O   0  0  0  0  0  0  0  0  0  0  0  0
  189.2940  177.7460  135.1050 O   0  0  0  0  0  0  0  0  0  0  0  0
  189.0900  175.3620  137.6170 C   0  0  0  0  0  2  0  0  0  0  0  0
  190.6660  176.1030  136.1460 C   0  0  1  0  0  3  0  0  0  0  0  0
  190.7990  175.3030  135.0100 O   0  0  0  0  0  0  0  0  0  0  0  0
  192.1300  174.8860  135.0210 C   0  0  0  0  0  2  0  0  0  0  0  0
  193.0300  176.0620  134.7080 C   0  0  0  0  0  2  0  0  0  0  0  0
  193.9410  176.3240  135.8870 C   0  0  0  0  0  1  0  0  0  0  0  0
  186.7400  178.1450  138.1870 C   0  0  2  0  0  3  0  0  0  0  0  0
  186.3450  178.5290  139.4740 O   0  0  0  0  0  1  0  0  0  0  0  0
  185.7420  177.1250  137.6240 C   0  0  0  0  0  2  0  0  0  0  0  0
  184.3590  177.7200  137.3970 C   0  0  0  0  0  2  0  0  0  0  0  0
  183.3290  176.6330  137.1090 C   0  0  0  0  0  2  0  0  0  0  0  0
  181.7640  175.0740  138.0220 O   0  0  0  0  0  1  0  0  0  0  0  0
  182.5730  176.1640  138.3560 C   0  0  2  0  0  3  0  0  0  0  0  0
  181.9900  179.1410  140.6690 C   0  0  0  0  0  2  0  0  0  0  0  0
  182.1860  177.6500  140.4420 C   0  0  2  0  0  3  0  0  0  0  0  0
  183.5250  177.3380  140.6820 O   0  0  0  0  0  1  0  0  0  0  0  0
  180.3630  179.4910  141.3140 S   0  0  0  0  0  0  0  0  0  0  0  0
  180.3880  179.3430  142.8080 O   0  0  0  0  0  0  0  0  0  0  0  0
  180.2610  176.9180  139.0060 C   0  0  0  0  0  2  0  0  0  0  0  0
  179.1180  178.4050  140.6490 C   0  0  0  0  0  2  0  0  0  0  0  0
  181.7450  177.2920  139.0070 C   0  0  2  0  0  3  0  0  0  0  0  0
  179.3630  178.1330  139.1740 C   0  0  0  0  0  2  0  0  0  0  0  0
  180.0050  180.9090  140.9700 O   0  0  0  0  0  0  0  0  0  0  0  0
  188.6870  177.1550  139.4960 C   0  0  0  0  0  2  0  0  0  0  0  0
  189.8270  177.9450  140.1410 C   0  0  2  0  0  3  0  0  0  0  0  0
  191.1740  177.2460  139.9920 C   0  0  0  0  0  1  0  0  0  0  0  0
  189.5100  178.4250  141.4430 O   0  0  0  0  0  0  0  0  0  0  0  0
  189.3140  177.3990  142.4140 C   0  0  2  0  0  3  0  0  0  0  0  0
  185.0980  178.6220  143.2300 C   0  0  0  0  0  3  0  0  0  0  0  0
  189.0300  177.7060  147.5320 C   0  0  0  0  0  1  0  0  0  0  0  0
  186.8990  177.5860  146.3390 C   0  0  0  0  0  2  0  0  0  0  0  0
  188.3330  178.0900  146.2360 C   0  0  2  0  0  3  0  0  0  0  0  0
  187.0900  177.2260  143.5050 C   0  0  0  0  0  2  0  0  0  0  0  0
  184.5240  178.3020  146.0310 C   0  0  0  0  0  2  0  0  0  0  0  0
  188.4700  177.8750  143.6240 C   0  0  1  0  0  3  0  0  0  0  0  0
  189.1150  177.5500  145.0060 C   0  0  1  0  0  3  0  0  0  0  0  0
  184.0240  179.5060  143.7960 C   0  0  0  0  0  2  0  0  0  0  0  0
  183.4550  178.9020  145.0880 C   0  0  0  0  0  2  0  0  0  0  0  0
  185.9620  178.4590  145.5200 C   0  0  2  0  0  3  0  0  0  0  0  0
  186.0340  178.1300  144.0500 C   0  0  0  0  0  0  0  0  0  0  0  0
  190.5740  178.0240  145.0850 C   0  0  0  0  0  2  0  0  0  0  0  0
  191.4540  177.0530  145.8610 C   0  0  0  0  0  1  0  0  0  0  0  0
  190.5170  176.7790  142.7890 O   0  0  0  0  0  0  0  0  0  0  0  0
  190.2280  175.4110  142.8100 C   0  0  0  0  0  2  0  0  0  0  0  0
  191.2010  174.7340  143.5470 O   0  0  0  0  0  1  0  0  0  0  0  0
  1  2  1  6  0  0  0
  1 13  1  0  0  0  0
  1 30  1  0  0  0  0
  3  7  1  0  0  0  0
  3  1  1  1  0  0  0
  4  8  1  0  0  0  0
  4  3  1  0  0  0  0
  5  7  1  0  0  0  0
  6  4  2  0  0  0  0
  8  9  1  6  0  0  0
  8  5  1  0  0  0  0
  9 10  1  0  0  0  0
 11 10  1  0  0  0  0
 11 12  1  0  0  0  0
 13 14  1  1  0  0  0
 15 13  1  0  0  0  0
 16 15  1  0  0  0  0
 17 16  1  0  0  0  0
 17 19  1  0  0  0  0
 19 18  1  6  0  0  0
 20 23  1  0  0  0  0
 21 20  1  0  0  0  0
 21 22  1  6  0  0  0
 23 24  2  0  0  0  0
 25 27  1  0  0  0  0
 25 28  1  0  0  0  0
 26 23  1  0  0  0  0
 27 19  1  1  0  0  0
 27 21  1  0  0  0  0
 28 26  1  0  0  0  0
 29 23  2  0  0  0  0
 30 31  1  0  0  0  0
 31 32  1  1  0  0  0
 31 33  1  0  0  0  0
 34 33  1  6  0  0  0
 34 49  1  0  0  0  0
 35 43  1  0  0  0  0
 35 46  2  0  0  0  0
 38 37  1  0  0  0  0
 38 36  1  1  0  0  0
 39 41  1  0  0  0  0
 39 46  1  0  0  0  0
 41 34  1  6  0  0  0
 41 42  1  0  0  0  0
 42 47  1  6  0  0  0
 42 38  1  0  0  0  0
 43 44  1  0  0  0  0
 44 40  1  0  0  0  0
 45 40  1  1  0  0  0
 45 37  1  0  0  0  0
 46 45  1  0  0  0  0
 47 48  1  0  0  0  0
 49 50  1  0  0  0  0
 50 51  1  0  0  0  0
M  END
>  <MODEL>
2

>  <REMARK>
 VINA RESULT:      -7.6      3.174      8.452
  Name = 
  18 active torsions:
  status: ('A' for Active; 'I' for Inactive)
    1  A    between atoms: C_1  and  C_4
    2  A    between atoms: C_1  and  C_10
    3  A    between atoms: C_4  and  C_9
    4  A    between atoms: C_5  and  C_9
    5  A    between atoms: C_9  and  C_38
    6  A    between atoms: C_10  and  C_43
    7  A    between atoms: C_11  and  O_15
    8  A    between atoms: C_11  and  C_38
    9  A    between atoms: O_15  and  C_26
   10  A    between atoms: O_18  and  C_19
   11  A    between atoms: O_18  and  C_45
   12  A    between atoms: C_19  and  C_21
   13  A    between atoms: C_22  and  O_47
   14  A    between atoms: C_26  and  C_34
   15  A    between atoms: C_26  and  O_47
   16  A    between atoms: C_29  and  C_35
   17  A    between atoms: C_37  and  C_50
   18  A    between atoms: C_43  and  C_50
                            x       y       z     vdW  Elec       q    Type
                         _______ _______ _______ _____ _____    ______ ____

>  <TORSDO>
F 18

$$$$
=
 OpenBabel10222420583D

 51 54  0  0  1  0  0  0  0  0999 V2000
  185.2180  178.4380  142.7790 C   0  0  2  0  0  0  0  0  0  0  0  0
  185.2700  179.8000  143.4770 C   0  0  0  0  0  1  0  0  0  0  0  0
  186.0870  177.3940  143.5470 C   0  0  1  0  0  3  0  0  0  0  0  0
  187.5320  177.4670  143.2980 C   0  0  0  0  0  0  0  0  0  0  0  0
  187.2880  178.2110  145.4770 O   0  0  0  0  0  0  0  0  0  0  0  0
  188.0790  177.0750  142.2800 O   0  0  0  0  0  0  0  0  0  0  0  0
  186.0690  177.6250  145.0550 C   0  0  0  0  0  2  0  0  0  0  0  0
  188.2580  177.9230  144.4960 C   0  0  1  0  0  3  0  0  0  0  0  0
  189.1030  176.9110  144.9570 O   0  0  0  0  0  0  0  0  0  0  0  0
  190.1080  177.5760  145.6600 C   0  0  0  0  0  2  0  0  0  0  0  0
  191.3230  176.6810  145.7710 C   0  0  0  0  0  2  0  0  0  0  0  0
  191.5780  176.3600  147.2270 C   0  0  0  0  0  1  0  0  0  0  0  0
  185.7040  178.5860  141.3050 C   0  0  2  0  0  3  0  0  0  0  0  0
  186.1740  179.8760  141.0310 O   0  0  0  0  0  1  0  0  0  0  0  0
  184.6960  178.1640  140.2280 C   0  0  0  0  0  2  0  0  0  0  0  0
  185.0060  178.7690  138.8650 C   0  0  0  0  0  2  0  0  0  0  0  0
  185.2900  177.6850  137.8310 C   0  0  0  0  0  2  0  0  0  0  0  0
  186.0030  177.9880  135.5690 O   0  0  0  0  0  1  0  0  0  0  0  0
  186.4520  178.0260  136.8930 C   0  0  2  0  0  3  0  0  0  0  0  0
  189.7900  176.9690  138.4050 C   0  0  0  0  0  2  0  0  0  0  0  0
  188.9710  177.8370  137.4630 C   0  0  2  0  0  3  0  0  0  0  0  0
  188.7310  179.0620  138.0870 O   0  0  0  0  0  1  0  0  0  0  0  0
  190.9060  175.9060  137.5040 S   0  0  0  0  0  0  0  0  0  0  0  0
  192.1730  176.6600  137.2170 O   0  0  0  0  0  0  0  0  0  0  0  0
  187.8970  176.2570  135.8350 C   0  0  0  0  0  2  0  0  0  0  0  0
  190.2120  175.3390  135.9640 C   0  0  0  0  0  2  0  0  0  0  0  0
  187.6690  177.0980  137.0930 C   0  0  2  0  0  3  0  0  0  0  0  0
  188.7350  175.0190  136.1160 C   0  0  0  0  0  2  0  0  0  0  0  0
  191.2300  174.7140  138.3580 O   0  0  0  0  0  0  0  0  0  0  0  0
  183.7480  177.9740  142.8160 C   0  0  0  0  0  2  0  0  0  0  0  0
  182.7680  179.0840  143.1980 C   0  0  2  0  0  3  0  0  0  0  0  0
  182.1220  178.8440  144.5590 C   0  0  0  0  0  1  0  0  0  0  0  0
  181.8870  179.4420  142.1400 O   0  0  0  0  0  0  0  0  0  0  0  0
  181.1670  178.3450  141.5800 C   0  0  2  0  0  3  0  0  0  0  0  0
  180.0080  181.6520  138.8140 C   0  0  0  0  0  3  0  0  0  0  0  0
  181.6970  176.3390  136.8830 C   0  0  0  0  0  1  0  0  0  0  0  0
  181.5760  178.7780  137.0070 C   0  0  0  0  0  2  0  0  0  0  0  0
  181.0920  177.4940  137.6660 C   0  0  2  0  0  3  0  0  0  0  0  0
  181.4700  179.8760  139.6490 C   0  0  0  0  0  2  0  0  0  0  0  0
  180.7700  180.9740  136.1240 C   0  0  0  0  0  2  0  0  0  0  0  0
  180.8790  178.5290  140.0680 C   0  0  1  0  0  3  0  0  0  0  0  0
  181.4380  177.3790  139.1770 C   0  0  1  0  0  3  0  0  0  0  0  0
  179.2070  182.2860  137.7120 C   0  0  0  0  0  2  0  0  0  0  0  0
  180.0030  182.2870  136.3990 C   0  0  0  0  0  2  0  0  0  0  0  0
  180.5610  179.8950  137.1940 C   0  0  2  0  0  3  0  0  0  0  0  0
  180.6470  180.5010  138.5720 C   0  0  0  0  0  0  0  0  0  0  0  0
  181.0140  175.9950  139.6910 C   0  0  0  0  0  2  0  0  0  0  0  0
  179.5090  175.7810  139.5920 C   0  0  0  0  0  1  0  0  0  0  0  0
  180.0230  178.0190  142.3250 O   0  0  0  0  0  0  0  0  0  0  0  0
  179.0090  178.8330  141.8090 C   0  0  0  0  0  2  0  0  0  0  0  0
  178.9870  180.0510  142.4910 O   0  0  0  0  0  1  0  0  0  0  0  0
  1 30  1  0  0  0  0
  1  2  1  1  0  0  0
  3  1  1  6  0  0  0
  3  7  1  0  0  0  0
  4  3  1  0  0  0  0
  4  8  1  0  0  0  0
  6  4  2  0  0  0  0
  7  5  1  0  0  0  0
  8  9  1  1  0  0  0
  8  5  1  0  0  0  0
  9 10  1  0  0  0  0
 10 11  1  0  0  0  0
 11 12  1  0  0  0  0
 13 14  1  6  0  0  0
 13  1  1  0  0  0  0
 15 13  1  0  0  0  0
 16 15  1  0  0  0  0
 17 16  1  0  0  0  0
 19 18  1  6  0  0  0
 19 17  1  0  0  0  0
 21 22  1  1  0  0  0
 21 20  1  0  0  0  0
 23 29  2  0  0  0  0
 23 20  1  0  0  0  0
 24 23  2  0  0  0  0
 25 28  1  0  0  0  0
 25 27  1  0  0  0  0
 26 28  1  0  0  0  0
 26 23  1  0  0  0  0
 27 19  1  6  0  0  0
 27 21  1  0  0  0  0
 30 31  1  0  0  0  0
 31 32  1  1  0  0  0
 33 31  1  0  0  0  0
 34 33  1  1  0  0  0
 34 49  1  0  0  0  0
 37 45  1  0  0  0  0
 37 38  1  0  0  0  0
 38 36  1  6  0  0  0
 38 42  1  0  0  0  0
 39 41  1  0  0  0  0
 40 44  1  0  0  0  0
 41 34  1  1  0  0  0
 42 47  1  1  0  0  0
 42 41  1  0  0  0  0
 43 35  1  0  0  0  0
 44 43  1  0  0  0  0
 45 40  1  6  0  0  0
 45 46  1  0  0  0  0
 46 35  2  0  0  0  0
 46 39  1  0  0  0  0
 48 47  1  0  0  0  0
 50 49  1  0  0  0  0
 50 51  1  0  0  0  0
M  END
>  <MODEL>
3

>  <REMARK>
 VINA RESULT:      -7.5      2.169      8.461
  Name = 
  18 active torsions:
  status: ('A' for Active; 'I' for Inactive)
    1  A    between atoms: C_1  and  C_4
    2  A    between atoms: C_1  and  C_10
    3  A    between atoms: C_4  and  C_9
    4  A    between atoms: C_5  and  C_9
    5  A    between atoms: C_9  and  C_38
    6  A    between atoms: C_10  and  C_43
    7  A    between atoms: C_11  and  O_15
    8  A    between atoms: C_11  and  C_38
    9  A    between atoms: O_15  and  C_26
   10  A    between atoms: O_18  and  C_19
   11  A    between atoms: O_18  and  C_45
   12  A    between atoms: C_19  and  C_21
   13  A    between atoms: C_22  and  O_47
   14  A    between atoms: C_26  and  C_34
   15  A    between atoms: C_26  and  O_47
   16  A    between atoms: C_29  and  C_35
   17  A    between atoms: C_37  and  C_50
   18  A    between atoms: C_43  and  C_50
                            x       y       z     vdW  Elec       q    Type
                         _______ _______ _______ _____ _____    ______ ____

>  <TORSDO>
F 18

$$$$
=
 OpenBabel10222420583D

 51 54  0  0  1  0  0  0  0  0999 V2000
  188.6060  177.3270  137.1310 C   0  0  2  0  0  0  0  0  0  0  0  0
  188.0730  176.0090  137.6990 C   0  0  0  0  0  1  0  0  0  0  0  0
  190.0710  177.1530  136.6240 C   0  0  1  0  0  3  0  0  0  0  0  0
  190.8490  176.0990  137.2860 C   0  0  0  0  0  0  0  0  0  0  0  0
  190.4810  175.2830  135.1500 O   0  0  0  0  0  0  0  0  0  0  0  0
  191.3180  176.1880  138.4090 O   0  0  0  0  0  0  0  0  0  0  0  0
  190.1290  176.6560  135.1830 C   0  0  0  0  0  2  0  0  0  0  0  0
  191.1320  174.9850  136.3650 C   0  0  1  0  0  3  0  0  0  0  0  0
  192.5070  174.8840  136.1450 O   0  0  0  0  0  0  0  0  0  0  0  0
  192.8920  173.7240  136.8180 C   0  0  0  0  0  2  0  0  0  0  0  0
  194.0590  174.0330  137.7310 C   0  0  0  0  0  2  0  0  0  0  0  0
  194.9780  172.8340  137.7950 C   0  0  0  0  0  1  0  0  0  0  0  0
  188.5240  178.4380  138.2210 C   0  0  2  0  0  3  0  0  0  0  0  0
  189.0860  179.6450  137.7890 O   0  0  0  0  0  1  0  0  0  0  0  0
  189.0950  178.0650  139.5950 C   0  0  0  0  0  2  0  0  0  0  0  0
  188.2130  178.5330  140.7450 C   0  0  0  0  0  2  0  0  0  0  0  0
  188.9670  178.4980  142.0700 C   0  0  0  0  0  2  0  0  0  0  0  0
  187.1820  177.2780  143.0890 O   0  0  0  0  0  1  0  0  0  0  0  0
  188.5740  177.3180  142.9640 C   0  0  2  0  0  3  0  0  0  0  0  0
  191.4550  176.8850  145.4260 C   0  0  0  0  0  2  0  0  0  0  0  0
  190.3550  176.3070  144.5500 C   0  0  2  0  0  3  0  0  0  0  0  0
  190.9220  175.8910  143.3440 O   0  0  0  0  0  1  0  0  0  0  0  0
  191.1410  176.5720  147.1540 S   0  0  0  0  0  0  0  0  0  0  0  0
  191.6750  175.2140  147.5090 O   0  0  0  0  0  0  0  0  0  0  0  0
  188.2030  177.2340  145.4530 C   0  0  0  0  0  2  0  0  0  0  0  0
  189.4050  176.6310  147.5530 C   0  0  0  0  0  2  0  0  0  0  0  0
  189.2550  177.3690  144.3480 C   0  0  2  0  0  3  0  0  0  0  0  0
  188.7090  177.7460  146.7920 C   0  0  0  0  0  2  0  0  0  0  0  0
  191.8610  177.6080  147.9690 O   0  0  0  0  0  0  0  0  0  0  0  0
  187.7110  177.6880  135.9280 C   0  0  0  0  0  2  0  0  0  0  0  0
  186.3560  176.9790  135.9420 C   0  0  2  0  0  3  0  0  0  0  0  0
  186.0140  176.3540  134.5940 C   0  0  0  0  0  1  0  0  0  0  0  0
  185.3270  177.7480  136.5560 O   0  0  0  0  0  0  0  0  0  0  0  0
  184.5850  177.0460  137.5520 C   0  0  2  0  0  3  0  0  0  0  0  0
  184.7790  172.6300  136.9250 C   0  0  0  0  0  3  0  0  0  0  0  0
  179.8400  175.7450  136.0820 C   0  0  0  0  0  1  0  0  0  0  0  0
  181.2690  173.9180  136.8540 C   0  0  0  0  0  2  0  0  0  0  0  0
  181.2820  175.2660  136.1480 C   0  0  2  0  0  3  0  0  0  0  0  0
  183.8400  174.6960  137.8440 C   0  0  0  0  0  2  0  0  0  0  0  0
  182.1160  171.5740  136.6600 C   0  0  0  0  0  2  0  0  0  0  0  0
  183.6890  175.9310  136.9550 C   0  0  1  0  0  3  0  0  0  0  0  0
  182.1890  176.3340  136.8210 C   0  0  1  0  0  3  0  0  0  0  0  0
  184.6400  171.3620  136.1340 C   0  0  0  0  0  2  0  0  0  0  0  0
  183.3360  170.6370  136.5010 C   0  0  0  0  0  2  0  0  0  0  0  0
  182.4250  173.0500  136.3810 C   0  0  2  0  0  3  0  0  0  0  0  0
  183.7240  173.4460  137.0350 C   0  0  0  0  0  0  0  0  0  0  0  0
  182.0180  177.6760  136.0940 C   0  0  0  0  0  2  0  0  0  0  0  0
  182.2510  177.5530  134.5940 C   0  0  0  0  0  1  0  0  0  0  0  0
  183.8900  177.9130  138.4100 O   0  0  0  0  0  0  0  0  0  0  0  0
  184.8810  178.6810  139.0290 C   0  0  0  0  0  2  0  0  0  0  0  0
  184.4110  179.9790  139.2390 O   0  0  0  0  0  1  0  0  0  0  0  0
  1  2  1  1  0  0  0
  1 13  1  0  0  0  0
  3  1  1  1  0  0  0
  3  4  1  0  0  0  0
  4  6  2  0  0  0  0
  5  7  1  0  0  0  0
  5  8  1  0  0  0  0
  7  3  1  0  0  0  0
  8  9  1  6  0  0  0
  8  4  1  0  0  0  0
  9 10  1  0  0  0  0
 10 11  1  0  0  0  0
 11 12  1  0  0  0  0
 13 14  1  6  0  0  0
 13 15  1  0  0  0  0
 15 16  1  0  0  0  0
 16 17  1  0  0  0  0
 17 19  1  0  0  0  0
 19 18  1  1  0  0  0
 20 23  1  0  0  0  0
 21 22  1  6  0  0  0
 21 20  1  0  0  0  0
 23 24  2  0  0  0  0
 23 26  1  0  0  0  0
 23 29  2  0  0  0  0
 25 28  1  0  0  0  0
 27 19  1  6  0  0  0
 27 21  1  0  0  0  0
 27 25  1  0  0  0  0
 28 26  1  0  0  0  0
 30 31  1  0  0  0  0
 30  1  1  0  0  0  0
 31 32  1  6  0  0  0
 31 33  1  0  0  0  0
 34 33  1  6  0  0  0
 34 49  1  0  0  0  0
 35 46  2  0  0  0  0
 38 36  1  1  0  0  0
 38 42  1  0  0  0  0
 38 37  1  0  0  0  0
 41 34  1  1  0  0  0
 41 39  1  0  0  0  0
 42 47  1  6  0  0  0
 42 41  1  0  0  0  0
 43 44  1  0  0  0  0
 43 35  1  0  0  0  0
 44 40  1  0  0  0  0
 45 40  1  1  0  0  0
 45 37  1  0  0  0  0
 45 46  1  0  0  0  0
 46 39  1  0  0  0  0
 48 47  1  0  0  0  0
 49 50  1  0  0  0  0
 50 51  1  0  0  0  0
M  END
>  <MODEL>
4

>  <REMARK>
 VINA RESULT:      -7.5      3.599     10.014
  Name = 
  18 active torsions:
  status: ('A' for Active; 'I' for Inactive)
    1  A    between atoms: C_1  and  C_4
    2  A    between atoms: C_1  and  C_10
    3  A    between atoms: C_4  and  C_9
    4  A    between atoms: C_5  and  C_9
    5  A    between atoms: C_9  and  C_38
    6  A    between atoms: C_10  and  C_43
    7  A    between atoms: C_11  and  O_15
    8  A    between atoms: C_11  and  C_38
    9  A    between atoms: O_15  and  C_26
   10  A    between atoms: O_18  and  C_19
   11  A    between atoms: O_18  and  C_45
   12  A    between atoms: C_19  and  C_21
   13  A    between atoms: C_22  and  O_47
   14  A    between atoms: C_26  and  C_34
   15  A    between atoms: C_26  and  O_47
   16  A    between atoms: C_29  and  C_35
   17  A    between atoms: C_37  and  C_50
   18  A    between atoms: C_43  and  C_50
                            x       y       z     vdW  Elec       q    Type
                         _______ _______ _______ _____ _____    ______ ____

>  <TORSDO>
F 18

$$$$
=
 OpenBabel10222420583D

 51 54  0  0  1  0  0  0  0  0999 V2000
  188.1950  177.7110  137.9680 C   0  0  2  0  0  0  0  0  0  0  0  0
  189.0260  178.9760  137.7390 C   0  0  0  0  0  1  0  0  0  0  0  0
  188.4040  176.6980  136.8000 C   0  0  1  0  0  3  0  0  0  0  0  0
  188.6290  175.3040  137.2030 C   0  0  0  0  0  0  0  0  0  0  0  0
  186.5180  175.2920  136.2510 O   0  0  0  0  0  0  0  0  0  0  0  0
  189.6730  174.8800  137.6700 O   0  0  0  0  0  0  0  0  0  0  0  0
  187.1470  176.5260  135.9520 C   0  0  0  0  0  2  0  0  0  0  0  0
  187.4920  174.4480  136.8220 C   0  0  1  0  0  3  0  0  0  0  0  0
  187.9020  173.5020  135.8810 O   0  0  0  0  0  0  0  0  0  0  0  0
  187.6200  172.2680  136.4680 C   0  0  0  0  0  2  0  0  0  0  0  0
  186.2330  171.8200  136.0600 C   0  0  0  0  0  2  0  0  0  0  0  0
  186.2440  171.4170  134.6010 C   0  0  0  0  0  1  0  0  0  0  0  0
  186.6900  178.0910  138.1110 C   0  0  2  0  0  3  0  0  0  0  0  0
  186.3650  179.2420  137.3840 O   0  0  0  0  0  1  0  0  0  0  0  0
  186.1720  178.2250  139.5490 C   0  0  0  0  0  2  0  0  0  0  0  0
  184.7740  178.8250  139.6160 C   0  0  0  0  0  2  0  0  0  0  0  0
  183.7290  177.7600  139.9290 C   0  0  0  0  0  2  0  0  0  0  0  0
  181.5850  178.7080  139.4630 O   0  0  0  0  0  1  0  0  0  0  0  0
  182.5250  177.7900  138.9840 C   0  0  2  0  0  3  0  0  0  0  0  0
  182.0490  174.4110  137.2800 C   0  0  0  0  0  2  0  0  0  0  0  0
  181.8630  175.9190  137.3190 C   0  0  2  0  0  3  0  0  0  0  0  0
  182.8660  176.5080  136.5480 O   0  0  0  0  0  1  0  0  0  0  0  0
  180.4810  173.5610  137.3570 S   0  0  0  0  0  0  0  0  0  0  0  0
  179.9160  173.4520  135.9710 O   0  0  0  0  0  0  0  0  0  0  0  0
  180.4690  176.3850  139.3540 C   0  0  0  0  0  2  0  0  0  0  0  0
  179.3020  174.4010  138.3960 C   0  0  0  0  0  2  0  0  0  0  0  0
  181.8900  176.3970  138.7860 C   0  0  2  0  0  3  0  0  0  0  0  0
  179.9740  174.9750  139.6310 C   0  0  0  0  0  2  0  0  0  0  0  0
  180.7090  172.1800  137.9020 O   0  0  0  0  0  0  0  0  0  0  0  0
  188.7130  177.0680  139.2710 C   0  0  0  0  0  2  0  0  0  0  0  0
  189.8940  177.8160  139.8920 C   0  0  2  0  0  3  0  0  0  0  0  0
  191.2120  177.0680  139.7150 C   0  0  0  0  0  1  0  0  0  0  0  0
  189.6220  178.3060  141.2000 O   0  0  0  0  0  0  0  0  0  0  0  0
  189.4000  177.2870  142.1730 C   0  0  2  0  0  3  0  0  0  0  0  0
  185.2360  178.5290  143.2000 C   0  0  0  0  0  3  0  0  0  0  0  0
  189.4270  177.7790  147.2850 C   0  0  0  0  0  1  0  0  0  0  0  0
  187.2280  177.6110  146.2290 C   0  0  0  0  0  2  0  0  0  0  0  0
  188.6500  178.1140  146.0210 C   0  0  2  0  0  3  0  0  0  0  0  0
  187.2480  177.1490  143.4030 C   0  0  0  0  0  2  0  0  0  0  0  0
  184.8350  178.3100  146.0410 C   0  0  0  0  0  2  0  0  0  0  0  0
  188.6290  177.8050  143.4150 C   0  0  1  0  0  3  0  0  0  0  0  0
  189.3580  177.5330  144.7650 C   0  0  1  0  0  3  0  0  0  0  0  0
  184.1940  179.4300  143.7990 C   0  0  0  0  0  2  0  0  0  0  0  0
  183.7080  178.8720  145.1440 C   0  0  0  0  0  2  0  0  0  0  0  0
  186.2380  178.4520  145.4380 C   0  0  2  0  0  3  0  0  0  0  0  0
  186.2220  178.0690  143.9790 C   0  0  0  0  0  0  0  0  0  0  0  0
  190.8170  178.0130  144.7380 C   0  0  0  0  0  2  0  0  0  0  0  0
  190.9390  179.4600  144.2800 C   0  0  0  0  0  1  0  0  0  0  0  0
  190.5760  176.5960  142.5020 O   0  0  0  0  0  0  0  0  0  0  0  0
  190.1540  175.3110  142.8600 C   0  0  0  0  0  2  0  0  0  0  0  0
  191.1500  174.6760  143.6040 O   0  0  0  0  0  1  0  0  0  0  0  0
  1  2  1  6  0  0  0
  1 13  1  0  0  0  0
  1 30  1  0  0  0  0
  3  4  1  0  0  0  0
  3  1  1  1  0  0  0
  4  6  2  0  0  0  0
  5  8  1  0  0  0  0
  7  5  1  0  0  0  0
  7  3  1  0  0  0  0
  8  9  1  6  0  0  0
  8  4  1  0  0  0  0
  9 10  1  0  0  0  0
 11 10  1  0  0  0  0
 12 11  1  0  0  0  0
 13 14  1  6  0  0  0
 13 15  1  0  0  0  0
 15 16  1  0  0  0  0
 16 17  1  0  0  0  0
 19 18  1  1  0  0  0
 19 17  1  0  0  0  0
 20 21  1  0  0  0  0
 20 23  1  0  0  0  0
 21 22  1  6  0  0  0
 21 27  1  0  0  0  0
 23 29  2  0  0  0  0
 23 26  1  0  0  0  0
 24 23  2  0  0  0  0
 25 28  1  0  0  0  0
 26 28  1  0  0  0  0
 27 19  1  6  0  0  0
 27 25  1  0  0  0  0
 30 31  1  0  0  0  0
 31 32  1  1  0  0  0
 31 33  1  0  0  0  0
 34 33  1  6  0  0  0
 34 49  1  0  0  0  0
 35 43  1  0  0  0  0
 35 46  2  0  0  0  0
 38 37  1  0  0  0  0
 38 36  1  1  0  0  0
 39 41  1  0  0  0  0
 39 46  1  0  0  0  0
 41 34  1  6  0  0  0
 41 42  1  0  0  0  0
 42 47  1  6  0  0  0
 42 38  1  0  0  0  0
 43 44  1  0  0  0  0
 44 40  1  0  0  0  0
 45 40  1  1  0  0  0
 45 37  1  0  0  0  0
 46 45  1  0  0  0  0
 48 47  1  0  0  0  0
 49 50  1  0  0  0  0
 50 51  1  0  0  0  0
M  END
>  <MODEL>
5

>  <REMARK>
 VINA RESULT:      -7.3      3.291      7.827
  Name = 
  18 active torsions:
  status: ('A' for Active; 'I' for Inactive)
    1  A    between atoms: C_1  and  C_4
    2  A    between atoms: C_1  and  C_10
    3  A    between atoms: C_4  and  C_9
    4  A    between atoms: C_5  and  C_9
    5  A    between atoms: C_9  and  C_38
    6  A    between atoms: C_10  and  C_43
    7  A    between atoms: C_11  and  O_15
    8  A    between atoms: C_11  and  C_38
    9  A    between atoms: O_15  and  C_26
   10  A    between atoms: O_18  and  C_19
   11  A    between atoms: O_18  and  C_45
   12  A    between atoms: C_19  and  C_21
   13  A    between atoms: C_22  and  O_47
   14  A    between atoms: C_26  and  C_34
   15  A    between atoms: C_26  and  O_47
   16  A    between atoms: C_29  and  C_35
   17  A    between atoms: C_37  and  C_50
   18  A    between atoms: C_43  and  C_50
                            x       y       z     vdW  Elec       q    Type
                         _______ _______ _______ _____ _____    ______ ____

>  <TORSDO>
F 18

$$$$
=
 OpenBabel10222420583D

 51 54  0  0  1  0  0  0  0  0999 V2000
  188.7490  177.5190  142.8840 C   0  0  2  0  0  0  0  0  0  0  0  0
  188.9170  175.9990  142.8100 C   0  0  0  0  0  1  0  0  0  0  0  0
  189.6650  178.1190  143.9950 C   0  0  1  0  0  3  0  0  0  0  0  0
  189.7400  177.3440  145.2400 C   0  0  0  0  0  0  0  0  0  0  0  0
  191.8290  177.0820  144.2750 O   0  0  0  0  0  0  0  0  0  0  0  0
  188.8580  177.3020  146.0820 O   0  0  0  0  0  0  0  0  0  0  0  0
  191.1370  178.1150  143.5950 C   0  0  0  0  0  2  0  0  0  0  0  0
  191.0780  176.7540  145.4230 C   0  0  1  0  0  3  0  0  0  0  0  0
  191.6890  177.3000  146.5530 O   0  0  0  0  0  0  0  0  0  0  0  0
  191.4580  176.3700  147.5680 C   0  0  0  0  0  2  0  0  0  0  0  0
  192.7380  175.6220  147.8690 C   0  0  0  0  0  2  0  0  0  0  0  0
  193.2460  176.0270  149.2360 C   0  0  0  0  0  1  0  0  0  0  0  0
  187.2530  177.8690  143.1490 C   0  0  2  0  0  3  0  0  0  0  0  0
  186.5520  176.7980  143.7170 O   0  0  0  0  0  1  0  0  0  0  0  0
  186.4740  178.4160  141.9460 C   0  0  0  0  0  2  0  0  0  0  0  0
  185.3520  179.3610  142.3530 C   0  0  0  0  0  2  0  0  0  0  0  0
  184.0300  178.6160  142.5060 C   0  0  0  0  0  2  0  0  0  0  0  0
  181.7340  179.0720  142.0220 O   0  0  0  0  0  1  0  0  0  0  0  0
  182.9990  178.9780  141.4330 C   0  0  2  0  0  3  0  0  0  0  0  0
  184.2300  177.4900  138.1440 C   0  0  0  0  0  2  0  0  0  0  0  0
  183.4970  178.5690  138.9240 C   0  0  2  0  0  3  0  0  0  0  0  0
  184.3660  179.6450  139.1140 O   0  0  0  0  0  1  0  0  0  0  0  0
  183.1180  176.5950  137.0730 S   0  0  0  0  0  0  0  0  0  0  0  0
  182.9860  177.3380  135.7750 O   0  0  0  0  0  0  0  0  0  0  0  0
  181.5830  177.4110  140.0630 C   0  0  0  0  0  2  0  0  0  0  0  0
  181.4990  176.3920  137.7880 C   0  0  0  0  0  2  0  0  0  0  0  0
  182.9910  177.9790  140.2560 C   0  0  2  0  0  3  0  0  0  0  0  0
  181.5920  176.1090  139.2780 C   0  0  0  0  0  2  0  0  0  0  0  0
  183.7010  175.2380  136.8010 O   0  0  0  0  0  0  0  0  0  0  0  0
  189.1980  178.0840  141.5210 C   0  0  0  0  0  2  0  0  0  0  0  0
  189.9540  177.0690  140.6610 C   0  0  2  0  0  3  0  0  0  0  0  0
  191.3900  177.4990  140.3830 C   0  0  0  0  0  1  0  0  0  0  0  0
  189.2050  176.6210  139.5370 O   0  0  0  0  0  0  0  0  0  0  0  0
  189.9990  176.2710  138.4040 C   0  0  2  0  0  3  0  0  0  0  0  0
  188.3580  172.7200  136.2540 C   0  0  0  0  0  3  0  0  0  0  0  0
  186.7980  178.2490  134.9110 C   0  0  0  0  0  1  0  0  0  0  0  0
  186.5310  175.8670  135.3930 C   0  0  0  0  0  2  0  0  0  0  0  0
  187.5530  176.9920  135.3160 C   0  0  2  0  0  3  0  0  0  0  0  0
  188.2000  174.8340  137.4770 C   0  0  0  0  0  2  0  0  0  0  0  0
  186.1120  173.5190  134.6420 C   0  0  0  0  0  2  0  0  0  0  0  0
  189.1470  175.9860  137.1410 C   0  0  1  0  0  3  0  0  0  0  0  0
  188.3510  177.2250  136.6290 C   0  0  1  0  0  3  0  0  0  0  0  0
  188.0690  171.8750  135.0460 C   0  0  0  0  0  2  0  0  0  0  0  0
  186.6110  172.0560  134.5980 C   0  0  0  0  0  2  0  0  0  0  0  0
  187.1800  174.5270  135.0850 C   0  0  2  0  0  3  0  0  0  0  0  0
  187.9450  173.9920  136.2710 C   0  0  0  0  0  0  0  0  0  0  0  0
  189.2500  178.4590  136.4650 C   0  0  0  0  0  2  0  0  0  0  0  0
  189.0070  179.4980  137.5520 C   0  0  0  0  0  1  0  0  0  0  0  0
  190.9200  175.2500  138.6920 O   0  0  0  0  0  0  0  0  0  0  0  0
  191.7760  175.2130  137.5870 C   0  0  0  0  0  2  0  0  0  0  0  0
  192.5530  174.0540  137.6290 O   0  0  0  0  0  1  0  0  0  0  0  0
  1  2  1  6  0  0  0
  1 13  1  0  0  0  0
  3  1  1  6  0  0  0
  3  4  1  0  0  0  0
  4  8  1  0  0  0  0
  4  6  2  0  0  0  0
  5  8  1  0  0  0  0
  7  3  1  0  0  0  0
  7  5  1  0  0  0  0
  8  9  1  1  0  0  0
  9 10  1  0  0  0  0
 10 11  1  0  0  0  0
 11 12  1  0  0  0  0
 13 14  1  6  0  0  0
 15 16  1  0  0  0  0
 15 13  1  0  0  0  0
 16 17  1  0  0  0  0
 19 18  1  1  0  0  0
 19 17  1  0  0  0  0
 20 21  1  0  0  0  0
 21 22  1  1  0  0  0
 21 27  1  0  0  0  0
 23 26  1  0  0  0  0
 23 20  1  0  0  0  0
 24 23  2  0  0  0  0
 25 27  1  0  0  0  0
 26 28  1  0  0  0  0
 27 19  1  1  0  0  0
 28 25  1  0  0  0  0
 29 23  2  0  0  0  0
 30  1  1  0  0  0  0
 31 32  1  6  0  0  0
 31 30  1  0  0  0  0
 33 31  1  0  0  0  0
 34 49  1  1  0  0  0
 34 33  1  0  0  0  0
 35 46  2  0  0  0  0
 38 36  1  1  0  0  0
 38 37  1  0  0  0  0
 38 42  1  0  0  0  0
 41 39  1  0  0  0  0
 41 34  1  1  0  0  0
 42 47  1  6  0  0  0
 42 41  1  0  0  0  0
 43 35  1  0  0  0  0
 44 40  1  0  0  0  0
 44 43  1  0  0  0  0
 45 40  1  1  0  0  0
 45 37  1  0  0  0  0
 45 46  1  0  0  0  0
 46 39  1  0  0  0  0
 47 48  1  0  0  0  0
 50 51  1  0  0  0  0
 50 49  1  0  0  0  0
M  END
>  <MODEL>
6

>  <REMARK>
 VINA RESULT:      -7.3      2.814      9.974
  Name = 
  18 active torsions:
  status: ('A' for Active; 'I' for Inactive)
    1  A    between atoms: C_1  and  C_4
    2  A    between atoms: C_1  and  C_10
    3  A    between atoms: C_4  and  C_9
    4  A    between atoms: C_5  and  C_9
    5  A    between atoms: C_9  and  C_38
    6  A    between atoms: C_10  and  C_43
    7  A    between atoms: C_11  and  O_15
    8  A    between atoms: C_11  and  C_38
    9  A    between atoms: O_15  and  C_26
   10  A    between atoms: O_18  and  C_19
   11  A    between atoms: O_18  and  C_45
   12  A    between atoms: C_19  and  C_21
   13  A    between atoms: C_22  and  O_47
   14  A    between atoms: C_26  and  C_34
   15  A    between atoms: C_26  and  O_47
   16  A    between atoms: C_29  and  C_35
   17  A    between atoms: C_37  and  C_50
   18  A    between atoms: C_43  and  C_50
                            x       y       z     vdW  Elec       q    Type
                         _______ _______ _______ _____ _____    ______ ____

>  <TORSDO>
F 18

$$$$
=
 OpenBabel10222420583D

 51 54  0  0  1  0  0  0  0  0999 V2000
  187.7240  177.6150  137.7040 C   0  0  2  0  0  0  0  0  0  0  0  0
  188.6750  178.7530  137.3240 C   0  0  0  0  0  1  0  0  0  0  0  0
  188.1580  176.9680  139.0560 C   0  0  1  0  0  3  0  0  0  0  0  0
  189.6000  176.7480  139.2190 C   0  0  0  0  0  0  0  0  0  0  0  0
  189.1090  178.4580  140.7020 O   0  0  0  0  0  0  0  0  0  0  0  0
  190.2310  175.8620  138.6680 O   0  0  0  0  0  0  0  0  0  0  0  0
  187.8960  177.8840  140.2470 C   0  0  0  0  0  2  0  0  0  0  0  0
  190.1610  177.6310  140.2580 C   0  0  1  0  0  3  0  0  0  0  0  0
  190.6390  176.8680  141.3250 O   0  0  0  0  0  0  0  0  0  0  0  0
  191.6120  177.6660  141.9270 C   0  0  0  0  0  2  0  0  0  0  0  0
  191.5430  177.4990  143.4300 C   0  0  0  0  0  2  0  0  0  0  0  0
  190.3980  178.3230  143.9750 C   0  0  0  0  0  1  0  0  0  0  0  0
  187.6960  176.5520  136.5640 C   0  0  2  0  0  3  0  0  0  0  0  0
  187.5660  175.2490  137.0590 O   0  0  0  0  0  1  0  0  0  0  0  0
  188.8640  176.6130  135.5700 C   0  0  0  0  0  2  0  0  0  0  0  0
  189.3740  175.2320  135.1790 C   0  0  0  0  0  2  0  0  0  0  0  0
  190.8900  175.1430  135.3200 C   0  0  0  0  0  2  0  0  0  0  0  0
  190.5870  173.3800  136.9060 O   0  0  0  0  0  1  0  0  0  0  0  0
  191.3760  173.7800  135.8230 C   0  0  2  0  0  3  0  0  0  0  0  0
  194.9870  172.5620  135.6770 C   0  0  0  0  0  2  0  0  0  0  0  0
  193.5450  172.3990  136.1290 C   0  0  2  0  0  3  0  0  0  0  0  0
  192.8990  171.5360  135.2430 O   0  0  0  0  0  1  0  0  0  0  0  0
  196.0830  172.7830  137.0680 S   0  0  0  0  0  0  0  0  0  0  0  0
  196.4800  171.4340  137.5950 O   0  0  0  0  0  0  0  0  0  0  0  0
  193.0590  174.3760  137.5970 C   0  0  0  0  0  2  0  0  0  0  0  0
  195.3320  173.7180  138.3850 C   0  0  0  0  0  2  0  0  0  0  0  0
  192.8730  173.7850  136.1970 C   0  0  2  0  0  3  0  0  0  0  0  0
  194.4840  174.8520  137.8340 C   0  0  0  0  0  2  0  0  0  0  0  0
  197.3140  173.5060  136.6000 O   0  0  0  0  0  0  0  0  0  0  0  0
  186.3280  178.2420  137.8880 C   0  0  0  0  0  2  0  0  0  0  0  0
  185.1850  177.2330  137.7580 C   0  0  2  0  0  3  0  0  0  0  0  0
  184.4300  177.3780  136.4410 C   0  0  0  0  0  1  0  0  0  0  0  0
  184.3860  177.1380  138.9320 O   0  0  0  0  0  0  0  0  0  0  0  0
  184.1240  178.3890  139.5660 C   0  0  2  0  0  3  0  0  0  0  0  0
  186.5460  177.8910  143.2820 C   0  0  0  0  0  3  0  0  0  0  0  0
  180.7570  179.0210  143.3910 C   0  0  0  0  0  1  0  0  0  0  0  0
  183.1190  179.2080  143.9910 C   0  0  0  0  0  2  0  0  0  0  0  0
  182.1480  178.5110  143.0480 C   0  0  2  0  0  3  0  0  0  0  0  0
  184.9650  179.0400  141.8090 C   0  0  0  0  0  2  0  0  0  0  0  0
  185.0180  178.7670  145.5570 C   0  0  0  0  0  2  0  0  0  0  0  0
  183.8740  178.2470  141.0880 C   0  0  1  0  0  3  0  0  0  0  0  0
  182.4580  178.7200  141.5400 C   0  0  1  0  0  3  0  0  0  0  0  0
  186.8980  177.2680  144.6030 C   0  0  0  0  0  2  0  0  0  0  0  0
  186.4240  178.1580  145.7610 C   0  0  0  0  0  2  0  0  0  0  0  0
  184.3380  178.3360  144.2510 C   0  0  2  0  0  3  0  0  0  0  0  0
  185.3180  178.3910  143.1060 C   0  0  0  0  0  0  0  0  0  0  0  0
  181.3430  178.0800  140.6990 C   0  0  0  0  0  2  0  0  0  0  0  0
  180.2290  179.0670  140.3730 C   0  0  0  0  0  1  0  0  0  0  0  0
  183.1240  179.1230  138.9070 O   0  0  0  0  0  0  0  0  0  0  0  0
  183.5880  180.4430  138.9010 C   0  0  0  0  0  2  0  0  0  0  0  0
  182.5170  181.3200  138.7200 O   0  0  0  0  0  1  0  0  0  0  0  0
  1  2  1  6  0  0  0
  1 30  1  0  0  0  0
  3  1  1  6  0  0  0
  3  4  1  0  0  0  0
  3  7  1  0  0  0  0
  4  8  1  0  0  0  0
  6  4  2  0  0  0  0
  7  5  1  0  0  0  0
  8  5  1  0  0  0  0
  8  9  1  1  0  0  0
  9 10  1  0  0  0  0
 10 11  1  0  0  0  0
 11 12  1  0  0  0  0
 13 14  1  1  0  0  0
 13  1  1  0  0  0  0
 15 13  1  0  0  0  0
 16 17  1  0  0  0  0
 16 15  1  0  0  0  0
 17 19  1  0  0  0  0
 19 18  1  1  0  0  0
 20 21  1  0  0  0  0
 20 23  1  0  0  0  0
 21 22  1  6  0  0  0
 21 27  1  0  0  0  0
 23 24  2  0  0  0  0
 23 26  1  0  0  0  0
 25 28  1  0  0  0  0
 27 19  1  1  0  0  0
 27 25  1  0  0  0  0
 28 26  1  0  0  0  0
 29 23  2  0  0  0  0
 31 32  1  6  0  0  0
 31 30  1  0  0  0  0
 31 33  1  0  0  0  0
 33 34  1  0  0  0  0
 34 49  1  6  0  0  0
 35 43  1  0  0  0  0
 38 36  1  6  0  0  0
 38 37  1  0  0  0  0
 39 46  1  0  0  0  0
 40 44  1  0  0  0  0
 41 34  1  6  0  0  0
 41 42  1  0  0  0  0
 41 39  1  0  0  0  0
 42 47  1  6  0  0  0
 42 38  1  0  0  0  0
 43 44  1  0  0  0  0
 45 37  1  6  0  0  0
 45 40  1  0  0  0  0
 46 35  2  0  0  0  0
 46 45  1  0  0  0  0
 48 47  1  0  0  0  0
 50 49  1  0  0  0  0
 51 50  1  0  0  0  0
M  END
>  <MODEL>
7

>  <REMARK>
 VINA RESULT:      -7.2      2.615      6.789
  Name = 
  18 active torsions:
  status: ('A' for Active; 'I' for Inactive)
    1  A    between atoms: C_1  and  C_4
    2  A    between atoms: C_1  and  C_10
    3  A    between atoms: C_4  and  C_9
    4  A    between atoms: C_5  and  C_9
    5  A    between atoms: C_9  and  C_38
    6  A    between atoms: C_10  and  C_43
    7  A    between atoms: C_11  and  O_15
    8  A    between atoms: C_11  and  C_38
    9  A    between atoms: O_15  and  C_26
   10  A    between atoms: O_18  and  C_19
   11  A    between atoms: O_18  and  C_45
   12  A    between atoms: C_19  and  C_21
   13  A    between atoms: C_22  and  O_47
   14  A    between atoms: C_26  and  C_34
   15  A    between atoms: C_26  and  O_47
   16  A    between atoms: C_29  and  C_35
   17  A    between atoms: C_37  and  C_50
   18  A    between atoms: C_43  and  C_50
                            x       y       z     vdW  Elec       q    Type
                         _______ _______ _______ _____ _____    ______ ____

>  <TORSDO>
F 18

$$$$
=
 OpenBabel10222420583D

 51 54  0  0  1  0  0  0  0  0999 V2000
  188.9280  177.4880  143.0530 C   0  0  2  0  0  0  0  0  0  0  0  0
  189.0340  175.9600  143.0600 C   0  0  0  0  0  1  0  0  0  0  0  0
  189.7770  178.1010  144.2100 C   0  0  1  0  0  3  0  0  0  0  0  0
  189.8110  177.3200  145.4530 C   0  0  0  0  0  0  0  0  0  0  0  0
  191.9490  177.1130  144.5870 O   0  0  0  0  0  0  0  0  0  0  0  0
  188.8910  177.2520  146.2510 O   0  0  0  0  0  0  0  0  0  0  0  0
  191.2660  178.1340  143.8800 C   0  0  0  0  0  2  0  0  0  0  0  0
  191.1520  176.7600  145.6950 C   0  0  1  0  0  3  0  0  0  0  0  0
  191.6960  177.3120  146.8570 O   0  0  0  0  0  0  0  0  0  0  0  0
  191.5130  176.3350  147.8360 C   0  0  0  0  0  2  0  0  0  0  0  0
  192.8260  175.6280  148.0950 C   0  0  0  0  0  2  0  0  0  0  0  0
  193.4350  176.1530  149.3760 C   0  0  0  0  0  1  0  0  0  0  0  0
  187.4330  177.9100  143.1770 C   0  0  2  0  0  3  0  0  0  0  0  0
  186.6560  176.9270  143.8020 O   0  0  0  0  0  1  0  0  0  0  0  0
  186.7560  178.3520  141.8730 C   0  0  0  0  0  2  0  0  0  0  0  0
  185.5680  179.2740  142.1110 C   0  0  0  0  0  2  0  0  0  0  0  0
  184.2830  178.4780  142.3150 C   0  0  0  0  0  2  0  0  0  0  0  0
  181.9530  178.6890  141.8280 O   0  0  0  0  0  1  0  0  0  0  0  0
  183.2220  178.7490  141.2440 C   0  0  2  0  0  3  0  0  0  0  0  0
  184.6030  177.4980  137.9160 C   0  0  0  0  0  2  0  0  0  0  0  0
  183.7490  178.4620  138.7250 C   0  0  2  0  0  3  0  0  0  0  0  0
  184.4810  179.6310  138.9360 O   0  0  0  0  0  1  0  0  0  0  0  0
  183.6020  176.4980  136.8290 S   0  0  0  0  0  0  0  0  0  0  0  0
  183.3700  177.2490  135.5500 O   0  0  0  0  0  0  0  0  0  0  0  0
  181.9990  177.0520  139.8440 C   0  0  0  0  0  2  0  0  0  0  0  0
  182.0240  176.0830  137.5460 C   0  0  0  0  0  2  0  0  0  0  0  0
  183.3280  177.7840  140.0450 C   0  0  2  0  0  3  0  0  0  0  0  0
  182.1620  175.7790  139.0280 C   0  0  0  0  0  2  0  0  0  0  0  0
  184.3440  175.2290  136.5230 O   0  0  0  0  0  0  0  0  0  0  0  0
  189.5120  177.9690  141.7090 C   0  0  0  0  0  2  0  0  0  0  0  0
  190.4080  176.9320  141.0280 C   0  0  2  0  0  3  0  0  0  0  0  0
  191.7710  177.5020  140.6490 C   0  0  0  0  0  1  0  0  0  0  0  0
  189.7360  176.1890  140.0180 O   0  0  0  0  0  0  0  0  0  0  0  0
  189.5570  176.8960  138.7910 C   0  0  2  0  0  3  0  0  0  0  0  0
  193.5430  176.3780  136.8480 C   0  0  0  0  0  3  0  0  0  0  0  0
  188.8360  173.1510  135.3520 C   0  0  0  0  0  1  0  0  0  0  0  0
  191.1570  173.6460  135.9370 C   0  0  0  0  0  2  0  0  0  0  0  0
  189.7770  174.2680  135.7750 C   0  0  2  0  0  3  0  0  0  0  0  0
  191.5220  175.6050  137.9930 C   0  0  0  0  0  2  0  0  0  0  0  0
  193.5550  173.9550  135.2970 C   0  0  0  0  0  2  0  0  0  0  0  0
  190.1520  176.1410  137.5750 C   0  0  1  0  0  3  0  0  0  0  0  0
  189.2460  174.9880  137.0460 C   0  0  1  0  0  3  0  0  0  0  0  0
  194.4940  176.3330  135.6870 C   0  0  0  0  0  2  0  0  0  0  0  0
  194.7940  174.8800  135.2910 C   0  0  0  0  0  2  0  0  0  0  0  0
  192.2460  174.6700  135.6570 C   0  0  2  0  0  3  0  0  0  0  0  0
  192.4600  175.5920  136.8310 C   0  0  0  0  0  0  0  0  0  0  0  0
  187.8050  175.4580  136.7980 C   0  0  0  0  0  2  0  0  0  0  0  0
  187.7170  176.4770  135.6700 C   0  0  0  0  0  1  0  0  0  0  0  0
  189.9830  178.2310  138.8760 O   0  0  0  0  0  0  0  0  0  0  0  0
  189.0540  178.9560  138.1240 C   0  0  0  0  0  2  0  0  0  0  0  0
  187.7590  178.6270  138.5270 O   0  0  0  0  0  1  0  0  0  0  0  0
  1  2  1  1  0  0  0
  1 13  1  0  0  0  0
  3  1  1  6  0  0  0
  3  4  1  0  0  0  0
  4  8  1  0  0  0  0
  4  6  2  0  0  0  0
  5  8  1  0  0  0  0
  7  3  1  0  0  0  0
  7  5  1  0  0  0  0
  8  9  1  1  0  0  0
  9 10  1  0  0  0  0
 10 11  1  0  0  0  0
 11 12  1  0  0  0  0
 13 14  1  6  0  0  0
 15 16  1  0  0  0  0
 15 13  1  0  0  0  0
 16 17  1  0  0  0  0
 19 18  1  1  0  0  0
 19 17  1  0  0  0  0
 20 21  1  0  0  0  0
 21 22  1  1  0  0  0
 21 27  1  0  0  0  0
 23 26  1  0  0  0  0
 23 20  1  0  0  0  0
 24 23  2  0  0  0  0
 25 27  1  0  0  0  0
 26 28  1  0  0  0  0
 27 19  1  1  0  0  0
 28 25  1  0  0  0  0
 29 23  2  0  0  0  0
 30  1  1  0  0  0  0
 31 32  1  6  0  0  0
 31 30  1  0  0  0  0
 33 31  1  0  0  0  0
 34 49  1  1  0  0  0
 34 33  1  0  0  0  0
 38 36  1  1  0  0  0
 38 37  1  0  0  0  0
 38 42  1  0  0  0  0
 41 39  1  0  0  0  0
 41 34  1  1  0  0  0
 42 47  1  6  0  0  0
 42 41  1  0  0  0  0
 43 35  1  0  0  0  0
 44 40  1  0  0  0  0
 44 43  1  0  0  0  0
 45 40  1  1  0  0  0
 45 37  1  0  0  0  0
 45 46  1  0  0  0  0
 46 35  2  0  0  0  0
 46 39  1  0  0  0  0
 48 47  1  0  0  0  0
 50 51  1  0  0  0  0
 50 49  1  0  0  0  0
M  END
>  <MODEL>
8

>  <REMARK>
 VINA RESULT:      -7.2      2.967      9.629
  Name = 
  18 active torsions:
  status: ('A' for Active; 'I' for Inactive)
    1  A    between atoms: C_1  and  C_4
    2  A    between atoms: C_1  and  C_10
    3  A    between atoms: C_4  and  C_9
    4  A    between atoms: C_5  and  C_9
    5  A    between atoms: C_9  and  C_38
    6  A    between atoms: C_10  and  C_43
    7  A    between atoms: C_11  and  O_15
    8  A    between atoms: C_11  and  C_38
    9  A    between atoms: O_15  and  C_26
   10  A    between atoms: O_18  and  C_19
   11  A    between atoms: O_18  and  C_45
   12  A    between atoms: C_19  and  C_21
   13  A    between atoms: C_22  and  O_47
   14  A    between atoms: C_26  and  C_34
   15  A    between atoms: C_26  and  O_47
   16  A    between atoms: C_29  and  C_35
   17  A    between atoms: C_37  and  C_50
   18  A    between atoms: C_43  and  C_50
                            x       y       z     vdW  Elec       q    Type
                         _______ _______ _______ _____ _____    ______ ____

>  <TORSDO>
F 18

$$$$
=
 OpenBabel10222420583D

 51 54  0  0  1  0  0  0  0  0999 V2000
  183.8520  178.1620  138.8870 C   0  0  2  0  0  0  0  0  0  0  0  0
  183.1300  176.8310  139.1130 C   0  0  0  0  0  1  0  0  0  0  0  0
  182.9790  179.1190  138.0170 C   0  0  1  0  0  3  0  0  0  0  0  0
  181.6030  178.6700  137.7700 C   0  0  0  0  0  0  0  0  0  0  0  0
  181.3680  180.4740  139.2020 O   0  0  0  0  0  0  0  0  0  0  0  0
  181.2950  177.7850  136.9880 O   0  0  0  0  0  0  0  0  0  0  0  0
  182.6990  180.4450  138.7190 C   0  0  0  0  0  2  0  0  0  0  0  0
  180.6270  179.5320  138.4610 C   0  0  1  0  0  3  0  0  0  0  0  0
  179.8300  180.1940  137.5250 O   0  0  0  0  0  0  0  0  0  0  0  0
  179.6000  181.4540  138.0810 C   0  0  0  0  0  2  0  0  0  0  0  0
  179.6180  182.4990  136.9860 C   0  0  0  0  0  2  0  0  0  0  0  0
  180.3840  181.9650  135.7950 C   0  0  0  0  0  1  0  0  0  0  0  0
  185.2320  177.9020  138.2100 C   0  0  2  0  0  3  0  0  0  0  0  0
  186.0890  179.0040  138.3150 O   0  0  0  0  0  1  0  0  0  0  0  0
  185.1780  177.4270  136.7520 C   0  0  0  0  0  2  0  0  0  0  0  0
  186.3200  176.4830  136.3990 C   0  0  0  0  0  2  0  0  0  0  0  0
  186.1900  175.1570  137.1410 C   0  0  0  0  0  2  0  0  0  0  0  0
  185.7770  174.3910  134.9150 O   0  0  0  0  0  1  0  0  0  0  0  0
  185.6900  174.0100  136.2570 C   0  0  2  0  0  3  0  0  0  0  0  0
  182.9750  171.5000  137.1940 C   0  0  0  0  0  2  0  0  0  0  0  0
  183.9140  172.1270  136.1760 C   0  0  2  0  0  3  0  0  0  0  0  0
  185.0470  171.3190  136.0620 O   0  0  0  0  0  1  0  0  0  0  0  0
  181.2670  171.8030  136.7750 S   0  0  0  0  0  0  0  0  0  0  0  0
  180.8060  170.7480  135.8120 O   0  0  0  0  0  0  0  0  0  0  0  0
  183.2410  174.5400  136.0180 C   0  0  0  0  0  2  0  0  0  0  0  0
  181.0210  173.4050  136.0360 C   0  0  0  0  0  2  0  0  0  0  0  0
  184.2570  173.5640  136.6170 C   0  0  2  0  0  3  0  0  0  0  0  0
  181.8880  174.4550  136.7070 C   0  0  0  0  0  2  0  0  0  0  0  0
  180.4420  171.7150  138.0270 O   0  0  0  0  0  0  0  0  0  0  0  0
  184.0480  178.8050  140.2750 C   0  0  0  0  0  2  0  0  0  0  0  0
  183.3770  178.0250  141.4070 C   0  0  2  0  0  3  0  0  0  0  0  0
  182.0110  178.5960  141.7750 C   0  0  0  0  0  1  0  0  0  0  0  0
  184.2540  177.7480  142.4930 O   0  0  0  0  0  0  0  0  0  0  0  0
  185.3310  178.6740  142.6280 C   0  0  2  0  0  3  0  0  0  0  0  0
  188.5270  177.6080  139.7000 C   0  0  0  0  0  3  0  0  0  0  0  0
  189.2790  177.1430  145.5330 C   0  0  0  0  0  1  0  0  0  0  0  0
  189.8030  177.7110  143.2130 C   0  0  0  0  0  2  0  0  0  0  0  0
  188.7190  177.1420  144.1190 C   0  0  2  0  0  3  0  0  0  0  0  0
  187.6210  178.7400  141.6710 C   0  0  0  0  0  2  0  0  0  0  0  0
  191.0300  177.2730  141.0790 C   0  0  0  0  0  2  0  0  0  0  0  0
  186.7170  177.9810  142.6430 C   0  0  1  0  0  3  0  0  0  0  0  0
  187.3670  177.9070  144.0580 C   0  0  1  0  0  3  0  0  0  0  0  0
  189.5300  176.6950  139.0530 C   0  0  0  0  0  2  0  0  0  0  0  0
  190.9460  177.0050  139.5590 C   0  0  0  0  0  2  0  0  0  0  0  0
  189.6870  177.1390  141.8090 C   0  0  2  0  0  3  0  0  0  0  0  0
  188.5920  177.8120  141.0200 C   0  0  0  0  0  0  0  0  0  0  0  0
  186.4050  177.3200  145.1030 C   0  0  0  0  0  2  0  0  0  0  0  0
  186.6730  177.8620  146.5010 C   0  0  0  0  0  1  0  0  0  0  0  0
  185.1440  179.5600  143.7010 O   0  0  0  0  0  0  0  0  0  0  0  0
  183.8550  179.2910  144.1730 C   0  0  0  0  0  2  0  0  0  0  0  0
  183.8320  179.3850  145.5650 O   0  0  0  0  0  1  0  0  0  0  0  0
  1  2  1  1  0  0  0
  1 30  1  0  0  0  0
  3  7  1  0  0  0  0
  3  1  1  1  0  0  0
  4  3  1  0  0  0  0
  4  8  1  0  0  0  0
  6  4  2  0  0  0  0
  7  5  1  0  0  0  0
  8  9  1  6  0  0  0
  8  5  1  0  0  0  0
  9 10  1  0  0  0  0
 11 10  1  0  0  0  0
 12 11  1  0  0  0  0
 13 14  1  6  0  0  0
 13  1  1  0  0  0  0
 15 13  1  0  0  0  0
 16 15  1  0  0  0  0
 16 17  1  0  0  0  0
 19 18  1  6  0  0  0
 19 17  1  0  0  0  0
 21 22  1  1  0  0  0
 21 27  1  0  0  0  0
 21 20  1  0  0  0  0
 23 20  1  0  0  0  0
 23 29  2  0  0  0  0
 24 23  2  0  0  0  0
 25 27  1  0  0  0  0
 25 28  1  0  0  0  0
 26 28  1  0  0  0  0
 26 23  1  0  0  0  0
 27 19  1  6  0  0  0
 30 31  1  0  0  0  0
 31 32  1  1  0  0  0
 31 33  1  0  0  0  0
 34 33  1  1  0  0  0
 34 49  1  0  0  0  0
 35 46  2  0  0  0  0
 37 38  1  0  0  0  0
 38 36  1  1  0  0  0
 39 41  1  0  0  0  0
 41 34  1  1  0  0  0
 41 42  1  0  0  0  0
 42 38  1  0  0  0  0
 42 47  1  1  0  0  0
 43 44  1  0  0  0  0
 43 35  1  0  0  0  0
 44 40  1  0  0  0  0
 45 40  1  6  0  0  0
 45 37  1  0  0  0  0
 46 39  1  0  0  0  0
 46 45  1  0  0  0  0
 47 48  1  0  0  0  0
 49 50  1  0  0  0  0
 50 51  1  0  0  0  0
M  END
>  <MODEL>
9

>  <REMARK>
 VINA RESULT:      -7.0      3.056      5.319
  Name = 
  18 active torsions:
  status: ('A' for Active; 'I' for Inactive)
    1  A    between atoms: C_1  and  C_4
    2  A    between atoms: C_1  and  C_10
    3  A    between atoms: C_4  and  C_9
    4  A    between atoms: C_5  and  C_9
    5  A    between atoms: C_9  and  C_38
    6  A    between atoms: C_10  and  C_43
    7  A    between atoms: C_11  and  O_15
    8  A    between atoms: C_11  and  C_38
    9  A    between atoms: O_15  and  C_26
   10  A    between atoms: O_18  and  C_19
   11  A    between atoms: O_18  and  C_45
   12  A    between atoms: C_19  and  C_21
   13  A    between atoms: C_22  and  O_47
   14  A    between atoms: C_26  and  C_34
   15  A    between atoms: C_26  and  O_47
   16  A    between atoms: C_29  and  C_35
   17  A    between atoms: C_37  and  C_50
   18  A    between atoms: C_43  and  C_50
                            x       y       z     vdW  Elec       q    Type
                         _______ _______ _______ _____ _____    ______ ____

>  <TORSDO>
F 18

$$$$
