=
 OpenBabel10222418183D

 34 36  0  0  1  0  0  0  0  0999 V2000
  188.6380  177.9870  141.5190 N   0  0  0  0  0  0  0  0  0  0  0  0
  189.0880  176.9060  142.3930 C   0  0  0  0  0  2  0  0  0  0  0  0
  190.7560  178.5850  142.8280 O   0  0  0  0  0  1  0  0  0  0  0  0
  190.3460  177.2950  143.1690 C   0  0  1  0  0  3  0  0  0  0  0  0
  190.1540  177.1730  144.6490 C   0  0  0  0  0  0  0  0  0  0  0  0
  188.7820  177.4720  146.6080 C   0  0  0  0  0  3  0  0  0  0  0  0
  188.9340  177.5430  145.2230 C   0  0  0  0  0  3  0  0  0  0  0  0
  189.8450  177.0410  147.4040 C   0  0  0  0  0  3  0  0  0  0  0  0
  191.0560  176.6830  146.7980 C   0  0  0  0  0  0  0  0  0  0  0  0
  191.1810  176.7620  145.4450 N   0  0  0  0  0  0  0  0  0  0  0  0
  192.1890  176.2240  147.6150 C   0  0  0  0  0  0  0  0  0  0  0  0
  192.7670  175.1370  147.3420 O   0  0  0  0  0  0  0  0  0  0  0  0
  192.6310  176.9800  148.6950 O   0  0  0  0  0  1  0  0  0  0  0  0
  187.2670  178.3580  141.8890 C   0  0  0  0  0  2  0  0  0  0  0  0
  186.6720  177.4840  142.9990 C   0  0  0  0  0  2  0  0  0  0  0  0
  185.2680  178.4570  144.8280 C   0  0  0  0  0  3  0  0  0  0  0  0
  185.3960  178.0770  143.4890 C   0  0  0  0  0  0  0  0  0  0  0  0
  184.3420  178.2170  142.6380 N   0  0  0  0  0  0  0  0  0  0  0  0
  184.0520  178.9780  145.2760 C   0  0  0  0  0  3  0  0  0  0  0  0
  183.1510  178.7250  143.0550 C   0  0  0  0  0  0  0  0  0  0  0  0
  182.9860  179.1160  144.3870 C   0  0  0  0  0  3  0  0  0  0  0  0
  182.0720  178.8570  142.1380 N   0  0  0  0  0  1  0  0  0  0  0  0
  188.6470  177.5170  140.1960 N   0  0  0  0  0  2  0  0  0  0  0  0
  189.3580  178.5060  139.4030 C   0  0  0  0  0  2  0  0  0  0  0  0
  188.5530  178.9180  138.3420 O   0  0  0  0  0  0  0  0  0  0  0  0
  187.8000  177.7930  138.0090 C   0  0  0  0  0  2  0  0  0  0  0  0
  186.2960  177.0940  135.8420 S   0  0  0  0  0  0  0  0  0  0  0  0
  185.0400  176.1730  136.7860 C   0  0  0  0  0  2  0  0  0  0  0  0
  186.5500  178.2130  137.2530 C   0  0  1  0  0  3  0  0  0  0  0  0
  185.3560  178.0420  138.1290 C   0  0  0  0  0  0  0  0  0  0  0  0
  184.6150  177.0160  137.8870 N   0  0  0  0  0  0  0  0  0  0  0  0
  183.9530  179.6620  139.3280 C   0  0  0  0  0  3  0  0  0  0  0  0
  182.9130  179.6640  138.3540 N   0  0  0  0  0  1  0  0  0  0  0  0
  185.0190  178.9260  139.2120 N   0  0  0  0  0  0  0  0  0  0  0  0
  1 14  1  0  0  0  0
  1  2  1  0  0  0  0
  2  4  1  0  0  0  0
  4  3  1  1  0  0  0
  4  5  1  0  0  0  0
  5  7  2  0  0  0  0
  5 10  1  0  0  0  0
  6  8  2  0  0  0  0
  7  6  1  0  0  0  0
  9  8  1  0  0  0  0
  9 11  1  0  0  0  0
 10  9  2  0  0  0  0
 11 13  1  0  0  0  0
 12 11  2  0  0  0  0
 14 15  1  0  0  0  0
 15 17  1  0  0  0  0
 16 19  1  0  0  0  0
 17 16  2  0  0  0  0
 18 20  2  0  0  0  0
 18 17  1  0  0  0  0
 20 21  1  0  0  0  0
 21 19  2  0  0  0  0
 22 20  1  0  0  0  0
 23  1  1  0  0  0  0
 24 23  1  0  0  0  0
 25 24  1  0  0  0  0
 26 25  1  0  0  0  0
 27 28  1  0  0  0  0
 27 29  1  0  0  0  0
 28 31  1  0  0  0  0
 29 26  1  1  0  0  0
 29 30  1  0  0  0  0
 30 34  1  0  0  0  0
 31 30  2  0  0  0  0
 33 32  1  0  0  0  0
 34 32  2  0  0  0  0
M  END
>  <MODEL>
1

>  <REMARK>
 VINA RESULT:      -7.8      0.000      0.000
  Name = 
  13 active torsions:
  status: ('A' for Active; 'I' for Inactive)
    1  A    between atoms: C_3  and  C_8
    2  A    between atoms: C_3  and  N_20
    3  A    between atoms: C_4  and  C_8
    4  A    between atoms: C_9  and  C_17
    5  A    between atoms: C_9  and  O_19
    6  A    between atoms: C_12  and  O_19
    7  A    between atoms: C_12  and  N_34
    8  A    between atoms: C_15  and  CA_26
    9  A    between atoms: C_16  and  N_20
   10  A    between atoms: C_16  and  C_32
   11  A    between atoms: C_18  and  C_32
   12  A    between atoms: N_20  and  N_34
   13  A    between atoms: C_21  and  N_30
                            x       y       z     vdW  Elec       q    Type
                         _______ _______ _______ _____ _____    ______ ____

>  <TORSDO>
F 13

$$$$
=
 OpenBabel10222418183D

 34 36  0  0  1  0  0  0  0  0999 V2000
  188.4480  178.3460  141.5540 N   0  0  0  0  0  0  0  0  0  0  0  0
  189.4570  177.9990  142.5530 C   0  0  0  0  0  2  0  0  0  0  0  0
  189.8070  175.6450  142.9110 O   0  0  0  0  0  1  0  0  0  0  0  0
  189.0650  176.7480  143.3390 C   0  0  1  0  0  3  0  0  0  0  0  0
  189.2110  176.9440  144.8160 C   0  0  0  0  0  0  0  0  0  0  0  0
  188.3370  177.7510  146.9120 C   0  0  0  0  0  3  0  0  0  0  0  0
  188.1710  177.5280  145.5450 C   0  0  0  0  0  3  0  0  0  0  0  0
  189.5340  177.3970  147.5350 C   0  0  0  0  0  3  0  0  0  0  0  0
  190.5600  176.8190  146.7760 C   0  0  0  0  0  0  0  0  0  0  0  0
  190.3750  176.6130  145.4430 N   0  0  0  0  0  0  0  0  0  0  0  0
  191.8290  176.4350  147.4100 C   0  0  0  0  0  0  0  0  0  0  0  0
  192.4710  175.4350  146.9890 O   0  0  0  0  0  0  0  0  0  0  0  0
  192.3320  177.1680  148.4800 O   0  0  0  0  0  1  0  0  0  0  0  0
  187.1210  178.0020  142.0790 C   0  0  0  0  0  2  0  0  0  0  0  0
  186.0170  178.9700  141.6400 C   0  0  0  0  0  2  0  0  0  0  0  0
  185.1780  178.9350  143.9980 C   0  0  0  0  0  3  0  0  0  0  0  0
  184.9010  178.9550  142.6280 C   0  0  0  0  0  0  0  0  0  0  0  0
  183.6110  178.9250  142.1930 N   0  0  0  0  0  0  0  0  0  0  0  0
  184.1190  178.8850  144.9070 C   0  0  0  0  0  3  0  0  0  0  0  0
  182.5660  178.8790  143.0630 C   0  0  0  0  0  0  0  0  0  0  0  0
  182.8040  178.8580  144.4400 C   0  0  0  0  0  3  0  0  0  0  0  0
  181.2320  178.8490  142.5730 N   0  0  0  0  0  1  0  0  0  0  0  0
  188.6960  177.5920  140.3960 N   0  0  0  0  0  2  0  0  0  0  0  0
  188.9300  178.5380  139.3190 C   0  0  0  0  0  2  0  0  0  0  0  0
  187.7980  178.6110  138.5090 O   0  0  0  0  0  0  0  0  0  0  0  0
  188.2580  178.3150  137.2260 C   0  0  0  0  0  2  0  0  0  0  0  0
  187.0300  176.1760  136.0580 S   0  0  0  0  0  0  0  0  0  0  0  0
  188.1130  176.1270  134.5940 C   0  0  0  0  0  2  0  0  0  0  0  0
  188.4060  176.8110  137.0650 C   0  0  1  0  0  3  0  0  0  0  0  0
  189.6470  176.5100  136.2960 C   0  0  0  0  0  0  0  0  0  0  0  0
  189.4840  176.1750  135.0620 N   0  0  0  0  0  0  0  0  0  0  0  0
  191.5680  175.7380  137.6150 C   0  0  0  0  0  3  0  0  0  0  0  0
  190.9540  174.5170  138.0190 N   0  0  0  0  0  1  0  0  0  0  0  0
  190.9730  176.5980  136.8420 N   0  0  0  0  0  0  0  0  0  0  0  0
  1 14  1  0  0  0  0
  1  2  1  0  0  0  0
  2  4  1  0  0  0  0
  4  3  1  6  0  0  0
  4  5  1  0  0  0  0
  5 10  2  0  0  0  0
  5  7  1  0  0  0  0
  6  8  1  0  0  0  0
  7  6  2  0  0  0  0
  9 11  1  0  0  0  0
  9  8  2  0  0  0  0
 10  9  1  0  0  0  0
 11 13  1  0  0  0  0
 12 11  2  0  0  0  0
 15 14  1  0  0  0  0
 15 17  1  0  0  0  0
 16 19  1  0  0  0  0
 17 16  2  0  0  0  0
 18 17  1  0  0  0  0
 18 20  2  0  0  0  0
 20 21  1  0  0  0  0
 21 19  2  0  0  0  0
 22 20  1  0  0  0  0
 23  1  1  0  0  0  0
 24 23  1  0  0  0  0
 25 24  1  0  0  0  0
 26 25  1  0  0  0  0
 27 29  1  0  0  0  0
 28 31  1  0  0  0  0
 28 27  1  0  0  0  0
 29 26  1  6  0  0  0
 30 34  1  0  0  0  0
 30 29  1  0  0  0  0
 31 30  2  0  0  0  0
 32 33  1  0  0  0  0
 34 32  2  0  0  0  0
M  END
>  <MODEL>
2

>  <REMARK>
 VINA RESULT:      -7.8      1.969      3.072
  Name = 
  13 active torsions:
  status: ('A' for Active; 'I' for Inactive)
    1  A    between atoms: C_3  and  C_8
    2  A    between atoms: C_3  and  N_20
    3  A    between atoms: C_4  and  C_8
    4  A    between atoms: C_9  and  C_17
    5  A    between atoms: C_9  and  O_19
    6  A    between atoms: C_12  and  O_19
    7  A    between atoms: C_12  and  N_34
    8  A    between atoms: C_15  and  CA_26
    9  A    between atoms: C_16  and  N_20
   10  A    between atoms: C_16  and  C_32
   11  A    between atoms: C_18  and  C_32
   12  A    between atoms: N_20  and  N_34
   13  A    between atoms: C_21  and  N_30
                            x       y       z     vdW  Elec       q    Type
                         _______ _______ _______ _____ _____    ______ ____

>  <TORSDO>
F 13

$$$$
=
 OpenBabel10222418183D

 34 36  0  0  1  0  0  0  0  0999 V2000
  189.0090  178.0650  141.4370 N   0  0  0  0  0  0  0  0  0  0  0  0
  190.1020  177.6640  142.3190 C   0  0  0  0  0  2  0  0  0  0  0  0
  190.3540  175.3120  142.7610 O   0  0  0  0  0  1  0  0  0  0  0  0
  189.7130  176.4740  143.1960 C   0  0  1  0  0  3  0  0  0  0  0  0
  189.9960  176.7260  144.6440 C   0  0  0  0  0  0  0  0  0  0  0  0
  191.5240  176.7030  146.5080 C   0  0  0  0  0  3  0  0  0  0  0  0
  191.2830  176.5120  145.1480 C   0  0  0  0  0  3  0  0  0  0  0  0
  190.4840  177.0980  147.3510 C   0  0  0  0  0  3  0  0  0  0  0  0
  189.2050  177.2990  146.8170 C   0  0  0  0  0  0  0  0  0  0  0  0
  188.9940  177.1050  145.4860 N   0  0  0  0  0  0  0  0  0  0  0  0
  188.0940  177.7180  147.6840 C   0  0  0  0  0  0  0  0  0  0  0  0
  186.9630  177.9680  147.1870 O   0  0  0  0  0  0  0  0  0  0  0  0
  188.2810  177.8440  149.0560 O   0  0  0  0  0  1  0  0  0  0  0  0
  187.7370  177.8980  142.1510 C   0  0  0  0  0  2  0  0  0  0  0  0
  186.5650  178.6440  141.5020 C   0  0  0  0  0  2  0  0  0  0  0  0
  185.6520  178.6810  143.8320 C   0  0  0  0  0  3  0  0  0  0  0  0
  185.4220  178.7260  142.4540 C   0  0  0  0  0  0  0  0  0  0  0  0
  184.1490  178.8110  141.9780 N   0  0  0  0  0  0  0  0  0  0  0  0
  184.5640  178.7240  144.7060 C   0  0  0  0  0  3  0  0  0  0  0  0
  183.0770  178.8570  142.8140 C   0  0  0  0  0  0  0  0  0  0  0  0
  183.2670  178.8140  144.1980 C   0  0  0  0  0  3  0  0  0  0  0  0
  181.7610  178.9470  142.2820 N   0  0  0  0  0  1  0  0  0  0  0  0
  189.0200  177.2260  140.3110 N   0  0  0  0  0  2  0  0  0  0  0  0
  190.3750  177.2410  139.7890 C   0  0  0  0  0  2  0  0  0  0  0  0
  190.7010  175.9750  139.3050 O   0  0  0  0  0  0  0  0  0  0  0  0
  191.6580  176.2080  138.3160 C   0  0  0  0  0  2  0  0  0  0  0  0
  191.4920  174.3030  136.3690 S   0  0  0  0  0  0  0  0  0  0  0  0
  192.8840  174.9370  135.3810 C   0  0  0  0  0  2  0  0  0  0  0  0
  192.2930  174.8930  137.8920 C   0  0  1  0  0  3  0  0  0  0  0  0
  193.7230  175.1210  137.5390 C   0  0  0  0  0  0  0  0  0  0  0  0
  194.0010  175.1450  136.2810 N   0  0  0  0  0  0  0  0  0  0  0  0
  195.5140  174.4310  139.0700 C   0  0  0  0  0  3  0  0  0  0  0  0
  195.4040  173.0430  138.7670 N   0  0  0  0  0  1  0  0  0  0  0  0
  194.7670  175.3320  138.5040 N   0  0  0  0  0  0  0  0  0  0  0  0
  1 14  1  0  0  0  0
  1  2  1  0  0  0  0
  2  4  1  0  0  0  0
  4  3  1  6  0  0  0
  4  5  1  0  0  0  0
  5  7  2  0  0  0  0
  5 10  1  0  0  0  0
  6  8  2  0  0  0  0
  7  6  1  0  0  0  0
  9  8  1  0  0  0  0
  9 11  1  0  0  0  0
 10  9  2  0  0  0  0
 11 13  1  0  0  0  0
 12 11  2  0  0  0  0
 15 14  1  0  0  0  0
 15 17  1  0  0  0  0
 16 19  1  0  0  0  0
 17 16  2  0  0  0  0
 18 17  1  0  0  0  0
 18 20  2  0  0  0  0
 20 21  1  0  0  0  0
 21 19  2  0  0  0  0
 22 20  1  0  0  0  0
 23  1  1  0  0  0  0
 24 23  1  0  0  0  0
 25 24  1  0  0  0  0
 26 25  1  0  0  0  0
 27 29  1  0  0  0  0
 28 31  1  0  0  0  0
 28 27  1  0  0  0  0
 29 26  1  6  0  0  0
 30 29  1  0  0  0  0
 30 34  1  0  0  0  0
 31 30  2  0  0  0  0
 33 32  1  0  0  0  0
 34 32  2  0  0  0  0
M  END
>  <MODEL>
3

>  <REMARK>
 VINA RESULT:      -7.8      3.672      5.283
  Name = 
  13 active torsions:
  status: ('A' for Active; 'I' for Inactive)
    1  A    between atoms: C_3  and  C_8
    2  A    between atoms: C_3  and  N_20
    3  A    between atoms: C_4  and  C_8
    4  A    between atoms: C_9  and  C_17
    5  A    between atoms: C_9  and  O_19
    6  A    between atoms: C_12  and  O_19
    7  A    between atoms: C_12  and  N_34
    8  A    between atoms: C_15  and  CA_26
    9  A    between atoms: C_16  and  N_20
   10  A    between atoms: C_16  and  C_32
   11  A    between atoms: C_18  and  C_32
   12  A    between atoms: N_20  and  N_34
   13  A    between atoms: C_21  and  N_30
                            x       y       z     vdW  Elec       q    Type
                         _______ _______ _______ _____ _____    ______ ____

>  <TORSDO>
F 13

$$$$
=
 OpenBabel10222418183D

 34 36  0  0  1  0  0  0  0  0999 V2000
  188.6150  178.2610  141.4790 N   0  0  0  0  0  0  0  0  0  0  0  0
  189.6540  177.8390  142.4160 C   0  0  0  0  0  2  0  0  0  0  0  0
  190.0100  175.4970  142.8420 O   0  0  0  0  0  1  0  0  0  0  0  0
  189.2320  176.5990  143.2050 C   0  0  1  0  0  3  0  0  0  0  0  0
  189.2910  176.8260  144.6830 C   0  0  0  0  0  0  0  0  0  0  0  0
  188.2690  177.6200  146.7160 C   0  0  0  0  0  3  0  0  0  0  0  0
  188.1860  177.3670  145.3470 C   0  0  0  0  0  3  0  0  0  0  0  0
  189.4490  177.3390  147.4060 C   0  0  0  0  0  3  0  0  0  0  0  0
  190.5400  176.8030  146.7110 C   0  0  0  0  0  0  0  0  0  0  0  0
  190.4360  176.5660  145.3750 N   0  0  0  0  0  0  0  0  0  0  0  0
  191.7930  176.4960  147.4160 C   0  0  0  0  0  0  0  0  0  0  0  0
  192.1810  177.2270  148.3670 O   0  0  0  0  0  1  0  0  0  0  0  0
  192.5620  175.3990  147.0400 O   0  0  0  0  0  0  0  0  0  0  0  0
  187.3010  177.9450  142.0520 C   0  0  0  0  0  2  0  0  0  0  0  0
  186.1860  178.8910  141.5910 C   0  0  0  0  0  2  0  0  0  0  0  0
  183.7340  178.8230  142.0890 C   0  0  0  0  0  3  0  0  0  0  0  0
  185.0520  178.8530  142.5560 C   0  0  0  0  0  0  0  0  0  0  0  0
  185.2980  178.8820  143.8950 N   0  0  0  0  0  0  0  0  0  0  0  0
  182.6840  178.8230  143.0090 C   0  0  0  0  0  3  0  0  0  0  0  0
  184.2890  178.8800  144.8070 C   0  0  0  0  0  0  0  0  0  0  0  0
  182.9590  178.8500  144.3770 C   0  0  0  0  0  3  0  0  0  0  0  0
  184.5840  178.9110  146.1970 N   0  0  0  0  0  1  0  0  0  0  0  0
  188.7820  177.5450  140.2830 N   0  0  0  0  0  2  0  0  0  0  0  0
  190.1510  177.7610  139.8500 C   0  0  0  0  0  2  0  0  0  0  0  0
  190.2790  177.3940  138.5110 O   0  0  0  0  0  0  0  0  0  0  0  0
  189.4290  176.2980  138.3600 C   0  0  0  0  0  2  0  0  0  0  0  0
  189.1540  174.0910  136.7790 S   0  0  0  0  0  0  0  0  0  0  0  0
  187.3700  174.3070  136.4820 C   0  0  0  0  0  2  0  0  0  0  0  0
  189.3610  175.8940  136.8970 C   0  0  1  0  0  3  0  0  0  0  0  0
  188.1440  176.4870  136.2720 C   0  0  0  0  0  0  0  0  0  0  0  0
  187.1570  175.6820  136.0760 N   0  0  0  0  0  0  0  0  0  0  0  0
  187.3660  178.7990  136.5510 C   0  0  0  0  0  3  0  0  0  0  0  0
  186.6790  178.5480  137.7750 N   0  0  0  0  0  1  0  0  0  0  0  0
  188.0170  177.8730  135.9120 N   0  0  0  0  0  0  0  0  0  0  0  0
  1 14  1  0  0  0  0
  1  2  1  0  0  0  0
  2  4  1  0  0  0  0
  4  3  1  1  0  0  0
  4  5  1  0  0  0  0
  5  7  2  0  0  0  0
  5 10  1  0  0  0  0
  6  8  2  0  0  0  0
  7  6  1  0  0  0  0
  9  8  1  0  0  0  0
  9 11  1  0  0  0  0
 10  9  2  0  0  0  0
 11 12  1  0  0  0  0
 13 11  2  0  0  0  0
 15 14  1  0  0  0  0
 15 17  1  0  0  0  0
 16 17  2  0  0  0  0
 16 19  1  0  0  0  0
 17 18  1  0  0  0  0
 18 20  2  0  0  0  0
 19 21  2  0  0  0  0
 20 22  1  0  0  0  0
 21 20  1  0  0  0  0
 23  1  1  0  0  0  0
 24 23  1  0  0  0  0
 25 24  1  0  0  0  0
 26 25  1  0  0  0  0
 27 29  1  0  0  0  0
 28 27  1  0  0  0  0
 29 26  1  1  0  0  0
 30 29  1  0  0  0  0
 31 30  2  0  0  0  0
 31 28  1  0  0  0  0
 32 33  1  0  0  0  0
 34 30  1  0  0  0  0
 34 32  2  0  0  0  0
M  END
>  <MODEL>
4

>  <REMARK>
 VINA RESULT:      -7.7      1.897      2.513
  Name = 
  13 active torsions:
  status: ('A' for Active; 'I' for Inactive)
    1  A    between atoms: C_3  and  C_8
    2  A    between atoms: C_3  and  N_20
    3  A    between atoms: C_4  and  C_8
    4  A    between atoms: C_9  and  C_17
    5  A    between atoms: C_9  and  O_19
    6  A    between atoms: C_12  and  O_19
    7  A    between atoms: C_12  and  N_34
    8  A    between atoms: C_15  and  CA_26
    9  A    between atoms: C_16  and  N_20
   10  A    between atoms: C_16  and  C_32
   11  A    between atoms: C_18  and  C_32
   12  A    between atoms: N_20  and  N_34
   13  A    between atoms: C_21  and  N_30
                            x       y       z     vdW  Elec       q    Type
                         _______ _______ _______ _____ _____    ______ ____

>  <TORSDO>
F 13

$$$$
=
 OpenBabel10222418183D

 34 36  0  0  1  0  0  0  0  0999 V2000
  189.5510  177.5170  141.7670 N   0  0  0  0  0  0  0  0  0  0  0  0
  190.0070  176.4790  142.6890 C   0  0  0  0  0  2  0  0  0  0  0  0
  191.6090  178.2190  143.1360 O   0  0  0  0  0  1  0  0  0  0  0  0
  191.2990  176.8830  143.4010 C   0  0  1  0  0  3  0  0  0  0  0  0
  191.2270  176.6380  144.8760 C   0  0  0  0  0  0  0  0  0  0  0  0
  192.0220  175.4950  146.8440 C   0  0  0  0  0  3  0  0  0  0  0  0
  192.1290  175.7540  145.4770 C   0  0  0  0  0  3  0  0  0  0  0  0
  191.0190  176.1120  147.5930 C   0  0  0  0  0  3  0  0  0  0  0  0
  190.1280  176.9870  146.9600 C   0  0  0  0  0  0  0  0  0  0  0  0
  190.2510  177.2230  145.6250 N   0  0  0  0  0  0  0  0  0  0  0  0
  189.0650  177.6510  147.7280 C   0  0  0  0  0  0  0  0  0  0  0  0
  187.8590  177.3330  147.5460 O   0  0  0  0  0  0  0  0  0  0  0  0
  189.3780  178.6350  148.6590 O   0  0  0  0  0  1  0  0  0  0  0  0
  188.2750  178.0560  142.2530 C   0  0  0  0  0  2  0  0  0  0  0  0
  187.5370  177.1170  143.2130 C   0  0  0  0  0  2  0  0  0  0  0  0
  185.2780  178.1170  142.8110 C   0  0  0  0  0  3  0  0  0  0  0  0
  186.2910  177.7680  143.7080 C   0  0  0  0  0  0  0  0  0  0  0  0
  186.1570  178.0540  145.0330 N   0  0  0  0  0  0  0  0  0  0  0  0
  184.1340  178.7590  143.2910 C   0  0  0  0  0  3  0  0  0  0  0  0
  185.0480  178.6750  145.5190 C   0  0  0  0  0  0  0  0  0  0  0  0
  184.0140  179.0390  144.6530 C   0  0  0  0  0  3  0  0  0  0  0  0
  184.9420  178.9570  146.9090 N   0  0  0  0  0  1  0  0  0  0  0  0
  189.3550  176.9320  140.5060 N   0  0  0  0  0  2  0  0  0  0  0  0
  190.5520  177.2010  139.7270 C   0  0  0  0  0  2  0  0  0  0  0  0
  191.0440  176.0070  139.2020 O   0  0  0  0  0  0  0  0  0  0  0  0
  192.2960  176.3360  138.6820 C   0  0  0  0  0  2  0  0  0  0  0  0
  192.2120  175.2390  136.1850 S   0  0  0  0  0  0  0  0  0  0  0  0
  193.7830  175.9650  135.6190 C   0  0  0  0  0  2  0  0  0  0  0  0
  192.8490  175.1650  137.8870 C   0  0  1  0  0  3  0  0  0  0  0  0
  194.3300  175.2940  137.7740 C   0  0  0  0  0  0  0  0  0  0  0  0
  194.7800  175.6990  136.6370 N   0  0  0  0  0  0  0  0  0  0  0  0
  195.8160  173.8840  139.1290 C   0  0  0  0  0  3  0  0  0  0  0  0
  195.6140  172.7100  138.3480 N   0  0  0  0  0  1  0  0  0  0  0  0
  195.2460  175.0190  138.8470 N   0  0  0  0  0  0  0  0  0  0  0  0
  1 14  1  0  0  0  0
  1  2  1  0  0  0  0
  2  4  1  0  0  0  0
  4  3  1  1  0  0  0
  4  5  1  0  0  0  0
  5  7  2  0  0  0  0
  5 10  1  0  0  0  0
  6  8  2  0  0  0  0
  7  6  1  0  0  0  0
  9  8  1  0  0  0  0
  9 11  1  0  0  0  0
 10  9  2  0  0  0  0
 11 13  1  0  0  0  0
 12 11  2  0  0  0  0
 14 15  1  0  0  0  0
 15 17  1  0  0  0  0
 16 19  2  0  0  0  0
 16 17  1  0  0  0  0
 17 18  2  0  0  0  0
 18 20  1  0  0  0  0
 19 21  1  0  0  0  0
 20 22  1  0  0  0  0
 21 20  2  0  0  0  0
 23  1  1  0  0  0  0
 24 23  1  0  0  0  0
 25 24  1  0  0  0  0
 26 25  1  0  0  0  0
 27 29  1  0  0  0  0
 28 27  1  0  0  0  0
 28 31  1  0  0  0  0
 29 26  1  1  0  0  0
 30 29  1  0  0  0  0
 30 34  1  0  0  0  0
 31 30  2  0  0  0  0
 33 32  1  0  0  0  0
 34 32  2  0  0  0  0
M  END
>  <MODEL>
5

>  <REMARK>
 VINA RESULT:      -7.7      3.831      5.587
  Name = 
  13 active torsions:
  status: ('A' for Active; 'I' for Inactive)
    1  A    between atoms: C_3  and  C_8
    2  A    between atoms: C_3  and  N_20
    3  A    between atoms: C_4  and  C_8
    4  A    between atoms: C_9  and  C_17
    5  A    between atoms: C_9  and  O_19
    6  A    between atoms: C_12  and  O_19
    7  A    between atoms: C_12  and  N_34
    8  A    between atoms: C_15  and  CA_26
    9  A    between atoms: C_16  and  N_20
   10  A    between atoms: C_16  and  C_32
   11  A    between atoms: C_18  and  C_32
   12  A    between atoms: N_20  and  N_34
   13  A    between atoms: C_21  and  N_30
                            x       y       z     vdW  Elec       q    Type
                         _______ _______ _______ _____ _____    ______ ____

>  <TORSDO>
F 13

$$$$
=
 OpenBabel10222418183D

 34 36  0  0  1  0  0  0  0  0999 V2000
  190.4020  176.7190  141.9660 N   0  0  0  0  0  0  0  0  0  0  0  0
  189.2080  177.5600  141.9390 C   0  0  0  0  0  2  0  0  0  0  0  0
  188.2860  175.9360  143.4570 O   0  0  0  0  0  1  0  0  0  0  0  0
  187.9680  176.7960  142.4040 C   0  0  1  0  0  3  0  0  0  0  0  0
  186.8530  177.7170  142.7900 C   0  0  0  0  0  0  0  0  0  0  0  0
  185.2790  179.4490  142.2110 C   0  0  0  0  0  3  0  0  0  0  0  0
  186.2840  178.5590  141.8300 C   0  0  0  0  0  3  0  0  0  0  0  0
  184.8560  179.4920  143.5400 C   0  0  0  0  0  3  0  0  0  0  0  0
  185.4490  178.6400  144.4790 C   0  0  0  0  0  0  0  0  0  0  0  0
  186.4300  177.7820  144.0830 N   0  0  0  0  0  0  0  0  0  0  0  0
  185.0190  178.6660  145.8850 C   0  0  0  0  0  0  0  0  0  0  0  0
  183.8250  178.9450  146.1770 O   0  0  0  0  0  0  0  0  0  0  0  0
  185.9240  178.3860  146.9030 O   0  0  0  0  0  1  0  0  0  0  0  0
  191.5100  177.4830  142.5530 C   0  0  0  0  0  2  0  0  0  0  0  0
  191.0580  178.5370  143.5700 C   0  0  0  0  0  2  0  0  0  0  0  0
  189.5820  178.1630  145.5560 C   0  0  0  0  0  3  0  0  0  0  0  0
  190.7770  177.8920  144.8840 C   0  0  0  0  0  0  0  0  0  0  0  0
  191.7020  177.0660  145.4460 N   0  0  0  0  0  0  0  0  0  0  0  0
  189.3530  177.5760  146.8030 C   0  0  0  0  0  3  0  0  0  0  0  0
  191.4960  176.4830  146.6580 C   0  0  0  0  0  0  0  0  0  0  0  0
  190.3130  176.7300  147.3590 C   0  0  0  0  0  3  0  0  0  0  0  0
  192.4850  175.6250  147.2130 N   0  0  0  0  0  1  0  0  0  0  0  0
  190.7290  176.3740  140.6450 N   0  0  0  0  0  2  0  0  0  0  0  0
  190.4810  177.5500  139.8290 C   0  0  0  0  0  2  0  0  0  0  0  0
  190.6530  177.2280  138.4840 O   0  0  0  0  0  0  0  0  0  0  0  0
  189.9740  176.0200  138.3180 C   0  0  0  0  0  2  0  0  0  0  0  0
  189.5200  173.9470  136.6030 S   0  0  0  0  0  0  0  0  0  0  0  0
  187.7280  174.2300  136.4520 C   0  0  0  0  0  2  0  0  0  0  0  0
  189.7910  175.7300  136.8370 C   0  0  1  0  0  3  0  0  0  0  0  0
  188.5520  176.3980  136.3470 C   0  0  0  0  0  0  0  0  0  0  0  0
  187.5300  175.6370  136.1650 N   0  0  0  0  0  0  0  0  0  0  0  0
  187.8830  178.7050  136.8590 C   0  0  0  0  0  3  0  0  0  0  0  0
  187.2960  178.3840  138.1170 N   0  0  0  0  0  1  0  0  0  0  0  0
  188.4440  177.8100  136.1000 N   0  0  0  0  0  0  0  0  0  0  0  0
  1 14  1  0  0  0  0
  2  1  1  0  0  0  0
  2  4  1  0  0  0  0
  4  5  1  0  0  0  0
  4  3  1  1  0  0  0
  5 10  1  0  0  0  0
  6  8  2  0  0  0  0
  7  6  1  0  0  0  0
  7  5  2  0  0  0  0
  8  9  1  0  0  0  0
  9 11  1  0  0  0  0
 10  9  2  0  0  0  0
 11 12  2  0  0  0  0
 11 13  1  0  0  0  0
 14 15  1  0  0  0  0
 15 17  1  0  0  0  0
 16 19  1  0  0  0  0
 17 18  1  0  0  0  0
 17 16  2  0  0  0  0
 18 20  2  0  0  0  0
 19 21  2  0  0  0  0
 20 22  1  0  0  0  0
 20 21  1  0  0  0  0
 23  1  1  0  0  0  0
 24 23  1  0  0  0  0
 25 24  1  0  0  0  0
 26 25  1  0  0  0  0
 27 29  1  0  0  0  0
 28 27  1  0  0  0  0
 29 26  1  1  0  0  0
 30 29  1  0  0  0  0
 31 30  2  0  0  0  0
 31 28  1  0  0  0  0
 32 33  1  0  0  0  0
 34 30  1  0  0  0  0
 34 32  2  0  0  0  0
M  END
>  <MODEL>
6

>  <REMARK>
 VINA RESULT:      -7.7      2.757      5.604
  Name = 
  13 active torsions:
  status: ('A' for Active; 'I' for Inactive)
    1  A    between atoms: C_3  and  C_8
    2  A    between atoms: C_3  and  N_20
    3  A    between atoms: C_4  and  C_8
    4  A    between atoms: C_9  and  C_17
    5  A    between atoms: C_9  and  O_19
    6  A    between atoms: C_12  and  O_19
    7  A    between atoms: C_12  and  N_34
    8  A    between atoms: C_15  and  CA_26
    9  A    between atoms: C_16  and  N_20
   10  A    between atoms: C_16  and  C_32
   11  A    between atoms: C_18  and  C_32
   12  A    between atoms: N_20  and  N_34
   13  A    between atoms: C_21  and  N_30
                            x       y       z     vdW  Elec       q    Type
                         _______ _______ _______ _____ _____    ______ ____

>  <TORSDO>
F 13

$$$$
=
 OpenBabel10222418183D

 34 36  0  0  1  0  0  0  0  0999 V2000
  189.4280  177.8740  141.6370 N   0  0  0  0  0  0  0  0  0  0  0  0
  189.8880  176.9030  142.6280 C   0  0  0  0  0  2  0  0  0  0  0  0
  191.2920  178.7760  143.1880 O   0  0  0  0  0  1  0  0  0  0  0  0
  191.1250  177.4030  143.3760 C   0  0  1  0  0  3  0  0  0  0  0  0
  191.0730  177.0690  144.8340 C   0  0  0  0  0  0  0  0  0  0  0  0
  191.9610  175.8890  146.7400 C   0  0  0  0  0  3  0  0  0  0  0  0
  192.0470  176.2340  145.3900 C   0  0  0  0  0  3  0  0  0  0  0  0
  190.9070  176.3740  147.5160 C   0  0  0  0  0  3  0  0  0  0  0  0
  189.9440  177.2020  146.9270 C   0  0  0  0  0  0  0  0  0  0  0  0
  190.0490  177.5240  145.6090 N   0  0  0  0  0  0  0  0  0  0  0  0
  188.8260  177.7270  147.7250 C   0  0  0  0  0  0  0  0  0  0  0  0
  187.6570  177.7280  147.2530 O   0  0  0  0  0  0  0  0  0  0  0  0
  189.0470  178.2280  149.0030 O   0  0  0  0  0  1  0  0  0  0  0  0
  187.9800  178.0590  141.7900 C   0  0  0  0  0  2  0  0  0  0  0  0
  187.3710  177.2300  142.9260 C   0  0  0  0  0  2  0  0  0  0  0  0
  185.1490  178.2830  142.4580 C   0  0  0  0  0  3  0  0  0  0  0  0
  186.0990  177.8540  143.3890 C   0  0  0  0  0  0  0  0  0  0  0  0
  185.8800  178.0370  144.7200 N   0  0  0  0  0  0  0  0  0  0  0  0
  183.9800  178.8970  142.9110 C   0  0  0  0  0  3  0  0  0  0  0  0
  184.7450  178.6310  145.1810 C   0  0  0  0  0  0  0  0  0  0  0  0
  183.7720  179.0720  144.2800 C   0  0  0  0  0  3  0  0  0  0  0  0
  184.5500  178.8050  146.5780 N   0  0  0  0  0  1  0  0  0  0  0  0
  189.6960  177.3590  140.3590 N   0  0  0  0  0  2  0  0  0  0  0  0
  188.6600  177.8670  139.4750 C   0  0  0  0  0  2  0  0  0  0  0  0
  189.0620  179.0920  138.9430 O   0  0  0  0  0  0  0  0  0  0  0  0
  189.0340  178.9050  137.5610 C   0  0  0  0  0  2  0  0  0  0  0  0
  187.2150  177.4560  136.1330 S   0  0  0  0  0  0  0  0  0  0  0  0
  188.3050  177.1620  134.7040 C   0  0  0  0  0  2  0  0  0  0  0  0
  188.6570  177.4670  137.2410 C   0  0  1  0  0  3  0  0  0  0  0  0
  189.7620  176.8190  136.4790 C   0  0  0  0  0  0  0  0  0  0  0  0
  189.5730  176.6780  135.2130 N   0  0  0  0  0  0  0  0  0  0  0  0
  191.2600  175.2140  137.5780 C   0  0  0  0  0  3  0  0  0  0  0  0
  190.3100  174.1510  137.5920 N   0  0  0  0  0  1  0  0  0  0  0  0
  190.9980  176.3810  137.0690 N   0  0  0  0  0  0  0  0  0  0  0  0
  1 14  1  0  0  0  0
  1  2  1  0  0  0  0
  2  4  1  0  0  0  0
  4  3  1  1  0  0  0
  4  5  1  0  0  0  0
  5  7  2  0  0  0  0
  5 10  1  0  0  0  0
  6  8  2  0  0  0  0
  7  6  1  0  0  0  0
  9  8  1  0  0  0  0
  9 11  1  0  0  0  0
 10  9  2  0  0  0  0
 11 13  1  0  0  0  0
 12 11  2  0  0  0  0
 14 15  1  0  0  0  0
 15 17  1  0  0  0  0
 16 19  2  0  0  0  0
 16 17  1  0  0  0  0
 17 18  2  0  0  0  0
 18 20  1  0  0  0  0
 19 21  1  0  0  0  0
 20 22  1  0  0  0  0
 21 20  2  0  0  0  0
 23  1  1  0  0  0  0
 24 23  1  0  0  0  0
 25 24  1  0  0  0  0
 26 25  1  0  0  0  0
 27 29  1  0  0  0  0
 28 31  1  0  0  0  0
 28 27  1  0  0  0  0
 29 26  1  6  0  0  0
 30 34  1  0  0  0  0
 30 29  1  0  0  0  0
 31 30  2  0  0  0  0
 32 33  1  0  0  0  0
 34 32  2  0  0  0  0
M  END
>  <MODEL>
7

>  <REMARK>
 VINA RESULT:      -7.6      2.687      3.591
  Name = 
  13 active torsions:
  status: ('A' for Active; 'I' for Inactive)
    1  A    between atoms: C_3  and  C_8
    2  A    between atoms: C_3  and  N_20
    3  A    between atoms: C_4  and  C_8
    4  A    between atoms: C_9  and  C_17
    5  A    between atoms: C_9  and  O_19
    6  A    between atoms: C_12  and  O_19
    7  A    between atoms: C_12  and  N_34
    8  A    between atoms: C_15  and  CA_26
    9  A    between atoms: C_16  and  N_20
   10  A    between atoms: C_16  and  C_32
   11  A    between atoms: C_18  and  C_32
   12  A    between atoms: N_20  and  N_34
   13  A    between atoms: C_21  and  N_30
                            x       y       z     vdW  Elec       q    Type
                         _______ _______ _______ _____ _____    ______ ____

>  <TORSDO>
F 13

$$$$
=
 OpenBabel10222418183D

 34 36  0  0  1  0  0  0  0  0999 V2000
  189.2840  178.2310  141.5810 N   0  0  0  0  0  0  0  0  0  0  0  0
  189.8720  177.2820  142.5240 C   0  0  0  0  0  2  0  0  0  0  0  0
  190.7800  179.3580  143.3350 O   0  0  0  0  0  1  0  0  0  0  0  0
  190.8290  177.9710  143.4960 C   0  0  1  0  0  3  0  0  0  0  0  0
  190.5540  177.5920  144.9180 C   0  0  0  0  0  0  0  0  0  0  0  0
  189.0960  177.5990  146.8370 C   0  0  0  0  0  3  0  0  0  0  0  0
  189.3230  177.9130  145.4970 C   0  0  0  0  0  3  0  0  0  0  0  0
  190.0960  176.9760  147.5850 C   0  0  0  0  0  3  0  0  0  0  0  0
  191.3210  176.6730  146.9780 C   0  0  0  0  0  0  0  0  0  0  0  0
  191.5190  176.9910  145.6690 N   0  0  0  0  0  0  0  0  0  0  0  0
  192.3890  176.0150  147.7450 C   0  0  0  0  0  0  0  0  0  0  0  0
  192.8080  174.8780  147.3990 O   0  0  0  0  0  0  0  0  0  0  0  0
  192.9440  176.6380  148.8570 O   0  0  0  0  0  1  0  0  0  0  0  0
  187.8220  178.1670  141.6920 C   0  0  0  0  0  2  0  0  0  0  0  0
  187.3310  177.2820  142.8430 C   0  0  0  0  0  2  0  0  0  0  0  0
  185.0590  178.3160  142.6610 C   0  0  0  0  0  3  0  0  0  0  0  0
  186.1150  177.8790  143.4650 C   0  0  0  0  0  0  0  0  0  0  0  0
  186.0500  178.0300  144.8160 N   0  0  0  0  0  0  0  0  0  0  0  0
  183.9440  178.9050  143.2610 C   0  0  0  0  0  3  0  0  0  0  0  0
  184.9710  178.5980  145.4190 C   0  0  0  0  0  0  0  0  0  0  0  0
  183.8950  179.0470  144.6480 C   0  0  0  0  0  3  0  0  0  0  0  0
  184.9370  178.7390  146.8340 N   0  0  0  0  0  1  0  0  0  0  0  0
  189.6650  177.8570  140.2830 N   0  0  0  0  0  2  0  0  0  0  0  0
  190.1580  176.4930  140.3650 C   0  0  0  0  0  2  0  0  0  0  0  0
  190.7070  176.1210  139.1380 O   0  0  0  0  0  0  0  0  0  0  0  0
  190.3480  177.1470  138.2630 C   0  0  0  0  0  2  0  0  0  0  0  0
  190.5820  174.8180  136.8600 S   0  0  0  0  0  0  0  0  0  0  0  0
  188.8100  174.4020  136.9100 C   0  0  0  0  0  2  0  0  0  0  0  0
  190.1750  176.5910  136.8590 C   0  0  1  0  0  3  0  0  0  0  0  0
  188.7410  176.6800  136.4610 C   0  0  0  0  0  0  0  0  0  0  0  0
  188.0720  175.5790  136.4960 N   0  0  0  0  0  0  0  0  0  0  0  0
  187.2650  178.6150  136.7870 C   0  0  0  0  0  3  0  0  0  0  0  0
  186.9120  178.2740  138.1240 N   0  0  0  0  0  1  0  0  0  0  0  0
  188.0860  177.9000  136.0760 N   0  0  0  0  0  0  0  0  0  0  0  0
  1 14  1  0  0  0  0
  1  2  1  0  0  0  0
  2  4  1  0  0  0  0
  4  3  1  1  0  0  0
  4  5  1  0  0  0  0
  5  7  2  0  0  0  0
  5 10  1  0  0  0  0
  6  8  2  0  0  0  0
  7  6  1  0  0  0  0
  9  8  1  0  0  0  0
  9 11  1  0  0  0  0
 10  9  2  0  0  0  0
 11 13  1  0  0  0  0
 12 11  2  0  0  0  0
 14 15  1  0  0  0  0
 15 17  1  0  0  0  0
 16 19  2  0  0  0  0
 16 17  1  0  0  0  0
 17 18  2  0  0  0  0
 18 20  1  0  0  0  0
 19 21  1  0  0  0  0
 20 22  1  0  0  0  0
 21 20  2  0  0  0  0
 23 24  1  0  0  0  0
 23  1  1  0  0  0  0
 25 24  1  0  0  0  0
 26 25  1  0  0  0  0
 27 28  1  0  0  0  0
 29 27  1  0  0  0  0
 29 26  1  1  0  0  0
 30 31  2  0  0  0  0
 30 29  1  0  0  0  0
 31 28  1  0  0  0  0
 32 33  1  0  0  0  0
 34 30  1  0  0  0  0
 34 32  2  0  0  0  0
M  END
>  <MODEL>
8

>  <REMARK>
 VINA RESULT:      -7.6      2.083      2.636
  Name = 
  13 active torsions:
  status: ('A' for Active; 'I' for Inactive)
    1  A    between atoms: C_3  and  C_8
    2  A    between atoms: C_3  and  N_20
    3  A    between atoms: C_4  and  C_8
    4  A    between atoms: C_9  and  C_17
    5  A    between atoms: C_9  and  O_19
    6  A    between atoms: C_12  and  O_19
    7  A    between atoms: C_12  and  N_34
    8  A    between atoms: C_15  and  CA_26
    9  A    between atoms: C_16  and  N_20
   10  A    between atoms: C_16  and  C_32
   11  A    between atoms: C_18  and  C_32
   12  A    between atoms: N_20  and  N_34
   13  A    between atoms: C_21  and  N_30
                            x       y       z     vdW  Elec       q    Type
                         _______ _______ _______ _____ _____    ______ ____

>  <TORSDO>
F 13

$$$$
=
 OpenBabel10222418183D

 34 36  0  0  1  0  0  0  0  0999 V2000
  190.4310  176.9380  141.2360 N   0  0  0  0  0  0  0  0  0  0  0  0
  189.0610  177.0170  140.7330 C   0  0  0  0  0  2  0  0  0  0  0  0
  188.6510  178.9970  139.4270 O   0  0  0  0  0  1  0  0  0  0  0  0
  188.5500  178.4580  140.7120 C   0  0  1  0  0  3  0  0  0  0  0  0
  187.1470  178.5640  141.2230 C   0  0  0  0  0  0  0  0  0  0  0  0
  185.5470  178.2930  143.0060 C   0  0  0  0  0  3  0  0  0  0  0  0
  186.8660  178.2370  142.5530 C   0  0  0  0  0  3  0  0  0  0  0  0
  184.5260  178.6660  142.1310 C   0  0  0  0  0  3  0  0  0  0  0  0
  184.8390  178.9810  140.8030 C   0  0  0  0  0  0  0  0  0  0  0  0
  186.1330  178.9190  140.3840 N   0  0  0  0  0  0  0  0  0  0  0  0
  183.7810  179.3790  139.8630 C   0  0  0  0  0  0  0  0  0  0  0  0
  182.7110  178.7180  139.7970 O   0  0  0  0  0  1  0  0  0  0  0  0
  183.9530  180.4860  139.0380 O   0  0  0  0  0  0  0  0  0  0  0  0
  190.5880  177.8930  142.3390 C   0  0  0  0  0  2  0  0  0  0  0  0
  191.6830  177.5040  143.3380 C   0  0  0  0  0  2  0  0  0  0  0  0
  189.7910  177.6910  144.9660 C   0  0  0  0  0  3  0  0  0  0  0  0
  191.0860  177.2470  144.6790 C   0  0  0  0  0  0  0  0  0  0  0  0
  191.8150  176.6100  145.6360 N   0  0  0  0  0  0  0  0  0  0  0  0
  189.2630  177.4720  146.2400 C   0  0  0  0  0  3  0  0  0  0  0  0
  191.3160  176.3850  146.8810 C   0  0  0  0  0  0  0  0  0  0  0  0
  190.0260  176.8140  147.2050 C   0  0  0  0  0  3  0  0  0  0  0  0
  192.1070  175.7160  147.8550 N   0  0  0  0  0  1  0  0  0  0  0  0
  191.3040  177.2880  140.1940 N   0  0  0  0  0  2  0  0  0  0  0  0
  191.0140  176.3970  139.0840 C   0  0  0  0  0  2  0  0  0  0  0  0
  191.7900  176.7570  137.9830 O   0  0  0  0  0  0  0  0  0  0  0  0
  193.0890  176.3780  138.3240 C   0  0  0  0  0  2  0  0  0  0  0  0
  192.7830  175.3280  135.8240 S   0  0  0  0  0  0  0  0  0  0  0  0
  194.3590  175.9630  135.1700 C   0  0  0  0  0  2  0  0  0  0  0  0
  193.5170  175.1870  137.4820 C   0  0  1  0  0  3  0  0  0  0  0  0
  194.9930  175.2250  137.2790 C   0  0  0  0  0  0  0  0  0  0  0  0
  195.3980  175.6190  136.1210 N   0  0  0  0  0  0  0  0  0  0  0  0
  196.0520  173.7500  138.9320 C   0  0  0  0  0  3  0  0  0  0  0  0
  195.1870  172.6450  138.6800 N   0  0  0  0  0  1  0  0  0  0  0  0
  195.9540  174.8760  138.2900 N   0  0  0  0  0  0  0  0  0  0  0  0
  1 14  1  0  0  0  0
  2  1  1  0  0  0  0
  4  3  1  6  0  0  0
  4  2  1  0  0  0  0
  4  5  1  0  0  0  0
  5  7  1  0  0  0  0
  7  6  2  0  0  0  0
  8  6  1  0  0  0  0
  9  8  2  0  0  0  0
 10  9  1  0  0  0  0
 10  5  2  0  0  0  0
 11  9  1  0  0  0  0
 12 11  1  0  0  0  0
 13 11  2  0  0  0  0
 14 15  1  0  0  0  0
 15 17  1  0  0  0  0
 16 19  1  0  0  0  0
 17 16  2  0  0  0  0
 17 18  1  0  0  0  0
 18 20  2  0  0  0  0
 19 21  2  0  0  0  0
 20 21  1  0  0  0  0
 20 22  1  0  0  0  0
 23  1  1  0  0  0  0
 24 23  1  0  0  0  0
 25 26  1  0  0  0  0
 25 24  1  0  0  0  0
 27 29  1  0  0  0  0
 28 27  1  0  0  0  0
 28 31  1  0  0  0  0
 29 26  1  1  0  0  0
 30 29  1  0  0  0  0
 30 34  1  0  0  0  0
 31 30  2  0  0  0  0
 33 32  1  0  0  0  0
 34 32  2  0  0  0  0
M  END
>  <MODEL>
9

>  <REMARK>
 VINA RESULT:      -7.6      4.129      8.145
  Name = 
  13 active torsions:
  status: ('A' for Active; 'I' for Inactive)
    1  A    between atoms: C_3  and  C_8
    2  A    between atoms: C_3  and  N_20
    3  A    between atoms: C_4  and  C_8
    4  A    between atoms: C_9  and  C_17
    5  A    between atoms: C_9  and  O_19
    6  A    between atoms: C_12  and  O_19
    7  A    between atoms: C_12  and  N_34
    8  A    between atoms: C_15  and  CA_26
    9  A    between atoms: C_16  and  N_20
   10  A    between atoms: C_16  and  C_32
   11  A    between atoms: C_18  and  C_32
   12  A    between atoms: N_20  and  N_34
   13  A    between atoms: C_21  and  N_30
                            x       y       z     vdW  Elec       q    Type
                         _______ _______ _______ _____ _____    ______ ____

>  <TORSDO>
F 13

$$$$
