=
 OpenBabel10222418123D

 45 50  0  0  1  0  0  0  0  0999 V2000
  183.8450  179.1760  140.7180 C   0  0  0  0  0  2  0  0  0  0  0  0
  187.5340  178.2430  138.7650 C   0  0  0  0  0  0  0  0  0  0  0  0
  183.4630  178.1750  143.2890 O   0  0  0  0  0  0  0  0  0  0  0  0
  183.8830  178.7510  139.2560 C   0  0  1  0  0  3  0  0  0  0  0  0
  185.6920  178.6850  143.9440 C   0  0  2  0  0  3  0  0  0  0  0  0
  184.6340  178.4680  142.9170 C   0  0  0  0  0  0  0  0  0  0  0  0
  189.1540  178.6960  136.9140 C   0  0  0  0  0  2  0  0  0  0  0  0
  188.6610  177.6340  139.5060 C   0  0  0  0  0  0  0  0  0  0  0  0
  186.4690  177.4040  144.0830 C   0  0  0  0  0  2  0  0  0  0  0  0
  185.2280  179.1040  138.6410 C   0  0  0  0  0  2  0  0  0  0  0  0
  189.8160  177.3380  138.9000 C   0  0  0  0  0  3  0  0  0  0  0  0
  188.6170  176.7630  143.1550 N   0  0  0  0  0  0  0  0  0  0  0  0
  188.4730  177.4320  140.9010 N   0  0  0  0  0  0  0  0  0  0  0  0
  187.2640  177.7370  141.5680 C   0  0  0  0  0  0  0  0  0  0  0  0
  190.4390  176.3810  141.6960 O   0  0  0  0  0  0  0  0  0  0  0  0
  186.2170  178.2930  140.9030 C   0  0  0  0  0  0  0  0  0  0  0  0
  186.3790  178.5240  139.4180 C   0  0  0  0  0  0  0  0  0  0  0  0
  189.2770  176.8240  141.8960 C   0  0  0  0  0  0  0  0  0  0  0  0
  184.9250  178.5830  141.5140 N   0  0  0  0  0  0  0  0  0  0  0  0
  187.4480  177.3020  142.9720 C   0  0  0  0  0  0  0  0  0  0  0  0
  189.9910  177.5220  137.4180 C   0  0  0  0  0  2  0  0  0  0  0  0
  187.6860  178.4800  137.2810 C   0  0  0  0  0  2  0  0  0  0  0  0
  183.4970  177.3120  139.0510 C   0  0  0  0  0  0  0  0  0  0  0  0
  183.0680  176.6380  139.9760 O   0  0  0  0  0  0  0  0  0  0  0  0
  183.7070  176.5610  137.4330 S   0  0  0  0  0  0  0  0  0  0  0  0
  183.8510  173.8080  137.1050 C   0  0  1  0  0  3  0  0  0  0  0  0
  182.8270  172.8670  136.6880 N   0  0  0  0  0  2  0  0  0  0  0  0
  181.7320  174.7180  137.6980 N   0  0  0  0  0  2  0  0  0  0  0  0
  183.1560  174.8810  137.9090 C   0  0  2  0  0  3  0  0  0  0  0  0
  181.5800  173.3340  137.2810 C   0  0  0  0  0  2  0  0  0  0  0  0
  184.8890  173.0910  137.9510 C   0  0  0  0  0  2  0  0  0  0  0  0
  186.1490  172.8390  137.1440 C   0  0  0  0  0  1  0  0  0  0  0  0
  185.1270  179.0290  145.1750 O   0  0  0  0  0  0  0  0  0  0  0  0
  185.6410  178.0970  146.0800 C   0  0  0  0  0  2  0  0  0  0  0  0
  186.4230  178.8080  147.1700 C   0  0  0  0  0  2  0  0  0  0  0  0
  187.5430  177.9160  147.6790 C   0  0  0  0  0  2  0  0  0  0  0  0
  188.6700  177.8550  146.6640 C   0  0  0  0  0  2  0  0  0  0  0  0
  189.4900  176.6760  146.8990 N   0  0  0  0  0  2  0  0  0  0  0  0
  190.8830  177.0860  146.7890 C   0  0  2  0  0  3  0  0  0  0  0  0
  191.3140  177.0910  145.3570 C   0  0  0  0  0  0  0  0  0  0  0  0
  191.3830  178.2930  144.6670 O   0  0  0  0  0  0  0  0  0  0  0  0
  191.6330  176.0180  144.7790 O   0  0  0  0  0  1  0  0  0  0  0  0
  191.5520  174.8570  147.6150 F   0  0  0  0  0  0  0  0  0  0  0  0
  191.7630  176.1970  147.6160 C   0  0  0  0  0  0  0  0  0  0  0  0
  192.6680  176.6670  148.2880 O   0  0  0  0  0  0  0  0  0  0  0  0
  1 19  1  0  0  0  0
  2 17  2  0  0  0  0
  2  8  1  0  0  0  0
  4 23  1  1  0  0  0
  4  1  1  0  0  0  0
  5  9  1  0  0  0  0
  5 33  1  1  0  0  0
  6  3  2  0  0  0  0
  6  5  1  0  0  0  0
  7 22  1  0  0  0  0
  7 21  1  0  0  0  0
  8 13  1  0  0  0  0
 10  4  1  0  0  0  0
 10 17  1  0  0  0  0
 11  8  2  0  0  0  0
 13 14  1  0  0  0  0
 13 18  1  0  0  0  0
 14 20  1  0  0  0  0
 15 18  2  0  0  0  0
 16 19  1  0  0  0  0
 16 14  2  0  0  0  0
 17 16  1  0  0  0  0
 18 12  1  0  0  0  0
 19  6  1  0  0  0  0
 20 12  2  0  0  0  0
 20  9  1  0  0  0  0
 21 11  1  0  0  0  0
 22  2  1  0  0  0  0
 23 24  2  0  0  0  0
 25 23  1  0  0  0  0
 26 29  1  0  0  0  0
 26 31  1  1  0  0  0
 27 26  1  0  0  0  0
 27 30  1  0  0  0  0
 28 29  1  0  0  0  0
 29 25  1  6  0  0  0
 30 28  1  0  0  0  0
 32 31  1  0  0  0  0
 33 34  1  0  0  0  0
 34 35  1  0  0  0  0
 35 36  1  0  0  0  0
 37 38  1  0  0  0  0
 37 36  1  0  0  0  0
 39 40  1  6  0  0  0
 39 38  1  0  0  0  0
 39 44  1  0  0  0  0
 41 40  2  0  0  0  0
 42 40  1  0  0  0  0
 43 44  1  0  0  0  0
 44 45  2  0  0  0  0
M  END
>  <MODEL>
1

>  <REMARK>
 VINA RESULT:      -8.0      0.000      0.000
  Name = 
  13 active torsions:
  status: ('A' for Active; 'I' for Inactive)
    1  A    between atoms: CA_2  and  C_13
    2  A    between atoms: CA_2  and  N_41
    3  A    between atoms: CA_2  and  C_42
    4  A    between atoms: S_4  and  C_14
    5  A    between atoms: S_4  and  C_20
    6  A    between atoms: C_5  and  C_30
    7  A    between atoms: C_8  and  C_14
    8  A    between atoms: C_9  and  O_18
    9  A    between atoms: C_9  and  C_38
   10  A    between atoms: C_10  and  O_18
   11  A    between atoms: C_12  and  C_34
   12  A    between atoms: C_12  and  N_41
   13  A    between atoms: C_34  and  C_38
                            x       y       z     vdW  Elec       q    Type
                         _______ _______ _______ _____ _____    ______ ____

>  <TORSDO>
F 13

$$$$
=
 OpenBabel10222418123D

 45 50  0  0  1  0  0  0  0  0999 V2000
  183.7940  179.2040  141.0380 C   0  0  0  0  0  2  0  0  0  0  0  0
  187.4120  178.2610  138.9610 C   0  0  0  0  0  0  0  0  0  0  0  0
  183.5080  178.2230  143.6310 O   0  0  0  0  0  0  0  0  0  0  0  0
  183.7800  178.7660  139.5800 C   0  0  1  0  0  3  0  0  0  0  0  0
  185.7580  178.7420  144.1990 C   0  0  2  0  0  3  0  0  0  0  0  0
  184.6640  178.5150  143.2140 C   0  0  0  0  0  0  0  0  0  0  0  0
  188.9630  178.7020  137.0490 C   0  0  0  0  0  2  0  0  0  0  0  0
  188.5670  177.6610  139.6660 C   0  0  0  0  0  0  0  0  0  0  0  0
  186.5420  177.4640  144.3210 C   0  0  0  0  0  2  0  0  0  0  0  0
  185.1020  179.1170  138.9140 C   0  0  0  0  0  2  0  0  0  0  0  0
  189.7000  177.3620  139.0210 C   0  0  0  0  0  3  0  0  0  0  0  0
  188.6570  176.8200  143.3210 N   0  0  0  0  0  0  0  0  0  0  0  0
  188.4300  177.4700  141.0680 N   0  0  0  0  0  0  0  0  0  0  0  0
  187.2450  177.7780  141.7760 C   0  0  0  0  0  0  0  0  0  0  0  0
  190.4260  176.4300  141.8000 O   0  0  0  0  0  0  0  0  0  0  0  0
  186.1740  178.3260  141.1460 C   0  0  0  0  0  0  0  0  0  0  0  0
  186.2810  178.5460  139.6530 C   0  0  0  0  0  0  0  0  0  0  0  0
  189.2710  176.8710  142.0390 C   0  0  0  0  0  0  0  0  0  0  0  0
  184.9030  178.6190  141.8000 N   0  0  0  0  0  0  0  0  0  0  0  0
  187.4810  177.3550  143.1760 C   0  0  0  0  0  0  0  0  0  0  0  0
  189.8210  177.5340  137.5320 C   0  0  0  0  0  2  0  0  0  0  0  0
  187.5100  178.4870  137.4710 C   0  0  0  0  0  2  0  0  0  0  0  0
  183.3910  177.3250  139.4010 C   0  0  0  0  0  0  0  0  0  0  0  0
  182.8630  176.6990  140.3080 O   0  0  0  0  0  0  0  0  0  0  0  0
  183.7420  176.4990  137.8440 S   0  0  0  0  0  0  0  0  0  0  0  0
  181.0970  177.3410  137.8480 C   0  0  1  0  0  3  0  0  0  0  0  0
  179.9190  176.7010  138.4030 N   0  0  0  0  0  2  0  0  0  0  0  0
  181.4850  174.9920  137.8790 N   0  0  0  0  0  2  0  0  0  0  0  0
  182.0000  176.2380  137.3480 C   0  0  2  0  0  3  0  0  0  0  0  0
  180.0900  175.2700  138.1780 C   0  0  0  0  0  2  0  0  0  0  0  0
  180.6910  178.2600  136.7080 C   0  0  0  0  0  2  0  0  0  0  0  0
  181.1980  179.6680  136.9550 C   0  0  0  0  0  1  0  0  0  0  0  0
  185.2380  179.0960  145.4480 O   0  0  0  0  0  0  0  0  0  0  0  0
  185.7330  178.1330  146.3300 C   0  0  0  0  0  2  0  0  0  0  0  0
  186.6360  178.7870  147.3600 C   0  0  0  0  0  2  0  0  0  0  0  0
  187.7000  177.8070  147.8240 C   0  0  0  0  0  2  0  0  0  0  0  0
  188.9450  177.9350  146.9640 C   0  0  0  0  0  2  0  0  0  0  0  0
  189.6740  176.6760  146.9500 N   0  0  0  0  0  2  0  0  0  0  0  0
  191.0890  176.9950  146.8240 C   0  0  2  0  0  3  0  0  0  0  0  0
  191.5120  176.9310  145.3910 C   0  0  0  0  0  0  0  0  0  0  0  0
  191.6360  178.1040  144.6600 O   0  0  0  0  0  0  0  0  0  0  0  0
  191.7750  175.8250  144.8470 O   0  0  0  0  0  1  0  0  0  0  0  0
  191.6200  174.7540  147.7150 F   0  0  0  0  0  0  0  0  0  0  0  0
  191.9170  176.0770  147.6740 C   0  0  0  0  0  0  0  0  0  0  0  0
  192.8540  176.5080  148.3270 O   0  0  0  0  0  0  0  0  0  0  0  0
  1 19  1  0  0  0  0
  2 17  2  0  0  0  0
  2  8  1  0  0  0  0
  4 23  1  1  0  0  0
  4  1  1  0  0  0  0
  5  9  1  0  0  0  0
  5 33  1  1  0  0  0
  6  3  2  0  0  0  0
  6  5  1  0  0  0  0
  7 22  1  0  0  0  0
  7 21  1  0  0  0  0
  8 13  1  0  0  0  0
 10  4  1  0  0  0  0
 10 17  1  0  0  0  0
 11  8  2  0  0  0  0
 13 14  1  0  0  0  0
 13 18  1  0  0  0  0
 14 20  1  0  0  0  0
 15 18  2  0  0  0  0
 16 14  2  0  0  0  0
 16 19  1  0  0  0  0
 17 16  1  0  0  0  0
 18 12  1  0  0  0  0
 19  6  1  0  0  0  0
 20 12  2  0  0  0  0
 20  9  1  0  0  0  0
 21 11  1  0  0  0  0
 22  2  1  0  0  0  0
 23 24  2  0  0  0  0
 25 23  1  0  0  0  0
 26 31  1  6  0  0  0
 26 27  1  0  0  0  0
 28 30  1  0  0  0  0
 29 25  1  1  0  0  0
 29 26  1  0  0  0  0
 29 28  1  0  0  0  0
 30 27  1  0  0  0  0
 31 32  1  0  0  0  0
 33 34  1  0  0  0  0
 34 35  1  0  0  0  0
 35 36  1  0  0  0  0
 37 36  1  0  0  0  0
 38 37  1  0  0  0  0
 39 40  1  6  0  0  0
 39 38  1  0  0  0  0
 39 44  1  0  0  0  0
 41 40  2  0  0  0  0
 42 40  1  0  0  0  0
 44 43  1  0  0  0  0
 44 45  2  0  0  0  0
M  END
>  <MODEL>
2

>  <REMARK>
 VINA RESULT:      -7.8      1.314      1.983
  Name = 
  13 active torsions:
  status: ('A' for Active; 'I' for Inactive)
    1  A    between atoms: CA_2  and  C_13
    2  A    between atoms: CA_2  and  N_41
    3  A    between atoms: CA_2  and  C_42
    4  A    between atoms: S_4  and  C_14
    5  A    between atoms: S_4  and  C_20
    6  A    between atoms: C_5  and  C_30
    7  A    between atoms: C_8  and  C_14
    8  A    between atoms: C_9  and  O_18
    9  A    between atoms: C_9  and  C_38
   10  A    between atoms: C_10  and  O_18
   11  A    between atoms: C_12  and  C_34
   12  A    between atoms: C_12  and  N_41
   13  A    between atoms: C_34  and  C_38
                            x       y       z     vdW  Elec       q    Type
                         _______ _______ _______ _____ _____    ______ ____

>  <TORSDO>
F 13

$$$$
=
 OpenBabel10222418123D

 45 50  0  0  1  0  0  0  0  0999 V2000
  188.6950  178.7780  141.4800 C   0  0  0  0  0  2  0  0  0  0  0  0
  185.0350  178.5360  139.2800 C   0  0  0  0  0  0  0  0  0  0  0  0
  190.7250  176.9950  140.7960 O   0  0  0  0  0  0  0  0  0  0  0  0
  187.3440  178.8490  142.1780 C   0  0  1  0  0  3  0  0  0  0  0  0
  190.3390  177.2700  138.4650 C   0  0  2  0  0  3  0  0  0  0  0  0
  189.9360  177.3960  139.8950 C   0  0  0  0  0  0  0  0  0  0  0  0
  182.8500  179.5690  138.6350 C   0  0  0  0  0  2  0  0  0  0  0  0
  184.9320  177.7230  138.0490 C   0  0  0  0  0  0  0  0  0  0  0  0
  189.7150  176.0150  137.9190 C   0  0  0  0  0  2  0  0  0  0  0  0
  186.2880  179.3860  141.2250 C   0  0  0  0  0  2  0  0  0  0  0  0
  183.7900  177.6420  137.3580 C   0  0  0  0  0  3  0  0  0  0  0  0
  187.7290  175.7150  136.5580 N   0  0  0  0  0  0  0  0  0  0  0  0
  186.1210  177.0780  137.6090 N   0  0  0  0  0  0  0  0  0  0  0  0
  187.3440  177.1480  138.3170 C   0  0  0  0  0  0  0  0  0  0  0  0
  185.5340  175.8310  135.6850 O   0  0  0  0  0  0  0  0  0  0  0  0
  187.4550  177.8870  139.4520 C   0  0  0  0  0  0  0  0  0  0  0  0
  186.2110  178.5880  139.9520 C   0  0  0  0  0  0  0  0  0  0  0  0
  186.3850  176.1820  136.5440 C   0  0  0  0  0  0  0  0  0  0  0  0
  188.6660  177.9600  140.2620 N   0  0  0  0  0  0  0  0  0  0  0  0
  188.2940  176.2810  137.5830 C   0  0  0  0  0  0  0  0  0  0  0  0
  182.5300  178.2970  137.8520 C   0  0  0  0  0  2  0  0  0  0  0  0
  183.8000  179.2430  139.7880 C   0  0  0  0  0  2  0  0  0  0  0  0
  186.9490  177.5540  142.8320 C   0  0  0  0  0  0  0  0  0  0  0  0
  185.7750  177.2870  143.0400 O   0  0  0  0  0  0  0  0  0  0  0  0
  188.2240  176.3990  143.3510 S   0  0  0  0  0  0  0  0  0  0  0  0
  190.2350  176.8870  145.2020 C   0  0  1  0  0  3  0  0  0  0  0  0
  190.1620  176.9890  146.6480 N   0  0  0  0  0  2  0  0  0  0  0  0
  188.0370  177.6010  145.7770 N   0  0  0  0  0  2  0  0  0  0  0  0
  188.9460  177.4580  144.6580 C   0  0  2  0  0  3  0  0  0  0  0  0
  188.9010  177.6580  146.9450 C   0  0  0  0  0  2  0  0  0  0  0  0
  191.4280  177.6780  144.6930 C   0  0  0  0  0  2  0  0  0  0  0  0
  190.9750  179.0000  144.1010 C   0  0  0  0  0  1  0  0  0  0  0  0
  191.7300  177.1960  138.3460 O   0  0  0  0  0  0  0  0  0  0  0  0
  191.9550  176.2220  137.3680 C   0  0  0  0  0  2  0  0  0  0  0  0
  193.3720  176.3380  136.8370 C   0  0  0  0  0  2  0  0  0  0  0  0
  193.5390  175.4800  135.5950 C   0  0  0  0  0  2  0  0  0  0  0  0
  194.8390  174.6990  135.6660 C   0  0  0  0  0  2  0  0  0  0  0  0
  195.7600  175.3450  136.5890 N   0  0  0  0  0  2  0  0  0  0  0  0
  196.4320  174.2940  137.3400 C   0  0  2  0  0  3  0  0  0  0  0  0
  195.7490  174.0720  138.6510 C   0  0  0  0  0  0  0  0  0  0  0  0
  195.4190  175.1610  139.4460 O   0  0  0  0  0  1  0  0  0  0  0  0
  195.4530  172.9070  139.0320 O   0  0  0  0  0  0  0  0  0  0  0  0
  198.8240  173.9340  136.8450 F   0  0  0  0  0  0  0  0  0  0  0  0
  197.8820  174.6260  137.5340 C   0  0  0  0  0  0  0  0  0  0  0  0
  198.2220  175.5120  138.3020 O   0  0  0  0  0  0  0  0  0  0  0  0
  1  4  1  0  0  0  0
  2 22  1  0  0  0  0
  2 17  2  0  0  0  0
  4 23  1  6  0  0  0
  5 33  1  1  0  0  0
  5  6  1  0  0  0  0
  6 19  1  0  0  0  0
  6  3  2  0  0  0  0
  7 22  1  0  0  0  0
  8  2  1  0  0  0  0
  9  5  1  0  0  0  0
 10  4  1  0  0  0  0
 11 21  1  0  0  0  0
 11  8  2  0  0  0  0
 12 20  2  0  0  0  0
 13  8  1  0  0  0  0
 13 14  1  0  0  0  0
 14 16  2  0  0  0  0
 15 18  2  0  0  0  0
 16 17  1  0  0  0  0
 16 19  1  0  0  0  0
 17 10  1  0  0  0  0
 18 12  1  0  0  0  0
 18 13  1  0  0  0  0
 19  1  1  0  0  0  0
 20  9  1  0  0  0  0
 20 14  1  0  0  0  0
 21  7  1  0  0  0  0
 23 24  2  0  0  0  0
 23 25  1  0  0  0  0
 26 31  1  6  0  0  0
 26 27  1  0  0  0  0
 27 30  1  0  0  0  0
 28 30  1  0  0  0  0
 29 25  1  6  0  0  0
 29 26  1  0  0  0  0
 29 28  1  0  0  0  0
 32 31  1  0  0  0  0
 34 33  1  0  0  0  0
 35 34  1  0  0  0  0
 36 37  1  0  0  0  0
 36 35  1  0  0  0  0
 37 38  1  0  0  0  0
 39 38  1  1  0  0  0
 39 44  1  0  0  0  0
 39 40  1  0  0  0  0
 40 42  2  0  0  0  0
 40 41  1  0  0  0  0
 43 44  1  0  0  0  0
 44 45  2  0  0  0  0
M  END
>  <MODEL>
3

>  <REMARK>
 VINA RESULT:      -7.1      4.297      8.515
  Name = 
  13 active torsions:
  status: ('A' for Active; 'I' for Inactive)
    1  A    between atoms: CA_2  and  C_13
    2  A    between atoms: CA_2  and  N_41
    3  A    between atoms: CA_2  and  C_42
    4  A    between atoms: S_4  and  C_14
    5  A    between atoms: S_4  and  C_20
    6  A    between atoms: C_5  and  C_30
    7  A    between atoms: C_8  and  C_14
    8  A    between atoms: C_9  and  O_18
    9  A    between atoms: C_9  and  C_38
   10  A    between atoms: C_10  and  O_18
   11  A    between atoms: C_12  and  C_34
   12  A    between atoms: C_12  and  N_41
   13  A    between atoms: C_34  and  C_38
                            x       y       z     vdW  Elec       q    Type
                         _______ _______ _______ _____ _____    ______ ____

>  <TORSDO>
F 13

$$$$
=
 OpenBabel10222418123D

 45 50  0  0  1  0  0  0  0  0999 V2000
  184.7250  179.0070  138.4100 C   0  0  0  0  0  2  0  0  0  0  0  0
  181.9510  175.8040  137.8280 C   0  0  0  0  0  0  0  0  0  0  0  0
  187.4360  178.3660  138.4580 O   0  0  0  0  0  0  0  0  0  0  0  0
  183.4510  178.9010  139.2370 C   0  0  1  0  0  3  0  0  0  0  0  0
  187.2300  176.8570  136.6310 C   0  0  2  0  0  3  0  0  0  0  0  0
  186.6610  177.6790  137.7360 C   0  0  0  0  0  0  0  0  0  0  0  0
  179.6320  175.0520  137.2700 C   0  0  0  0  0  2  0  0  0  0  0  0
  182.4090  174.4590  137.4170 C   0  0  0  0  0  0  0  0  0  0  0  0
  187.3840  175.4480  137.1370 C   0  0  0  0  0  2  0  0  0  0  0  0
  182.3830  178.1460  138.4610 C   0  0  0  0  0  2  0  0  0  0  0  0
  181.5470  173.4530  137.2360 C   0  0  0  0  0  3  0  0  0  0  0  0
  185.9820  173.4970  136.7970 N   0  0  0  0  0  0  0  0  0  0  0  0
  183.8020  174.3040  137.1730 N   0  0  0  0  0  0  0  0  0  0  0  0
  184.7360  175.3510  137.3550 C   0  0  0  0  0  0  0  0  0  0  0  0
  184.1380  172.0270  136.6270 O   0  0  0  0  0  0  0  0  0  0  0  0
  184.3350  176.5920  137.7350 C   0  0  0  0  0  0  0  0  0  0  0  0
  182.8600  176.7950  138.0030 C   0  0  0  0  0  0  0  0  0  0  0  0
  184.5970  173.1790  136.8460 C   0  0  0  0  0  0  0  0  0  0  0  0
  185.2470  177.7000  137.9940 N   0  0  0  0  0  0  0  0  0  0  0  0
  186.0690  174.7620  137.0840 C   0  0  0  0  0  0  0  0  0  0  0  0
  180.0820  173.6160  137.5320 C   0  0  0  0  0  2  0  0  0  0  0  0
  180.4800  176.0190  138.0960 C   0  0  0  0  0  2  0  0  0  0  0  0
  183.6870  178.3470  140.6140 C   0  0  0  0  0  0  0  0  0  0  0  0
  183.0600  177.3790  141.0180 O   0  0  0  0  0  0  0  0  0  0  0  0
  184.8800  179.1420  141.6970 S   0  0  0  0  0  0  0  0  0  0  0  0
  183.3190  179.2290  143.9920 C   0  0  1  0  0  3  0  0  0  0  0  0
  183.7170  179.2200  145.3870 N   0  0  0  0  0  2  0  0  0  0  0  0
  185.4150  178.1090  144.1500 N   0  0  0  0  0  2  0  0  0  0  0  0
  184.3070  178.3590  143.2500 C   0  0  2  0  0  3  0  0  0  0  0  0
  184.8630  178.3230  145.4780 C   0  0  0  0  0  2  0  0  0  0  0  0
  181.9110  178.6750  143.8580 C   0  0  0  0  0  2  0  0  0  0  0  0
  181.0820  179.5490  142.9360 C   0  0  0  0  0  1  0  0  0  0  0  0
  188.4750  177.3530  136.2330 O   0  0  0  0  0  0  0  0  0  0  0  0
  189.3540  176.2760  136.3790 C   0  0  0  0  0  2  0  0  0  0  0  0
  190.6330  176.7390  137.0520 C   0  0  0  0  0  2  0  0  0  0  0  0
  190.3090  177.5350  138.3060 C   0  0  0  0  0  2  0  0  0  0  0  0
  191.0920  176.9950  139.4890 C   0  0  0  0  0  2  0  0  0  0  0  0
  190.1800  176.4630  140.4900 N   0  0  0  0  0  2  0  0  0  0  0  0
  190.3320  177.2720  141.6910 C   0  0  2  0  0  3  0  0  0  0  0  0
  190.8790  176.4470  142.8110 C   0  0  0  0  0  0  0  0  0  0  0  0
  190.4840  175.1230  142.9440 O   0  0  0  0  0  0  0  0  0  0  0  0
  191.7100  176.9350  143.6230 O   0  0  0  0  0  1  0  0  0  0  0  0
  188.4100  177.5270  143.2200 F   0  0  0  0  0  0  0  0  0  0  0  0
  189.0270  177.9050  142.0720 C   0  0  0  0  0  0  0  0  0  0  0  0
  188.5160  178.7580  141.3630 O   0  0  0  0  0  0  0  0  0  0  0  0
  1  4  1  0  0  0  0
  2 17  2  0  0  0  0
  2 22  1  0  0  0  0
  4 23  1  1  0  0  0
  5 33  1  1  0  0  0
  5  9  1  0  0  0  0
  5  6  1  0  0  0  0
  6 19  1  0  0  0  0
  6  3  2  0  0  0  0
  7 21  1  0  0  0  0
  7 22  1  0  0  0  0
  8  2  1  0  0  0  0
 10  4  1  0  0  0  0
 11  8  2  0  0  0  0
 11 21  1  0  0  0  0
 12 18  1  0  0  0  0
 12 20  2  0  0  0  0
 13 14  1  0  0  0  0
 13  8  1  0  0  0  0
 14 16  2  0  0  0  0
 15 18  2  0  0  0  0
 16 19  1  0  0  0  0
 16 17  1  0  0  0  0
 17 10  1  0  0  0  0
 18 13  1  0  0  0  0
 19  1  1  0  0  0  0
 20  9  1  0  0  0  0
 20 14  1  0  0  0  0
 23 24  2  0  0  0  0
 23 25  1  0  0  0  0
 26 31  1  1  0  0  0
 26 27  1  0  0  0  0
 27 30  1  0  0  0  0
 28 30  1  0  0  0  0
 29 25  1  6  0  0  0
 29 26  1  0  0  0  0
 29 28  1  0  0  0  0
 32 31  1  0  0  0  0
 33 34  1  0  0  0  0
 34 35  1  0  0  0  0
 35 36  1  0  0  0  0
 36 37  1  0  0  0  0
 37 38  1  0  0  0  0
 39 38  1  6  0  0  0
 39 44  1  0  0  0  0
 39 40  1  0  0  0  0
 40 41  2  0  0  0  0
 40 42  1  0  0  0  0
 44 43  1  0  0  0  0
 45 44  2  0  0  0  0
M  END
>  <MODEL>
4

>  <REMARK>
 VINA RESULT:      -6.9      2.646      7.239
  Name = 
  13 active torsions:
  status: ('A' for Active; 'I' for Inactive)
    1  A    between atoms: CA_2  and  C_13
    2  A    between atoms: CA_2  and  N_41
    3  A    between atoms: CA_2  and  C_42
    4  A    between atoms: S_4  and  C_14
    5  A    between atoms: S_4  and  C_20
    6  A    between atoms: C_5  and  C_30
    7  A    between atoms: C_8  and  C_14
    8  A    between atoms: C_9  and  O_18
    9  A    between atoms: C_9  and  C_38
   10  A    between atoms: C_10  and  O_18
   11  A    between atoms: C_12  and  C_34
   12  A    between atoms: C_12  and  N_41
   13  A    between atoms: C_34  and  C_38
                            x       y       z     vdW  Elec       q    Type
                         _______ _______ _______ _____ _____    ______ ____

>  <TORSDO>
F 13

$$$$
=
 OpenBabel10222418123D

 45 50  0  0  1  0  0  0  0  0999 V2000
  183.0820  178.5340  137.9900 C   0  0  0  0  0  2  0  0  0  0  0  0
  181.8110  174.5450  137.1180 C   0  0  0  0  0  0  0  0  0  0  0  0
  185.7910  178.9370  138.5020 O   0  0  0  0  0  0  0  0  0  0  0  0
  181.8170  177.9530  138.6050 C   0  0  1  0  0  3  0  0  0  0  0  0
  186.4580  177.4880  136.7370 C   0  0  2  0  0  3  0  0  0  0  0  0
  185.4520  178.0240  137.6970 C   0  0  0  0  0  0  0  0  0  0  0  0
  180.0550  173.0000  136.2310 C   0  0  0  0  0  2  0  0  0  0  0  0
  182.7910  173.4690  136.8490 C   0  0  0  0  0  0  0  0  0  0  0  0
  187.0310  176.2270  137.3260 C   0  0  0  0  0  2  0  0  0  0  0  0
  181.2440  176.8700  137.7040 C   0  0  0  0  0  2  0  0  0  0  0  0
  182.4000  172.2200  136.5780 C   0  0  0  0  0  3  0  0  0  0  0  0
  186.5180  173.9030  136.8550 N   0  0  0  0  0  0  0  0  0  0  0  0
  184.1630  173.8440  136.8390 N   0  0  0  0  0  0  0  0  0  0  0  0
  184.6060  175.1580  137.1200 C   0  0  0  0  0  0  0  0  0  0  0  0
  185.3950  171.8590  136.4590 O   0  0  0  0  0  0  0  0  0  0  0  0
  183.7210  176.1570  137.3730 C   0  0  0  0  0  0  0  0  0  0  0  0
  182.2510  175.7970  137.3920 C   0  0  0  0  0  0  0  0  0  0  0  0
  185.3580  173.0960  136.6950 C   0  0  0  0  0  0  0  0  0  0  0  0
  184.1070  177.5190  137.7230 N   0  0  0  0  0  0  0  0  0  0  0  0
  186.0860  175.1060  137.0940 C   0  0  0  0  0  0  0  0  0  0  0  0
  180.9490  171.8270  136.6270 C   0  0  0  0  0  2  0  0  0  0  0  0
  180.3410  174.1980  137.1370 C   0  0  0  0  0  2  0  0  0  0  0  0
  182.0070  177.5010  140.0270 C   0  0  0  0  0  0  0  0  0  0  0  0
  182.2780  176.3390  140.2860 O   0  0  0  0  0  0  0  0  0  0  0  0
  181.7920  178.6790  141.3670 S   0  0  0  0  0  0  0  0  0  0  0  0
  183.6490  179.2950  143.3370 C   0  0  1  0  0  3  0  0  0  0  0  0
  185.0350  179.7050  143.2120 N   0  0  0  0  0  2  0  0  0  0  0  0
  184.4920  178.4130  141.2930 N   0  0  0  0  0  2  0  0  0  0  0  0
  183.3760  178.3240  142.2130 C   0  0  2  0  0  3  0  0  0  0  0  0
  185.5820  178.9510  142.0910 C   0  0  0  0  0  2  0  0  0  0  0  0
  183.4320  178.6280  144.6850 C   0  0  0  0  0  2  0  0  0  0  0  0
  184.6040  178.9050  145.6080 C   0  0  0  0  0  1  0  0  0  0  0  0
  187.4830  178.4150  136.5220 O   0  0  0  0  0  0  0  0  0  0  0  0
  188.6300  177.8100  137.0430 C   0  0  0  0  0  2  0  0  0  0  0  0
  189.1880  178.6490  138.1780 C   0  0  0  0  0  2  0  0  0  0  0  0
  189.8210  177.7540  139.2300 C   0  0  0  0  0  2  0  0  0  0  0  0
  189.0590  177.8600  140.5390 C   0  0  0  0  0  2  0  0  0  0  0  0
  189.9900  178.0130  141.6470 N   0  0  0  0  0  2  0  0  0  0  0  0
  189.2630  177.7020  142.8700 C   0  0  2  0  0  3  0  0  0  0  0  0
  189.9900  178.2440  144.0600 C   0  0  0  0  0  0  0  0  0  0  0  0
  190.9080  179.2710  143.8940 O   0  0  0  0  0  0  0  0  0  0  0  0
  189.7620  177.7890  145.2130 O   0  0  0  0  0  1  0  0  0  0  0  0
  190.0960  175.3780  142.8610 F   0  0  0  0  0  0  0  0  0  0  0  0
  189.0440  176.2240  142.9960 C   0  0  0  0  0  0  0  0  0  0  0  0
  187.9310  175.7750  143.2210 O   0  0  0  0  0  0  0  0  0  0  0  0
  1  4  1  0  0  0  0
  2 22  1  0  0  0  0
  2 17  2  0  0  0  0
  4 23  1  1  0  0  0
  5 33  1  1  0  0  0
  5  9  1  0  0  0  0
  5  6  1  0  0  0  0
  6 19  1  0  0  0  0
  6  3  2  0  0  0  0
  7 21  1  0  0  0  0
  7 22  1  0  0  0  0
  8  2  1  0  0  0  0
 10  4  1  0  0  0  0
 11 21  1  0  0  0  0
 11  8  2  0  0  0  0
 12 20  2  0  0  0  0
 13  8  1  0  0  0  0
 13 14  1  0  0  0  0
 14 16  2  0  0  0  0
 15 18  2  0  0  0  0
 16 17  1  0  0  0  0
 16 19  1  0  0  0  0
 17 10  1  0  0  0  0
 18 13  1  0  0  0  0
 18 12  1  0  0  0  0
 19  1  1  0  0  0  0
 20 14  1  0  0  0  0
 20  9  1  0  0  0  0
 23 24  2  0  0  0  0
 23 25  1  0  0  0  0
 26 31  1  1  0  0  0
 27 26  1  0  0  0  0
 28 30  1  0  0  0  0
 28 29  1  0  0  0  0
 29 25  1  6  0  0  0
 29 26  1  0  0  0  0
 30 27  1  0  0  0  0
 31 32  1  0  0  0  0
 33 34  1  0  0  0  0
 34 35  1  0  0  0  0
 35 36  1  0  0  0  0
 36 37  1  0  0  0  0
 37 38  1  0  0  0  0
 39 38  1  6  0  0  0
 39 44  1  0  0  0  0
 39 40  1  0  0  0  0
 40 42  1  0  0  0  0
 41 40  2  0  0  0  0
 43 44  1  0  0  0  0
 44 45  2  0  0  0  0
M  END
>  <MODEL>
5

>  <REMARK>
 VINA RESULT:      -6.8      2.544      6.859
  Name = 
  13 active torsions:
  status: ('A' for Active; 'I' for Inactive)
    1  A    between atoms: CA_2  and  C_13
    2  A    between atoms: CA_2  and  N_41
    3  A    between atoms: CA_2  and  C_42
    4  A    between atoms: S_4  and  C_14
    5  A    between atoms: S_4  and  C_20
    6  A    between atoms: C_5  and  C_30
    7  A    between atoms: C_8  and  C_14
    8  A    between atoms: C_9  and  O_18
    9  A    between atoms: C_9  and  C_38
   10  A    between atoms: C_10  and  O_18
   11  A    between atoms: C_12  and  C_34
   12  A    between atoms: C_12  and  N_41
   13  A    between atoms: C_34  and  C_38
                            x       y       z     vdW  Elec       q    Type
                         _______ _______ _______ _____ _____    ______ ____

>  <TORSDO>
F 13

$$$$
=
 OpenBabel10222418123D

 45 50  0  0  1  0  0  0  0  0999 V2000
  183.0070  178.3590  139.2990 C   0  0  0  0  0  2  0  0  0  0  0  0
  186.5140  177.8820  136.8980 C   0  0  0  0  0  0  0  0  0  0  0  0
  183.2980  178.1240  142.0600 O   0  0  0  0  0  0  0  0  0  0  0  0
  182.9860  177.5350  138.0190 C   0  0  1  0  0  3  0  0  0  0  0  0
  185.3190  179.3780  142.0690 C   0  0  2  0  0  3  0  0  0  0  0  0
  184.2580  178.5880  141.3830 C   0  0  0  0  0  0  0  0  0  0  0  0
  187.6540  178.1610  134.6890 C   0  0  0  0  0  2  0  0  0  0  0  0
  187.8620  177.8470  137.5080 C   0  0  0  0  0  0  0  0  0  0  0  0
  186.4710  178.4520  142.3560 C   0  0  0  0  0  2  0  0  0  0  0  0
  184.0590  178.0260  137.0600 C   0  0  0  0  0  2  0  0  0  0  0  0
  188.9620  177.6970  136.7620 C   0  0  0  0  0  3  0  0  0  0  0  0
  188.5710  178.1490  141.1800 N   0  0  0  0  0  0  0  0  0  0  0  0
  187.9310  178.0370  138.9160 N   0  0  0  0  0  0  0  0  0  0  0  0
  186.7850  178.2010  139.7280 C   0  0  0  0  0  0  0  0  0  0  0  0
  190.2130  177.8360  139.5070 O   0  0  0  0  0  0  0  0  0  0  0  0
  185.5390  178.2320  139.1860 C   0  0  0  0  0  0  0  0  0  0  0  0
  185.4250  178.0340  137.6910 C   0  0  0  0  0  0  0  0  0  0  0  0
  189.0080  177.9950  139.8350 C   0  0  0  0  0  0  0  0  0  0  0  0
  184.3130  178.3420  139.9670 N   0  0  0  0  0  0  0  0  0  0  0  0
  187.2790  178.2780  141.1230 C   0  0  0  0  0  0  0  0  0  0  0  0
  188.8750  177.4600  135.2800 C   0  0  0  0  0  2  0  0  0  0  0  0
  186.3880  177.6880  135.4050 C   0  0  0  0  0  2  0  0  0  0  0  0
  183.0480  176.0540  138.2700 C   0  0  0  0  0  0  0  0  0  0  0  0
  183.9530  175.3750  137.8090 O   0  0  0  0  0  0  0  0  0  0  0  0
  181.7520  175.2630  139.2310 S   0  0  0  0  0  0  0  0  0  0  0  0
  181.2000  174.9300  136.5310 C   0  0  1  0  0  3  0  0  0  0  0  0
  180.5490  175.8310  135.5980 N   0  0  0  0  0  2  0  0  0  0  0  0
  179.7300  176.3350  137.7710 N   0  0  0  0  0  2  0  0  0  0  0  0
  180.5330  175.1330  137.8710 C   0  0  2  0  0  3  0  0  0  0  0  0
  179.4890  176.4960  136.3460 C   0  0  0  0  0  2  0  0  0  0  0  0
  181.0310  173.4960  136.0590 C   0  0  0  0  0  2  0  0  0  0  0  0
  181.9430  172.5690  136.8410 C   0  0  0  0  0  1  0  0  0  0  0  0
  184.8410  179.9190  143.2660 O   0  0  0  0  0  0  0  0  0  0  0  0
  185.4360  179.1510  144.2710 C   0  0  0  0  0  2  0  0  0  0  0  0
  184.4620  178.9570  145.4200 C   0  0  0  0  0  2  0  0  0  0  0  0
  185.1630  178.2960  146.5950 C   0  0  0  0  0  2  0  0  0  0  0  0
  186.3840  177.5310  146.1170 C   0  0  0  0  0  2  0  0  0  0  0  0
  187.5720  178.0050  146.8100 N   0  0  0  0  0  2  0  0  0  0  0  0
  188.6720  177.1260  146.4390 C   0  0  2  0  0  3  0  0  0  0  0  0
  189.7830  177.2310  147.4340 C   0  0  0  0  0  0  0  0  0  0  0  0
  189.6850  178.1400  148.4780 O   0  0  0  0  0  1  0  0  0  0  0  0
  190.7970  176.4880  147.3450 O   0  0  0  0  0  0  0  0  0  0  0  0
  189.7180  178.6470  144.7980 F   0  0  0  0  0  0  0  0  0  0  0  0
  189.1550  177.4390  145.0530 C   0  0  0  0  0  0  0  0  0  0  0  0
  189.0490  176.6180  144.1560 O   0  0  0  0  0  0  0  0  0  0  0  0
  1 19  1  0  0  0  0
  2  8  1  0  0  0  0
  2 17  2  0  0  0  0
  4 23  1  1  0  0  0
  4  1  1  0  0  0  0
  5  9  1  0  0  0  0
  5 33  1  1  0  0  0
  6  3  2  0  0  0  0
  6  5  1  0  0  0  0
  7 21  1  0  0  0  0
  7 22  1  0  0  0  0
  8 13  1  0  0  0  0
 10 17  1  0  0  0  0
 10  4  1  0  0  0  0
 11  8  2  0  0  0  0
 13 14  1  0  0  0  0
 13 18  1  0  0  0  0
 14 20  1  0  0  0  0
 15 18  2  0  0  0  0
 16 14  2  0  0  0  0
 16 19  1  0  0  0  0
 17 16  1  0  0  0  0
 18 12  1  0  0  0  0
 19  6  1  0  0  0  0
 20 12  2  0  0  0  0
 20  9  1  0  0  0  0
 21 11  1  0  0  0  0
 22  2  1  0  0  0  0
 23 25  1  0  0  0  0
 24 23  2  0  0  0  0
 26 31  1  6  0  0  0
 26 29  1  0  0  0  0
 27 30  1  0  0  0  0
 27 26  1  0  0  0  0
 28 29  1  0  0  0  0
 29 25  1  1  0  0  0
 30 28  1  0  0  0  0
 31 32  1  0  0  0  0
 33 34  1  0  0  0  0
 34 35  1  0  0  0  0
 35 36  1  0  0  0  0
 37 36  1  0  0  0  0
 37 38  1  0  0  0  0
 39 44  1  6  0  0  0
 39 38  1  0  0  0  0
 39 40  1  0  0  0  0
 40 41  1  0  0  0  0
 42 40  2  0  0  0  0
 43 44  1  0  0  0  0
 45 44  2  0  0  0  0
M  END
>  <MODEL>
6

>  <REMARK>
 VINA RESULT:      -6.7      2.071      2.784
  Name = 
  13 active torsions:
  status: ('A' for Active; 'I' for Inactive)
    1  A    between atoms: CA_2  and  C_13
    2  A    between atoms: CA_2  and  N_41
    3  A    between atoms: CA_2  and  C_42
    4  A    between atoms: S_4  and  C_14
    5  A    between atoms: S_4  and  C_20
    6  A    between atoms: C_5  and  C_30
    7  A    between atoms: C_8  and  C_14
    8  A    between atoms: C_9  and  O_18
    9  A    between atoms: C_9  and  C_38
   10  A    between atoms: C_10  and  O_18
   11  A    between atoms: C_12  and  C_34
   12  A    between atoms: C_12  and  N_41
   13  A    between atoms: C_34  and  C_38
                            x       y       z     vdW  Elec       q    Type
                         _______ _______ _______ _____ _____    ______ ____

>  <TORSDO>
F 13

$$$$
=
 OpenBabel10222418123D

 45 50  0  0  1  0  0  0  0  0999 V2000
  184.6180  179.4150  139.0280 C   0  0  0  0  0  2  0  0  0  0  0  0
  181.3720  176.6560  139.4090 C   0  0  0  0  0  0  0  0  0  0  0  0
  187.0030  178.4530  137.9550 O   0  0  0  0  0  0  0  0  0  0  0  0
  183.7610  179.3680  140.2850 C   0  0  1  0  0  3  0  0  0  0  0  0
  185.8770  177.2000  136.2760 C   0  0  2  0  0  3  0  0  0  0  0  0
  185.9120  177.9520  137.5620 C   0  0  0  0  0  0  0  0  0  0  0  0
  178.9310  176.2570  139.7770 C   0  0  0  0  0  2  0  0  0  0  0  0
  181.4210  175.3220  138.7720 C   0  0  0  0  0  0  0  0  0  0  0  0
  185.9930  175.7340  136.5950 C   0  0  0  0  0  2  0  0  0  0  0  0
  182.3730  178.8410  139.9550 C   0  0  0  0  0  2  0  0  0  0  0  0
  180.4100  174.4540  138.8890 C   0  0  0  0  0  3  0  0  0  0  0  0
  184.2830  174.0180  136.7260 N   0  0  0  0  0  0  0  0  0  0  0  0
  182.5700  175.0310  137.9850 N   0  0  0  0  0  0  0  0  0  0  0  0
  183.6530  175.9300  137.8410 C   0  0  0  0  0  0  0  0  0  0  0  0
  182.3110  172.8080  137.2170 O   0  0  0  0  0  0  0  0  0  0  0  0
  183.6270  177.1580  138.4220 C   0  0  0  0  0  0  0  0  0  0  0  0
  182.4210  177.5040  139.2670 C   0  0  0  0  0  0  0  0  0  0  0  0
  182.9920  173.8640  137.3030 C   0  0  0  0  0  0  0  0  0  0  0  0
  184.7290  178.1120  138.3620 N   0  0  0  0  0  0  0  0  0  0  0  0
  184.6690  175.2210  137.0290 C   0  0  0  0  0  0  0  0  0  0  0  0
  179.2170  174.7570  139.7530 C   0  0  0  0  0  2  0  0  0  0  0  0
  180.1710  177.0130  140.2530 C   0  0  0  0  0  2  0  0  0  0  0  0
  184.4200  178.6340  141.4200 C   0  0  0  0  0  0  0  0  0  0  0  0
  183.7730  177.9030  142.1560 O   0  0  0  0  0  0  0  0  0  0  0  0
  186.1760  178.8630  141.7230 S   0  0  0  0  0  0  0  0  0  0  0  0
  186.3810  178.6420  144.4830 C   0  0  1  0  0  3  0  0  0  0  0  0
  187.4210  178.0330  145.2920 N   0  0  0  0  0  2  0  0  0  0  0  0
  187.4210  176.9420  143.1800 N   0  0  0  0  0  2  0  0  0  0  0  0
  186.2680  177.8170  143.2230 C   0  0  2  0  0  3  0  0  0  0  0  0
  187.8610  176.8490  144.5630 C   0  0  0  0  0  2  0  0  0  0  0  0
  185.0690  178.6350  145.2480 C   0  0  0  0  0  2  0  0  0  0  0  0
  185.3260  178.6420  146.7430 C   0  0  0  0  0  1  0  0  0  0  0  0
  186.9330  177.5860  135.4450 O   0  0  0  0  0  0  0  0  0  0  0  0
  187.7430  176.4520  135.3430 C   0  0  0  0  0  2  0  0  0  0  0  0
  189.2050  176.8480  135.4480 C   0  0  0  0  0  2  0  0  0  0  0  0
  189.9160  175.9660  136.4600 C   0  0  0  0  0  2  0  0  0  0  0  0
  190.9720  176.7640  137.2040 C   0  0  0  0  0  2  0  0  0  0  0  0
  191.0980  176.2740  138.5680 N   0  0  0  0  0  2  0  0  0  0  0  0
  191.0480  177.4310  139.4510 C   0  0  2  0  0  3  0  0  0  0  0  0
  192.2170  177.4260  140.3840 C   0  0  0  0  0  0  0  0  0  0  0  0
  192.0000  177.4220  141.7550 O   0  0  0  0  0  1  0  0  0  0  0  0
  193.3950  177.4070  139.9380 O   0  0  0  0  0  0  0  0  0  0  0  0
  189.3930  178.5940  140.8670 F   0  0  0  0  0  0  0  0  0  0  0  0
  189.7530  177.4650  140.2070 C   0  0  0  0  0  0  0  0  0  0  0  0
  189.0190  176.4890  140.2310 O   0  0  0  0  0  0  0  0  0  0  0  0
  1  4  1  0  0  0  0
  2 22  1  0  0  0  0
  4 23  1  1  0  0  0
  5 33  1  6  0  0  0
  5  9  1  0  0  0  0
  5  6  1  0  0  0  0
  6  3  2  0  0  0  0
  6 19  1  0  0  0  0
  7 22  1  0  0  0  0
  8 11  2  0  0  0  0
  8  2  1  0  0  0  0
  9 20  1  0  0  0  0
 10  4  1  0  0  0  0
 11 21  1  0  0  0  0
 12 20  2  0  0  0  0
 12 18  1  0  0  0  0
 13  8  1  0  0  0  0
 14 13  1  0  0  0  0
 14 16  2  0  0  0  0
 15 18  2  0  0  0  0
 16 17  1  0  0  0  0
 17  2  2  0  0  0  0
 17 10  1  0  0  0  0
 18 13  1  0  0  0  0
 19 16  1  0  0  0  0
 19  1  1  0  0  0  0
 20 14  1  0  0  0  0
 21  7  1  0  0  0  0
 23 25  1  0  0  0  0
 23 24  2  0  0  0  0
 26 31  1  1  0  0  0
 26 27  1  0  0  0  0
 28 29  1  0  0  0  0
 28 30  1  0  0  0  0
 29 25  1  6  0  0  0
 29 26  1  0  0  0  0
 30 27  1  0  0  0  0
 31 32  1  0  0  0  0
 34 33  1  0  0  0  0
 34 35  1  0  0  0  0
 35 36  1  0  0  0  0
 36 37  1  0  0  0  0
 37 38  1  0  0  0  0
 39 38  1  1  0  0  0
 39 44  1  0  0  0  0
 39 40  1  0  0  0  0
 40 41  1  0  0  0  0
 42 40  2  0  0  0  0
 44 45  2  0  0  0  0
 44 43  1  0  0  0  0
M  END
>  <MODEL>
7

>  <REMARK>
 VINA RESULT:      -6.7      2.836      7.884
  Name = 
  13 active torsions:
  status: ('A' for Active; 'I' for Inactive)
    1  A    between atoms: CA_2  and  C_13
    2  A    between atoms: CA_2  and  N_41
    3  A    between atoms: CA_2  and  C_42
    4  A    between atoms: S_4  and  C_14
    5  A    between atoms: S_4  and  C_20
    6  A    between atoms: C_5  and  C_30
    7  A    between atoms: C_8  and  C_14
    8  A    between atoms: C_9  and  O_18
    9  A    between atoms: C_9  and  C_38
   10  A    between atoms: C_10  and  O_18
   11  A    between atoms: C_12  and  C_34
   12  A    between atoms: C_12  and  N_41
   13  A    between atoms: C_34  and  C_38
                            x       y       z     vdW  Elec       q    Type
                         _______ _______ _______ _____ _____    ______ ____

>  <TORSDO>
F 13

$$$$
=
 OpenBabel10222418123D

 45 50  0  0  1  0  0  0  0  0999 V2000
  191.9940  175.1510  138.4790 C   0  0  0  0  0  2  0  0  0  0  0  0
  188.2790  174.7680  136.3920 C   0  0  0  0  0  0  0  0  0  0  0  0
  192.4180  177.4930  139.9270 O   0  0  0  0  0  0  0  0  0  0  0  0
  191.9350  174.6130  137.0560 C   0  0  1  0  0  3  0  0  0  0  0  0
  190.1970  177.5070  140.7770 C   0  0  2  0  0  3  0  0  0  0  0  0
  191.2400  177.0500  139.8170 C   0  0  0  0  0  0  0  0  0  0  0  0
  186.6300  173.3130  135.2010 C   0  0  0  0  0  2  0  0  0  0  0  0
  187.1660  175.7140  136.6280 C   0  0  0  0  0  0  0  0  0  0  0  0
  189.4270  178.6240  140.1250 C   0  0  0  0  0  2  0  0  0  0  0  0
  190.5800  173.9770  136.7900 C   0  0  0  0  0  2  0  0  0  0  0  0
  186.0040  175.6010  135.9770 C   0  0  0  0  0  3  0  0  0  0  0  0
  187.2680  178.6040  139.0190 N   0  0  0  0  0  0  0  0  0  0  0  0
  187.3760  176.7130  137.6190 N   0  0  0  0  0  0  0  0  0  0  0  0
  188.5940  176.8550  138.3240 C   0  0  0  0  0  0  0  0  0  0  0  0
  185.4260  178.0540  137.6410 O   0  0  0  0  0  0  0  0  0  0  0  0
  189.6280  175.9980  138.1180 C   0  0  0  0  0  0  0  0  0  0  0  0
  189.4430  174.9220  137.0710 C   0  0  0  0  0  0  0  0  0  0  0  0
  186.5890  177.8070  138.0560 C   0  0  0  0  0  0  0  0  0  0  0  0
  190.9280  176.1180  138.7680 N   0  0  0  0  0  0  0  0  0  0  0  0
  188.4320  178.0490  139.1860 C   0  0  0  0  0  0  0  0  0  0  0  0
  185.8060  174.5650  134.9050 C   0  0  0  0  0  2  0  0  0  0  0  0
  188.1050  173.6880  135.3510 C   0  0  0  0  0  2  0  0  0  0  0  0
  192.3240  175.6340  136.0230 C   0  0  0  0  0  0  0  0  0  0  0  0
  191.5390  175.9770  135.1510 O   0  0  0  0  0  0  0  0  0  0  0  0
  193.9790  176.3330  136.0470 S   0  0  0  0  0  0  0  0  0  0  0  0
  196.2210  174.8580  136.7570 C   0  0  1  0  0  3  0  0  0  0  0  0
  197.1820  174.1650  135.9190 N   0  0  0  0  0  2  0  0  0  0  0  0
  195.1250  174.2540  134.7310 N   0  0  0  0  0  2  0  0  0  0  0  0
  194.8790  174.7390  136.0740 C   0  0  2  0  0  3  0  0  0  0  0  0
  196.4210  173.6000  134.8100 C   0  0  0  0  0  2  0  0  0  0  0  0
  196.1820  174.2100  138.1310 C   0  0  0  0  0  2  0  0  0  0  0  0
  195.2590  173.0050  138.1240 C   0  0  0  0  0  1  0  0  0  0  0  0
  190.7780  177.9650  141.9630 O   0  0  0  0  0  0  0  0  0  0  0  0
  189.8990  177.5650  142.9730 C   0  0  0  0  0  2  0  0  0  0  0  0
  189.3110  176.2050  142.6410 C   0  0  0  0  0  2  0  0  0  0  0  0
  187.9310  176.0650  143.2600 C   0  0  0  0  0  2  0  0  0  0  0  0
  187.4950  177.3820  143.8780 C   0  0  0  0  0  2  0  0  0  0  0  0
  186.7620  177.1350  145.1100 N   0  0  0  0  0  2  0  0  0  0  0  0
  187.0460  178.2420  146.0130 C   0  0  2  0  0  3  0  0  0  0  0  0
  188.0510  177.8320  147.0420 C   0  0  0  0  0  0  0  0  0  0  0  0
  189.4030  177.8740  146.7350 O   0  0  0  0  0  0  0  0  0  0  0  0
  187.6810  177.4680  148.1910 O   0  0  0  0  0  1  0  0  0  0  0  0
  184.6290  178.0500  146.4820 F   0  0  0  0  0  0  0  0  0  0  0  0
  185.7850  178.7390  146.6550 C   0  0  0  0  0  0  0  0  0  0  0  0
  185.7890  179.7550  147.3330 O   0  0  0  0  0  0  0  0  0  0  0  0
  1 19  1  0  0  0  0
  2  8  1  0  0  0  0
  2 17  2  0  0  0  0
  4 23  1  6  0  0  0
  4  1  1  0  0  0  0
  5 33  1  1  0  0  0
  6  3  2  0  0  0  0
  6  5  1  0  0  0  0
  7 22  1  0  0  0  0
  8 13  1  0  0  0  0
  9  5  1  0  0  0  0
 10  4  1  0  0  0  0
 10 17  1  0  0  0  0
 11  8  2  0  0  0  0
 12 20  2  0  0  0  0
 13 18  1  0  0  0  0
 13 14  1  0  0  0  0
 14 20  1  0  0  0  0
 15 18  2  0  0  0  0
 16 14  2  0  0  0  0
 16 19  1  0  0  0  0
 17 16  1  0  0  0  0
 18 12  1  0  0  0  0
 19  6  1  0  0  0  0
 20  9  1  0  0  0  0
 21  7  1  0  0  0  0
 21 11  1  0  0  0  0
 22  2  1  0  0  0  0
 23 25  1  0  0  0  0
 24 23  2  0  0  0  0
 26 31  1  1  0  0  0
 27 26  1  0  0  0  0
 28 30  1  0  0  0  0
 28 29  1  0  0  0  0
 29 25  1  6  0  0  0
 29 26  1  0  0  0  0
 30 27  1  0  0  0  0
 32 31  1  0  0  0  0
 33 34  1  0  0  0  0
 35 34  1  0  0  0  0
 35 36  1  0  0  0  0
 36 37  1  0  0  0  0
 37 38  1  0  0  0  0
 39 38  1  6  0  0  0
 39 44  1  0  0  0  0
 39 40  1  0  0  0  0
 40 42  1  0  0  0  0
 41 40  2  0  0  0  0
 43 44  1  0  0  0  0
 44 45  2  0  0  0  0
M  END
>  <MODEL>
8

>  <REMARK>
 VINA RESULT:      -6.6      4.406      7.645
  Name = 
  13 active torsions:
  status: ('A' for Active; 'I' for Inactive)
    1  A    between atoms: CA_2  and  C_13
    2  A    between atoms: CA_2  and  N_41
    3  A    between atoms: CA_2  and  C_42
    4  A    between atoms: S_4  and  C_14
    5  A    between atoms: S_4  and  C_20
    6  A    between atoms: C_5  and  C_30
    7  A    between atoms: C_8  and  C_14
    8  A    between atoms: C_9  and  O_18
    9  A    between atoms: C_9  and  C_38
   10  A    between atoms: C_10  and  O_18
   11  A    between atoms: C_12  and  C_34
   12  A    between atoms: C_12  and  N_41
   13  A    between atoms: C_34  and  C_38
                            x       y       z     vdW  Elec       q    Type
                         _______ _______ _______ _____ _____    ______ ____

>  <TORSDO>
F 13

$$$$
=
 OpenBabel10222418123D

 45 50  0  0  1  0  0  0  0  0999 V2000
  188.3820  176.8130  143.9700 C   0  0  0  0  0  2  0  0  0  0  0  0
  189.2060  176.9740  139.7760 C   0  0  0  0  0  0  0  0  0  0  0  0
  186.3670  178.4710  144.9480 O   0  0  0  0  0  0  0  0  0  0  0  0
  189.8100  176.8400  143.4430 C   0  0  1  0  0  3  0  0  0  0  0  0
  184.9350  178.0100  143.1060 C   0  0  2  0  0  3  0  0  0  0  0  0
  186.2670  178.0190  143.7730 C   0  0  0  0  0  0  0  0  0  0  0  0
  190.2850  175.9540  137.7640 C   0  0  0  0  0  2  0  0  0  0  0  0
  188.3020  177.6830  138.8440 C   0  0  0  0  0  0  0  0  0  0  0  0
  184.8490  179.2330  142.2330 C   0  0  0  0  0  2  0  0  0  0  0  0
  189.8630  176.2550  142.0400 C   0  0  0  0  0  2  0  0  0  0  0  0
  188.5560  177.7380  137.5320 C   0  0  0  0  0  3  0  0  0  0  0  0
  185.1590  179.4740  139.8390 N   0  0  0  0  0  0  0  0  0  0  0  0
  187.1260  178.2530  139.4040 N   0  0  0  0  0  0  0  0  0  0  0  0
  186.8310  178.2070  140.7870 C   0  0  0  0  0  0  0  0  0  0  0  0
  186.0030  179.3490  137.6330 O   0  0  0  0  0  0  0  0  0  0  0  0
  187.6510  177.5640  141.6590 C   0  0  0  0  0  0  0  0  0  0  0  0
  188.9130  176.9450  141.1000 C   0  0  0  0  0  0  0  0  0  0  0  0
  186.0910  179.0470  138.8520 C   0  0  0  0  0  0  0  0  0  0  0  0
  187.4380  177.5250  143.1010 N   0  0  0  0  0  0  0  0  0  0  0  0
  185.5800  178.9810  140.9650 C   0  0  0  0  0  0  0  0  0  0  0  0
  189.8200  177.1650  136.9560 C   0  0  0  0  0  2  0  0  0  0  0  0
  190.4680  176.3490  139.2290 C   0  0  0  0  0  2  0  0  0  0  0  0
  190.4490  178.1970  143.5450 C   0  0  0  0  0  0  0  0  0  0  0  0
  190.1640  179.0870  142.7580 O   0  0  0  0  0  0  0  0  0  0  0  0
  191.6800  178.5030  144.8170 S   0  0  0  0  0  0  0  0  0  0  0  0
  190.8730  177.4360  147.2500 C   0  0  1  0  0  3  0  0  0  0  0  0
  191.5800  176.5500  148.1560 N   0  0  0  0  0  2  0  0  0  0  0  0
  192.4240  176.1610  145.9690 N   0  0  0  0  0  2  0  0  0  0  0  0
  191.2820  177.0450  145.8490 C   0  0  2  0  0  3  0  0  0  0  0  0
  192.3310  175.6240  147.3170 C   0  0  0  0  0  2  0  0  0  0  0  0
  189.3750  177.2690  147.4370 C   0  0  0  0  0  2  0  0  0  0  0  0
  188.8560  178.2530  148.4690 C   0  0  0  0  0  1  0  0  0  0  0  0
  183.9050  178.0340  144.0510 O   0  0  0  0  0  0  0  0  0  0  0  0
  183.0560  179.0630  143.6330 C   0  0  0  0  0  2  0  0  0  0  0  0
  181.6190  178.7250  143.9860 C   0  0  0  0  0  2  0  0  0  0  0  0
  180.6710  179.3390  142.9700 C   0  0  0  0  0  2  0  0  0  0  0  0
  179.9490  178.2490  142.1980 C   0  0  0  0  0  2  0  0  0  0  0  0
  179.9600  178.5550  140.7750 N   0  0  0  0  0  2  0  0  0  0  0  0
  181.3530  178.6370  140.3590 C   0  0  2  0  0  3  0  0  0  0  0  0
  181.5160  179.6560  139.2770 C   0  0  0  0  0  0  0  0  0  0  0  0
  180.7940  180.8400  139.3360 O   0  0  0  0  0  1  0  0  0  0  0  0
  182.3160  179.4590  138.3240 O   0  0  0  0  0  0  0  0  0  0  0  0
  183.1120  176.9070  140.2490 F   0  0  0  0  0  0  0  0  0  0  0  0
  181.8540  177.2940  139.9180 C   0  0  0  0  0  0  0  0  0  0  0  0
  181.1430  176.5460  139.2660 O   0  0  0  0  0  0  0  0  0  0  0  0
  2 17  2  0  0  0  0
  4 23  1  6  0  0  0
  4  1  1  0  0  0  0
  5  6  1  0  0  0  0
  5 33  1  1  0  0  0
  6  3  2  0  0  0  0
  7 22  1  0  0  0  0
  8 13  1  0  0  0  0
  8  2  1  0  0  0  0
  9  5  1  0  0  0  0
 10  4  1  0  0  0  0
 11  8  2  0  0  0  0
 12 20  2  0  0  0  0
 13 14  1  0  0  0  0
 14 20  1  0  0  0  0
 14 16  2  0  0  0  0
 15 18  2  0  0  0  0
 16 19  1  0  0  0  0
 17 16  1  0  0  0  0
 17 10  1  0  0  0  0
 18 13  1  0  0  0  0
 18 12  1  0  0  0  0
 19  6  1  0  0  0  0
 19  1  1  0  0  0  0
 20  9  1  0  0  0  0
 21 11  1  0  0  0  0
 21  7  1  0  0  0  0
 22  2  1  0  0  0  0
 23 25  1  0  0  0  0
 24 23  2  0  0  0  0
 26 31  1  6  0  0  0
 26 27  1  0  0  0  0
 28 30  1  0  0  0  0
 29 25  1  6  0  0  0
 29 28  1  0  0  0  0
 29 26  1  0  0  0  0
 30 27  1  0  0  0  0
 31 32  1  0  0  0  0
 34 35  1  0  0  0  0
 34 33  1  0  0  0  0
 36 35  1  0  0  0  0
 37 36  1  0  0  0  0
 38 37  1  0  0  0  0
 39 40  1  6  0  0  0
 39 38  1  0  0  0  0
 40 41  1  0  0  0  0
 42 40  2  0  0  0  0
 44 43  1  0  0  0  0
 44 39  1  0  0  0  0
 45 44  2  0  0  0  0
M  END
>  <MODEL>
9

>  <REMARK>
 VINA RESULT:      -6.6      3.617      8.466
  Name = 
  13 active torsions:
  status: ('A' for Active; 'I' for Inactive)
    1  A    between atoms: CA_2  and  C_13
    2  A    between atoms: CA_2  and  N_41
    3  A    between atoms: CA_2  and  C_42
    4  A    between atoms: S_4  and  C_14
    5  A    between atoms: S_4  and  C_20
    6  A    between atoms: C_5  and  C_30
    7  A    between atoms: C_8  and  C_14
    8  A    between atoms: C_9  and  O_18
    9  A    between atoms: C_9  and  C_38
   10  A    between atoms: C_10  and  O_18
   11  A    between atoms: C_12  and  C_34
   12  A    between atoms: C_12  and  N_41
   13  A    between atoms: C_34  and  C_38
                            x       y       z     vdW  Elec       q    Type
                         _______ _______ _______ _____ _____    ______ ____

>  <TORSDO>
F 13

$$$$
