=
 OpenBabel10222418393D

 66 72  0  0  1  0  0  0  0  0999 V2000
  190.1280  173.6210  135.3060 C   0  0  0  0  0  0  0  0  0  0  0  0
  192.2010  176.9730  137.9640 C   0  0  0  0  0  2  0  0  0  0  0  0
  190.4420  174.8980  135.5950 N   0  0  0  0  0  0  0  0  0  0  0  0
  191.5290  176.9780  139.2970 N   0  0  0  0  0  0  0  0  0  0  0  0
  188.9010  173.3600  135.9090 C   0  0  0  0  0  0  0  0  0  0  0  0
  189.4450  175.4020  136.3130 C   0  0  0  0  0  0  0  0  0  0  0  0
  190.1590  176.6240  139.4560 N   0  0  0  0  0  2  0  0  0  0  0  0
  191.0450  172.6340  134.6630 C   0  0  0  0  0  1  0  0  0  0  0  0
  188.4710  174.4910  136.5540 N   0  0  0  0  0  0  0  0  0  0  0  0
  191.2880  176.4810  136.8750 C   0  0  0  0  0  0  0  0  0  0  0  0
  189.9100  176.4790  137.0700 C   0  0  0  0  0  0  0  0  0  0  0  0
  187.4500  174.5470  137.6020 C   0  0  0  0  0  1  0  0  0  0  0  0
  191.5860  175.5250  135.9200 C   0  0  0  0  0  0  0  0  0  0  0  0
  189.4220  177.1440  138.3130 C   0  0  1  0  0  3  0  0  0  0  0  0
  188.9930  171.0870  135.2690 F   0  0  0  0  0  0  0  0  0  0  0  0
  188.0710  171.6020  137.2580 F   0  0  0  0  0  0  0  0  0  0  0  0
  188.2200  172.0140  135.9470 C   0  0  0  0  0  0  0  0  0  0  0  0
  186.9670  172.0590  135.3610 F   0  0  0  0  0  0  0  0  0  0  0  0
  192.8780  174.9430  135.7610 N   0  0  0  0  0  2  0  0  0  0  0  0
  193.6770  175.3220  134.7390 O   0  0  0  0  0  1  0  0  0  0  0  0
  192.3100  177.1960  140.4880 C   0  0  0  0  0  0  0  0  0  0  0  0
  193.6390  177.2690  140.3910 C   0  0  0  0  0  2  0  0  0  0  0  0
  191.1500  178.4620  142.1310 O   0  0  0  0  0  0  0  0  0  0  0  0
  191.6650  177.3650  141.8180 C   0  0  0  0  0  0  0  0  0  0  0  0
  191.6800  176.0580  143.0520 S   0  0  0  0  0  0  0  0  0  0  0  0
  191.6780  177.2430  144.4400 C   0  0  0  0  0  2  0  0  0  0  0  0
  187.5930  176.0660  143.1100 O   0  0  0  0  0  1  0  0  0  0  0  0
  187.6060  177.9230  144.7180 C   0  0  1  0  0  3  0  0  0  0  0  0
  188.3560  178.3590  145.9040 N   0  0  0  0  0  2  0  0  0  0  0  0
  188.4080  176.9360  143.8430 C   0  0  1  0  0  3  0  0  0  0  0  0
  190.4400  177.1270  145.3490 C   0  0  2  0  0  0  0  0  0  0  0  0
  186.2810  177.3370  145.1770 C   0  0  0  0  0  1  0  0  0  0  0  0
  189.4430  176.1670  144.6630 C   0  0  0  0  0  2  0  0  0  0  0  0
  189.7890  178.5130  145.5910 C   0  0  0  0  0  2  0  0  0  0  0  0
  190.8200  176.5520  146.7030 C   0  0  0  0  0  0  0  0  0  0  0  0
  190.1290  176.8630  147.7140 O   0  0  0  0  0  0  0  0  0  0  0  0
  192.8660  175.9010  148.1230 C   0  0  0  0  0  1  0  0  0  0  0  0
  192.3640  174.8540  146.0510 O   0  0  0  0  0  0  0  0  0  0  0  0
  192.0270  175.7180  146.9060 C   0  0  0  0  0  0  0  0  0  0  0  0
  187.9170  177.2800  138.5240 C   0  0  2  0  0  3  0  0  0  0  0  0
  187.3280  178.3420  137.7490 O   0  0  0  0  0  0  0  0  0  0  0  0
  186.7130  178.1850  136.4970 C   0  0  0  0  0  0  0  0  0  0  0  0
  187.3280  178.4810  135.4310 O   0  0  0  0  0  0  0  0  0  0  0  0
  181.5980  177.1270  139.2230 C   0  0  2  0  0  3  0  0  0  0  0  0
  185.3550  177.5560  136.3880 C   0  0  1  0  0  3  0  0  0  0  0  0
  184.0420  175.5080  135.8190 C   0  0  0  0  0  3  0  0  0  0  0  0
  180.5640  176.8880  136.4940 O   0  0  0  0  0  1  0  0  0  0  0  0
  180.7410  175.7030  137.2360 C   0  0  2  0  0  0  0  0  0  0  0  0
  180.6770  176.0100  138.7340 C   0  0  0  0  0  2  0  0  0  0  0  0
  185.4050  176.1550  135.7610 C   0  0  0  0  0  2  0  0  0  0  0  0
  184.6730  177.4820  137.7350 C   0  0  0  0  0  3  0  0  0  0  0  0
  181.9780  175.0830  136.8700 O   0  0  0  0  0  0  0  0  0  0  0  0
  183.6440  176.6580  137.9280 C   0  0  0  0  0  0  0  0  0  0  0  0
  183.0300  176.5900  139.2810 C   0  0  0  0  0  2  0  0  0  0  0  0
  183.2180  175.7330  136.8510 C   0  0  0  0  0  0  0  0  0  0  0  0
  179.6010  174.7200  136.9340 C   0  0  2  0  0  3  0  0  0  0  0  0
  179.5170  173.5780  137.9230 C   0  0  0  0  0  2  0  0  0  0  0  0
  179.3110  172.3650  137.2360 O   0  0  0  0  0  0  0  0  0  0  0  0
  179.7230  174.0430  135.6000 C   0  0  0  0  0  2  0  0  0  0  0  0
  179.1650  172.6720  135.8660 C   0  0  0  0  0  2  0  0  0  0  0  0
  181.5970  178.8780  140.8760 C   0  0  0  0  0  1  0  0  0  0  0  0
  181.1360  177.5220  140.5550 N   0  0  0  0  0  2  0  0  0  0  0  0
  187.5370  177.3300  139.8810 O   0  0  0  0  0  0  0  0  0  0  0  0
  188.2030  179.0790  141.1580 C   0  0  0  0  0  1  0  0  0  0  0  0
  187.2360  178.6230  140.1710 N   0  0  0  0  0  0  0  0  0  0  0  0
  185.9430  178.6060  140.8350 C   0  0  0  0  0  1  0  0  0  0  0  0
  1  3  1  0  0  0  0
  1  5  2  0  0  0  0
  2  4  1  0  0  0  0
  3 13  1  0  0  0  0
  3  6  1  0  0  0  0
  4  7  1  0  0  0  0
  4 21  1  0  0  0  0
  5 17  1  0  0  0  0
  5  9  1  0  0  0  0
  6  9  1  0  0  0  0
  6 11  2  0  0  0  0
  8  1  1  0  0  0  0
  9 12  1  0  0  0  0
 10 11  1  0  0  0  0
 10  2  1  0  0  0  0
 11 14  1  0  0  0  0
 13 10  2  0  0  0  0
 14 40  1  1  0  0  0
 14  7  1  0  0  0  0
 15 17  1  0  0  0  0
 17 16  1  0  0  0  0
 18 17  1  0  0  0  0
 19 13  1  0  0  0  0
 20 19  1  0  0  0  0
 21 24  1  0  0  0  0
 22 21  2  0  0  0  0
 24 23  2  0  0  0  0
 24 25  1  0  0  0  0
 25 26  1  0  0  0  0
 28 32  1  1  0  0  0
 28 29  1  0  0  0  0
 30 27  1  1  0  0  0
 30 33  1  0  0  0  0
 30 28  1  0  0  0  0
 31 26  1  6  0  0  0
 31 34  1  0  0  0  0
 31 35  1  0  0  0  0
 33 31  1  0  0  0  0
 34 29  1  0  0  0  0
 35 39  1  0  0  0  0
 35 36  2  0  0  0  0
 38 39  2  0  0  0  0
 39 37  1  0  0  0  0
 40 41  1  6  0  0  0
 40 63  1  0  0  0  0
 42 41  1  0  0  0  0
 43 42  2  0  0  0  0
 44 54  1  0  0  0  0
 44 62  1  1  0  0  0
 45 42  1  1  0  0  0
 45 51  1  0  0  0  0
 46 55  2  0  0  0  0
 48 47  1  6  0  0  0
 48 49  1  0  0  0  0
 49 44  1  0  0  0  0
 50 46  1  0  0  0  0
 50 45  1  0  0  0  0
 51 53  2  0  0  0  0
 52 48  1  0  0  0  0
 53 54  1  0  0  0  0
 55 52  1  0  0  0  0
 55 53  1  0  0  0  0
 56 59  1  6  0  0  0
 56 48  1  0  0  0  0
 56 57  1  0  0  0  0
 58 57  1  0  0  0  0
 59 60  1  0  0  0  0
 60 58  1  0  0  0  0
 62 61  1  0  0  0  0
 63 65  1  0  0  0  0
 65 66  1  0  0  0  0
 65 64  1  0  0  0  0
M  END
>  <MODEL>
1

>  <REMARK>
 VINA RESULT:      -6.0      0.000      0.000
  Name = 
  17 active torsions:
  status: ('A' for Active; 'I' for Inactive)
    1  A    between atoms: C_1  and  N_46
    2  A    between atoms: C_5  and  N_22
    3  A    between atoms: C_5  and  C_66
    4  A    between atoms: C_6  and  O_35
    5  A    between atoms: C_6  and  C_62
    6  A    between atoms: C_6  and  O_65
    7  A    between atoms: C_7  and  C_27
    8  A    between atoms: N_9  and  C_61
    9  A    between atoms: C_10  and  C_43
   10  A    between atoms: C_10  and  C_47
   11  A    between atoms: C_11  and  C_43
   12  A    between atoms: C_11  and  S_58
   13  A    between atoms: C_13  and  C_25
   14  A    between atoms: C_24  and  C_32
   15  A    between atoms: C_25  and  O_35
   16  A    between atoms: N_41  and  O_65
   17  A    between atoms: S_58  and  C_66
                            x       y       z     vdW  Elec       q    Type
                         _______ _______ _______ _____ _____    ______ ____

>  <TORSDO>
F 17

$$$$
=
 OpenBabel10222418393D

 66 72  0  0  1  0  0  0  0  0999 V2000
  179.8200  180.3770  138.3130 C   0  0  0  0  0  0  0  0  0  0  0  0
  182.5280  178.5010  141.7400 C   0  0  0  0  0  2  0  0  0  0  0  0
  180.1950  179.3760  139.1310 N   0  0  0  0  0  0  0  0  0  0  0  0
  183.9270  178.4230  141.2240 N   0  0  0  0  0  0  0  0  0  0  0  0
  180.5390  180.2240  137.1310 C   0  0  0  0  0  0  0  0  0  0  0  0
  181.0770  178.6310  138.4730 C   0  0  0  0  0  0  0  0  0  0  0  0
  184.2150  178.2380  139.8430 N   0  0  0  0  0  2  0  0  0  0  0  0
  178.9730  181.5410  138.7090 C   0  0  0  0  0  1  0  0  0  0  0  0
  181.3420  179.1180  137.2370 N   0  0  0  0  0  0  0  0  0  0  0  0
  181.5150  178.4410  140.6300 C   0  0  0  0  0  0  0  0  0  0  0  0
  181.8760  177.9360  139.3840 C   0  0  0  0  0  0  0  0  0  0  0  0
  182.5080  178.8190  136.4020 C   0  0  0  0  0  1  0  0  0  0  0  0
  180.4400  179.2940  140.4510 C   0  0  0  0  0  0  0  0  0  0  0  0
  183.2300  177.3170  139.2940 C   0  0  1  0  0  3  0  0  0  0  0  0
  181.4990  180.8320  135.0590 F   0  0  0  0  0  0  0  0  0  0  0  0
  179.2900  181.1600  135.3520 F   0  0  0  0  0  0  0  0  0  0  0  0
  180.5250  181.1920  135.9730 C   0  0  0  0  0  0  0  0  0  0  0  0
  180.7670  182.4900  136.3900 F   0  0  0  0  0  0  0  0  0  0  0  0
  180.0660  180.3020  141.3870 N   0  0  0  0  0  2  0  0  0  0  0  0
  180.0050  180.0200  142.7070 O   0  0  0  0  0  1  0  0  0  0  0  0
  185.0290  178.6950  142.1110 C   0  0  0  0  0  0  0  0  0  0  0  0
  186.2560  178.8340  141.6030 C   0  0  0  0  0  2  0  0  0  0  0  0
  184.0290  179.7120  144.0130 O   0  0  0  0  0  0  0  0  0  0  0  0
  184.8250  178.8500  143.5770 C   0  0  0  0  0  0  0  0  0  0  0  0
  185.7650  177.8890  144.7710 S   0  0  0  0  0  0  0  0  0  0  0  0
  187.3530  178.6190  144.2450 C   0  0  0  0  0  2  0  0  0  0  0  0
  188.6410  176.7660  148.0860 O   0  0  0  0  0  1  0  0  0  0  0  0
  190.5070  177.5830  146.7140 C   0  0  1  0  0  3  0  0  0  0  0  0
  190.8810  177.6860  145.2960 N   0  0  0  0  0  2  0  0  0  0  0  0
  188.9820  177.4500  146.9140 C   0  0  1  0  0  3  0  0  0  0  0  0
  188.5560  177.6740  144.4230 C   0  0  2  0  0  0  0  0  0  0  0  0
  191.2700  176.4190  147.3270 C   0  0  0  0  0  1  0  0  0  0  0  0
  188.3050  176.8300  145.6920 C   0  0  0  0  0  2  0  0  0  0  0  0
  189.8810  178.4690  144.5470 C   0  0  0  0  0  2  0  0  0  0  0  0
  188.6860  176.7400  143.2320 C   0  0  0  0  0  0  0  0  0  0  0  0
  187.9450  175.7170  143.1750 O   0  0  0  0  0  0  0  0  0  0  0  0
  189.4720  177.8710  141.0570 C   0  0  0  0  0  1  0  0  0  0  0  0
  190.7950  176.2760  142.2200 O   0  0  0  0  0  0  0  0  0  0  0  0
  189.7130  176.9240  142.1810 C   0  0  0  0  0  0  0  0  0  0  0  0
  183.6350  176.6400  137.9890 C   0  0  2  0  0  3  0  0  0  0  0  0
  184.4720  177.4650  137.1560 O   0  0  0  0  0  0  0  0  0  0  0  0
  185.8620  177.6070  137.2930 C   0  0  0  0  0  0  0  0  0  0  0  0
  186.3540  178.5980  137.9080 O   0  0  0  0  0  0  0  0  0  0  0  0
  191.4210  175.6600  137.1590 C   0  0  2  0  0  3  0  0  0  0  0  0
  186.7890  176.5310  136.8120 C   0  0  1  0  0  3  0  0  0  0  0  0
  187.5870  175.1780  134.8680 C   0  0  0  0  0  3  0  0  0  0  0  0
  190.1580  173.0590  136.7000 O   0  0  0  0  0  1  0  0  0  0  0  0
  190.7790  173.6900  135.6040 C   0  0  2  0  0  0  0  0  0  0  0  0
  191.8620  174.6510  136.1000 C   0  0  0  0  0  2  0  0  0  0  0  0
  186.5320  176.1470  135.3460 C   0  0  0  0  0  2  0  0  0  0  0  0
  188.2360  176.9330  136.9820 C   0  0  0  0  0  3  0  0  0  0  0  0
  189.7950  174.3600  134.8100 O   0  0  0  0  0  0  0  0  0  0  0  0
  189.1970  176.3020  136.3080 C   0  0  0  0  0  0  0  0  0  0  0  0
  190.6030  176.7580  136.4770 C   0  0  0  0  0  2  0  0  0  0  0  0
  188.8490  175.2640  135.3100 C   0  0  0  0  0  0  0  0  0  0  0  0
  191.4800  172.6450  134.7240 C   0  0  2  0  0  3  0  0  0  0  0  0
  191.2070  171.2210  135.1540 C   0  0  0  0  0  2  0  0  0  0  0  0
  192.4030  170.4770  135.1320 O   0  0  0  0  0  0  0  0  0  0  0  0
  192.9770  172.7520  134.7330 C   0  0  0  0  0  2  0  0  0  0  0  0
  193.4170  171.3180  134.6230 C   0  0  0  0  0  2  0  0  0  0  0  0
  192.4390  176.4160  139.2060 C   0  0  0  0  0  1  0  0  0  0  0  0
  192.6330  176.2140  137.7660 N   0  0  0  0  0  2  0  0  0  0  0  0
  182.5510  176.0840  137.2780 O   0  0  0  0  0  0  0  0  0  0  0  0
  183.1550  173.9000  137.3120 C   0  0  0  0  0  1  0  0  0  0  0  0
  182.2490  174.8950  137.8640 N   0  0  0  0  0  0  0  0  0  0  0  0
  180.9160  174.5390  137.4070 C   0  0  0  0  0  1  0  0  0  0  0  0
  1  8  1  0  0  0  0
  1  3  1  0  0  0  0
  3 13  1  0  0  0  0
  4  2  1  0  0  0  0
  4 21  1  0  0  0  0
  5  9  1  0  0  0  0
  5  1  2  0  0  0  0
  6  3  1  0  0  0  0
  6 11  2  0  0  0  0
  7  4  1  0  0  0  0
  9  6  1  0  0  0  0
 10  2  1  0  0  0  0
 11 10  1  0  0  0  0
 12  9  1  0  0  0  0
 13 10  2  0  0  0  0
 13 19  1  0  0  0  0
 14 40  1  6  0  0  0
 14 11  1  0  0  0  0
 14  7  1  0  0  0  0
 15 17  1  0  0  0  0
 16 17  1  0  0  0  0
 17 18  1  0  0  0  0
 17  5  1  0  0  0  0
 19 20  1  0  0  0  0
 21 24  1  0  0  0  0
 22 21  2  0  0  0  0
 24 23  2  0  0  0  0
 24 25  1  0  0  0  0
 26 25  1  0  0  0  0
 28 30  1  0  0  0  0
 28 32  1  6  0  0  0
 29 28  1  0  0  0  0
 30 27  1  1  0  0  0
 31 26  1  6  0  0  0
 31 34  1  0  0  0  0
 31 33  1  0  0  0  0
 33 30  1  0  0  0  0
 34 29  1  0  0  0  0
 35 31  1  0  0  0  0
 36 35  2  0  0  0  0
 37 39  1  0  0  0  0
 39 38  2  0  0  0  0
 39 35  1  0  0  0  0
 40 41  1  6  0  0  0
 41 42  1  0  0  0  0
 42 43  2  0  0  0  0
 44 62  1  6  0  0  0
 45 51  1  0  0  0  0
 45 42  1  6  0  0  0
 46 55  2  0  0  0  0
 46 50  1  0  0  0  0
 48 49  1  0  0  0  0
 48 47  1  1  0  0  0
 49 44  1  0  0  0  0
 50 45  1  0  0  0  0
 52 55  1  0  0  0  0
 52 48  1  0  0  0  0
 53 54  1  0  0  0  0
 53 51  2  0  0  0  0
 54 44  1  0  0  0  0
 55 53  1  0  0  0  0
 56 59  1  1  0  0  0
 56 57  1  0  0  0  0
 56 48  1  0  0  0  0
 58 57  1  0  0  0  0
 60 59  1  0  0  0  0
 60 58  1  0  0  0  0
 62 61  1  0  0  0  0
 63 65  1  0  0  0  0
 63 40  1  0  0  0  0
 64 65  1  0  0  0  0
 66 65  1  0  0  0  0
M  END
>  <MODEL>
2

>  <REMARK>
 VINA RESULT:      -5.1      3.543      8.838
  Name = 
  17 active torsions:
  status: ('A' for Active; 'I' for Inactive)
    1  A    between atoms: C_1  and  N_46
    2  A    between atoms: C_5  and  N_22
    3  A    between atoms: C_5  and  C_66
    4  A    between atoms: C_6  and  O_35
    5  A    between atoms: C_6  and  C_62
    6  A    between atoms: C_6  and  O_65
    7  A    between atoms: C_7  and  C_27
    8  A    between atoms: N_9  and  C_61
    9  A    between atoms: C_10  and  C_43
   10  A    between atoms: C_10  and  C_47
   11  A    between atoms: C_11  and  C_43
   12  A    between atoms: C_11  and  S_58
   13  A    between atoms: C_13  and  C_25
   14  A    between atoms: C_24  and  C_32
   15  A    between atoms: C_25  and  O_35
   16  A    between atoms: N_41  and  O_65
   17  A    between atoms: S_58  and  C_66
                            x       y       z     vdW  Elec       q    Type
                         _______ _______ _______ _____ _____    ______ ____

>  <TORSDO>
F 17

$$$$
=
 OpenBabel10222418393D

 66 72  0  0  1  0  0  0  0  0999 V2000
  179.6640  174.5640  138.1880 C   0  0  0  0  0  0  0  0  0  0  0  0
  183.0360  176.0250  135.1740 C   0  0  0  0  0  2  0  0  0  0  0  0
  180.1330  175.3580  137.2080 N   0  0  0  0  0  0  0  0  0  0  0  0
  184.1580  176.5890  135.9820 N   0  0  0  0  0  0  0  0  0  0  0  0
  179.9200  175.2130  139.3920 C   0  0  0  0  0  0  0  0  0  0  0  0
  180.6240  176.4510  137.7800 C   0  0  0  0  0  0  0  0  0  0  0  0
  183.9420  177.2170  137.2410 N   0  0  0  0  0  2  0  0  0  0  0  0
  179.1820  173.1630  138.0040 C   0  0  0  0  0  1  0  0  0  0  0  0
  180.5360  176.4100  139.1310 N   0  0  0  0  0  0  0  0  0  0  0  0
  181.7170  176.1370  135.8860 C   0  0  0  0  0  0  0  0  0  0  0  0
  181.5650  177.0420  136.9330 C   0  0  0  0  0  0  0  0  0  0  0  0
  181.3010  177.2110  140.0900 C   0  0  0  0  0  1  0  0  0  0  0  0
  180.7840  175.1280  136.0540 C   0  0  0  0  0  0  0  0  0  0  0  0
  182.7030  177.9780  137.1600 C   0  0  1  0  0  3  0  0  0  0  0  0
  178.9640  175.5460  141.5270 F   0  0  0  0  0  0  0  0  0  0  0  0
  178.9310  173.4710  140.6520 F   0  0  0  0  0  0  0  0  0  0  0  0
  179.6700  174.6340  140.7630 C   0  0  0  0  0  0  0  0  0  0  0  0
  180.8540  174.3350  141.4140 F   0  0  0  0  0  0  0  0  0  0  0  0
  180.8980  173.8390  135.4560 N   0  0  0  0  0  2  0  0  0  0  0  0
  182.0570  173.4550  134.8750 O   0  0  0  0  0  1  0  0  0  0  0  0
  185.5190  176.3640  135.5670 C   0  0  0  0  0  0  0  0  0  0  0  0
  185.8210  175.2470  134.9010 C   0  0  0  0  0  2  0  0  0  0  0  0
  186.3730  178.3120  136.6270 O   0  0  0  0  0  0  0  0  0  0  0  0
  186.5890  177.3600  135.8420 C   0  0  0  0  0  0  0  0  0  0  0  0
  188.1780  177.3000  135.0060 S   0  0  0  0  0  0  0  0  0  0  0  0
  188.5770  175.6540  135.6870 C   0  0  0  0  0  2  0  0  0  0  0  0
  192.9430  176.2110  135.0030 O   0  0  0  0  0  1  0  0  0  0  0  0
  192.4220  174.4970  136.6840 C   0  0  1  0  0  3  0  0  0  0  0  0
  191.4400  174.2500  137.7480 N   0  0  0  0  0  2  0  0  0  0  0  0
  191.9110  175.5070  135.6330 C   0  0  1  0  0  3  0  0  0  0  0  0
  189.6570  175.6850  136.7840 C   0  0  2  0  0  0  0  0  0  0  0  0
  193.7240  174.9480  137.3270 C   0  0  0  0  0  1  0  0  0  0  0  0
  190.8720  176.4580  136.2250 C   0  0  0  0  0  2  0  0  0  0  0  0
  190.0690  174.2510  137.2070 C   0  0  0  0  0  2  0  0  0  0  0  0
  189.1460  176.4040  138.0210 C   0  0  0  0  0  0  0  0  0  0  0  0
  187.9770  176.1550  138.4320 O   0  0  0  0  0  0  0  0  0  0  0  0
  189.3430  178.8180  138.8930 C   0  0  0  0  0  1  0  0  0  0  0  0
  191.0870  177.2240  139.1390 O   0  0  0  0  0  0  0  0  0  0  0  0
  189.9240  177.4590  138.7100 C   0  0  0  0  0  0  0  0  0  0  0  0
  182.5470  179.0710  138.2130 C   0  0  2  0  0  3  0  0  0  0  0  0
  183.2390  178.7800  139.4420 O   0  0  0  0  0  0  0  0  0  0  0  0
  184.5060  179.2730  139.7940 C   0  0  0  0  0  0  0  0  0  0  0  0
  185.1620  180.0030  138.9960 O   0  0  0  0  0  0  0  0  0  0  0  0
  189.2490  177.7720  142.9510 C   0  0  2  0  0  3  0  0  0  0  0  0
  185.0590  179.0390  141.1690 C   0  0  1  0  0  3  0  0  0  0  0  0
  184.7770  177.8770  143.3630 C   0  0  0  0  0  3  0  0  0  0  0  0
  187.8820  179.2240  145.0950 O   0  0  0  0  0  1  0  0  0  0  0  0
  187.8950  177.8160  145.1580 C   0  0  2  0  0  0  0  0  0  0  0  0
  189.0960  177.2680  144.3860 C   0  0  0  0  0  2  0  0  0  0  0  0
  184.1090  178.2150  142.0520 C   0  0  0  0  0  2  0  0  0  0  0  0
  186.4090  178.3610  141.1120 C   0  0  0  0  0  3  0  0  0  0  0  0
  186.6570  177.2980  144.6580 O   0  0  0  0  0  0  0  0  0  0  0  0
  186.9050  177.7480  142.1860 C   0  0  0  0  0  0  0  0  0  0  0  0
  188.2190  177.0610  142.0710 C   0  0  0  0  0  2  0  0  0  0  0  0
  186.0940  177.6390  143.4220 C   0  0  0  0  0  0  0  0  0  0  0  0
  188.0550  177.3580  146.6150 C   0  0  2  0  0  3  0  0  0  0  0  0
  187.0870  178.0290  147.5640 C   0  0  0  0  0  2  0  0  0  0  0  0
  187.7630  178.4230  148.7360 O   0  0  0  0  0  0  0  0  0  0  0  0
  189.4070  177.6530  147.1970 C   0  0  0  0  0  2  0  0  0  0  0  0
  189.0930  177.9620  148.6360 C   0  0  0  0  0  2  0  0  0  0  0  0
  190.8340  176.0030  142.5530 C   0  0  0  0  0  1  0  0  0  0  0  0
  190.6120  177.4530  142.5190 N   0  0  0  0  0  2  0  0  0  0  0  0
  181.2090  179.4630  138.4300 O   0  0  0  0  0  0  0  0  0  0  0  0
  180.9900  181.7070  138.6450 C   0  0  0  0  0  1  0  0  0  0  0  0
  180.9960  180.5940  137.7080 N   0  0  0  0  0  0  0  0  0  0  0  0
  179.6460  180.4940  137.1770 C   0  0  0  0  0  1  0  0  0  0  0  0
  1  5  2  0  0  0  0
  2 10  1  0  0  0  0
  2  4  1  0  0  0  0
  3  6  1  0  0  0  0
  3  1  1  0  0  0  0
  4  7  1  0  0  0  0
  5 17  1  0  0  0  0
  6  9  1  0  0  0  0
  8  1  1  0  0  0  0
  9  5  1  0  0  0  0
  9 12  1  0  0  0  0
 10 13  2  0  0  0  0
 10 11  1  0  0  0  0
 11 14  1  0  0  0  0
 11  6  2  0  0  0  0
 13  3  1  0  0  0  0
 14  7  1  0  0  0  0
 14 40  1  1  0  0  0
 16 17  1  0  0  0  0
 17 18  1  0  0  0  0
 17 15  1  0  0  0  0
 19 13  1  0  0  0  0
 20 19  1  0  0  0  0
 21 24  1  0  0  0  0
 21  4  1  0  0  0  0
 22 21  2  0  0  0  0
 24 23  2  0  0  0  0
 25 26  1  0  0  0  0
 25 24  1  0  0  0  0
 28 32  1  1  0  0  0
 28 29  1  0  0  0  0
 30 27  1  1  0  0  0
 30 33  1  0  0  0  0
 30 28  1  0  0  0  0
 31 26  1  6  0  0  0
 31 34  1  0  0  0  0
 31 35  1  0  0  0  0
 33 31  1  0  0  0  0
 34 29  1  0  0  0  0
 35 36  2  0  0  0  0
 35 39  1  0  0  0  0
 39 37  1  0  0  0  0
 39 38  2  0  0  0  0
 40 63  1  1  0  0  0
 40 41  1  0  0  0  0
 41 42  1  0  0  0  0
 43 42  2  0  0  0  0
 44 62  1  6  0  0  0
 44 49  1  0  0  0  0
 45 42  1  6  0  0  0
 45 50  1  0  0  0  0
 46 55  2  0  0  0  0
 48 47  1  6  0  0  0
 48 56  1  0  0  0  0
 49 48  1  0  0  0  0
 50 46  1  0  0  0  0
 51 45  1  0  0  0  0
 51 53  2  0  0  0  0
 52 48  1  0  0  0  0
 53 55  1  0  0  0  0
 54 53  1  0  0  0  0
 54 44  1  0  0  0  0
 55 52  1  0  0  0  0
 56 59  1  1  0  0  0
 56 57  1  0  0  0  0
 57 58  1  0  0  0  0
 59 60  1  0  0  0  0
 60 58  1  0  0  0  0
 62 61  1  0  0  0  0
 65 63  1  0  0  0  0
 65 64  1  0  0  0  0
 66 65  1  0  0  0  0
M  END
>  <MODEL>
3

>  <REMARK>
 VINA RESULT:      -5.0      3.328      9.464
  Name = 
  17 active torsions:
  status: ('A' for Active; 'I' for Inactive)
    1  A    between atoms: C_1  and  N_46
    2  A    between atoms: C_5  and  N_22
    3  A    between atoms: C_5  and  C_66
    4  A    between atoms: C_6  and  O_35
    5  A    between atoms: C_6  and  C_62
    6  A    between atoms: C_6  and  O_65
    7  A    between atoms: C_7  and  C_27
    8  A    between atoms: N_9  and  C_61
    9  A    between atoms: C_10  and  C_43
   10  A    between atoms: C_10  and  C_47
   11  A    between atoms: C_11  and  C_43
   12  A    between atoms: C_11  and  S_58
   13  A    between atoms: C_13  and  C_25
   14  A    between atoms: C_24  and  C_32
   15  A    between atoms: C_25  and  O_35
   16  A    between atoms: N_41  and  O_65
   17  A    between atoms: S_58  and  C_66
                            x       y       z     vdW  Elec       q    Type
                         _______ _______ _______ _____ _____    ______ ____

>  <TORSDO>
F 17

$$$$
=
 OpenBabel10222418393D

 66 72  0  0  1  0  0  0  0  0999 V2000
  179.7490  180.2920  139.0230 C   0  0  0  0  0  0  0  0  0  0  0  0
  182.7190  178.6490  142.3510 C   0  0  0  0  0  2  0  0  0  0  0  0
  180.1870  179.3500  139.8800 N   0  0  0  0  0  0  0  0  0  0  0  0
  184.0730  178.5230  141.7330 N   0  0  0  0  0  0  0  0  0  0  0  0
  180.3710  180.0480  137.8020 C   0  0  0  0  0  0  0  0  0  0  0  0
  181.0110  178.5530  139.2110 C   0  0  0  0  0  0  0  0  0  0  0  0
  184.2490  178.2350  140.3500 N   0  0  0  0  0  2  0  0  0  0  0  0
  178.9400  181.4890  139.4000 C   0  0  0  0  0  1  0  0  0  0  0  0
  181.1780  178.9460  137.9240 N   0  0  0  0  0  0  0  0  0  0  0  0
  181.6210  178.5170  141.3330 C   0  0  0  0  0  0  0  0  0  0  0  0
  181.8790  177.9200  140.1030 C   0  0  0  0  0  0  0  0  0  0  0  0
  182.2720  178.5770  137.0240 C   0  0  0  0  0  1  0  0  0  0  0  0
  180.5360  179.3630  141.1790 C   0  0  0  0  0  0  0  0  0  0  0  0
  183.2200  177.2850  139.9510 C   0  0  1  0  0  3  0  0  0  0  0  0
  180.4230  182.2530  136.9530 F   0  0  0  0  0  0  0  0  0  0  0  0
  181.2570  180.5950  135.6770 F   0  0  0  0  0  0  0  0  0  0  0  0
  180.2660  180.9290  136.5820 C   0  0  0  0  0  0  0  0  0  0  0  0
  179.0410  180.7880  135.9540 F   0  0  0  0  0  0  0  0  0  0  0  0
  180.2410  180.4400  142.0650 N   0  0  0  0  0  2  0  0  0  0  0  0
  179.4000  180.2560  143.1070 O   0  0  0  0  0  1  0  0  0  0  0  0
  185.2430  178.8500  142.5070 C   0  0  0  0  0  0  0  0  0  0  0  0
  186.3770  179.1610  141.8740 C   0  0  0  0  0  2  0  0  0  0  0  0
  184.7560  179.8730  144.5960 O   0  0  0  0  0  0  0  0  0  0  0  0
  185.2080  178.8730  143.9940 C   0  0  0  0  0  0  0  0  0  0  0  0
  185.8860  177.5310  144.9780 S   0  0  0  0  0  0  0  0  0  0  0  0
  187.3590  178.5010  145.4510 C   0  0  0  0  0  2  0  0  0  0  0  0
  190.8870  179.4990  142.9220 O   0  0  0  0  0  1  0  0  0  0  0  0
  190.3590  177.1010  142.9700 C   0  0  1  0  0  3  0  0  0  0  0  0
  189.8620  176.0920  143.9170 N   0  0  0  0  0  2  0  0  0  0  0  0
  189.9830  178.5380  143.3880 C   0  0  1  0  0  3  0  0  0  0  0  0
  188.6720  177.6980  145.3910 C   0  0  2  0  0  0  0  0  0  0  0  0
  191.8620  176.9210  142.8230 C   0  0  0  0  0  1  0  0  0  0  0  0
  189.7830  178.6520  144.8990 C   0  0  0  0  0  2  0  0  0  0  0  0
  188.5410  176.4760  144.4460 C   0  0  0  0  0  2  0  0  0  0  0  0
  189.0480  177.1790  146.7690 C   0  0  0  0  0  0  0  0  0  0  0  0
  189.6190  176.0550  146.8620 O   0  0  0  0  0  0  0  0  0  0  0  0
  187.2560  178.0130  148.4180 C   0  0  0  0  0  1  0  0  0  0  0  0
  189.5770  178.4050  148.7450 O   0  0  0  0  0  0  0  0  0  0  0  0
  188.6850  177.8900  148.0160 C   0  0  0  0  0  0  0  0  0  0  0  0
  183.5180  176.5100  138.6710 C   0  0  2  0  0  3  0  0  0  0  0  0
  184.1820  177.3030  137.6690 O   0  0  0  0  0  0  0  0  0  0  0  0
  185.3430  178.0650  137.8780 C   0  0  0  0  0  0  0  0  0  0  0  0
  185.2910  179.1690  138.4940 O   0  0  0  0  0  0  0  0  0  0  0  0
  188.2670  173.6250  135.3360 C   0  0  2  0  0  3  0  0  0  0  0  0
  186.6860  177.5340  137.4720 C   0  0  1  0  0  3  0  0  0  0  0  0
  189.0280  177.0200  138.1770 C   0  0  0  0  0  3  0  0  0  0  0  0
  190.3090  175.6690  134.8630 O   0  0  0  0  0  1  0  0  0  0  0  0
  190.5530  174.7160  135.8730 C   0  0  2  0  0  0  0  0  0  0  0  0
  189.7620  173.4380  135.5890 C   0  0  0  0  0  2  0  0  0  0  0  0
  187.7430  177.7080  138.5730 C   0  0  0  0  0  2  0  0  0  0  0  0
  186.6060  176.0770  137.0760 C   0  0  0  0  0  3  0  0  0  0  0  0
  190.2280  175.2730  137.1510 O   0  0  0  0  0  0  0  0  0  0  0  0
  187.7060  175.3270  137.0310 C   0  0  0  0  0  0  0  0  0  0  0  0
  187.5740  173.8890  136.6750 C   0  0  0  0  0  2  0  0  0  0  0  0
  189.0080  175.8860  137.4640 C   0  0  0  0  0  0  0  0  0  0  0  0
  192.0390  174.3280  135.8810 C   0  0  2  0  0  3  0  0  0  0  0  0
  192.2690  172.8380  135.7670 C   0  0  0  0  0  2  0  0  0  0  0  0
  193.2600  172.4360  136.6840 O   0  0  0  0  0  0  0  0  0  0  0  0
  192.7600  174.7180  137.1390 C   0  0  0  0  0  2  0  0  0  0  0  0
  193.7480  173.5980  137.3200 C   0  0  0  0  0  2  0  0  0  0  0  0
  187.2590  171.4790  135.7570 C   0  0  0  0  0  1  0  0  0  0  0  0
  187.7690  172.3900  134.7260 N   0  0  0  0  0  2  0  0  0  0  0  0
  182.4030  175.8160  138.1550 O   0  0  0  0  0  0  0  0  0  0  0  0
  181.5820  175.1130  136.1650 C   0  0  0  0  0  1  0  0  0  0  0  0
  182.7810  175.2600  136.9750 N   0  0  0  0  0  0  0  0  0  0  0  0
  183.2400  173.9150  137.2820 C   0  0  0  0  0  1  0  0  0  0  0  0
  1  8  1  0  0  0  0
  1  3  1  0  0  0  0
  3 13  1  0  0  0  0
  4  2  1  0  0  0  0
  4 21  1  0  0  0  0
  5  9  1  0  0  0  0
  5  1  2  0  0  0  0
  6  3  1  0  0  0  0
  6 11  2  0  0  0  0
  7  4  1  0  0  0  0
  9  6  1  0  0  0  0
 10  2  1  0  0  0  0
 11 10  1  0  0  0  0
 12  9  1  0  0  0  0
 13 10  2  0  0  0  0
 13 19  1  0  0  0  0
 14 40  1  6  0  0  0
 14 11  1  0  0  0  0
 14  7  1  0  0  0  0
 16 17  1  0  0  0  0
 17 15  1  0  0  0  0
 17  5  1  0  0  0  0
 18 17  1  0  0  0  0
 19 20  1  0  0  0  0
 21 24  1  0  0  0  0
 22 21  2  0  0  0  0
 24 23  2  0  0  0  0
 24 25  1  0  0  0  0
 25 26  1  0  0  0  0
 28 32  1  1  0  0  0
 28 30  1  0  0  0  0
 28 29  1  0  0  0  0
 29 34  1  0  0  0  0
 30 27  1  1  0  0  0
 30 33  1  0  0  0  0
 31 26  1  1  0  0  0
 31 35  1  0  0  0  0
 33 31  1  0  0  0  0
 34 31  1  0  0  0  0
 35 36  2  0  0  0  0
 35 39  1  0  0  0  0
 39 37  1  0  0  0  0
 39 38  2  0  0  0  0
 40 41  1  6  0  0  0
 41 42  1  0  0  0  0
 42 43  2  0  0  0  0
 44 62  1  1  0  0  0
 44 49  1  0  0  0  0
 44 54  1  0  0  0  0
 45 42  1  1  0  0  0
 45 50  1  0  0  0  0
 46 50  1  0  0  0  0
 48 47  1  6  0  0  0
 48 56  1  0  0  0  0
 48 52  1  0  0  0  0
 49 48  1  0  0  0  0
 51 45  1  0  0  0  0
 52 55  1  0  0  0  0
 53 51  2  0  0  0  0
 53 55  1  0  0  0  0
 54 53  1  0  0  0  0
 55 46  2  0  0  0  0
 56 57  1  1  0  0  0
 56 59  1  0  0  0  0
 57 58  1  0  0  0  0
 58 60  1  0  0  0  0
 59 60  1  0  0  0  0
 62 61  1  0  0  0  0
 63 40  1  0  0  0  0
 64 65  1  0  0  0  0
 65 66  1  0  0  0  0
 65 63  1  0  0  0  0
M  END
>  <MODEL>
4

>  <REMARK>
 VINA RESULT:      -4.7      3.541      8.755
  Name = 
  17 active torsions:
  status: ('A' for Active; 'I' for Inactive)
    1  A    between atoms: C_1  and  N_46
    2  A    between atoms: C_5  and  N_22
    3  A    between atoms: C_5  and  C_66
    4  A    between atoms: C_6  and  O_35
    5  A    between atoms: C_6  and  C_62
    6  A    between atoms: C_6  and  O_65
    7  A    between atoms: C_7  and  C_27
    8  A    between atoms: N_9  and  C_61
    9  A    between atoms: C_10  and  C_43
   10  A    between atoms: C_10  and  C_47
   11  A    between atoms: C_11  and  C_43
   12  A    between atoms: C_11  and  S_58
   13  A    between atoms: C_13  and  C_25
   14  A    between atoms: C_24  and  C_32
   15  A    between atoms: C_25  and  O_35
   16  A    between atoms: N_41  and  O_65
   17  A    between atoms: S_58  and  C_66
                            x       y       z     vdW  Elec       q    Type
                         _______ _______ _______ _____ _____    ______ ____

>  <TORSDO>
F 17

$$$$
=
 OpenBabel10222418393D

 66 72  0  0  1  0  0  0  0  0999 V2000
  186.1200  178.6370  143.5790 C   0  0  0  0  0  0  0  0  0  0  0  0
  182.7220  178.7330  140.2560 C   0  0  0  0  0  2  0  0  0  0  0  0
  185.4880  179.1900  142.5270 N   0  0  0  0  0  0  0  0  0  0  0  0
  182.9460  177.5740  139.3420 N   0  0  0  0  0  0  0  0  0  0  0  0
  187.1350  177.8340  143.0650 C   0  0  0  0  0  0  0  0  0  0  0  0
  186.1020  178.7700  141.4260 C   0  0  0  0  0  0  0  0  0  0  0  0
  184.2450  177.0550  139.0830 N   0  0  0  0  0  2  0  0  0  0  0  0
  185.6550  178.7050  144.9960 C   0  0  0  0  0  1  0  0  0  0  0  0
  187.1180  177.9150  141.6970 N   0  0  0  0  0  0  0  0  0  0  0  0
  184.0000  179.1970  140.9000 C   0  0  0  0  0  0  0  0  0  0  0  0
  185.2270  178.8520  140.3410 C   0  0  0  0  0  0  0  0  0  0  0  0
  187.7430  176.9670  140.7720 C   0  0  0  0  0  1  0  0  0  0  0  0
  184.1990  179.4490  142.2460 C   0  0  0  0  0  0  0  0  0  0  0  0
  185.1750  178.1730  139.0140 C   0  0  1  0  0  3  0  0  0  0  0  0
  189.3410  177.3370  143.7510 F   0  0  0  0  0  0  0  0  0  0  0  0
  187.6620  176.9940  145.2140 F   0  0  0  0  0  0  0  0  0  0  0  0
  188.0250  176.9290  143.8810 C   0  0  0  0  0  0  0  0  0  0  0  0
  187.9270  175.6110  143.4700 F   0  0  0  0  0  0  0  0  0  0  0  0
  183.1570  179.4140  143.2190 N   0  0  0  0  0  2  0  0  0  0  0  0
  182.8220  178.2500  143.8200 O   0  0  0  0  0  1  0  0  0  0  0  0
  181.8150  176.8510  138.8180 C   0  0  0  0  0  0  0  0  0  0  0  0
  181.3800  175.7660  139.4620 C   0  0  0  0  0  2  0  0  0  0  0  0
  180.6430  178.4640  137.5230 O   0  0  0  0  0  0  0  0  0  0  0  0
  181.1070  177.3030  137.5900 C   0  0  0  0  0  0  0  0  0  0  0  0
  180.8070  176.1940  136.2070 S   0  0  0  0  0  0  0  0  0  0  0  0
  181.1450  174.7060  137.2090 C   0  0  0  0  0  2  0  0  0  0  0  0
  184.9950  172.5740  137.8930 O   0  0  0  0  0  1  0  0  0  0  0  0
  184.4960  172.9630  135.5210 C   0  0  1  0  0  3  0  0  0  0  0  0
  183.3340  172.9930  134.6220 N   0  0  0  0  0  2  0  0  0  0  0  0
  184.1030  173.1750  136.9990 C   0  0  1  0  0  3  0  0  0  0  0  0
  181.6650  173.5120  136.3860 C   0  0  2  0  0  0  0  0  0  0  0  0
  185.2350  171.6520  135.3050 C   0  0  0  0  0  1  0  0  0  0  0  0
  182.6650  172.7350  137.2690 C   0  0  0  0  0  2  0  0  0  0  0  0
  182.3450  173.9880  135.0760 C   0  0  0  0  0  2  0  0  0  0  0  0
  180.5240  172.5840  136.0050 C   0  0  0  0  0  0  0  0  0  0  0  0
  179.3780  173.0780  135.8020 O   0  0  0  0  0  0  0  0  0  0  0  0
  179.4700  170.2360  135.9920 C   0  0  0  0  0  1  0  0  0  0  0  0
  181.8180  170.5840  135.8980 O   0  0  0  0  0  0  0  0  0  0  0  0
  180.6740  171.1120  135.9570 C   0  0  0  0  0  0  0  0  0  0  0  0
  186.4880  177.8780  138.2950 C   0  0  2  0  0  3  0  0  0  0  0  0
  187.5620  178.7510  138.6930 O   0  0  0  0  0  0  0  0  0  0  0  0
  188.6850  179.0610  137.9100 C   0  0  0  0  0  0  0  0  0  0  0  0
  188.7160  180.1140  137.2090 O   0  0  0  0  0  0  0  0  0  0  0  0
  191.4960  174.3810  135.6930 C   0  0  2  0  0  3  0  0  0  0  0  0
  189.9180  178.2080  137.9730 C   0  0  1  0  0  3  0  0  0  0  0  0
  191.4730  176.8910  139.4190 C   0  0  0  0  0  3  0  0  0  0  0  0
  193.8820  175.7360  136.7140 O   0  0  0  0  0  1  0  0  0  0  0  0
  193.4110  174.6110  137.4210 C   0  0  2  0  0  0  0  0  0  0  0  0
  192.6120  173.7020  136.4850 C   0  0  0  0  0  2  0  0  0  0  0  0
  190.3270  177.8730  139.4160 C   0  0  0  0  0  2  0  0  0  0  0  0
  189.7430  176.9270  137.1890 C   0  0  0  0  0  3  0  0  0  0  0  0
  192.6330  175.0370  138.5450 O   0  0  0  0  0  0  0  0  0  0  0  0
  190.5500  175.8890  137.4000 C   0  0  0  0  0  0  0  0  0  0  0  0
  190.3150  174.6360  136.6330 C   0  0  0  0  0  2  0  0  0  0  0  0
  191.5670  175.9430  138.4760 C   0  0  0  0  0  0  0  0  0  0  0  0
  194.5960  173.7840  137.9410 C   0  0  2  0  0  3  0  0  0  0  0  0
  195.3820  174.4830  139.0280 C   0  0  0  0  0  2  0  0  0  0  0  0
  196.7630  174.3340  138.7900 O   0  0  0  0  0  0  0  0  0  0  0  0
  195.6210  173.4680  136.8900 C   0  0  0  0  0  2  0  0  0  0  0  0
  196.9130  173.5010  137.6600 C   0  0  0  0  0  2  0  0  0  0  0  0
  190.0500  172.5620  135.0580 C   0  0  0  0  0  1  0  0  0  0  0  0
  191.1120  173.4710  134.6120 N   0  0  0  0  0  2  0  0  0  0  0  0
  186.3590  177.7890  136.8930 O   0  0  0  0  0  0  0  0  0  0  0  0
  186.7490  175.5670  136.6800 C   0  0  0  0  0  1  0  0  0  0  0  0
  185.7380  176.6120  136.6160 N   0  0  0  0  0  0  0  0  0  0  0  0
  185.3090  176.6900  135.2300 C   0  0  0  0  0  1  0  0  0  0  0  0
  1  8  1  0  0  0  0
  2 10  1  0  0  0  0
  3  1  1  0  0  0  0
  4  2  1  0  0  0  0
  5  1  2  0  0  0  0
  5 17  1  0  0  0  0
  6  9  1  0  0  0  0
  6  3  1  0  0  0  0
  7  4  1  0  0  0  0
  9  5  1  0  0  0  0
 10 13  2  0  0  0  0
 11 10  1  0  0  0  0
 11  6  2  0  0  0  0
 12  9  1  0  0  0  0
 13  3  1  0  0  0  0
 13 19  1  0  0  0  0
 14 40  1  1  0  0  0
 14  7  1  0  0  0  0
 14 11  1  0  0  0  0
 15 17  1  0  0  0  0
 17 16  1  0  0  0  0
 18 17  1  0  0  0  0
 19 20  1  0  0  0  0
 21  4  1  0  0  0  0
 21 22  2  0  0  0  0
 23 24  2  0  0  0  0
 24 21  1  0  0  0  0
 25 26  1  0  0  0  0
 25 24  1  0  0  0  0
 28 32  1  1  0  0  0
 28 30  1  0  0  0  0
 29 34  1  0  0  0  0
 29 28  1  0  0  0  0
 30 33  1  0  0  0  0
 30 27  1  1  0  0  0
 31 26  1  1  0  0  0
 31 33  1  0  0  0  0
 34 31  1  0  0  0  0
 35 31  1  0  0  0  0
 36 35  2  0  0  0  0
 38 39  2  0  0  0  0
 39 37  1  0  0  0  0
 39 35  1  0  0  0  0
 40 63  1  6  0  0  0
 40 41  1  0  0  0  0
 42 41  1  0  0  0  0
 43 42  2  0  0  0  0
 44 62  1  6  0  0  0
 44 49  1  0  0  0  0
 44 54  1  0  0  0  0
 45 42  1  1  0  0  0
 45 50  1  0  0  0  0
 48 47  1  6  0  0  0
 48 56  1  0  0  0  0
 48 52  1  0  0  0  0
 49 48  1  0  0  0  0
 50 46  1  0  0  0  0
 51 53  2  0  0  0  0
 51 45  1  0  0  0  0
 53 55  1  0  0  0  0
 54 53  1  0  0  0  0
 55 52  1  0  0  0  0
 55 46  2  0  0  0  0
 56 59  1  6  0  0  0
 56 57  1  0  0  0  0
 58 57  1  0  0  0  0
 59 60  1  0  0  0  0
 60 58  1  0  0  0  0
 62 61  1  0  0  0  0
 65 64  1  0  0  0  0
 65 63  1  0  0  0  0
 66 65  1  0  0  0  0
M  END
>  <MODEL>
5

>  <REMARK>
 VINA RESULT:      -4.1      3.672     10.915
  Name = 
  17 active torsions:
  status: ('A' for Active; 'I' for Inactive)
    1  A    between atoms: C_1  and  N_46
    2  A    between atoms: C_5  and  N_22
    3  A    between atoms: C_5  and  C_66
    4  A    between atoms: C_6  and  O_35
    5  A    between atoms: C_6  and  C_62
    6  A    between atoms: C_6  and  O_65
    7  A    between atoms: C_7  and  C_27
    8  A    between atoms: N_9  and  C_61
    9  A    between atoms: C_10  and  C_43
   10  A    between atoms: C_10  and  C_47
   11  A    between atoms: C_11  and  C_43
   12  A    between atoms: C_11  and  S_58
   13  A    between atoms: C_13  and  C_25
   14  A    between atoms: C_24  and  C_32
   15  A    between atoms: C_25  and  O_35
   16  A    between atoms: N_41  and  O_65
   17  A    between atoms: S_58  and  C_66
                            x       y       z     vdW  Elec       q    Type
                         _______ _______ _______ _____ _____    ______ ____

>  <TORSDO>
F 17

$$$$
=
 OpenBabel10222418393D

 66 72  0  0  1  0  0  0  0  0999 V2000
  179.7910  179.9350  138.2680 C   0  0  0  0  0  0  0  0  0  0  0  0
  182.8180  178.4540  141.6200 C   0  0  0  0  0  2  0  0  0  0  0  0
  180.2650  179.0220  139.1360 N   0  0  0  0  0  0  0  0  0  0  0  0
  184.1770  178.3770  141.0060 N   0  0  0  0  0  0  0  0  0  0  0  0
  180.4250  179.7030  137.0510 C   0  0  0  0  0  0  0  0  0  0  0  0
  181.1230  178.2520  138.4770 C   0  0  0  0  0  0  0  0  0  0  0  0
  184.3680  178.0820  139.6280 N   0  0  0  0  0  2  0  0  0  0  0  0
  178.9310  181.1000  138.6290 C   0  0  0  0  0  1  0  0  0  0  0  0
  181.2770  178.6370  137.1870 N   0  0  0  0  0  0  0  0  0  0  0  0
  181.7280  178.2650  140.6010 C   0  0  0  0  0  0  0  0  0  0  0  0
  182.0150  177.6650  139.3780 C   0  0  0  0  0  0  0  0  0  0  0  0
  182.3880  178.3050  136.2930 C   0  0  0  0  0  1  0  0  0  0  0  0
  180.6100  179.0630  140.4350 C   0  0  0  0  0  0  0  0  0  0  0  0
  183.3820  177.0850  139.2370 C   0  0  1  0  0  3  0  0  0  0  0  0
  178.9860  181.0270  135.7240 F   0  0  0  0  0  0  0  0  0  0  0  0
  181.1430  181.6480  135.9090 F   0  0  0  0  0  0  0  0  0  0  0  0
  180.2870  180.5650  135.8200 C   0  0  0  0  0  0  0  0  0  0  0  0
  180.5940  179.8630  134.6680 F   0  0  0  0  0  0  0  0  0  0  0  0
  180.2680  180.1360  141.3080 N   0  0  0  0  0  2  0  0  0  0  0  0
  180.9540  180.3270  142.4580 O   0  0  0  0  0  1  0  0  0  0  0  0
  185.3300  178.7620  141.7790 C   0  0  0  0  0  0  0  0  0  0  0  0
  186.4910  178.9750  141.1560 C   0  0  0  0  0  2  0  0  0  0  0  0
  184.8180  180.0270  143.7250 O   0  0  0  0  0  0  0  0  0  0  0  0
  185.2490  178.9510  143.2530 C   0  0  0  0  0  0  0  0  0  0  0  0
  185.8420  177.7030  144.4020 S   0  0  0  0  0  0  0  0  0  0  0  0
  187.3010  178.6960  144.8700 C   0  0  0  0  0  2  0  0  0  0  0  0
  190.9680  178.9390  142.3520 O   0  0  0  0  0  1  0  0  0  0  0  0
  190.3350  176.6420  142.9470 C   0  0  1  0  0  3  0  0  0  0  0  0
  189.7570  175.9090  144.0820 N   0  0  0  0  0  2  0  0  0  0  0  0
  190.0040  178.1500  142.9900 C   0  0  1  0  0  3  0  0  0  0  0  0
  188.5790  177.8610  145.0680 C   0  0  2  0  0  0  0  0  0  0  0  0
  191.8330  176.3830  142.9210 C   0  0  0  0  0  1  0  0  0  0  0  0
  189.7490  178.6310  144.4170 C   0  0  0  0  0  2  0  0  0  0  0  0
  188.4330  176.4520  144.4380 C   0  0  0  0  0  2  0  0  0  0  0  0
  188.8770  177.6770  146.5470 C   0  0  0  0  0  0  0  0  0  0  0  0
  189.8990  177.0150  146.8860 O   0  0  0  0  0  0  0  0  0  0  0  0
  188.5200  178.7250  148.8710 C   0  0  0  0  0  1  0  0  0  0  0  0
  186.7140  178.0850  147.4670 O   0  0  0  0  0  0  0  0  0  0  0  0
  187.9660  178.1580  147.6100 C   0  0  0  0  0  0  0  0  0  0  0  0
  183.7150  176.3100  137.9660 C   0  0  2  0  0  3  0  0  0  0  0  0
  184.4440  177.0900  136.9990 O   0  0  0  0  0  0  0  0  0  0  0  0
  185.8220  177.3570  137.0480 C   0  0  0  0  0  0  0  0  0  0  0  0
  186.2530  178.4570  137.5000 O   0  0  0  0  0  0  0  0  0  0  0  0
  191.4760  175.7050  137.1910 C   0  0  2  0  0  3  0  0  0  0  0  0
  186.8170  176.2990  136.6700 C   0  0  1  0  0  3  0  0  0  0  0  0
  187.7370  174.8540  134.8510 C   0  0  0  0  0  3  0  0  0  0  0  0
  190.3620  173.0140  136.8950 O   0  0  0  0  0  1  0  0  0  0  0  0
  190.9810  173.5970  135.7710 C   0  0  2  0  0  0  0  0  0  0  0  0
  191.9980  174.6470  136.2190 C   0  0  0  0  0  2  0  0  0  0  0  0
  186.6210  175.7970  135.2310 C   0  0  0  0  0  2  0  0  0  0  0  0
  188.2360  176.7890  136.8440 C   0  0  0  0  0  3  0  0  0  0  0  0
  189.9850  174.1530  134.9050 O   0  0  0  0  0  0  0  0  0  0  0  0
  189.2470  176.1640  136.2420 C   0  0  0  0  0  0  0  0  0  0  0  0
  190.6210  176.7060  136.4100 C   0  0  0  0  0  2  0  0  0  0  0  0
  188.9800  175.0390  135.3150 C   0  0  0  0  0  0  0  0  0  0  0  0
  191.7580  172.5290  134.9870 C   0  0  2  0  0  3  0  0  0  0  0  0
  190.9120  171.3390  134.5950 C   0  0  0  0  0  2  0  0  0  0  0  0
  191.6220  170.1470  134.8380 O   0  0  0  0  0  0  0  0  0  0  0  0
  192.9030  171.9320  135.7520 C   0  0  0  0  0  2  0  0  0  0  0  0
  192.9150  170.5040  135.2780 C   0  0  0  0  0  2  0  0  0  0  0  0
  193.8820  175.7820  137.2640 C   0  0  0  0  0  1  0  0  0  0  0  0
  192.6410  176.3660  137.7840 N   0  0  0  0  0  2  0  0  0  0  0  0
  182.6060  175.6500  137.3970 O   0  0  0  0  0  0  0  0  0  0  0  0
  183.2550  173.5130  137.0170 C   0  0  0  0  0  1  0  0  0  0  0  0
  182.5570  174.4020  137.9330 N   0  0  0  0  0  0  0  0  0  0  0  0
  181.1600  174.0010  137.9140 C   0  0  0  0  0  1  0  0  0  0  0  0
  1  8  1  0  0  0  0
  1  3  1  0  0  0  0
  3 13  1  0  0  0  0
  4  2  1  0  0  0  0
  4 21  1  0  0  0  0
  5  9  1  0  0  0  0
  5  1  2  0  0  0  0
  6  3  1  0  0  0  0
  6 11  2  0  0  0  0
  7  4  1  0  0  0  0
  9  6  1  0  0  0  0
 10  2  1  0  0  0  0
 11 10  1  0  0  0  0
 12  9  1  0  0  0  0
 13 10  2  0  0  0  0
 13 19  1  0  0  0  0
 14 40  1  6  0  0  0
 14 11  1  0  0  0  0
 14  7  1  0  0  0  0
 15 17  1  0  0  0  0
 17 16  1  0  0  0  0
 17  5  1  0  0  0  0
 18 17  1  0  0  0  0
 19 20  1  0  0  0  0
 21 24  1  0  0  0  0
 22 21  2  0  0  0  0
 24 23  2  0  0  0  0
 24 25  1  0  0  0  0
 25 26  1  0  0  0  0
 28 32  1  1  0  0  0
 28 30  1  0  0  0  0
 28 29  1  0  0  0  0
 29 34  1  0  0  0  0
 30 27  1  1  0  0  0
 30 33  1  0  0  0  0
 31 26  1  6  0  0  0
 31 35  1  0  0  0  0
 33 31  1  0  0  0  0
 34 31  1  0  0  0  0
 35 36  2  0  0  0  0
 35 39  1  0  0  0  0
 38 39  2  0  0  0  0
 39 37  1  0  0  0  0
 40 41  1  6  0  0  0
 41 42  1  0  0  0  0
 42 43  2  0  0  0  0
 44 62  1  6  0  0  0
 45 51  1  0  0  0  0
 45 42  1  6  0  0  0
 46 50  1  0  0  0  0
 46 55  2  0  0  0  0
 48 49  1  0  0  0  0
 48 47  1  1  0  0  0
 49 44  1  0  0  0  0
 50 45  1  0  0  0  0
 52 55  1  0  0  0  0
 52 48  1  0  0  0  0
 53 54  1  0  0  0  0
 53 51  2  0  0  0  0
 54 44  1  0  0  0  0
 55 53  1  0  0  0  0
 56 57  1  1  0  0  0
 56 59  1  0  0  0  0
 56 48  1  0  0  0  0
 57 58  1  0  0  0  0
 58 60  1  0  0  0  0
 60 59  1  0  0  0  0
 61 62  1  0  0  0  0
 63 65  1  0  0  0  0
 63 40  1  0  0  0  0
 64 65  1  0  0  0  0
 66 65  1  0  0  0  0
M  END
>  <MODEL>
6

>  <REMARK>
 VINA RESULT:      -3.9      3.539      8.706
  Name = 
  17 active torsions:
  status: ('A' for Active; 'I' for Inactive)
    1  A    between atoms: C_1  and  N_46
    2  A    between atoms: C_5  and  N_22
    3  A    between atoms: C_5  and  C_66
    4  A    between atoms: C_6  and  O_35
    5  A    between atoms: C_6  and  C_62
    6  A    between atoms: C_6  and  O_65
    7  A    between atoms: C_7  and  C_27
    8  A    between atoms: N_9  and  C_61
    9  A    between atoms: C_10  and  C_43
   10  A    between atoms: C_10  and  C_47
   11  A    between atoms: C_11  and  C_43
   12  A    between atoms: C_11  and  S_58
   13  A    between atoms: C_13  and  C_25
   14  A    between atoms: C_24  and  C_32
   15  A    between atoms: C_25  and  O_35
   16  A    between atoms: N_41  and  O_65
   17  A    between atoms: S_58  and  C_66
                            x       y       z     vdW  Elec       q    Type
                         _______ _______ _______ _____ _____    ______ ____

>  <TORSDO>
F 17

$$$$
=
 OpenBabel10222418393D

 66 72  0  0  1  0  0  0  0  0999 V2000
  180.0970  178.5140  138.2030 C   0  0  0  0  0  0  0  0  0  0  0  0
  183.7290  177.7390  141.1710 C   0  0  0  0  0  2  0  0  0  0  0  0
  180.9240  177.7140  138.9020 N   0  0  0  0  0  0  0  0  0  0  0  0
  184.9750  178.2160  140.5010 N   0  0  0  0  0  0  0  0  0  0  0  0
  180.6630  178.6760  136.9420 C   0  0  0  0  0  0  0  0  0  0  0  0
  181.9290  177.3800  138.1010 C   0  0  0  0  0  0  0  0  0  0  0  0
  185.1320  178.1880  139.0870 N   0  0  0  0  0  2  0  0  0  0  0  0
  178.9320  179.2540  138.7710 C   0  0  0  0  0  1  0  0  0  0  0  0
  181.8310  177.9600  136.8800 N   0  0  0  0  0  0  0  0  0  0  0  0
  182.6800  177.3220  140.1780 C   0  0  0  0  0  0  0  0  0  0  0  0
  183.0410  177.0230  138.8670 C   0  0  0  0  0  0  0  0  0  0  0  0
  182.9050  178.1500  135.9040 C   0  0  0  0  0  1  0  0  0  0  0  0
  181.3490  177.7010  140.1780 C   0  0  0  0  0  0  0  0  0  0  0  0
  184.5050  176.9730  138.5860 C   0  0  1  0  0  3  0  0  0  0  0  0
  178.9580  180.1790  136.2930 F   0  0  0  0  0  0  0  0  0  0  0  0
  181.0620  180.5820  135.5980 F   0  0  0  0  0  0  0  0  0  0  0  0
  180.1360  179.5910  135.8640 C   0  0  0  0  0  0  0  0  0  0  0  0
  179.8860  178.9050  134.6880 F   0  0  0  0  0  0  0  0  0  0  0  0
  180.7450  178.4670  141.2180 N   0  0  0  0  0  2  0  0  0  0  0  0
  180.6120  179.8060  141.0900 O   0  0  0  0  0  1  0  0  0  0  0  0
  185.9970  178.8690  141.2790 C   0  0  0  0  0  0  0  0  0  0  0  0
  185.6410  179.6170  142.3260 C   0  0  0  0  0  2  0  0  0  0  0  0
  187.9970  179.5000  140.1620 O   0  0  0  0  0  0  0  0  0  0  0  0
  187.4400  178.7080  140.9560 C   0  0  0  0  0  0  0  0  0  0  0  0
  188.4090  177.3400  141.6020 S   0  0  0  0  0  0  0  0  0  0  0  0
  189.4460  178.4380  142.6260 C   0  0  0  0  0  2  0  0  0  0  0  0
  186.6170  176.7060  145.5990 O   0  0  0  0  0  1  0  0  0  0  0  0
  188.3860  178.0770  146.6100 C   0  0  1  0  0  3  0  0  0  0  0  0
  189.8100  178.3780  146.4060 N   0  0  0  0  0  2  0  0  0  0  0  0
  187.7080  177.5390  145.3310 C   0  0  1  0  0  3  0  0  0  0  0  0
  189.8390  177.8270  143.9840 C   0  0  2  0  0  0  0  0  0  0  0  0
  188.2620  177.1090  147.7760 C   0  0  0  0  0  1  0  0  0  0  0  0
  188.7140  176.8560  144.4050 C   0  0  0  0  0  2  0  0  0  0  0  0
  190.0430  178.9270  145.0580 C   0  0  0  0  0  2  0  0  0  0  0  0
  191.1390  177.0480  143.8670 C   0  0  0  0  0  0  0  0  0  0  0  0
  192.2250  177.6870  143.7720 O   0  0  0  0  0  0  0  0  0  0  0  0
  191.9930  174.7740  144.7190 C   0  0  0  0  0  1  0  0  0  0  0  0
  190.5340  174.9750  142.8550 O   0  0  0  0  0  0  0  0  0  0  0  0
  191.1780  175.5720  143.7600 C   0  0  0  0  0  0  0  0  0  0  0  0
  184.9660  176.5330  137.2000 C   0  0  2  0  0  3  0  0  0  0  0  0
  185.0460  175.1030  137.0540 O   0  0  0  0  0  0  0  0  0  0  0  0
  185.6880  174.4310  136.0010 C   0  0  0  0  0  0  0  0  0  0  0  0
  185.0360  174.0380  134.9910 O   0  0  0  0  0  0  0  0  0  0  0  0
  190.7560  175.8550  138.6480 C   0  0  2  0  0  3  0  0  0  0  0  0
  187.1780  174.2640  136.0010 C   0  0  1  0  0  3  0  0  0  0  0  0
  189.2910  174.3690  134.6700 C   0  0  0  0  0  3  0  0  0  0  0  0
  191.7180  173.3760  137.4220 O   0  0  0  0  0  1  0  0  0  0  0  0
  192.1390  174.5960  136.8560 C   0  0  2  0  0  0  0  0  0  0  0  0
  192.0840  175.7070  137.9070 C   0  0  0  0  0  2  0  0  0  0  0  0
  187.7830  174.3890  134.5940 C   0  0  0  0  0  2  0  0  0  0  0  0
  187.8450  175.2560  136.9260 C   0  0  0  0  0  3  0  0  0  0  0  0
  191.3340  174.9020  135.7130 O   0  0  0  0  0  0  0  0  0  0  0  0
  189.1450  175.5210  136.8100 C   0  0  0  0  0  0  0  0  0  0  0  0
  189.7500  176.5340  137.7160 C   0  0  0  0  0  2  0  0  0  0  0  0
  189.9330  174.9200  135.7080 C   0  0  0  0  0  0  0  0  0  0  0  0
  193.6010  174.4860  136.4000 C   0  0  2  0  0  3  0  0  0  0  0  0
  194.5870  175.0200  137.4150 C   0  0  0  0  0  2  0  0  0  0  0  0
  195.5620  175.8040  136.7680 O   0  0  0  0  0  0  0  0  0  0  0  0
  193.9050  175.2590  135.1490 C   0  0  0  0  0  2  0  0  0  0  0  0
  195.3140  175.7310  135.3800 C   0  0  0  0  0  2  0  0  0  0  0  0
  192.2390  177.4560  139.6650 C   0  0  0  0  0  1  0  0  0  0  0  0
  191.0060  176.6780  139.8330 N   0  0  0  0  0  2  0  0  0  0  0  0
  186.1360  177.1850  136.7580 O   0  0  0  0  0  0  0  0  0  0  0  0
  185.2430  177.1660  134.6760 C   0  0  0  0  0  1  0  0  0  0  0  0
  185.7830  178.0060  135.7340 N   0  0  0  0  0  0  0  0  0  0  0  0
  187.0160  178.5770  135.2200 C   0  0  0  0  0  1  0  0  0  0  0  0
  1  8  1  0  0  0  0
  1  3  1  0  0  0  0
  3 13  1  0  0  0  0
  4  2  1  0  0  0  0
  4 21  1  0  0  0  0
  5  1  2  0  0  0  0
  6 11  2  0  0  0  0
  6  3  1  0  0  0  0
  7  4  1  0  0  0  0
  9  5  1  0  0  0  0
  9  6  1  0  0  0  0
 10 13  2  0  0  0  0
 10  2  1  0  0  0  0
 11 10  1  0  0  0  0
 12  9  1  0  0  0  0
 13 19  1  0  0  0  0
 14 40  1  6  0  0  0
 14 11  1  0  0  0  0
 14  7  1  0  0  0  0
 16 17  1  0  0  0  0
 17 15  1  0  0  0  0
 17  5  1  0  0  0  0
 18 17  1  0  0  0  0
 20 19  1  0  0  0  0
 21 22  2  0  0  0  0
 23 24  2  0  0  0  0
 24 21  1  0  0  0  0
 24 25  1  0  0  0  0
 25 26  1  0  0  0  0
 28 32  1  1  0  0  0
 29 28  1  0  0  0  0
 30 27  1  1  0  0  0
 30 28  1  0  0  0  0
 31 26  1  6  0  0  0
 31 33  1  0  0  0  0
 31 34  1  0  0  0  0
 33 30  1  0  0  0  0
 34 29  1  0  0  0  0
 35 31  1  0  0  0  0
 36 35  2  0  0  0  0
 38 39  2  0  0  0  0
 39 35  1  0  0  0  0
 39 37  1  0  0  0  0
 40 63  1  1  0  0  0
 41 40  1  0  0  0  0
 42 41  1  0  0  0  0
 43 42  2  0  0  0  0
 44 62  1  1  0  0  0
 45 42  1  6  0  0  0
 45 51  1  0  0  0  0
 46 55  2  0  0  0  0
 48 47  1  1  0  0  0
 48 49  1  0  0  0  0
 49 44  1  0  0  0  0
 50 46  1  0  0  0  0
 50 45  1  0  0  0  0
 52 48  1  0  0  0  0
 53 51  2  0  0  0  0
 53 54  1  0  0  0  0
 54 44  1  0  0  0  0
 55 52  1  0  0  0  0
 55 53  1  0  0  0  0
 56 59  1  6  0  0  0
 56 48  1  0  0  0  0
 56 57  1  0  0  0  0
 58 57  1  0  0  0  0
 59 60  1  0  0  0  0
 60 58  1  0  0  0  0
 61 62  1  0  0  0  0
 64 65  1  0  0  0  0
 65 63  1  0  0  0  0
 66 65  1  0  0  0  0
M  END
>  <MODEL>
7

>  <REMARK>
 VINA RESULT:      -3.7      3.456      8.468
  Name = 
  17 active torsions:
  status: ('A' for Active; 'I' for Inactive)
    1  A    between atoms: C_1  and  N_46
    2  A    between atoms: C_5  and  N_22
    3  A    between atoms: C_5  and  C_66
    4  A    between atoms: C_6  and  O_35
    5  A    between atoms: C_6  and  C_62
    6  A    between atoms: C_6  and  O_65
    7  A    between atoms: C_7  and  C_27
    8  A    between atoms: N_9  and  C_61
    9  A    between atoms: C_10  and  C_43
   10  A    between atoms: C_10  and  C_47
   11  A    between atoms: C_11  and  C_43
   12  A    between atoms: C_11  and  S_58
   13  A    between atoms: C_13  and  C_25
   14  A    between atoms: C_24  and  C_32
   15  A    between atoms: C_25  and  O_35
   16  A    between atoms: N_41  and  O_65
   17  A    between atoms: S_58  and  C_66
                            x       y       z     vdW  Elec       q    Type
                         _______ _______ _______ _____ _____    ______ ____

>  <TORSDO>
F 17

$$$$
=
 OpenBabel10222418393D

 66 72  0  0  1  0  0  0  0  0999 V2000
  179.9340  179.2760  138.4950 C   0  0  0  0  0  0  0  0  0  0  0  0
  183.1450  178.0200  141.7680 C   0  0  0  0  0  2  0  0  0  0  0  0
  180.5270  178.3860  139.3130 N   0  0  0  0  0  0  0  0  0  0  0  0
  184.5000  178.1540  141.1540 N   0  0  0  0  0  0  0  0  0  0  0  0
  180.5880  179.1950  137.2690 C   0  0  0  0  0  0  0  0  0  0  0  0
  181.4750  177.7710  138.6150 C   0  0  0  0  0  0  0  0  0  0  0  0
  184.7210  177.9610  139.7610 N   0  0  0  0  0  2  0  0  0  0  0  0
  178.9330  180.2990  138.9180 C   0  0  0  0  0  1  0  0  0  0  0  0
  181.5710  178.2430  137.3480 N   0  0  0  0  0  0  0  0  0  0  0  0
  182.0840  177.7470  140.7380 C   0  0  0  0  0  0  0  0  0  0  0  0
  182.4400  177.2570  139.4850 C   0  0  0  0  0  0  0  0  0  0  0  0
  182.7110  178.1060  136.4400 C   0  0  0  0  0  1  0  0  0  0  0  0
  180.8710  178.4010  140.6140 C   0  0  0  0  0  0  0  0  0  0  0  0
  183.8690  176.8680  139.3140 C   0  0  1  0  0  3  0  0  0  0  0  0
  178.9830  180.3980  136.0180 F   0  0  0  0  0  0  0  0  0  0  0  0
  181.0480  181.2720  136.2320 F   0  0  0  0  0  0  0  0  0  0  0  0
  180.3330  180.0980  136.0870 C   0  0  0  0  0  0  0  0  0  0  0  0
  180.7150  179.5020  134.8970 F   0  0  0  0  0  0  0  0  0  0  0  0
  180.3970  179.3730  141.5430 N   0  0  0  0  0  2  0  0  0  0  0  0
  181.0110  180.5730  141.6490 O   0  0  0  0  0  1  0  0  0  0  0  0
  185.5970  178.6420  141.9490 C   0  0  0  0  0  0  0  0  0  0  0  0
  186.3240  179.6670  141.4970 C   0  0  0  0  0  2  0  0  0  0  0  0
  185.3980  178.5030  144.3130 O   0  0  0  0  0  0  0  0  0  0  0  0
  185.9220  178.0450  143.2720 C   0  0  0  0  0  0  0  0  0  0  0  0
  187.1320  176.7280  143.4460 S   0  0  0  0  0  0  0  0  0  0  0  0
  188.5340  177.8970  143.4910 C   0  0  0  0  0  2  0  0  0  0  0  0
  188.7340  176.4180  147.6880 O   0  0  0  0  0  1  0  0  0  0  0  0
  190.6830  177.7560  147.0240 C   0  0  1  0  0  3  0  0  0  0  0  0
  191.5190  177.9870  145.8370 N   0  0  0  0  0  2  0  0  0  0  0  0
  189.2920  177.1910  146.6640 C   0  0  1  0  0  3  0  0  0  0  0  0
  189.7890  177.3290  144.1810 C   0  0  2  0  0  0  0  0  0  0  0  0
  191.4430  176.8470  147.9760 C   0  0  0  0  0  1  0  0  0  0  0  0
  189.3180  176.4260  145.3420 C   0  0  0  0  0  2  0  0  0  0  0  0
  190.7030  178.4660  144.7060 C   0  0  0  0  0  2  0  0  0  0  0  0
  190.6030  176.4920  143.2090 C   0  0  0  0  0  0  0  0  0  0  0  0
  191.0420  175.3690  143.5910 O   0  0  0  0  0  0  0  0  0  0  0  0
  190.0590  176.8130  140.7140 C   0  0  0  0  0  1  0  0  0  0  0  0
  192.1100  177.5280  141.6770 O   0  0  0  0  0  0  0  0  0  0  0  0
  190.9890  176.9780  141.8650 C   0  0  0  0  0  0  0  0  0  0  0  0
  184.2940  176.2130  138.0040 C   0  0  2  0  0  3  0  0  0  0  0  0
  184.7880  177.1540  137.0320 O   0  0  0  0  0  0  0  0  0  0  0  0
  185.8490  178.0500  137.2390 C   0  0  0  0  0  0  0  0  0  0  0  0
  185.6530  179.1670  137.8010 O   0  0  0  0  0  0  0  0  0  0  0  0
  189.4200  173.6690  135.5740 C   0  0  2  0  0  3  0  0  0  0  0  0
  187.2560  177.6560  136.9010 C   0  0  1  0  0  3  0  0  0  0  0  0
  189.6540  177.6700  137.6030 C   0  0  0  0  0  3  0  0  0  0  0  0
  191.1110  175.8510  134.5990 O   0  0  0  0  0  1  0  0  0  0  0  0
  191.5090  175.1860  135.7760 C   0  0  2  0  0  0  0  0  0  0  0  0
  190.9280  173.7710  135.8000 C   0  0  0  0  0  2  0  0  0  0  0  0
  188.2800  178.2220  137.8970 C   0  0  0  0  0  2  0  0  0  0  0  0
  187.4050  176.1530  136.8250 C   0  0  0  0  0  3  0  0  0  0  0  0
  191.1080  175.9480  136.9200 O   0  0  0  0  0  0  0  0  0  0  0  0
  188.6090  175.5880  136.8940 C   0  0  0  0  0  0  0  0  0  0  0  0
  188.7030  174.1040  136.8540 C   0  0  0  0  0  2  0  0  0  0  0  0
  189.8090  176.4200  137.1460 C   0  0  0  0  0  0  0  0  0  0  0  0
  193.0370  175.0410  135.8050 C   0  0  2  0  0  3  0  0  0  0  0  0
  193.5000  173.6650  136.2320 C   0  0  0  0  0  2  0  0  0  0  0  0
  194.5630  173.7820  137.1490 O   0  0  0  0  0  0  0  0  0  0  0  0
  193.7160  175.9730  136.7660 C   0  0  0  0  0  2  0  0  0  0  0  0
  194.8740  175.1540  137.2680 C   0  0  0  0  0  2  0  0  0  0  0  0
  187.8780  171.8520  135.9200 C   0  0  0  0  0  1  0  0  0  0  0  0
  189.1190  172.2710  135.2590 N   0  0  0  0  0  2  0  0  0  0  0  0
  183.3230  175.3420  137.4650 O   0  0  0  0  0  0  0  0  0  0  0  0
  182.9630  174.7920  135.2970 C   0  0  0  0  0  1  0  0  0  0  0  0
  183.8940  174.7000  136.4120 N   0  0  0  0  0  0  0  0  0  0  0  0
  183.9650  173.2950  136.7770 C   0  0  0  0  0  1  0  0  0  0  0  0
  1  8  1  0  0  0  0
  1  3  1  0  0  0  0
  3 13  1  0  0  0  0
  4  2  1  0  0  0  0
  4 21  1  0  0  0  0
  5  9  1  0  0  0  0
  5  1  2  0  0  0  0
  6  3  1  0  0  0  0
  6 11  2  0  0  0  0
  7  4  1  0  0  0  0
  9  6  1  0  0  0  0
 10  2  1  0  0  0  0
 11 10  1  0  0  0  0
 12  9  1  0  0  0  0
 13 10  2  0  0  0  0
 13 19  1  0  0  0  0
 14 40  1  6  0  0  0
 14 11  1  0  0  0  0
 14  7  1  0  0  0  0
 15 17  1  0  0  0  0
 17 16  1  0  0  0  0
 17  5  1  0  0  0  0
 18 17  1  0  0  0  0
 19 20  1  0  0  0  0
 21 24  1  0  0  0  0
 22 21  2  0  0  0  0
 24 25  1  0  0  0  0
 24 23  2  0  0  0  0
 25 26  1  0  0  0  0
 28 32  1  1  0  0  0
 29 28  1  0  0  0  0
 30 28  1  0  0  0  0
 30 27  1  1  0  0  0
 31 26  1  6  0  0  0
 31 34  1  0  0  0  0
 31 33  1  0  0  0  0
 33 30  1  0  0  0  0
 34 29  1  0  0  0  0
 35 36  2  0  0  0  0
 35 31  1  0  0  0  0
 37 39  1  0  0  0  0
 38 39  2  0  0  0  0
 39 35  1  0  0  0  0
 40 41  1  6  0  0  0
 41 42  1  0  0  0  0
 42 43  2  0  0  0  0
 44 62  1  1  0  0  0
 44 49  1  0  0  0  0
 44 54  1  0  0  0  0
 45 42  1  1  0  0  0
 45 50  1  0  0  0  0
 46 50  1  0  0  0  0
 48 47  1  6  0  0  0
 48 49  1  0  0  0  0
 48 56  1  0  0  0  0
 48 52  1  0  0  0  0
 51 53  2  0  0  0  0
 51 45  1  0  0  0  0
 52 55  1  0  0  0  0
 53 55  1  0  0  0  0
 54 53  1  0  0  0  0
 55 46  2  0  0  0  0
 56 57  1  1  0  0  0
 56 59  1  0  0  0  0
 57 58  1  0  0  0  0
 58 60  1  0  0  0  0
 59 60  1  0  0  0  0
 62 61  1  0  0  0  0
 63 40  1  0  0  0  0
 64 65  1  0  0  0  0
 65 66  1  0  0  0  0
 65 63  1  0  0  0  0
M  END
>  <MODEL>
8

>  <REMARK>
 VINA RESULT:      -3.7      3.375      8.702
  Name = 
  17 active torsions:
  status: ('A' for Active; 'I' for Inactive)
    1  A    between atoms: C_1  and  N_46
    2  A    between atoms: C_5  and  N_22
    3  A    between atoms: C_5  and  C_66
    4  A    between atoms: C_6  and  O_35
    5  A    between atoms: C_6  and  C_62
    6  A    between atoms: C_6  and  O_65
    7  A    between atoms: C_7  and  C_27
    8  A    between atoms: N_9  and  C_61
    9  A    between atoms: C_10  and  C_43
   10  A    between atoms: C_10  and  C_47
   11  A    between atoms: C_11  and  C_43
   12  A    between atoms: C_11  and  S_58
   13  A    between atoms: C_13  and  C_25
   14  A    between atoms: C_24  and  C_32
   15  A    between atoms: C_25  and  O_35
   16  A    between atoms: N_41  and  O_65
   17  A    between atoms: S_58  and  C_66
                            x       y       z     vdW  Elec       q    Type
                         _______ _______ _______ _____ _____    ______ ____

>  <TORSDO>
F 17

$$$$
=
 OpenBabel10222418393D

 66 72  0  0  1  0  0  0  0  0999 V2000
  186.8880  178.2560  143.2860 C   0  0  0  0  0  0  0  0  0  0  0  0
  183.0920  178.5000  140.4350 C   0  0  0  0  0  2  0  0  0  0  0  0
  186.1000  178.8790  142.3900 N   0  0  0  0  0  0  0  0  0  0  0  0
  183.2530  177.4650  139.3720 N   0  0  0  0  0  0  0  0  0  0  0  0
  187.8670  177.5800  142.5630 C   0  0  0  0  0  0  0  0  0  0  0  0
  186.5880  178.6220  141.1820 C   0  0  0  0  0  0  0  0  0  0  0  0
  184.5320  177.0590  138.8980 N   0  0  0  0  0  2  0  0  0  0  0  0
  186.6050  178.1400  144.7470 C   0  0  0  0  0  1  0  0  0  0  0  0
  187.6700  177.8080  141.2250 N   0  0  0  0  0  0  0  0  0  0  0  0
  184.4170  178.9710  140.9680 C   0  0  0  0  0  0  0  0  0  0  0  0
  185.5780  178.7660  140.2280 C   0  0  0  0  0  0  0  0  0  0  0  0
  188.2170  177.0080  140.1270 C   0  0  0  0  0  1  0  0  0  0  0  0
  184.7750  179.0860  142.3000 C   0  0  0  0  0  0  0  0  0  0  0  0
  185.3900  178.2350  138.8470 C   0  0  1  0  0  3  0  0  0  0  0  0
  190.0380  176.6670  142.3710 F   0  0  0  0  0  0  0  0  0  0  0  0
  189.2220  177.0610  144.4320 F   0  0  0  0  0  0  0  0  0  0  0  0
  188.8970  176.6490  143.1530 C   0  0  0  0  0  0  0  0  0  0  0  0
  188.4290  175.3480  143.2240 F   0  0  0  0  0  0  0  0  0  0  0  0
  183.8690  178.8800  143.3820 N   0  0  0  0  0  2  0  0  0  0  0  0
  184.1460  179.3780  144.6080 O   0  0  0  0  0  1  0  0  0  0  0  0
  182.1010  176.7340  138.9090 C   0  0  0  0  0  0  0  0  0  0  0  0
  180.8830  177.2450  139.1040 C   0  0  0  0  0  2  0  0  0  0  0  0
  181.7810  174.3870  138.7070 O   0  0  0  0  0  0  0  0  0  0  0  0
  182.2410  175.4350  138.1980 C   0  0  0  0  0  0  0  0  0  0  0  0
  183.1420  175.2940  136.6490 S   0  0  0  0  0  0  0  0  0  0  0  0
  181.8700  174.2200  135.9010 C   0  0  0  0  0  2  0  0  0  0  0  0
  185.9550  172.4750  136.2360 O   0  0  0  0  0  1  0  0  0  0  0  0
  184.4810  171.2400  134.7090 C   0  0  1  0  0  3  0  0  0  0  0  0
  183.0660  170.8600  134.5970 N   0  0  0  0  0  2  0  0  0  0  0  0
  184.6930  172.4590  135.6320 C   0  0  1  0  0  3  0  0  0  0  0  0
  182.1960  172.7180  135.9970 C   0  0  2  0  0  0  0  0  0  0  0  0
  185.2690  170.0250  135.1720 C   0  0  0  0  0  1  0  0  0  0  0  0
  183.5790  172.5800  136.6710 C   0  0  0  0  0  2  0  0  0  0  0  0
  182.2000  172.0540  134.5960 C   0  0  0  0  0  2  0  0  0  0  0  0
  181.1630  171.9980  136.8470 C   0  0  0  0  0  0  0  0  0  0  0  0
  181.5570  171.1490  137.6970 O   0  0  0  0  0  0  0  0  0  0  0  0
  178.9430  173.1060  137.5330 C   0  0  0  0  0  1  0  0  0  0  0  0
  179.0930  171.5380  135.7540 O   0  0  0  0  0  0  0  0  0  0  0  0
  179.7060  172.1760  136.6540 C   0  0  0  0  0  0  0  0  0  0  0  0
  186.6130  178.1030  137.9450 C   0  0  2  0  0  3  0  0  0  0  0  0
  187.1880  176.7830  137.9560 O   0  0  0  0  0  0  0  0  0  0  0  0
  187.3460  175.9590  136.8310 C   0  0  0  0  0  0  0  0  0  0  0  0
  186.3750  175.7340  136.0510 O   0  0  0  0  0  0  0  0  0  0  0  0
  193.0430  175.6640  138.3080 C   0  0  2  0  0  3  0  0  0  0  0  0
  188.6970  175.4170  136.4660 C   0  0  1  0  0  3  0  0  0  0  0  0
  190.4330  175.1590  134.6870 C   0  0  0  0  0  3  0  0  0  0  0  0
  192.9980  173.2130  136.7080 O   0  0  0  0  0  1  0  0  0  0  0  0
  193.6170  174.3500  136.1520 C   0  0  2  0  0  0  0  0  0  0  0  0
  194.0930  175.2840  137.2660 C   0  0  0  0  0  2  0  0  0  0  0  0
  189.0090  175.5740  134.9700 C   0  0  0  0  0  2  0  0  0  0  0  0
  189.7910  176.0710  137.2800 C   0  0  0  0  0  3  0  0  0  0  0  0
  192.7120  175.0050  135.2560 O   0  0  0  0  0  0  0  0  0  0  0  0
  191.0600  176.0080  136.8810 C   0  0  0  0  0  0  0  0  0  0  0  0
  192.0970  176.6990  137.6930 C   0  0  0  0  0  2  0  0  0  0  0  0
  191.4030  175.3810  135.5830 C   0  0  0  0  0  0  0  0  0  0  0  0
  194.8630  173.9320  135.3570 C   0  0  2  0  0  3  0  0  0  0  0  0
  195.9650  173.3660  136.2250 C   0  0  0  0  0  2  0  0  0  0  0  0
  197.2070  173.9030  135.8330 O   0  0  0  0  0  0  0  0  0  0  0  0
  195.5190  175.0650  134.6220 C   0  0  0  0  0  2  0  0  0  0  0  0
  196.9800  174.7150  134.7010 C   0  0  0  0  0  2  0  0  0  0  0  0
  193.1510  177.5050  139.8570 C   0  0  0  0  0  1  0  0  0  0  0  0
  193.7520  176.2270  139.4590 N   0  0  0  0  0  2  0  0  0  0  0  0
  187.5780  179.1120  138.1470 O   0  0  0  0  0  0  0  0  0  0  0  0
  189.3890  180.1480  137.2640 C   0  0  0  0  0  1  0  0  0  0  0  0
  188.4860  179.0140  137.1410 N   0  0  0  0  0  0  0  0  0  0  0  0
  187.7500  179.2040  135.9020 C   0  0  0  0  0  1  0  0  0  0  0  0
  1  8  1  0  0  0  0
  2 10  1  0  0  0  0
  3  1  1  0  0  0  0
  4  2  1  0  0  0  0
  5 17  1  0  0  0  0
  5  1  2  0  0  0  0
  6  9  1  0  0  0  0
  6  3  1  0  0  0  0
  7  4  1  0  0  0  0
  9  5  1  0  0  0  0
 10 13  2  0  0  0  0
 11 10  1  0  0  0  0
 11  6  2  0  0  0  0
 12  9  1  0  0  0  0
 13  3  1  0  0  0  0
 13 19  1  0  0  0  0
 14 40  1  1  0  0  0
 14  7  1  0  0  0  0
 14 11  1  0  0  0  0
 15 17  1  0  0  0  0
 17 18  1  0  0  0  0
 17 16  1  0  0  0  0
 19 20  1  0  0  0  0
 21 22  2  0  0  0  0
 21  4  1  0  0  0  0
 24 23  2  0  0  0  0
 24 21  1  0  0  0  0
 25 24  1  0  0  0  0
 26 25  1  0  0  0  0
 28 32  1  1  0  0  0
 28 30  1  0  0  0  0
 29 28  1  0  0  0  0
 30 27  1  1  0  0  0
 30 33  1  0  0  0  0
 31 26  1  6  0  0  0
 31 33  1  0  0  0  0
 31 35  1  0  0  0  0
 34 29  1  0  0  0  0
 34 31  1  0  0  0  0
 35 36  2  0  0  0  0
 38 39  2  0  0  0  0
 39 35  1  0  0  0  0
 39 37  1  0  0  0  0
 40 41  1  1  0  0  0
 40 63  1  0  0  0  0
 42 41  1  0  0  0  0
 43 42  2  0  0  0  0
 44 62  1  1  0  0  0
 45 42  1  6  0  0  0
 45 51  1  0  0  0  0
 46 50  1  0  0  0  0
 46 55  2  0  0  0  0
 48 47  1  1  0  0  0
 48 49  1  0  0  0  0
 49 44  1  0  0  0  0
 50 45  1  0  0  0  0
 52 55  1  0  0  0  0
 52 48  1  0  0  0  0
 53 51  2  0  0  0  0
 53 54  1  0  0  0  0
 54 44  1  0  0  0  0
 55 53  1  0  0  0  0
 56 59  1  1  0  0  0
 56 48  1  0  0  0  0
 56 57  1  0  0  0  0
 58 57  1  0  0  0  0
 59 60  1  0  0  0  0
 60 58  1  0  0  0  0
 62 61  1  0  0  0  0
 65 64  1  0  0  0  0
 65 63  1  0  0  0  0
 66 65  1  0  0  0  0
M  END
>  <MODEL>
9

>  <REMARK>
 VINA RESULT:      -3.2      3.607     10.808
  Name = 
  17 active torsions:
  status: ('A' for Active; 'I' for Inactive)
    1  A    between atoms: C_1  and  N_46
    2  A    between atoms: C_5  and  N_22
    3  A    between atoms: C_5  and  C_66
    4  A    between atoms: C_6  and  O_35
    5  A    between atoms: C_6  and  C_62
    6  A    between atoms: C_6  and  O_65
    7  A    between atoms: C_7  and  C_27
    8  A    between atoms: N_9  and  C_61
    9  A    between atoms: C_10  and  C_43
   10  A    between atoms: C_10  and  C_47
   11  A    between atoms: C_11  and  C_43
   12  A    between atoms: C_11  and  S_58
   13  A    between atoms: C_13  and  C_25
   14  A    between atoms: C_24  and  C_32
   15  A    between atoms: C_25  and  O_35
   16  A    between atoms: N_41  and  O_65
   17  A    between atoms: S_58  and  C_66
                            x       y       z     vdW  Elec       q    Type
                         _______ _______ _______ _____ _____    ______ ____

>  <TORSDO>
F 17

$$$$
