=
 OpenBabel10222417333D

 57 63  0  0  1  0  0  0  0  0999 V2000
  184.8810  178.4270  140.7930 C   0  0  0  0  0  0  0  0  0  0  0  0
  179.6260  177.3870  143.0150 N   0  0  0  0  0  2  0  0  0  0  0  0
  180.3640  179.1050  144.4130 C   0  0  0  0  0  2  0  0  0  0  0  0
  183.4710  178.7630  143.8640 C   0  0  0  0  0  2  0  0  0  0  0  0
  181.0540  179.2590  143.0940 C   0  0  1  0  0  3  0  0  0  0  0  0
  182.9060  178.1790  139.4840 C   0  0  0  0  0  0  0  0  0  0  0  0
  182.5050  179.7510  143.2070 C   0  0  0  0  0  2  0  0  0  0  0  0
  179.9270  178.2350  138.7810 C   0  0  0  0  0  3  0  0  0  0  0  0
  184.9070  179.0270  143.3930 C   0  0  2  0  0  3  0  0  0  0  0  0
  182.3080  177.6340  140.5030 N   0  0  0  0  0  0  0  0  0  0  0  0
  180.9970  177.8800  141.0200 C   0  0  0  0  0  0  0  0  0  0  0  0
  185.0040  178.7100  141.9570 C   0  0  0  0  0  0  0  0  0  0  0  0
  179.3840  178.0300  144.2510 N   0  0  0  0  0  2  0  0  0  0  0  0
  184.4130  178.0500  139.4480 C   0  0  1  0  0  3  0  0  0  0  0  0
  182.1990  179.1950  138.6380 C   0  0  0  0  0  2  0  0  0  0  0  0
  180.9590  178.6290  138.0320 C   0  0  0  0  0  0  0  0  0  0  0  0
  180.8980  177.8850  142.5170 C   0  0  2  0  0  3  0  0  0  0  0  0
  179.9310  178.1400  140.2510 C   0  0  0  0  0  3  0  0  0  0  0  0
  186.6470  177.6040  146.5750 C   0  0  2  0  0  3  0  0  0  0  0  0
  186.6740  177.1990  143.6210 C   0  0  0  0  0  2  0  0  0  0  0  0
  188.7390  178.4470  145.4360 N   0  0  0  0  0  2  0  0  0  0  0  0
  188.1230  177.6170  146.4760 C   0  0  1  0  0  0  0  0  0  0  0  0
  188.0250  177.7560  143.1870 C   0  0  0  0  0  2  0  0  0  0  0  0
  185.9200  178.5280  145.6290 C   0  0  0  0  0  0  0  0  0  0  0  0
  185.2720  179.5020  146.1090 O   0  0  0  0  0  0  0  0  0  0  0  0
  190.4220  178.0120  143.7410 C   0  0  0  0  0  1  0  0  0  0  0  0
  187.4980  178.6100  147.8870 S   0  0  0  0  0  0  0  0  0  0  0  0
  185.8610  178.2660  144.2130 N   0  0  0  0  0  0  0  0  0  0  0  0
  189.0670  177.6080  144.2840 C   0  0  1  0  0  3  0  0  0  0  0  0
  190.0920  176.4290  147.3060 C   0  0  0  0  0  0  0  0  0  0  0  0
  191.8740  177.6890  148.1290 O   0  0  0  0  0  1  0  0  0  0  0  0
  192.1730  175.2590  147.6800 C   0  0  0  0  0  1  0  0  0  0  0  0
  191.3340  176.4850  147.6980 C   0  0  0  0  0  0  0  0  0  0  0  0
  188.8480  176.3790  146.9160 C   0  0  0  0  0  3  0  0  0  0  0  0
  180.8140  178.6660  136.5470 C   0  0  0  0  0  2  0  0  0  0  0  0
  182.0150  178.1540  135.9020 N   0  0  0  0  0  2  0  0  0  0  0  0
  182.1450  176.8100  136.2880 N   0  0  0  0  0  2  0  0  0  0  0  0
  181.9620  176.0050  135.0880 C   0  0  0  0  0  2  0  0  0  0  0  0
  184.8190  174.7950  135.7010 C   0  0  0  0  0  2  0  0  0  0  0  0
  181.8730  172.2620  136.8350 S   0  0  0  0  0  0  0  0  0  0  0  0
  183.5520  172.8190  136.4460 C   0  0  1  0  0  3  0  0  0  0  0  0
  185.9160  174.4830  136.7240 C   0  0  0  0  0  2  0  0  0  0  0  0
  183.4860  174.3120  136.2610 C   0  0  2  0  0  3  0  0  0  0  0  0
  184.5680  172.4900  137.5280 C   0  0  0  0  0  2  0  0  0  0  0  0
  185.9450  172.9850  137.0700 C   0  0  0  0  0  2  0  0  0  0  0  0
  182.3010  174.5310  135.3480 C   0  0  1  0  0  3  0  0  0  0  0  0
  181.1490  173.6530  135.8770 C   0  0  2  0  0  3  0  0  0  0  0  0
  180.1630  174.4110  136.7640 C   0  0  0  0  0  2  0  0  0  0  0  0
  180.1460  173.8490  138.1750 C   0  0  0  0  0  2  0  0  0  0  0  0
  180.5620  174.8230  139.0850 O   0  0  0  0  0  1  0  0  0  0  0  0
  185.0710  178.9260  138.3870 C   0  0  0  0  0  2  0  0  0  0  0  0
  185.5220  178.0800  137.2070 C   0  0  0  0  0  2  0  0  0  0  0  0
  187.0300  178.1450  137.0560 C   0  0  0  0  0  2  0  0  0  0  0  0
  187.6700  177.3660  138.1050 N   0  0  0  0  0  2  0  0  0  0  0  0
  188.6480  177.9380  138.9780 C   0  0  0  0  0  0  0  0  0  0  0  0
  189.2220  177.1550  139.9710 O   0  0  0  0  0  1  0  0  0  0  0  0
  188.9920  179.1470  138.8590 O   0  0  0  0  0  0  0  0  0  0  0  0
  1 12  3  0  0  0  0
  2 13  1  0  0  0  0
  5  7  1  1  0  0  0
  5  3  1  0  0  0  0
  6 10  2  0  0  0  0
  7  4  1  0  0  0  0
  8 18  1  0  0  0  0
  9 12  1  6  0  0  0
  9  4  1  0  0  0  0
  9 28  1  0  0  0  0
 10 11  1  0  0  0  0
 13  3  1  0  0  0  0
 14 51  1  6  0  0  0
 14  6  1  0  0  0  0
 14  1  1  0  0  0  0
 15  6  1  0  0  0  0
 16 15  1  0  0  0  0
 16  8  2  0  0  0  0
 17 11  1  6  0  0  0
 17  2  1  0  0  0  0
 17  5  1  0  0  0  0
 18 11  2  0  0  0  0
 19 24  1  6  0  0  0
 19 27  1  0  0  0  0
 20 28  1  0  0  0  0
 21 22  1  0  0  0  0
 22 19  1  0  0  0  0
 22 34  1  1  0  0  0
 22 27  1  0  0  0  0
 23 20  1  0  0  0  0
 23 29  1  0  0  0  0
 24 25  2  0  0  0  0
 28 24  1  0  0  0  0
 29 26  1  6  0  0  0
 29 21  1  0  0  0  0
 30 33  2  0  0  0  0
 32 33  1  0  0  0  0
 33 31  1  0  0  0  0
 34 30  2  0  0  0  0
 35 16  1  0  0  0  0
 36 37  1  0  0  0  0
 36 35  1  0  0  0  0
 38 37  1  0  0  0  0
 39 42  1  0  0  0  0
 41 40  1  0  0  0  0
 41 44  1  1  0  0  0
 42 45  1  0  0  0  0
 43 39  1  6  0  0  0
 43 41  1  0  0  0  0
 45 44  1  0  0  0  0
 46 38  1  1  0  0  0
 46 47  1  0  0  0  0
 46 43  1  0  0  0  0
 47 48  1  1  0  0  0
 47 40  1  0  0  0  0
 48 49  1  0  0  0  0
 49 50  1  0  0  0  0
 52 51  1  0  0  0  0
 53 52  1  0  0  0  0
 53 54  1  0  0  0  0
 54 55  1  0  0  0  0
 55 56  1  0  0  0  0
 57 55  2  0  0  0  0
M  END
>  <MODEL>
1

>  <REMARK>
 VINA RESULT:      -7.8      0.000      0.000
  Name = 
  13 active torsions:
  status: ('A' for Active; 'I' for Inactive)
    1  A    between atoms: N_2  and  C_27
    2  A    between atoms: N_5  and  C_22
    3  A    between atoms: N_5  and  N_48
    4  A    between atoms: C_9  and  C_26
    5  A    between atoms: C_14  and  C_27
    6  A    between atoms: C_14  and  C_50
    7  A    between atoms: C_22  and  C_54
    8  A    between atoms: C_23  and  C_46
    9  A    between atoms: C_26  and  C_52
   10  A    between atoms: C_30  and  N_53
   11  A    between atoms: C_43  and  C_50
   12  A    between atoms: C_44  and  C_47
   13  A    between atoms: C_44  and  N_48
                            x       y       z     vdW  Elec       q    Type
                         _______ _______ _______ _____ _____    ______ ____

>  <TORSDO>
F 13

$$$$
=
 OpenBabel10222417333D

 57 63  0  0  1  0  0  0  0  0999 V2000
  184.9700  178.4140  140.7740 C   0  0  0  0  0  0  0  0  0  0  0  0
  179.6830  177.3190  142.8930 N   0  0  0  0  0  2  0  0  0  0  0  0
  180.3820  179.0350  144.3140 C   0  0  0  0  0  2  0  0  0  0  0  0
  183.5010  178.7210  143.8200 C   0  0  0  0  0  2  0  0  0  0  0  0
  181.0950  179.2020  143.0090 C   0  0  1  0  0  3  0  0  0  0  0  0
  183.0210  178.1570  139.4280 C   0  0  0  0  0  0  0  0  0  0  0  0
  182.5390  179.7060  143.1510 C   0  0  0  0  0  2  0  0  0  0  0  0
  180.0550  178.1930  138.6700 C   0  0  0  0  0  3  0  0  0  0  0  0
  184.9430  179.0000  143.3780 C   0  0  2  0  0  3  0  0  0  0  0  0
  182.4100  177.6010  140.4330 N   0  0  0  0  0  0  0  0  0  0  0  0
  181.0880  177.8340  140.9260 C   0  0  0  0  0  0  0  0  0  0  0  0
  185.0690  178.6920  141.9420 C   0  0  0  0  0  0  0  0  0  0  0  0
  179.4140  177.9520  144.1280 N   0  0  0  0  0  2  0  0  0  0  0  0
  184.5300  178.0410  139.4190 C   0  0  1  0  0  3  0  0  0  0  0  0
  182.3220  179.1720  138.5750 C   0  0  0  0  0  2  0  0  0  0  0  0
  181.0980  178.5990  137.9430 C   0  0  0  0  0  0  0  0  0  0  0  0
  180.9610  177.8300  142.4210 C   0  0  2  0  0  3  0  0  0  0  0  0
  180.0330  178.0900  140.1400 C   0  0  0  0  0  3  0  0  0  0  0  0
  186.6410  177.5810  146.5840 C   0  0  2  0  0  3  0  0  0  0  0  0
  186.7150  177.1800  143.6300 C   0  0  0  0  0  2  0  0  0  0  0  0
  188.7470  178.4350  145.4770 N   0  0  0  0  0  2  0  0  0  0  0  0
  188.1180  177.6010  146.5070 C   0  0  1  0  0  0  0  0  0  0  0  0
  188.0700  177.7440  143.2170 C   0  0  0  0  0  2  0  0  0  0  0  0
  185.9250  178.5030  145.6280 C   0  0  0  0  0  0  0  0  0  0  0  0
  185.2650  179.4730  146.0990 O   0  0  0  0  0  0  0  0  0  0  0  0
  190.4570  178.0100  143.8080 C   0  0  0  0  0  1  0  0  0  0  0  0
  187.4680  178.5900  147.9100 S   0  0  0  0  0  0  0  0  0  0  0  0
  185.8890  178.2420  144.2110 N   0  0  0  0  0  0  0  0  0  0  0  0
  189.0950  177.5990  144.3300 C   0  0  1  0  0  3  0  0  0  0  0  0
  190.0900  176.4160  147.3370 C   0  0  0  0  0  0  0  0  0  0  0  0
  191.8810  177.6800  148.1330 O   0  0  0  0  0  1  0  0  0  0  0  0
  192.1690  175.2440  147.7100 C   0  0  0  0  0  1  0  0  0  0  0  0
  191.3350  176.4730  147.7200 C   0  0  0  0  0  0  0  0  0  0  0  0
  188.8430  176.3660  146.9560 C   0  0  0  0  0  3  0  0  0  0  0  0
  180.9800  178.6430  136.4550 C   0  0  0  0  0  2  0  0  0  0  0  0
  181.9170  177.7140  135.8390 N   0  0  0  0  0  2  0  0  0  0  0  0
  181.2470  176.4870  135.7060 N   0  0  0  0  0  2  0  0  0  0  0  0
  182.2110  175.5320  135.1750 C   0  0  0  0  0  2  0  0  0  0  0  0
  180.1680  173.1180  135.2070 C   0  0  0  0  0  2  0  0  0  0  0  0
  183.7150  172.0680  136.8500 S   0  0  0  0  0  0  0  0  0  0  0  0
  181.9640  171.9340  136.4080 C   0  0  1  0  0  3  0  0  0  0  0  0
  179.6980  171.7930  134.5970 C   0  0  0  0  0  2  0  0  0  0  0  0
  181.6750  173.0390  135.4260 C   0  0  2  0  0  3  0  0  0  0  0  0
  181.5930  170.5970  135.7850 C   0  0  0  0  0  2  0  0  0  0  0  0
  180.0890  170.6000  135.4850 C   0  0  0  0  0  2  0  0  0  0  0  0
  182.2880  174.2730  136.0490 C   0  0  1  0  0  3  0  0  0  0  0  0
  183.6910  173.8810  136.5530 C   0  0  2  0  0  3  0  0  0  0  0  0
  184.8110  174.2430  135.5780 C   0  0  0  0  0  2  0  0  0  0  0  0
  186.1070  174.5380  136.3130 C   0  0  0  0  0  2  0  0  0  0  0  0
  186.9540  175.3020  135.5080 O   0  0  0  0  0  1  0  0  0  0  0  0
  185.2000  178.9280  138.3750 C   0  0  0  0  0  2  0  0  0  0  0  0
  185.9730  178.0810  137.3770 C   0  0  0  0  0  2  0  0  0  0  0  0
  187.3800  178.6190  137.2040 C   0  0  0  0  0  2  0  0  0  0  0  0
  188.3450  177.6770  137.7500 N   0  0  0  0  0  2  0  0  0  0  0  0
  188.7820  177.7490  139.1100 C   0  0  0  0  0  0  0  0  0  0  0  0
  189.6970  176.8200  139.5860 O   0  0  0  0  0  0  0  0  0  0  0  0
  188.3430  178.6460  139.8830 O   0  0  0  0  0  1  0  0  0  0  0  0
  1 12  3  0  0  0  0
  2 13  1  0  0  0  0
  5  7  1  1  0  0  0
  5  3  1  0  0  0  0
  6 10  2  0  0  0  0
  7  4  1  0  0  0  0
  8 18  1  0  0  0  0
  9 12  1  6  0  0  0
  9  4  1  0  0  0  0
  9 28  1  0  0  0  0
 10 11  1  0  0  0  0
 13  3  1  0  0  0  0
 14 51  1  6  0  0  0
 14  6  1  0  0  0  0
 14  1  1  0  0  0  0
 15  6  1  0  0  0  0
 16 15  1  0  0  0  0
 16  8  2  0  0  0  0
 17 11  1  6  0  0  0
 17  2  1  0  0  0  0
 17  5  1  0  0  0  0
 18 11  2  0  0  0  0
 19 24  1  6  0  0  0
 19 27  1  0  0  0  0
 20 28  1  0  0  0  0
 21 22  1  0  0  0  0
 22 19  1  0  0  0  0
 22 34  1  1  0  0  0
 22 27  1  0  0  0  0
 23 20  1  0  0  0  0
 23 29  1  0  0  0  0
 24 25  2  0  0  0  0
 28 24  1  0  0  0  0
 29 26  1  6  0  0  0
 29 21  1  0  0  0  0
 30 33  2  0  0  0  0
 32 33  1  0  0  0  0
 33 31  1  0  0  0  0
 34 30  2  0  0  0  0
 35 16  1  0  0  0  0
 36 35  1  0  0  0  0
 37 36  1  0  0  0  0
 38 37  1  0  0  0  0
 41 44  1  6  0  0  0
 41 40  1  0  0  0  0
 42 39  1  0  0  0  0
 42 45  1  0  0  0  0
 43 39  1  1  0  0  0
 43 46  1  0  0  0  0
 43 41  1  0  0  0  0
 45 44  1  0  0  0  0
 46 38  1  6  0  0  0
 46 47  1  0  0  0  0
 47 48  1  6  0  0  0
 47 40  1  0  0  0  0
 48 49  1  0  0  0  0
 50 49  1  0  0  0  0
 52 51  1  0  0  0  0
 53 52  1  0  0  0  0
 53 54  1  0  0  0  0
 54 55  1  0  0  0  0
 55 56  2  0  0  0  0
 55 57  1  0  0  0  0
M  END
>  <MODEL>
2

>  <REMARK>
 VINA RESULT:      -7.1      1.230      2.196
  Name = 
  13 active torsions:
  status: ('A' for Active; 'I' for Inactive)
    1  A    between atoms: N_2  and  C_27
    2  A    between atoms: N_5  and  C_22
    3  A    between atoms: N_5  and  N_48
    4  A    between atoms: C_9  and  C_26
    5  A    between atoms: C_14  and  C_27
    6  A    between atoms: C_14  and  C_50
    7  A    between atoms: C_22  and  C_54
    8  A    between atoms: C_23  and  C_46
    9  A    between atoms: C_26  and  C_52
   10  A    between atoms: C_30  and  N_53
   11  A    between atoms: C_43  and  C_50
   12  A    between atoms: C_44  and  C_47
   13  A    between atoms: C_44  and  N_48
                            x       y       z     vdW  Elec       q    Type
                         _______ _______ _______ _____ _____    ______ ____

>  <TORSDO>
F 13

$$$$
=
 OpenBabel10222417333D

 57 63  0  0  1  0  0  0  0  0999 V2000
  187.4500  177.1890  138.5220 C   0  0  0  0  0  0  0  0  0  0  0  0
  192.0550  174.3230  136.4690 N   0  0  0  0  0  2  0  0  0  0  0  0
  191.4410  175.5730  134.5950 C   0  0  0  0  0  2  0  0  0  0  0  0
  188.4360  176.1310  135.4500 C   0  0  0  0  0  2  0  0  0  0  0  0
  190.9880  176.3190  135.8110 C   0  0  1  0  0  3  0  0  0  0  0  0
  189.5180  176.9800  139.6870 C   0  0  0  0  0  0  0  0  0  0  0  0
  189.6490  177.0470  135.6290 C   0  0  0  0  0  2  0  0  0  0  0  0
  192.5280  176.6190  140.1070 C   0  0  0  0  0  3  0  0  0  0  0  0
  187.1540  176.8490  135.8920 C   0  0  2  0  0  3  0  0  0  0  0  0
  189.8530  176.0010  138.8990 N   0  0  0  0  0  0  0  0  0  0  0  0
  191.0980  175.7600  138.2360 C   0  0  0  0  0  0  0  0  0  0  0  0
  187.2120  177.0750  137.3470 C   0  0  0  0  0  0  0  0  0  0  0  0
  192.2250  174.4320  135.0700 N   0  0  0  0  0  2  0  0  0  0  0  0
  188.0330  177.2050  139.8750 C   0  0  1  0  0  3  0  0  0  0  0  0
  190.5100  178.0430  140.0500 C   0  0  0  0  0  2  0  0  0  0  0  0
  191.7030  177.4630  140.7310 C   0  0  0  0  0  0  0  0  0  0  0  0
  190.9780  175.2290  136.8390 C   0  0  2  0  0  3  0  0  0  0  0  0
  192.2940  176.0280  138.7790 C   0  0  0  0  0  3  0  0  0  0  0  0
  183.4840  176.1240  134.8050 C   0  0  2  0  0  3  0  0  0  0  0  0
  186.1020  174.7080  134.9850 C   0  0  0  0  0  2  0  0  0  0  0  0
  183.6010  174.4000  136.6490 N   0  0  0  0  0  2  0  0  0  0  0  0
  182.9170  174.9280  135.4640 C   0  0  1  0  0  0  0  0  0  0  0  0
  185.9080  173.7240  136.1330 C   0  0  0  0  0  2  0  0  0  0  0  0
  184.6860  176.7360  135.4830 C   0  0  0  0  0  0  0  0  0  0  0  0
  184.5780  177.8920  135.9840 O   0  0  0  0  0  0  0  0  0  0  0  0
  184.3540  172.1810  137.2840 C   0  0  0  0  0  1  0  0  0  0  0  0
  181.9660  176.4550  135.8260 S   0  0  0  0  0  0  0  0  0  0  0  0
  185.9700  176.0820  135.4780 N   0  0  0  0  0  0  0  0  0  0  0  0
  184.4580  173.2840  136.2500 C   0  0  1  0  0  3  0  0  0  0  0  0
  181.1410  173.2950  135.0650 C   0  0  0  0  0  0  0  0  0  0  0  0
  179.4530  173.0900  136.6620 O   0  0  0  0  0  1  0  0  0  0  0  0
  179.6810  171.3800  134.8660 C   0  0  0  0  0  1  0  0  0  0  0  0
  180.1220  172.6310  135.5350 C   0  0  0  0  0  0  0  0  0  0  0  0
  182.1580  173.9650  134.5980 C   0  0  0  0  0  3  0  0  0  0  0  0
  192.0670  177.9760  142.0850 C   0  0  0  0  0  2  0  0  0  0  0  0
  191.4650  177.1510  143.1240 N   0  0  0  0  0  2  0  0  0  0  0  0
  190.7630  178.0160  143.9770 N   0  0  0  0  0  2  0  0  0  0  0  0
  189.6120  177.2770  144.4780 C   0  0  0  0  0  2  0  0  0  0  0  0
  186.6440  178.3470  144.7060 C   0  0  0  0  0  2  0  0  0  0  0  0
  188.3420  177.9250  148.3560 S   0  0  0  0  0  0  0  0  0  0  0  0
  187.1260  178.4480  147.1200 C   0  0  1  0  0  3  0  0  0  0  0  0
  185.1690  178.0620  145.0090 C   0  0  0  0  0  2  0  0  0  0  0  0
  187.4890  177.7590  145.8300 C   0  0  2  0  0  3  0  0  0  0  0  0
  185.6930  178.1000  147.4900 C   0  0  0  0  0  2  0  0  0  0  0  0
  184.7650  178.6170  146.3840 C   0  0  0  0  0  2  0  0  0  0  0  0
  188.9770  177.9820  145.6850 C   0  0  1  0  0  3  0  0  0  0  0  0
  189.6190  177.6890  147.0560 C   0  0  2  0  0  3  0  0  0  0  0  0
  190.1940  176.2780  147.1710 C   0  0  0  0  0  2  0  0  0  0  0  0
  191.6840  176.3130  147.4680 C   0  0  0  0  0  2  0  0  0  0  0  0
  192.3740  175.5010  146.5660 O   0  0  0  0  0  1  0  0  0  0  0  0
  187.7040  178.5140  140.5850 C   0  0  0  0  0  2  0  0  0  0  0  0
  186.7680  178.2610  141.7550 C   0  0  0  0  0  2  0  0  0  0  0  0
  185.3220  178.3180  141.2980 C   0  0  0  0  0  2  0  0  0  0  0  0
  185.0950  179.5200  140.5100 N   0  0  0  0  0  2  0  0  0  0  0  0
  184.1340  179.5570  139.4520 C   0  0  0  0  0  0  0  0  0  0  0  0
  183.9480  180.7320  138.7370 O   0  0  0  0  0  0  0  0  0  0  0  0
  183.4500  178.5360  139.1640 O   0  0  0  0  0  1  0  0  0  0  0  0
  1 14  1  0  0  0  0
  3 13  1  0  0  0  0
  4  7  1  0  0  0  0
  5  3  1  6  0  0  0
  5 17  1  0  0  0  0
  6 14  1  0  0  0  0
  6 15  1  0  0  0  0
  7  5  1  0  0  0  0
  8 16  2  0  0  0  0
  9  4  1  1  0  0  0
  9 12  1  0  0  0  0
 10  6  2  0  0  0  0
 11 18  2  0  0  0  0
 11 10  1  0  0  0  0
 12  1  3  0  0  0  0
 13  2  1  0  0  0  0
 14 51  1  6  0  0  0
 15 16  1  0  0  0  0
 16 35  1  0  0  0  0
 17  2  1  6  0  0  0
 17 11  1  0  0  0  0
 18  8  1  0  0  0  0
 19 22  1  0  0  0  0
 19 24  1  1  0  0  0
 19 27  1  0  0  0  0
 20 28  1  0  0  0  0
 20 23  1  0  0  0  0
 22 34  1  6  0  0  0
 22 27  1  0  0  0  0
 22 21  1  0  0  0  0
 23 29  1  0  0  0  0
 24 25  2  0  0  0  0
 28 24  1  0  0  0  0
 28  9  1  0  0  0  0
 29 21  1  0  0  0  0
 29 26  1  1  0  0  0
 30 33  2  0  0  0  0
 32 33  1  0  0  0  0
 33 31  1  0  0  0  0
 34 30  2  0  0  0  0
 35 36  1  0  0  0  0
 36 37  1  0  0  0  0
 37 38  1  0  0  0  0
 39 42  1  0  0  0  0
 41 44  1  1  0  0  0
 41 40  1  0  0  0  0
 42 45  1  0  0  0  0
 43 39  1  6  0  0  0
 43 41  1  0  0  0  0
 45 44  1  0  0  0  0
 46 38  1  6  0  0  0
 46 43  1  0  0  0  0
 46 47  1  0  0  0  0
 47 48  1  6  0  0  0
 47 40  1  0  0  0  0
 48 49  1  0  0  0  0
 50 49  1  0  0  0  0
 51 52  1  0  0  0  0
 53 52  1  0  0  0  0
 54 53  1  0  0  0  0
 55 54  1  0  0  0  0
 56 55  2  0  0  0  0
 57 55  1  0  0  0  0
M  END
>  <MODEL>
3

>  <REMARK>
 VINA RESULT:      -6.9      3.085     11.397
  Name = 
  13 active torsions:
  status: ('A' for Active; 'I' for Inactive)
    1  A    between atoms: N_2  and  C_27
    2  A    between atoms: N_5  and  C_22
    3  A    between atoms: N_5  and  N_48
    4  A    between atoms: C_9  and  C_26
    5  A    between atoms: C_14  and  C_27
    6  A    between atoms: C_14  and  C_50
    7  A    between atoms: C_22  and  C_54
    8  A    between atoms: C_23  and  C_46
    9  A    between atoms: C_26  and  C_52
   10  A    between atoms: C_30  and  N_53
   11  A    between atoms: C_43  and  C_50
   12  A    between atoms: C_44  and  C_47
   13  A    between atoms: C_44  and  N_48
                            x       y       z     vdW  Elec       q    Type
                         _______ _______ _______ _____ _____    ______ ____

>  <TORSDO>
F 13

$$$$
=
 OpenBabel10222417333D

 57 63  0  0  1  0  0  0  0  0999 V2000
  186.9230  178.1420  140.2020 C   0  0  0  0  0  0  0  0  0  0  0  0
  188.8300  176.5720  145.4510 N   0  0  0  0  0  2  0  0  0  0  0  0
  190.6750  177.7560  144.6460 C   0  0  0  0  0  2  0  0  0  0  0  0
  189.9780  177.5370  141.5580 C   0  0  0  0  0  2  0  0  0  0  0  0
  189.4540  178.2970  143.9720 C   0  0  1  0  0  3  0  0  0  0  0  0
  185.6470  178.3540  142.2030 C   0  0  0  0  0  0  0  0  0  0  0  0
  189.6810  178.7000  142.5070 C   0  0  0  0  0  2  0  0  0  0  0  0
  185.0620  178.6870  145.1900 C   0  0  0  0  0  3  0  0  0  0  0  0
  189.5800  177.9040  140.1220 C   0  0  2  0  0  3  0  0  0  0  0  0
  186.4590  177.5310  142.7990 N   0  0  0  0  0  0  0  0  0  0  0  0
  187.0560  177.6320  144.0960 C   0  0  0  0  0  0  0  0  0  0  0  0
  188.1150  178.0470  140.0550 C   0  0  0  0  0  0  0  0  0  0  0  0
  190.2090  176.8040  145.6560 N   0  0  0  0  0  2  0  0  0  0  0  0
  185.5390  178.2110  140.7000 C   0  0  1  0  0  3  0  0  0  0  0  0
  185.1730  179.5960  142.8950 C   0  0  0  0  0  2  0  0  0  0  0  0
  184.4490  179.2720  144.1580 C   0  0  0  0  0  0  0  0  0  0  0  0
  188.4820  177.1740  144.1720 C   0  0  2  0  0  3  0  0  0  0  0  0
  186.4300  178.1400  145.1660 C   0  0  0  0  0  3  0  0  0  0  0  0
  192.1390  175.5760  138.3320 C   0  0  2  0  0  3  0  0  0  0  0  0
  189.1920  176.0200  138.4450 C   0  0  0  0  0  2  0  0  0  0  0  0
  191.1720  176.6240  136.2460 N   0  0  0  0  0  2  0  0  0  0  0  0
  191.9690  175.5590  136.8630 C   0  0  1  0  0  0  0  0  0  0  0  0
  188.8610  176.6240  137.0850 C   0  0  0  0  0  2  0  0  0  0  0  0
  191.5290  176.7560  139.0470 C   0  0  0  0  0  0  0  0  0  0  0  0
  192.2970  177.5800  139.6240 O   0  0  0  0  0  0  0  0  0  0  0  0
  189.3360  176.6210  134.6580 C   0  0  0  0  0  1  0  0  0  0  0  0
  193.6340  176.1370  137.3780 S   0  0  0  0  0  0  0  0  0  0  0  0
  190.1020  176.9070  139.1770 N   0  0  0  0  0  0  0  0  0  0  0  0
  189.8150  176.1320  136.0100 C   0  0  1  0  0  3  0  0  0  0  0  0
  192.9970  173.3950  136.3770 C   0  0  0  0  0  0  0  0  0  0  0  0
  194.7870  172.7020  137.7030 O   0  0  0  0  0  1  0  0  0  0  0  0
  194.2660  171.4950  135.5890 C   0  0  0  0  0  1  0  0  0  0  0  0
  193.9890  172.5710  136.5750 C   0  0  0  0  0  0  0  0  0  0  0  0
  192.0060  174.2200  136.1850 C   0  0  0  0  0  3  0  0  0  0  0  0
  183.0520  179.7720  144.3240 C   0  0  0  0  0  2  0  0  0  0  0  0
  182.0940  178.7610  143.9030 N   0  0  0  0  0  2  0  0  0  0  0  0
  181.1860  179.3930  143.0380 N   0  0  0  0  0  2  0  0  0  0  0  0
  181.5210  178.9670  141.6850 C   0  0  0  0  0  2  0  0  0  0  0  0
  180.2800  181.2030  139.8250 C   0  0  0  0  0  2  0  0  0  0  0  0
  178.9330  177.5250  138.8060 S   0  0  0  0  0  0  0  0  0  0  0  0
  179.0170  179.3340  138.8350 C   0  0  1  0  0  3  0  0  0  0  0  0
  180.2730  181.9270  138.4740 C   0  0  0  0  0  2  0  0  0  0  0  0
  180.2820  179.7010  139.5660 C   0  0  2  0  0  3  0  0  0  0  0  0
  179.0340  179.9650  137.4520 C   0  0  0  0  0  2  0  0  0  0  0  0
  179.0780  181.4890  137.6120 C   0  0  0  0  0  2  0  0  0  0  0  0
  180.2650  178.8450  140.8120 C   0  0  1  0  0  3  0  0  0  0  0  0
  179.8750  177.4170  140.3800 C   0  0  2  0  0  3  0  0  0  0  0  0
  181.0740  176.4910  140.1830 C   0  0  0  0  0  2  0  0  0  0  0  0
  180.6300  175.0580  139.9460 C   0  0  0  0  0  2  0  0  0  0  0  0
  179.5340  174.7530  140.7540 O   0  0  0  0  0  1  0  0  0  0  0  0
  184.7870  179.3590  140.0350 C   0  0  0  0  0  2  0  0  0  0  0  0
  183.7820  178.8230  139.0290 C   0  0  0  0  0  2  0  0  0  0  0  0
  184.4680  177.9020  138.0360 C   0  0  0  0  0  2  0  0  0  0  0  0
  183.8920  176.5680  138.1140 N   0  0  0  0  0  2  0  0  0  0  0  0
  184.4820  175.4520  137.4420 C   0  0  0  0  0  0  0  0  0  0  0  0
  183.8990  174.1980  137.5560 O   0  0  0  0  0  1  0  0  0  0  0  0
  185.5280  175.5940  136.7500 O   0  0  0  0  0  0  0  0  0  0  0  0
  1 14  1  0  0  0  0
  2 13  1  0  0  0  0
  3 13  1  0  0  0  0
  4  7  1  0  0  0  0
  5  7  1  6  0  0  0
  5 17  1  0  0  0  0
  5  3  1  0  0  0  0
  6 10  2  0  0  0  0
  6 15  1  0  0  0  0
  9 28  1  6  0  0  0
  9  4  1  0  0  0  0
 10 11  1  0  0  0  0
 11 18  2  0  0  0  0
 12  9  1  0  0  0  0
 12  1  3  0  0  0  0
 14 51  1  6  0  0  0
 14  6  1  0  0  0  0
 15 16  1  0  0  0  0
 16 35  1  0  0  0  0
 16  8  2  0  0  0  0
 17 11  1  1  0  0  0
 17  2  1  0  0  0  0
 18  8  1  0  0  0  0
 19 27  1  6  0  0  0
 19 24  1  0  0  0  0
 20 28  1  0  0  0  0
 21 22  1  0  0  0  0
 22 34  1  6  0  0  0
 22 27  1  0  0  0  0
 22 19  1  0  0  0  0
 23 20  1  0  0  0  0
 24 28  1  0  0  0  0
 24 25  2  0  0  0  0
 29 26  1  6  0  0  0
 29 21  1  0  0  0  0
 29 23  1  0  0  0  0
 30 33  2  0  0  0  0
 32 33  1  0  0  0  0
 33 31  1  0  0  0  0
 34 30  2  0  0  0  0
 36 35  1  0  0  0  0
 37 36  1  0  0  0  0
 38 37  1  0  0  0  0
 40 41  1  0  0  0  0
 40 47  1  0  0  0  0
 41 44  1  6  0  0  0
 41 43  1  0  0  0  0
 42 39  1  0  0  0  0
 43 39  1  1  0  0  0
 43 46  1  0  0  0  0
 44 45  1  0  0  0  0
 45 42  1  0  0  0  0
 46 38  1  6  0  0  0
 47 48  1  6  0  0  0
 47 46  1  0  0  0  0
 49 48  1  0  0  0  0
 49 50  1  0  0  0  0
 52 51  1  0  0  0  0
 53 54  1  0  0  0  0
 53 52  1  0  0  0  0
 55 56  1  0  0  0  0
 55 54  1  0  0  0  0
 57 55  2  0  0  0  0
M  END
>  <MODEL>
4

>  <REMARK>
 VINA RESULT:      -6.8      3.617      7.893
  Name = 
  13 active torsions:
  status: ('A' for Active; 'I' for Inactive)
    1  A    between atoms: N_2  and  C_27
    2  A    between atoms: N_5  and  C_22
    3  A    between atoms: N_5  and  N_48
    4  A    between atoms: C_9  and  C_26
    5  A    between atoms: C_14  and  C_27
    6  A    between atoms: C_14  and  C_50
    7  A    between atoms: C_22  and  C_54
    8  A    between atoms: C_23  and  C_46
    9  A    between atoms: C_26  and  C_52
   10  A    between atoms: C_30  and  N_53
   11  A    between atoms: C_43  and  C_50
   12  A    between atoms: C_44  and  C_47
   13  A    between atoms: C_44  and  N_48
                            x       y       z     vdW  Elec       q    Type
                         _______ _______ _______ _____ _____    ______ ____

>  <TORSDO>
F 13

$$$$
=
 OpenBabel10222417333D

 57 63  0  0  1  0  0  0  0  0999 V2000
  189.9870  176.8020  139.6340 C   0  0  0  0  0  0  0  0  0  0  0  0
  186.0000  177.9320  135.5760 N   0  0  0  0  0  2  0  0  0  0  0  0
  186.2820  175.6320  135.2900 C   0  0  0  0  0  2  0  0  0  0  0  0
  189.1360  175.4040  136.6590 C   0  0  0  0  0  2  0  0  0  0  0  0
  186.6130  175.9600  136.7120 C   0  0  1  0  0  3  0  0  0  0  0  0
  188.0450  178.1320  140.0070 C   0  0  0  0  0  0  0  0  0  0  0  0
  187.7680  175.1280  137.2880 C   0  0  0  0  0  2  0  0  0  0  0  0
  185.1870  179.1680  139.6440 C   0  0  0  0  0  3  0  0  0  0  0  0
  190.2580  175.0460  137.6430 C   0  0  2  0  0  3  0  0  0  0  0  0
  187.8910  178.2530  138.7210 N   0  0  0  0  0  0  0  0  0  0  0  0
  186.7000  178.1270  137.9380 C   0  0  0  0  0  0  0  0  0  0  0  0
  190.2030  175.9760  138.7860 C   0  0  0  0  0  0  0  0  0  0  0  0
  185.7640  176.8600  134.6850 N   0  0  0  0  0  2  0  0  0  0  0  0
  189.4580  177.8800  140.4880 C   0  0  1  0  0  3  0  0  0  0  0  0
  186.8690  177.8590  140.8950 C   0  0  0  0  0  2  0  0  0  0  0  0
  185.8430  178.9370  140.7840 C   0  0  0  0  0  0  0  0  0  0  0  0
  186.8800  177.4320  136.6210 C   0  0  2  0  0  3  0  0  0  0  0  0
  185.4940  178.5440  138.3460 C   0  0  0  0  0  3  0  0  0  0  0  0
  192.9710  174.2230  134.9720 C   0  0  2  0  0  3  0  0  0  0  0  0
  192.5640  176.0750  137.2740 C   0  0  0  0  0  2  0  0  0  0  0  0
  194.3670  173.6680  137.0030 N   0  0  0  0  0  2  0  0  0  0  0  0
  194.2980  173.9520  135.5660 C   0  0  1  0  0  0  0  0  0  0  0  0
  193.5200  175.5500  138.3390 C   0  0  0  0  0  2  0  0  0  0  0  0
  191.7960  174.0960  135.9100 C   0  0  0  0  0  0  0  0  0  0  0  0
  190.9520  173.1770  135.7050 O   0  0  0  0  0  0  0  0  0  0  0  0
  195.7310  174.5460  138.8090 C   0  0  0  0  0  1  0  0  0  0  0  0
  193.6490  172.5320  134.6010 S   0  0  0  0  0  0  0  0  0  0  0  0
  191.5590  175.0550  136.9590 N   0  0  0  0  0  0  0  0  0  0  0  0
  194.7390  174.8880  137.7170 C   0  0  1  0  0  3  0  0  0  0  0  0
  196.7010  174.2780  135.2570 C   0  0  0  0  0  0  0  0  0  0  0  0
  198.1560  172.7310  136.2230 O   0  0  0  0  0  1  0  0  0  0  0  0
  199.0410  174.8780  135.3230 C   0  0  0  0  0  1  0  0  0  0  0  0
  197.9150  173.9480  135.5990 C   0  0  0  0  0  0  0  0  0  0  0  0
  195.4840  174.6010  134.9160 C   0  0  0  0  0  3  0  0  0  0  0  0
  185.4280  179.6520  142.0260 C   0  0  0  0  0  2  0  0  0  0  0  0
  184.6950  178.7590  142.9110 N   0  0  0  0  0  2  0  0  0  0  0  0
  183.3290  179.0240  142.7220 N   0  0  0  0  0  2  0  0  0  0  0  0
  182.7600  177.8610  142.0540 C   0  0  0  0  0  2  0  0  0  0  0  0
  182.3020  176.7990  139.1100 C   0  0  0  0  0  2  0  0  0  0  0  0
  178.9370  178.4740  140.6120 S   0  0  0  0  0  0  0  0  0  0  0  0
  180.0550  177.7740  139.3710 C   0  0  1  0  0  3  0  0  0  0  0  0
  181.7310  175.7220  138.1810 C   0  0  0  0  0  2  0  0  0  0  0  0
  181.2250  177.1870  140.1170 C   0  0  2  0  0  3  0  0  0  0  0  0
  179.4120  176.6940  138.5130 C   0  0  0  0  0  2  0  0  0  0  0  0
  180.4460  176.2050  137.4910 C   0  0  0  0  0  2  0  0  0  0  0  0
  181.6320  178.2660  141.0940 C   0  0  1  0  0  3  0  0  0  0  0  0
  180.3430  178.7990  141.7490 C   0  0  2  0  0  3  0  0  0  0  0  0
  180.0430  178.1680  143.1080 C   0  0  0  0  0  2  0  0  0  0  0  0
  179.3010  179.1360  144.0140 C   0  0  0  0  0  2  0  0  0  0  0  0
  179.1330  180.3640  143.3720 O   0  0  0  0  0  1  0  0  0  0  0  0
  189.5360  177.4860  141.9590 C   0  0  0  0  0  2  0  0  0  0  0  0
  190.8870  177.8690  142.5390 C   0  0  0  0  0  2  0  0  0  0  0  0
  190.7380  178.3040  143.9850 C   0  0  0  0  0  2  0  0  0  0  0  0
  191.6750  177.5740  144.8250 N   0  0  0  0  0  2  0  0  0  0  0  0
  191.2650  176.9460  146.0420 C   0  0  0  0  0  0  0  0  0  0  0  0
  192.1970  176.2520  146.8020 O   0  0  0  0  0  1  0  0  0  0  0  0
  190.0660  177.0110  146.4310 O   0  0  0  0  0  0  0  0  0  0  0  0
  1 14  1  0  0  0  0
  4  7  1  0  0  0  0
  5  3  1  6  0  0  0
  5  7  1  0  0  0  0
  6 14  1  0  0  0  0
  6 15  1  0  0  0  0
  8 16  2  0  0  0  0
  9  4  1  6  0  0  0
  9 12  1  0  0  0  0
 10  6  2  0  0  0  0
 11 18  2  0  0  0  0
 11 10  1  0  0  0  0
 12  1  3  0  0  0  0
 13  3  1  0  0  0  0
 13  2  1  0  0  0  0
 14 51  1  1  0  0  0
 16 15  1  0  0  0  0
 16 35  1  0  0  0  0
 17  2  1  6  0  0  0
 17  5  1  0  0  0  0
 17 11  1  0  0  0  0
 18  8  1  0  0  0  0
 19 27  1  6  0  0  0
 19 22  1  0  0  0  0
 19 24  1  0  0  0  0
 20 23  1  0  0  0  0
 21 29  1  0  0  0  0
 22 34  1  6  0  0  0
 22 21  1  0  0  0  0
 24 28  1  0  0  0  0
 25 24  2  0  0  0  0
 27 22  1  0  0  0  0
 28 20  1  0  0  0  0
 28  9  1  0  0  0  0
 29 23  1  0  0  0  0
 29 26  1  1  0  0  0
 30 33  2  0  0  0  0
 32 33  1  0  0  0  0
 33 31  1  0  0  0  0
 34 30  2  0  0  0  0
 35 36  1  0  0  0  0
 37 36  1  0  0  0  0
 38 37  1  0  0  0  0
 40 47  1  0  0  0  0
 41 44  1  1  0  0  0
 41 43  1  0  0  0  0
 41 40  1  0  0  0  0
 42 39  1  0  0  0  0
 43 39  1  6  0  0  0
 43 46  1  0  0  0  0
 45 42  1  0  0  0  0
 45 44  1  0  0  0  0
 46 47  1  0  0  0  0
 46 38  1  1  0  0  0
 47 48  1  1  0  0  0
 48 49  1  0  0  0  0
 50 49  1  0  0  0  0
 51 52  1  0  0  0  0
 52 53  1  0  0  0  0
 53 54  1  0  0  0  0
 54 55  1  0  0  0  0
 55 57  2  0  0  0  0
 55 56  1  0  0  0  0
M  END
>  <MODEL>
5

>  <REMARK>
 VINA RESULT:      -6.2      4.861      9.050
  Name = 
  13 active torsions:
  status: ('A' for Active; 'I' for Inactive)
    1  A    between atoms: N_2  and  C_27
    2  A    between atoms: N_5  and  C_22
    3  A    between atoms: N_5  and  N_48
    4  A    between atoms: C_9  and  C_26
    5  A    between atoms: C_14  and  C_27
    6  A    between atoms: C_14  and  C_50
    7  A    between atoms: C_22  and  C_54
    8  A    between atoms: C_23  and  C_46
    9  A    between atoms: C_26  and  C_52
   10  A    between atoms: C_30  and  N_53
   11  A    between atoms: C_43  and  C_50
   12  A    between atoms: C_44  and  C_47
   13  A    between atoms: C_44  and  N_48
                            x       y       z     vdW  Elec       q    Type
                         _______ _______ _______ _____ _____    ______ ____

>  <TORSDO>
F 13

$$$$
=
 OpenBabel10222417333D

 57 63  0  0  1  0  0  0  0  0999 V2000
  186.0090  177.7310  139.2670 C   0  0  0  0  0  0  0  0  0  0  0  0
  190.1860  174.9050  136.4040 N   0  0  0  0  0  2  0  0  0  0  0  0
  189.2860  176.2130  134.6930 C   0  0  0  0  0  2  0  0  0  0  0  0
  186.4680  176.7600  136.0450 C   0  0  0  0  0  2  0  0  0  0  0  0
  189.0460  176.9240  135.9870 C   0  0  1  0  0  3  0  0  0  0  0  0
  188.2380  177.4770  140.0700 C   0  0  0  0  0  0  0  0  0  0  0  0
  187.7020  177.6650  136.0490 C   0  0  0  0  0  2  0  0  0  0  0  0
  191.2730  177.0890  139.9790 C   0  0  0  0  0  3  0  0  0  0  0  0
  185.2830  177.4710  136.7120 C   0  0  2  0  0  3  0  0  0  0  0  0
  188.4300  176.5200  139.2100 N   0  0  0  0  0  0  0  0  0  0  0  0
  189.5470  176.2940  138.3450 C   0  0  0  0  0  0  0  0  0  0  0  0
  185.5810  177.6530  138.1440 C   0  0  0  0  0  0  0  0  0  0  0  0
  190.1260  175.0550  134.9990 N   0  0  0  0  0  2  0  0  0  0  0  0
  186.8060  177.7040  140.5050 C   0  0  1  0  0  3  0  0  0  0  0  0
  189.2860  178.5240  140.2950 C   0  0  0  0  0  2  0  0  0  0  0  0
  190.5700  177.9180  140.7540 C   0  0  0  0  0  0  0  0  0  0  0  0
  189.1940  175.8040  136.9720 C   0  0  2  0  0  3  0  0  0  0  0  0
  190.8180  176.5390  138.6910 C   0  0  0  0  0  3  0  0  0  0  0  0
  182.0090  176.3170  134.9450 C   0  0  2  0  0  3  0  0  0  0  0  0
  183.7580  175.4870  137.2130 C   0  0  0  0  0  2  0  0  0  0  0  0
  180.9990  176.7120  137.2270 N   0  0  0  0  0  2  0  0  0  0  0  0
  180.8840  176.1280  135.8870 C   0  0  1  0  0  0  0  0  0  0  0  0
  182.9250  175.7990  138.4510 C   0  0  0  0  0  2  0  0  0  0  0  0
  183.1430  177.1780  135.4440 C   0  0  0  0  0  0  0  0  0  0  0  0
  183.3610  178.2860  134.8750 O   0  0  0  0  0  0  0  0  0  0  0  0
  180.6680  175.8260  139.4630 C   0  0  0  0  0  1  0  0  0  0  0  0
  180.5270  177.3870  134.6000 S   0  0  0  0  0  0  0  0  0  0  0  0
  184.0400  176.7220  136.4770 N   0  0  0  0  0  0  0  0  0  0  0  0
  181.4370  175.6800  138.1650 C   0  0  1  0  0  3  0  0  0  0  0  0
  180.5990  173.7000  135.8170 C   0  0  0  0  0  0  0  0  0  0  0  0
  182.3530  172.3620  136.5740 O   0  0  0  0  0  1  0  0  0  0  0  0
  180.4670  171.3420  135.3080 C   0  0  0  0  0  1  0  0  0  0  0  0
  181.1420  172.5190  135.9120 C   0  0  0  0  0  0  0  0  0  0  0  0
  180.0590  174.8850  135.7260 C   0  0  0  0  0  3  0  0  0  0  0  0
  191.1550  178.3880  142.0440 C   0  0  0  0  0  2  0  0  0  0  0  0
  190.2260  178.1600  143.1410 N   0  0  0  0  0  2  0  0  0  0  0  0
  189.8980  176.7950  143.1230 N   0  0  0  0  0  2  0  0  0  0  0  0
  189.9830  176.3200  144.4980 C   0  0  0  0  0  2  0  0  0  0  0  0
  187.1560  177.7330  144.6060 C   0  0  0  0  0  2  0  0  0  0  0  0
  189.1510  178.1630  148.1010 S   0  0  0  0  0  0  0  0  0  0  0  0
  187.8730  178.4510  146.8510 C   0  0  1  0  0  3  0  0  0  0  0  0
  185.6970  177.7090  145.0760 C   0  0  0  0  0  2  0  0  0  0  0  0
  188.0490  177.3930  145.7930 C   0  0  2  0  0  3  0  0  0  0  0  0
  186.4570  178.3810  147.4000 C   0  0  0  0  0  2  0  0  0  0  0  0
  185.4760  178.6680  146.2570 C   0  0  0  0  0  2  0  0  0  0  0  0
  189.5310  177.4000  145.4910 C   0  0  1  0  0  3  0  0  0  0  0  0
  190.2730  177.4330  146.8410 C   0  0  2  0  0  3  0  0  0  0  0  0
  190.7310  176.0560  147.3190 C   0  0  0  0  0  2  0  0  0  0  0  0
  192.2290  175.8790  147.1360 C   0  0  0  0  0  2  0  0  0  0  0  0
  192.8770  175.9560  148.3700 O   0  0  0  0  0  1  0  0  0  0  0  0
  186.6100  178.9920  141.2970 C   0  0  0  0  0  2  0  0  0  0  0  0
  185.1430  179.3860  141.3150 C   0  0  0  0  0  2  0  0  0  0  0  0
  184.3120  178.3000  141.9710 C   0  0  0  0  0  2  0  0  0  0  0  0
  182.8960  178.6110  141.8450 N   0  0  0  0  0  2  0  0  0  0  0  0
  182.0950  178.9540  142.9780 C   0  0  0  0  0  0  0  0  0  0  0  0
  180.7510  179.2530  142.8030 O   0  0  0  0  0  0  0  0  0  0  0  0
  182.5970  178.9920  144.1360 O   0  0  0  0  0  1  0  0  0  0  0  0
  1 14  1  0  0  0  0
  3 13  1  0  0  0  0
  4  7  1  0  0  0  0
  5  3  1  6  0  0  0
  5  7  1  0  0  0  0
  5 17  1  0  0  0  0
  6 15  1  0  0  0  0
  6 14  1  0  0  0  0
  8 16  2  0  0  0  0
  9  4  1  1  0  0  0
  9 12  1  0  0  0  0
 10  6  2  0  0  0  0
 11 18  2  0  0  0  0
 11 10  1  0  0  0  0
 12  1  3  0  0  0  0
 13  2  1  0  0  0  0
 14 51  1  6  0  0  0
 15 16  1  0  0  0  0
 16 35  1  0  0  0  0
 17  2  1  6  0  0  0
 17 11  1  0  0  0  0
 18  8  1  0  0  0  0
 19 27  1  6  0  0  0
 19 24  1  0  0  0  0
 19 22  1  0  0  0  0
 20 23  1  0  0  0  0
 21 29  1  0  0  0  0
 22 34  1  6  0  0  0
 22 21  1  0  0  0  0
 24 28  1  0  0  0  0
 25 24  2  0  0  0  0
 27 22  1  0  0  0  0
 28  9  1  0  0  0  0
 28 20  1  0  0  0  0
 29 23  1  0  0  0  0
 29 26  1  1  0  0  0
 30 33  2  0  0  0  0
 32 33  1  0  0  0  0
 33 31  1  0  0  0  0
 34 30  2  0  0  0  0
 35 36  1  0  0  0  0
 37 36  1  0  0  0  0
 37 38  1  0  0  0  0
 39 42  1  0  0  0  0
 41 44  1  1  0  0  0
 41 40  1  0  0  0  0
 42 45  1  0  0  0  0
 43 39  1  6  0  0  0
 43 41  1  0  0  0  0
 45 44  1  0  0  0  0
 46 38  1  1  0  0  0
 46 43  1  0  0  0  0
 46 47  1  0  0  0  0
 47 48  1  1  0  0  0
 47 40  1  0  0  0  0
 49 48  1  0  0  0  0
 49 50  1  0  0  0  0
 51 52  1  0  0  0  0
 52 53  1  0  0  0  0
 54 53  1  0  0  0  0
 54 55  1  0  0  0  0
 55 57  1  0  0  0  0
 56 55  2  0  0  0  0
M  END
>  <MODEL>
6

>  <REMARK>
 VINA RESULT:      -5.8      2.616     11.051
  Name = 
  13 active torsions:
  status: ('A' for Active; 'I' for Inactive)
    1  A    between atoms: N_2  and  C_27
    2  A    between atoms: N_5  and  C_22
    3  A    between atoms: N_5  and  N_48
    4  A    between atoms: C_9  and  C_26
    5  A    between atoms: C_14  and  C_27
    6  A    between atoms: C_14  and  C_50
    7  A    between atoms: C_22  and  C_54
    8  A    between atoms: C_23  and  C_46
    9  A    between atoms: C_26  and  C_52
   10  A    between atoms: C_30  and  N_53
   11  A    between atoms: C_43  and  C_50
   12  A    between atoms: C_44  and  C_47
   13  A    between atoms: C_44  and  N_48
                            x       y       z     vdW  Elec       q    Type
                         _______ _______ _______ _____ _____    ______ ____

>  <TORSDO>
F 13

$$$$
=
 OpenBabel10222417333D

 57 63  0  0  1  0  0  0  0  0999 V2000
  189.8230  176.8530  139.7510 C   0  0  0  0  0  0  0  0  0  0  0  0
  186.0380  178.2750  135.5920 N   0  0  0  0  0  2  0  0  0  0  0  0
  186.3920  176.0180  135.1140 C   0  0  0  0  0  2  0  0  0  0  0  0
  189.1710  175.7190  136.6170 C   0  0  0  0  0  2  0  0  0  0  0  0
  186.6360  176.2200  136.5760 C   0  0  1  0  0  3  0  0  0  0  0  0
  187.8320  178.1050  140.1320 C   0  0  0  0  0  0  0  0  0  0  0  0
  187.7780  175.3610  137.1390 C   0  0  0  0  0  2  0  0  0  0  0  0
  184.9740  179.1150  139.7030 C   0  0  0  0  0  3  0  0  0  0  0  0
  190.2460  175.2940  137.6260 C   0  0  2  0  0  3  0  0  0  0  0  0
  187.7460  178.3410  138.8560 N   0  0  0  0  0  0  0  0  0  0  0  0
  186.6030  178.2650  137.9980 C   0  0  0  0  0  0  0  0  0  0  0  0
  190.1060  176.1130  138.8440 C   0  0  0  0  0  0  0  0  0  0  0  0
  185.8780  177.2870  134.5950 N   0  0  0  0  0  2  0  0  0  0  0  0
  189.2220  177.8370  140.6670 C   0  0  1  0  0  3  0  0  0  0  0  0
  186.6160  177.7290  140.9230 C   0  0  0  0  0  2  0  0  0  0  0  0
  185.5710  178.7920  140.8520 C   0  0  0  0  0  0  0  0  0  0  0  0
  186.8720  177.6980  136.6360 C   0  0  2  0  0  3  0  0  0  0  0  0
  185.3660  178.6190  138.3730 C   0  0  0  0  0  3  0  0  0  0  0  0
  193.1260  174.7580  135.0590 C   0  0  2  0  0  3  0  0  0  0  0  0
  192.5370  176.4080  137.4730 C   0  0  0  0  0  2  0  0  0  0  0  0
  194.4240  174.0780  137.1180 N   0  0  0  0  0  2  0  0  0  0  0  0
  194.4260  174.4740  135.7060 C   0  0  1  0  0  0  0  0  0  0  0  0
  193.4480  175.8240  138.5460 C   0  0  0  0  0  2  0  0  0  0  0  0
  191.9050  174.5260  135.9150 C   0  0  0  0  0  0  0  0  0  0  0  0
  191.1020  173.6050  135.5900 O   0  0  0  0  0  0  0  0  0  0  0  0
  195.6590  174.8430  139.0630 C   0  0  0  0  0  1  0  0  0  0  0  0
  193.8750  173.1200  134.5960 S   0  0  0  0  0  0  0  0  0  0  0  0
  191.5820  175.3920  137.0210 N   0  0  0  0  0  0  0  0  0  0  0  0
  194.7180  175.2460  137.9450 C   0  0  1  0  0  3  0  0  0  0  0  0
  196.7610  174.5890  134.9920 C   0  0  0  0  0  0  0  0  0  0  0  0
  197.9140  172.5870  134.6680 O   0  0  0  0  0  1  0  0  0  0  0  0
  199.1600  174.7410  134.7420 C   0  0  0  0  0  1  0  0  0  0  0  0
  197.8930  173.9680  134.8050 C   0  0  0  0  0  0  0  0  0  0  0  0
  195.6260  175.2040  135.1780 C   0  0  0  0  0  3  0  0  0  0  0  0
  185.0710  179.3810  142.1290 C   0  0  0  0  0  2  0  0  0  0  0  0
  183.6870  178.9950  142.3640 N   0  0  0  0  0  2  0  0  0  0  0  0
  183.2050  178.4500  141.1630 N   0  0  0  0  0  2  0  0  0  0  0  0
  181.8720  177.9300  141.4380 C   0  0  0  0  0  2  0  0  0  0  0  0
  181.3450  180.5010  139.6740 C   0  0  0  0  0  2  0  0  0  0  0  0
  180.3450  177.1220  137.6860 S   0  0  0  0  0  0  0  0  0  0  0  0
  180.4450  178.8950  138.0390 C   0  0  1  0  0  3  0  0  0  0  0  0
  181.7930  181.4200  138.5320 C   0  0  0  0  0  2  0  0  0  0  0  0
  181.4070  179.0590  139.1860 C   0  0  2  0  0  3  0  0  0  0  0  0
  180.9230  179.7250  136.8580 C   0  0  0  0  0  2  0  0  0  0  0  0
  180.9370  181.2010  137.2740 C   0  0  0  0  0  2  0  0  0  0  0  0
  180.9690  178.0280  140.2010 C   0  0  1  0  0  3  0  0  0  0  0  0
  180.7180  176.7130  139.4370 C   0  0  2  0  0  3  0  0  0  0  0  0
  181.9000  175.7460  139.4840 C   0  0  0  0  0  2  0  0  0  0  0  0
  182.3200  175.3200  138.0870 C   0  0  0  0  0  2  0  0  0  0  0  0
  183.7100  175.2150  138.0130 O   0  0  0  0  0  1  0  0  0  0  0  0
  189.2290  177.3100  142.0990 C   0  0  0  0  0  2  0  0  0  0  0  0
  190.6240  177.4060  142.6920 C   0  0  0  0  0  2  0  0  0  0  0  0
  190.5890  178.1640  144.0060 C   0  0  0  0  0  2  0  0  0  0  0  0
  189.2250  178.2270  144.5090 N   0  0  0  0  0  2  0  0  0  0  0  0
  188.8200  177.5140  145.6800 C   0  0  0  0  0  0  0  0  0  0  0  0
  187.5090  177.6150  146.1250 O   0  0  0  0  0  0  0  0  0  0  0  0
  189.6410  176.7970  146.3170 O   0  0  0  0  0  1  0  0  0  0  0  0
  1 14  1  0  0  0  0
  4  7  1  0  0  0  0
  5  3  1  6  0  0  0
  5 17  1  0  0  0  0
  5  7  1  0  0  0  0
  6 14  1  0  0  0  0
  6 15  1  0  0  0  0
  8 16  2  0  0  0  0
  9  4  1  6  0  0  0
  9 12  1  0  0  0  0
 10  6  2  0  0  0  0
 11 18  2  0  0  0  0
 11 10  1  0  0  0  0
 12  1  3  0  0  0  0
 13  3  1  0  0  0  0
 13  2  1  0  0  0  0
 14 51  1  1  0  0  0
 16 15  1  0  0  0  0
 16 35  1  0  0  0  0
 17  2  1  6  0  0  0
 17 11  1  0  0  0  0
 18  8  1  0  0  0  0
 19 27  1  6  0  0  0
 19 22  1  0  0  0  0
 19 24  1  0  0  0  0
 20 23  1  0  0  0  0
 21 29  1  0  0  0  0
 22 34  1  6  0  0  0
 22 21  1  0  0  0  0
 24 28  1  0  0  0  0
 25 24  2  0  0  0  0
 27 22  1  0  0  0  0
 28 20  1  0  0  0  0
 28  9  1  0  0  0  0
 29 23  1  0  0  0  0
 29 26  1  1  0  0  0
 30 34  2  0  0  0  0
 31 33  1  0  0  0  0
 32 33  1  0  0  0  0
 33 30  2  0  0  0  0
 35 36  1  0  0  0  0
 37 38  1  0  0  0  0
 37 36  1  0  0  0  0
 40 41  1  0  0  0  0
 40 47  1  0  0  0  0
 41 44  1  6  0  0  0
 41 43  1  0  0  0  0
 42 39  1  0  0  0  0
 43 39  1  1  0  0  0
 43 46  1  0  0  0  0
 44 45  1  0  0  0  0
 45 42  1  0  0  0  0
 46 38  1  1  0  0  0
 47 48  1  6  0  0  0
 47 46  1  0  0  0  0
 49 48  1  0  0  0  0
 50 49  1  0  0  0  0
 51 52  1  0  0  0  0
 52 53  1  0  0  0  0
 53 54  1  0  0  0  0
 54 55  1  0  0  0  0
 55 56  2  0  0  0  0
 55 57  1  0  0  0  0
M  END
>  <MODEL>
7

>  <REMARK>
 VINA RESULT:      -5.4      4.744      8.925
  Name = 
  13 active torsions:
  status: ('A' for Active; 'I' for Inactive)
    1  A    between atoms: N_2  and  C_27
    2  A    between atoms: N_5  and  C_22
    3  A    between atoms: N_5  and  N_48
    4  A    between atoms: C_9  and  C_26
    5  A    between atoms: C_14  and  C_27
    6  A    between atoms: C_14  and  C_50
    7  A    between atoms: C_22  and  C_54
    8  A    between atoms: C_23  and  C_46
    9  A    between atoms: C_26  and  C_52
   10  A    between atoms: C_30  and  N_53
   11  A    between atoms: C_43  and  C_50
   12  A    between atoms: C_44  and  C_47
   13  A    between atoms: C_44  and  N_48
                            x       y       z     vdW  Elec       q    Type
                         _______ _______ _______ _____ _____    ______ ____

>  <TORSDO>
F 13

$$$$
