=
 OpenBabel10222421223D

 39 43  0  0  1  0  0  0  0  0999 V2000
  186.0220  178.9990  141.5160 N   0  0  0  0  0  0  0  0  0  0  0  0
  184.6180  178.8430  141.0960 C   0  0  2  0  0  3  0  0  0  0  0  0
  183.9950  178.4330  143.5120 C   0  0  2  0  0  3  0  0  0  0  0  0
  186.3230  178.1010  142.6290 C   0  0  0  0  0  2  0  0  0  0  0  0
  185.4950  178.4840  143.8540 C   0  0  2  0  0  3  0  0  0  0  0  0
  186.9100  178.6690  140.4110 C   0  0  0  0  0  1  0  0  0  0  0  0
  183.6940  179.2470  142.2470 C   0  0  0  0  0  2  0  0  0  0  0  0
  181.6790  178.9040  144.3120 C   0  0  0  0  0  1  0  0  0  0  0  0
  183.1540  178.9700  144.6610 C   0  0  0  0  0  2  0  0  0  0  0  0
  185.8400  177.5120  144.9760 C   0  0  0  0  0  2  0  0  0  0  0  0
  187.0050  178.0210  145.8100 C   0  0  0  0  0  2  0  0  0  0  0  0
  189.4600  178.0070  147.2420 O   0  0  0  0  0  0  0  0  0  0  0  0
  188.2520  177.4520  145.3230 N   0  0  0  0  0  2  0  0  0  0  0  0
  189.4540  177.4940  146.0890 C   0  0  0  0  0  0  0  0  0  0  0  0
  190.7130  176.9450  145.4980 C   0  0  2  0  0  3  0  0  0  0  0  0
  191.7790  177.0860  146.3900 O   0  0  0  0  0  1  0  0  0  0  0  0
  191.0450  177.5850  144.1490 C   0  0  0  0  0  0  0  0  0  0  0  0
  192.0470  178.7140  144.2670 C   0  0  0  0  0  2  0  0  0  0  0  0
  190.5880  179.0190  143.9710 C   0  0  0  0  0  2  0  0  0  0  0  0
  190.2590  176.2850  140.7980 O   0  0  0  0  0  1  0  0  0  0  0  0
  189.9830  176.5790  142.1320 C   0  0  1  0  0  3  0  0  0  0  0  0
  190.5070  175.5610  142.9460 O   0  0  0  0  0  0  0  0  0  0  0  0
  191.2540  176.7540  142.8770 C   0  0  2  0  0  3  0  0  0  0  0  0
  184.2860  177.4300  140.5980 C   0  0  0  0  0  2  0  0  0  0  0  0
  183.3700  177.5030  139.3840 C   0  0  0  0  0  2  0  0  0  0  0  0
  182.2680  176.4440  139.4370 C   0  0  1  0  0  3  0  0  0  0  0  0
  180.1750  177.0280  140.5760 N   0  0  0  0  0  2  0  0  0  0  0  0
  180.9610  178.4330  138.8110 N   0  0  2  0  0  0  0  0  0  0  0  0
  180.3900  180.9920  137.3490 C   0  0  0  0  0  2  0  0  0  0  0  0
  180.9350  179.7070  136.7190 C   0  0  0  0  0  2  0  0  0  0  0  0
  180.4490  178.4600  137.4480 C   0  0  0  0  0  2  0  0  0  0  0  0
  180.8680  177.0550  139.2900 C   0  0  1  0  0  3  0  0  0  0  0  0
  180.0130  179.1770  139.6160 C   0  0  1  0  0  3  0  0  0  0  0  0
  179.8430  178.4040  140.8890 C   0  0  0  0  0  2  0  0  0  0  0  0
  180.5140  180.5910  139.9030 C   0  0  0  0  0  2  0  0  0  0  0  0
  181.0680  181.3380  138.6820 C   0  0  1  0  0  3  0  0  0  0  0  0
  182.4540  181.1830  138.6020 O   0  0  0  0  0  1  0  0  0  0  0  0
  182.4850  175.4760  138.4500 O   0  0  0  0  0  0  0  0  0  0  0  0
  183.3170  176.0960  137.5170 C   0  0  0  0  0  1  0  0  0  0  0  0
  1  4  1  0  0  0  0
  2 24  1  1  0  0  0
  2  1  1  0  0  0  0
  2  7  1  0  0  0  0
  3  5  1  0  0  0  0
  3  9  1  1  0  0  0
  4  5  1  0  0  0  0
  5 10  1  1  0  0  0
  6  1  1  0  0  0  0
  7  3  1  0  0  0  0
  8  9  1  0  0  0  0
 10 11  1  0  0  0  0
 13 11  1  0  0  0  0
 13 14  1  0  0  0  0
 14 12  2  0  0  0  0
 15 14  1  0  0  0  0
 15 16  1  1  0  0  0
 17 18  1  0  0  0  0
 17 15  1  0  0  0  0
 19 17  1  0  0  0  0
 19 18  1  0  0  0  0
 21 20  1  6  0  0  0
 21 23  1  0  0  0  0
 21 22  1  0  0  0  0
 23 22  1  0  0  0  0
 23 17  1  1  0  0  0
 25 24  1  0  0  0  0
 26 25  1  6  0  0  0
 27 34  1  0  0  0  0
 28 31  1  6  0  0  0
 28 32  1  0  0  0  0
 28 33  1  0  0  0  0
 29 36  1  0  0  0  0
 30 29  1  0  0  0  0
 30 31  1  0  0  0  0
 32 26  1  1  0  0  0
 32 27  1  0  0  0  0
 33 35  1  1  0  0  0
 33 34  1  0  0  0  0
 36 37  1  6  0  0  0
 36 35  1  0  0  0  0
 38 26  1  0  0  0  0
 39 38  1  0  0  0  0
M  END
>  <MODEL>
1

>  <REMARK>
 VINA RESULT:      -7.2      0.000      0.000
  Name = 
  12 active torsions:
  status: ('A' for Active; 'I' for Inactive)
    1  A    between atoms: C_2  and  N_19
    2  A    between atoms: C_2  and  C_27
    3  A    between atoms: O_3  and  C_4
    4  A    between atoms: C_4  and  C_18
    5  A    between atoms: C_4  and  C_21
    6  A    between atoms: C_6  and  C_32
    7  A    between atoms: C_14  and  C_17
    8  A    between atoms: C_14  and  C_34
    9  A    between atoms: C_15  and  C_35
   10  A    between atoms: C_18  and  C_32
   11  A    between atoms: C_24  and  C_34
   12  A    between atoms: C_25  and  C_27
                            x       y       z     vdW  Elec       q    Type
                         _______ _______ _______ _____ _____    ______ ____

>  <TORSDO>
F 12

$$$$
=
 OpenBabel10222421223D

 39 43  0  0  1  0  0  0  0  0999 V2000
  186.4870  178.9560  141.6300 N   0  0  0  0  0  0  0  0  0  0  0  0
  185.0950  179.0210  141.1520 C   0  0  2  0  0  3  0  0  0  0  0  0
  184.3190  178.4880  143.4980 C   0  0  2  0  0  3  0  0  0  0  0  0
  186.6220  177.9330  142.6640 C   0  0  0  0  0  2  0  0  0  0  0  0
  185.7960  178.3130  143.8920 C   0  0  2  0  0  3  0  0  0  0  0  0
  187.3740  178.6100  140.5280 C   0  0  0  0  0  1  0  0  0  0  0  0
  184.1800  179.4400  142.3040 C   0  0  0  0  0  2  0  0  0  0  0  0
  182.0190  178.8720  144.3870 C   0  0  0  0  0  1  0  0  0  0  0  0
  183.5030  179.0280  144.6640 C   0  0  0  0  0  2  0  0  0  0  0  0
  185.9650  177.2110  144.9310 C   0  0  0  0  0  2  0  0  0  0  0  0
  187.0740  177.5450  145.9160 C   0  0  0  0  0  2  0  0  0  0  0  0
  189.5660  177.8210  147.2540 O   0  0  0  0  0  0  0  0  0  0  0  0
  188.3530  177.0810  145.4010 N   0  0  0  0  0  2  0  0  0  0  0  0
  189.5710  177.2690  146.1200 C   0  0  0  0  0  0  0  0  0  0  0  0
  190.8570  176.8230  145.5000 C   0  0  2  0  0  3  0  0  0  0  0  0
  191.9260  177.0400  146.3720 O   0  0  0  0  0  1  0  0  0  0  0  0
  191.1120  177.4970  144.1500 C   0  0  0  0  0  0  0  0  0  0  0  0
  192.0610  178.6720  144.2520 C   0  0  0  0  0  2  0  0  0  0  0  0
  190.5790  178.9090  144.0090 C   0  0  0  0  0  2  0  0  0  0  0  0
  190.3000  176.2430  140.7880 O   0  0  0  0  0  1  0  0  0  0  0  0
  190.0390  176.5060  142.1310 C   0  0  1  0  0  3  0  0  0  0  0  0
  190.5960  175.4850  142.9170 O   0  0  0  0  0  0  0  0  0  0  0  0
  191.3180  176.6940  142.8600 C   0  0  2  0  0  3  0  0  0  0  0  0
  184.6080  177.7110  140.5160 C   0  0  0  0  0  2  0  0  0  0  0  0
  184.0460  177.9800  139.1270 C   0  0  0  0  0  2  0  0  0  0  0  0
  182.5260  177.8100  139.0850 C   0  0  1  0  0  3  0  0  0  0  0  0
  181.3590  177.6080  136.9370 N   0  0  0  0  0  2  0  0  0  0  0  0
  183.2340  176.1930  137.3710 N   0  0  2  0  0  0  0  0  0  0  0  0
  185.0010  174.1060  136.1320 C   0  0  0  0  0  2  0  0  0  0  0  0
  184.5430  174.1330  137.5920 C   0  0  0  0  0  2  0  0  0  0  0  0
  183.1750  174.7890  137.7510 C   0  0  0  0  0  2  0  0  0  0  0  0
  182.0790  176.8610  137.9670 C   0  0  1  0  0  3  0  0  0  0  0  0
  183.0010  176.2360  135.9420 C   0  0  1  0  0  3  0  0  0  0  0  0
  182.0850  177.3980  135.6990 C   0  0  0  0  0  2  0  0  0  0  0  0
  184.3070  176.4060  135.1680 C   0  0  0  0  0  2  0  0  0  0  0  0
  185.4470  175.4820  135.6200 C   0  0  1  0  0  3  0  0  0  0  0  0
  186.2620  176.1310  136.5510 O   0  0  0  0  0  1  0  0  0  0  0  0
  182.0600  177.3590  140.3250 O   0  0  0  0  0  0  0  0  0  0  0  0
  181.0380  178.2450  140.6680 C   0  0  0  0  0  1  0  0  0  0  0  0
  1  4  1  0  0  0  0
  2 24  1  1  0  0  0
  2  1  1  0  0  0  0
  2  7  1  0  0  0  0
  3  5  1  0  0  0  0
  3  9  1  1  0  0  0
  4  5  1  0  0  0  0
  5 10  1  1  0  0  0
  6  1  1  0  0  0  0
  7  3  1  0  0  0  0
  8  9  1  0  0  0  0
 10 11  1  0  0  0  0
 13 11  1  0  0  0  0
 13 14  1  0  0  0  0
 14 12  2  0  0  0  0
 15 14  1  0  0  0  0
 15 16  1  1  0  0  0
 17 18  1  0  0  0  0
 17 15  1  0  0  0  0
 19 17  1  0  0  0  0
 19 18  1  0  0  0  0
 21 20  1  6  0  0  0
 21 23  1  0  0  0  0
 21 22  1  0  0  0  0
 23 22  1  0  0  0  0
 23 17  1  1  0  0  0
 25 24  1  0  0  0  0
 26 25  1  1  0  0  0
 26 38  1  0  0  0  0
 27 32  1  0  0  0  0
 28 31  1  1  0  0  0
 28 32  1  0  0  0  0
 29 30  1  0  0  0  0
 30 31  1  0  0  0  0
 32 26  1  1  0  0  0
 33 35  1  6  0  0  0
 33 28  1  0  0  0  0
 34 33  1  0  0  0  0
 34 27  1  0  0  0  0
 35 36  1  0  0  0  0
 36 29  1  0  0  0  0
 36 37  1  1  0  0  0
 38 39  1  0  0  0  0
M  END
>  <MODEL>
2

>  <REMARK>
 VINA RESULT:      -6.9      1.679      3.298
  Name = 
  12 active torsions:
  status: ('A' for Active; 'I' for Inactive)
    1  A    between atoms: C_2  and  N_19
    2  A    between atoms: C_2  and  C_27
    3  A    between atoms: O_3  and  C_4
    4  A    between atoms: C_4  and  C_18
    5  A    between atoms: C_4  and  C_21
    6  A    between atoms: C_6  and  C_32
    7  A    between atoms: C_14  and  C_17
    8  A    between atoms: C_14  and  C_34
    9  A    between atoms: C_15  and  C_35
   10  A    between atoms: C_18  and  C_32
   11  A    between atoms: C_24  and  C_34
   12  A    between atoms: C_25  and  C_27
                            x       y       z     vdW  Elec       q    Type
                         _______ _______ _______ _____ _____    ______ ____

>  <TORSDO>
F 12

$$$$
=
 OpenBabel10222421223D

 39 43  0  0  1  0  0  0  0  0999 V2000
  185.4850  179.2550  142.2030 N   0  0  0  0  0  0  0  0  0  0  0  0
  184.3940  179.3770  143.1850 C   0  0  2  0  0  3  0  0  0  0  0  0
  185.7850  178.0420  144.8200 C   0  0  2  0  0  3  0  0  0  0  0  0
  186.1460  177.9590  142.3360 C   0  0  0  0  0  2  0  0  0  0  0  0
  186.8230  177.8510  143.7000 C   0  0  2  0  0  3  0  0  0  0  0  0
  184.9510  179.3580  140.8520 C   0  0  0  0  0  1  0  0  0  0  0  0
  184.9740  179.3250  144.6000 C   0  0  0  0  0  2  0  0  0  0  0  0
  185.7710  179.1340  147.0630 C   0  0  0  0  0  1  0  0  0  0  0  0
  186.4570  178.1050  146.1840 C   0  0  0  0  0  2  0  0  0  0  0  0
  187.4850  176.4800  143.7880 C   0  0  0  0  0  2  0  0  0  0  0  0
  188.9750  176.5660  143.5010 C   0  0  0  0  0  2  0  0  0  0  0  0
  190.9430  177.8420  141.8950 O   0  0  0  0  0  0  0  0  0  0  0  0
  189.2300  176.2690  142.1000 N   0  0  0  0  0  2  0  0  0  0  0  0
  190.2250  176.9610  141.3480 C   0  0  0  0  0  0  0  0  0  0  0  0
  190.3890  176.6460  139.8950 C   0  0  2  0  0  3  0  0  0  0  0  0
  191.6070  177.1340  139.4190 O   0  0  0  0  0  1  0  0  0  0  0  0
  189.2250  177.1770  139.0540 C   0  0  0  0  0  0  0  0  0  0  0  0
  189.4980  178.5490  138.4770 C   0  0  0  0  0  2  0  0  0  0  0  0
  188.5060  178.3870  139.6170 C   0  0  0  0  0  2  0  0  0  0  0  0
  188.7400  174.5360  136.5390 O   0  0  0  0  0  1  0  0  0  0  0  0
  189.3340  175.6830  137.0640 C   0  0  1  0  0  3  0  0  0  0  0  0
  188.5260  176.7940  136.7750 O   0  0  0  0  0  0  0  0  0  0  0  0
  188.4410  176.2840  138.0850 C   0  0  2  0  0  3  0  0  0  0  0  0
  183.2930  178.3230  143.0050 C   0  0  0  0  0  2  0  0  0  0  0  0
  181.9210  178.9820  143.0600 C   0  0  0  0  0  2  0  0  0  0  0  0
  181.2670  179.0520  141.6800 C   0  0  1  0  0  3  0  0  0  0  0  0
  179.6540  177.2640  141.2100 N   0  0  0  0  0  2  0  0  0  0  0  0
  181.4220  177.6640  139.6540 N   0  0  2  0  0  0  0  0  0  0  0  0
  182.5030  176.8200  136.9830 C   0  0  0  0  0  2  0  0  0  0  0  0
  183.3430  177.1990  138.2050 C   0  0  0  0  0  2  0  0  0  0  0  0
  182.6330  176.8680  139.5140 C   0  0  0  0  0  2  0  0  0  0  0  0
  181.0540  177.6610  141.0680 C   0  0  1  0  0  3  0  0  0  0  0  0
  180.3710  176.9230  138.9870 C   0  0  1  0  0  3  0  0  0  0  0  0
  179.1610  177.0250  139.8670 C   0  0  0  0  0  2  0  0  0  0  0  0
  180.0810  177.4930  137.6000 C   0  0  0  0  0  2  0  0  0  0  0  0
  181.3260  177.7770  136.7470 C   0  0  1  0  0  3  0  0  0  0  0  0
  181.7190  179.1100  136.8860 O   0  0  0  0  0  1  0  0  0  0  0  0
  180.0520  179.7420  141.7590 O   0  0  0  0  0  0  0  0  0  0  0  0
  179.9770  180.1840  143.0810 C   0  0  0  0  0  1  0  0  0  0  0  0
  1  4  1  0  0  0  0
  1  2  1  0  0  0  0
  2 24  1  1  0  0  0
  2  7  1  0  0  0  0
  3  9  1  1  0  0  0
  4  5  1  0  0  0  0
  5 10  1  1  0  0  0
  5  3  1  0  0  0  0
  6  1  1  0  0  0  0
  7  3  1  0  0  0  0
  9  8  1  0  0  0  0
 11 10  1  0  0  0  0
 13 11  1  0  0  0  0
 14 12  2  0  0  0  0
 14 13  1  0  0  0  0
 15 16  1  6  0  0  0
 15 14  1  0  0  0  0
 17 19  1  0  0  0  0
 17 15  1  0  0  0  0
 18 17  1  0  0  0  0
 18 19  1  0  0  0  0
 21 20  1  6  0  0  0
 21 23  1  0  0  0  0
 22 21  1  0  0  0  0
 22 23  1  0  0  0  0
 23 17  1  1  0  0  0
 24 25  1  0  0  0  0
 26 38  1  0  0  0  0
 26 25  1  1  0  0  0
 28 31  1  1  0  0  0
 28 32  1  0  0  0  0
 29 30  1  0  0  0  0
 30 31  1  0  0  0  0
 32 27  1  0  0  0  0
 32 26  1  6  0  0  0
 33 35  1  6  0  0  0
 33 28  1  0  0  0  0
 33 34  1  0  0  0  0
 34 27  1  0  0  0  0
 36 37  1  1  0  0  0
 36 29  1  0  0  0  0
 36 35  1  0  0  0  0
 38 39  1  0  0  0  0
M  END
>  <MODEL>
3

>  <REMARK>
 VINA RESULT:      -6.8      2.351      4.172
  Name = 
  12 active torsions:
  status: ('A' for Active; 'I' for Inactive)
    1  A    between atoms: C_2  and  N_19
    2  A    between atoms: C_2  and  C_27
    3  A    between atoms: O_3  and  C_4
    4  A    between atoms: C_4  and  C_18
    5  A    between atoms: C_4  and  C_21
    6  A    between atoms: C_6  and  C_32
    7  A    between atoms: C_14  and  C_17
    8  A    between atoms: C_14  and  C_34
    9  A    between atoms: C_15  and  C_35
   10  A    between atoms: C_18  and  C_32
   11  A    between atoms: C_24  and  C_34
   12  A    between atoms: C_25  and  C_27
                            x       y       z     vdW  Elec       q    Type
                         _______ _______ _______ _____ _____    ______ ____

>  <TORSDO>
F 12

$$$$
=
 OpenBabel10222421223D

 39 43  0  0  1  0  0  0  0  0999 V2000
  184.2620  179.3500  140.1730 N   0  0  0  0  0  0  0  0  0  0  0  0
  183.0420  178.5270  140.2450 C   0  0  2  0  0  3  0  0  0  0  0  0
  183.2890  178.4730  142.7600 C   0  0  2  0  0  3  0  0  0  0  0  0
  185.2080  178.9500  141.2120 C   0  0  0  0  0  2  0  0  0  0  0  0
  184.6210  179.2260  142.5940 C   0  0  2  0  0  3  0  0  0  0  0  0
  184.9050  179.1740  138.8780 C   0  0  0  0  0  1  0  0  0  0  0  0
  182.3460  178.7640  141.5860 C   0  0  0  0  0  2  0  0  0  0  0  0
  181.1010  178.6580  143.9450 C   0  0  0  0  0  1  0  0  0  0  0  0
  182.6000  178.8620  144.0610 C   0  0  0  0  0  2  0  0  0  0  0  0
  185.6420  178.7810  143.6350 C   0  0  0  0  0  2  0  0  0  0  0  0
  186.4350  177.5780  143.1520 C   0  0  0  0  0  2  0  0  0  0  0  0
  187.9270  177.2350  145.5470 O   0  0  0  0  0  0  0  0  0  0  0  0
  187.8600  177.8330  143.2910 N   0  0  0  0  0  2  0  0  0  0  0  0
  188.5440  177.6550  144.5300 C   0  0  0  0  0  0  0  0  0  0  0  0
  189.9980  177.9980  144.6140 C   0  0  2  0  0  3  0  0  0  0  0  0
  190.3230  178.9950  143.6930 O   0  0  0  0  0  1  0  0  0  0  0  0
  190.8920  176.7700  144.4250 C   0  0  0  0  0  0  0  0  0  0  0  0
  191.6040  176.7650  143.0890 C   0  0  0  0  0  2  0  0  0  0  0  0
  190.4580  175.8000  143.3440 C   0  0  0  0  0  2  0  0  0  0  0  0
  191.6410  175.4020  147.7570 O   0  0  0  0  0  1  0  0  0  0  0  0
  191.0890  176.3230  146.8680 C   0  0  1  0  0  3  0  0  0  0  0  0
  192.0830  177.2350  146.4740 O   0  0  0  0  0  0  0  0  0  0  0  0
  191.7690  176.2150  145.5540 C   0  0  2  0  0  3  0  0  0  0  0  0
  183.3040  177.0310  140.0210 C   0  0  0  0  0  2  0  0  0  0  0  0
  182.0050  176.3170  139.6730 C   0  0  0  0  0  2  0  0  0  0  0  0
  181.0890  177.1890  138.8120 C   0  0  1  0  0  3  0  0  0  0  0  0
  181.9040  177.9950  136.6430 N   0  0  0  0  0  2  0  0  0  0  0  0
  182.0040  175.6560  137.1190 N   0  0  2  0  0  0  0  0  0  0  0  0
  182.9520  173.0250  136.0270 C   0  0  0  0  0  2  0  0  0  0  0  0
  181.6670  173.2460  136.8290 C   0  0  0  0  0  2  0  0  0  0  0  0
  181.0900  174.6410  136.6130 C   0  0  0  0  0  2  0  0  0  0  0  0
  181.2350  176.8820  137.3160 C   0  0  1  0  0  3  0  0  0  0  0  0
  182.9190  175.9530  136.0360 C   0  0  1  0  0  3  0  0  0  0  0  0
  183.0960  177.4410  136.0310 C   0  0  0  0  0  2  0  0  0  0  0  0
  184.2610  175.2490  136.2310 C   0  0  0  0  0  2  0  0  0  0  0  0
  184.1600  173.7660  136.6170 C   0  0  1  0  0  3  0  0  0  0  0  0
  184.2180  173.6180  138.0050 O   0  0  0  0  0  1  0  0  0  0  0  0
  179.7590  177.0310  139.2160 O   0  0  0  0  0  0  0  0  0  0  0  0
  179.1560  178.2630  138.9550 C   0  0  0  0  0  1  0  0  0  0  0  0
  1  2  1  0  0  0  0
  1  4  1  0  0  0  0
  2 24  1  1  0  0  0
  2  7  1  0  0  0  0
  3  9  1  1  0  0  0
  4  5  1  0  0  0  0
  5  3  1  0  0  0  0
  5 10  1  1  0  0  0
  6  1  1  0  0  0  0
  7  3  1  0  0  0  0
  8  9  1  0  0  0  0
 11 13  1  0  0  0  0
 11 10  1  0  0  0  0
 13 14  1  0  0  0  0
 14 15  1  0  0  0  0
 14 12  2  0  0  0  0
 15 16  1  6  0  0  0
 17 15  1  0  0  0  0
 18 19  1  0  0  0  0
 18 17  1  0  0  0  0
 19 17  1  0  0  0  0
 21 20  1  1  0  0  0
 22 21  1  0  0  0  0
 23 17  1  6  0  0  0
 23 22  1  0  0  0  0
 23 21  1  0  0  0  0
 25 24  1  0  0  0  0
 26 38  1  0  0  0  0
 26 25  1  1  0  0  0
 27 32  1  0  0  0  0
 28 31  1  6  0  0  0
 28 32  1  0  0  0  0
 29 36  1  0  0  0  0
 29 30  1  0  0  0  0
 31 30  1  0  0  0  0
 32 26  1  1  0  0  0
 33 34  1  1  0  0  0
 33 35  1  0  0  0  0
 33 28  1  0  0  0  0
 34 27  1  0  0  0  0
 35 36  1  0  0  0  0
 36 37  1  1  0  0  0
 39 38  1  0  0  0  0
M  END
>  <MODEL>
4

>  <REMARK>
 VINA RESULT:      -6.8      2.166      4.067
  Name = 
  12 active torsions:
  status: ('A' for Active; 'I' for Inactive)
    1  A    between atoms: C_2  and  N_19
    2  A    between atoms: C_2  and  C_27
    3  A    between atoms: O_3  and  C_4
    4  A    between atoms: C_4  and  C_18
    5  A    between atoms: C_4  and  C_21
    6  A    between atoms: C_6  and  C_32
    7  A    between atoms: C_14  and  C_17
    8  A    between atoms: C_14  and  C_34
    9  A    between atoms: C_15  and  C_35
   10  A    between atoms: C_18  and  C_32
   11  A    between atoms: C_24  and  C_34
   12  A    between atoms: C_25  and  C_27
                            x       y       z     vdW  Elec       q    Type
                         _______ _______ _______ _____ _____    ______ ____

>  <TORSDO>
F 12

$$$$
=
 OpenBabel10222421223D

 39 43  0  0  1  0  0  0  0  0999 V2000
  190.8130  177.1780  138.4240 N   0  0  0  0  0  0  0  0  0  0  0  0
  189.4320  177.5110  138.0340 C   0  0  2  0  0  3  0  0  0  0  0  0
  188.8320  177.6690  140.4850 C   0  0  2  0  0  3  0  0  0  0  0  0
  190.8160  176.3780  139.6470 C   0  0  0  0  0  2  0  0  0  0  0  0
  190.2580  177.1930  140.8120 C   0  0  2  0  0  3  0  0  0  0  0  0
  191.4530  176.4030  137.3710 C   0  0  0  0  0  1  0  0  0  0  0  0
  188.7890  178.3730  139.1230 C   0  0  0  0  0  2  0  0  0  0  0  0
  186.8020  178.5450  141.6420 C   0  0  0  0  0  1  0  0  0  0  0  0
  188.3150  178.6220  141.5540 C   0  0  0  0  0  2  0  0  0  0  0  0
  190.2760  176.3100  142.0540 C   0  0  0  0  0  2  0  0  0  0  0  0
  191.4410  176.6600  142.9650 C   0  0  0  0  0  2  0  0  0  0  0  0
  190.5750  178.8510  144.5560 O   0  0  0  0  0  0  0  0  0  0  0  0
  191.0280  176.5690  144.3570 N   0  0  0  0  0  2  0  0  0  0  0  0
  190.6200  177.7150  145.1020 C   0  0  0  0  0  0  0  0  0  0  0  0
  190.2690  177.5560  146.5480 C   0  0  2  0  0  3  0  0  0  0  0  0
  190.7330  176.3330  147.0360 O   0  0  0  0  0  1  0  0  0  0  0  0
  188.7660  177.7050  146.7970 C   0  0  0  0  0  0  0  0  0  0  0  0
  188.4560  178.3750  148.1190 C   0  0  0  0  0  2  0  0  0  0  0  0
  188.2050  176.8870  147.9430 C   0  0  0  0  0  2  0  0  0  0  0  0
  185.5010  178.1060  145.1510 O   0  0  0  0  0  1  0  0  0  0  0  0
  186.5040  177.3910  145.8030 C   0  0  1  0  0  3  0  0  0  0  0  0
  187.4840  177.0170  144.8690 O   0  0  0  0  0  0  0  0  0  0  0  0
  187.7900  178.1210  145.6900 C   0  0  2  0  0  3  0  0  0  0  0  0
  188.5700  176.2780  137.7320 C   0  0  0  0  0  2  0  0  0  0  0  0
  187.6030  176.5780  136.5960 C   0  0  0  0  0  2  0  0  0  0  0  0
  186.1710  176.1690  136.9430 C   0  0  1  0  0  3  0  0  0  0  0  0
  184.5740  177.1820  135.3810 N   0  0  0  0  0  2  0  0  0  0  0  0
  184.1170  177.2750  137.7240 N   0  0  2  0  0  0  0  0  0  0  0  0
  182.0610  178.1410  139.7320 C   0  0  0  0  0  2  0  0  0  0  0  0
  183.5780  178.2360  139.9120 C   0  0  0  0  0  2  0  0  0  0  0  0
  184.3010  178.4350  138.5840 C   0  0  0  0  0  2  0  0  0  0  0  0
  185.1690  177.3070  136.7100 C   0  0  1  0  0  3  0  0  0  0  0  0
  182.8840  177.5020  136.9960 C   0  0  1  0  0  3  0  0  0  0  0  0
  183.1430  177.0700  135.5840 C   0  0  0  0  0  2  0  0  0  0  0  0
  181.7260  176.7110  137.6010 C   0  0  0  0  0  2  0  0  0  0  0  0
  181.6130  176.8020  139.1300 C   0  0  1  0  0  3  0  0  0  0  0  0
  182.2710  175.7280  139.7340 O   0  0  0  0  0  1  0  0  0  0  0  0
  185.8040  175.0370  136.2060 O   0  0  0  0  0  0  0  0  0  0  0  0
  185.5690  174.0470  137.1630 C   0  0  0  0  0  1  0  0  0  0  0  0
  1  4  1  0  0  0  0
  2 24  1  1  0  0  0
  2  1  1  0  0  0  0
  2  7  1  0  0  0  0
  3  5  1  0  0  0  0
  3  9  1  1  0  0  0
  4  5  1  0  0  0  0
  5 10  1  1  0  0  0
  6  1  1  0  0  0  0
  7  3  1  0  0  0  0
  9  8  1  0  0  0  0
 10 11  1  0  0  0  0
 11 13  1  0  0  0  0
 12 14  2  0  0  0  0
 13 14  1  0  0  0  0
 14 15  1  0  0  0  0
 15 17  1  0  0  0  0
 15 16  1  6  0  0  0
 17 19  1  0  0  0  0
 17 18  1  0  0  0  0
 19 18  1  0  0  0  0
 21 20  1  6  0  0  0
 22 23  1  0  0  0  0
 22 21  1  0  0  0  0
 23 21  1  0  0  0  0
 23 17  1  1  0  0  0
 25 24  1  0  0  0  0
 26 25  1  6  0  0  0
 27 34  1  0  0  0  0
 27 32  1  0  0  0  0
 28 31  1  1  0  0  0
 29 30  1  0  0  0  0
 31 30  1  0  0  0  0
 32 26  1  1  0  0  0
 32 28  1  0  0  0  0
 33 34  1  6  0  0  0
 33 35  1  0  0  0  0
 33 28  1  0  0  0  0
 35 36  1  0  0  0  0
 36 29  1  0  0  0  0
 36 37  1  1  0  0  0
 38 26  1  0  0  0  0
 38 39  1  0  0  0  0
M  END
>  <MODEL>
5

>  <REMARK>
 VINA RESULT:      -6.8      2.749      4.906
  Name = 
  12 active torsions:
  status: ('A' for Active; 'I' for Inactive)
    1  A    between atoms: C_2  and  N_19
    2  A    between atoms: C_2  and  C_27
    3  A    between atoms: O_3  and  C_4
    4  A    between atoms: C_4  and  C_18
    5  A    between atoms: C_4  and  C_21
    6  A    between atoms: C_6  and  C_32
    7  A    between atoms: C_14  and  C_17
    8  A    between atoms: C_14  and  C_34
    9  A    between atoms: C_15  and  C_35
   10  A    between atoms: C_18  and  C_32
   11  A    between atoms: C_24  and  C_34
   12  A    between atoms: C_25  and  C_27
                            x       y       z     vdW  Elec       q    Type
                         _______ _______ _______ _____ _____    ______ ____

>  <TORSDO>
F 12

$$$$
=
 OpenBabel10222421223D

 39 43  0  0  1  0  0  0  0  0999 V2000
  184.1560  179.3790  140.3910 N   0  0  0  0  0  0  0  0  0  0  0  0
  182.9060  178.6000  140.4390 C   0  0  2  0  0  3  0  0  0  0  0  0
  183.1840  178.4050  142.9440 C   0  0  2  0  0  3  0  0  0  0  0  0
  185.1000  178.8880  141.3930 C   0  0  0  0  0  2  0  0  0  0  0  0
  184.5430  179.1140  142.7970 C   0  0  2  0  0  3  0  0  0  0  0  0
  184.7750  179.2460  139.0790 C   0  0  0  0  0  1  0  0  0  0  0  0
  182.2380  178.7940  141.8020 C   0  0  0  0  0  2  0  0  0  0  0  0
  181.0240  178.8560  144.1080 C   0  0  0  0  0  1  0  0  0  0  0  0
  182.5290  178.7510  144.2730 C   0  0  0  0  0  2  0  0  0  0  0  0
  185.5590  178.5760  143.7970 C   0  0  0  0  0  2  0  0  0  0  0  0
  186.4420  177.5100  143.1690 C   0  0  0  0  0  2  0  0  0  0  0  0
  188.0260  177.0360  145.4820 O   0  0  0  0  0  0  0  0  0  0  0  0
  187.8430  177.8770  143.3110 N   0  0  0  0  0  2  0  0  0  0  0  0
  188.5740  177.6240  144.5090 C   0  0  0  0  0  0  0  0  0  0  0  0
  189.9930  178.0870  144.6060 C   0  0  2  0  0  3  0  0  0  0  0  0
  190.2680  179.0440  143.6270 O   0  0  0  0  0  1  0  0  0  0  0  0
  190.9860  176.9250  144.5240 C   0  0  0  0  0  0  0  0  0  0  0  0
  191.7030  176.8610  143.1920 C   0  0  0  0  0  2  0  0  0  0  0  0
  190.6380  175.8310  143.5340 C   0  0  0  0  0  2  0  0  0  0  0  0
  191.9030  175.3390  147.7140 O   0  0  0  0  0  1  0  0  0  0  0  0
  191.1130  176.1290  146.8810 C   0  0  1  0  0  3  0  0  0  0  0  0
  191.6810  177.4100  146.7860 O   0  0  0  0  0  0  0  0  0  0  0  0
  191.9010  176.5450  145.6950 C   0  0  2  0  0  3  0  0  0  0  0  0
  183.1060  177.1100  140.1340 C   0  0  0  0  0  2  0  0  0  0  0  0
  182.4290  176.7480  138.8190 C   0  0  0  0  0  2  0  0  0  0  0  0
  181.2910  175.7470  139.0210 C   0  0  1  0  0  3  0  0  0  0  0  0
  179.3880  176.5840  140.3250 N   0  0  0  0  0  2  0  0  0  0  0  0
  180.0030  177.7220  138.3160 N   0  0  2  0  0  0  0  0  0  0  0  0
  179.3620  180.1190  136.6270 C   0  0  0  0  0  2  0  0  0  0  0  0
  179.7660  178.7390  136.1000 C   0  0  0  0  0  2  0  0  0  0  0  0
  179.3220  177.6180  137.0330 C   0  0  0  0  0  2  0  0  0  0  0  0
  179.9120  176.4180  138.9700 C   0  0  1  0  0  3  0  0  0  0  0  0
  179.1990  178.6100  139.1310 C   0  0  1  0  0  3  0  0  0  0  0  0
  179.1600  178.0050  140.5010 C   0  0  0  0  0  2  0  0  0  0  0  0
  179.7950  180.0160  139.1760 C   0  0  0  0  0  2  0  0  0  0  0  0
  180.2200  180.5800  137.8130 C   0  0  1  0  0  3  0  0  0  0  0  0
  181.5770  180.3350  137.5850 O   0  0  0  0  0  1  0  0  0  0  0  0
  181.3740  174.7270  138.0660 O   0  0  0  0  0  0  0  0  0  0  0  0
  180.3490  173.8390  138.4000 C   0  0  0  0  0  1  0  0  0  0  0  0
  1  2  1  0  0  0  0
  1  4  1  0  0  0  0
  2 24  1  1  0  0  0
  2  7  1  0  0  0  0
  3  9  1  1  0  0  0
  4  5  1  0  0  0  0
  5  3  1  0  0  0  0
  5 10  1  1  0  0  0
  6  1  1  0  0  0  0
  7  3  1  0  0  0  0
  8  9  1  0  0  0  0
 11 13  1  0  0  0  0
 11 10  1  0  0  0  0
 13 14  1  0  0  0  0
 14 15  1  0  0  0  0
 14 12  2  0  0  0  0
 15 16  1  6  0  0  0
 17 15  1  0  0  0  0
 18 19  1  0  0  0  0
 18 17  1  0  0  0  0
 19 17  1  0  0  0  0
 21 20  1  1  0  0  0
 22 21  1  0  0  0  0
 23 17  1  6  0  0  0
 23 22  1  0  0  0  0
 23 21  1  0  0  0  0
 25 24  1  0  0  0  0
 26 25  1  6  0  0  0
 27 34  1  0  0  0  0
 28 31  1  6  0  0  0
 28 32  1  0  0  0  0
 28 33  1  0  0  0  0
 29 36  1  0  0  0  0
 30 29  1  0  0  0  0
 30 31  1  0  0  0  0
 32 26  1  1  0  0  0
 32 27  1  0  0  0  0
 33 35  1  1  0  0  0
 33 34  1  0  0  0  0
 36 37  1  6  0  0  0
 36 35  1  0  0  0  0
 38 39  1  0  0  0  0
 38 26  1  0  0  0  0
M  END
>  <MODEL>
6

>  <REMARK>
 VINA RESULT:      -6.7      1.576      2.406
  Name = 
  12 active torsions:
  status: ('A' for Active; 'I' for Inactive)
    1  A    between atoms: C_2  and  N_19
    2  A    between atoms: C_2  and  C_27
    3  A    between atoms: O_3  and  C_4
    4  A    between atoms: C_4  and  C_18
    5  A    between atoms: C_4  and  C_21
    6  A    between atoms: C_6  and  C_32
    7  A    between atoms: C_14  and  C_17
    8  A    between atoms: C_14  and  C_34
    9  A    between atoms: C_15  and  C_35
   10  A    between atoms: C_18  and  C_32
   11  A    between atoms: C_24  and  C_34
   12  A    between atoms: C_25  and  C_27
                            x       y       z     vdW  Elec       q    Type
                         _______ _______ _______ _____ _____    ______ ____

>  <TORSDO>
F 12

$$$$
=
 OpenBabel10222421223D

 39 43  0  0  1  0  0  0  0  0999 V2000
  186.2170  177.8770  141.7070 N   0  0  0  0  0  0  0  0  0  0  0  0
  187.5260  177.5530  142.3030 C   0  0  2  0  0  3  0  0  0  0  0  0
  186.5260  177.9540  144.5900 C   0  0  2  0  0  3  0  0  0  0  0  0
  185.5470  178.9160  142.4860 C   0  0  0  0  0  2  0  0  0  0  0  0
  185.2310  178.4010  143.8880 C   0  0  2  0  0  3  0  0  0  0  0  0
  186.3980  178.3710  140.3490 C   0  0  0  0  0  1  0  0  0  0  0  0
  187.3190  176.9820  143.7070 C   0  0  0  0  0  2  0  0  0  0  0  0
  186.9710  177.9760  147.0450 C   0  0  0  0  0  1  0  0  0  0  0  0
  186.2230  177.2830  145.9220 C   0  0  0  0  0  2  0  0  0  0  0  0
  184.5450  179.5240  144.6570 C   0  0  0  0  0  2  0  0  0  0  0  0
  183.0400  179.3190  144.7110 C   0  0  0  0  0  2  0  0  0  0  0  0
  180.5280  178.3720  143.7760 O   0  0  0  0  0  0  0  0  0  0  0  0
  182.4450  179.6580  143.4270 N   0  0  0  0  0  2  0  0  0  0  0  0
  181.1860  179.1320  143.0130 C   0  0  0  0  0  0  0  0  0  0  0  0
  180.6660  179.4750  141.6530 C   0  0  2  0  0  3  0  0  0  0  0  0
  179.2710  179.4100  141.6280 O   0  0  0  0  0  1  0  0  0  0  0  0
  181.2700  178.5860  140.5630 C   0  0  0  0  0  0  0  0  0  0  0  0
  180.2880  178.2680  139.4560 C   0  0  0  0  0  2  0  0  0  0  0  0
  180.6870  177.1920  140.4520 C   0  0  0  0  0  2  0  0  0  0  0  0
  184.0670  180.4150  139.0250 O   0  0  0  0  0  1  0  0  0  0  0  0
  182.7590  179.9390  139.0940 C   0  0  1  0  0  3  0  0  0  0  0  0
  182.7290  178.6110  138.6380 O   0  0  0  0  0  0  0  0  0  0  0  0
  182.6950  178.7940  140.0350 C   0  0  2  0  0  3  0  0  0  0  0  0
  188.4920  178.7450  142.3330 C   0  0  0  0  0  2  0  0  0  0  0  0
  189.9130  178.2760  142.0540 C   0  0  0  0  0  2  0  0  0  0  0  0
  189.9490  177.1580  141.0110 C   0  0  1  0  0  3  0  0  0  0  0  0
  191.8780  176.8940  139.5190 N   0  0  0  0  0  2  0  0  0  0  0  0
  189.7340  177.3430  138.5670 N   0  0  2  0  0  0  0  0  0  0  0  0
  188.2820  177.6280  135.9550 C   0  0  0  0  0  2  0  0  0  0  0  0
  188.0190  178.4550  137.2150 C   0  0  0  0  0  2  0  0  0  0  0  0
  189.2770  178.6290  138.0590 C   0  0  0  0  0  2  0  0  0  0  0  0
  190.6140  177.6050  139.7030 C   0  0  1  0  0  3  0  0  0  0  0  0
  190.5930  176.7850  137.5430 C   0  0  1  0  0  3  0  0  0  0  0  0
  191.7660  176.1860  138.2580 C   0  0  0  0  0  2  0  0  0  0  0  0
  189.8630  175.7260  136.7180 C   0  0  0  0  0  2  0  0  0  0  0  0
  188.4590  176.1310  136.2480 C   0  0  1  0  0  3  0  0  0  0  0  0
  187.4920  175.6710  137.1450 O   0  0  0  0  0  1  0  0  0  0  0  0
  190.6030  176.0360  141.5330 O   0  0  0  0  0  0  0  0  0  0  0  0
  190.9730  176.4070  142.8270 C   0  0  0  0  0  1  0  0  0  0  0  0
  1  2  1  0  0  0  0
  1  4  1  0  0  0  0
  2 24  1  1  0  0  0
  2  7  1  0  0  0  0
  3  9  1  1  0  0  0
  4  5  1  0  0  0  0
  5  3  1  0  0  0  0
  5 10  1  1  0  0  0
  6  1  1  0  0  0  0
  7  3  1  0  0  0  0
  9  8  1  0  0  0  0
 10 11  1  0  0  0  0
 13 11  1  0  0  0  0
 14 13  1  0  0  0  0
 14 12  2  0  0  0  0
 15 16  1  1  0  0  0
 15 14  1  0  0  0  0
 17 15  1  0  0  0  0
 18 19  1  0  0  0  0
 18 17  1  0  0  0  0
 19 17  1  0  0  0  0
 21 20  1  1  0  0  0
 21 23  1  0  0  0  0
 22 21  1  0  0  0  0
 22 23  1  0  0  0  0
 23 17  1  6  0  0  0
 25 24  1  0  0  0  0
 26 38  1  0  0  0  0
 26 25  1  1  0  0  0
 27 32  1  0  0  0  0
 28 31  1  6  0  0  0
 28 32  1  0  0  0  0
 29 36  1  0  0  0  0
 29 30  1  0  0  0  0
 30 31  1  0  0  0  0
 32 26  1  1  0  0  0
 33 35  1  1  0  0  0
 33 34  1  0  0  0  0
 33 28  1  0  0  0  0
 34 27  1  0  0  0  0
 36 35  1  0  0  0  0
 36 37  1  1  0  0  0
 38 39  1  0  0  0  0
M  END
>  <MODEL>
7

>  <REMARK>
 VINA RESULT:      -6.7      3.068      8.300
  Name = 
  12 active torsions:
  status: ('A' for Active; 'I' for Inactive)
    1  A    between atoms: C_2  and  N_19
    2  A    between atoms: C_2  and  C_27
    3  A    between atoms: O_3  and  C_4
    4  A    between atoms: C_4  and  C_18
    5  A    between atoms: C_4  and  C_21
    6  A    between atoms: C_6  and  C_32
    7  A    between atoms: C_14  and  C_17
    8  A    between atoms: C_14  and  C_34
    9  A    between atoms: C_15  and  C_35
   10  A    between atoms: C_18  and  C_32
   11  A    between atoms: C_24  and  C_34
   12  A    between atoms: C_25  and  C_27
                            x       y       z     vdW  Elec       q    Type
                         _______ _______ _______ _____ _____    ______ ____

>  <TORSDO>
F 12

$$$$
=
 OpenBabel10222421223D

 39 43  0  0  1  0  0  0  0  0999 V2000
  189.1820  178.1790  139.9350 N   0  0  0  0  0  0  0  0  0  0  0  0
  190.3100  177.6630  140.7300 C   0  0  2  0  0  3  0  0  0  0  0  0
  190.8300  176.0530  138.8510 C   0  0  2  0  0  3  0  0  0  0  0  0
  188.5690  177.1010  139.1620 C   0  0  0  0  0  2  0  0  0  0  0  0
  189.5620  176.5560  138.1380 C   0  0  2  0  0  3  0  0  0  0  0  0
  188.1690  178.7400  140.8170 C   0  0  0  0  0  1  0  0  0  0  0  0
  191.3930  177.1280  139.7900 C   0  0  0  0  0  2  0  0  0  0  0  0
  193.1610  176.4790  138.0680 C   0  0  0  0  0  1  0  0  0  0  0  0
  191.9030  175.6600  137.8450 C   0  0  0  0  0  2  0  0  0  0  0  0
  188.8760  175.4320  137.3710 C   0  0  0  0  0  2  0  0  0  0  0  0
  187.7880  175.9700  136.4560 C   0  0  0  0  0  2  0  0  0  0  0  0
  185.3450  174.6520  135.8460 O   0  0  0  0  0  0  0  0  0  0  0  0
  186.5470  176.1270  137.1990 N   0  0  0  0  0  2  0  0  0  0  0  0
  185.3500  175.4460  136.8260 C   0  0  0  0  0  0  0  0  0  0  0  0
  184.0950  175.7050  137.5980 C   0  0  2  0  0  3  0  0  0  0  0  0
  183.1640  174.6870  137.3810 O   0  0  0  0  0  1  0  0  0  0  0  0
  183.4900  177.0730  137.2760 C   0  0  0  0  0  0  0  0  0  0  0  0
  182.2640  176.9770  136.3920 C   0  0  0  0  0  2  0  0  0  0  0  0
  183.5720  177.5030  135.8240 C   0  0  0  0  0  2  0  0  0  0  0  0
  184.5540  179.9840  139.2570 O   0  0  0  0  0  1  0  0  0  0  0  0
  184.6950  178.7050  138.7220 C   0  0  1  0  0  3  0  0  0  0  0  0
  183.9950  177.7900  139.5260 O   0  0  0  0  0  0  0  0  0  0  0  0
  183.3640  178.1810  138.3280 C   0  0  2  0  0  3  0  0  0  0  0  0
  189.8960  176.5950  141.7510 C   0  0  0  0  0  2  0  0  0  0  0  0
  190.4310  176.9540  143.1310 C   0  0  0  0  0  2  0  0  0  0  0  0
  189.4980  177.9150  143.8710 C   0  0  1  0  0  3  0  0  0  0  0  0
  188.6680  177.0910  146.0270 N   0  0  0  0  0  2  0  0  0  0  0  0
  187.0980  177.8800  144.4090 N   0  0  2  0  0  0  0  0  0  0  0  0
  184.1800  178.4340  143.9720 C   0  0  0  0  0  2  0  0  0  0  0  0
  185.1490  177.8800  142.9240 C   0  0  0  0  0  2  0  0  0  0  0  0
  186.2620  177.0490  143.5540 C   0  0  0  0  0  2  0  0  0  0  0  0
  188.3660  177.1800  144.5990 C   0  0  1  0  0  3  0  0  0  0  0  0
  186.4680  177.8830  145.7140 C   0  0  1  0  0  3  0  0  0  0  0  0
  187.5740  177.7470  146.7160 C   0  0  0  0  0  2  0  0  0  0  0  0
  185.6780  179.1690  145.9490 C   0  0  0  0  0  2  0  0  0  0  0  0
  184.7750  179.5930  144.7830 C   0  0  1  0  0  3  0  0  0  0  0  0
  185.4380  180.5030  143.9560 O   0  0  0  0  0  1  0  0  0  0  0  0
  190.2320  178.6970  144.7700 O   0  0  0  0  0  0  0  0  0  0  0  0
  191.1930  179.3390  143.9870 C   0  0  0  0  0  1  0  0  0  0  0  0
  1  2  1  0  0  0  0
  1  6  1  0  0  0  0
  2 24  1  1  0  0  0
  3  9  1  6  0  0  0
  3  7  1  0  0  0  0
  4  1  1  0  0  0  0
  5 10  1  1  0  0  0
  5  3  1  0  0  0  0
  5  4  1  0  0  0  0
  7  2  1  0  0  0  0
  9  8  1  0  0  0  0
 11 13  1  0  0  0  0
 11 10  1  0  0  0  0
 12 14  2  0  0  0  0
 14 13  1  0  0  0  0
 14 15  1  0  0  0  0
 15 16  1  6  0  0  0
 17 15  1  0  0  0  0
 18 17  1  0  0  0  0
 19 18  1  0  0  0  0
 19 17  1  0  0  0  0
 21 20  1  1  0  0  0
 21 22  1  0  0  0  0
 23 17  1  6  0  0  0
 23 21  1  0  0  0  0
 23 22  1  0  0  0  0
 24 25  1  0  0  0  0
 26 25  1  1  0  0  0
 26 38  1  0  0  0  0
 27 34  1  0  0  0  0
 28 31  1  6  0  0  0
 28 32  1  0  0  0  0
 28 33  1  0  0  0  0
 29 36  1  0  0  0  0
 30 31  1  0  0  0  0
 30 29  1  0  0  0  0
 32 26  1  6  0  0  0
 32 27  1  0  0  0  0
 33 35  1  1  0  0  0
 33 34  1  0  0  0  0
 36 37  1  6  0  0  0
 36 35  1  0  0  0  0
 39 38  1  0  0  0  0
M  END
>  <MODEL>
8

>  <REMARK>
 VINA RESULT:      -6.6      2.853      8.979
  Name = 
  12 active torsions:
  status: ('A' for Active; 'I' for Inactive)
    1  A    between atoms: C_2  and  N_19
    2  A    between atoms: C_2  and  C_27
    3  A    between atoms: O_3  and  C_4
    4  A    between atoms: C_4  and  C_18
    5  A    between atoms: C_4  and  C_21
    6  A    between atoms: C_6  and  C_32
    7  A    between atoms: C_14  and  C_17
    8  A    between atoms: C_14  and  C_34
    9  A    between atoms: C_15  and  C_35
   10  A    between atoms: C_18  and  C_32
   11  A    between atoms: C_24  and  C_34
   12  A    between atoms: C_25  and  C_27
                            x       y       z     vdW  Elec       q    Type
                         _______ _______ _______ _____ _____    ______ ____

>  <TORSDO>
F 12

$$$$
=
 OpenBabel10222421223D

 39 43  0  0  1  0  0  0  0  0999 V2000
  184.8840  179.5590  140.4050 N   0  0  0  0  0  0  0  0  0  0  0  0
  183.8260  178.9730  141.2470 C   0  0  2  0  0  3  0  0  0  0  0  0
  185.6230  177.9700  142.7170 C   0  0  2  0  0  3  0  0  0  0  0  0
  186.0360  178.6620  140.3380 C   0  0  0  0  0  2  0  0  0  0  0  0
  186.6650  178.5080  141.7210 C   0  0  2  0  0  3  0  0  0  0  0  0
  184.3860  179.7630  139.0530 C   0  0  0  0  0  1  0  0  0  0  0  0
  184.3430  178.8150  142.6790 C   0  0  0  0  0  2  0  0  0  0  0  0
  185.3010  178.8120  145.0440 C   0  0  0  0  0  1  0  0  0  0  0  0
  186.1740  177.9650  144.1360 C   0  0  0  0  0  2  0  0  0  0  0  0
  187.8500  177.5580  141.5940 C   0  0  0  0  0  2  0  0  0  0  0  0
  189.1560  178.2520  141.9430 C   0  0  0  0  0  2  0  0  0  0  0  0
  190.8200  179.4640  143.9040 O   0  0  0  0  0  0  0  0  0  0  0  0
  189.8220  177.5440  143.0270 N   0  0  0  0  0  2  0  0  0  0  0  0
  190.6580  178.2140  143.9680 C   0  0  0  0  0  0  0  0  0  0  0  0
  191.3600  177.4120  145.0170 C   0  0  2  0  0  3  0  0  0  0  0  0
  191.6760  176.1400  144.5360 O   0  0  0  0  0  1  0  0  0  0  0  0
  190.5480  177.3170  146.3110 C   0  0  0  0  0  0  0  0  0  0  0  0
  189.1600  176.7550  146.0900 C   0  0  0  0  0  2  0  0  0  0  0  0
  189.3420  178.2320  146.4000 C   0  0  0  0  0  2  0  0  0  0  0  0
  193.1700  176.0020  148.5320 O   0  0  0  0  0  1  0  0  0  0  0  0
  192.3640  176.0000  147.3950 C   0  0  1  0  0  3  0  0  0  0  0  0
  191.1180  175.4360  147.7140 O   0  0  0  0  0  0  0  0  0  0  0  0
  191.1650  176.8420  147.6320 C   0  0  2  0  0  3  0  0  0  0  0  0
  183.2900  177.6390  140.7090 C   0  0  0  0  0  2  0  0  0  0  0  0
  181.7950  177.5300  140.9750 C   0  0  0  0  0  2  0  0  0  0  0  0
  181.0250  178.7180  140.3960 C   0  0  1  0  0  3  0  0  0  0  0  0
  180.7910  179.4860  138.0780 N   0  0  0  0  0  2  0  0  0  0  0  0
  180.9580  177.1420  138.5080 N   0  0  2  0  0  0  0  0  0  0  0  0
  181.1330  174.4640  137.1630 C   0  0  0  0  0  2  0  0  0  0  0  0
  180.3800  174.7610  138.4620 C   0  0  0  0  0  2  0  0  0  0  0  0
  179.8550  176.1920  138.5050 C   0  0  0  0  0  2  0  0  0  0  0  0
  180.4440  178.4140  139.0100 C   0  0  1  0  0  3  0  0  0  0  0  0
  181.2860  177.3880  137.1180 C   0  0  1  0  0  3  0  0  0  0  0  0
  181.5300  178.8620  136.9970 C   0  0  0  0  0  2  0  0  0  0  0  0
  182.5200  176.5970  136.6880 C   0  0  0  0  0  2  0  0  0  0  0  0
  182.5190  175.1220  137.1110 C   0  0  1  0  0  3  0  0  0  0  0  0
  183.2040  174.9590  138.3180 O   0  0  0  0  0  1  0  0  0  0  0  0
  180.0100  179.1060  141.2780 O   0  0  0  0  0  0  0  0  0  0  0  0
  180.2890  178.4310  142.4670 C   0  0  0  0  0  1  0  0  0  0  0  0
  1  2  1  0  0  0  0
  2 24  1  6  0  0  0
  2  7  1  0  0  0  0
  3  9  1  1  0  0  0
  4  1  1  0  0  0  0
  4  5  1  0  0  0  0
  5 10  1  6  0  0  0
  5  3  1  0  0  0  0
  6  1  1  0  0  0  0
  7  3  1  0  0  0  0
  9  8  1  0  0  0  0
 10 11  1  0  0  0  0
 11 13  1  0  0  0  0
 12 14  2  0  0  0  0
 13 14  1  0  0  0  0
 14 15  1  0  0  0  0
 15 16  1  6  0  0  0
 15 17  1  0  0  0  0
 17 19  1  0  0  0  0
 18 17  1  0  0  0  0
 18 19  1  0  0  0  0
 21 23  1  0  0  0  0
 21 22  1  0  0  0  0
 21 20  1  1  0  0  0
 23 17  1  6  0  0  0
 23 22  1  0  0  0  0
 24 25  1  0  0  0  0
 26 25  1  1  0  0  0
 26 38  1  0  0  0  0
 27 32  1  0  0  0  0
 28 31  1  6  0  0  0
 28 32  1  0  0  0  0
 29 30  1  0  0  0  0
 30 31  1  0  0  0  0
 32 26  1  1  0  0  0
 33 35  1  1  0  0  0
 33 28  1  0  0  0  0
 34 33  1  0  0  0  0
 34 27  1  0  0  0  0
 35 36  1  0  0  0  0
 36 29  1  0  0  0  0
 36 37  1  1  0  0  0
 38 39  1  0  0  0  0
M  END
>  <MODEL>
9

>  <REMARK>
 VINA RESULT:      -6.6      1.867      3.972
  Name = 
  12 active torsions:
  status: ('A' for Active; 'I' for Inactive)
    1  A    between atoms: C_2  and  N_19
    2  A    between atoms: C_2  and  C_27
    3  A    between atoms: O_3  and  C_4
    4  A    between atoms: C_4  and  C_18
    5  A    between atoms: C_4  and  C_21
    6  A    between atoms: C_6  and  C_32
    7  A    between atoms: C_14  and  C_17
    8  A    between atoms: C_14  and  C_34
    9  A    between atoms: C_15  and  C_35
   10  A    between atoms: C_18  and  C_32
   11  A    between atoms: C_24  and  C_34
   12  A    between atoms: C_25  and  C_27
                            x       y       z     vdW  Elec       q    Type
                         _______ _______ _______ _____ _____    ______ ____

>  <TORSDO>
F 12

$$$$
