=
 OpenBabel10222417533D

 53 59  0  0  1  0  0  0  0  0999 V2000
  187.0070  177.1550  137.4200 N   0  0  0  0  0  0  0  0  0  0  0  0
  189.2380  176.0730  137.4790 C   0  0  0  0  0  0  0  0  0  0  0  0
  190.0360  173.8500  136.7640 C   0  0  0  0  0  1  0  0  0  0  0  0
  187.5760  174.2510  136.9800 C   0  0  0  0  0  3  0  0  0  0  0  0
  186.4730  174.9230  136.6730 C   0  0  0  0  0  3  0  0  0  0  0  0
  188.2010  177.0460  137.9180 C   0  0  0  0  0  3  0  0  0  0  0  0
  186.5010  176.3650  136.3070 C   0  0  1  0  0  3  0  0  0  0  0  0
  188.9370  174.8190  137.0580 C   0  0  0  0  0  0  0  0  0  0  0  0
  184.5100  177.7490  136.9500 C   0  0  0  0  0  2  0  0  0  0  0  0
  183.3200  177.0160  137.4470 C   0  0  0  0  0  0  0  0  0  0  0  0
  185.1040  176.8310  135.8880 C   0  0  2  0  0  3  0  0  0  0  0  0
  184.1280  175.6630  135.7030 C   0  0  0  0  0  2  0  0  0  0  0  0
  182.4590  177.4470  138.3990 C   0  0  2  0  0  3  0  0  0  0  0  0
  183.1300  175.8020  136.7420 N   0  0  0  0  0  0  0  0  0  0  0  0
  179.7640  175.0900  140.2930 S   0  0  0  0  0  0  0  0  0  0  0  0
  178.9320  174.3300  137.7930 C   0  0  0  0  0  1  0  0  0  0  0  0
  181.2590  176.0290  140.0360 C   0  0  0  0  0  3  0  0  0  0  0  0
  180.2380  176.3280  138.0230 O   0  0  0  0  0  0  0  0  0  0  0  0
  181.3330  176.5780  138.8360 C   0  0  0  0  0  0  0  0  0  0  0  0
  179.2000  175.5700  138.6210 C   0  0  2  0  0  3  0  0  0  0  0  0
  182.0710  179.7960  138.4610 O   0  0  0  0  0  0  0  0  0  0  0  0
  182.5710  178.7900  139.0390 C   0  0  0  0  0  0  0  0  0  0  0  0
  183.2000  178.9580  140.3140 N   0  0  0  0  0  0  0  0  0  0  0  0
  184.4900  178.9950  140.4500 C   0  0  0  0  0  3  0  0  0  0  0  0
  185.0980  179.2020  141.7910 C   0  0  0  0  0  2  0  0  0  0  0  0
  184.4740  178.2540  142.7930 C   0  0  0  0  0  2  0  0  0  0  0  0
  185.5810  178.8310  146.4750 C   0  0  0  0  0  2  0  0  0  0  0  0
  184.7300  178.7410  145.2470 C   0  0  0  0  0  0  0  0  0  0  0  0
  186.7000  177.7930  146.4600 C   0  0  0  0  0  2  0  0  0  0  0  0
  186.4690  177.3830  144.0220 C   0  0  0  0  0  2  0  0  0  0  0  0
  187.4320  177.8230  145.1250 C   0  0  0  0  0  2  0  0  0  0  0  0
  183.5570  179.2030  145.2870 O   0  0  0  0  0  0  0  0  0  0  0  0
  185.2710  178.2170  144.0140 N   0  0  0  0  0  0  0  0  0  0  0  0
  191.3160  176.4480  138.7640 C   0  0  0  0  0  0  0  0  0  0  0  0
  190.6310  176.4040  137.6560 N   0  0  0  0  0  0  0  0  0  0  0  0
  192.7690  176.7830  138.6860 C   0  0  0  0  0  2  0  0  0  0  0  0
  193.3660  176.2010  137.4220 C   0  0  0  0  0  2  0  0  0  0  0  0
  193.5610  174.7710  137.6040 N   0  0  0  0  0  2  0  0  0  0  0  0
  195.9580  175.3790  136.6170 O   0  0  0  0  0  0  0  0  0  0  0  0
  195.8340  174.6920  138.9690 O   0  0  0  0  0  0  0  0  0  0  0  0
  195.2700  174.4610  137.5920 S   0  0  0  0  0  0  0  0  0  0  0  0
  196.7220  172.0820  137.6060 C   0  0  0  0  0  3  0  0  0  0  0  0
  194.7920  170.7440  135.9520 C   0  0  0  0  0  2  0  0  0  0  0  0
  196.5080  170.4110  135.4480 S   0  0  0  0  0  0  0  0  0  0  0  0
  197.1860  170.9860  137.0110 C   0  0  0  0  0  3  0  0  0  0  0  0
  195.5340  172.7960  137.1070 C   0  0  0  0  0  0  0  0  0  0  0  0
  194.6450  172.1870  136.3190 C   0  0  0  0  0  3  0  0  0  0  0  0
  190.7170  176.1980  140.0040 O   0  0  0  0  0  0  0  0  0  0  0  0
  190.3700  177.2140  143.5740 O   0  0  0  0  0  0  0  0  0  0  0  0
  191.6090  176.9230  143.0640 C   0  0  0  0  0  2  0  0  0  0  0  0
  190.3620  176.4590  142.3710 C   0  0  1  0  0  0  0  0  0  0  0  0
  189.3310  177.2770  141.5830 C   0  0  0  0  0  2  0  0  0  0  0  0
  190.6900  177.1660  141.0430 C   0  0  2  0  0  3  0  0  0  0  0  0
  1  6  2  0  0  0  0
  2 35  1  0  0  0  0
  2  6  1  0  0  0  0
  3  8  1  0  0  0  0
  4  8  1  0  0  0  0
  5  4  2  0  0  0  0
  7  5  1  1  0  0  0
  7  1  1  0  0  0  0
  8  2  2  0  0  0  0
  9 10  1  0  0  0  0
 10 13  1  0  0  0  0
 11 12  1  1  0  0  0
 11  7  1  0  0  0  0
 11  9  1  0  0  0  0
 12 14  1  0  0  0  0
 13 19  1  0  0  0  0
 13 22  1  6  0  0  0
 14 10  2  0  0  0  0
 17 15  1  0  0  0  0
 18 20  1  0  0  0  0
 18 19  1  0  0  0  0
 19 17  2  0  0  0  0
 20 16  1  6  0  0  0
 20 15  1  0  0  0  0
 21 22  2  0  0  0  0
 22 23  1  0  0  0  0
 23 24  2  0  0  0  0
 24 25  1  0  0  0  0
 25 26  1  0  0  0  0
 26 33  1  0  0  0  0
 28 32  2  0  0  0  0
 28 27  1  0  0  0  0
 29 27  1  0  0  0  0
 30 31  1  0  0  0  0
 31 29  1  0  0  0  0
 33 30  1  0  0  0  0
 33 28  1  0  0  0  0
 34 48  1  0  0  0  0
 35 34  2  0  0  0  0
 36 34  1  0  0  0  0
 37 38  1  0  0  0  0
 37 36  1  0  0  0  0
 39 41  2  0  0  0  0
 41 38  1  0  0  0  0
 41 40  2  0  0  0  0
 43 47  1  0  0  0  0
 44 43  1  0  0  0  0
 44 45  1  0  0  0  0
 45 42  2  0  0  0  0
 46 41  1  0  0  0  0
 46 42  1  0  0  0  0
 47 46  2  0  0  0  0
 50 49  1  0  0  0  0
 51 52  1  1  0  0  0
 51 50  1  0  0  0  0
 51 49  1  0  0  0  0
 53 48  1  6  0  0  0
 53 52  1  0  0  0  0
 53 51  1  0  0  0  0
M  END
>  <MODEL>
1

>  <REMARK>
 VINA RESULT:      -7.7      0.000      0.000
  Name = 
  15 active torsions:
  status: ('A' for Active; 'I' for Inactive)
    1  A    between atoms: C_10  and  N_32
    2  A    between atoms: C_14  and  C_47
    3  A    between atoms: N_15  and  S_52
    4  A    between atoms: N_15  and  C_53
    5  A    between atoms: C_20  and  C_39
    6  A    between atoms: C_20  and  O_44
    7  A    between atoms: C_26  and  S_52
    8  A    between atoms: C_27  and  C_33
    9  A    between atoms: C_27  and  C_34
   10  A    between atoms: C_33  and  N_38
   11  A    between atoms: C_39  and  C_53
   12  A    between atoms: C_40  and  C_41
   13  A    between atoms: C_40  and  C_48
   14  A    between atoms: O_44  and  C_49
   15  A    between atoms: C_48  and  N_51
                            x       y       z     vdW  Elec       q    Type
                         _______ _______ _______ _____ _____    ______ ____

>  <TORSDO>
F 15

$$$$
=
 OpenBabel10222417533D

 53 59  0  0  1  0  0  0  0  0999 V2000
  189.6600  176.3280  140.9000 N   0  0  0  0  0  0  0  0  0  0  0  0
  189.4410  177.5510  143.0460 C   0  0  0  0  0  0  0  0  0  0  0  0
  190.8220  179.2870  144.1280 C   0  0  0  0  0  1  0  0  0  0  0  0
  191.7730  177.9930  142.2100 C   0  0  0  0  0  3  0  0  0  0  0  0
  191.7280  177.5720  140.9510 C   0  0  0  0  0  3  0  0  0  0  0  0
  189.2070  176.4160  142.1130 C   0  0  0  0  0  3  0  0  0  0  0  0
  190.4430  177.3590  140.2330 C   0  0  1  0  0  3  0  0  0  0  0  0
  190.6030  178.2510  143.0740 C   0  0  0  0  0  0  0  0  0  0  0  0
  189.5320  177.4100  137.8960 C   0  0  0  0  0  2  0  0  0  0  0  0
  189.0020  176.1330  137.3590 C   0  0  0  0  0  0  0  0  0  0  0  0
  190.7090  176.9930  138.7710 C   0  0  2  0  0  3  0  0  0  0  0  0
  190.9080  175.4860  138.5720 C   0  0  0  0  0  3  0  0  0  0  0  0
  187.9520  176.0000  136.5140 C   0  0  0  0  0  0  0  0  0  0  0  0
  189.7850  175.0310  137.7810 N   0  0  0  0  0  0  0  0  0  0  0  0
  187.1680  172.4420  134.7420 S   0  0  0  0  0  0  0  0  0  0  0  0
  184.9980  172.2870  136.4100 C   0  0  0  0  0  1  0  0  0  0  0  0
  187.8030  174.0990  134.9350 C   0  0  0  0  0  3  0  0  0  0  0  0
  186.7580  173.8280  136.9380 O   0  0  0  0  0  0  0  0  0  0  0  0
  187.4970  174.6460  136.0980 C   0  0  0  0  0  0  0  0  0  0  0  0
  186.4920  172.5270  136.4400 C   0  0  2  0  0  3  0  0  0  0  0  0
  187.4580  177.5410  134.7670 O   0  0  0  0  0  0  0  0  0  0  0  0
  187.2170  177.1690  135.9500 C   0  0  0  0  0  0  0  0  0  0  0  0
  186.2140  177.8550  136.7080 N   0  0  0  0  0  0  0  0  0  0  0  0
  185.4000  177.2310  137.5020 C   0  0  0  0  0  3  0  0  0  0  0  0
  184.3940  177.9880  138.2930 C   0  0  0  0  0  2  0  0  0  0  0  0
  183.0380  177.8990  137.6250 C   0  0  0  0  0  2  0  0  0  0  0  0
  179.9310  180.1610  138.2160 C   0  0  0  0  0  2  0  0  0  0  0  0
  180.7820  178.9530  137.9780 C   0  0  0  0  0  0  0  0  0  0  0  0
  180.6640  181.2070  139.0550 C   0  0  0  0  0  2  0  0  0  0  0  0
  182.8860  180.1820  138.6320 C   0  0  0  0  0  2  0  0  0  0  0  0
  182.0550  181.4570  138.4890 C   0  0  0  0  0  2  0  0  0  0  0  0
  180.2170  177.8610  137.6930 O   0  0  0  0  0  0  0  0  0  0  0  0
  182.2220  179.0540  137.9860 N   0  0  0  0  0  0  0  0  0  0  0  0
  188.4460  177.3850  145.3020 C   0  0  0  0  0  0  0  0  0  0  0  0
  188.4690  177.8260  144.0760 N   0  0  0  0  0  0  0  0  0  0  0  0
  187.3450  177.8450  146.2010 C   0  0  0  0  0  2  0  0  0  0  0  0
  186.3960  178.7440  145.4350 C   0  0  0  0  0  2  0  0  0  0  0  0
  185.4870  177.9200  144.6540 N   0  0  0  0  0  2  0  0  0  0  0  0
  185.3260  180.3010  143.4750 O   0  0  0  0  0  0  0  0  0  0  0  0
  185.6470  178.3370  142.0400 O   0  0  0  0  0  0  0  0  0  0  0  0
  184.9700  178.8500  143.2830 S   0  0  0  0  0  0  0  0  0  0  0  0
  182.6530  178.3790  141.8070 C   0  0  0  0  0  3  0  0  0  0  0  0
  180.9730  178.6320  144.1230 C   0  0  0  0  0  2  0  0  0  0  0  0
  180.3080  179.5000  142.6690 S   0  0  0  0  0  0  0  0  0  0  0  0
  181.3720  178.6100  141.5250 C   0  0  0  0  0  3  0  0  0  0  0  0
  183.2290  178.6960  143.1250 C   0  0  0  0  0  0  0  0  0  0  0  0
  182.4520  178.8390  144.2010 C   0  0  0  0  0  3  0  0  0  0  0  0
  189.4170  176.4950  145.7780 O   0  0  0  0  0  0  0  0  0  0  0  0
  192.3360  176.1840  148.0740 O   0  0  0  0  0  0  0  0  0  0  0  0
  192.3890  175.6260  146.8230 C   0  0  0  0  0  2  0  0  0  0  0  0
  191.0760  175.9930  147.4480 C   0  0  1  0  0  0  0  0  0  0  0  0
  190.4750  177.3840  147.6930 C   0  0  0  0  0  2  0  0  0  0  0  0
  190.6570  176.9390  146.3070 C   0  0  2  0  0  3  0  0  0  0  0  0
  1  6  2  0  0  0  0
  2  8  2  0  0  0  0
  2 35  1  0  0  0  0
  4  8  1  0  0  0  0
  5  4  2  0  0  0  0
  6  2  1  0  0  0  0
  7  1  1  0  0  0  0
  7  5  1  1  0  0  0
  8  3  1  0  0  0  0
 10 14  1  0  0  0  0
 10  9  1  0  0  0  0
 11  9  1  6  0  0  0
 11  7  1  0  0  0  0
 12 11  1  0  0  0  0
 13 10  2  0  0  0  0
 14 12  2  0  0  0  0
 15 17  1  0  0  0  0
 15 20  1  0  0  0  0
 17 19  2  0  0  0  0
 19 13  1  0  0  0  0
 19 18  1  0  0  0  0
 20 16  1  6  0  0  0
 20 18  1  0  0  0  0
 21 22  2  0  0  0  0
 22 13  1  0  0  0  0
 22 23  1  0  0  0  0
 23 24  2  0  0  0  0
 24 25  1  0  0  0  0
 26 33  1  0  0  0  0
 26 25  1  0  0  0  0
 27 29  1  0  0  0  0
 28 33  1  0  0  0  0
 28 27  1  0  0  0  0
 31 30  1  0  0  0  0
 31 29  1  0  0  0  0
 32 28  2  0  0  0  0
 33 30  1  0  0  0  0
 34 48  1  0  0  0  0
 34 36  1  0  0  0  0
 35 34  2  0  0  0  0
 37 36  1  0  0  0  0
 38 37  1  0  0  0  0
 40 41  2  0  0  0  0
 41 39  2  0  0  0  0
 41 38  1  0  0  0  0
 42 46  1  0  0  0  0
 43 47  1  0  0  0  0
 44 43  1  0  0  0  0
 45 42  2  0  0  0  0
 45 44  1  0  0  0  0
 46 41  1  0  0  0  0
 46 47  2  0  0  0  0
 50 49  1  0  0  0  0
 51 50  1  1  0  0  0
 51 52  1  0  0  0  0
 51 49  1  0  0  0  0
 53 48  1  1  0  0  0
 53 51  1  0  0  0  0
 53 52  1  0  0  0  0
M  END
>  <MODEL>
2

>  <REMARK>
 VINA RESULT:      -7.4      3.872      9.209
  Name = 
  15 active torsions:
  status: ('A' for Active; 'I' for Inactive)
    1  A    between atoms: C_10  and  N_32
    2  A    between atoms: C_14  and  C_47
    3  A    between atoms: N_15  and  S_52
    4  A    between atoms: N_15  and  C_53
    5  A    between atoms: C_20  and  C_39
    6  A    between atoms: C_20  and  O_44
    7  A    between atoms: C_26  and  S_52
    8  A    between atoms: C_27  and  C_33
    9  A    between atoms: C_27  and  C_34
   10  A    between atoms: C_33  and  N_38
   11  A    between atoms: C_39  and  C_53
   12  A    between atoms: C_40  and  C_41
   13  A    between atoms: C_40  and  C_48
   14  A    between atoms: O_44  and  C_49
   15  A    between atoms: C_48  and  N_51
                            x       y       z     vdW  Elec       q    Type
                         _______ _______ _______ _____ _____    ______ ____

>  <TORSDO>
F 15

$$$$
=
 OpenBabel10222417533D

 53 59  0  0  1  0  0  0  0  0999 V2000
  189.7580  176.3790  141.1090 N   0  0  0  0  0  0  0  0  0  0  0  0
  189.9670  177.3820  143.3670 C   0  0  0  0  0  0  0  0  0  0  0  0
  191.5820  178.9700  144.3470 C   0  0  0  0  0  1  0  0  0  0  0  0
  192.1310  177.8580  142.1740 C   0  0  0  0  0  3  0  0  0  0  0  0
  191.8490  177.5680  140.9090 C   0  0  0  0  0  3  0  0  0  0  0  0
  189.5290  176.3530  142.3860 C   0  0  0  0  0  3  0  0  0  0  0  0
  190.4510  177.4560  140.4150 C   0  0  1  0  0  3  0  0  0  0  0  0
  191.1410  178.0510  143.2540 C   0  0  0  0  0  0  0  0  0  0  0  0
  189.0940  177.6420  138.3130 C   0  0  0  0  0  2  0  0  0  0  0  0
  188.5360  176.3810  137.7660 C   0  0  0  0  0  0  0  0  0  0  0  0
  190.4410  177.2360  138.9010 C   0  0  2  0  0  3  0  0  0  0  0  0
  190.6750  175.7690  138.5220 C   0  0  0  0  0  3  0  0  0  0  0  0
  187.3480  176.2470  137.1290 C   0  0  0  0  0  0  0  0  0  0  0  0
  189.4430  175.3050  137.9200 N   0  0  0  0  0  0  0  0  0  0  0  0
  186.4680  172.7830  135.2220 S   0  0  0  0  0  0  0  0  0  0  0  0
  184.5390  172.4220  137.1370 C   0  0  0  0  0  1  0  0  0  0  0  0
  187.0630  174.4500  135.4500 C   0  0  0  0  0  3  0  0  0  0  0  0
  186.2970  174.0000  137.5460 O   0  0  0  0  0  0  0  0  0  0  0  0
  186.8910  174.9050  136.6790 C   0  0  0  0  0  0  0  0  0  0  0  0
  186.0150  172.7250  136.9930 C   0  0  2  0  0  3  0  0  0  0  0  0
  186.8280  178.2770  135.9980 O   0  0  0  0  0  0  0  0  0  0  0  0
  186.4560  177.4050  136.8340 C   0  0  0  0  0  0  0  0  0  0  0  0
  185.1690  177.5300  137.4470 N   0  0  0  0  0  0  0  0  0  0  0  0
  184.0980  177.0220  136.9190 C   0  0  0  0  0  3  0  0  0  0  0  0
  182.7870  177.1510  137.6070 C   0  0  0  0  0  2  0  0  0  0  0  0
  182.5420  178.5960  137.9880 C   0  0  0  0  0  2  0  0  0  0  0  0
  180.0560  180.0730  140.5860 C   0  0  0  0  0  2  0  0  0  0  0  0
  181.0070  179.9640  139.4350 C   0  0  0  0  0  0  0  0  0  0  0  0
  179.2560  178.7860  140.7780 C   0  0  0  0  0  2  0  0  0  0  0  0
  180.8270  177.4470  139.3980 C   0  0  0  0  0  2  0  0  0  0  0  0
  180.1870  177.5810  140.7790 C   0  0  0  0  0  2  0  0  0  0  0  0
  181.4140  181.0230  138.8830 O   0  0  0  0  0  0  0  0  0  0  0  0
  181.5180  178.6770  139.0240 N   0  0  0  0  0  0  0  0  0  0  0  0
  189.4110  177.0510  145.7530 C   0  0  0  0  0  0  0  0  0  0  0  0
  189.2020  177.5700  144.5760 N   0  0  0  0  0  0  0  0  0  0  0  0
  188.4950  177.4300  146.8690 C   0  0  0  0  0  2  0  0  0  0  0  0
  187.4460  178.4010  146.3680 C   0  0  0  0  0  2  0  0  0  0  0  0
  186.1800  177.7000  146.2210 N   0  0  0  0  0  2  0  0  0  0  0  0
  183.6700  178.5780  146.0950 O   0  0  0  0  0  0  0  0  0  0  0  0
  185.4690  180.2180  145.7870 O   0  0  0  0  0  0  0  0  0  0  0  0
  185.0410  178.8010  145.5120 S   0  0  0  0  0  0  0  0  0  0  0  0
  186.2320  178.1620  143.0740 C   0  0  0  0  0  3  0  0  0  0  0  0
  183.7260  178.2730  141.6740 C   0  0  0  0  0  2  0  0  0  0  0  0
  185.0760  179.0960  140.7740 S   0  0  0  0  0  0  0  0  0  0  0  0
  186.3540  178.2960  141.7550 C   0  0  0  0  0  3  0  0  0  0  0  0
  184.9890  178.5150  143.7810 C   0  0  0  0  0  0  0  0  0  0  0  0
  183.8250  178.5920  143.1320 C   0  0  0  0  0  3  0  0  0  0  0  0
  190.4610  176.1520  145.9790 O   0  0  0  0  0  0  0  0  0  0  0  0
  192.8630  176.7520  148.7650 O   0  0  0  0  0  0  0  0  0  0  0  0
  191.6830  177.4500  148.7190 C   0  0  0  0  0  2  0  0  0  0  0  0
  192.2240  176.7680  147.4960 C   0  0  1  0  0  0  0  0  0  0  0  0
  192.2970  175.2690  147.1750 C   0  0  0  0  0  2  0  0  0  0  0  0
  190.9740  175.8960  147.2780 C   0  0  2  0  0  3  0  0  0  0  0  0
  1  6  2  0  0  0  0
  2 35  1  0  0  0  0
  4  8  1  0  0  0  0
  5  4  2  0  0  0  0
  6  2  1  0  0  0  0
  7  5  1  1  0  0  0
  7  1  1  0  0  0  0
  8  2  2  0  0  0  0
  8  3  1  0  0  0  0
 10 14  1  0  0  0  0
 10  9  1  0  0  0  0
 11  9  1  1  0  0  0
 11  7  1  0  0  0  0
 12 11  1  0  0  0  0
 13 10  2  0  0  0  0
 14 12  2  0  0  0  0
 15 17  1  0  0  0  0
 15 20  1  0  0  0  0
 17 19  2  0  0  0  0
 19 13  1  0  0  0  0
 19 18  1  0  0  0  0
 20 16  1  6  0  0  0
 20 18  1  0  0  0  0
 21 22  2  0  0  0  0
 22 13  1  0  0  0  0
 22 23  1  0  0  0  0
 24 23  2  0  0  0  0
 24 25  1  0  0  0  0
 25 26  1  0  0  0  0
 26 33  1  0  0  0  0
 27 29  1  0  0  0  0
 28 27  1  0  0  0  0
 29 31  1  0  0  0  0
 30 31  1  0  0  0  0
 32 28  2  0  0  0  0
 33 30  1  0  0  0  0
 33 28  1  0  0  0  0
 34 48  1  0  0  0  0
 34 36  1  0  0  0  0
 35 34  2  0  0  0  0
 37 36  1  0  0  0  0
 38 37  1  0  0  0  0
 41 40  2  0  0  0  0
 41 39  2  0  0  0  0
 41 38  1  0  0  0  0
 42 46  1  0  0  0  0
 43 47  1  0  0  0  0
 44 43  1  0  0  0  0
 44 45  1  0  0  0  0
 45 42  2  0  0  0  0
 46 41  1  0  0  0  0
 47 46  2  0  0  0  0
 50 49  1  0  0  0  0
 51 52  1  6  0  0  0
 51 50  1  0  0  0  0
 51 49  1  0  0  0  0
 52 53  1  0  0  0  0
 53 48  1  6  0  0  0
 53 51  1  0  0  0  0
M  END
>  <MODEL>
3

>  <REMARK>
 VINA RESULT:      -7.3      3.970      8.613
  Name = 
  15 active torsions:
  status: ('A' for Active; 'I' for Inactive)
    1  A    between atoms: C_10  and  N_32
    2  A    between atoms: C_14  and  C_47
    3  A    between atoms: N_15  and  S_52
    4  A    between atoms: N_15  and  C_53
    5  A    between atoms: C_20  and  C_39
    6  A    between atoms: C_20  and  O_44
    7  A    between atoms: C_26  and  S_52
    8  A    between atoms: C_27  and  C_33
    9  A    between atoms: C_27  and  C_34
   10  A    between atoms: C_33  and  N_38
   11  A    between atoms: C_39  and  C_53
   12  A    between atoms: C_40  and  C_41
   13  A    between atoms: C_40  and  C_48
   14  A    between atoms: O_44  and  C_49
   15  A    between atoms: C_48  and  N_51
                            x       y       z     vdW  Elec       q    Type
                         _______ _______ _______ _____ _____    ______ ____

>  <TORSDO>
F 15

$$$$
=
 OpenBabel10222417533D

 53 59  0  0  1  0  0  0  0  0999 V2000
  183.4210  179.0780  140.0890 N   0  0  0  0  0  0  0  0  0  0  0  0
  185.2810  178.7280  141.6910 C   0  0  0  0  0  0  0  0  0  0  0  0
  185.3340  178.1740  144.0950 C   0  0  0  0  0  1  0  0  0  0  0  0
  183.1880  178.9490  143.0690 C   0  0  0  0  0  3  0  0  0  0  0  0
  182.2190  178.8360  142.1680 C   0  0  0  0  0  3  0  0  0  0  0  0
  184.6520  179.2660  140.4550 C   0  0  0  0  0  3  0  0  0  0  0  0
  182.4580  178.2630  140.8160 C   0  0  1  0  0  3  0  0  0  0  0  0
  184.6050  178.5900  142.8590 C   0  0  0  0  0  0  0  0  0  0  0  0
  181.4030  177.8900  138.5710 C   0  0  0  0  0  2  0  0  0  0  0  0
  180.8580  179.0860  137.8840 C   0  0  0  0  0  0  0  0  0  0  0  0
  181.1380  178.1500  140.0500 C   0  0  2  0  0  3  0  0  0  0  0  0
  180.2970  179.4280  140.1400 C   0  0  0  0  0  3  0  0  0  0  0  0
  180.8540  179.3030  136.5460 C   0  0  0  0  0  0  0  0  0  0  0  0
  180.2510  179.9770  138.8010 N   0  0  0  0  0  0  0  0  0  0  0  0
  178.9380  182.3010  134.6100 S   0  0  0  0  0  0  0  0  0  0  0  0
  180.9890  183.9170  135.4460 C   0  0  0  0  0  1  0  0  0  0  0  0
  179.4470  180.6380  135.0080 C   0  0  0  0  0  3  0  0  0  0  0  0
  180.6540  181.8100  136.5400 O   0  0  0  0  0  0  0  0  0  0  0  0
  180.3170  180.5780  135.9990 C   0  0  0  0  0  0  0  0  0  0  0  0
  179.9780  182.9230  135.9790 C   0  0  2  0  0  3  0  0  0  0  0  0
  182.2850  178.6220  134.7690 O   0  0  0  0  0  0  0  0  0  0  0  0
  181.3590  178.2990  135.5650 C   0  0  0  0  0  0  0  0  0  0  0  0
  180.8420  176.9640  135.5320 N   0  0  0  0  0  0  0  0  0  0  0  0
  181.5950  175.9380  135.2810 C   0  0  0  0  0  3  0  0  0  0  0  0
  181.0220  174.5660  135.2880 C   0  0  0  0  0  2  0  0  0  0  0  0
  181.3550  173.8730  136.5920 C   0  0  0  0  0  2  0  0  0  0  0  0
  185.1560  173.7150  137.3960 C   0  0  0  0  0  2  0  0  0  0  0  0
  183.7010  174.0570  137.4800 C   0  0  0  0  0  0  0  0  0  0  0  0
  185.3710  172.3130  136.8290 C   0  0  0  0  0  2  0  0  0  0  0  0
  183.0700  172.1890  135.9060 C   0  0  0  0  0  2  0  0  0  0  0  0
  184.5560  172.1270  135.5560 C   0  0  0  0  0  2  0  0  0  0  0  0
  183.3350  174.9540  138.2880 O   0  0  0  0  0  0  0  0  0  0  0  0
  182.7470  173.4370  136.5890 N   0  0  0  0  0  0  0  0  0  0  0  0
  187.5350  178.4860  140.7050 C   0  0  0  0  0  0  0  0  0  0  0  0
  186.7040  178.4910  141.7090 N   0  0  0  0  0  0  0  0  0  0  0  0
  188.9830  178.2510  140.9820 C   0  0  0  0  0  2  0  0  0  0  0  0
  189.2420  178.3310  142.4720 C   0  0  0  0  0  2  0  0  0  0  0  0
  190.6280  177.9780  142.7340 N   0  0  0  0  0  2  0  0  0  0  0  0
  189.8000  175.4550  142.9110 O   0  0  0  0  0  0  0  0  0  0  0  0
  192.0520  175.9760  143.7340 O   0  0  0  0  0  0  0  0  0  0  0  0
  190.6400  176.4850  143.6190 S   0  0  0  0  0  0  0  0  0  0  0  0
  188.5220  176.9590  145.3680 C   0  0  0  0  0  3  0  0  0  0  0  0
  190.2500  176.9630  147.6630 C   0  0  0  0  0  2  0  0  0  0  0  0
  189.0300  178.3120  147.6940 S   0  0  0  0  0  0  0  0  0  0  0  0
  187.9940  177.5410  146.4430 C   0  0  0  0  0  3  0  0  0  0  0  0
  189.9760  176.7760  145.2170 C   0  0  0  0  0  0  0  0  0  0  0  0
  190.7870  176.8000  146.2770 C   0  0  0  0  0  3  0  0  0  0  0  0
  187.0940  178.6870  139.3910 O   0  0  0  0  0  0  0  0  0  0  0  0
  187.0770  177.6380  135.8140 O   0  0  0  0  0  0  0  0  0  0  0  0
  188.1330  178.3600  136.3090 C   0  0  0  0  0  2  0  0  0  0  0  0
  186.8150  178.3300  137.0270 C   0  0  1  0  0  0  0  0  0  0  0  0
  186.1710  177.1850  137.8190 C   0  0  0  0  0  2  0  0  0  0  0  0
  187.4040  177.7830  138.3400 C   0  0  2  0  0  3  0  0  0  0  0  0
  1  6  2  0  0  0  0
  1  7  1  0  0  0  0
  2 35  1  0  0  0  0
  2  8  2  0  0  0  0
  5  4  2  0  0  0  0
  6  2  1  0  0  0  0
  7  5  1  1  0  0  0
  8  4  1  0  0  0  0
  8  3  1  0  0  0  0
 10  9  1  0  0  0  0
 10 14  1  0  0  0  0
 11  9  1  6  0  0  0
 11 12  1  0  0  0  0
 11  7  1  0  0  0  0
 13 10  2  0  0  0  0
 14 12  2  0  0  0  0
 15 17  1  0  0  0  0
 15 20  1  0  0  0  0
 17 19  2  0  0  0  0
 19 18  1  0  0  0  0
 19 13  1  0  0  0  0
 20 16  1  6  0  0  0
 20 18  1  0  0  0  0
 21 22  2  0  0  0  0
 22 13  1  0  0  0  0
 23 22  1  0  0  0  0
 24 25  1  0  0  0  0
 24 23  2  0  0  0  0
 25 26  1  0  0  0  0
 27 28  1  0  0  0  0
 28 32  2  0  0  0  0
 29 27  1  0  0  0  0
 30 33  1  0  0  0  0
 31 30  1  0  0  0  0
 31 29  1  0  0  0  0
 33 26  1  0  0  0  0
 33 28  1  0  0  0  0
 34 36  1  0  0  0  0
 34 35  2  0  0  0  0
 36 37  1  0  0  0  0
 37 38  1  0  0  0  0
 38 41  1  0  0  0  0
 39 41  2  0  0  0  0
 41 40  2  0  0  0  0
 41 46  1  0  0  0  0
 42 45  2  0  0  0  0
 43 44  1  0  0  0  0
 45 44  1  0  0  0  0
 46 42  1  0  0  0  0
 46 47  2  0  0  0  0
 47 43  1  0  0  0  0
 48 34  1  0  0  0  0
 49 50  1  0  0  0  0
 49 51  1  0  0  0  0
 51 50  1  6  0  0  0
 51 52  1  0  0  0  0
 51 53  1  0  0  0  0
 52 53  1  0  0  0  0
 53 48  1  1  0  0  0
M  END
>  <MODEL>
4

>  <REMARK>
 VINA RESULT:      -7.1      4.935      8.195
  Name = 
  15 active torsions:
  status: ('A' for Active; 'I' for Inactive)
    1  A    between atoms: C_10  and  N_32
    2  A    between atoms: C_14  and  C_47
    3  A    between atoms: N_15  and  S_52
    4  A    between atoms: N_15  and  C_53
    5  A    between atoms: C_20  and  C_39
    6  A    between atoms: C_20  and  O_44
    7  A    between atoms: C_26  and  S_52
    8  A    between atoms: C_27  and  C_33
    9  A    between atoms: C_27  and  C_34
   10  A    between atoms: C_33  and  N_38
   11  A    between atoms: C_39  and  C_53
   12  A    between atoms: C_40  and  C_41
   13  A    between atoms: C_40  and  C_48
   14  A    between atoms: O_44  and  C_49
   15  A    between atoms: C_48  and  N_51
                            x       y       z     vdW  Elec       q    Type
                         _______ _______ _______ _____ _____    ______ ____

>  <TORSDO>
F 15

$$$$
=
 OpenBabel10222417533D

 53 59  0  0  1  0  0  0  0  0999 V2000
  189.6920  176.4350  141.0670 N   0  0  0  0  0  0  0  0  0  0  0  0
  189.7560  177.5160  143.2980 C   0  0  0  0  0  0  0  0  0  0  0  0
  191.3180  179.1220  144.3330 C   0  0  0  0  0  1  0  0  0  0  0  0
  192.0030  177.9280  142.2440 C   0  0  0  0  0  3  0  0  0  0  0  0
  191.8070  177.5950  140.9730 C   0  0  0  0  0  3  0  0  0  0  0  0
  189.3740  176.4570  142.3260 C   0  0  0  0  0  3  0  0  0  0  0  0
  190.4450  177.4800  140.3870 C   0  0  1  0  0  3  0  0  0  0  0  0
  190.9440  178.1700  143.2440 C   0  0  0  0  0  0  0  0  0  0  0  0
  189.2220  177.5550  138.1970 C   0  0  0  0  0  2  0  0  0  0  0  0
  188.7310  176.2610  137.6640 C   0  0  0  0  0  0  0  0  0  0  0  0
  190.5380  177.2050  138.8840 C   0  0  2  0  0  3  0  0  0  0  0  0
  190.8310  175.7320  138.5760 C   0  0  0  0  0  3  0  0  0  0  0  0
  187.5890  176.0730  136.9580 C   0  0  0  0  0  0  0  0  0  0  0  0
  189.6510  175.2150  137.9150 N   0  0  0  0  0  0  0  0  0  0  0  0
  186.9760  172.4940  135.1630 S   0  0  0  0  0  0  0  0  0  0  0  0
  184.7820  172.2510  136.7890 C   0  0  0  0  0  1  0  0  0  0  0  0
  187.5440  174.1730  135.3720 C   0  0  0  0  0  3  0  0  0  0  0  0
  186.4720  173.8550  137.3540 O   0  0  0  0  0  0  0  0  0  0  0  0
  187.1950  174.7040  136.5300 C   0  0  0  0  0  0  0  0  0  0  0  0
  186.2650  172.5470  136.8470 C   0  0  2  0  0  3  0  0  0  0  0  0
  187.1970  178.2960  136.2010 O   0  0  0  0  0  0  0  0  0  0  0  0
  186.6910  177.1960  136.5640 C   0  0  0  0  0  0  0  0  0  0  0  0
  185.2680  177.0430  136.5480 N   0  0  0  0  0  0  0  0  0  0  0  0
  184.5700  177.1740  135.4620 C   0  0  0  0  0  3  0  0  0  0  0  0
  183.0970  176.9750  135.4880 C   0  0  0  0  0  2  0  0  0  0  0  0
  182.7760  175.5160  135.7350 C   0  0  0  0  0  2  0  0  0  0  0  0
  179.5740  174.8710  137.8450 C   0  0  0  0  0  2  0  0  0  0  0  0
  180.5410  174.8880  136.7020 C   0  0  0  0  0  0  0  0  0  0  0  0
  180.2950  174.7820  139.1890 C   0  0  0  0  0  2  0  0  0  0  0  0
  182.4740  175.4700  138.2160 C   0  0  0  0  0  2  0  0  0  0  0  0
  181.4110  175.8160  139.2590 C   0  0  0  0  0  2  0  0  0  0  0  0
  180.1360  174.5340  135.5610 O   0  0  0  0  0  0  0  0  0  0  0  0
  181.8850  175.3840  136.8830 N   0  0  0  0  0  0  0  0  0  0  0  0
  189.0050  177.2430  145.6380 C   0  0  0  0  0  0  0  0  0  0  0  0
  188.9110  177.7560  144.4430 N   0  0  0  0  0  0  0  0  0  0  0  0
  188.0260  177.6790  146.6760 C   0  0  0  0  0  2  0  0  0  0  0  0
  187.0350  178.6530  146.0740 C   0  0  0  0  0  2  0  0  0  0  0  0
  185.8170  177.9380  145.7250 N   0  0  0  0  0  2  0  0  0  0  0  0
  183.3670  178.9420  145.4520 O   0  0  0  0  0  0  0  0  0  0  0  0
  185.2660  180.4550  145.0960 O   0  0  0  0  0  0  0  0  0  0  0  0
  184.7650  179.0480  144.9030 S   0  0  0  0  0  0  0  0  0  0  0  0
  186.0290  178.4080  142.5020 C   0  0  0  0  0  3  0  0  0  0  0  0
  183.5290  178.1090  141.1180 C   0  0  0  0  0  2  0  0  0  0  0  0
  184.7650  179.0360  140.1560 S   0  0  0  0  0  0  0  0  0  0  0  0
  186.1330  178.4700  141.1760 C   0  0  0  0  0  3  0  0  0  0  0  0
  184.7510  178.6460  143.1950 C   0  0  0  0  0  0  0  0  0  0  0  0
  183.5860  178.5320  142.5520 C   0  0  0  0  0  3  0  0  0  0  0  0
  189.9910  176.2980  145.9520 O   0  0  0  0  0  0  0  0  0  0  0  0
  192.7980  175.9380  148.3770 O   0  0  0  0  0  0  0  0  0  0  0  0
  192.8290  175.2510  147.1910 C   0  0  0  0  0  2  0  0  0  0  0  0
  191.5420  175.8090  147.7250 C   0  0  1  0  0  0  0  0  0  0  0  0
  191.0810  177.2710  147.8080 C   0  0  0  0  0  2  0  0  0  0  0  0
  191.2550  176.6690  146.4810 C   0  0  2  0  0  3  0  0  0  0  0  0
  1  6  2  0  0  0  0
  2 35  1  0  0  0  0
  4  8  1  0  0  0  0
  5  4  2  0  0  0  0
  6  2  1  0  0  0  0
  7  5  1  1  0  0  0
  7  1  1  0  0  0  0
  8  2  2  0  0  0  0
  8  3  1  0  0  0  0
 10 14  1  0  0  0  0
 10  9  1  0  0  0  0
 11  9  1  6  0  0  0
 11  7  1  0  0  0  0
 12 11  1  0  0  0  0
 13 10  2  0  0  0  0
 14 12  2  0  0  0  0
 15 17  1  0  0  0  0
 15 20  1  0  0  0  0
 17 19  2  0  0  0  0
 19 13  1  0  0  0  0
 19 18  1  0  0  0  0
 20 16  1  6  0  0  0
 20 18  1  0  0  0  0
 21 22  2  0  0  0  0
 22 13  1  0  0  0  0
 23 22  1  0  0  0  0
 24 25  1  0  0  0  0
 24 23  2  0  0  0  0
 25 26  1  0  0  0  0
 26 33  1  0  0  0  0
 27 29  1  0  0  0  0
 28 33  1  0  0  0  0
 28 27  1  0  0  0  0
 29 31  1  0  0  0  0
 30 31  1  0  0  0  0
 32 28  2  0  0  0  0
 33 30  1  0  0  0  0
 34 48  1  0  0  0  0
 34 36  1  0  0  0  0
 35 34  2  0  0  0  0
 37 36  1  0  0  0  0
 38 37  1  0  0  0  0
 41 40  2  0  0  0  0
 41 39  2  0  0  0  0
 41 38  1  0  0  0  0
 42 46  1  0  0  0  0
 43 47  1  0  0  0  0
 44 43  1  0  0  0  0
 44 45  1  0  0  0  0
 45 42  2  0  0  0  0
 46 41  1  0  0  0  0
 47 46  2  0  0  0  0
 50 49  1  0  0  0  0
 51 50  1  1  0  0  0
 51 52  1  0  0  0  0
 51 49  1  0  0  0  0
 53 48  1  1  0  0  0
 53 51  1  0  0  0  0
 53 52  1  0  0  0  0
M  END
>  <MODEL>
5

>  <REMARK>
 VINA RESULT:      -6.9      3.914      8.972
  Name = 
  15 active torsions:
  status: ('A' for Active; 'I' for Inactive)
    1  A    between atoms: C_10  and  N_32
    2  A    between atoms: C_14  and  C_47
    3  A    between atoms: N_15  and  S_52
    4  A    between atoms: N_15  and  C_53
    5  A    between atoms: C_20  and  C_39
    6  A    between atoms: C_20  and  O_44
    7  A    between atoms: C_26  and  S_52
    8  A    between atoms: C_27  and  C_33
    9  A    between atoms: C_27  and  C_34
   10  A    between atoms: C_33  and  N_38
   11  A    between atoms: C_39  and  C_53
   12  A    between atoms: C_40  and  C_41
   13  A    between atoms: C_40  and  C_48
   14  A    between atoms: O_44  and  C_49
   15  A    between atoms: C_48  and  N_51
                            x       y       z     vdW  Elec       q    Type
                         _______ _______ _______ _____ _____    ______ ____

>  <TORSDO>
F 15

$$$$
=
 OpenBabel10222417533D

 53 59  0  0  1  0  0  0  0  0999 V2000
  184.2770  179.0120  140.7760 N   0  0  0  0  0  0  0  0  0  0  0  0
  186.3130  178.3770  142.0400 C   0  0  0  0  0  0  0  0  0  0  0  0
  186.6640  177.5650  144.3440 C   0  0  0  0  0  1  0  0  0  0  0  0
  184.4600  178.5770  143.7300 C   0  0  0  0  0  3  0  0  0  0  0  0
  183.3670  178.6230  142.9770 C   0  0  0  0  0  3  0  0  0  0  0  0
  185.5590  179.0820  140.9700 C   0  0  0  0  0  3  0  0  0  0  0  0
  183.3670  178.1850  141.5560 C   0  0  1  0  0  3  0  0  0  0  0  0
  185.8010  178.1560  143.2770 C   0  0  0  0  0  0  0  0  0  0  0  0
  181.9870  178.3120  139.4640 C   0  0  0  0  0  2  0  0  0  0  0  0
  181.3800  179.6280  139.1460 C   0  0  0  0  0  0  0  0  0  0  0  0
  181.9470  178.2370  140.9870 C   0  0  2  0  0  3  0  0  0  0  0  0
  181.1640  179.4590  141.4800 C   0  0  0  0  0  3  0  0  0  0  0  0
  181.1870  180.1360  137.9050 C   0  0  0  0  0  0  0  0  0  0  0  0
  180.9380  180.2910  140.3160 N   0  0  0  0  0  0  0  0  0  0  0  0
  178.9310  183.4880  137.6190 S   0  0  0  0  0  0  0  0  0  0  0  0
  181.0340  184.5760  136.2370 C   0  0  0  0  0  1  0  0  0  0  0  0
  179.3170  181.7540  137.7920 C   0  0  0  0  0  3  0  0  0  0  0  0
  181.4110  182.6180  137.5690 O   0  0  0  0  0  0  0  0  0  0  0  0
  180.6120  181.4980  137.7370 C   0  0  0  0  0  0  0  0  0  0  0  0
  180.7200  183.8560  137.5320 C   0  0  2  0  0  3  0  0  0  0  0  0
  180.9890  179.7230  135.5680 O   0  0  0  0  0  0  0  0  0  0  0  0
  181.5160  179.3780  136.6630 C   0  0  0  0  0  0  0  0  0  0  0  0
  182.4460  178.2900  136.6780 N   0  0  0  0  0  0  0  0  0  0  0  0
  182.6270  177.5200  135.6490 C   0  0  0  0  0  3  0  0  0  0  0  0
  183.6270  176.4210  135.7000 C   0  0  0  0  0  2  0  0  0  0  0  0
  183.0470  175.2270  136.4280 C   0  0  0  0  0  2  0  0  0  0  0  0
  184.4850  171.6350  136.8090 C   0  0  0  0  0  2  0  0  0  0  0  0
  183.5300  172.7870  136.8010 C   0  0  0  0  0  0  0  0  0  0  0  0
  185.5580  171.7880  135.7340 C   0  0  0  0  0  2  0  0  0  0  0  0
  185.1040  174.2110  135.4360 C   0  0  0  0  0  2  0  0  0  0  0  0
  186.1730  173.1800  135.7950 C   0  0  0  0  0  2  0  0  0  0  0  0
  182.3820  172.6270  137.3010 O   0  0  0  0  0  0  0  0  0  0  0  0
  183.9430  174.0820  136.3110 N   0  0  0  0  0  0  0  0  0  0  0  0
  188.2720  177.6380  140.7260 C   0  0  0  0  0  0  0  0  0  0  0  0
  187.7020  178.0520  141.8220 N   0  0  0  0  0  0  0  0  0  0  0  0
  189.7470  177.4020  140.7380 C   0  0  0  0  0  2  0  0  0  0  0  0
  190.1920  176.9910  142.1260 C   0  0  0  0  0  2  0  0  0  0  0  0
  191.3580  177.7740  142.5030 N   0  0  0  0  0  2  0  0  0  0  0  0
  192.0330  179.6000  144.3180 O   0  0  0  0  0  0  0  0  0  0  0  0
  189.6470  179.1080  144.0290 O   0  0  0  0  0  0  0  0  0  0  0  0
  191.0290  178.5130  144.0390 S   0  0  0  0  0  0  0  0  0  0  0  0
  190.2730  177.3800  146.4720 C   0  0  0  0  0  3  0  0  0  0  0  0
  192.0600  175.1560  146.1380 C   0  0  0  0  0  2  0  0  0  0  0  0
  192.0990  175.8480  147.8200 S   0  0  0  0  0  0  0  0  0  0  0  0
  190.5480  176.7320  147.6010 C   0  0  0  0  0  3  0  0  0  0  0  0
  191.1440  177.2840  145.2870 C   0  0  0  0  0  0  0  0  0  0  0  0
  191.9940  176.2650  145.1370 C   0  0  0  0  0  3  0  0  0  0  0  0
  187.5320  177.4080  139.5590 O   0  0  0  0  0  0  0  0  0  0  0  0
  187.2470  177.5700  135.8470 O   0  0  0  0  0  0  0  0  0  0  0  0
  186.8960  178.6570  136.6070 C   0  0  0  0  0  2  0  0  0  0  0  0
  186.9950  177.2900  137.2160 C   0  0  1  0  0  0  0  0  0  0  0  0
  188.2460  176.4530  137.5200 C   0  0  0  0  0  2  0  0  0  0  0  0
  188.0430  177.7000  138.2670 C   0  0  2  0  0  3  0  0  0  0  0  0
  1  6  2  0  0  0  0
  1  7  1  0  0  0  0
  2  8  2  0  0  0  0
  5  4  2  0  0  0  0
  6  2  1  0  0  0  0
  7  5  1  1  0  0  0
  8  4  1  0  0  0  0
  8  3  1  0  0  0  0
 10  9  1  0  0  0  0
 10 14  1  0  0  0  0
 11  9  1  6  0  0  0
 11 12  1  0  0  0  0
 11  7  1  0  0  0  0
 13 10  2  0  0  0  0
 14 12  2  0  0  0  0
 15 17  1  0  0  0  0
 18 19  1  0  0  0  0
 19 17  2  0  0  0  0
 19 13  1  0  0  0  0
 20 16  1  6  0  0  0
 20 18  1  0  0  0  0
 20 15  1  0  0  0  0
 21 22  2  0  0  0  0
 22 23  1  0  0  0  0
 22 13  1  0  0  0  0
 24 25  1  0  0  0  0
 24 23  2  0  0  0  0
 25 26  1  0  0  0  0
 28 27  1  0  0  0  0
 28 32  2  0  0  0  0
 29 31  1  0  0  0  0
 29 27  1  0  0  0  0
 30 31  1  0  0  0  0
 30 33  1  0  0  0  0
 33 26  1  0  0  0  0
 33 28  1  0  0  0  0
 34 36  1  0  0  0  0
 34 35  2  0  0  0  0
 35  2  1  0  0  0  0
 36 37  1  0  0  0  0
 37 38  1  0  0  0  0
 38 41  1  0  0  0  0
 40 41  2  0  0  0  0
 41 39  2  0  0  0  0
 41 46  1  0  0  0  0
 42 45  2  0  0  0  0
 43 44  1  0  0  0  0
 45 44  1  0  0  0  0
 46 42  1  0  0  0  0
 47 46  2  0  0  0  0
 47 43  1  0  0  0  0
 48 34  1  0  0  0  0
 49 50  1  0  0  0  0
 49 51  1  0  0  0  0
 51 50  1  1  0  0  0
 51 52  1  0  0  0  0
 51 53  1  0  0  0  0
 52 53  1  0  0  0  0
 53 48  1  1  0  0  0
M  END
>  <MODEL>
6

>  <REMARK>
 VINA RESULT:      -6.7      4.782      7.964
  Name = 
  15 active torsions:
  status: ('A' for Active; 'I' for Inactive)
    1  A    between atoms: C_10  and  N_32
    2  A    between atoms: C_14  and  C_47
    3  A    between atoms: N_15  and  S_52
    4  A    between atoms: N_15  and  C_53
    5  A    between atoms: C_20  and  C_39
    6  A    between atoms: C_20  and  O_44
    7  A    between atoms: C_26  and  S_52
    8  A    between atoms: C_27  and  C_33
    9  A    between atoms: C_27  and  C_34
   10  A    between atoms: C_33  and  N_38
   11  A    between atoms: C_39  and  C_53
   12  A    between atoms: C_40  and  C_41
   13  A    between atoms: C_40  and  C_48
   14  A    between atoms: O_44  and  C_49
   15  A    between atoms: C_48  and  N_51
                            x       y       z     vdW  Elec       q    Type
                         _______ _______ _______ _____ _____    ______ ____

>  <TORSDO>
F 15

$$$$
=
 OpenBabel10222417533D

 53 59  0  0  1  0  0  0  0  0999 V2000
  184.7030  178.9870  140.7320 N   0  0  0  0  0  0  0  0  0  0  0  0
  186.9730  178.4670  141.5840 C   0  0  0  0  0  0  0  0  0  0  0  0
  187.7770  177.4570  143.6870 C   0  0  0  0  0  1  0  0  0  0  0  0
  185.4110  178.2570  143.5460 C   0  0  0  0  0  3  0  0  0  0  0  0
  184.2110  178.2530  142.9780 C   0  0  0  0  0  3  0  0  0  0  0  0
  185.9850  179.1890  140.7380 C   0  0  0  0  0  3  0  0  0  0  0  0
  184.0220  177.9760  141.5290 C   0  0  1  0  0  3  0  0  0  0  0  0
  186.6950  178.0530  142.8460 C   0  0  0  0  0  0  0  0  0  0  0  0
  182.3310  177.7250  139.6920 C   0  0  0  0  0  2  0  0  0  0  0  0
  181.6380  178.9600  139.2510 C   0  0  0  0  0  0  0  0  0  0  0  0
  182.5300  177.9180  141.1920 C   0  0  2  0  0  3  0  0  0  0  0  0
  181.7910  179.2030  141.5840 C   0  0  0  0  0  3  0  0  0  0  0  0
  181.2380  179.2410  137.9870 C   0  0  0  0  0  0  0  0  0  0  0  0
  181.3600  179.8160  140.3450 N   0  0  0  0  0  0  0  0  0  0  0  0
  178.9330  182.3560  136.8080 S   0  0  0  0  0  0  0  0  0  0  0  0
  181.1540  183.9180  137.1910 C   0  0  0  0  0  1  0  0  0  0  0  0
  179.5020  180.6710  136.9530 C   0  0  0  0  0  3  0  0  0  0  0  0
  181.0800  181.7420  138.1950 O   0  0  0  0  0  0  0  0  0  0  0  0
  180.5980  180.5480  137.6810 C   0  0  0  0  0  0  0  0  0  0  0  0
  180.3000  182.8890  137.9010 C   0  0  2  0  0  3  0  0  0  0  0  0
  182.2210  178.5330  135.9370 O   0  0  0  0  0  0  0  0  0  0  0  0
  181.3960  178.2780  136.8600 C   0  0  0  0  0  0  0  0  0  0  0  0
  180.6610  177.0500  136.8190 N   0  0  0  0  0  0  0  0  0  0  0  0
  181.2320  175.9100  136.5790 C   0  0  0  0  0  3  0  0  0  0  0  0
  180.4340  174.6550  136.5770 C   0  0  0  0  0  2  0  0  0  0  0  0
  180.8400  173.7850  135.4060 C   0  0  0  0  0  2  0  0  0  0  0  0
  183.0780  170.8930  136.7260 C   0  0  0  0  0  2  0  0  0  0  0  0
  181.8830  171.6580  136.2480 C   0  0  0  0  0  0  0  0  0  0  0  0
  184.3600  171.3730  136.0480 C   0  0  0  0  0  2  0  0  0  0  0  0
  183.3200  173.4960  135.2880 C   0  0  0  0  0  2  0  0  0  0  0  0
  184.4550  172.8920  136.1130 C   0  0  0  0  0  2  0  0  0  0  0  0
  180.7420  171.1330  136.3660 O   0  0  0  0  0  0  0  0  0  0  0  0
  182.0250  173.0050  135.7470 N   0  0  0  0  0  0  0  0  0  0  0  0
  188.7640  177.7550  140.0370 C   0  0  0  0  0  0  0  0  0  0  0  0
  188.3330  178.3370  141.1200 N   0  0  0  0  0  0  0  0  0  0  0  0
  190.2300  177.7850  139.7510 C   0  0  0  0  0  2  0  0  0  0  0  0
  190.7110  176.3960  139.3860 C   0  0  0  0  0  2  0  0  0  0  0  0
  191.9330  176.5060  138.6040 N   0  0  0  0  0  2  0  0  0  0  0  0
  190.8960  174.2810  137.5750 O   0  0  0  0  0  0  0  0  0  0  0  0
  191.1940  176.2000  136.0750 O   0  0  0  0  0  0  0  0  0  0  0  0
  191.7870  175.4470  137.2360 S   0  0  0  0  0  0  0  0  0  0  0  0
  194.2580  174.3280  137.8770 C   0  0  0  0  0  3  0  0  0  0  0  0
  195.0960  174.2870  135.1290 C   0  0  0  0  0  2  0  0  0  0  0  0
  196.3960  174.8760  136.2570 S   0  0  0  0  0  0  0  0  0  0  0  0
  195.5750  174.2150  137.7130 C   0  0  0  0  0  3  0  0  0  0  0  0
  193.3840  174.8540  136.8140 C   0  0  0  0  0  0  0  0  0  0  0  0
  193.7760  174.8600  135.5380 C   0  0  0  0  0  3  0  0  0  0  0  0
  187.8880  177.1070  139.1570 O   0  0  0  0  0  0  0  0  0  0  0  0
  185.8390  177.1590  136.0440 O   0  0  0  0  0  0  0  0  0  0  0  0
  185.3510  177.7290  137.1930 C   0  0  0  0  0  2  0  0  0  0  0  0
  186.4780  176.7400  137.2410 C   0  0  1  0  0  0  0  0  0  0  0  0
  187.9390  176.9140  136.8040 C   0  0  0  0  0  2  0  0  0  0  0  0
  187.4550  177.7010  137.9430 C   0  0  2  0  0  3  0  0  0  0  0  0
  1  6  2  0  0  0  0
  1  7  1  0  0  0  0
  2  8  2  0  0  0  0
  5  4  2  0  0  0  0
  6  2  1  0  0  0  0
  7  5  1  1  0  0  0
  8  4  1  0  0  0  0
  8  3  1  0  0  0  0
 10  9  1  0  0  0  0
 10 14  1  0  0  0  0
 11  9  1  6  0  0  0
 11  7  1  0  0  0  0
 11 12  1  0  0  0  0
 13 10  2  0  0  0  0
 14 12  2  0  0  0  0
 15 17  1  0  0  0  0
 15 20  1  0  0  0  0
 17 19  2  0  0  0  0
 19 13  1  0  0  0  0
 19 18  1  0  0  0  0
 20 16  1  6  0  0  0
 20 18  1  0  0  0  0
 21 22  2  0  0  0  0
 22 13  1  0  0  0  0
 23 22  1  0  0  0  0
 24 23  2  0  0  0  0
 25 24  1  0  0  0  0
 26 33  1  0  0  0  0
 26 25  1  0  0  0  0
 28 32  2  0  0  0  0
 28 27  1  0  0  0  0
 29 31  1  0  0  0  0
 29 27  1  0  0  0  0
 30 33  1  0  0  0  0
 30 31  1  0  0  0  0
 33 28  1  0  0  0  0
 34 35  2  0  0  0  0
 35  2  1  0  0  0  0
 36 34  1  0  0  0  0
 37 36  1  0  0  0  0
 38 37  1  0  0  0  0
 40 41  2  0  0  0  0
 41 39  2  0  0  0  0
 41 38  1  0  0  0  0
 43 47  1  0  0  0  0
 43 44  1  0  0  0  0
 44 45  1  0  0  0  0
 45 42  2  0  0  0  0
 46 41  1  0  0  0  0
 46 42  1  0  0  0  0
 47 46  2  0  0  0  0
 48 34  1  0  0  0  0
 49 50  1  0  0  0  0
 49 51  1  0  0  0  0
 50 51  1  0  0  0  0
 51 52  1  1  0  0  0
 51 53  1  0  0  0  0
 52 53  1  0  0  0  0
 53 48  1  1  0  0  0
M  END
>  <MODEL>
7

>  <REMARK>
 VINA RESULT:      -6.2      2.994      6.729
  Name = 
  15 active torsions:
  status: ('A' for Active; 'I' for Inactive)
    1  A    between atoms: C_10  and  N_32
    2  A    between atoms: C_14  and  C_47
    3  A    between atoms: N_15  and  S_52
    4  A    between atoms: N_15  and  C_53
    5  A    between atoms: C_20  and  C_39
    6  A    between atoms: C_20  and  O_44
    7  A    between atoms: C_26  and  S_52
    8  A    between atoms: C_27  and  C_33
    9  A    between atoms: C_27  and  C_34
   10  A    between atoms: C_33  and  N_38
   11  A    between atoms: C_39  and  C_53
   12  A    between atoms: C_40  and  C_41
   13  A    between atoms: C_40  and  C_48
   14  A    between atoms: O_44  and  C_49
   15  A    between atoms: C_48  and  N_51
                            x       y       z     vdW  Elec       q    Type
                         _______ _______ _______ _____ _____    ______ ____

>  <TORSDO>
F 15

$$$$
=
 OpenBabel10222417533D

 53 59  0  0  1  0  0  0  0  0999 V2000
  185.1750  178.8560  141.5050 N   0  0  0  0  0  0  0  0  0  0  0  0
  187.5010  178.2560  142.1210 C   0  0  0  0  0  0  0  0  0  0  0  0
  188.4830  177.2390  144.1440 C   0  0  0  0  0  1  0  0  0  0  0  0
  186.1480  178.1320  144.2400 C   0  0  0  0  0  3  0  0  0  0  0  0
  184.8950  178.1690  143.8010 C   0  0  0  0  0  3  0  0  0  0  0  0
  186.4580  179.0070  141.3730 C   0  0  0  0  0  3  0  0  0  0  0  0
  184.5440  177.8830  142.3850 C   0  0  1  0  0  3  0  0  0  0  0  0
  187.3420  177.8680  143.4120 C   0  0  0  0  0  0  0  0  0  0  0  0
  182.6580  177.5990  140.7540 C   0  0  0  0  0  2  0  0  0  0  0  0
  181.9780  178.8370  140.2990 C   0  0  0  0  0  0  0  0  0  0  0  0
  183.0230  177.8810  142.2070 C   0  0  2  0  0  3  0  0  0  0  0  0
  182.3890  179.2260  142.5800 C   0  0  0  0  0  3  0  0  0  0  0  0
  181.4610  179.0530  139.0660 C   0  0  0  0  0  0  0  0  0  0  0  0
  181.8570  179.7760  141.3510 N   0  0  0  0  0  0  0  0  0  0  0  0
  179.1880  182.3730  138.5940 S   0  0  0  0  0  0  0  0  0  0  0  0
  180.8160  182.9740  136.4710 C   0  0  0  0  0  1  0  0  0  0  0  0
  179.6200  180.7100  139.0730 C   0  0  0  0  0  3  0  0  0  0  0  0
  181.5630  181.3670  138.0870 O   0  0  0  0  0  0  0  0  0  0  0  0
  180.8510  180.3690  138.7340 C   0  0  0  0  0  0  0  0  0  0  0  0
  180.8800  182.6010  137.9370 C   0  0  2  0  0  3  0  0  0  0  0  0
  180.4950  177.1900  137.9400 O   0  0  0  0  0  0  0  0  0  0  0  0
  181.4540  178.0110  138.0000 C   0  0  0  0  0  0  0  0  0  0  0  0
  182.4920  177.9440  137.0160 N   0  0  0  0  0  0  0  0  0  0  0  0
  183.0340  176.8200  136.6580 C   0  0  0  0  0  3  0  0  0  0  0  0
  184.0880  176.7960  135.6090 C   0  0  0  0  0  2  0  0  0  0  0  0
  184.1670  175.4170  134.9880 C   0  0  0  0  0  2  0  0  0  0  0  0
  186.0690  173.0490  137.4150 C   0  0  0  0  0  2  0  0  0  0  0  0
  184.9590  173.7420  136.6890 C   0  0  0  0  0  0  0  0  0  0  0  0
  187.3040  172.8870  136.5310 C   0  0  0  0  0  2  0  0  0  0  0  0
  186.5260  174.5950  134.9050 C   0  0  0  0  0  2  0  0  0  0  0  0
  187.6530  174.2110  135.8630 C   0  0  0  0  0  2  0  0  0  0  0  0
  183.7760  173.5810  137.0950 O   0  0  0  0  0  0  0  0  0  0  0  0
  185.2450  174.6490  135.6020 N   0  0  0  0  0  0  0  0  0  0  0  0
  189.0810  177.5510  140.3560 C   0  0  0  0  0  0  0  0  0  0  0  0
  188.7980  178.0660  141.5190 N   0  0  0  0  0  0  0  0  0  0  0  0
  190.5110  177.4960  139.9330 C   0  0  0  0  0  2  0  0  0  0  0  0
  190.8040  176.1630  139.2760 C   0  0  0  0  0  2  0  0  0  0  0  0
  191.7870  176.3580  138.2220 N   0  0  0  0  0  2  0  0  0  0  0  0
  190.5990  174.0620  137.5900 O   0  0  0  0  0  0  0  0  0  0  0  0
  191.3490  175.5010  135.7500 O   0  0  0  0  0  0  0  0  0  0  0  0
  191.6770  175.0090  137.1350 S   0  0  0  0  0  0  0  0  0  0  0  0
  194.3570  174.7520  137.8580 C   0  0  0  0  0  3  0  0  0  0  0  0
  194.6090  172.2240  136.5180 C   0  0  0  0  0  2  0  0  0  0  0  0
  196.0210  173.3300  136.2120 S   0  0  0  0  0  0  0  0  0  0  0  0
  195.6150  174.3980  137.6010 C   0  0  0  0  0  3  0  0  0  0  0  0
  193.2190  174.1710  137.1250 C   0  0  0  0  0  0  0  0  0  0  0  0
  193.3360  173.0080  136.4800 C   0  0  0  0  0  3  0  0  0  0  0  0
  188.0780  177.0490  139.5160 O   0  0  0  0  0  0  0  0  0  0  0  0
  187.5990  179.0400  136.4020 O   0  0  0  0  0  0  0  0  0  0  0  0
  188.8150  179.0460  137.0350 C   0  0  0  0  0  2  0  0  0  0  0  0
  187.5730  178.6100  137.7560 C   0  0  1  0  0  0  0  0  0  0  0  0
  186.7530  177.3250  137.5810 C   0  0  0  0  0  2  0  0  0  0  0  0
  188.1180  177.2140  138.1060 C   0  0  2  0  0  3  0  0  0  0  0  0
  1  7  1  0  0  0  0
  2  8  2  0  0  0  0
  5  4  2  0  0  0  0
  6  1  2  0  0  0  0
  6  2  1  0  0  0  0
  7  5  1  1  0  0  0
  8  3  1  0  0  0  0
  8  4  1  0  0  0  0
 10  9  1  0  0  0  0
 10 14  1  0  0  0  0
 11  9  1  6  0  0  0
 11  7  1  0  0  0  0
 11 12  1  0  0  0  0
 13 10  2  0  0  0  0
 14 12  2  0  0  0  0
 15 17  1  0  0  0  0
 18 19  1  0  0  0  0
 19 13  1  0  0  0  0
 19 17  2  0  0  0  0
 20 16  1  6  0  0  0
 20 18  1  0  0  0  0
 20 15  1  0  0  0  0
 21 22  2  0  0  0  0
 22 13  1  0  0  0  0
 23 22  1  0  0  0  0
 24 23  2  0  0  0  0
 25 24  1  0  0  0  0
 26 33  1  0  0  0  0
 26 25  1  0  0  0  0
 28 32  2  0  0  0  0
 28 27  1  0  0  0  0
 29 27  1  0  0  0  0
 30 33  1  0  0  0  0
 30 31  1  0  0  0  0
 31 29  1  0  0  0  0
 33 28  1  0  0  0  0
 34 35  2  0  0  0  0
 35  2  1  0  0  0  0
 36 34  1  0  0  0  0
 37 36  1  0  0  0  0
 38 37  1  0  0  0  0
 40 41  2  0  0  0  0
 41 39  2  0  0  0  0
 41 38  1  0  0  0  0
 44 43  1  0  0  0  0
 44 45  1  0  0  0  0
 45 42  2  0  0  0  0
 46 41  1  0  0  0  0
 46 42  1  0  0  0  0
 47 43  1  0  0  0  0
 47 46  2  0  0  0  0
 48 34  1  0  0  0  0
 49 50  1  0  0  0  0
 49 51  1  0  0  0  0
 51 50  1  1  0  0  0
 51 53  1  0  0  0  0
 52 51  1  0  0  0  0
 52 53  1  0  0  0  0
 53 48  1  1  0  0  0
M  END
>  <MODEL>
8

>  <REMARK>
 VINA RESULT:      -6.1      2.701      6.211
  Name = 
  15 active torsions:
  status: ('A' for Active; 'I' for Inactive)
    1  A    between atoms: C_10  and  N_32
    2  A    between atoms: C_14  and  C_47
    3  A    between atoms: N_15  and  S_52
    4  A    between atoms: N_15  and  C_53
    5  A    between atoms: C_20  and  C_39
    6  A    between atoms: C_20  and  O_44
    7  A    between atoms: C_26  and  S_52
    8  A    between atoms: C_27  and  C_33
    9  A    between atoms: C_27  and  C_34
   10  A    between atoms: C_33  and  N_38
   11  A    between atoms: C_39  and  C_53
   12  A    between atoms: C_40  and  C_41
   13  A    between atoms: C_40  and  C_48
   14  A    between atoms: O_44  and  C_49
   15  A    between atoms: C_48  and  N_51
                            x       y       z     vdW  Elec       q    Type
                         _______ _______ _______ _____ _____    ______ ____

>  <TORSDO>
F 15

$$$$
=
 OpenBabel10222417533D

 53 59  0  0  1  0  0  0  0  0999 V2000
  186.4470  178.9640  141.7420 N   0  0  0  0  0  0  0  0  0  0  0  0
  188.6320  177.8790  141.2980 C   0  0  0  0  0  0  0  0  0  0  0  0
  189.9330  176.1780  142.5240 C   0  0  0  0  0  1  0  0  0  0  0  0
  188.0370  177.3300  143.6800 C   0  0  0  0  0  3  0  0  0  0  0  0
  186.7570  177.6750  143.7590 C   0  0  0  0  0  3  0  0  0  0  0  0
  187.6180  178.9610  141.1810 C   0  0  0  0  0  3  0  0  0  0  0  0
  185.9150  177.8760  142.5500 C   0  0  1  0  0  3  0  0  0  0  0  0
  188.8050  177.1530  142.4300 C   0  0  0  0  0  0  0  0  0  0  0  0
  183.5050  177.4890  141.9680 C   0  0  0  0  0  2  0  0  0  0  0  0
  182.7780  178.6250  141.3510 C   0  0  0  0  0  0  0  0  0  0  0  0
  184.4640  178.1460  142.9550 C   0  0  2  0  0  3  0  0  0  0  0  0
  184.1320  179.6420  142.9800 C   0  0  0  0  0  3  0  0  0  0  0  0
  181.8060  178.5330  140.4120 C   0  0  0  0  0  0  0  0  0  0  0  0
  183.1710  179.8610  141.9210 N   0  0  0  0  0  0  0  0  0  0  0  0
  179.6340  181.8160  139.4580 S   0  0  0  0  0  0  0  0  0  0  0  0
  180.8040  181.6580  136.9840 C   0  0  0  0  0  1  0  0  0  0  0  0
  180.0830  180.3070  140.2980 C   0  0  0  0  0  3  0  0  0  0  0  0
  181.8020  180.4770  138.8170 O   0  0  0  0  0  0  0  0  0  0  0  0
  181.1990  179.7660  139.8430 C   0  0  0  0  0  0  0  0  0  0  0  0
  181.1580  181.6870  138.4560 C   0  0  2  0  0  3  0  0  0  0  0  0
  180.4460  176.5880  140.6130 O   0  0  0  0  0  0  0  0  0  0  0  0
  181.2860  177.2260  139.9160 C   0  0  0  0  0  0  0  0  0  0  0  0
  181.6870  176.6960  138.6480 N   0  0  0  0  0  0  0  0  0  0  0  0
  182.3530  175.5870  138.5410 C   0  0  0  0  0  3  0  0  0  0  0  0
  182.7220  175.0590  137.2010 C   0  0  0  0  0  2  0  0  0  0  0  0
  182.4690  173.5670  137.1460 C   0  0  0  0  0  2  0  0  0  0  0  0
  184.8160  170.8190  135.7120 C   0  0  0  0  0  2  0  0  0  0  0  0
  183.5870  171.6160  136.0210 C   0  0  0  0  0  0  0  0  0  0  0  0
  186.0550  171.7090  135.6270 C   0  0  0  0  0  2  0  0  0  0  0  0
  184.9450  173.5940  136.8010 C   0  0  0  0  0  2  0  0  0  0  0  0
  186.1290  172.6290  136.8390 C   0  0  0  0  0  2  0  0  0  0  0  0
  182.4610  171.1370  135.7130 O   0  0  0  0  0  0  0  0  0  0  0  0
  183.6810  172.8660  136.7380 N   0  0  0  0  0  0  0  0  0  0  0  0
  189.3650  177.2700  139.0160 C   0  0  0  0  0  0  0  0  0  0  0  0
  189.5840  177.6910  140.2300 N   0  0  0  0  0  0  0  0  0  0  0  0
  190.5180  177.1950  138.0710 C   0  0  0  0  0  2  0  0  0  0  0  0
  191.2880  175.9110  138.2990 C   0  0  0  0  0  2  0  0  0  0  0  0
  191.9780  175.5460  137.0710 N   0  0  0  0  0  2  0  0  0  0  0  0
  194.2430  176.7510  136.3610 O   0  0  0  0  0  0  0  0  0  0  0  0
  193.9190  176.2430  138.7400 O   0  0  0  0  0  0  0  0  0  0  0  0
  193.6810  175.7500  137.3370 S   0  0  0  0  0  0  0  0  0  0  0  0
  195.1880  173.5830  138.2320 C   0  0  0  0  0  3  0  0  0  0  0  0
  194.9910  172.2370  135.7010 C   0  0  0  0  0  2  0  0  0  0  0  0
  196.6680  172.1810  136.4030 S   0  0  0  0  0  0  0  0  0  0  0  0
  196.1040  172.6340  138.0500 C   0  0  0  0  0  3  0  0  0  0  0  0
  194.4740  174.2030  137.1020 C   0  0  0  0  0  0  0  0  0  0  0  0
  194.3990  173.5940  135.9160 C   0  0  0  0  0  3  0  0  0  0  0  0
  188.0850  176.8860  138.5970 O   0  0  0  0  0  0  0  0  0  0  0  0
  184.7770  177.8800  137.1960 O   0  0  0  0  0  0  0  0  0  0  0  0
  185.1630  178.3410  138.4290 C   0  0  0  0  0  2  0  0  0  0  0  0
  185.8240  177.1440  137.8120 C   0  0  1  0  0  0  0  0  0  0  0  0
  186.7970  177.0790  136.6270 C   0  0  0  0  0  2  0  0  0  0  0  0
  187.2390  177.7510  137.8540 C   0  0  2  0  0  3  0  0  0  0  0  0
  1  7  1  0  0  0  0
  2  8  2  0  0  0  0
  4  5  2  0  0  0  0
  6  2  1  0  0  0  0
  6  1  2  0  0  0  0
  7 11  1  0  0  0  0
  7  5  1  1  0  0  0
  8  3  1  0  0  0  0
  8  4  1  0  0  0  0
 10 14  1  0  0  0  0
 10  9  1  0  0  0  0
 11  9  1  6  0  0  0
 11 12  1  0  0  0  0
 13 10  2  0  0  0  0
 14 12  2  0  0  0  0
 15 17  1  0  0  0  0
 18 19  1  0  0  0  0
 19 17  2  0  0  0  0
 19 13  1  0  0  0  0
 20 16  1  6  0  0  0
 20 18  1  0  0  0  0
 20 15  1  0  0  0  0
 22 13  1  0  0  0  0
 22 21  2  0  0  0  0
 23 22  1  0  0  0  0
 24 23  2  0  0  0  0
 25 24  1  0  0  0  0
 26 25  1  0  0  0  0
 27 28  1  0  0  0  0
 28 33  1  0  0  0  0
 29 27  1  0  0  0  0
 29 31  1  0  0  0  0
 30 31  1  0  0  0  0
 32 28  2  0  0  0  0
 33 30  1  0  0  0  0
 33 26  1  0  0  0  0
 34 35  2  0  0  0  0
 35  2  1  0  0  0  0
 36 37  1  0  0  0  0
 36 34  1  0  0  0  0
 38 41  1  0  0  0  0
 38 37  1  0  0  0  0
 39 41  2  0  0  0  0
 41 40  2  0  0  0  0
 43 47  1  0  0  0  0
 43 44  1  0  0  0  0
 44 45  1  0  0  0  0
 45 42  2  0  0  0  0
 46 41  1  0  0  0  0
 46 42  1  0  0  0  0
 47 46  2  0  0  0  0
 48 34  1  0  0  0  0
 49 51  1  0  0  0  0
 49 50  1  0  0  0  0
 51 52  1  1  0  0  0
 51 53  1  0  0  0  0
 51 50  1  0  0  0  0
 52 53  1  0  0  0  0
 53 48  1  1  0  0  0
M  END
>  <MODEL>
9

>  <REMARK>
 VINA RESULT:      -6.1      2.492      6.196
  Name = 
  15 active torsions:
  status: ('A' for Active; 'I' for Inactive)
    1  A    between atoms: C_10  and  N_32
    2  A    between atoms: C_14  and  C_47
    3  A    between atoms: N_15  and  S_52
    4  A    between atoms: N_15  and  C_53
    5  A    between atoms: C_20  and  C_39
    6  A    between atoms: C_20  and  O_44
    7  A    between atoms: C_26  and  S_52
    8  A    between atoms: C_27  and  C_33
    9  A    between atoms: C_27  and  C_34
   10  A    between atoms: C_33  and  N_38
   11  A    between atoms: C_39  and  C_53
   12  A    between atoms: C_40  and  C_41
   13  A    between atoms: C_40  and  C_48
   14  A    between atoms: O_44  and  C_49
   15  A    between atoms: C_48  and  N_51
                            x       y       z     vdW  Elec       q    Type
                         _______ _______ _______ _____ _____    ______ ____

>  <TORSDO>
F 15

$$$$
