=
 OpenBabel10222420073D

 48 52  0  0  1  0  0  0  0  0999 V2000
  182.8710  178.1540  139.1310 C   0  0  1  0  0  0  0  0  0  0  0  0
  183.3300  177.2150  140.2840 C   0  0  0  0  0  2  0  0  0  0  0  0
  183.8280  177.9240  141.5790 C   0  0  1  0  0  3  0  0  0  0  0  0
  180.7700  178.9900  138.3210 N   0  0  0  0  0  0  0  0  0  0  0  0
  184.0050  179.1140  138.7080 C   0  0  0  0  0  2  0  0  0  0  0  0
  183.7940  179.7530  144.1700 C   0  0  2  0  0  3  0  0  0  0  0  0
  185.1210  178.7910  141.5120 C   0  0  1  0  0  3  0  0  0  0  0  0
  182.6580  179.5160  143.2210 C   0  0  0  0  0  3  0  0  0  0  0  0
  180.6270  181.5380  138.3170 C   0  0  0  0  0  1  0  0  0  0  0  0
  182.4270  177.3440  137.9090 C   0  0  0  0  0  2  0  0  0  0  0  0
  184.9880  180.1680  143.5310 O   0  0  0  0  0  0  0  0  0  0  0  0
  185.5910  179.0450  142.9440 C   0  0  0  0  0  2  0  0  0  0  0  0
  181.6250  178.9490  139.5000 C   0  0  0  0  0  2  0  0  0  0  0  0
  185.4180  178.4970  138.4360 C   0  0  1  0  0  3  0  0  0  0  0  0
  181.2710  178.1280  137.2700 C   0  0  1  0  0  3  0  0  0  0  0  0
  179.0170  180.1300  137.2770 O   0  0  0  0  0  0  0  0  0  0  0  0
  186.3700  178.3140  140.6810 C   0  0  2  0  0  3  0  0  0  0  0  0
  186.0070  177.6080  139.4560 N   0  0  0  0  0  2  0  0  0  0  0  0
  182.6800  178.7200  142.1420 C   0  0  0  0  0  3  0  0  0  0  0  0
  180.0520  180.1920  137.9780 C   0  0  0  0  0  0  0  0  0  0  0  0
  187.1630  177.8960  136.4010 C   0  0  2  0  0  3  0  0  0  0  0  0
  185.7730  178.1940  136.9440 C   0  0  1  0  0  3  0  0  0  0  0  0
  186.3090  176.8720  136.8350 O   0  0  0  0  0  0  0  0  0  0  0  0
  188.6410  177.9810  137.4870 P   0  0  0  0  0  0  0  0  0  0  0  0
  188.6980  179.2260  138.3370 O   0  0  0  0  0  1  0  0  0  0  0  0
  189.9740  177.9590  136.4580 O   0  0  0  0  0  0  0  0  0  0  0  0
  188.6940  176.6570  138.5700 O   0  0  0  0  0  1  0  0  0  0  0  0
  180.3380  175.9040  136.7570 C   0  0  0  0  0  3  0  0  0  0  0  0
  180.1950  177.2320  136.7110 C   0  0  0  0  0  3  0  0  0  0  0  0
  179.2740  175.0020  136.2390 C   0  0  0  0  0  2  0  0  0  0  0  0
  178.9310  172.5790  137.5600 O   0  0  0  0  0  1  0  0  0  0  0  0
  181.4060  173.1450  136.8910 O   0  0  0  0  0  1  0  0  0  0  0  0
  179.7610  173.2290  136.4660 P   0  0  0  0  0  0  0  0  0  0  0  0
  179.5150  172.3910  135.0060 O   0  0  0  0  0  0  0  0  0  0  0  0
  183.9130  178.6600  145.2360 C   0  0  0  0  0  2  0  0  0  0  0  0
  185.2280  178.8140  145.9650 C   0  0  0  0  0  2  0  0  0  0  0  0
  185.9040  177.4710  146.1340 C   0  0  0  0  0  2  0  0  0  0  0  0
  187.3970  177.8510  148.0690 C   0  0  0  0  0  3  0  0  0  0  0  0
  190.1150  176.8720  147.1950 C   0  0  0  0  0  2  0  0  0  0  0  0
  189.4960  176.9550  145.7910 C   0  0  0  0  0  2  0  0  0  0  0  0
  187.2560  177.6630  146.6440 N   0  0  0  0  0  0  0  0  0  0  0  0
  188.3130  177.9370  145.6610 C   0  0  0  0  0  2  0  0  0  0  0  0
  189.9050  178.1320  148.0170 C   0  0  0  0  0  2  0  0  0  0  0  0
  188.5680  178.0500  148.7040 C   0  0  0  0  0  3  0  0  0  0  0  0
  187.2780  177.5140  141.4300 O   0  0  0  0  0  0  0  0  0  0  0  0
  189.6600  177.1580  141.9360 C   0  0  0  0  0  1  0  0  0  0  0  0
  188.6490  179.3390  141.8460 O   0  0  0  0  0  1  0  0  0  0  0  0
  188.5870  178.0450  141.3290 C   0  0  2  0  0  3  0  0  0  0  0  0
  1 10  1  6  0  0  0
  1 13  1  0  0  0  0
  1  2  1  0  0  0  0
  3  2  1  6  0  0  0
  3 19  1  0  0  0  0
  4 13  1  0  0  0  0
  5  1  1  0  0  0  0
  6 35  1  6  0  0  0
  7  3  1  0  0  0  0
  7 12  1  1  0  0  0
  8  6  1  0  0  0  0
 11  6  1  0  0  0  0
 12 11  1  0  0  0  0
 14  5  1  6  0  0  0
 14 18  1  0  0  0  0
 15 29  1  1  0  0  0
 15 10  1  0  0  0  0
 15  4  1  0  0  0  0
 16 20  2  0  0  0  0
 17 45  1  1  0  0  0
 17  7  1  0  0  0  0
 18 17  1  0  0  0  0
 19  8  2  0  0  0  0
 20  9  1  0  0  0  0
 20  4  1  0  0  0  0
 21 23  1  0  0  0  0
 21 22  1  0  0  0  0
 21 24  1  1  0  0  0
 22 23  1  1  0  0  0
 22 14  1  0  0  0  0
 24 25  1  0  0  0  0
 24 27  1  0  0  0  0
 26 24  2  0  0  0  0
 29 28  2  0  0  0  0
 30 33  1  0  0  0  0
 30 28  1  0  0  0  0
 33 32  1  0  0  0  0
 33 31  1  0  0  0  0
 34 33  2  0  0  0  0
 35 36  1  0  0  0  0
 36 37  1  0  0  0  0
 37 41  1  0  0  0  0
 38 44  2  0  0  0  0
 39 43  1  0  0  0  0
 40 39  1  0  0  0  0
 41 38  1  0  0  0  0
 42 40  1  0  0  0  0
 42 41  1  0  0  0  0
 43 44  1  0  0  0  0
 48 45  1  0  0  0  0
 48 47  1  0  0  0  0
 48 46  1  1  0  0  0
M  END
>  <MODEL>
1

>  <REMARK>
 VINA RESULT:      -6.8      0.000      0.000
  Name = 
  11 active torsions:
  status: ('A' for Active; 'I' for Inactive)
    1  A    between atoms: C_1  and  C_21
    2  A    between atoms: C_7  and  C_15
    3  A    between atoms: C_7  and  C_30
    4  A    between atoms: P_12  and  C_14
    5  A    between atoms: C_21  and  P_22
    6  A    between atoms: N_25  and  C_40
    7  A    between atoms: C_30  and  C_40
    8  A    between atoms: C_32  and  C_37
    9  A    between atoms: C_33  and  C_45
   10  A    between atoms: O_34  and  C_36
   11  A    between atoms: O_34  and  C_39
                            x       y       z     vdW  Elec       q    Type
                         _______ _______ _______ _____ _____    ______ ____

>  <TORSDO>
F 11

$$$$
=
 OpenBabel10222420073D

 48 52  0  0  1  0  0  0  0  0999 V2000
  183.9080  178.8170  139.2280 C   0  0  1  0  0  0  0  0  0  0  0  0
  185.2020  179.4840  138.6790 C   0  0  0  0  0  2  0  0  0  0  0  0
  186.3110  178.5100  138.1810 C   0  0  1  0  0  3  0  0  0  0  0  0
  181.7250  178.3160  138.3610 N   0  0  0  0  0  0  0  0  0  0  0  0
  184.2270  177.8650  140.4020 C   0  0  0  0  0  2  0  0  0  0  0  0
  187.7340  176.2390  136.4840 C   0  0  2  0  0  3  0  0  0  0  0  0
  187.0040  177.5700  139.2130 C   0  0  1  0  0  3  0  0  0  0  0  0
  186.3300  176.7380  136.3210 C   0  0  0  0  0  3  0  0  0  0  0  0
  181.1440  175.8330  138.4520 C   0  0  0  0  0  1  0  0  0  0  0  0
  182.9070  179.8720  139.7040 C   0  0  0  0  0  2  0  0  0  0  0  0
  188.0470  175.8570  137.8120 O   0  0  0  0  0  0  0  0  0  0  0  0
  188.2740  177.0180  138.5670 C   0  0  0  0  0  2  0  0  0  0  0  0
  183.1440  178.0680  138.1430 C   0  0  0  0  0  2  0  0  0  0  0  0
  185.1420  178.4070  141.5510 C   0  0  1  0  0  3  0  0  0  0  0  0
  181.5100  179.3150  139.3860 C   0  0  1  0  0  3  0  0  0  0  0  0
  179.5650  177.5330  137.9270 O   0  0  0  0  0  0  0  0  0  0  0  0
  187.3910  178.0930  140.6470 C   0  0  2  0  0  3  0  0  0  0  0  0
  186.4240  179.0410  141.1910 N   0  0  0  0  0  2  0  0  0  0  0  0
  185.7490  177.7170  137.0300 C   0  0  0  0  0  3  0  0  0  0  0  0
  180.7610  177.2590  138.1790 C   0  0  0  0  0  0  0  0  0  0  0  0
  184.8870  178.7860  144.2600 C   0  0  2  0  0  3  0  0  0  0  0  0
  184.4150  178.9520  142.8230 C   0  0  1  0  0  3  0  0  0  0  0  0
  185.2560  179.8990  143.4900 O   0  0  0  0  0  0  0  0  0  0  0  0
  186.3710  177.7800  144.6580 P   0  0  0  0  0  0  0  0  0  0  0  0
  186.5040  176.5370  143.8140 O   0  0  0  0  0  0  0  0  0  0  0  0
  186.2080  177.3310  146.2720 O   0  0  0  0  0  1  0  0  0  0  0  0
  187.8110  178.6760  144.4240 O   0  0  0  0  0  1  0  0  0  0  0  0
  180.9960  181.5220  138.4130 C   0  0  0  0  0  3  0  0  0  0  0  0
  180.5420  180.3820  138.9440 C   0  0  0  0  0  3  0  0  0  0  0  0
  180.0550  182.5750  137.9420 C   0  0  0  0  0  2  0  0  0  0  0  0
  180.2430  185.2550  137.2230 O   0  0  0  0  0  1  0  0  0  0  0  0
  181.1470  183.5540  135.4380 O   0  0  0  0  0  0  0  0  0  0  0  0
  180.9810  183.9330  137.0880 P   0  0  0  0  0  0  0  0  0  0  0  0
  182.5240  184.0830  137.7880 O   0  0  0  0  0  1  0  0  0  0  0  0
  188.7590  177.1020  135.7430 C   0  0  0  0  0  2  0  0  0  0  0  0
  189.3400  176.3110  134.5940 C   0  0  0  0  0  2  0  0  0  0  0  0
  189.8850  174.9850  135.0810 C   0  0  0  0  0  2  0  0  0  0  0  0
  192.2430  175.7240  134.9870 C   0  0  0  0  0  3  0  0  0  0  0  0
  192.9730  176.4570  137.8230 C   0  0  0  0  0  2  0  0  0  0  0  0
  191.7080  175.6550  138.1660 C   0  0  0  0  0  2  0  0  0  0  0  0
  191.1510  175.2010  135.7720 N   0  0  0  0  0  0  0  0  0  0  0  0
  191.2970  174.6090  137.1090 C   0  0  0  0  0  2  0  0  0  0  0  0
  193.9120  175.7200  136.8820 C   0  0  0  0  0  2  0  0  0  0  0  0
  193.4790  175.9750  135.4620 C   0  0  0  0  0  3  0  0  0  0  0  0
  188.6930  178.6640  140.7110 O   0  0  0  0  0  0  0  0  0  0  0  0
  190.9050  177.6560  141.0940 C   0  0  0  0  0  1  0  0  0  0  0  0
  188.8720  176.7470  142.0060 O   0  0  0  0  0  1  0  0  0  0  0  0
  189.5010  177.9270  141.6100 C   0  0  2  0  0  3  0  0  0  0  0  0
  1 13  1  6  0  0  0
  1 10  1  0  0  0  0
  1  5  1  0  0  0  0
  2  1  1  0  0  0  0
  3 19  1  6  0  0  0
  3  2  1  0  0  0  0
  3  7  1  0  0  0  0
  4 15  1  0  0  0  0
  6 35  1  1  0  0  0
  6 11  1  0  0  0  0
  7 12  1  6  0  0  0
  7 17  1  0  0  0  0
  8  6  1  0  0  0  0
  8 19  2  0  0  0  0
 11 12  1  0  0  0  0
 13  4  1  0  0  0  0
 14  5  1  6  0  0  0
 14 22  1  0  0  0  0
 15 29  1  6  0  0  0
 15 10  1  0  0  0  0
 16 20  2  0  0  0  0
 17 45  1  6  0  0  0
 17 18  1  0  0  0  0
 18 14  1  0  0  0  0
 20  4  1  0  0  0  0
 20  9  1  0  0  0  0
 21 24  1  6  0  0  0
 22 23  1  6  0  0  0
 22 21  1  0  0  0  0
 23 21  1  0  0  0  0
 24 26  1  0  0  0  0
 25 24  2  0  0  0  0
 27 24  1  0  0  0  0
 28 29  2  0  0  0  0
 30 28  1  0  0  0  0
 32 33  2  0  0  0  0
 33 31  1  0  0  0  0
 33 34  1  0  0  0  0
 33 30  1  0  0  0  0
 36 37  1  0  0  0  0
 36 35  1  0  0  0  0
 37 41  1  0  0  0  0
 38 44  2  0  0  0  0
 38 41  1  0  0  0  0
 39 40  1  0  0  0  0
 41 42  1  0  0  0  0
 42 40  1  0  0  0  0
 43 39  1  0  0  0  0
 44 43  1  0  0  0  0
 45 48  1  0  0  0  0
 48 46  1  6  0  0  0
 48 47  1  0  0  0  0
M  END
>  <MODEL>
2

>  <REMARK>
 VINA RESULT:      -6.5      3.524      7.702
  Name = 
  11 active torsions:
  status: ('A' for Active; 'I' for Inactive)
    1  A    between atoms: C_1  and  C_21
    2  A    between atoms: C_7  and  C_15
    3  A    between atoms: C_7  and  C_30
    4  A    between atoms: P_12  and  C_14
    5  A    between atoms: C_21  and  P_22
    6  A    between atoms: N_25  and  C_40
    7  A    between atoms: C_30  and  C_40
    8  A    between atoms: C_32  and  C_37
    9  A    between atoms: C_33  and  C_45
   10  A    between atoms: O_34  and  C_36
   11  A    between atoms: O_34  and  C_39
                            x       y       z     vdW  Elec       q    Type
                         _______ _______ _______ _____ _____    ______ ____

>  <TORSDO>
F 11

$$$$
=
 OpenBabel10222420073D

 48 52  0  0  1  0  0  0  0  0999 V2000
  184.2100  177.2980  138.0350 C   0  0  1  0  0  0  0  0  0  0  0  0
  183.4400  176.1010  138.6650 C   0  0  0  0  0  2  0  0  0  0  0  0
  182.5430  175.2810  137.6900 C   0  0  1  0  0  3  0  0  0  0  0  0
  186.4350  177.6750  137.2120 N   0  0  0  0  0  0  0  0  0  0  0  0
  183.2390  178.2990  137.3710 C   0  0  0  0  0  2  0  0  0  0  0  0
  181.7160  173.4660  135.2240 C   0  0  2  0  0  3  0  0  0  0  0  0
  181.3130  175.9780  137.0350 C   0  0  1  0  0  3  0  0  0  0  0  0
  183.0980  173.9270  135.5780 C   0  0  0  0  0  3  0  0  0  0  0  0
  186.5010  178.4010  134.7670 C   0  0  0  0  0  1  0  0  0  0  0  0
  185.0360  178.0360  139.0920 C   0  0  0  0  0  2  0  0  0  0  0  0
  180.7700  174.5180  135.1480 O   0  0  0  0  0  0  0  0  0  0  0  0
  180.4120  174.8890  136.4530 C   0  0  0  0  0  2  0  0  0  0  0  0
  185.2560  176.8390  137.0260 C   0  0  0  0  0  2  0  0  0  0  0  0
  181.9990  178.7710  138.2020 C   0  0  1  0  0  3  0  0  0  0  0  0
  186.3110  178.5170  138.3840 C   0  0  1  0  0  3  0  0  0  0  0  0
  188.3940  178.4570  136.2050 O   0  0  0  0  0  0  0  0  0  0  0  0
  180.3990  176.9520  137.8690 C   0  0  2  0  0  3  0  0  0  0  0  0
  181.1460  177.7480  138.8380 N   0  0  0  0  0  2  0  0  0  0  0  0
  183.4360  174.6750  136.6380 C   0  0  0  0  0  3  0  0  0  0  0  0
  187.1900  178.1390  136.0750 C   0  0  0  0  0  0  0  0  0  0  0  0
  181.3680  181.4110  138.6220 C   0  0  2  0  0  3  0  0  0  0  0  0
  182.1360  180.1390  138.9460 C   0  0  1  0  0  3  0  0  0  0  0  0
  180.8890  180.4820  139.5570 O   0  0  0  0  0  0  0  0  0  0  0  0
  180.2340  181.4900  137.1800 P   0  0  0  0  0  0  0  0  0  0  0  0
  180.9360  181.3690  135.8500 O   0  0  0  0  0  0  0  0  0  0  0  0
  179.4780  182.9920  137.2650 O   0  0  0  0  0  1  0  0  0  0  0  0
  179.0770  180.2290  137.2290 O   0  0  0  0  0  1  0  0  0  0  0  0
  187.4070  178.1400  140.5600 C   0  0  0  0  0  3  0  0  0  0  0  0
  187.5320  178.4440  139.2650 C   0  0  0  0  0  3  0  0  0  0  0  0
  188.6030  178.0320  141.4410 C   0  0  0  0  0  2  0  0  0  0  0  0
  188.2640  175.8160  143.0860 O   0  0  0  0  0  0  0  0  0  0  0  0
  186.5210  177.7480  143.4430 O   0  0  0  0  0  1  0  0  0  0  0  0
  188.1320  177.3290  143.0890 P   0  0  0  0  0  0  0  0  0  0  0  0
  189.1560  177.9760  144.2830 O   0  0  0  0  0  1  0  0  0  0  0  0
  181.3000  172.2040  135.9860 C   0  0  0  0  0  2  0  0  0  0  0  0
  181.9820  171.0020  135.3720 C   0  0  0  0  0  2  0  0  0  0  0  0
  182.9890  170.4120  136.3350 C   0  0  0  0  0  2  0  0  0  0  0  0
  185.0040  171.7810  136.7620 C   0  0  0  0  0  3  0  0  0  0  0  0
  187.2620  170.3510  135.3580 C   0  0  0  0  0  2  0  0  0  0  0  0
  186.1160  169.6280  134.6340 C   0  0  0  0  0  2  0  0  0  0  0  0
  184.3350  170.8040  135.9360 N   0  0  0  0  0  0  0  0  0  0  0  0
  184.7820  170.4030  134.5950 C   0  0  0  0  0  2  0  0  0  0  0  0
  187.1060  171.8620  135.3650 C   0  0  0  0  0  2  0  0  0  0  0  0
  186.2440  172.2580  136.5340 C   0  0  0  0  0  3  0  0  0  0  0  0
  179.3250  176.2950  138.5320 O   0  0  0  0  0  0  0  0  0  0  0  0
  179.5690  174.5960  140.2950 C   0  0  0  0  0  1  0  0  0  0  0  0
  178.9320  176.8720  140.7460 O   0  0  0  0  0  1  0  0  0  0  0  0
  179.6670  176.0560  139.8860 C   0  0  2  0  0  3  0  0  0  0  0  0
  1 13  1  6  0  0  0
  1  2  1  0  0  0  0
  1 10  1  0  0  0  0
  3 19  1  6  0  0  0
  3  2  1  0  0  0  0
  4 15  1  0  0  0  0
  5  1  1  0  0  0  0
  6  8  1  0  0  0  0
  6 35  1  1  0  0  0
  7 12  1  1  0  0  0
  7  3  1  0  0  0  0
  7 17  1  0  0  0  0
  8 19  2  0  0  0  0
  9 20  1  0  0  0  0
 11  6  1  0  0  0  0
 11 12  1  0  0  0  0
 13  4  1  0  0  0  0
 14  5  1  1  0  0  0
 14 18  1  0  0  0  0
 14 22  1  0  0  0  0
 15 10  1  0  0  0  0
 15 29  1  1  0  0  0
 17 45  1  1  0  0  0
 17 18  1  0  0  0  0
 20 16  2  0  0  0  0
 20  4  1  0  0  0  0
 21 24  1  6  0  0  0
 21 22  1  0  0  0  0
 21 23  1  0  0  0  0
 22 23  1  1  0  0  0
 24 27  1  0  0  0  0
 24 26  1  0  0  0  0
 25 24  2  0  0  0  0
 28 30  1  0  0  0  0
 29 28  2  0  0  0  0
 30 33  1  0  0  0  0
 31 33  2  0  0  0  0
 33 32  1  0  0  0  0
 33 34  1  0  0  0  0
 36 35  1  0  0  0  0
 36 37  1  0  0  0  0
 39 43  1  0  0  0  0
 40 39  1  0  0  0  0
 41 37  1  0  0  0  0
 41 38  1  0  0  0  0
 42 40  1  0  0  0  0
 42 41  1  0  0  0  0
 43 44  1  0  0  0  0
 44 38  2  0  0  0  0
 45 48  1  0  0  0  0
 48 46  1  1  0  0  0
 48 47  1  0  0  0  0
M  END
>  <MODEL>
3

>  <REMARK>
 VINA RESULT:      -5.8      3.855      9.586
  Name = 
  11 active torsions:
  status: ('A' for Active; 'I' for Inactive)
    1  A    between atoms: C_1  and  C_21
    2  A    between atoms: C_7  and  C_15
    3  A    between atoms: C_7  and  C_30
    4  A    between atoms: P_12  and  C_14
    5  A    between atoms: C_21  and  P_22
    6  A    between atoms: N_25  and  C_40
    7  A    between atoms: C_30  and  C_40
    8  A    between atoms: C_32  and  C_37
    9  A    between atoms: C_33  and  C_45
   10  A    between atoms: O_34  and  C_36
   11  A    between atoms: O_34  and  C_39
                            x       y       z     vdW  Elec       q    Type
                         _______ _______ _______ _____ _____    ______ ____

>  <TORSDO>
F 11

$$$$
=
 OpenBabel10222420073D

 48 52  0  0  1  0  0  0  0  0999 V2000
  184.1280  177.8590  137.4630 C   0  0  1  0  0  0  0  0  0  0  0  0
  184.2300  179.1900  138.2630 C   0  0  0  0  0  2  0  0  0  0  0  0
  183.6250  179.1680  139.6990 C   0  0  1  0  0  3  0  0  0  0  0  0
  185.5860  176.0070  137.0030 N   0  0  0  0  0  0  0  0  0  0  0  0
  182.6580  177.4060  137.3220 C   0  0  0  0  0  2  0  0  0  0  0  0
  183.1720  178.3280  142.7230 C   0  0  2  0  0  3  0  0  0  0  0  0
  182.0890  178.9640  139.8640 C   0  0  1  0  0  3  0  0  0  0  0  0
  184.1930  177.7700  141.7780 C   0  0  0  0  0  3  0  0  0  0  0  0
  184.6490  173.7640  137.7790 C   0  0  0  0  0  1  0  0  0  0  0  0
  184.7350  178.0120  136.0650 C   0  0  0  0  0  2  0  0  0  0  0  0
  181.8520  178.3050  142.2090 O   0  0  0  0  0  0  0  0  0  0  0  0
  181.7140  179.3580  141.2920 C   0  0  0  0  0  2  0  0  0  0  0  0
  184.9590  176.7470  138.0900 C   0  0  0  0  0  2  0  0  0  0  0  0
  181.6120  178.4650  136.8380 C   0  0  1  0  0  3  0  0  0  0  0  0
  185.3810  176.6600  135.7270 C   0  0  1  0  0  3  0  0  0  0  0  0
  186.5780  173.9770  136.4030 O   0  0  0  0  0  0  0  0  0  0  0  0
  181.0730  179.6730  138.8940 C   0  0  2  0  0  3  0  0  0  0  0  0
  181.5630  179.7710  137.5220 N   0  0  0  0  0  2  0  0  0  0  0  0
  184.3890  178.1530  140.5080 C   0  0  0  0  0  3  0  0  0  0  0  0
  185.6940  174.5710  137.0620 C   0  0  0  0  0  0  0  0  0  0  0  0
  180.4630  177.3710  134.5950 C   0  0  2  0  0  3  0  0  0  0  0  0
  181.2570  178.4500  135.3150 C   0  0  1  0  0  3  0  0  0  0  0  0
  179.8360  178.4950  135.1520 O   0  0  0  0  0  0  0  0  0  0  0  0
  179.9190  175.8520  135.4720 P   0  0  0  0  0  0  0  0  0  0  0  0
  178.9310  175.0230  134.6900 O   0  0  0  0  0  0  0  0  0  0  0  0
  179.1880  176.3750  136.8960 O   0  0  0  0  0  1  0  0  0  0  0  0
  181.2430  174.8240  135.8150 O   0  0  0  0  0  1  0  0  0  0  0  0
  187.8410  176.6410  135.5640 C   0  0  0  0  0  3  0  0  0  0  0  0
  186.6650  176.8040  134.9510 C   0  0  0  0  0  3  0  0  0  0  0  0
  189.1200  176.7480  134.8090 C   0  0  0  0  0  2  0  0  0  0  0  0
  190.1810  174.6060  136.2310 O   0  0  0  0  0  1  0  0  0  0  0  0
  190.7960  176.9810  137.1670 O   0  0  0  0  0  1  0  0  0  0  0  0
  190.5130  176.0220  135.7910 P   0  0  0  0  0  0  0  0  0  0  0  0
  191.9160  175.9920  134.8280 O   0  0  0  0  0  0  0  0  0  0  0  0
  183.6360  179.6200  143.4020 C   0  0  0  0  0  2  0  0  0  0  0  0
  185.1240  179.5430  143.6580 C   0  0  0  0  0  2  0  0  0  0  0  0
  185.4270  178.5190  144.7310 C   0  0  0  0  0  2  0  0  0  0  0  0
  187.5140  177.7800  145.8340 C   0  0  0  0  0  3  0  0  0  0  0  0
  189.0250  176.2220  143.7360 C   0  0  0  0  0  2  0  0  0  0  0  0
  188.0520  176.9190  142.7730 C   0  0  0  0  0  2  0  0  0  0  0  0
  186.8100  178.0760  144.6090 N   0  0  0  0  0  0  0  0  0  0  0  0
  187.4550  178.2410  143.2980 C   0  0  0  0  0  2  0  0  0  0  0  0
  189.6930  177.1800  144.7080 C   0  0  0  0  0  2  0  0  0  0  0  0
  188.7950  177.3680  145.9020 C   0  0  0  0  0  3  0  0  0  0  0  0
  180.6680  180.9630  139.3390 O   0  0  0  0  0  0  0  0  0  0  0  0
  179.4120  182.9870  138.7200 C   0  0  0  0  0  1  0  0  0  0  0  0
  178.9310  180.8130  137.8080 O   0  0  0  0  0  1  0  0  0  0  0  0
  179.9460  181.6230  138.3150 C   0  0  2  0  0  3  0  0  0  0  0  0
  1 10  1  6  0  0  0
  1 13  1  0  0  0  0
  1  2  1  0  0  0  0
  3  2  1  6  0  0  0
  3  7  1  0  0  0  0
  3 19  1  0  0  0  0
  4 20  1  0  0  0  0
  4 13  1  0  0  0  0
  5  1  1  0  0  0  0
  6 35  1  6  0  0  0
  7 12  1  1  0  0  0
  8  6  1  0  0  0  0
 11  6  1  0  0  0  0
 12 11  1  0  0  0  0
 14  5  1  6  0  0  0
 14 18  1  0  0  0  0
 15 29  1  1  0  0  0
 15 10  1  0  0  0  0
 15  4  1  0  0  0  0
 16 20  2  0  0  0  0
 17 45  1  1  0  0  0
 17  7  1  0  0  0  0
 18 17  1  0  0  0  0
 19  8  2  0  0  0  0
 20  9  1  0  0  0  0
 21 23  1  0  0  0  0
 21 22  1  0  0  0  0
 21 24  1  1  0  0  0
 22 23  1  1  0  0  0
 22 14  1  0  0  0  0
 24 27  1  0  0  0  0
 24 26  1  0  0  0  0
 25 24  2  0  0  0  0
 29 28  2  0  0  0  0
 30 28  1  0  0  0  0
 30 33  1  0  0  0  0
 33 31  1  0  0  0  0
 33 32  1  0  0  0  0
 34 33  2  0  0  0  0
 35 36  1  0  0  0  0
 36 37  1  0  0  0  0
 38 44  2  0  0  0  0
 39 43  1  0  0  0  0
 40 42  1  0  0  0  0
 40 39  1  0  0  0  0
 41 37  1  0  0  0  0
 41 38  1  0  0  0  0
 42 41  1  0  0  0  0
 43 44  1  0  0  0  0
 47 48  1  0  0  0  0
 48 46  1  1  0  0  0
 48 45  1  0  0  0  0
M  END
>  <MODEL>
4

>  <REMARK>
 VINA RESULT:      -5.1      2.270      6.809
  Name = 
  11 active torsions:
  status: ('A' for Active; 'I' for Inactive)
    1  A    between atoms: C_1  and  C_21
    2  A    between atoms: C_7  and  C_15
    3  A    between atoms: C_7  and  C_30
    4  A    between atoms: P_12  and  C_14
    5  A    between atoms: C_21  and  P_22
    6  A    between atoms: N_25  and  C_40
    7  A    between atoms: C_30  and  C_40
    8  A    between atoms: C_32  and  C_37
    9  A    between atoms: C_33  and  C_45
   10  A    between atoms: O_34  and  C_36
   11  A    between atoms: O_34  and  C_39
                            x       y       z     vdW  Elec       q    Type
                         _______ _______ _______ _____ _____    ______ ____

>  <TORSDO>
F 11

$$$$
=
 OpenBabel10222420073D

 48 52  0  0  1  0  0  0  0  0999 V2000
  189.7120  176.8240  137.7840 C   0  0  1  0  0  0  0  0  0  0  0  0
  189.8260  178.0030  138.7930 C   0  0  0  0  0  2  0  0  0  0  0  0
  189.3650  177.6980  140.2490 C   0  0  1  0  0  3  0  0  0  0  0  0
  191.2080  175.1750  136.8810 N   0  0  0  0  0  0  0  0  0  0  0  0
  188.2590  176.3060  137.6930 C   0  0  0  0  0  2  0  0  0  0  0  0
  189.2480  176.3290  143.1080 C   0  0  2  0  0  3  0  0  0  0  0  0
  187.8640  177.3690  140.5090 C   0  0  1  0  0  3  0  0  0  0  0  0
  190.1990  176.0070  141.9940 C   0  0  0  0  0  3  0  0  0  0  0  0
  190.4620  172.7770  137.3310 C   0  0  0  0  0  1  0  0  0  0  0  0
  190.1730  177.2510  136.3870 C   0  0  0  0  0  2  0  0  0  0  0  0
  187.8870  176.3080  142.7130 O   0  0  0  0  0  0  0  0  0  0  0  0
  187.6100  177.4900  142.0110 C   0  0  0  0  0  2  0  0  0  0  0  0
  190.6540  175.6780  138.1310 C   0  0  0  0  0  2  0  0  0  0  0  0
  187.1210  177.3620  137.4950 C   0  0  1  0  0  3  0  0  0  0  0  0
  190.8480  176.0210  135.7620 C   0  0  1  0  0  3  0  0  0  0  0  0
  192.2350  173.3460  135.8510 O   0  0  0  0  0  0  0  0  0  0  0  0
  186.7250  178.1660  139.7700 C   0  0  2  0  0  3  0  0  0  0  0  0
  187.0740  178.5260  138.4000 N   0  0  0  0  0  2  0  0  0  0  0  0
  190.2520  176.6120  140.7990 C   0  0  0  0  0  3  0  0  0  0  0  0
  191.3910  173.7600  136.6780 C   0  0  0  0  0  0  0  0  0  0  0  0
  185.7870  176.6060  135.2160 C   0  0  2  0  0  3  0  0  0  0  0  0
  186.6210  177.5830  136.0310 C   0  0  1  0  0  3  0  0  0  0  0  0
  185.1910  177.5990  136.0070 O   0  0  0  0  0  0  0  0  0  0  0  0
  185.3650  174.9440  135.8730 P   0  0  0  0  0  0  0  0  0  0  0  0
  186.5620  174.0450  136.0560 O   0  0  0  0  0  1  0  0  0  0  0  0
  184.3260  174.2490  134.7450 O   0  0  0  0  0  0  0  0  0  0  0  0
  184.6080  175.0550  137.4040 O   0  0  0  0  0  1  0  0  0  0  0  0
  193.2710  176.3480  135.4410 C   0  0  0  0  0  3  0  0  0  0  0  0
  192.0430  176.3770  134.9150 C   0  0  0  0  0  3  0  0  0  0  0  0
  194.4660  176.6660  134.6120 C   0  0  0  0  0  2  0  0  0  0  0  0
  195.8070  175.6870  136.8430 O   0  0  0  0  0  1  0  0  0  0  0  0
  197.3150  176.9370  135.0940 O   0  0  0  0  0  1  0  0  0  0  0  0
  195.9860  175.9060  135.3510 P   0  0  0  0  0  0  0  0  0  0  0  0
  196.2820  174.4090  134.5980 O   0  0  0  0  0  0  0  0  0  0  0  0
  189.7120  177.5140  143.9590 C   0  0  0  0  0  2  0  0  0  0  0  0
  189.7750  177.0930  145.4100 C   0  0  0  0  0  2  0  0  0  0  0  0
  189.4030  178.2470  146.3160 C   0  0  0  0  0  2  0  0  0  0  0  0
  187.4210  179.3710  147.2780 C   0  0  0  0  0  3  0  0  0  0  0  0
  185.1160  178.6240  145.4780 C   0  0  0  0  0  2  0  0  0  0  0  0
  186.0820  177.5320  144.9930 C   0  0  0  0  0  2  0  0  0  0  0  0
  187.9530  178.3100  146.4570 N   0  0  0  0  0  0  0  0  0  0  0  0
  187.1820  177.1440  146.0040 C   0  0  0  0  0  2  0  0  0  0  0  0
  185.0050  178.6960  146.9920 C   0  0  0  0  0  2  0  0  0  0  0  0
  186.1110  179.5700  147.5210 C   0  0  0  0  0  3  0  0  0  0  0  0
  186.3030  179.3320  140.4670 O   0  0  0  0  0  0  0  0  0  0  0  0
  184.3970  179.0090  141.9910 C   0  0  0  0  0  1  0  0  0  0  0  0
  184.2970  178.5110  139.6390 O   0  0  0  0  0  1  0  0  0  0  0  0
  184.8920  179.3370  140.5920 C   0  0  2  0  0  3  0  0  0  0  0  0
  1 10  1  6  0  0  0
  1 13  1  0  0  0  0
  1  2  1  0  0  0  0
  3  2  1  6  0  0  0
  3  7  1  0  0  0  0
  3 19  1  0  0  0  0
  4 13  1  0  0  0  0
  5  1  1  0  0  0  0
  6 35  1  6  0  0  0
  7 12  1  1  0  0  0
  8  6  1  0  0  0  0
 11  6  1  0  0  0  0
 12 11  1  0  0  0  0
 14  5  1  6  0  0  0
 14 18  1  0  0  0  0
 15 29  1  1  0  0  0
 15 10  1  0  0  0  0
 15  4  1  0  0  0  0
 16 20  2  0  0  0  0
 17 45  1  1  0  0  0
 17  7  1  0  0  0  0
 18 17  1  0  0  0  0
 19  8  2  0  0  0  0
 20  4  1  0  0  0  0
 20  9  1  0  0  0  0
 21 24  1  1  0  0  0
 21 23  1  0  0  0  0
 21 22  1  0  0  0  0
 22 23  1  1  0  0  0
 22 14  1  0  0  0  0
 24 25  1  0  0  0  0
 24 27  1  0  0  0  0
 26 24  2  0  0  0  0
 29 28  2  0  0  0  0
 30 33  1  0  0  0  0
 30 28  1  0  0  0  0
 32 33  1  0  0  0  0
 33 31  1  0  0  0  0
 34 33  2  0  0  0  0
 35 36  1  0  0  0  0
 36 37  1  0  0  0  0
 37 41  1  0  0  0  0
 38 44  2  0  0  0  0
 39 43  1  0  0  0  0
 40 39  1  0  0  0  0
 40 42  1  0  0  0  0
 41 38  1  0  0  0  0
 42 41  1  0  0  0  0
 43 44  1  0  0  0  0
 45 48  1  0  0  0  0
 47 48  1  0  0  0  0
 48 46  1  1  0  0  0
M  END
>  <MODEL>
5

>  <REMARK>
 VINA RESULT:      -4.9      3.728      8.388
  Name = 
  11 active torsions:
  status: ('A' for Active; 'I' for Inactive)
    1  A    between atoms: C_1  and  C_21
    2  A    between atoms: C_7  and  C_15
    3  A    between atoms: C_7  and  C_30
    4  A    between atoms: P_12  and  C_14
    5  A    between atoms: C_21  and  P_22
    6  A    between atoms: N_25  and  C_40
    7  A    between atoms: C_30  and  C_40
    8  A    between atoms: C_32  and  C_37
    9  A    between atoms: C_33  and  C_45
   10  A    between atoms: O_34  and  C_36
   11  A    between atoms: O_34  and  C_39
                            x       y       z     vdW  Elec       q    Type
                         _______ _______ _______ _____ _____    ______ ____

>  <TORSDO>
F 11

$$$$
=
 OpenBabel10222420073D

 48 52  0  0  1  0  0  0  0  0999 V2000
  188.7150  177.0460  137.5050 C   0  0  1  0  0  0  0  0  0  0  0  0
  188.7200  178.3560  138.3450 C   0  0  0  0  0  2  0  0  0  0  0  0
  188.1750  178.2330  139.8000 C   0  0  1  0  0  3  0  0  0  0  0  0
  190.3230  175.3570  136.9330 N   0  0  0  0  0  0  0  0  0  0  0  0
  187.2900  176.4570  137.4010 C   0  0  0  0  0  2  0  0  0  0  0  0
  187.9190  177.2630  142.8090 C   0  0  2  0  0  3  0  0  0  0  0  0
  186.6730  177.8770  140.0120 C   0  0  1  0  0  3  0  0  0  0  0  0
  188.9520  176.8350  141.8100 C   0  0  0  0  0  3  0  0  0  0  0  0
  189.6340  173.0120  137.6660 C   0  0  0  0  0  1  0  0  0  0  0  0
  189.2500  177.2980  136.0930 C   0  0  0  0  0  2  0  0  0  0  0  0
  186.5890  177.1290  142.3400 O   0  0  0  0  0  0  0  0  0  0  0  0
  186.3170  178.1910  141.4640 C   0  0  0  0  0  2  0  0  0  0  0  0
  189.6710  176.0010  138.0650 C   0  0  0  0  0  2  0  0  0  0  0  0
  186.1300  177.4250  136.9890 C   0  0  1  0  0  3  0  0  0  0  0  0
  190.0080  176.0250  135.6870 C   0  0  1  0  0  3  0  0  0  0  0  0
  191.4800  173.4510  136.2310 O   0  0  0  0  0  0  0  0  0  0  0  0
  185.5570  178.5140  139.1020 C   0  0  2  0  0  3  0  0  0  0  0  0
  185.9840  178.6990  137.7190 N   0  0  0  0  0  2  0  0  0  0  0  0
  189.0620  177.2720  140.5480 C   0  0  0  0  0  3  0  0  0  0  0  0
  190.5690  173.9360  136.9400 C   0  0  0  0  0  0  0  0  0  0  0  0
  184.7830  176.4270  134.8130 C   0  0  2  0  0  3  0  0  0  0  0  0
  185.7200  177.4220  135.4810 C   0  0  1  0  0  3  0  0  0  0  0  0
  184.3090  177.6260  135.3640 O   0  0  0  0  0  0  0  0  0  0  0  0
  184.1020  174.9980  135.7430 P   0  0  0  0  0  0  0  0  0  0  0  0
  183.4220  175.3840  137.0330 O   0  0  0  0  0  1  0  0  0  0  0  0
  185.4140  174.0030  136.0930 O   0  0  0  0  0  1  0  0  0  0  0  0
  182.9340  174.1540  134.8190 O   0  0  0  0  0  0  0  0  0  0  0  0
  192.4550  176.1030  135.3930 C   0  0  0  0  0  3  0  0  0  0  0  0
  191.2430  176.3150  134.8720 C   0  0  0  0  0  3  0  0  0  0  0  0
  193.6860  176.3530  134.5940 C   0  0  0  0  0  2  0  0  0  0  0  0
  195.7940  174.5940  135.0350 O   0  0  0  0  0  0  0  0  0  0  0  0
  194.7720  175.6770  137.1980 O   0  0  0  0  0  1  0  0  0  0  0  0
  195.1940  175.8860  135.5630 P   0  0  0  0  0  0  0  0  0  0  0  0
  196.3470  177.1300  135.4350 O   0  0  0  0  0  1  0  0  0  0  0  0
  188.2840  178.5730  143.5140 C   0  0  0  0  0  2  0  0  0  0  0  0
  189.7760  178.6120  143.7540 C   0  0  0  0  0  2  0  0  0  0  0  0
  190.0780  178.5600  145.2360 C   0  0  0  0  0  2  0  0  0  0  0  0
  190.9500  176.9230  146.8720 C   0  0  0  0  0  3  0  0  0  0  0  0
  191.9220  174.5820  145.2320 C   0  0  0  0  0  2  0  0  0  0  0  0
  191.8480  175.5920  144.0760 C   0  0  0  0  0  2  0  0  0  0  0  0
  190.9470  177.4240  145.5190 N   0  0  0  0  0  0  0  0  0  0  0  0
  191.9460  177.0720  144.5000 C   0  0  0  0  0  2  0  0  0  0  0  0
  192.6630  175.1170  146.4460 C   0  0  0  0  0  2  0  0  0  0  0  0
  191.6970  175.8890  147.3060 C   0  0  0  0  0  3  0  0  0  0  0  0
  185.0500  179.7450  139.6040 O   0  0  0  0  0  0  0  0  0  0  0  0
  183.0390  178.3350  139.4600 C   0  0  0  0  0  1  0  0  0  0  0  0
  183.1270  180.5840  138.6120 O   0  0  0  0  0  1  0  0  0  0  0  0
  183.6340  179.7270  139.5880 C   0  0  2  0  0  3  0  0  0  0  0  0
  1 10  1  6  0  0  0
  1 13  1  0  0  0  0
  1  2  1  0  0  0  0
  3  2  1  6  0  0  0
  3  7  1  0  0  0  0
  3 19  1  0  0  0  0
  4 20  1  0  0  0  0
  4 13  1  0  0  0  0
  5  1  1  0  0  0  0
  6 35  1  6  0  0  0
  7 12  1  1  0  0  0
  8  6  1  0  0  0  0
 11  6  1  0  0  0  0
 12 11  1  0  0  0  0
 14  5  1  6  0  0  0
 14 18  1  0  0  0  0
 15 29  1  1  0  0  0
 15 10  1  0  0  0  0
 15  4  1  0  0  0  0
 16 20  2  0  0  0  0
 17 45  1  1  0  0  0
 17  7  1  0  0  0  0
 18 17  1  0  0  0  0
 19  8  2  0  0  0  0
 20  9  1  0  0  0  0
 21 23  1  0  0  0  0
 21 22  1  0  0  0  0
 21 24  1  1  0  0  0
 22 23  1  1  0  0  0
 22 14  1  0  0  0  0
 24 26  1  0  0  0  0
 24 25  1  0  0  0  0
 27 24  2  0  0  0  0
 29 28  2  0  0  0  0
 30 28  1  0  0  0  0
 30 33  1  0  0  0  0
 31 33  2  0  0  0  0
 33 32  1  0  0  0  0
 34 33  1  0  0  0  0
 35 36  1  0  0  0  0
 36 37  1  0  0  0  0
 37 41  1  0  0  0  0
 38 44  2  0  0  0  0
 39 43  1  0  0  0  0
 40 42  1  0  0  0  0
 40 39  1  0  0  0  0
 41 38  1  0  0  0  0
 42 41  1  0  0  0  0
 43 44  1  0  0  0  0
 47 48  1  0  0  0  0
 48 46  1  6  0  0  0
 48 45  1  0  0  0  0
M  END
>  <MODEL>
6

>  <REMARK>
 VINA RESULT:      -4.8      3.583      8.038
  Name = 
  11 active torsions:
  status: ('A' for Active; 'I' for Inactive)
    1  A    between atoms: C_1  and  C_21
    2  A    between atoms: C_7  and  C_15
    3  A    between atoms: C_7  and  C_30
    4  A    between atoms: P_12  and  C_14
    5  A    between atoms: C_21  and  P_22
    6  A    between atoms: N_25  and  C_40
    7  A    between atoms: C_30  and  C_40
    8  A    between atoms: C_32  and  C_37
    9  A    between atoms: C_33  and  C_45
   10  A    between atoms: O_34  and  C_36
   11  A    between atoms: O_34  and  C_39
                            x       y       z     vdW  Elec       q    Type
                         _______ _______ _______ _____ _____    ______ ____

>  <TORSDO>
F 11

$$$$
=
 OpenBabel10222420073D

 48 52  0  0  1  0  0  0  0  0999 V2000
  184.9430  178.4480  139.4080 C   0  0  1  0  0  0  0  0  0  0  0  0
  186.2770  179.2400  139.2830 C   0  0  0  0  0  2  0  0  0  0  0  0
  187.5810  178.3890  139.3470 C   0  0  1  0  0  3  0  0  0  0  0  0
  183.3010  177.5840  137.8820 N   0  0  0  0  0  0  0  0  0  0  0  0
  184.8910  177.6480  140.7290 C   0  0  0  0  0  2  0  0  0  0  0  0
  189.7470  176.2030  138.5800 C   0  0  2  0  0  3  0  0  0  0  0  0
  187.9250  177.6410  140.6700 C   0  0  1  0  0  3  0  0  0  0  0  0
  188.4650  176.4900  137.8590 C   0  0  0  0  0  3  0  0  0  0  0  0
  182.9720  175.0600  138.0720 C   0  0  0  0  0  1  0  0  0  0  0  0
  183.7390  179.3920  139.3530 C   0  0  0  0  0  2  0  0  0  0  0  0
  189.5780  175.9770  139.9690 O   0  0  0  0  0  0  0  0  0  0  0  0
  189.3920  177.2170  140.6010 C   0  0  0  0  0  2  0  0  0  0  0  0
  184.7160  177.5160  138.2240 C   0  0  0  0  0  2  0  0  0  0  0  0
  185.2530  178.4030  142.0520 C   0  0  1  0  0  3  0  0  0  0  0  0
  182.6240  178.6250  138.6260 C   0  0  1  0  0  3  0  0  0  0  0  0
  181.5470  176.4800  136.8020 O   0  0  0  0  0  0  0  0  0  0  0  0
  187.6970  178.3270  142.0680 C   0  0  2  0  0  3  0  0  0  0  0  0
  186.5090  179.1750  142.1010 N   0  0  0  0  0  2  0  0  0  0  0  0
  187.5690  177.4350  138.1810 C   0  0  0  0  0  3  0  0  0  0  0  0
  182.5830  176.3940  137.5000 C   0  0  0  0  0  0  0  0  0  0  0  0
  183.9920  179.0130  144.4140 C   0  0  2  0  0  3  0  0  0  0  0  0
  184.0550  178.9460  142.8960 C   0  0  1  0  0  3  0  0  0  0  0  0
  184.4750  180.0860  143.6520 O   0  0  0  0  0  0  0  0  0  0  0  0
  185.3420  178.3220  145.4490 P   0  0  0  0  0  0  0  0  0  0  0  0
  184.8870  177.8730  146.8160 O   0  0  0  0  0  1  0  0  0  0  0  0
  186.4710  179.5580  145.6260 O   0  0  0  0  0  1  0  0  0  0  0  0
  186.0560  176.9550  144.7070 O   0  0  0  0  0  0  0  0  0  0  0  0
  180.5530  179.8550  138.0970 C   0  0  0  0  0  3  0  0  0  0  0  0
  181.7920  179.5090  137.7330 C   0  0  0  0  0  3  0  0  0  0  0  0
  179.7270  180.7520  137.2440 C   0  0  0  0  0  2  0  0  0  0  0  0
  181.2450  182.9720  137.9530 O   0  0  0  0  0  1  0  0  0  0  0  0
  179.1050  182.5700  139.4200 O   0  0  0  0  0  1  0  0  0  0  0  0
  179.8060  182.4940  137.8710 P   0  0  0  0  0  0  0  0  0  0  0  0
  178.9410  183.5070  136.8130 O   0  0  0  0  0  0  0  0  0  0  0  0
  190.8870  177.1350  138.1560 C   0  0  0  0  0  2  0  0  0  0  0  0
  191.8470  176.3770  137.2670 C   0  0  0  0  0  2  0  0  0  0  0  0
  193.1940  176.2330  137.9420 C   0  0  0  0  0  2  0  0  0  0  0  0
  192.9520  174.0360  136.8300 C   0  0  0  0  0  3  0  0  0  0  0  0
  195.7680  173.0490  136.3730 C   0  0  0  0  0  2  0  0  0  0  0  0
  196.1230  174.1310  137.4050 C   0  0  0  0  0  2  0  0  0  0  0  0
  193.7650  174.9300  137.6200 N   0  0  0  0  0  0  0  0  0  0  0  0
  194.9720  174.5260  138.3540 C   0  0  0  0  0  2  0  0  0  0  0  0
  194.6280  172.1480  136.8200 C   0  0  0  0  0  2  0  0  0  0  0  0
  193.3200  172.7970  136.4510 C   0  0  0  0  0  3  0  0  0  0  0  0
  188.8180  179.0750  142.5240 O   0  0  0  0  0  0  0  0  0  0  0  0
  189.2090  177.8630  144.6300 C   0  0  0  0  0  1  0  0  0  0  0  0
  190.9880  178.7700  143.2870 O   0  0  0  0  0  1  0  0  0  0  0  0
  189.7020  178.2320  143.2410 C   0  0  2  0  0  3  0  0  0  0  0  0
  1 13  1  6  0  0  0
  1  5  1  0  0  0  0
  2  3  1  0  0  0  0
  2  1  1  0  0  0  0
  3 19  1  6  0  0  0
  3  7  1  0  0  0  0
  4 13  1  0  0  0  0
  4 15  1  0  0  0  0
  6 35  1  1  0  0  0
  6 11  1  0  0  0  0
  7 12  1  6  0  0  0
  7 17  1  0  0  0  0
  8 19  2  0  0  0  0
  8  6  1  0  0  0  0
 10  1  1  0  0  0  0
 11 12  1  0  0  0  0
 14  5  1  6  0  0  0
 14 18  1  0  0  0  0
 14 22  1  0  0  0  0
 15 29  1  6  0  0  0
 15 10  1  0  0  0  0
 16 20  2  0  0  0  0
 17 18  1  0  0  0  0
 17 45  1  6  0  0  0
 20  4  1  0  0  0  0
 20  9  1  0  0  0  0
 21 24  1  1  0  0  0
 22 23  1  6  0  0  0
 22 21  1  0  0  0  0
 23 21  1  0  0  0  0
 24 26  1  0  0  0  0
 24 25  1  0  0  0  0
 27 24  2  0  0  0  0
 29 28  2  0  0  0  0
 30 33  1  0  0  0  0
 30 28  1  0  0  0  0
 33 31  1  0  0  0  0
 33 32  1  0  0  0  0
 34 33  2  0  0  0  0
 36 37  1  0  0  0  0
 36 35  1  0  0  0  0
 38 41  1  0  0  0  0
 39 43  1  0  0  0  0
 39 40  1  0  0  0  0
 40 42  1  0  0  0  0
 41 37  1  0  0  0  0
 41 42  1  0  0  0  0
 44 43  1  0  0  0  0
 44 38  2  0  0  0  0
 45 48  1  0  0  0  0
 48 47  1  0  0  0  0
 48 46  1  1  0  0  0
M  END
>  <MODEL>
7

>  <REMARK>
 VINA RESULT:      -4.5      4.234      7.769
  Name = 
  11 active torsions:
  status: ('A' for Active; 'I' for Inactive)
    1  A    between atoms: C_1  and  C_21
    2  A    between atoms: C_7  and  C_15
    3  A    between atoms: C_7  and  C_30
    4  A    between atoms: P_12  and  C_14
    5  A    between atoms: C_21  and  P_22
    6  A    between atoms: N_25  and  C_40
    7  A    between atoms: C_30  and  C_40
    8  A    between atoms: C_32  and  C_37
    9  A    between atoms: C_33  and  C_45
   10  A    between atoms: O_34  and  C_36
   11  A    between atoms: O_34  and  C_39
                            x       y       z     vdW  Elec       q    Type
                         _______ _______ _______ _____ _____    ______ ____

>  <TORSDO>
F 11

$$$$
=
 OpenBabel10222420073D

 48 52  0  0  1  0  0  0  0  0999 V2000
  183.3480  177.6030  137.7920 C   0  0  1  0  0  0  0  0  0  0  0  0
  184.0020  176.7140  138.8890 C   0  0  0  0  0  2  0  0  0  0  0  0
  184.6800  177.4760  140.0660 C   0  0  1  0  0  3  0  0  0  0  0  0
  181.1290  178.3770  137.2940 N   0  0  0  0  0  0  0  0  0  0  0  0
  184.3820  178.5660  137.1650 C   0  0  0  0  0  2  0  0  0  0  0  0
  185.0110  179.3950  142.5700 C   0  0  2  0  0  3  0  0  0  0  0  0
  185.9280  178.3610  139.7690 C   0  0  1  0  0  3  0  0  0  0  0  0
  183.7460  179.1060  141.8180 C   0  0  0  0  0  3  0  0  0  0  0  0
  180.9340  180.9200  137.2300 C   0  0  0  0  0  1  0  0  0  0  0  0
  182.7370  176.7440  136.6820 C   0  0  0  0  0  2  0  0  0  0  0  0
  186.0820  179.8060  141.7380 O   0  0  0  0  0  0  0  0  0  0  0  0
  186.6100  178.6720  141.1010 C   0  0  0  0  0  2  0  0  0  0  0  0
  182.1580  178.3910  138.3250 C   0  0  0  0  0  2  0  0  0  0  0  0
  185.7480  177.9620  136.6960 C   0  0  1  0  0  3  0  0  0  0  0  0
  181.4790  177.4870  136.2060 C   0  0  1  0  0  3  0  0  0  0  0  0
  179.2110  179.4510  136.5010 O   0  0  0  0  0  0  0  0  0  0  0  0
  187.0420  177.8740  138.7690 C   0  0  2  0  0  3  0  0  0  0  0  0
  186.5070  177.1190  137.6400 N   0  0  0  0  0  2  0  0  0  0  0  0
  183.6170  178.2730  140.7760 C   0  0  0  0  0  3  0  0  0  0  0  0
  180.3410  179.5550  137.0290 C   0  0  0  0  0  0  0  0  0  0  0  0
  186.0710  176.2210  134.5960 C   0  0  2  0  0  3  0  0  0  0  0  0
  185.8730  177.6130  135.1780 C   0  0  1  0  0  3  0  0  0  0  0  0
  184.7910  176.7610  134.7890 O   0  0  0  0  0  0  0  0  0  0  0  0
  186.3070  174.7640  135.6880 P   0  0  0  0  0  0  0  0  0  0  0  0
  186.4360  173.4610  134.9390 O   0  0  0  0  0  0  0  0  0  0  0  0
  184.9430  174.6960  136.6740 O   0  0  0  0  0  1  0  0  0  0  0  0
  187.7260  174.9180  136.6330 O   0  0  0  0  0  1  0  0  0  0  0  0
  180.3160  175.3170  136.3560 C   0  0  0  0  0  3  0  0  0  0  0  0
  180.3480  176.5550  135.8520 C   0  0  0  0  0  3  0  0  0  0  0  0
  179.1930  174.3920  136.0440 C   0  0  0  0  0  2  0  0  0  0  0  0
  179.0230  171.9420  137.3470 O   0  0  0  0  0  1  0  0  0  0  0  0
  181.4190  172.5840  136.4870 O   0  0  0  0  0  1  0  0  0  0  0  0
  179.7430  172.6300  136.2000 P   0  0  0  0  0  0  0  0  0  0  0  0
  179.3980  171.8080  134.7510 O   0  0  0  0  0  0  0  0  0  0  0  0
  185.3180  178.3420  143.6390 C   0  0  0  0  0  2  0  0  0  0  0  0
  184.5250  178.6520  144.8880 C   0  0  0  0  0  2  0  0  0  0  0  0
  185.3800  179.3990  145.8890 C   0  0  0  0  0  2  0  0  0  0  0  0
  187.3460  178.0570  145.2180 C   0  0  0  0  0  3  0  0  0  0  0  0
  189.1420  177.9900  147.6440 C   0  0  0  0  0  2  0  0  0  0  0  0
  187.8720  178.4530  148.3750 C   0  0  0  0  0  2  0  0  0  0  0  0
  186.5140  178.5700  146.2800 N   0  0  0  0  0  0  0  0  0  0  0  0
  186.5490  178.0910  147.6690 C   0  0  0  0  0  2  0  0  0  0  0  0
  188.9090  176.7880  146.7430 C   0  0  0  0  0  2  0  0  0  0  0  0
  188.4260  177.2720  145.4010 C   0  0  0  0  0  3  0  0  0  0  0  0
  188.0730  177.1160  139.3920 O   0  0  0  0  0  0  0  0  0  0  0  0
  190.5180  176.9510  139.6170 C   0  0  0  0  0  1  0  0  0  0  0  0
  189.4210  178.7910  138.5190 O   0  0  0  0  0  1  0  0  0  0  0  0
  189.3240  177.4290  138.8070 C   0  0  2  0  0  3  0  0  0  0  0  0
  1 10  1  6  0  0  0
  1 13  1  0  0  0  0
  1  2  1  0  0  0  0
  3  2  1  6  0  0  0
  3 19  1  0  0  0  0
  4 13  1  0  0  0  0
  5  1  1  0  0  0  0
  6 35  1  6  0  0  0
  7  3  1  0  0  0  0
  7 12  1  1  0  0  0
  8  6  1  0  0  0  0
 11  6  1  0  0  0  0
 12 11  1  0  0  0  0
 14  5  1  1  0  0  0
 14 18  1  0  0  0  0
 15 29  1  1  0  0  0
 15 10  1  0  0  0  0
 15  4  1  0  0  0  0
 16 20  2  0  0  0  0
 17 45  1  1  0  0  0
 17  7  1  0  0  0  0
 18 17  1  0  0  0  0
 19  8  2  0  0  0  0
 20  9  1  0  0  0  0
 20  4  1  0  0  0  0
 21 23  1  0  0  0  0
 21 22  1  0  0  0  0
 21 24  1  1  0  0  0
 22 23  1  6  0  0  0
 22 14  1  0  0  0  0
 24 27  1  0  0  0  0
 24 26  1  0  0  0  0
 25 24  2  0  0  0  0
 29 28  2  0  0  0  0
 30 33  1  0  0  0  0
 30 28  1  0  0  0  0
 33 32  1  0  0  0  0
 33 31  1  0  0  0  0
 34 33  2  0  0  0  0
 35 36  1  0  0  0  0
 36 37  1  0  0  0  0
 37 41  1  0  0  0  0
 38 44  2  0  0  0  0
 38 41  1  0  0  0  0
 39 40  1  0  0  0  0
 41 42  1  0  0  0  0
 42 40  1  0  0  0  0
 43 39  1  0  0  0  0
 44 43  1  0  0  0  0
 47 48  1  0  0  0  0
 48 45  1  0  0  0  0
 48 46  1  1  0  0  0
M  END
>  <MODEL>
8

>  <REMARK>
 VINA RESULT:      -4.2      1.619      2.408
  Name = 
  11 active torsions:
  status: ('A' for Active; 'I' for Inactive)
    1  A    between atoms: C_1  and  C_21
    2  A    between atoms: C_7  and  C_15
    3  A    between atoms: C_7  and  C_30
    4  A    between atoms: P_12  and  C_14
    5  A    between atoms: C_21  and  P_22
    6  A    between atoms: N_25  and  C_40
    7  A    between atoms: C_30  and  C_40
    8  A    between atoms: C_32  and  C_37
    9  A    between atoms: C_33  and  C_45
   10  A    between atoms: O_34  and  C_36
   11  A    between atoms: O_34  and  C_39
                            x       y       z     vdW  Elec       q    Type
                         _______ _______ _______ _____ _____    ______ ____

>  <TORSDO>
F 11

$$$$
=
 OpenBabel10222420073D

 48 52  0  0  1  0  0  0  0  0999 V2000
  189.4640  176.0160  137.2120 C   0  0  1  0  0  0  0  0  0  0  0  0
  189.8580  175.2000  138.4770 C   0  0  0  0  0  2  0  0  0  0  0  0
  190.2960  176.0360  139.7170 C   0  0  1  0  0  3  0  0  0  0  0  0
  187.4120  176.7710  136.2170 N   0  0  0  0  0  0  0  0  0  0  0  0
  190.6250  176.9250  136.7510 C   0  0  0  0  0  2  0  0  0  0  0  0
  190.1480  178.1210  142.1020 C   0  0  2  0  0  3  0  0  0  0  0  0
  191.5980  176.8880  139.6260 C   0  0  1  0  0  3  0  0  0  0  0  0
  189.0580  177.7910  141.1260 C   0  0  0  0  0  3  0  0  0  0  0  0
  187.2900  179.3060  135.9460 C   0  0  0  0  0  1  0  0  0  0  0  0
  189.0750  175.0870  136.0590 C   0  0  0  0  0  2  0  0  0  0  0  0
  191.3760  178.4650  141.4850 O   0  0  0  0  0  0  0  0  0  0  0  0
  191.9980  177.2860  141.0460 C   0  0  0  0  0  2  0  0  0  0  0  0
  188.2070  176.8490  137.4350 C   0  0  0  0  0  2  0  0  0  0  0  0
  192.0450  176.2800  136.6160 C   0  0  1  0  0  3  0  0  0  0  0  0
  187.9580  175.8050  135.2860 C   0  0  1  0  0  3  0  0  0  0  0  0
  185.7220  177.8030  134.9750 O   0  0  0  0  0  0  0  0  0  0  0  0
  192.8820  176.3250  138.9120 C   0  0  2  0  0  3  0  0  0  0  0  0
  192.5750  175.4980  137.7490 N   0  0  0  0  0  2  0  0  0  0  0  0
  189.1280  176.8890  140.1370 C   0  0  0  0  0  3  0  0  0  0  0  0
  186.7220  177.9340  135.7180 C   0  0  0  0  0  0  0  0  0  0  0  0
  193.8710  175.9270  134.5940 C   0  0  2  0  0  3  0  0  0  0  0  0
  192.4720  175.8250  135.1820 C   0  0  1  0  0  3  0  0  0  0  0  0
  193.4430  174.7790  135.2770 O   0  0  0  0  0  0  0  0  0  0  0  0
  195.2310  176.7390  135.5220 P   0  0  0  0  0  0  0  0  0  0  0  0
  196.3540  177.2300  134.6430 O   0  0  0  0  0  0  0  0  0  0  0  0
  195.8320  175.5740  136.5790 O   0  0  0  0  0  1  0  0  0  0  0  0
  194.6650  178.1040  136.3860 O   0  0  0  0  0  1  0  0  0  0  0  0
  185.9360  174.4250  135.5800 C   0  0  0  0  0  3  0  0  0  0  0  0
  186.9050  174.8600  134.7680 C   0  0  0  0  0  3  0  0  0  0  0  0
  184.8680  173.5160  135.0800 C   0  0  0  0  0  2  0  0  0  0  0  0
  182.7000  172.9870  136.7380 O   0  0  0  0  0  1  0  0  0  0  0  0
  185.0540  172.8040  137.8870 O   0  0  0  0  0  1  0  0  0  0  0  0
  184.1320  172.5520  136.4800 P   0  0  0  0  0  0  0  0  0  0  0  0
  184.1500  170.8960  136.0860 O   0  0  0  0  0  0  0  0  0  0  0  0
  190.2050  177.1420  143.2790 C   0  0  0  0  0  2  0  0  0  0  0  0
  189.9010  177.8830  144.5610 C   0  0  0  0  0  2  0  0  0  0  0  0
  188.9270  177.0980  145.4110 C   0  0  0  0  0  2  0  0  0  0  0  0
  186.8550  177.6420  144.1730 C   0  0  0  0  0  3  0  0  0  0  0  0
  184.7810  178.2220  146.2880 C   0  0  0  0  0  2  0  0  0  0  0  0
  186.0080  178.3460  147.2040 C   0  0  0  0  0  2  0  0  0  0  0  0
  187.6230  177.7510  145.3910 N   0  0  0  0  0  0  0  0  0  0  0  0
  187.3260  178.6920  146.4790 C   0  0  0  0  0  2  0  0  0  0  0  0
  184.9110  179.0220  145.0030 C   0  0  0  0  0  2  0  0  0  0  0  0
  185.6390  178.1900  143.9810 C   0  0  0  0  0  3  0  0  0  0  0  0
  193.7460  175.6030  139.7830 O   0  0  0  0  0  0  0  0  0  0  0  0
  196.1350  175.0130  139.8210 C   0  0  0  0  0  1  0  0  0  0  0  0
  195.3020  177.1600  140.5200 O   0  0  0  0  0  1  0  0  0  0  0  0
  195.0720  176.0860  139.6590 C   0  0  2  0  0  3  0  0  0  0  0  0
  1 10  1  6  0  0  0
  1 13  1  0  0  0  0
  1  2  1  0  0  0  0
  3  2  1  6  0  0  0
  3 19  1  0  0  0  0
  4 13  1  0  0  0  0
  5  1  1  0  0  0  0
  6 35  1  1  0  0  0
  7  3  1  0  0  0  0
  7 12  1  1  0  0  0
  8  6  1  0  0  0  0
 11  6  1  0  0  0  0
 12 11  1  0  0  0  0
 14  5  1  6  0  0  0
 14 18  1  0  0  0  0
 15 29  1  1  0  0  0
 15 10  1  0  0  0  0
 15  4  1  0  0  0  0
 16 20  2  0  0  0  0
 17  7  1  0  0  0  0
 17 45  1  1  0  0  0
 18 17  1  0  0  0  0
 19  8  2  0  0  0  0
 20  9  1  0  0  0  0
 20  4  1  0  0  0  0
 21 22  1  0  0  0  0
 21 23  1  0  0  0  0
 21 24  1  1  0  0  0
 22 23  1  1  0  0  0
 22 14  1  0  0  0  0
 24 27  1  0  0  0  0
 24 26  1  0  0  0  0
 25 24  2  0  0  0  0
 29 28  2  0  0  0  0
 30 28  1  0  0  0  0
 30 33  1  0  0  0  0
 33 31  1  0  0  0  0
 33 32  1  0  0  0  0
 34 33  2  0  0  0  0
 35 36  1  0  0  0  0
 36 37  1  0  0  0  0
 38 41  1  0  0  0  0
 39 40  1  0  0  0  0
 41 37  1  0  0  0  0
 41 42  1  0  0  0  0
 42 40  1  0  0  0  0
 43 39  1  0  0  0  0
 44 38  2  0  0  0  0
 44 43  1  0  0  0  0
 48 45  1  0  0  0  0
 48 46  1  1  0  0  0
 48 47  1  0  0  0  0
M  END
>  <MODEL>
9

>  <REMARK>
 VINA RESULT:      -4.1      4.129      6.459
  Name = 
  11 active torsions:
  status: ('A' for Active; 'I' for Inactive)
    1  A    between atoms: C_1  and  C_21
    2  A    between atoms: C_7  and  C_15
    3  A    between atoms: C_7  and  C_30
    4  A    between atoms: P_12  and  C_14
    5  A    between atoms: C_21  and  P_22
    6  A    between atoms: N_25  and  C_40
    7  A    between atoms: C_30  and  C_40
    8  A    between atoms: C_32  and  C_37
    9  A    between atoms: C_33  and  C_45
   10  A    between atoms: O_34  and  C_36
   11  A    between atoms: O_34  and  C_39
                            x       y       z     vdW  Elec       q    Type
                         _______ _______ _______ _____ _____    ______ ____

>  <TORSDO>
F 11

$$$$
