=
 OpenBabel10222419343D

 39 42  0  0  1  0  0  0  0  0999 V2000
  188.5110  178.6360  140.2900 C   0  0  2  0  0  3  0  0  0  0  0  0
  190.1460  177.3290  139.2570 C   0  0  2  0  0  3  0  0  0  0  0  0
  187.8310  177.5460  139.4810 C   0  0  0  0  0  2  0  0  0  0  0  0
  189.9200  178.1350  140.5380 C   0  0  2  0  0  3  0  0  0  0  0  0
  188.8720  176.7600  138.8230 N   0  0  0  0  0  2  0  0  0  0  0  0
  190.0570  177.3540  141.8710 C   0  0  2  0  0  3  0  0  0  0  0  0
  191.2650  177.8100  142.6510 C   0  0  0  0  0  0  0  0  0  0  0  0
  192.3710  177.4440  142.2910 O   0  0  0  0  0  0  0  0  0  0  0  0
  191.1510  178.7180  143.8410 C   0  0  0  0  0  2  0  0  0  0  0  0
  191.3960  177.2190  145.8220 C   0  0  0  0  0  3  0  0  0  0  0  0
  190.8710  176.5820  146.9510 C   0  0  0  0  0  3  0  0  0  0  0  0
  189.5210  176.7500  147.2830 C   0  0  0  0  0  3  0  0  0  0  0  0
  190.5720  178.0150  145.0220 C   0  0  0  0  0  0  0  0  0  0  0  0
  189.2210  178.1870  145.3620 C   0  0  0  0  0  3  0  0  0  0  0  0
  188.6950  177.5530  146.4890 C   0  0  0  0  0  3  0  0  0  0  0  0
  190.0190  175.9670  141.6830 O   0  0  0  0  0  0  0  0  0  0  0  0
  188.2540  175.8160  143.1270 O   0  0  0  0  0  1  0  0  0  0  0  0
  189.5740  175.4280  142.8930 C   0  0  0  0  0  2  0  0  0  0  0  0
  191.3290  176.3480  139.1960 C   0  0  0  0  0  2  0  0  0  0  0  0
  193.8190  174.7610  135.3860 C   0  0  0  0  0  0  0  0  0  0  0  0
  192.5790  175.6510  137.1550 C   0  0  0  0  0  0  0  0  0  0  0  0
  195.0640  174.8240  134.8840 N   0  0  0  0  0  0  0  0  0  0  0  0
  196.8370  176.5870  134.9930 C   0  0  0  0  0  1  0  0  0  0  0  0
  193.5660  175.8470  136.1250 C   0  0  0  0  0  0  0  0  0  0  0  0
  192.2630  176.5840  138.0510 C   0  0  0  0  0  2  0  0  0  0  0  0
  192.8570  173.3100  135.7660 S   0  0  0  0  0  0  0  0  0  0  0  0
  195.4780  176.0510  135.2950 C   0  0  0  0  0  0  0  0  0  0  0  0
  192.0370  174.2440  137.1420 C   0  0  0  0  0  3  0  0  0  0  0  0
  194.6090  176.6930  136.1170 N   0  0  0  0  0  2  0  0  0  0  0  0
  187.7170  179.0310  141.5270 C   0  0  0  0  0  2  0  0  0  0  0  0
  186.4220  178.2490  141.5640 C   0  0  0  0  0  2  0  0  0  0  0  0
  185.2610  179.1360  141.9870 C   0  0  1  0  0  3  0  0  0  0  0  0
  184.5210  179.4880  140.8540 O   0  0  0  0  0  1  0  0  0  0  0  0
  182.9230  178.8940  142.8800 C   0  0  0  0  0  1  0  0  0  0  0  0
  184.3650  178.4130  143.0040 C   0  0  2  0  0  3  0  0  0  0  0  0
  183.7840  178.4870  145.3340 F   0  0  0  0  0  0  0  0  0  0  0  0
  184.8470  178.6010  144.4520 C   0  0  0  0  0  0  0  0  0  0  0  0
  185.4000  179.8600  144.6070 F   0  0  0  0  0  0  0  0  0  0  0  0
  185.8000  177.6470  144.7690 F   0  0  0  0  0  0  0  0  0  0  0  0
  1  4  1  0  0  0  0
  1 30  1  1  0  0  0
  2 19  1  1  0  0  0
  2  4  1  0  0  0  0
  3  1  1  0  0  0  0
  4  6  1  1  0  0  0
  5  2  1  0  0  0  0
  5  3  1  0  0  0  0
  6 16  1  6  0  0  0
  6  7  1  0  0  0  0
  7  9  1  0  0  0  0
  8  7  2  0  0  0  0
  9 13  1  0  0  0  0
 10 11  1  0  0  0  0
 11 12  2  0  0  0  0
 13 14  1  0  0  0  0
 13 10  2  0  0  0  0
 14 15  2  0  0  0  0
 15 12  1  0  0  0  0
 16 18  1  0  0  0  0
 18 17  1  0  0  0  0
 20 26  1  0  0  0  0
 20 24  2  0  0  0  0
 21 25  1  0  0  0  0
 22 27  2  0  0  0  0
 22 20  1  0  0  0  0
 23 27  1  0  0  0  0
 24 21  1  0  0  0  0
 25 19  1  0  0  0  0
 26 28  1  0  0  0  0
 27 29  1  0  0  0  0
 28 21  2  0  0  0  0
 29 24  1  0  0  0  0
 30 31  1  0  0  0  0
 31 32  1  0  0  0  0
 32 33  1  6  0  0  0
 32 35  1  0  0  0  0
 35 34  1  1  0  0  0
 35 37  1  0  0  0  0
 37 38  1  0  0  0  0
 37 39  1  0  0  0  0
 37 36  1  0  0  0  0
M  END
>  <MODEL>
1

>  <REMARK>
 VINA RESULT:      -7.8      0.000      0.000
  Name = 
  13 active torsions:
  status: ('A' for Active; 'I' for Inactive)
    1  A    between atoms: O_1  and  C_11
    2  A    between atoms: O_1  and  C_21
    3  A    between atoms: C_3  and  C_35
    4  A    between atoms: C_9  and  C_28
    5  A    between atoms: C_9  and  C_29
    6  A    between atoms: C_11  and  C_20
    7  A    between atoms: C_11  and  C_26
    8  A    between atoms: C_12  and  C_28
    9  A    between atoms: C_15  and  C_22
   10  A    between atoms: C_18  and  C_22
   11  A    between atoms: C_19  and  C_20
   12  A    between atoms: C_19  and  C_27
   13  A    between atoms: C_29  and  C_35
                            x       y       z     vdW  Elec       q    Type
                         _______ _______ _______ _____ _____    ______ ____

>  <TORSDO>
F 13

$$$$
=
 OpenBabel10222419343D

 39 42  0  0  1  0  0  0  0  0999 V2000
  189.6360  176.1190  138.1690 C   0  0  2  0  0  3  0  0  0  0  0  0
  188.7460  177.8920  139.4000 C   0  0  2  0  0  3  0  0  0  0  0  0
  189.7630  177.3960  137.3570 C   0  0  0  0  0  2  0  0  0  0  0  0
  189.4900  176.5710  139.6090 C   0  0  2  0  0  3  0  0  0  0  0  0
  189.1740  178.4830  138.1360 N   0  0  0  0  0  2  0  0  0  0  0  0
  190.8460  176.6590  140.3540 C   0  0  2  0  0  3  0  0  0  0  0  0
  190.6540  176.6120  141.8500 C   0  0  0  0  0  0  0  0  0  0  0  0
  190.0780  175.6560  142.3400 O   0  0  0  0  0  0  0  0  0  0  0  0
  191.1720  177.6910  142.7560 C   0  0  0  0  0  2  0  0  0  0  0  0
  189.4870  177.8850  144.5870 C   0  0  0  0  0  3  0  0  0  0  0  0
  189.0740  177.6570  145.9030 C   0  0  0  0  0  3  0  0  0  0  0  0
  189.9310  177.0080  146.8020 C   0  0  0  0  0  3  0  0  0  0  0  0
  190.7560  177.4740  144.1720 C   0  0  0  0  0  0  0  0  0  0  0  0
  191.6090  176.8180  145.0720 C   0  0  0  0  0  3  0  0  0  0  0  0
  191.1990  176.5880  146.3860 C   0  0  0  0  0  3  0  0  0  0  0  0
  191.6140  177.7520  139.9360 O   0  0  0  0  0  0  0  0  0  0  0  0
  193.4110  177.0790  138.6940 O   0  0  0  0  0  1  0  0  0  0  0  0
  192.9450  177.3290  139.9860 C   0  0  0  0  0  2  0  0  0  0  0  0
  188.6630  178.8890  140.5690 C   0  0  0  0  0  2  0  0  0  0  0  0
  184.2410  178.3440  142.4070 C   0  0  0  0  0  0  0  0  0  0  0  0
  186.4190  178.4770  141.5720 C   0  0  0  0  0  0  0  0  0  0  0  0
  183.5670  178.6130  143.5370 N   0  0  0  0  0  0  0  0  0  0  0  0
  184.2770  178.7310  145.9350 C   0  0  0  0  0  1  0  0  0  0  0  0
  185.5410  178.1800  142.6750 C   0  0  0  0  0  0  0  0  0  0  0  0
  187.7460  178.4650  141.6730 C   0  0  0  0  0  2  0  0  0  0  0  0
  183.8360  178.8310  140.7410 S   0  0  0  0  0  0  0  0  0  0  0  0
  184.5360  178.5000  144.4830 C   0  0  0  0  0  0  0  0  0  0  0  0
  185.6470  178.8880  140.3450 C   0  0  0  0  0  3  0  0  0  0  0  0
  185.7830  178.2960  143.9910 N   0  0  0  0  0  2  0  0  0  0  0  0
  190.7600  175.1320  137.8920 C   0  0  0  0  0  2  0  0  0  0  0  0
  190.1820  173.8620  137.3060 C   0  0  0  0  0  2  0  0  0  0  0  0
  188.8240  174.1230  136.6710 C   0  0  1  0  0  3  0  0  0  0  0  0
  188.9910  174.2850  135.2920 O   0  0  0  0  0  1  0  0  0  0  0  0
  187.9090  171.9370  135.8320 C   0  0  0  0  0  1  0  0  0  0  0  0
  187.8560  172.9650  136.9570 C   0  0  2  0  0  3  0  0  0  0  0  0
  186.3850  174.7740  137.5280 F   0  0  0  0  0  0  0  0  0  0  0  0
  186.4080  173.4420  137.1510 C   0  0  0  0  0  0  0  0  0  0  0  0
  185.7970  172.7030  138.1480 F   0  0  0  0  0  0  0  0  0  0  0  0
  185.6910  173.2930  135.9740 F   0  0  0  0  0  0  0  0  0  0  0  0
  1 30  1  1  0  0  0
  1  4  1  0  0  0  0
  2  4  1  0  0  0  0
  2 19  1  1  0  0  0
  3  5  1  0  0  0  0
  3  1  1  0  0  0  0
  4  6  1  6  0  0  0
  5  2  1  0  0  0  0
  6 16  1  1  0  0  0
  6  7  1  0  0  0  0
  7  8  2  0  0  0  0
  7  9  1  0  0  0  0
  9 13  1  0  0  0  0
 10 11  1  0  0  0  0
 11 12  2  0  0  0  0
 13 10  2  0  0  0  0
 13 14  1  0  0  0  0
 14 15  2  0  0  0  0
 15 12  1  0  0  0  0
 16 18  1  0  0  0  0
 17 18  1  0  0  0  0
 19 25  1  0  0  0  0
 20 24  2  0  0  0  0
 20 22  1  0  0  0  0
 21 25  1  0  0  0  0
 21 24  1  0  0  0  0
 22 27  2  0  0  0  0
 24 29  1  0  0  0  0
 26 20  1  0  0  0  0
 27 23  1  0  0  0  0
 28 26  1  0  0  0  0
 28 21  2  0  0  0  0
 29 27  1  0  0  0  0
 31 30  1  0  0  0  0
 32 33  1  6  0  0  0
 32 35  1  0  0  0  0
 32 31  1  0  0  0  0
 35 34  1  6  0  0  0
 35 37  1  0  0  0  0
 37 36  1  0  0  0  0
 37 38  1  0  0  0  0
 39 37  1  0  0  0  0
M  END
>  <MODEL>
2

>  <REMARK>
 VINA RESULT:      -7.3      4.063      7.831
  Name = 
  13 active torsions:
  status: ('A' for Active; 'I' for Inactive)
    1  A    between atoms: O_1  and  C_11
    2  A    between atoms: O_1  and  C_21
    3  A    between atoms: C_3  and  C_35
    4  A    between atoms: C_9  and  C_28
    5  A    between atoms: C_9  and  C_29
    6  A    between atoms: C_11  and  C_20
    7  A    between atoms: C_11  and  C_26
    8  A    between atoms: C_12  and  C_28
    9  A    between atoms: C_15  and  C_22
   10  A    between atoms: C_18  and  C_22
   11  A    between atoms: C_19  and  C_20
   12  A    between atoms: C_19  and  C_27
   13  A    between atoms: C_29  and  C_35
                            x       y       z     vdW  Elec       q    Type
                         _______ _______ _______ _____ _____    ______ ____

>  <TORSDO>
F 13

$$$$
=
 OpenBabel10222419343D

 39 42  0  0  1  0  0  0  0  0999 V2000
  190.0160  175.9750  138.3620 C   0  0  2  0  0  3  0  0  0  0  0  0
  189.0070  177.7830  139.4400 C   0  0  2  0  0  3  0  0  0  0  0  0
  190.1600  177.2110  137.4920 C   0  0  0  0  0  2  0  0  0  0  0  0
  189.7700  176.4970  139.7650 C   0  0  2  0  0  3  0  0  0  0  0  0
  189.4970  178.3200  138.1740 N   0  0  0  0  0  2  0  0  0  0  0  0
  191.0750  176.6640  140.5840 C   0  0  2  0  0  3  0  0  0  0  0  0
  190.8050  176.5930  142.0660 C   0  0  0  0  0  0  0  0  0  0  0  0
  190.1620  175.6540  142.5040 O   0  0  0  0  0  0  0  0  0  0  0  0
  191.3220  177.6280  143.0230 C   0  0  0  0  0  2  0  0  0  0  0  0
  191.6740  176.7270  145.3240 C   0  0  0  0  0  3  0  0  0  0  0  0
  191.2490  176.5240  146.6400 C   0  0  0  0  0  3  0  0  0  0  0  0
  189.9920  176.9910  147.0480 C   0  0  0  0  0  3  0  0  0  0  0  0
  190.8430  177.3860  144.4150 C   0  0  0  0  0  0  0  0  0  0  0  0
  189.5880  177.8580  144.8280 C   0  0  0  0  0  3  0  0  0  0  0  0
  189.1610  177.6580  146.1420 C   0  0  0  0  0  3  0  0  0  0  0  0
  191.7950  177.8060  140.2140 O   0  0  0  0  0  0  0  0  0  0  0  0
  193.5860  177.2820  138.8950 O   0  0  0  0  0  1  0  0  0  0  0  0
  193.1410  177.4280  140.2090 C   0  0  0  0  0  2  0  0  0  0  0  0
  188.8260  178.8370  140.5460 C   0  0  0  0  0  2  0  0  0  0  0  0
  184.4440  178.3110  142.4830 C   0  0  0  0  0  0  0  0  0  0  0  0
  186.6020  178.4330  141.5970 C   0  0  0  0  0  0  0  0  0  0  0  0
  183.8010  178.5690  143.6340 N   0  0  0  0  0  0  0  0  0  0  0  0
  184.5710  178.6370  146.0150 C   0  0  0  0  0  1  0  0  0  0  0  0
  185.7480  178.1280  142.7160 C   0  0  0  0  0  0  0  0  0  0  0  0
  187.9320  178.4050  141.6660 C   0  0  0  0  0  2  0  0  0  0  0  0
  184.0040  178.8310  140.8360 S   0  0  0  0  0  0  0  0  0  0  0  0
  184.7910  178.4280  144.5540 C   0  0  0  0  0  0  0  0  0  0  0  0
  185.8060  178.8750  140.3960 C   0  0  0  0  0  3  0  0  0  0  0  0
  186.0240  178.2180  144.0270 N   0  0  0  0  0  2  0  0  0  0  0  0
  191.1810  175.0090  138.2070 C   0  0  0  0  0  2  0  0  0  0  0  0
  190.8950  174.0560  137.0650 C   0  0  0  0  0  2  0  0  0  0  0  0
  191.9180  174.2150  135.9510 C   0  0  1  0  0  3  0  0  0  0  0  0
  191.3390  174.9370  134.9030 O   0  0  0  0  0  1  0  0  0  0  0  0
  193.6210  176.0010  135.4680 C   0  0  0  0  0  1  0  0  0  0  0  0
  193.1740  174.9360  136.4640 C   0  0  2  0  0  3  0  0  0  0  0  0
  195.5510  174.6240  136.6100 F   0  0  0  0  0  0  0  0  0  0  0  0
  194.3370  173.9690  136.7400 C   0  0  0  0  0  0  0  0  0  0  0  0
  194.3120  172.9280  135.8300 F   0  0  0  0  0  0  0  0  0  0  0  0
  194.2380  173.4520  138.0220 F   0  0  0  0  0  0  0  0  0  0  0  0
  1 30  1  1  0  0  0
  1  4  1  0  0  0  0
  2  4  1  0  0  0  0
  2 19  1  1  0  0  0
  3  5  1  0  0  0  0
  3  1  1  0  0  0  0
  4  6  1  6  0  0  0
  5  2  1  0  0  0  0
  6 16  1  1  0  0  0
  6  7  1  0  0  0  0
  7  8  2  0  0  0  0
  7  9  1  0  0  0  0
  9 13  1  0  0  0  0
 10 11  1  0  0  0  0
 11 12  2  0  0  0  0
 13 14  1  0  0  0  0
 13 10  2  0  0  0  0
 14 15  2  0  0  0  0
 15 12  1  0  0  0  0
 17 18  1  0  0  0  0
 18 16  1  0  0  0  0
 19 25  1  0  0  0  0
 20 24  2  0  0  0  0
 20 22  1  0  0  0  0
 21 25  1  0  0  0  0
 21 24  1  0  0  0  0
 22 27  2  0  0  0  0
 24 29  1  0  0  0  0
 26 20  1  0  0  0  0
 27 23  1  0  0  0  0
 28 26  1  0  0  0  0
 28 21  2  0  0  0  0
 29 27  1  0  0  0  0
 31 30  1  0  0  0  0
 32 33  1  6  0  0  0
 32 35  1  0  0  0  0
 32 31  1  0  0  0  0
 35 34  1  6  0  0  0
 35 37  1  0  0  0  0
 36 37  1  0  0  0  0
 37 39  1  0  0  0  0
 38 37  1  0  0  0  0
M  END
>  <MODEL>
3

>  <REMARK>
 VINA RESULT:      -7.3      4.565      8.624
  Name = 
  13 active torsions:
  status: ('A' for Active; 'I' for Inactive)
    1  A    between atoms: O_1  and  C_11
    2  A    between atoms: O_1  and  C_21
    3  A    between atoms: C_3  and  C_35
    4  A    between atoms: C_9  and  C_28
    5  A    between atoms: C_9  and  C_29
    6  A    between atoms: C_11  and  C_20
    7  A    between atoms: C_11  and  C_26
    8  A    between atoms: C_12  and  C_28
    9  A    between atoms: C_15  and  C_22
   10  A    between atoms: C_18  and  C_22
   11  A    between atoms: C_19  and  C_20
   12  A    between atoms: C_19  and  C_27
   13  A    between atoms: C_29  and  C_35
                            x       y       z     vdW  Elec       q    Type
                         _______ _______ _______ _____ _____    ______ ____

>  <TORSDO>
F 13

$$$$
=
 OpenBabel10222419343D

 39 42  0  0  1  0  0  0  0  0999 V2000
  188.5100  178.5510  140.2260 C   0  0  2  0  0  3  0  0  0  0  0  0
  190.2550  177.3380  139.2590 C   0  0  2  0  0  3  0  0  0  0  0  0
  187.9250  177.4150  139.4060 C   0  0  0  0  0  2  0  0  0  0  0  0
  189.9390  178.1380  140.5240 C   0  0  2  0  0  3  0  0  0  0  0  0
  189.0340  176.6890  138.7880 N   0  0  0  0  0  2  0  0  0  0  0  0
  190.0780  177.3770  141.8670 C   0  0  2  0  0  3  0  0  0  0  0  0
  191.2310  177.9100  142.6820 C   0  0  0  0  0  0  0  0  0  0  0  0
  192.3680  177.6010  142.3660 O   0  0  0  0  0  0  0  0  0  0  0  0
  191.0250  178.8270  143.8520 C   0  0  0  0  0  2  0  0  0  0  0  0
  189.1730  178.1680  145.3900 C   0  0  0  0  0  3  0  0  0  0  0  0
  188.6880  177.4570  146.4920 C   0  0  0  0  0  3  0  0  0  0  0  0
  189.5590  176.6650  147.2510 C   0  0  0  0  0  3  0  0  0  0  0  0
  190.5260  178.0940  145.0510 C   0  0  0  0  0  0  0  0  0  0  0  0
  191.3950  177.2940  145.8090 C   0  0  0  0  0  3  0  0  0  0  0  0
  190.9130  176.5830  146.9100 C   0  0  0  0  0  3  0  0  0  0  0  0
  190.1300  175.9890  141.6910 O   0  0  0  0  0  0  0  0  0  0  0  0
  188.3190  175.7840  143.0710 O   0  0  0  0  0  1  0  0  0  0  0  0
  189.6570  175.4330  142.8830 C   0  0  0  0  0  2  0  0  0  0  0  0
  191.4980  176.4310  139.2450 C   0  0  0  0  0  2  0  0  0  0  0  0
  193.8020  174.7230  135.3720 C   0  0  0  0  0  0  0  0  0  0  0  0
  192.6500  175.6710  137.1700 C   0  0  0  0  0  0  0  0  0  0  0  0
  195.0260  174.7540  134.8180 N   0  0  0  0  0  0  0  0  0  0  0  0
  196.8310  176.4890  134.8170 C   0  0  0  0  0  1  0  0  0  0  0  0
  193.5980  175.8290  136.0970 C   0  0  0  0  0  0  0  0  0  0  0  0
  192.3870  176.6270  138.0580 C   0  0  0  0  0  2  0  0  0  0  0  0
  192.8330  173.2970  135.8210 S   0  0  0  0  0  0  0  0  0  0  0  0
  195.4770  175.9820  135.1860 C   0  0  0  0  0  0  0  0  0  0  0  0
  192.0850  174.2740  137.2100 C   0  0  0  0  0  3  0  0  0  0  0  0
  194.6530  176.6560  136.0280 N   0  0  0  0  0  2  0  0  0  0  0  0
  187.6540  178.9050  141.4330 C   0  0  0  0  0  2  0  0  0  0  0  0
  186.1920  178.7230  141.0830 C   0  0  0  0  0  2  0  0  0  0  0  0
  185.4070  178.1970  142.2750 C   0  0  1  0  0  3  0  0  0  0  0  0
  186.1750  178.3620  143.4320 O   0  0  0  0  0  1  0  0  0  0  0  0
  183.5140  178.7720  143.8270 C   0  0  0  0  0  1  0  0  0  0  0  0
  184.0680  178.9370  142.4160 C   0  0  2  0  0  3  0  0  0  0  0  0
  183.3550  177.2070  140.9100 F   0  0  0  0  0  0  0  0  0  0  0  0
  183.0230  178.4620  141.3930 C   0  0  0  0  0  0  0  0  0  0  0  0
  182.9780  179.3370  140.3220 F   0  0  0  0  0  0  0  0  0  0  0  0
  181.7690  178.4030  141.9800 F   0  0  0  0  0  0  0  0  0  0  0  0
  1  4  1  0  0  0  0
  1 30  1  1  0  0  0
  2 19  1  1  0  0  0
  2  4  1  0  0  0  0
  3  1  1  0  0  0  0
  4  6  1  1  0  0  0
  5  2  1  0  0  0  0
  5  3  1  0  0  0  0
  6 16  1  6  0  0  0
  6  7  1  0  0  0  0
  7  9  1  0  0  0  0
  8  7  2  0  0  0  0
  9 13  1  0  0  0  0
 10 11  1  0  0  0  0
 11 12  2  0  0  0  0
 13 10  2  0  0  0  0
 13 14  1  0  0  0  0
 14 15  2  0  0  0  0
 15 12  1  0  0  0  0
 16 18  1  0  0  0  0
 18 17  1  0  0  0  0
 20 26  1  0  0  0  0
 20 24  2  0  0  0  0
 21 28  2  0  0  0  0
 21 25  1  0  0  0  0
 22 27  2  0  0  0  0
 22 20  1  0  0  0  0
 23 27  1  0  0  0  0
 24 21  1  0  0  0  0
 25 19  1  0  0  0  0
 26 28  1  0  0  0  0
 27 29  1  0  0  0  0
 29 24  1  0  0  0  0
 31 30  1  0  0  0  0
 31 32  1  0  0  0  0
 32 35  1  0  0  0  0
 32 33  1  1  0  0  0
 35 34  1  1  0  0  0
 36 37  1  0  0  0  0
 37 39  1  0  0  0  0
 37 35  1  0  0  0  0
 38 37  1  0  0  0  0
M  END
>  <MODEL>
4

>  <REMARK>
 VINA RESULT:      -7.2      1.412      1.763
  Name = 
  13 active torsions:
  status: ('A' for Active; 'I' for Inactive)
    1  A    between atoms: O_1  and  C_11
    2  A    between atoms: O_1  and  C_21
    3  A    between atoms: C_3  and  C_35
    4  A    between atoms: C_9  and  C_28
    5  A    between atoms: C_9  and  C_29
    6  A    between atoms: C_11  and  C_20
    7  A    between atoms: C_11  and  C_26
    8  A    between atoms: C_12  and  C_28
    9  A    between atoms: C_15  and  C_22
   10  A    between atoms: C_18  and  C_22
   11  A    between atoms: C_19  and  C_20
   12  A    between atoms: C_19  and  C_27
   13  A    between atoms: C_29  and  C_35
                            x       y       z     vdW  Elec       q    Type
                         _______ _______ _______ _____ _____    ______ ____

>  <TORSDO>
F 13

$$$$
=
 OpenBabel10222419343D

 39 42  0  0  1  0  0  0  0  0999 V2000
  189.7320  176.9570  139.1830 C   0  0  2  0  0  3  0  0  0  0  0  0
  187.9240  178.0960  140.1240 C   0  0  2  0  0  3  0  0  0  0  0  0
  189.7660  178.4030  138.7230 C   0  0  0  0  0  2  0  0  0  0  0  0
  188.8940  176.9570  140.4470 C   0  0  2  0  0  3  0  0  0  0  0  0
  188.6110  179.0870  139.3010 N   0  0  0  0  0  2  0  0  0  0  0  0
  189.7430  177.1250  141.7330 C   0  0  2  0  0  3  0  0  0  0  0  0
  189.2990  176.1690  142.8120 C   0  0  0  0  0  0  0  0  0  0  0  0
  190.0490  175.2670  143.1450 O   0  0  0  0  0  0  0  0  0  0  0  0
  187.9750  176.3070  143.5060 C   0  0  0  0  0  2  0  0  0  0  0  0
  186.9900  177.4150  145.5130 C   0  0  0  0  0  3  0  0  0  0  0  0
  187.1070  177.9580  146.7970 C   0  0  0  0  0  3  0  0  0  0  0  0
  188.3560  177.9920  147.4300 C   0  0  0  0  0  3  0  0  0  0  0  0
  188.1190  176.9160  144.8600 C   0  0  0  0  0  0  0  0  0  0  0  0
  189.3670  176.9450  145.4990 C   0  0  0  0  0  3  0  0  0  0  0  0
  189.4870  177.4850  146.7810 C   0  0  0  0  0  3  0  0  0  0  0  0
  189.7940  178.4550  142.1680 O   0  0  0  0  0  0  0  0  0  0  0  0
  190.8950  179.5010  143.8770 O   0  0  0  0  0  1  0  0  0  0  0  0
  191.0230  178.6000  142.8180 C   0  0  0  0  0  2  0  0  0  0  0  0
  187.0790  178.6950  141.2610 C   0  0  0  0  0  2  0  0  0  0  0  0
  182.4530  178.9560  142.5880 C   0  0  0  0  0  0  0  0  0  0  0  0
  184.6690  178.9390  141.8500 C   0  0  0  0  0  0  0  0  0  0  0  0
  181.2640  178.4270  142.2510 N   0  0  0  0  0  0  0  0  0  0  0  0
  180.3340  177.6290  140.0690 C   0  0  0  0  0  1  0  0  0  0  0  0
  183.2660  178.9720  141.5260 C   0  0  0  0  0  0  0  0  0  0  0  0
  185.6280  178.8520  140.9300 C   0  0  0  0  0  2  0  0  0  0  0  0
  183.2430  178.9590  144.1850 S   0  0  0  0  0  0  0  0  0  0  0  0
  181.4070  178.2290  140.9140 C   0  0  0  0  0  0  0  0  0  0  0  0
  184.8940  178.9150  143.3400 C   0  0  0  0  0  3  0  0  0  0  0  0
  182.6480  178.4930  140.4340 N   0  0  0  0  0  2  0  0  0  0  0  0
  191.1200  176.3460  139.3040 C   0  0  0  0  0  2  0  0  0  0  0  0
  191.4800  175.6550  138.0060 C   0  0  0  0  0  2  0  0  0  0  0  0
  192.8040  176.1710  137.4620 C   0  0  1  0  0  3  0  0  0  0  0  0
  193.5720  176.6580  138.5230 O   0  0  0  0  0  1  0  0  0  0  0  0
  194.1430  174.0590  137.7170 C   0  0  0  0  0  1  0  0  0  0  0  0
  193.5610  175.0580  136.7230 C   0  0  2  0  0  3  0  0  0  0  0  0
  194.7340  174.9040  134.6330 F   0  0  0  0  0  0  0  0  0  0  0  0
  194.6850  175.6050  135.8270 C   0  0  0  0  0  0  0  0  0  0  0  0
  195.9060  175.4620  136.4600 F   0  0  0  0  0  0  0  0  0  0  0  0
  194.4720  176.9470  135.5530 F   0  0  0  0  0  0  0  0  0  0  0  0
  1 30  1  1  0  0  0
  1  4  1  0  0  0  0
  2  4  1  0  0  0  0
  2 19  1  1  0  0  0
  3  1  1  0  0  0  0
  3  5  1  0  0  0  0
  4  6  1  1  0  0  0
  5  2  1  0  0  0  0
  6 16  1  1  0  0  0
  6  7  1  0  0  0  0
  7  8  2  0  0  0  0
  7  9  1  0  0  0  0
  9 13  1  0  0  0  0
 10 11  1  0  0  0  0
 11 12  2  0  0  0  0
 13 14  1  0  0  0  0
 13 10  2  0  0  0  0
 14 15  2  0  0  0  0
 15 12  1  0  0  0  0
 16 18  1  0  0  0  0
 18 17  1  0  0  0  0
 20 26  1  0  0  0  0
 21 28  2  0  0  0  0
 22 20  1  0  0  0  0
 23 27  1  0  0  0  0
 24 21  1  0  0  0  0
 24 20  2  0  0  0  0
 25 19  1  0  0  0  0
 25 21  1  0  0  0  0
 27 22  2  0  0  0  0
 28 26  1  0  0  0  0
 29 27  1  0  0  0  0
 29 24  1  0  0  0  0
 31 30  1  0  0  0  0
 32 31  1  0  0  0  0
 32 33  1  1  0  0  0
 35 32  1  0  0  0  0
 35 34  1  1  0  0  0
 36 37  1  0  0  0  0
 37 38  1  0  0  0  0
 37 35  1  0  0  0  0
 39 37  1  0  0  0  0
M  END
>  <MODEL>
5

>  <REMARK>
 VINA RESULT:      -7.1      4.962      9.169
  Name = 
  13 active torsions:
  status: ('A' for Active; 'I' for Inactive)
    1  A    between atoms: O_1  and  C_11
    2  A    between atoms: O_1  and  C_21
    3  A    between atoms: C_3  and  C_35
    4  A    between atoms: C_9  and  C_28
    5  A    between atoms: C_9  and  C_29
    6  A    between atoms: C_11  and  C_20
    7  A    between atoms: C_11  and  C_26
    8  A    between atoms: C_12  and  C_28
    9  A    between atoms: C_15  and  C_22
   10  A    between atoms: C_18  and  C_22
   11  A    between atoms: C_19  and  C_20
   12  A    between atoms: C_19  and  C_27
   13  A    between atoms: C_29  and  C_35
                            x       y       z     vdW  Elec       q    Type
                         _______ _______ _______ _____ _____    ______ ____

>  <TORSDO>
F 13

$$$$
=
 OpenBabel10222419343D

 39 42  0  0  1  0  0  0  0  0999 V2000
  190.2880  177.5610  142.4110 C   0  0  2  0  0  3  0  0  0  0  0  0
  190.3170  176.6760  140.2520 C   0  0  2  0  0  3  0  0  0  0  0  0
  191.6320  177.8640  141.7720 C   0  0  0  0  0  2  0  0  0  0  0  0
  189.3430  177.2960  141.2550 C   0  0  2  0  0  3  0  0  0  0  0  0
  191.6360  177.2760  140.4340 N   0  0  0  0  0  2  0  0  0  0  0  0
  188.5940  178.5690  140.7850 C   0  0  2  0  0  3  0  0  0  0  0  0
  187.2790  178.7290  141.5070 C   0  0  0  0  0  0  0  0  0  0  0  0
  186.6370  179.7530  141.3400 O   0  0  0  0  0  0  0  0  0  0  0  0
  186.7240  177.6610  142.4020 C   0  0  0  0  0  2  0  0  0  0  0  0
  184.3090  178.2490  142.6370 C   0  0  0  0  0  3  0  0  0  0  0  0
  183.2210  178.6830  143.4000 C   0  0  0  0  0  3  0  0  0  0  0  0
  183.4020  179.0190  144.7480 C   0  0  0  0  0  3  0  0  0  0  0  0
  185.5780  178.1590  143.2160 C   0  0  0  0  0  0  0  0  0  0  0  0
  185.7550  178.4890  144.5680 C   0  0  0  0  0  3  0  0  0  0  0  0
  184.6700  178.9220  145.3330 C   0  0  0  0  0  3  0  0  0  0  0  0
  188.4640  178.6280  139.3920 O   0  0  0  0  0  0  0  0  0  0  0  0
  186.8220  178.6220  137.8020 O   0  0  0  0  0  1  0  0  0  0  0  0
  187.1420  178.2700  139.1150 C   0  0  0  0  0  2  0  0  0  0  0  0
  189.8820  176.5410  138.7820 C   0  0  0  0  0  2  0  0  0  0  0  0
  192.7850  174.4550  135.5490 C   0  0  0  0  0  0  0  0  0  0  0  0
  191.3700  175.5830  137.0270 C   0  0  0  0  0  0  0  0  0  0  0  0
  194.0950  174.3680  135.2620 N   0  0  0  0  0  0  0  0  0  0  0  0
  195.9960  175.9670  135.5660 C   0  0  0  0  0  1  0  0  0  0  0  0
  192.5270  175.6120  136.1690 C   0  0  0  0  0  0  0  0  0  0  0  0
  191.0090  176.6050  137.8000 C   0  0  0  0  0  2  0  0  0  0  0  0
  191.6320  173.1290  135.8450 S   0  0  0  0  0  0  0  0  0  0  0  0
  194.5580  175.5800  135.6650 C   0  0  0  0  0  0  0  0  0  0  0  0
  190.6970  174.2340  137.0050 C   0  0  0  0  0  3  0  0  0  0  0  0
  193.6370  176.3570  136.2890 N   0  0  0  0  0  2  0  0  0  0  0  0
  189.8510  178.6350  143.3960 C   0  0  0  0  0  2  0  0  0  0  0  0
  190.2860  178.2440  144.7930 C   0  0  0  0  0  2  0  0  0  0  0  0
  189.0850  177.9130  145.6660 C   0  0  1  0  0  3  0  0  0  0  0  0
  188.5270  176.7070  145.2320 O   0  0  0  0  0  1  0  0  0  0  0  0
  190.4170  176.6130  147.3550 C   0  0  0  0  0  1  0  0  0  0  0  0
  189.4950  177.8080  147.1420 C   0  0  2  0  0  3  0  0  0  0  0  0
  187.2030  178.3890  147.5610 F   0  0  0  0  0  0  0  0  0  0  0  0
  188.2850  177.6990  148.0840 C   0  0  0  0  0  0  0  0  0  0  0  0
  188.5920  178.2510  149.3140 F   0  0  0  0  0  0  0  0  0  0  0  0
  187.9310  176.3710  148.2600 F   0  0  0  0  0  0  0  0  0  0  0  0
  1 30  1  6  0  0  0
  2 19  1  6  0  0  0
  2  5  1  0  0  0  0
  2  4  1  0  0  0  0
  3  1  1  0  0  0  0
  4  6  1  6  0  0  0
  4  1  1  0  0  0  0
  5  3  1  0  0  0  0
  6 16  1  6  0  0  0
  6  7  1  0  0  0  0
  7  9  1  0  0  0  0
  8  7  2  0  0  0  0
  9 13  1  0  0  0  0
 10 13  2  0  0  0  0
 10 11  1  0  0  0  0
 11 12  2  0  0  0  0
 12 15  1  0  0  0  0
 13 14  1  0  0  0  0
 14 15  2  0  0  0  0
 17 18  1  0  0  0  0
 18 16  1  0  0  0  0
 20 26  1  0  0  0  0
 20 24  2  0  0  0  0
 21 25  1  0  0  0  0
 22 20  1  0  0  0  0
 22 27  2  0  0  0  0
 23 27  1  0  0  0  0
 24 29  1  0  0  0  0
 24 21  1  0  0  0  0
 25 19  1  0  0  0  0
 26 28  1  0  0  0  0
 27 29  1  0  0  0  0
 28 21  2  0  0  0  0
 30 31  1  0  0  0  0
 31 32  1  0  0  0  0
 32 33  1  6  0  0  0
 32 35  1  0  0  0  0
 35 34  1  6  0  0  0
 35 37  1  0  0  0  0
 36 37  1  0  0  0  0
 37 39  1  0  0  0  0
 37 38  1  0  0  0  0
M  END
>  <MODEL>
6

>  <REMARK>
 VINA RESULT:      -7.0      1.900      4.523
  Name = 
  13 active torsions:
  status: ('A' for Active; 'I' for Inactive)
    1  A    between atoms: O_1  and  C_11
    2  A    between atoms: O_1  and  C_21
    3  A    between atoms: C_3  and  C_35
    4  A    between atoms: C_9  and  C_28
    5  A    between atoms: C_9  and  C_29
    6  A    between atoms: C_11  and  C_20
    7  A    between atoms: C_11  and  C_26
    8  A    between atoms: C_12  and  C_28
    9  A    between atoms: C_15  and  C_22
   10  A    between atoms: C_18  and  C_22
   11  A    between atoms: C_19  and  C_20
   12  A    between atoms: C_19  and  C_27
   13  A    between atoms: C_29  and  C_35
                            x       y       z     vdW  Elec       q    Type
                         _______ _______ _______ _____ _____    ______ ____

>  <TORSDO>
F 13

$$$$
=
 OpenBabel10222419343D

 39 42  0  0  1  0  0  0  0  0999 V2000
  190.1330  177.2130  141.9740 C   0  0  2  0  0  3  0  0  0  0  0  0
  190.0450  176.6140  139.7200 C   0  0  2  0  0  3  0  0  0  0  0  0
  191.4580  177.5610  141.3190 C   0  0  0  0  0  2  0  0  0  0  0  0
  189.1330  177.1250  140.8370 C   0  0  2  0  0  3  0  0  0  0  0  0
  191.3880  177.1510  139.9190 N   0  0  0  0  0  2  0  0  0  0  0  0
  188.4060  178.4670  140.5680 C   0  0  2  0  0  3  0  0  0  0  0  0
  187.2210  178.6420  141.4840 C   0  0  0  0  0  0  0  0  0  0  0  0
  186.6340  179.7110  141.4910 O   0  0  0  0  0  0  0  0  0  0  0  0
  186.7240  177.5350  142.3680 C   0  0  0  0  0  2  0  0  0  0  0  0
  186.0510  178.2640  144.6580 C   0  0  0  0  0  3  0  0  0  0  0  0
  185.0990  178.7460  145.5620 C   0  0  0  0  0  3  0  0  0  0  0  0
  183.7870  178.9860  145.1330 C   0  0  0  0  0  3  0  0  0  0  0  0
  185.6920  178.0150  143.3310 C   0  0  0  0  0  0  0  0  0  0  0  0
  184.3790  178.2630  142.9030 C   0  0  0  0  0  3  0  0  0  0  0  0
  183.4270  178.7450  143.8030 C   0  0  0  0  0  3  0  0  0  0  0  0
  188.0820  178.6360  139.2160 O   0  0  0  0  0  0  0  0  0  0  0  0
  186.1180  179.0000  138.1060 O   0  0  0  0  0  1  0  0  0  0  0  0
  186.7500  178.2350  139.0870 C   0  0  0  0  0  2  0  0  0  0  0  0
  189.5460  176.6810  138.2660 C   0  0  0  0  0  2  0  0  0  0  0  0
  186.2010  174.6990  135.4180 C   0  0  0  0  0  0  0  0  0  0  0  0
  187.8980  175.5330  136.7900 C   0  0  0  0  0  0  0  0  0  0  0  0
  185.0730  173.9760  135.5210 N   0  0  0  0  0  0  0  0  0  0  0  0
  184.3150  172.2630  137.1820 C   0  0  0  0  0  1  0  0  0  0  0  0
  186.9990  174.4560  136.4640 C   0  0  0  0  0  0  0  0  0  0  0  0
  188.6990  175.5180  137.8530 C   0  0  0  0  0  2  0  0  0  0  0  0
  186.4370  176.2610  134.5940 S   0  0  0  0  0  0  0  0  0  0  0  0
  185.3080  173.2330  136.6340 C   0  0  0  0  0  0  0  0  0  0  0  0
  187.7390  176.6940  135.8420 C   0  0  0  0  0  3  0  0  0  0  0  0
  186.4590  173.5410  137.2850 N   0  0  0  0  0  2  0  0  0  0  0  0
  189.7710  178.1620  143.1070 C   0  0  0  0  0  2  0  0  0  0  0  0
  190.8480  178.1100  144.1700 C   0  0  0  0  0  2  0  0  0  0  0  0
  190.7470  176.8290  144.9860 C   0  0  1  0  0  3  0  0  0  0  0  0
  191.7270  175.9330  144.5460 O   0  0  0  0  0  1  0  0  0  0  0  0
  191.7430  176.0170  147.1470 C   0  0  0  0  0  1  0  0  0  0  0  0
  190.9270  177.1210  146.4830 C   0  0  2  0  0  3  0  0  0  0  0  0
  189.7610  177.9800  148.3990 F   0  0  0  0  0  0  0  0  0  0  0  0
  189.5850  177.2800  147.2170 C   0  0  0  0  0  0  0  0  0  0  0  0
  189.0650  176.0370  147.5280 F   0  0  0  0  0  0  0  0  0  0  0  0
  188.6790  177.9620  146.4200 F   0  0  0  0  0  0  0  0  0  0  0  0
  1 30  1  1  0  0  0
  2 19  1  6  0  0  0
  2  5  1  0  0  0  0
  2  4  1  0  0  0  0
  3  1  1  0  0  0  0
  4  6  1  6  0  0  0
  4  1  1  0  0  0  0
  5  3  1  0  0  0  0
  6 16  1  6  0  0  0
  6  7  1  0  0  0  0
  7  8  2  0  0  0  0
  7  9  1  0  0  0  0
  9 13  1  0  0  0  0
 10 11  1  0  0  0  0
 12 11  2  0  0  0  0
 13 10  2  0  0  0  0
 14 13  1  0  0  0  0
 14 15  2  0  0  0  0
 15 12  1  0  0  0  0
 17 18  1  0  0  0  0
 18 16  1  0  0  0  0
 20 22  1  0  0  0  0
 20 24  2  0  0  0  0
 21 25  1  0  0  0  0
 22 27  2  0  0  0  0
 24 21  1  0  0  0  0
 24 29  1  0  0  0  0
 25 19  1  0  0  0  0
 26 20  1  0  0  0  0
 26 28  1  0  0  0  0
 27 23  1  0  0  0  0
 27 29  1  0  0  0  0
 28 21  2  0  0  0  0
 30 31  1  0  0  0  0
 31 32  1  0  0  0  0
 32 33  1  6  0  0  0
 32 35  1  0  0  0  0
 35 34  1  1  0  0  0
 35 37  1  0  0  0  0
 37 38  1  0  0  0  0
 37 36  1  0  0  0  0
 39 37  1  0  0  0  0
M  END
>  <MODEL>
7

>  <REMARK>
 VINA RESULT:      -6.9      3.357      6.301
  Name = 
  13 active torsions:
  status: ('A' for Active; 'I' for Inactive)
    1  A    between atoms: O_1  and  C_11
    2  A    between atoms: O_1  and  C_21
    3  A    between atoms: C_3  and  C_35
    4  A    between atoms: C_9  and  C_28
    5  A    between atoms: C_9  and  C_29
    6  A    between atoms: C_11  and  C_20
    7  A    between atoms: C_11  and  C_26
    8  A    between atoms: C_12  and  C_28
    9  A    between atoms: C_15  and  C_22
   10  A    between atoms: C_18  and  C_22
   11  A    between atoms: C_19  and  C_20
   12  A    between atoms: C_19  and  C_27
   13  A    between atoms: C_29  and  C_35
                            x       y       z     vdW  Elec       q    Type
                         _______ _______ _______ _____ _____    ______ ____

>  <TORSDO>
F 13

$$$$
=
 OpenBabel10222419343D

 39 42  0  0  1  0  0  0  0  0999 V2000
  181.9910  177.1030  140.0310 C   0  0  2  0  0  3  0  0  0  0  0  0
  183.4480  178.0980  141.5600 C   0  0  2  0  0  3  0  0  0  0  0  0
  181.2020  178.0450  140.9230 C   0  0  0  0  0  2  0  0  0  0  0  0
  183.4300  177.5730  140.1230 C   0  0  2  0  0  3  0  0  0  0  0  0
  182.1290  178.6320  141.8880 N   0  0  0  0  0  2  0  0  0  0  0  0
  183.8020  178.5930  139.0170 C   0  0  2  0  0  3  0  0  0  0  0  0
  185.1410  178.2690  138.4010 C   0  0  0  0  0  0  0  0  0  0  0  0
  186.1550  178.6280  138.9750 O   0  0  0  0  0  0  0  0  0  0  0  0
  185.2650  177.4990  137.1190 C   0  0  0  0  0  2  0  0  0  0  0  0
  187.1890  175.9120  137.2190 C   0  0  0  0  0  3  0  0  0  0  0  0
  188.5070  175.5610  136.9100 C   0  0  0  0  0  3  0  0  0  0  0  0
  189.3160  176.4490  136.1900 C   0  0  0  0  0  3  0  0  0  0  0  0
  186.6830  177.1500  136.8160 C   0  0  0  0  0  0  0  0  0  0  0  0
  187.4940  178.0350  136.0890 C   0  0  0  0  0  3  0  0  0  0  0  0
  188.8090  177.6860  135.7780 C   0  0  0  0  0  3  0  0  0  0  0  0
  183.7120  179.9180  139.4610 O   0  0  0  0  0  0  0  0  0  0  0  0
  182.8290  181.8910  138.7180 O   0  0  0  0  0  1  0  0  0  0  0  0
  182.6830  180.5030  138.7180 C   0  0  0  0  0  2  0  0  0  0  0  0
  184.6200  178.9860  142.0110 C   0  0  0  0  0  2  0  0  0  0  0  0
  186.9030  177.7600  146.0750 C   0  0  0  0  0  0  0  0  0  0  0  0
  185.8110  178.2150  144.0600 C   0  0  0  0  0  0  0  0  0  0  0  0
  188.1530  177.7010  146.5640 N   0  0  0  0  0  0  0  0  0  0  0  0
  190.3660  177.2560  145.4820 C   0  0  0  0  0  1  0  0  0  0  0  0
  186.9210  177.6050  144.7460 C   0  0  0  0  0  0  0  0  0  0  0  0
  185.7050  178.2510  142.7340 C   0  0  0  0  0  2  0  0  0  0  0  0
  185.4970  178.6250  146.7470 S   0  0  0  0  0  0  0  0  0  0  0  0
  188.8820  177.4090  145.4550 C   0  0  0  0  0  0  0  0  0  0  0  0
  184.8600  178.8770  145.0240 C   0  0  0  0  0  3  0  0  0  0  0  0
  188.1710  177.4020  144.2990 N   0  0  0  0  0  2  0  0  0  0  0  0
  181.4120  177.0010  138.6280 C   0  0  0  0  0  2  0  0  0  0  0  0
  180.4580  175.8270  138.5620 C   0  0  0  0  0  2  0  0  0  0  0  0
  180.8600  174.8580  137.4600 C   0  0  1  0  0  3  0  0  0  0  0  0
  179.8350  174.7970  136.5120 O   0  0  0  0  0  1  0  0  0  0  0  0
  181.9940  175.4140  135.2860 C   0  0  0  0  0  1  0  0  0  0  0  0
  182.1730  175.3020  136.7960 C   0  0  2  0  0  3  0  0  0  0  0  0
  184.3240  174.4620  136.1380 F   0  0  0  0  0  0  0  0  0  0  0  0
  183.3410  174.3530  137.1080 C   0  0  0  0  0  0  0  0  0  0  0  0
  182.8950  173.0430  137.1210 F   0  0  0  0  0  0  0  0  0  0  0  0
  183.8900  174.6560  138.3430 F   0  0  0  0  0  0  0  0  0  0  0  0
  1 30  1  6  0  0  0
  1  4  1  0  0  0  0
  1  3  1  0  0  0  0
  2  5  1  0  0  0  0
  2 19  1  6  0  0  0
  3  5  1  0  0  0  0
  4  6  1  6  0  0  0
  4  2  1  0  0  0  0
  6  7  1  1  0  0  0
  6 16  1  0  0  0  0
  7  8  2  0  0  0  0
  9  7  1  0  0  0  0
 11 10  1  0  0  0  0
 12 11  2  0  0  0  0
 13  9  1  0  0  0  0
 13 10  2  0  0  0  0
 14 13  1  0  0  0  0
 15 14  2  0  0  0  0
 15 12  1  0  0  0  0
 18 17  1  0  0  0  0
 18 16  1  0  0  0  0
 19 25  1  0  0  0  0
 20 22  1  0  0  0  0
 20 26  1  0  0  0  0
 21 24  1  0  0  0  0
 21 28  2  0  0  0  0
 24 20  2  0  0  0  0
 25 21  1  0  0  0  0
 27 23  1  0  0  0  0
 27 22  2  0  0  0  0
 28 26  1  0  0  0  0
 29 24  1  0  0  0  0
 29 27  1  0  0  0  0
 31 30  1  0  0  0  0
 32 33  1  6  0  0  0
 32 31  1  0  0  0  0
 35 34  1  6  0  0  0
 35 37  1  0  0  0  0
 35 32  1  0  0  0  0
 36 37  1  0  0  0  0
 37 38  1  0  0  0  0
 37 39  1  0  0  0  0
M  END
>  <MODEL>
8

>  <REMARK>
 VINA RESULT:      -6.8      5.289      9.438
  Name = 
  13 active torsions:
  status: ('A' for Active; 'I' for Inactive)
    1  A    between atoms: O_1  and  C_11
    2  A    between atoms: O_1  and  C_21
    3  A    between atoms: C_3  and  C_35
    4  A    between atoms: C_9  and  C_28
    5  A    between atoms: C_9  and  C_29
    6  A    between atoms: C_11  and  C_20
    7  A    between atoms: C_11  and  C_26
    8  A    between atoms: C_12  and  C_28
    9  A    between atoms: C_15  and  C_22
   10  A    between atoms: C_18  and  C_22
   11  A    between atoms: C_19  and  C_20
   12  A    between atoms: C_19  and  C_27
   13  A    between atoms: C_29  and  C_35
                            x       y       z     vdW  Elec       q    Type
                         _______ _______ _______ _____ _____    ______ ____

>  <TORSDO>
F 13

$$$$
=
 OpenBabel10222419343D

 39 42  0  0  1  0  0  0  0  0999 V2000
  190.1270  177.3680  142.4450 C   0  0  2  0  0  3  0  0  0  0  0  0
  190.1800  176.6510  140.2250 C   0  0  2  0  0  3  0  0  0  0  0  0
  191.4790  177.7160  141.8470 C   0  0  0  0  0  2  0  0  0  0  0  0
  189.1960  177.1950  141.2620 C   0  0  2  0  0  3  0  0  0  0  0  0
  191.4980  177.2320  140.4680 N   0  0  0  0  0  2  0  0  0  0  0  0
  188.4540  178.5020  140.8820 C   0  0  2  0  0  3  0  0  0  0  0  0
  187.1480  178.6270  141.6250 C   0  0  0  0  0  0  0  0  0  0  0  0
  186.5140  179.6650  141.5320 O   0  0  0  0  0  0  0  0  0  0  0  0
  186.5910  177.5080  142.4560 C   0  0  0  0  0  2  0  0  0  0  0  0
  186.0590  178.2340  144.7840 C   0  0  0  0  0  3  0  0  0  0  0  0
  185.1690  178.7300  145.7410 C   0  0  0  0  0  3  0  0  0  0  0  0
  183.8410  179.0020  145.3860 C   0  0  0  0  0  3  0  0  0  0  0  0
  185.6230  178.0030  143.4770 C   0  0  0  0  0  0  0  0  0  0  0  0
  184.2950  178.2830  143.1220 C   0  0  0  0  0  3  0  0  0  0  0  0
  183.4040  178.7800  144.0760 C   0  0  0  0  0  3  0  0  0  0  0  0
  188.3110  178.6510  139.4970 O   0  0  0  0  0  0  0  0  0  0  0  0
  186.6660  178.6440  137.9100 O   0  0  0  0  0  1  0  0  0  0  0  0
  187.0130  178.2290  139.1970 C   0  0  0  0  0  2  0  0  0  0  0  0
  189.7630  176.6300  138.7440 C   0  0  0  0  0  2  0  0  0  0  0  0
  190.7500  173.1570  135.5520 C   0  0  0  0  0  0  0  0  0  0  0  0
  190.3550  174.9310  137.0190 C   0  0  0  0  0  0  0  0  0  0  0  0
  191.6610  172.1910  135.3450 N   0  0  0  0  0  0  0  0  0  0  0  0
  194.0960  172.0260  135.9020 C   0  0  0  0  0  1  0  0  0  0  0  0
  191.2960  174.1630  136.2450 C   0  0  0  0  0  0  0  0  0  0  0  0
  190.7190  175.9090  137.8470 C   0  0  0  0  0  2  0  0  0  0  0  0
  188.9790  172.9940  135.6630 S   0  0  0  0  0  0  0  0  0  0  0  0
  192.7860  172.7400  135.8750 C   0  0  0  0  0  0  0  0  0  0  0  0
  188.9470  174.4240  136.8440 C   0  0  0  0  0  3  0  0  0  0  0  0
  192.5940  173.9300  136.4970 N   0  0  0  0  0  2  0  0  0  0  0  0
  189.6800  178.3650  143.5050 C   0  0  0  0  0  2  0  0  0  0  0  0
  190.6860  178.3800  144.6370 C   0  0  0  0  0  2  0  0  0  0  0  0
  190.6140  177.0950  145.4480 C   0  0  1  0  0  3  0  0  0  0  0  0
  191.6800  176.2680  145.0810 O   0  0  0  0  0  1  0  0  0  0  0  0
  191.4900  176.3380  147.6790 C   0  0  0  0  0  1  0  0  0  0  0  0
  190.6680  177.3960  146.9530 C   0  0  2  0  0  3  0  0  0  0  0  0
  188.4300  178.2530  146.7960 F   0  0  0  0  0  0  0  0  0  0  0  0
  189.2690  177.4850  147.5860 C   0  0  0  0  0  0  0  0  0  0  0  0
  189.3510  178.0810  148.8310 F   0  0  0  0  0  0  0  0  0  0  0  0
  188.7240  176.2190  147.7260 F   0  0  0  0  0  0  0  0  0  0  0  0
  1 30  1  1  0  0  0
  2 19  1  6  0  0  0
  2  5  1  0  0  0  0
  2  4  1  0  0  0  0
  3  1  1  0  0  0  0
  4  6  1  6  0  0  0
  4  1  1  0  0  0  0
  5  3  1  0  0  0  0
  6 16  1  6  0  0  0
  6  7  1  0  0  0  0
  7  9  1  0  0  0  0
  8  7  2  0  0  0  0
  9 13  1  0  0  0  0
 10 11  1  0  0  0  0
 12 11  2  0  0  0  0
 13 10  2  0  0  0  0
 14 13  1  0  0  0  0
 14 15  2  0  0  0  0
 15 12  1  0  0  0  0
 17 18  1  0  0  0  0
 18 16  1  0  0  0  0
 20 26  1  0  0  0  0
 20 24  2  0  0  0  0
 21 25  1  0  0  0  0
 22 20  1  0  0  0  0
 22 27  2  0  0  0  0
 24 29  1  0  0  0  0
 24 21  1  0  0  0  0
 25 19  1  0  0  0  0
 26 28  1  0  0  0  0
 27 23  1  0  0  0  0
 27 29  1  0  0  0  0
 28 21  2  0  0  0  0
 30 31  1  0  0  0  0
 31 32  1  0  0  0  0
 32 33  1  6  0  0  0
 32 35  1  0  0  0  0
 35 37  1  0  0  0  0
 35 34  1  1  0  0  0
 36 37  1  0  0  0  0
 37 39  1  0  0  0  0
 37 38  1  0  0  0  0
M  END
>  <MODEL>
9

>  <REMARK>
 VINA RESULT:      -6.7      2.475      4.999
  Name = 
  13 active torsions:
  status: ('A' for Active; 'I' for Inactive)
    1  A    between atoms: O_1  and  C_11
    2  A    between atoms: O_1  and  C_21
    3  A    between atoms: C_3  and  C_35
    4  A    between atoms: C_9  and  C_28
    5  A    between atoms: C_9  and  C_29
    6  A    between atoms: C_11  and  C_20
    7  A    between atoms: C_11  and  C_26
    8  A    between atoms: C_12  and  C_28
    9  A    between atoms: C_15  and  C_22
   10  A    between atoms: C_18  and  C_22
   11  A    between atoms: C_19  and  C_20
   12  A    between atoms: C_19  and  C_27
   13  A    between atoms: C_29  and  C_35
                            x       y       z     vdW  Elec       q    Type
                         _______ _______ _______ _____ _____    ______ ____

>  <TORSDO>
F 13

$$$$
