=
 OpenBabel10222418063D

 35 42  0  0  1  0  0  0  0  0999 V2000
  185.0970  179.5290  138.6530 O   0  0  0  0  0  0  0  0  0  0  0  0
  187.2070  177.2410  144.3110 C   0  0  0  0  0  2  0  0  0  0  0  0
  188.5610  177.9010  140.2610 C   0  0  0  0  0  0  0  0  0  0  0  0
  186.7780  178.2700  141.3600 C   0  0  0  0  0  0  0  0  0  0  0  0
  183.2190  179.5030  143.9590 C   0  0  0  0  0  2  0  0  0  0  0  0
  184.5610  180.0710  144.4300 C   0  0  0  0  0  2  0  0  0  0  0  0
  186.7980  177.9050  146.6580 C   0  0  0  0  0  2  0  0  0  0  0  0
  185.7660  178.2970  142.4570 C   0  0  0  0  0  0  0  0  0  0  0  0
  185.0560  178.3630  139.4130 C   0  0  2  0  0  0  0  0  0  0  0  0
  184.0600  179.3770  139.5350 C   0  0  1  0  0  0  0  0  0  0  0  0
  186.4700  178.3200  139.9950 C   0  0  0  0  0  0  0  0  0  0  0  0
  185.9080  178.9090  146.1740 O   0  0  0  0  0  0  0  0  0  0  0  0
  186.1630  178.2430  143.8890 C   0  0  0  0  0  0  0  0  0  0  0  0
  188.0890  178.0140  141.5220 N   0  0  0  0  0  0  0  0  0  0  0  0
  187.8800  177.6370  145.6220 C   0  0  0  0  0  2  0  0  0  0  0  0
  183.3290  178.2800  143.0400 C   0  0  0  0  0  2  0  0  0  0  0  0
  184.2600  178.4650  140.6830 N   0  0  0  0  0  0  0  0  0  0  0  0
  184.4760  178.3620  142.0800 C   0  0  0  0  0  0  0  0  0  0  0  0
  187.6120  178.0870  139.3090 N   0  0  0  0  0  0  0  0  0  0  0  0
  185.5580  179.0170  144.8210 C   0  0  0  0  0  0  0  0  0  0  0  0
  182.7820  179.0280  138.8150 C   0  0  0  0  0  0  0  0  0  0  0  0
  181.5700  179.3370  139.4420 C   0  0  0  0  0  3  0  0  0  0  0  0
  180.3530  179.0390  138.8210 C   0  0  0  0  0  3  0  0  0  0  0  0
  180.3390  178.4300  137.5640 C   0  0  0  0  0  0  0  0  0  0  0  0
  181.5430  178.1260  136.9230 C   0  0  0  0  0  3  0  0  0  0  0  0
  182.7600  178.4220  137.5440 C   0  0  0  0  0  3  0  0  0  0  0  0
  179.1310  178.1360  136.9480 O   0  0  0  0  0  1  0  0  0  0  0  0
  187.7450  177.7250  137.8910 C   0  0  2  0  0  3  0  0  0  0  0  0
  188.9760  179.8370  137.8680 O   0  0  0  0  0  1  0  0  0  0  0  0
  188.5940  178.7350  137.1010 C   0  0  2  0  0  3  0  0  0  0  0  0
  187.0910  178.7420  136.9720 C   0  0  0  0  0  2  0  0  0  0  0  0
  189.9570  177.4580  139.9740 C   0  0  0  0  0  2  0  0  0  0  0  0
  190.5160  176.6790  141.1530 C   0  0  0  0  0  2  0  0  0  0  0  0
  191.6300  177.4370  141.7960 C   0  0  0  0  0  3  0  0  0  0  0  0
  191.6700  177.5810  143.0690 N   0  0  0  0  0  2  0  0  0  0  0  0
  1 10  1  0  0  0  0
  2 15  1  0  0  0  0
  3 14  2  0  0  0  0
  4 14  1  0  0  0  0
  4  8  1  0  0  0  0
  5  6  1  0  0  0  0
  6 20  1  0  0  0  0
  8 13  1  0  0  0  0
  9  1  1  6  0  0  0
  9 10  1  0  0  0  0
  9 11  1  0  0  0  0
  9 17  1  0  0  0  0
 10 21  1  6  0  0  0
 10 17  1  0  0  0  0
 11  4  2  0  0  0  0
 12  7  1  0  0  0  0
 13  2  1  0  0  0  0
 13 20  2  0  0  0  0
 15  7  1  0  0  0  0
 16  5  1  0  0  0  0
 17 18  1  0  0  0  0
 18  8  2  0  0  0  0
 18 16  1  0  0  0  0
 19 11  1  0  0  0  0
 19  3  1  0  0  0  0
 20 12  1  0  0  0  0
 21 22  1  0  0  0  0
 23 22  2  0  0  0  0
 24 23  1  0  0  0  0
 25 26  1  0  0  0  0
 25 24  2  0  0  0  0
 26 21  2  0  0  0  0
 27 24  1  0  0  0  0
 28 31  1  6  0  0  0
 28 19  1  0  0  0  0
 30 29  1  1  0  0  0
 30 28  1  0  0  0  0
 31 30  1  0  0  0  0
 32  3  1  0  0  0  0
 32 33  1  0  0  0  0
 33 34  1  0  0  0  0
 34 35  2  0  0  0  0
M  END
>  <MODEL>
1

>  <REMARK>
 VINA RESULT:      -8.9      0.000      0.000
  Name = 
  5 active torsions:
  status: ('A' for Active; 'I' for Inactive)
    1  A    between atoms: C_3  and  C_16
    2  A    between atoms: C_4  and  C_32
    3  A    between atoms: C_5  and  N_29
    4  A    between atoms: C_23  and  C_34
    5  A    between atoms: C_32  and  C_34
                            x       y       z     vdW  Elec       q    Type
                         _______ _______ _______ _____ _____    ______ ____

>  <TORSDO>
F 5

$$$$
=
 OpenBabel10222418063D

 35 42  0  0  1  0  0  0  0  0999 V2000
  186.3970  179.2350  140.5230 O   0  0  0  0  0  0  0  0  0  0  0  0
  190.7510  175.4750  143.4560 C   0  0  0  0  0  2  0  0  0  0  0  0
  189.7520  176.9980  139.5380 C   0  0  0  0  0  0  0  0  0  0  0  0
  188.9900  177.2250  141.5100 C   0  0  0  0  0  0  0  0  0  0  0  0
  187.7930  178.0600  145.8470 C   0  0  0  0  0  2  0  0  0  0  0  0
  189.2550  178.3890  145.5300 C   0  0  0  0  0  2  0  0  0  0  0  0
  191.8480  175.5750  145.6710 C   0  0  0  0  0  2  0  0  0  0  0  0
  188.7800  177.0620  142.9790 C   0  0  0  0  0  0  0  0  0  0  0  0
  186.5440  177.9260  140.9730 C   0  0  2  0  0  0  0  0  0  0  0  0
  186.0130  178.9540  141.8080 C   0  0  1  0  0  0  0  0  0  0  0  0
  188.0000  177.6310  140.6080 C   0  0  0  0  0  0  0  0  0  0  0  0
  191.0670  176.7340  145.9580 O   0  0  0  0  0  0  0  0  0  0  0  0
  189.8790  176.6290  143.8830 C   0  0  0  0  0  0  0  0  0  0  0  0
  190.0880  176.8360  140.8370 N   0  0  0  0  0  0  0  0  0  0  0  0
  192.0990  175.4850  144.1720 C   0  0  0  0  0  2  0  0  0  0  0  0
  187.1250  177.0940  144.8610 C   0  0  0  0  0  2  0  0  0  0  0  0
  186.6190  177.7760  142.4660 N   0  0  0  0  0  0  0  0  0  0  0  0
  187.5420  177.3190  143.4390 C   0  0  0  0  0  0  0  0  0  0  0  0
  188.4980  177.4840  139.3590 N   0  0  0  0  0  0  0  0  0  0  0  0
  190.0610  177.1970  145.0990 C   0  0  0  0  0  0  0  0  0  0  0  0
  184.5110  178.8930  141.9220 C   0  0  0  0  0  0  0  0  0  0  0  0
  183.9470  178.9570  143.2020 C   0  0  0  0  0  3  0  0  0  0  0  0
  182.5600  178.9070  143.3700 C   0  0  0  0  0  3  0  0  0  0  0  0
  181.7230  178.7960  142.2570 C   0  0  0  0  0  0  0  0  0  0  0  0
  182.2740  178.7420  140.9740 C   0  0  0  0  0  3  0  0  0  0  0  0
  183.6600  178.7890  140.8050 C   0  0  0  0  0  3  0  0  0  0  0  0
  180.3470  178.7480  142.4250 O   0  0  0  0  0  1  0  0  0  0  0  0
  187.7510  177.4710  138.0930 C   0  0  2  0  0  3  0  0  0  0  0  0
  188.9540  179.5810  137.8100 O   0  0  0  0  0  1  0  0  0  0  0  0
  188.0880  178.6730  137.1970 C   0  0  2  0  0  3  0  0  0  0  0  0
  186.7960  178.6460  137.9750 C   0  0  0  0  0  2  0  0  0  0  0  0
  190.6340  176.5300  138.4280 C   0  0  0  0  0  2  0  0  0  0  0  0
  192.0950  176.7050  138.8050 C   0  0  0  0  0  2  0  0  0  0  0  0
  192.9720  175.9870  137.8340 C   0  0  0  0  0  3  0  0  0  0  0  0
  193.8240  176.6310  137.1260 N   0  0  0  0  0  2  0  0  0  0  0  0
  1 10  1  0  0  0  0
  2 13  1  0  0  0  0
  2 15  1  0  0  0  0
  3 14  2  0  0  0  0
  4  8  1  0  0  0  0
  6  5  1  0  0  0  0
  7 12  1  0  0  0  0
  8 18  2  0  0  0  0
  8 13  1  0  0  0  0
  9  1  1  6  0  0  0
  9 10  1  0  0  0  0
  9 17  1  0  0  0  0
 10 21  1  1  0  0  0
 10 17  1  0  0  0  0
 11  9  1  0  0  0  0
 11  4  2  0  0  0  0
 13 20  2  0  0  0  0
 14  4  1  0  0  0  0
 15  7  1  0  0  0  0
 16  5  1  0  0  0  0
 17 18  1  0  0  0  0
 18 16  1  0  0  0  0
 19  3  1  0  0  0  0
 19 11  1  0  0  0  0
 20  6  1  0  0  0  0
 20 12  1  0  0  0  0
 21 22  1  0  0  0  0
 22 23  2  0  0  0  0
 24 27  1  0  0  0  0
 24 23  1  0  0  0  0
 25 24  2  0  0  0  0
 26 25  1  0  0  0  0
 26 21  2  0  0  0  0
 28 31  1  1  0  0  0
 28 19  1  0  0  0  0
 30 29  1  1  0  0  0
 30 31  1  0  0  0  0
 30 28  1  0  0  0  0
 32 33  1  0  0  0  0
 32  3  1  0  0  0  0
 34 33  1  0  0  0  0
 35 34  2  0  0  0  0
M  END
>  <MODEL>
2

>  <REMARK>
 VINA RESULT:      -8.9      2.499      3.793
  Name = 
  5 active torsions:
  status: ('A' for Active; 'I' for Inactive)
    1  A    between atoms: C_3  and  C_16
    2  A    between atoms: C_4  and  C_32
    3  A    between atoms: C_5  and  N_29
    4  A    between atoms: C_23  and  C_34
    5  A    between atoms: C_32  and  C_34
                            x       y       z     vdW  Elec       q    Type
                         _______ _______ _______ _____ _____    ______ ____

>  <TORSDO>
F 5

$$$$
=
 OpenBabel10222418063D

 35 42  0  0  1  0  0  0  0  0999 V2000
  188.3710  176.6340  142.3270 O   0  0  0  0  0  0  0  0  0  0  0  0
  184.0190  180.1500  139.1040 C   0  0  0  0  0  2  0  0  0  0  0  0
  187.8760  178.2830  138.5490 C   0  0  0  0  0  0  0  0  0  0  0  0
  186.4440  178.4060  140.1170 C   0  0  0  0  0  0  0  0  0  0  0  0
  183.0620  178.2870  143.1980 C   0  0  0  0  0  2  0  0  0  0  0  0
  182.6720  177.7370  141.8220 C   0  0  0  0  0  2  0  0  0  0  0  0
  181.5450  180.1920  139.1080 C   0  0  0  0  0  2  0  0  0  0  0  0
  185.2370  178.7800  140.9110 C   0  0  0  0  0  0  0  0  0  0  0  0
  187.9790  177.9610  142.1690 C   0  0  2  0  0  0  0  0  0  0  0  0
  187.4130  177.1220  143.1760 C   0  0  1  0  0  0  0  0  0  0  0  0
  187.6700  178.0190  140.6720 C   0  0  0  0  0  0  0  0  0  0  0  0
  181.5730  179.1880  140.1220 O   0  0  0  0  0  0  0  0  0  0  0  0
  183.9630  179.1800  140.2570 C   0  0  0  0  0  0  0  0  0  0  0  0
  186.5760  178.5640  138.7870 N   0  0  0  0  0  0  0  0  0  0  0  0
  182.7760  180.0590  138.2220 C   0  0  0  0  0  2  0  0  0  0  0  0
  184.2960  179.1980  143.1970 C   0  0  0  0  0  2  0  0  0  0  0  0
  186.6210  178.2880  142.7240 N   0  0  0  0  0  0  0  0  0  0  0  0
  185.3660  178.7430  142.2500 C   0  0  0  0  0  0  0  0  0  0  0  0
  188.5690  177.9420  139.6650 N   0  0  0  0  0  0  0  0  0  0  0  0
  182.7640  178.7520  140.7190 C   0  0  0  0  0  0  0  0  0  0  0  0
  187.9870  177.3890  144.5440 C   0  0  0  0  0  0  0  0  0  0  0  0
  187.1010  177.7380  145.5710 C   0  0  0  0  0  3  0  0  0  0  0  0
  187.5750  177.9940  146.8610 C   0  0  0  0  0  3  0  0  0  0  0  0
  188.9410  177.9000  147.1370 C   0  0  0  0  0  0  0  0  0  0  0  0
  189.8340  177.5420  146.1230 C   0  0  0  0  0  3  0  0  0  0  0  0
  189.3620  177.2880  144.8320 C   0  0  0  0  0  3  0  0  0  0  0  0
  189.4100  178.1530  148.4180 O   0  0  0  0  0  1  0  0  0  0  0  0
  190.0340  177.8890  139.7750 C   0  0  2  0  0  3  0  0  0  0  0  0
  189.6510  175.7320  138.6900 O   0  0  0  0  0  1  0  0  0  0  0  0
  190.6280  176.6200  139.1450 C   0  0  2  0  0  3  0  0  0  0  0  0
  190.5060  176.7370  140.6440 C   0  0  0  0  0  2  0  0  0  0  0  0
  188.4980  178.4900  137.2090 C   0  0  0  0  0  2  0  0  0  0  0  0
  187.5530  178.0290  136.1110 C   0  0  0  0  0  2  0  0  0  0  0  0
  187.7640  176.5810  135.8180 C   0  0  0  0  0  3  0  0  0  0  0  0
  186.9220  175.7050  136.2240 N   0  0  0  0  0  2  0  0  0  0  0  0
  1 10  1  0  0  0  0
  2 13  1  0  0  0  0
  3 14  2  0  0  0  0
  3 19  1  0  0  0  0
  4 11  2  0  0  0  0
  4  8  1  0  0  0  0
  6  5  1  0  0  0  0
  7 12  1  0  0  0  0
  8 18  2  0  0  0  0
  9 11  1  6  0  0  0
  9  1  1  0  0  0  0
  9 17  1  0  0  0  0
  9 10  1  0  0  0  0
 10 21  1  1  0  0  0
 12 20  1  0  0  0  0
 13 20  2  0  0  0  0
 13  8  1  0  0  0  0
 14  4  1  0  0  0  0
 15  2  1  0  0  0  0
 15  7  1  0  0  0  0
 16  5  1  0  0  0  0
 17 10  1  0  0  0  0
 18 17  1  0  0  0  0
 18 16  1  0  0  0  0
 19 11  1  0  0  0  0
 20  6  1  0  0  0  0
 21 26  2  0  0  0  0
 21 22  1  0  0  0  0
 22 23  2  0  0  0  0
 23 24  1  0  0  0  0
 24 27  1  0  0  0  0
 25 24  2  0  0  0  0
 26 25  1  0  0  0  0
 28 19  1  6  0  0  0
 28 31  1  0  0  0  0
 30 29  1  6  0  0  0
 30 28  1  0  0  0  0
 30 31  1  0  0  0  0
 32  3  1  0  0  0  0
 33 32  1  0  0  0  0
 34 33  1  0  0  0  0
 34 35  2  0  0  0  0
M  END
>  <MODEL>
3

>  <REMARK>
 VINA RESULT:      -8.7      2.079      6.756
  Name = 
  5 active torsions:
  status: ('A' for Active; 'I' for Inactive)
    1  A    between atoms: C_3  and  C_16
    2  A    between atoms: C_4  and  C_32
    3  A    between atoms: C_5  and  N_29
    4  A    between atoms: C_23  and  C_34
    5  A    between atoms: C_32  and  C_34
                            x       y       z     vdW  Elec       q    Type
                         _______ _______ _______ _____ _____    ______ ____

>  <TORSDO>
F 5

$$$$
=
 OpenBabel10222418063D

 35 42  0  0  1  0  0  0  0  0999 V2000
  188.5760  176.5120  143.1360 O   0  0  0  0  0  0  0  0  0  0  0  0
  188.6820  178.7290  137.0720 C   0  0  0  0  0  2  0  0  0  0  0  0
  191.3230  177.1040  140.0810 C   0  0  0  0  0  0  0  0  0  0  0  0
  189.2410  177.5030  139.9240 C   0  0  0  0  0  0  0  0  0  0  0  0
  184.7290  177.8920  139.2680 C   0  0  0  0  0  2  0  0  0  0  0  0
  185.4290  176.9820  138.2540 C   0  0  0  0  0  2  0  0  0  0  0  0
  187.0860  178.5680  135.1890 C   0  0  0  0  0  2  0  0  0  0  0  0
  187.9180  177.9650  139.4100 C   0  0  0  0  0  0  0  0  0  0  0  0
  188.6300  177.7190  142.4440 C   0  0  2  0  0  0  0  0  0  0  0  0
  187.3900  177.1200  142.8180 C   0  0  1  0  0  0  0  0  0  0  0  0
  189.5610  177.3700  141.2810 C   0  0  0  0  0  0  0  0  0  0  0  0
  186.2010  177.8590  136.0550 O   0  0  0  0  0  0  0  0  0  0  0  0
  187.6430  178.0810  137.9530 C   0  0  0  0  0  0  0  0  0  0  0  0
  190.3450  177.3290  139.1760 N   0  0  0  0  0  0  0  0  0  0  0  0
  188.5260  178.3160  135.6110 C   0  0  0  0  0  2  0  0  0  0  0  0
  185.6560  178.8700  139.9980 C   0  0  0  0  0  2  0  0  0  0  0  0
  187.3830  178.0630  141.6780 N   0  0  0  0  0  0  0  0  0  0  0  0
  186.9920  178.2800  140.3340 C   0  0  0  0  0  0  0  0  0  0  0  0
  190.8860  177.1140  141.3660 N   0  0  0  0  0  0  0  0  0  0  0  0
  186.4610  177.6880  137.4220 C   0  0  0  0  0  0  0  0  0  0  0  0
  186.7730  177.7700  144.0300 C   0  0  0  0  0  0  0  0  0  0  0  0
  187.4050  177.5900  145.2660 C   0  0  0  0  0  3  0  0  0  0  0  0
  186.8800  178.1710  146.4230 C   0  0  0  0  0  3  0  0  0  0  0  0
  185.7170  178.9420  146.3550 C   0  0  0  0  0  0  0  0  0  0  0  0
  185.0830  179.1380  145.1250 C   0  0  0  0  0  3  0  0  0  0  0  0
  185.6060  178.5560  143.9670 C   0  0  0  0  0  3  0  0  0  0  0  0
  185.1980  179.5200  147.5050 O   0  0  0  0  0  1  0  0  0  0  0  0
  191.7420  177.2110  142.5560 C   0  0  2  0  0  3  0  0  0  0  0  0
  190.8100  174.9830  142.9330 O   0  0  0  0  0  1  0  0  0  0  0  0
  191.7160  175.9320  143.4080 C   0  0  2  0  0  3  0  0  0  0  0  0
  190.9450  177.1520  143.8470 C   0  0  0  0  0  2  0  0  0  0  0  0
  192.7600  177.0140  139.6870 C   0  0  0  0  0  2  0  0  0  0  0  0
  192.8840  176.7220  138.2010 C   0  0  0  0  0  2  0  0  0  0  0  0
  193.5880  175.4240  137.9830 C   0  0  0  0  0  3  0  0  0  0  0  0
  194.7970  175.2650  138.3740 N   0  0  0  0  0  2  0  0  0  0  0  0
  2 13  1  0  0  0  0
  3 19  1  0  0  0  0
  4 11  2  0  0  0  0
  5 16  1  0  0  0  0
  6  5  1  0  0  0  0
  7 15  1  0  0  0  0
  7 12  1  0  0  0  0
  8  4  1  0  0  0  0
  8 18  2  0  0  0  0
  9 11  1  6  0  0  0
  9 10  1  0  0  0  0
  9  1  1  0  0  0  0
 10  1  1  0  0  0  0
 10 21  1  1  0  0  0
 11 19  1  0  0  0  0
 12 20  1  0  0  0  0
 13  8  1  0  0  0  0
 14  4  1  0  0  0  0
 14  3  2  0  0  0  0
 15  2  1  0  0  0  0
 16 18  1  0  0  0  0
 17  9  1  0  0  0  0
 17 10  1  0  0  0  0
 18 17  1  0  0  0  0
 20 13  2  0  0  0  0
 20  6  1  0  0  0  0
 21 22  1  0  0  0  0
 22 23  2  0  0  0  0
 24 23  1  0  0  0  0
 24 27  1  0  0  0  0
 25 24  2  0  0  0  0
 26 21  2  0  0  0  0
 26 25  1  0  0  0  0
 28 19  1  6  0  0  0
 28 30  1  0  0  0  0
 28 31  1  0  0  0  0
 30 29  1  6  0  0  0
 30 31  1  0  0  0  0
 32  3  1  0  0  0  0
 33 32  1  0  0  0  0
 34 33  1  0  0  0  0
 34 35  2  0  0  0  0
M  END
>  <MODEL>
4

>  <REMARK>
 VINA RESULT:      -7.6      2.477      6.883
  Name = 
  5 active torsions:
  status: ('A' for Active; 'I' for Inactive)
    1  A    between atoms: C_3  and  C_16
    2  A    between atoms: C_4  and  C_32
    3  A    between atoms: C_5  and  N_29
    4  A    between atoms: C_23  and  C_34
    5  A    between atoms: C_32  and  C_34
                            x       y       z     vdW  Elec       q    Type
                         _______ _______ _______ _____ _____    ______ ____

>  <TORSDO>
F 5

$$$$
=
 OpenBabel10222418063D

 35 42  0  0  1  0  0  0  0  0999 V2000
  188.6220  178.5040  139.8050 O   0  0  0  0  0  0  0  0  0  0  0  0
  186.6340  177.1440  145.7960 C   0  0  0  0  0  2  0  0  0  0  0  0
  190.1770  176.9590  143.3300 C   0  0  0  0  0  0  0  0  0  0  0  0
  188.1790  177.6460  143.0920 C   0  0  0  0  0  0  0  0  0  0  0  0
  184.0360  179.5770  142.8850 C   0  0  0  0  0  2  0  0  0  0  0  0
  184.9240  180.1270  144.0060 C   0  0  0  0  0  2  0  0  0  0  0  0
  185.0520  178.2530  147.3420 C   0  0  0  0  0  2  0  0  0  0  0  0
  186.7390  177.9420  143.3510 C   0  0  0  0  0  0  0  0  0  0  0  0
  187.9550  177.5020  140.5050 C   0  0  2  0  0  0  0  0  0  0  0  0
  187.2580  178.5890  139.8970 C   0  0  1  0  0  0  0  0  0  0  0  0
  188.7350  177.4670  141.8200 C   0  0  0  0  0  0  0  0  0  0  0  0
  184.7910  179.2120  146.3190 O   0  0  0  0  0  0  0  0  0  0  0  0
  186.2130  178.1230  144.7300 C   0  0  0  0  0  0  0  0  0  0  0  0
  189.0860  177.3330  144.0350 N   0  0  0  0  0  0  0  0  0  0  0  0
  186.4730  177.7250  147.1990 C   0  0  0  0  0  2  0  0  0  0  0  0
  184.4550  178.2030  142.3510 C   0  0  0  0  0  2  0  0  0  0  0  0
  186.5980  177.8890  141.0230 N   0  0  0  0  0  0  0  0  0  0  0  0
  185.9410  178.0280  142.2700 C   0  0  0  0  0  0  0  0  0  0  0  0
  190.0050  177.0330  141.9860 N   0  0  0  0  0  0  0  0  0  0  0  0
  185.3170  179.0950  145.0240 C   0  0  0  0  0  0  0  0  0  0  0  0
  186.6020  178.2040  138.5960 C   0  0  0  0  0  0  0  0  0  0  0  0
  185.2160  178.0060  138.5930 C   0  0  0  0  0  3  0  0  0  0  0  0
  184.5530  177.6500  137.4150 C   0  0  0  0  0  3  0  0  0  0  0  0
  185.2700  177.4930  136.2270 C   0  0  0  0  0  0  0  0  0  0  0  0
  186.6520  177.6990  136.2150 C   0  0  0  0  0  3  0  0  0  0  0  0
  187.3170  178.0520  137.3920 C   0  0  0  0  0  3  0  0  0  0  0  0
  184.6100  177.1410  135.0580 O   0  0  0  0  0  1  0  0  0  0  0  0
  190.8770  176.4110  140.9800 C   0  0  2  0  0  3  0  0  0  0  0  0
  192.2020  178.4100  141.4550 O   0  0  0  0  0  1  0  0  0  0  0  0
  192.1690  177.2090  140.7430 C   0  0  2  0  0  3  0  0  0  0  0  0
  191.0420  177.2770  139.7440 C   0  0  0  0  0  2  0  0  0  0  0  0
  191.3830  176.3740  143.9880 C   0  0  0  0  0  2  0  0  0  0  0  0
  191.6800  177.1030  145.2880 C   0  0  0  0  0  2  0  0  0  0  0  0
  191.6880  176.1430  146.4320 C   0  0  0  0  0  3  0  0  0  0  0  0
  192.0550  176.5240  147.5990 N   0  0  0  0  0  2  0  0  0  0  0  0
  1 10  1  0  0  0  0
  2 15  1  0  0  0  0
  3 32  1  0  0  0  0
  3 14  2  0  0  0  0
  4  8  1  0  0  0  0
  4 14  1  0  0  0  0
  5  6  1  0  0  0  0
  6 20  1  0  0  0  0
  8 13  1  0  0  0  0
  9  1  1  6  0  0  0
  9 17  1  0  0  0  0
  9 11  1  0  0  0  0
 10 21  1  6  0  0  0
 10  9  1  0  0  0  0
 10 17  1  0  0  0  0
 11 19  1  0  0  0  0
 11  4  2  0  0  0  0
 12  7  1  0  0  0  0
 13 20  2  0  0  0  0
 13  2  1  0  0  0  0
 15  7  1  0  0  0  0
 16  5  1  0  0  0  0
 17 18  1  0  0  0  0
 18 16  1  0  0  0  0
 18  8  2  0  0  0  0
 19  3  1  0  0  0  0
 20 12  1  0  0  0  0
 22 21  1  0  0  0  0
 23 22  2  0  0  0  0
 24 23  1  0  0  0  0
 25 24  2  0  0  0  0
 25 26  1  0  0  0  0
 26 21  2  0  0  0  0
 27 24  1  0  0  0  0
 28 31  1  6  0  0  0
 28 19  1  0  0  0  0
 30 28  1  0  0  0  0
 30 29  1  1  0  0  0
 31 30  1  0  0  0  0
 32 33  1  0  0  0  0
 33 34  1  0  0  0  0
 34 35  2  0  0  0  0
M  END
>  <MODEL>
5

>  <REMARK>
 VINA RESULT:      -7.3      2.218      3.614
  Name = 
  5 active torsions:
  status: ('A' for Active; 'I' for Inactive)
    1  A    between atoms: C_3  and  C_16
    2  A    between atoms: C_4  and  C_32
    3  A    between atoms: C_5  and  N_29
    4  A    between atoms: C_23  and  C_34
    5  A    between atoms: C_32  and  C_34
                            x       y       z     vdW  Elec       q    Type
                         _______ _______ _______ _____ _____    ______ ____

>  <TORSDO>
F 5

$$$$
=
 OpenBabel10222418063D

 35 42  0  0  1  0  0  0  0  0999 V2000
  184.1590  177.9280  141.9480 O   0  0  0  0  0  0  0  0  0  0  0  0
  190.2180  177.8750  139.7150 C   0  0  0  0  0  2  0  0  0  0  0  0
  188.0320  177.9640  143.4410 C   0  0  0  0  0  0  0  0  0  0  0  0
  187.5360  177.8550  141.3760 C   0  0  0  0  0  0  0  0  0  0  0  0
  186.6230  177.0730  136.9610 C   0  0  0  0  0  2  0  0  0  0  0  0
  187.5440  176.0290  137.6010 C   0  0  0  0  0  2  0  0  0  0  0  0
  191.2980  176.7530  137.7940 C   0  0  0  0  0  2  0  0  0  0  0  0
  187.6490  177.8330  139.8880 C   0  0  0  0  0  0  0  0  0  0  0  0
  185.1150  178.8030  141.4410 C   0  0  2  0  0  0  0  0  0  0  0  0
  184.1810  178.1340  140.5940 C   0  0  1  0  0  0  0  0  0  0  0  0
  186.3980  178.2680  142.0790 C   0  0  0  0  0  0  0  0  0  0  0  0
  190.0210  176.2250  137.4380 O   0  0  0  0  0  0  0  0  0  0  0  0
  188.8890  177.3780  139.2040 C   0  0  0  0  0  0  0  0  0  0  0  0
  188.5550  177.6590  142.2330 N   0  0  0  0  0  0  0  0  0  0  0  0
  191.3660  176.9590  139.3000 C   0  0  0  0  0  2  0  0  0  0  0  0
  186.5530  178.4100  137.7090 C   0  0  0  0  0  2  0  0  0  0  0  0
  185.4490  178.6020  139.9890 N   0  0  0  0  0  0  0  0  0  0  0  0
  186.5730  178.2550  139.1990 C   0  0  0  0  0  0  0  0  0  0  0  0
  186.7270  178.3310  143.3900 N   0  0  0  0  0  0  0  0  0  0  0  0
  188.8420  176.5950  138.1000 C   0  0  0  0  0  0  0  0  0  0  0  0
  183.0450  179.0260  140.1630 C   0  0  0  0  0  0  0  0  0  0  0  0
  181.8550  178.9740  140.8990 C   0  0  0  0  0  3  0  0  0  0  0  0
  180.7680  179.7800  140.5470 C   0  0  0  0  0  3  0  0  0  0  0  0
  180.8630  180.6480  139.4570 C   0  0  0  0  0  0  0  0  0  0  0  0
  182.0490  180.7160  138.7220 C   0  0  0  0  0  3  0  0  0  0  0  0
  183.1360  179.9100  139.0700 C   0  0  0  0  0  3  0  0  0  0  0  0
  179.7830  181.4480  139.1110 O   0  0  0  0  0  1  0  0  0  0  0  0
  185.9880  179.0060  144.4660 C   0  0  2  0  0  3  0  0  0  0  0  0
  186.1250  176.7660  145.4370 O   0  0  0  0  0  1  0  0  0  0  0  0
  185.7100  178.0800  145.6610 C   0  0  2  0  0  3  0  0  0  0  0  0
  184.6090  178.4070  144.6830 C   0  0  0  0  0  2  0  0  0  0  0  0
  188.8720  178.0350  144.6730 C   0  0  0  0  0  2  0  0  0  0  0  0
  190.3320  178.2410  144.3040 C   0  0  0  0  0  2  0  0  0  0  0  0
  191.1580  177.0990  144.7950 C   0  0  0  0  0  3  0  0  0  0  0  0
  191.6820  177.1280  145.9640 N   0  0  0  0  0  2  0  0  0  0  0  0
  3 32  1  0  0  0  0
  4 11  2  0  0  0  0
  4 14  1  0  0  0  0
  5  6  1  0  0  0  0
  5 16  1  0  0  0  0
  6 20  1  0  0  0  0
  7 15  1  0  0  0  0
  8  4  1  0  0  0  0
  9  1  1  1  0  0  0
  9 11  1  0  0  0  0
 10 21  1  6  0  0  0
 10  9  1  0  0  0  0
 10  1  1  0  0  0  0
 11 19  1  0  0  0  0
 12  7  1  0  0  0  0
 12 20  1  0  0  0  0
 13  2  1  0  0  0  0
 13  8  1  0  0  0  0
 14  3  2  0  0  0  0
 15  2  1  0  0  0  0
 16 18  1  0  0  0  0
 17 10  1  0  0  0  0
 17  9  1  0  0  0  0
 18  8  2  0  0  0  0
 18 17  1  0  0  0  0
 19  3  1  0  0  0  0
 20 13  2  0  0  0  0
 21 22  1  0  0  0  0
 23 22  2  0  0  0  0
 24 23  1  0  0  0  0
 25 26  1  0  0  0  0
 25 24  2  0  0  0  0
 26 21  2  0  0  0  0
 27 24  1  0  0  0  0
 28 19  1  6  0  0  0
 28 31  1  0  0  0  0
 28 30  1  0  0  0  0
 30 29  1  6  0  0  0
 31 30  1  0  0  0  0
 33 32  1  0  0  0  0
 33 34  1  0  0  0  0
 34 35  2  0  0  0  0
M  END
>  <MODEL>
6

>  <REMARK>
 VINA RESULT:      -7.2      2.002      5.359
  Name = 
  5 active torsions:
  status: ('A' for Active; 'I' for Inactive)
    1  A    between atoms: C_3  and  C_16
    2  A    between atoms: C_4  and  C_32
    3  A    between atoms: C_5  and  N_29
    4  A    between atoms: C_23  and  C_34
    5  A    between atoms: C_32  and  C_34
                            x       y       z     vdW  Elec       q    Type
                         _______ _______ _______ _____ _____    ______ ____

>  <TORSDO>
F 5

$$$$
=
 OpenBabel10222418063D

 35 42  0  0  1  0  0  0  0  0999 V2000
  188.8230  176.7890  140.1100 O   0  0  0  0  0  0  0  0  0  0  0  0
  183.4340  180.0620  138.7150 C   0  0  0  0  0  2  0  0  0  0  0  0
  186.8020  178.1870  136.7630 C   0  0  0  0  0  0  0  0  0  0  0  0
  186.1160  178.4020  138.7640 C   0  0  0  0  0  0  0  0  0  0  0  0
  184.2590  178.4620  142.9460 C   0  0  0  0  0  2  0  0  0  0  0  0
  183.3670  177.8210  141.8770 C   0  0  0  0  0  2  0  0  0  0  0  0
  181.1700  180.0880  139.7110 C   0  0  0  0  0  2  0  0  0  0  0  0
  185.3170  178.8190  139.9550 C   0  0  0  0  0  0  0  0  0  0  0  0
  188.3580  178.1000  140.0470 C   0  0  2  0  0  0  0  0  0  0  0  0
  188.2710  177.3250  141.2430 C   0  0  1  0  0  0  0  0  0  0  0  0
  187.4730  178.0590  138.8010 C   0  0  0  0  0  0  0  0  0  0  0  0
  181.6330  179.1520  140.6830 O   0  0  0  0  0  0  0  0  0  0  0  0
  183.8760  179.1680  139.8460 C   0  0  0  0  0  0  0  0  0  0  0  0
  185.6990  178.4750  137.4870 N   0  0  0  0  0  0  0  0  0  0  0  0
  181.9450  179.9060  138.4150 C   0  0  0  0  0  2  0  0  0  0  0  0
  185.3590  179.3780  142.3970 C   0  0  0  0  0  2  0  0  0  0  0  0
  187.3270  178.4540  141.0820 N   0  0  0  0  0  0  0  0  0  0  0  0
  185.9730  178.8700  141.1290 C   0  0  0  0  0  0  0  0  0  0  0  0
  187.8950  177.9230  137.5230 N   0  0  0  0  0  0  0  0  0  0  0  0
  182.9770  178.7640  140.7750 C   0  0  0  0  0  0  0  0  0  0  0  0
  189.3360  177.6830  142.2480 C   0  0  0  0  0  0  0  0  0  0  0  0
  190.6720  177.4590  141.8950 C   0  0  0  0  0  3  0  0  0  0  0  0
  191.7030  177.7740  142.7850 C   0  0  0  0  0  3  0  0  0  0  0  0
  191.4070  178.3200  144.0360 C   0  0  0  0  0  0  0  0  0  0  0  0
  190.0770  178.5580  144.3950 C   0  0  0  0  0  3  0  0  0  0  0  0
  189.0450  178.2410  143.5070 C   0  0  0  0  0  3  0  0  0  0  0  0
  192.4310  178.6330  144.9180 O   0  0  0  0  0  1  0  0  0  0  0  0
  189.2820  177.8870  137.0380 C   0  0  2  0  0  3  0  0  0  0  0  0
  188.7490  175.5080  136.8580 O   0  0  0  0  0  1  0  0  0  0  0  0
  189.7200  176.4790  136.6060 C   0  0  2  0  0  3  0  0  0  0  0  0
  190.1820  177.0450  137.9250 C   0  0  0  0  0  2  0  0  0  0  0  0
  186.8280  178.3110  135.2760 C   0  0  0  0  0  2  0  0  0  0  0  0
  186.5480  176.9640  134.6300 C   0  0  0  0  0  2  0  0  0  0  0  0
  185.0840  176.6720  134.6520 C   0  0  0  0  0  3  0  0  0  0  0  0
  184.6290  175.6730  135.3120 N   0  0  0  0  0  2  0  0  0  0  0  0
  1 10  1  0  0  0  0
  2 13  1  0  0  0  0
  3 14  2  0  0  0  0
  3 19  1  0  0  0  0
  4 11  2  0  0  0  0
  4  8  1  0  0  0  0
  6  5  1  0  0  0  0
  7 12  1  0  0  0  0
  8 18  2  0  0  0  0
  9 11  1  6  0  0  0
  9  1  1  0  0  0  0
  9 17  1  0  0  0  0
  9 10  1  0  0  0  0
 10 21  1  1  0  0  0
 12 20  1  0  0  0  0
 13  8  1  0  0  0  0
 13 20  2  0  0  0  0
 14  4  1  0  0  0  0
 15  2  1  0  0  0  0
 15  7  1  0  0  0  0
 16  5  1  0  0  0  0
 17 18  1  0  0  0  0
 17 10  1  0  0  0  0
 18 16  1  0  0  0  0
 19 11  1  0  0  0  0
 20  6  1  0  0  0  0
 21 26  1  0  0  0  0
 22 21  2  0  0  0  0
 22 23  1  0  0  0  0
 23 24  2  0  0  0  0
 24 25  1  0  0  0  0
 24 27  1  0  0  0  0
 26 25  2  0  0  0  0
 28 19  1  1  0  0  0
 28 31  1  0  0  0  0
 30 29  1  1  0  0  0
 30 28  1  0  0  0  0
 30 31  1  0  0  0  0
 32  3  1  0  0  0  0
 33 34  1  0  0  0  0
 33 32  1  0  0  0  0
 34 35  2  0  0  0  0
M  END
>  <MODEL>
7

>  <REMARK>
 VINA RESULT:      -7.1      2.480      7.015
  Name = 
  5 active torsions:
  status: ('A' for Active; 'I' for Inactive)
    1  A    between atoms: C_3  and  C_16
    2  A    between atoms: C_4  and  C_32
    3  A    between atoms: C_5  and  N_29
    4  A    between atoms: C_23  and  C_34
    5  A    between atoms: C_32  and  C_34
                            x       y       z     vdW  Elec       q    Type
                         _______ _______ _______ _____ _____    ______ ____

>  <TORSDO>
F 5

$$$$
=
 OpenBabel10222418063D

 35 42  0  0  1  0  0  0  0  0999 V2000
  187.9780  178.7540  143.6890 O   0  0  0  0  0  0  0  0  0  0  0  0
  185.9300  177.3310  137.7320 C   0  0  0  0  0  2  0  0  0  0  0  0
  184.4000  178.5130  141.5970 C   0  0  0  0  0  0  0  0  0  0  0  0
  186.3200  178.1720  140.7480 C   0  0  0  0  0  0  0  0  0  0  0  0
  190.3900  177.9460  138.6690 C   0  0  0  0  0  2  0  0  0  0  0  0
  189.4300  178.9670  138.0500 C   0  0  0  0  0  2  0  0  0  0  0  0
  186.8620  177.7590  135.4810 C   0  0  0  0  0  2  0  0  0  0  0  0
  187.4040  177.8020  139.7910 C   0  0  0  0  0  0  0  0  0  0  0  0
  187.6810  177.6450  142.9010 C   0  0  2  0  0  0  0  0  0  0  0  0
  188.9900  178.2120  142.9420 C   0  0  1  0  0  0  0  0  0  0  0  0
  186.4420  178.1240  142.1420 C   0  0  0  0  0  0  0  0  0  0  0  0
  187.9900  178.3650  136.1090 O   0  0  0  0  0  0  0  0  0  0  0  0
  187.2080  177.8780  138.3190 C   0  0  0  0  0  0  0  0  0  0  0  0
  185.0410  178.4220  140.4110 N   0  0  0  0  0  0  0  0  0  0  0  0
  185.6320  177.9300  136.3610 C   0  0  0  0  0  2  0  0  0  0  0  0
  189.7140  176.8670  139.5230 C   0  0  0  0  0  2  0  0  0  0  0  0
  188.6180  177.4220  141.7470 N   0  0  0  0  0  0  0  0  0  0  0  0
  188.5640  177.3860  140.3310 C   0  0  0  0  0  0  0  0  0  0  0  0
  185.2160  178.3450  142.6680 N   0  0  0  0  0  0  0  0  0  0  0  0
  188.1740  178.3560  137.4990 C   0  0  0  0  0  0  0  0  0  0  0  0
  189.9390  177.4220  143.8070 C   0  0  0  0  0  0  0  0  0  0  0  0
  189.9170  177.6540  145.1870 C   0  0  0  0  0  3  0  0  0  0  0  0
  190.7720  176.9490  146.0390 C   0  0  0  0  0  3  0  0  0  0  0  0
  191.6570  176.0030  145.5170 C   0  0  0  0  0  0  0  0  0  0  0  0
  191.6810  175.7540  144.1420 C   0  0  0  0  0  3  0  0  0  0  0  0
  190.8280  176.4600  143.2890 C   0  0  0  0  0  3  0  0  0  0  0  0
  192.5040  175.3030  146.3650 O   0  0  0  0  0  1  0  0  0  0  0  0
  184.7730  178.0820  144.0440 C   0  0  2  0  0  3  0  0  0  0  0  0
  184.5780  180.5190  144.0360 O   0  0  0  0  0  1  0  0  0  0  0  0
  184.3550  179.3620  144.7850 C   0  0  2  0  0  3  0  0  0  0  0  0
  185.6870  178.7180  145.0770 C   0  0  0  0  0  2  0  0  0  0  0  0
  182.9150  178.6280  141.6870 C   0  0  0  0  0  2  0  0  0  0  0  0
  182.2910  178.5110  140.3070 C   0  0  0  0  0  2  0  0  0  0  0  0
  181.6700  177.1650  140.1290 C   0  0  0  0  0  3  0  0  0  0  0  0
  182.3170  176.2200  139.5540 N   0  0  0  0  0  2  0  0  0  0  0  0
  2 13  1  0  0  0  0
  3 32  1  0  0  0  0
  3 19  1  0  0  0  0
  4 11  2  0  0  0  0
  5 16  1  0  0  0  0
  6  5  1  0  0  0  0
  7 12  1  0  0  0  0
  7 15  1  0  0  0  0
  8 18  2  0  0  0  0
  8  4  1  0  0  0  0
  9 11  1  6  0  0  0
  9 10  1  0  0  0  0
  9  1  1  0  0  0  0
 10  1  1  0  0  0  0
 10 21  1  1  0  0  0
 11 19  1  0  0  0  0
 12 20  1  0  0  0  0
 13  8  1  0  0  0  0
 14  4  1  0  0  0  0
 14  3  2  0  0  0  0
 15  2  1  0  0  0  0
 16 18  1  0  0  0  0
 17  9  1  0  0  0  0
 17 10  1  0  0  0  0
 18 17  1  0  0  0  0
 20  6  1  0  0  0  0
 20 13  2  0  0  0  0
 21 22  1  0  0  0  0
 22 23  2  0  0  0  0
 24 23  1  0  0  0  0
 24 27  1  0  0  0  0
 25 24  2  0  0  0  0
 26 21  2  0  0  0  0
 26 25  1  0  0  0  0
 28 19  1  6  0  0  0
 28 30  1  0  0  0  0
 28 31  1  0  0  0  0
 30 29  1  6  0  0  0
 30 31  1  0  0  0  0
 33 32  1  0  0  0  0
 34 33  1  0  0  0  0
 35 34  2  0  0  0  0
M  END
>  <MODEL>
8

>  <REMARK>
 VINA RESULT:      -7.0      2.443      8.488
  Name = 
  5 active torsions:
  status: ('A' for Active; 'I' for Inactive)
    1  A    between atoms: C_3  and  C_16
    2  A    between atoms: C_4  and  C_32
    3  A    between atoms: C_5  and  N_29
    4  A    between atoms: C_23  and  C_34
    5  A    between atoms: C_32  and  C_34
                            x       y       z     vdW  Elec       q    Type
                         _______ _______ _______ _____ _____    ______ ____

>  <TORSDO>
F 5

$$$$
=
 OpenBabel10222418063D

 35 42  0  0  1  0  0  0  0  0999 V2000
  192.1490  177.3530  139.8050 O   0  0  0  0  0  0  0  0  0  0  0  0
  185.8010  178.0460  140.7620 C   0  0  0  0  0  2  0  0  0  0  0  0
  189.5440  178.2460  142.9110 C   0  0  0  0  0  0  0  0  0  0  0  0
  188.9490  177.9010  140.8990 C   0  0  0  0  0  0  0  0  0  0  0  0
  187.5830  177.7190  136.5350 C   0  0  0  0  0  2  0  0  0  0  0  0
  187.1710  179.0020  137.2640 C   0  0  0  0  0  2  0  0  0  0  0  0
  183.9770  178.9780  139.3750 C   0  0  0  0  0  2  0  0  0  0  0  0
  188.1100  177.6770  139.6840 C   0  0  0  0  0  0  0  0  0  0  0  0
  191.0150  176.5780  140.0360 C   0  0  2  0  0  0  0  0  0  0  0  0
  191.4410  176.9160  138.7160 C   0  0  1  0  0  0  0  0  0  0  0  0
  190.2580  177.4300  141.0560 C   0  0  0  0  0  0  0  0  0  0  0  0
  184.9360  179.2070  138.3440 O   0  0  0  0  0  0  0  0  0  0  0  0
  186.7250  178.2090  139.5820 C   0  0  0  0  0  0  0  0  0  0  0  0
  188.5080  178.4170  142.0610 N   0  0  0  0  0  0  0  0  0  0  0  0
  184.6580  179.0570  140.7340 C   0  0  0  0  0  2  0  0  0  0  0  0
  187.9350  176.5450  137.4560 C   0  0  0  0  0  2  0  0  0  0  0  0
  190.0150  176.5730  138.9140 N   0  0  0  0  0  0  0  0  0  0  0  0
  188.6710  176.9620  138.6920 C   0  0  0  0  0  0  0  0  0  0  0  0
  190.6240  177.6570  142.3380 N   0  0  0  0  0  0  0  0  0  0  0  0
  186.2630  178.7640  138.4360 C   0  0  0  0  0  0  0  0  0  0  0  0
  192.1540  175.7810  138.0260 C   0  0  0  0  0  0  0  0  0  0  0  0
  191.3760  174.8230  137.3660 C   0  0  0  0  0  3  0  0  0  0  0  0
  191.9820  173.7490  136.7070 C   0  0  0  0  0  3  0  0  0  0  0  0
  193.3730  173.6260  136.6990 C   0  0  0  0  0  0  0  0  0  0  0  0
  194.1600  174.5830  137.3440 C   0  0  0  0  0  3  0  0  0  0  0  0
  193.5560  175.6560  138.0060 C   0  0  0  0  0  3  0  0  0  0  0  0
  193.9720  172.5610  136.0420 O   0  0  0  0  0  1  0  0  0  0  0  0
  191.7580  177.0680  143.0630 C   0  0  2  0  0  3  0  0  0  0  0  0
  190.2080  175.1810  143.1730 O   0  0  0  0  0  1  0  0  0  0  0  0
  191.5000  175.6110  143.4790 C   0  0  2  0  0  3  0  0  0  0  0  0
  191.4060  176.7180  144.4980 C   0  0  0  0  0  2  0  0  0  0  0  0
  189.4270  178.5390  144.3700 C   0  0  0  0  0  2  0  0  0  0  0  0
  188.1850  177.8780  144.9430 C   0  0  0  0  0  2  0  0  0  0  0  0
  188.3970  177.5310  146.3800 C   0  0  0  0  0  3  0  0  0  0  0  0
  187.5230  177.8470  147.2620 N   0  0  0  0  0  2  0  0  0  0  0  0
  3 32  1  0  0  0  0
  4 11  2  0  0  0  0
  4 14  1  0  0  0  0
  5  6  1  0  0  0  0
  5 16  1  0  0  0  0
  6 20  1  0  0  0  0
  7 15  1  0  0  0  0
  8  4  1  0  0  0  0
  9  1  1  1  0  0  0
  9 11  1  0  0  0  0
 10 21  1  6  0  0  0
 10 17  1  0  0  0  0
 10  1  1  0  0  0  0
 10  9  1  0  0  0  0
 11 19  1  0  0  0  0
 12 20  1  0  0  0  0
 12  7  1  0  0  0  0
 13  8  1  0  0  0  0
 13  2  1  0  0  0  0
 14  3  2  0  0  0  0
 15  2  1  0  0  0  0
 16 18  1  0  0  0  0
 17  9  1  0  0  0  0
 18 17  1  0  0  0  0
 18  8  2  0  0  0  0
 19  3  1  0  0  0  0
 20 13  2  0  0  0  0
 22 21  2  0  0  0  0
 23 22  1  0  0  0  0
 24 23  2  0  0  0  0
 24 25  1  0  0  0  0
 25 26  2  0  0  0  0
 26 21  1  0  0  0  0
 27 24  1  0  0  0  0
 28 19  1  6  0  0  0
 28 30  1  0  0  0  0
 28 31  1  0  0  0  0
 30 29  1  6  0  0  0
 30 31  1  0  0  0  0
 32 33  1  0  0  0  0
 33 34  1  0  0  0  0
 34 35  2  0  0  0  0
M  END
>  <MODEL>
9

>  <REMARK>
 VINA RESULT:      -6.9      3.290      7.907
  Name = 
  5 active torsions:
  status: ('A' for Active; 'I' for Inactive)
    1  A    between atoms: C_3  and  C_16
    2  A    between atoms: C_4  and  C_32
    3  A    between atoms: C_5  and  N_29
    4  A    between atoms: C_23  and  C_34
    5  A    between atoms: C_32  and  C_34
                            x       y       z     vdW  Elec       q    Type
                         _______ _______ _______ _____ _____    ______ ____

>  <TORSDO>
F 5

$$$$
