=
 OpenBabel10222417473D

 52 58  0  0  1  0  0  0  0  0999 V2000
  185.2800  177.3970  137.6770 C   0  0  0  0  0  0  0  0  0  0  0  0
  184.0930  177.8640  138.2000 C   0  0  0  0  0  0  0  0  0  0  0  0
  183.1200  177.3980  137.3460 C   0  0  0  0  0  0  0  0  0  0  0  0
  184.9790  176.6790  136.5330 C   0  0  0  0  0  3  0  0  0  0  0  0
  183.6710  176.7050  136.3720 O   0  0  0  0  0  0  0  0  0  0  0  0
  187.5670  178.5120  137.7520 C   0  0  0  0  0  0  0  0  0  0  0  0
  187.3550  179.2070  136.7240 O   0  0  0  0  0  0  0  0  0  0  0  0
  186.5750  177.6060  138.2490 N   0  0  0  0  0  2  0  0  0  0  0  0
  188.8610  178.6500  138.4770 C   0  0  0  0  0  2  0  0  0  0  0  0
  189.5480  176.6190  139.4500 O   0  0  0  0  0  0  0  0  0  0  0  0
  189.5960  177.3490  138.4710 C   0  0  0  0  0  0  0  0  0  0  0  0
  191.7100  176.5590  137.5950 N   0  0  0  0  0  0  0  0  0  0  0  0
  191.9250  175.6150  135.3830 C   0  0  0  0  0  2  0  0  0  0  0  0
  193.8520  175.5680  137.1150 C   0  0  0  0  0  1  0  0  0  0  0  0
  192.4710  175.9760  136.7330 C   0  0  0  0  0  0  0  0  0  0  0  0
  190.3530  176.9340  137.2490 C   0  0  1  0  0  3  0  0  0  0  0  0
  189.6250  175.7960  136.5110 C   0  0  0  0  0  2  0  0  0  0  0  0
  190.5360  174.9960  135.5570 C   0  0  0  0  0  2  0  0  0  0  0  0
  184.3090  180.0910  139.2710 C   0  0  0  0  0  1  0  0  0  0  0  0
  183.8760  178.6500  139.4600 C   0  0  2  0  0  3  0  0  0  0  0  0
  184.6250  178.0350  140.6330 C   0  0  0  0  0  2  0  0  0  0  0  0
  189.3790  177.2930  145.9500 C   0  0  0  0  0  3  0  0  0  0  0  0
  191.5440  177.5000  144.8730 C   0  0  0  0  0  3  0  0  0  0  0  0
  184.9090  179.1930  142.8960 C   0  0  2  0  0  3  0  0  0  0  0  0
  185.3940  179.0980  141.4210 C   0  0  1  0  0  3  0  0  0  0  0  0
  185.2150  178.0370  145.0980 N   0  0  0  0  0  2  0  0  0  0  0  0
  189.5270  177.7350  143.5560 C   0  0  0  0  0  0  0  0  0  0  0  0
  186.3480  177.7760  145.6210 N   0  0  0  0  0  0  0  0  0  0  0  0
  185.2590  177.9000  143.6410 C   0  0  2  0  0  3  0  0  0  0  0  0
  186.8420  178.8180  141.3630 N   0  0  0  0  0  0  0  0  0  0  0  0
  188.7510  177.5120  144.7210 C   0  0  0  0  0  0  0  0  0  0  0  0
  190.9220  177.7270  143.6420 C   0  0  0  0  0  3  0  0  0  0  0  0
  187.4460  178.0830  142.2520 C   0  0  0  0  0  0  0  0  0  0  0  0
  187.2820  177.4970  144.5900 C   0  0  0  0  0  0  0  0  0  0  0  0
  186.6960  177.6180  143.4220 C   0  0  1  0  0  3  0  0  0  0  0  0
  190.7760  177.2870  146.0240 C   0  0  0  0  0  3  0  0  0  0  0  0
  183.4210  179.4890  142.9810 C   0  0  0  0  0  1  0  0  0  0  0  0
  188.8780  178.0310  142.3060 N   0  0  0  0  0  2  0  0  0  0  0  0
  181.6480  177.6090  137.5030 C   0  0  2  0  0  3  0  0  0  0  0  0
  179.9540  176.2710  138.8890 C   0  0  0  0  0  2  0  0  0  0  0  0
  181.3410  175.6900  139.1010 C   0  0  0  0  0  2  0  0  0  0  0  0
  180.9570  176.2550  137.7460 C   0  0  0  0  0  3  0  0  0  0  0  0
  181.1210  178.3460  136.3560 N   0  0  0  0  0  2  0  0  0  0  0  0
  180.3120  179.4400  136.8760 C   0  0  2  0  0  3  0  0  0  0  0  0
  179.2170  179.0000  134.7730 O   0  0  0  0  0  1  0  0  0  0  0  0
  179.2530  179.8720  135.8630 C   0  0  0  0  0  2  0  0  0  0  0  0
  181.1920  180.6010  137.3210 C   0  0  0  0  0  2  0  0  0  0  0  0
  180.8810  181.7660  136.6180 O   0  0  0  0  0  0  0  0  0  0  0  0
  180.6680  182.7270  137.6060 C   0  0  0  0  0  2  0  0  0  0  0  0
  180.6550  184.8800  136.2920 N   0  0  0  0  0  1  0  0  0  0  0  0
  182.4500  184.3040  137.6510 O   0  0  0  0  0  0  0  0  0  0  0  0
  181.3120  184.0070  137.2040 C   0  0  0  0  0  0  0  0  0  0  0  0
  1  2  1  0  0  0  0
  1  8  1  0  0  0  0
  2 20  1  0  0  0  0
  3 39  1  0  0  0  0
  3  2  2  0  0  0  0
  4  1  2  0  0  0  0
  5  4  1  0  0  0  0
  5  3  1  0  0  0  0
  6  8  1  0  0  0  0
  6  9  1  0  0  0  0
  7  6  2  0  0  0  0
 11  9  1  0  0  0  0
 11 10  2  0  0  0  0
 13 18  1  0  0  0  0
 13 15  1  0  0  0  0
 15 14  1  0  0  0  0
 15 12  2  0  0  0  0
 16 12  1  0  0  0  0
 16 11  1  1  0  0  0
 17 16  1  0  0  0  0
 18 17  1  0  0  0  0
 20 19  1  6  0  0  0
 20 21  1  0  0  0  0
 22 36  1  0  0  0  0
 23 36  2  0  0  0  0
 24 37  1  6  0  0  0
 24 29  1  0  0  0  0
 25 21  1  1  0  0  0
 25 24  1  0  0  0  0
 26 28  1  0  0  0  0
 27 32  2  0  0  0  0
 27 31  1  0  0  0  0
 29 26  1  1  0  0  0
 30 25  1  0  0  0  0
 30 33  2  0  0  0  0
 31 22  2  0  0  0  0
 32 23  1  0  0  0  0
 33 38  1  0  0  0  0
 34 31  1  0  0  0  0
 34 28  2  0  0  0  0
 35 33  1  1  0  0  0
 35 29  1  0  0  0  0
 35 34  1  0  0  0  0
 38 27  1  0  0  0  0
 39 43  1  6  0  0  0
 39 42  1  0  0  0  0
 40 41  1  0  0  0  0
 42 40  1  0  0  0  0
 42 41  1  0  0  0  0
 43 44  1  0  0  0  0
 44 46  1  6  0  0  0
 44 47  1  0  0  0  0
 45 46  1  0  0  0  0
 48 47  1  0  0  0  0
 48 49  1  0  0  0  0
 50 52  1  0  0  0  0
 52 49  1  0  0  0  0
 52 51  2  0  0  0  0
M  END
>  <MODEL>
1

>  <REMARK>
 VINA RESULT:      -7.3      0.000      0.000
  Name = 
  16 active torsions:
  status: ('A' for Active; 'I' for Inactive)
    1  A    between atoms: C_2  and  N_12
    2  A    between atoms: C_2  and  C_39
    3  A    between atoms: C_2  and  C_42
    4  A    between atoms: C_3  and  O_25
    5  A    between atoms: C_3  and  C_41
    6  A    between atoms: C_5  and  C_6
    7  A    between atoms: C_5  and  C_35
    8  A    between atoms: C_6  and  C_15
    9  A    between atoms: N_12  and  C_28
   10  A    between atoms: C_14  and  C_52
   11  A    between atoms: C_18  and  N_26
   12  A    between atoms: O_25  and  C_39
   13  A    between atoms: C_28  and  C_43
   14  A    between atoms: C_28  and  C_50
   15  A    between atoms: C_32  and  C_44
   16  A    between atoms: C_44  and  C_52
                            x       y       z     vdW  Elec       q    Type
                         _______ _______ _______ _____ _____    ______ ____

>  <TORSDO>
F 16

$$$$
=
 OpenBabel10222417473D

 52 58  0  0  1  0  0  0  0  0999 V2000
  189.6400  175.5270  136.2530 C   0  0  0  0  0  0  0  0  0  0  0  0
  190.8820  175.6840  136.8280 C   0  0  0  0  0  0  0  0  0  0  0  0
  191.6810  174.7460  136.2120 C   0  0  0  0  0  0  0  0  0  0  0  0
  189.7340  174.5060  135.3240 C   0  0  0  0  0  3  0  0  0  0  0  0
  190.9770  174.0660  135.3330 O   0  0  0  0  0  0  0  0  0  0  0  0
  188.1710  177.5890  135.9870 C   0  0  0  0  0  0  0  0  0  0  0  0
  188.9370  178.1310  135.1480 O   0  0  0  0  0  0  0  0  0  0  0  0
  188.4830  176.3130  136.5570 N   0  0  0  0  0  2  0  0  0  0  0  0
  186.9070  178.2750  136.3760 C   0  0  0  0  0  2  0  0  0  0  0  0
  185.4860  176.7220  135.3220 O   0  0  0  0  0  0  0  0  0  0  0  0
  185.7690  177.3080  136.3560 C   0  0  0  0  0  0  0  0  0  0  0  0
  184.1990  178.1810  137.9800 N   0  0  0  0  0  0  0  0  0  0  0  0
  183.0620  176.7680  139.5740 C   0  0  0  0  0  2  0  0  0  0  0  0
  182.4660  179.2690  139.2500 C   0  0  0  0  0  1  0  0  0  0  0  0
  183.3120  178.0910  138.9110 C   0  0  0  0  0  0  0  0  0  0  0  0
  185.0100  177.0350  137.6160 C   0  0  1  0  0  3  0  0  0  0  0  0
  184.1540  175.7620  137.4780 C   0  0  0  0  0  2  0  0  0  0  0  0
  183.0030  175.6770  138.5020 C   0  0  0  0  0  2  0  0  0  0  0  0
  192.8240  176.6970  137.9930 C   0  0  0  0  0  1  0  0  0  0  0  0
  191.3140  176.6910  137.8530 C   0  0  2  0  0  3  0  0  0  0  0  0
  190.6710  176.4170  139.2050 C   0  0  0  0  0  2  0  0  0  0  0  0
  188.8900  177.1090  146.1170 C   0  0  0  0  0  3  0  0  0  0  0  0
  190.9720  176.7910  147.3240 C   0  0  0  0  0  3  0  0  0  0  0  0
  189.4290  178.2290  140.5150 C   0  0  2  0  0  3  0  0  0  0  0  0
  190.8100  177.6190  140.1420 C   0  0  1  0  0  3  0  0  0  0  0  0
  187.5190  177.8390  142.0910 N   0  0  0  0  0  2  0  0  0  0  0  0
  190.9720  176.7290  144.9040 C   0  0  0  0  0  0  0  0  0  0  0  0
  187.6480  177.6810  143.3500 N   0  0  0  0  0  0  0  0  0  0  0  0
  188.6340  177.2300  141.3640 C   0  0  2  0  0  3  0  0  0  0  0  0
  191.5560  177.2300  141.3540 N   0  0  0  0  0  0  0  0  0  0  0  0
  189.5740  176.9590  144.9070 C   0  0  0  0  0  0  0  0  0  0  0  0
  191.6620  176.6470  146.1160 C   0  0  0  0  0  3  0  0  0  0  0  0
  190.9630  176.7840  142.4240 C   0  0  0  0  0  0  0  0  0  0  0  0
  188.8710  177.0110  143.6110 C   0  0  0  0  0  0  0  0  0  0  0  0
  189.4980  176.7850  142.4810 C   0  0  1  0  0  3  0  0  0  0  0  0
  189.5910  177.0250  147.3250 C   0  0  0  0  0  3  0  0  0  0  0  0
  188.6460  178.6460  139.2820 C   0  0  0  0  0  1  0  0  0  0  0  0
  191.6850  176.6470  143.6560 N   0  0  0  0  0  2  0  0  0  0  0  0
  193.1390  174.5400  136.4670 C   0  0  2  0  0  3  0  0  0  0  0  0
  194.9040  175.9790  135.2850 C   0  0  0  0  0  2  0  0  0  0  0  0
  193.5640  176.1690  134.5970 C   0  0  0  0  0  2  0  0  0  0  0  0
  193.9310  174.8150  135.1760 C   0  0  0  0  0  3  0  0  0  0  0  0
  193.3670  173.2110  137.0320 N   0  0  0  0  0  2  0  0  0  0  0  0
  194.8070  173.0330  137.1570 C   0  0  2  0  0  3  0  0  0  0  0  0
  196.4330  172.2530  135.5560 O   0  0  0  0  0  1  0  0  0  0  0  0
  195.2990  171.8820  136.2810 C   0  0  0  0  0  2  0  0  0  0  0  0
  195.2060  172.8570  138.6170 C   0  0  0  0  0  2  0  0  0  0  0  0
  196.4610  173.4160  138.8660 O   0  0  0  0  0  0  0  0  0  0  0  0
  196.1890  174.5860  139.5740 C   0  0  0  0  0  2  0  0  0  0  0  0
  198.4440  175.6270  139.1330 N   0  0  0  0  0  1  0  0  0  0  0  0
  197.6850  175.2610  141.2990 O   0  0  0  0  0  0  0  0  0  0  0  0
  197.4640  175.1800  140.0630 C   0  0  0  0  0  0  0  0  0  0  0  0
  1  8  1  0  0  0  0
  1  2  1  0  0  0  0
  2 20  1  0  0  0  0
  3 39  1  0  0  0  0
  3  2  2  0  0  0  0
  4  5  1  0  0  0  0
  4  1  2  0  0  0  0
  5  3  1  0  0  0  0
  6  9  1  0  0  0  0
  6  8  1  0  0  0  0
  7  6  2  0  0  0  0
 10 11  2  0  0  0  0
 11  9  1  0  0  0  0
 12 15  2  0  0  0  0
 15 14  1  0  0  0  0
 15 13  1  0  0  0  0
 16 11  1  6  0  0  0
 16 12  1  0  0  0  0
 17 16  1  0  0  0  0
 17 18  1  0  0  0  0
 18 13  1  0  0  0  0
 20 19  1  1  0  0  0
 20 21  1  0  0  0  0
 22 36  1  0  0  0  0
 23 36  2  0  0  0  0
 24 37  1  6  0  0  0
 24 29  1  0  0  0  0
 25 21  1  6  0  0  0
 25 24  1  0  0  0  0
 25 30  1  0  0  0  0
 26 28  1  0  0  0  0
 27 31  1  0  0  0  0
 27 32  2  0  0  0  0
 28 34  2  0  0  0  0
 29 26  1  1  0  0  0
 29 35  1  0  0  0  0
 30 33  2  0  0  0  0
 31 22  2  0  0  0  0
 32 23  1  0  0  0  0
 33 38  1  0  0  0  0
 34 31  1  0  0  0  0
 35 33  1  1  0  0  0
 35 34  1  0  0  0  0
 38 27  1  0  0  0  0
 39 43  1  6  0  0  0
 41 42  1  0  0  0  0
 41 40  1  0  0  0  0
 42 40  1  0  0  0  0
 42 39  1  0  0  0  0
 43 44  1  0  0  0  0
 44 46  1  6  0  0  0
 44 47  1  0  0  0  0
 45 46  1  0  0  0  0
 47 48  1  0  0  0  0
 48 49  1  0  0  0  0
 49 52  1  0  0  0  0
 50 52  1  0  0  0  0
 52 51  2  0  0  0  0
M  END
>  <MODEL>
2

>  <REMARK>
 VINA RESULT:      -7.1      3.169      9.862
  Name = 
  16 active torsions:
  status: ('A' for Active; 'I' for Inactive)
    1  A    between atoms: C_2  and  N_12
    2  A    between atoms: C_2  and  C_39
    3  A    between atoms: C_2  and  C_42
    4  A    between atoms: C_3  and  O_25
    5  A    between atoms: C_3  and  C_41
    6  A    between atoms: C_5  and  C_6
    7  A    between atoms: C_5  and  C_35
    8  A    between atoms: C_6  and  C_15
    9  A    between atoms: N_12  and  C_28
   10  A    between atoms: C_14  and  C_52
   11  A    between atoms: C_18  and  N_26
   12  A    between atoms: O_25  and  C_39
   13  A    between atoms: C_28  and  C_43
   14  A    between atoms: C_28  and  C_50
   15  A    between atoms: C_32  and  C_44
   16  A    between atoms: C_44  and  C_52
                            x       y       z     vdW  Elec       q    Type
                         _______ _______ _______ _____ _____    ______ ____

>  <TORSDO>
F 16

$$$$
=
 OpenBabel10222417473D

 52 58  0  0  1  0  0  0  0  0999 V2000
  189.2690  176.1310  136.5290 C   0  0  0  0  0  0  0  0  0  0  0  0
  188.0830  176.6270  137.0260 C   0  0  0  0  0  0  0  0  0  0  0  0
  187.1020  175.8690  136.4280 C   0  0  0  0  0  0  0  0  0  0  0  0
  188.9600  175.1060  135.6520 C   0  0  0  0  0  3  0  0  0  0  0  0
  187.6480  174.9830  135.6230 O   0  0  0  0  0  0  0  0  0  0  0  0
  191.3450  176.1160  138.0030 C   0  0  0  0  0  0  0  0  0  0  0  0
  190.8970  175.2250  138.7710 O   0  0  0  0  0  0  0  0  0  0  0  0
  190.5750  176.5920  136.8930 N   0  0  0  0  0  2  0  0  0  0  0  0
  192.7090  176.6670  138.2360 C   0  0  0  0  0  2  0  0  0  0  0  0
  194.2850  176.7460  136.4900 O   0  0  0  0  0  0  0  0  0  0  0  0
  193.6850  176.0460  137.2910 C   0  0  0  0  0  0  0  0  0  0  0  0
  194.3320  174.0640  136.0600 N   0  0  0  0  0  0  0  0  0  0  0  0
  195.0200  172.0250  137.1540 C   0  0  0  0  0  2  0  0  0  0  0  0
  195.2210  172.3720  134.5940 C   0  0  0  0  0  1  0  0  0  0  0  0
  194.8000  172.8700  135.9340 C   0  0  0  0  0  0  0  0  0  0  0  0
  193.9470  174.5750  137.3610 C   0  0  1  0  0  3  0  0  0  0  0  0
  195.0100  174.2550  138.4270 C   0  0  0  0  0  2  0  0  0  0  0  0
  195.6820  172.8790  138.2390 C   0  0  0  0  0  2  0  0  0  0  0  0
  188.8400  178.8570  137.8070 C   0  0  0  0  0  1  0  0  0  0  0  0
  187.8800  177.7080  138.0470 C   0  0  2  0  0  3  0  0  0  0  0  0
  188.0560  177.1740  139.4610 C   0  0  0  0  0  2  0  0  0  0  0  0
  188.9860  176.9770  146.5700 C   0  0  0  0  0  3  0  0  0  0  0  0
  191.3910  176.8650  146.8730 C   0  0  0  0  0  3  0  0  0  0  0  0
  187.2270  178.6580  141.3720 C   0  0  2  0  0  3  0  0  0  0  0  0
  188.4170  178.2960  140.4390 C   0  0  1  0  0  3  0  0  0  0  0  0
  186.1140  177.8510  143.4690 N   0  0  0  0  0  2  0  0  0  0  0  0
  190.4740  177.0190  144.6380 C   0  0  0  0  0  0  0  0  0  0  0  0
  186.7290  177.6020  144.5580 N   0  0  0  0  0  0  0  0  0  0  0  0
  186.9240  177.4800  142.3070 C   0  0  2  0  0  3  0  0  0  0  0  0
  189.6040  177.9150  141.2260 N   0  0  0  0  0  0  0  0  0  0  0  0
  189.1670  177.0380  145.1850 C   0  0  0  0  0  0  0  0  0  0  0  0
  191.5790  176.9330  145.4890 C   0  0  0  0  0  3  0  0  0  0  0  0
  189.5140  177.2930  142.3670 C   0  0  0  0  0  0  0  0  0  0  0  0
  188.0220  177.1010  144.2580 C   0  0  0  0  0  0  0  0  0  0  0  0
  188.1900  177.0720  142.9560 C   0  0  1  0  0  3  0  0  0  0  0  0
  190.0990  176.8900  147.4120 C   0  0  0  0  0  3  0  0  0  0  0  0
  185.9940  179.0620  140.5830 C   0  0  0  0  0  1  0  0  0  0  0  0
  190.6610  177.1550  143.2170 N   0  0  0  0  0  2  0  0  0  0  0  0
  185.6330  175.9960  136.6700 C   0  0  2  0  0  3  0  0  0  0  0  0
  184.1730  174.1700  137.7270 C   0  0  0  0  0  2  0  0  0  0  0  0
  185.5620  173.6120  137.4700 C   0  0  0  0  0  2  0  0  0  0  0  0
  184.9620  174.6200  136.5070 C   0  0  0  0  0  3  0  0  0  0  0  0
  185.0700  177.0360  135.8090 N   0  0  0  0  0  2  0  0  0  0  0  0
  183.6200  176.9610  135.9270 C   0  0  2  0  0  3  0  0  0  0  0  0
  181.6120  176.9950  134.5940 O   0  0  0  0  0  1  0  0  0  0  0  0
  182.9380  177.4300  134.6440 C   0  0  0  0  0  2  0  0  0  0  0  0
  183.1370  177.7290  137.1520 C   0  0  0  0  0  2  0  0  0  0  0  0
  181.9860  177.1470  137.6870 O   0  0  0  0  0  0  0  0  0  0  0  0
  181.2860  178.2120  138.2550 C   0  0  0  0  0  2  0  0  0  0  0  0
  181.3570  179.1930  140.5770 N   0  0  0  0  0  1  0  0  0  0  0  0
  181.1520  176.9030  140.2390 O   0  0  0  0  0  0  0  0  0  0  0  0
  181.2500  178.0510  139.7340 C   0  0  0  0  0  0  0  0  0  0  0  0
  1  8  1  0  0  0  0
  1  2  1  0  0  0  0
  2 20  1  0  0  0  0
  3 39  1  0  0  0  0
  3  2  2  0  0  0  0
  4  1  2  0  0  0  0
  5  4  1  0  0  0  0
  5  3  1  0  0  0  0
  6  9  1  0  0  0  0
  6  7  2  0  0  0  0
  8  6  1  0  0  0  0
 10 11  2  0  0  0  0
 11  9  1  0  0  0  0
 12 16  1  0  0  0  0
 13 18  1  0  0  0  0
 14 15  1  0  0  0  0
 15 12  2  0  0  0  0
 15 13  1  0  0  0  0
 16 11  1  6  0  0  0
 16 17  1  0  0  0  0
 18 17  1  0  0  0  0
 20 19  1  6  0  0  0
 20 21  1  0  0  0  0
 22 36  1  0  0  0  0
 23 36  2  0  0  0  0
 24 37  1  6  0  0  0
 24 29  1  0  0  0  0
 25 21  1  6  0  0  0
 25 30  1  0  0  0  0
 25 24  1  0  0  0  0
 26 28  1  0  0  0  0
 27 31  1  0  0  0  0
 27 32  2  0  0  0  0
 29 35  1  0  0  0  0
 29 26  1  1  0  0  0
 30 33  2  0  0  0  0
 31 22  2  0  0  0  0
 32 23  1  0  0  0  0
 33 38  1  0  0  0  0
 34 28  2  0  0  0  0
 34 31  1  0  0  0  0
 35 33  1  1  0  0  0
 35 34  1  0  0  0  0
 38 27  1  0  0  0  0
 39 43  1  6  0  0  0
 41 40  1  0  0  0  0
 42 39  1  0  0  0  0
 42 41  1  0  0  0  0
 42 40  1  0  0  0  0
 43 44  1  0  0  0  0
 44 46  1  6  0  0  0
 44 47  1  0  0  0  0
 45 46  1  0  0  0  0
 47 48  1  0  0  0  0
 48 49  1  0  0  0  0
 49 52  1  0  0  0  0
 52 51  2  0  0  0  0
 52 50  1  0  0  0  0
M  END
>  <MODEL>
3

>  <REMARK>
 VINA RESULT:      -6.9      2.679      4.173
  Name = 
  16 active torsions:
  status: ('A' for Active; 'I' for Inactive)
    1  A    between atoms: C_2  and  N_12
    2  A    between atoms: C_2  and  C_39
    3  A    between atoms: C_2  and  C_42
    4  A    between atoms: C_3  and  O_25
    5  A    between atoms: C_3  and  C_41
    6  A    between atoms: C_5  and  C_6
    7  A    between atoms: C_5  and  C_35
    8  A    between atoms: C_6  and  C_15
    9  A    between atoms: N_12  and  C_28
   10  A    between atoms: C_14  and  C_52
   11  A    between atoms: C_18  and  N_26
   12  A    between atoms: O_25  and  C_39
   13  A    between atoms: C_28  and  C_43
   14  A    between atoms: C_28  and  C_50
   15  A    between atoms: C_32  and  C_44
   16  A    between atoms: C_44  and  C_52
                            x       y       z     vdW  Elec       q    Type
                         _______ _______ _______ _____ _____    ______ ____

>  <TORSDO>
F 16

$$$$
=
 OpenBabel10222417473D

 52 58  0  0  1  0  0  0  0  0999 V2000
  190.6240  174.4520  137.2880 C   0  0  0  0  0  0  0  0  0  0  0  0
  189.4650  175.1960  137.3430 C   0  0  0  0  0  0  0  0  0  0  0  0
  188.5580  174.4960  136.5790 C   0  0  0  0  0  0  0  0  0  0  0  0
  190.3760  173.3460  136.4950 C   0  0  0  0  0  3  0  0  0  0  0  0
  189.1230  173.4130  136.0910 O   0  0  0  0  0  0  0  0  0  0  0  0
  193.1620  174.5930  137.4310 C   0  0  0  0  0  0  0  0  0  0  0  0
  193.3380  174.1080  136.2830 O   0  0  0  0  0  0  0  0  0  0  0  0
  191.8450  174.7740  137.9640 N   0  0  0  0  0  2  0  0  0  0  0  0
  194.3410  175.0080  138.2400 C   0  0  0  0  0  2  0  0  0  0  0  0
  195.0100  172.8170  138.7790 O   0  0  0  0  0  0  0  0  0  0  0  0
  195.3360  173.8970  138.3090 C   0  0  0  0  0  0  0  0  0  0  0  0
  197.3960  172.8330  137.6070 N   0  0  0  0  0  0  0  0  0  0  0  0
  199.0720  173.9870  136.3080 C   0  0  0  0  0  2  0  0  0  0  0  0
  199.1800  171.4420  136.7840 C   0  0  0  0  0  1  0  0  0  0  0  0
  198.5100  172.7600  136.9640 C   0  0  0  0  0  0  0  0  0  0  0  0
  196.7140  174.1040  137.7650 C   0  0  1  0  0  3  0  0  0  0  0  0
  196.6710  174.8870  136.4400 C   0  0  0  0  0  2  0  0  0  0  0  0
  197.9440  174.7260  135.5840 C   0  0  0  0  0  2  0  0  0  0  0  0
  190.2860  177.4820  137.8440 C   0  0  0  0  0  1  0  0  0  0  0  0
  189.2020  176.4560  138.1130 C   0  0  2  0  0  3  0  0  0  0  0  0
  189.1070  176.1830  139.6070 C   0  0  0  0  0  2  0  0  0  0  0  0
  189.2820  177.1710  146.7080 C   0  0  0  0  0  3  0  0  0  0  0  0
  191.5520  176.6060  147.3520 C   0  0  0  0  0  3  0  0  0  0  0  0
  188.4720  178.1510  141.1120 C   0  0  2  0  0  3  0  0  0  0  0  0
  189.6270  177.3690  140.4240 C   0  0  1  0  0  3  0  0  0  0  0  0
  187.0060  178.0230  143.1410 N   0  0  0  0  0  2  0  0  0  0  0  0
  190.9150  176.5190  145.0180 C   0  0  0  0  0  0  0  0  0  0  0  0
  187.4380  177.8630  144.3310 N   0  0  0  0  0  0  0  0  0  0  0  0
  187.8130  177.2700  142.1790 C   0  0  2  0  0  3  0  0  0  0  0  0
  190.6110  176.9020  141.4190 N   0  0  0  0  0  0  0  0  0  0  0  0
  189.6040  176.9220  145.3700 C   0  0  0  0  0  0  0  0  0  0  0  0
  191.8830  176.3640  146.0150 C   0  0  0  0  0  3  0  0  0  0  0  0
  190.2680  176.5470  142.6240 C   0  0  0  0  0  0  0  0  0  0  0  0
  188.5990  177.0480  144.2980 C   0  0  0  0  0  0  0  0  0  0  0  0
  188.8790  176.7330  143.0550 C   0  0  1  0  0  3  0  0  0  0  0  0
  190.2570  177.0120  147.6970 C   0  0  0  0  0  3  0  0  0  0  0  0
  187.4500  178.6500  140.1050 C   0  0  0  0  0  1  0  0  0  0  0  0
  191.2640  176.3330  143.6340 N   0  0  0  0  0  2  0  0  0  0  0  0
  187.1300  174.8780  136.3540 C   0  0  2  0  0  3  0  0  0  0  0  0
  185.2170  173.6290  137.5220 C   0  0  0  0  0  2  0  0  0  0  0  0
  186.5000  172.8310  137.6750 C   0  0  0  0  0  2  0  0  0  0  0  0
  186.2460  173.6180  136.4020 C   0  0  0  0  0  3  0  0  0  0  0  0
  187.0040  175.6440  135.1160 N   0  0  0  0  0  2  0  0  0  0  0  0
  186.3990  176.9250  135.4550 C   0  0  2  0  0  3  0  0  0  0  0  0
  188.5770  177.7120  134.7840 O   0  0  0  0  0  1  0  0  0  0  0  0
  187.2410  178.0880  134.9340 C   0  0  0  0  0  2  0  0  0  0  0  0
  186.1460  177.0230  136.9550 C   0  0  0  0  0  2  0  0  0  0  0  0
  185.4650  178.2000  137.2730 O   0  0  0  0  0  0  0  0  0  0  0  0
  184.3680  177.7780  138.0250 C   0  0  0  0  0  2  0  0  0  0  0  0
  183.4930  178.2930  140.3340 N   0  0  0  0  0  1  0  0  0  0  0  0
  184.4720  179.9390  139.0180 O   0  0  0  0  0  0  0  0  0  0  0  0
  184.1320  178.7340  139.1400 C   0  0  0  0  0  0  0  0  0  0  0  0
  1  2  1  0  0  0  0
  1  8  1  0  0  0  0
  2 20  1  0  0  0  0
  3  2  2  0  0  0  0
  4  1  2  0  0  0  0
  5  4  1  0  0  0  0
  5  3  1  0  0  0  0
  6  8  1  0  0  0  0
  6  9  1  0  0  0  0
  7  6  2  0  0  0  0
  9 11  1  0  0  0  0
 11 10  2  0  0  0  0
 12 16  1  0  0  0  0
 13 15  1  0  0  0  0
 14 15  1  0  0  0  0
 15 12  2  0  0  0  0
 16 11  1  6  0  0  0
 17 16  1  0  0  0  0
 18 13  1  0  0  0  0
 18 17  1  0  0  0  0
 20 19  1  1  0  0  0
 20 21  1  0  0  0  0
 22 36  1  0  0  0  0
 23 36  2  0  0  0  0
 24 37  1  6  0  0  0
 24 29  1  0  0  0  0
 25 21  1  1  0  0  0
 25 24  1  0  0  0  0
 25 30  1  0  0  0  0
 26 28  1  0  0  0  0
 27 31  1  0  0  0  0
 27 32  2  0  0  0  0
 29 35  1  0  0  0  0
 29 26  1  1  0  0  0
 30 33  2  0  0  0  0
 31 22  2  0  0  0  0
 32 23  1  0  0  0  0
 33 38  1  0  0  0  0
 34 28  2  0  0  0  0
 34 31  1  0  0  0  0
 35 33  1  6  0  0  0
 35 34  1  0  0  0  0
 38 27  1  0  0  0  0
 39 43  1  6  0  0  0
 39 42  1  0  0  0  0
 39  3  1  0  0  0  0
 40 41  1  0  0  0  0
 42 40  1  0  0  0  0
 42 41  1  0  0  0  0
 43 44  1  0  0  0  0
 44 46  1  1  0  0  0
 44 47  1  0  0  0  0
 45 46  1  0  0  0  0
 47 48  1  0  0  0  0
 48 49  1  0  0  0  0
 49 52  1  0  0  0  0
 51 52  2  0  0  0  0
 52 50  1  0  0  0  0
M  END
>  <MODEL>
4

>  <REMARK>
 VINA RESULT:      -6.8      3.228      5.744
  Name = 
  16 active torsions:
  status: ('A' for Active; 'I' for Inactive)
    1  A    between atoms: C_2  and  N_12
    2  A    between atoms: C_2  and  C_39
    3  A    between atoms: C_2  and  C_42
    4  A    between atoms: C_3  and  O_25
    5  A    between atoms: C_3  and  C_41
    6  A    between atoms: C_5  and  C_6
    7  A    between atoms: C_5  and  C_35
    8  A    between atoms: C_6  and  C_15
    9  A    between atoms: N_12  and  C_28
   10  A    between atoms: C_14  and  C_52
   11  A    between atoms: C_18  and  N_26
   12  A    between atoms: O_25  and  C_39
   13  A    between atoms: C_28  and  C_43
   14  A    between atoms: C_28  and  C_50
   15  A    between atoms: C_32  and  C_44
   16  A    between atoms: C_44  and  C_52
                            x       y       z     vdW  Elec       q    Type
                         _______ _______ _______ _____ _____    ______ ____

>  <TORSDO>
F 16

$$$$
=
 OpenBabel10222417473D

 52 58  0  0  1  0  0  0  0  0999 V2000
  185.9460  177.4880  136.5560 C   0  0  0  0  0  0  0  0  0  0  0  0
  184.6570  177.1610  136.9200 C   0  0  0  0  0  0  0  0  0  0  0  0
  184.1120  176.5680  135.8030 C   0  0  0  0  0  0  0  0  0  0  0  0
  186.1250  177.0890  135.2430 C   0  0  0  0  0  3  0  0  0  0  0  0
  184.9990  176.5410  134.8310 O   0  0  0  0  0  0  0  0  0  0  0  0
  187.9780  177.4230  138.0870 C   0  0  0  0  0  0  0  0  0  0  0  0
  188.1290  176.1780  137.9750 O   0  0  0  0  0  0  0  0  0  0  0  0
  186.9150  178.1030  137.4110 N   0  0  0  0  0  2  0  0  0  0  0  0
  188.9350  178.2050  138.9190 C   0  0  0  0  0  2  0  0  0  0  0  0
  190.7820  176.7780  139.2240 O   0  0  0  0  0  0  0  0  0  0  0  0
  189.7900  177.2830  139.7260 C   0  0  0  0  0  0  0  0  0  0  0  0
  190.5430  176.3580  141.8330 N   0  0  0  0  0  0  0  0  0  0  0  0
  189.4250  176.8180  143.9240 C   0  0  0  0  0  2  0  0  0  0  0  0
  191.6940  175.5720  143.7970 C   0  0  0  0  0  1  0  0  0  0  0  0
  190.5410  176.2230  143.1150 C   0  0  0  0  0  0  0  0  0  0  0  0
  189.4430  177.0170  141.1570 C   0  0  1  0  0  3  0  0  0  0  0  0
  189.0390  178.3180  141.8750 C   0  0  0  0  0  2  0  0  0  0  0  0
  189.1390  178.2320  143.4130 C   0  0  0  0  0  2  0  0  0  0  0  0
  183.3720  176.0360  138.7180 C   0  0  0  0  0  1  0  0  0  0  0  0
  183.9920  177.3390  138.2520 C   0  0  2  0  0  3  0  0  0  0  0  0
  182.9290  178.4280  138.2000 C   0  0  0  0  0  2  0  0  0  0  0  0
  183.4040  178.7570  145.3480 C   0  0  0  0  0  3  0  0  0  0  0  0
  185.7760  178.5430  145.8170 C   0  0  0  0  0  3  0  0  0  0  0  0
  182.0700  180.1030  139.9310 C   0  0  2  0  0  3  0  0  0  0  0  0
  183.2920  179.6040  139.1090 C   0  0  1  0  0  3  0  0  0  0  0  0
  180.7850  179.5270  142.0050 N   0  0  0  0  0  2  0  0  0  0  0  0
  185.0090  178.5650  143.5210 C   0  0  0  0  0  0  0  0  0  0  0  0
  181.3160  179.3350  143.1490 N   0  0  0  0  0  0  0  0  0  0  0  0
  181.6430  179.0220  140.9310 C   0  0  2  0  0  3  0  0  0  0  0  0
  184.4050  179.2260  140.0010 N   0  0  0  0  0  0  0  0  0  0  0  0
  183.6740  178.6960  143.9770 C   0  0  0  0  0  0  0  0  0  0  0  0
  186.0530  178.4900  144.4470 C   0  0  0  0  0  3  0  0  0  0  0  0
  184.2090  178.7040  141.1770 C   0  0  0  0  0  0  0  0  0  0  0  0
  182.5940  178.7440  142.9750 C   0  0  0  0  0  0  0  0  0  0  0  0
  182.8410  178.6010  141.6930 C   0  0  1  0  0  3  0  0  0  0  0  0
  184.4560  178.6800  146.2660 C   0  0  0  0  0  3  0  0  0  0  0  0
  180.9130  180.5060  139.0330 C   0  0  0  0  0  1  0  0  0  0  0  0
  185.2910  178.5750  142.1090 N   0  0  0  0  0  2  0  0  0  0  0  0
  182.7320  176.0030  135.7020 C   0  0  2  0  0  3  0  0  0  0  0  0
  180.7320  177.1650  134.5940 C   0  0  0  0  0  2  0  0  0  0  0  0
  181.9110  178.1220  134.6230 C   0  0  0  0  0  2  0  0  0  0  0  0
  181.7020  177.1450  135.7650 C   0  0  0  0  0  3  0  0  0  0  0  0
  182.5370  174.9710  136.7190 N   0  0  0  0  0  2  0  0  0  0  0  0
  181.7410  173.9100  136.1160 C   0  0  2  0  0  3  0  0  0  0  0  0
  180.0900  172.6630  137.3530 O   0  0  0  0  0  1  0  0  0  0  0  0
  180.3320  173.8750  136.7040 C   0  0  0  0  0  2  0  0  0  0  0  0
  182.4500  172.5660  136.2360 C   0  0  0  0  0  2  0  0  0  0  0  0
  183.6080  172.5380  135.4570 O   0  0  0  0  0  0  0  0  0  0  0  0
  184.5430  171.8650  136.2440 C   0  0  0  0  0  2  0  0  0  0  0  0
  186.3160  173.6590  136.2480 N   0  0  0  0  0  1  0  0  0  0  0  0
  185.3030  172.9570  138.2180 O   0  0  0  0  0  0  0  0  0  0  0  0
  185.3890  172.8530  136.9670 C   0  0  0  0  0  0  0  0  0  0  0  0
  1  2  1  0  0  0  0
  1  8  1  0  0  0  0
  2 20  1  0  0  0  0
  3  2  2  0  0  0  0
  4  1  2  0  0  0  0
  5  4  1  0  0  0  0
  5  3  1  0  0  0  0
  6  9  1  0  0  0  0
  7  6  2  0  0  0  0
  8  6  1  0  0  0  0
  9 11  1  0  0  0  0
 10 11  2  0  0  0  0
 12 15  2  0  0  0  0
 15 14  1  0  0  0  0
 15 13  1  0  0  0  0
 16 11  1  6  0  0  0
 16 12  1  0  0  0  0
 16 17  1  0  0  0  0
 17 18  1  0  0  0  0
 18 13  1  0  0  0  0
 20 19  1  6  0  0  0
 21 20  1  0  0  0  0
 22 36  1  0  0  0  0
 23 36  2  0  0  0  0
 24 37  1  6  0  0  0
 24 29  1  0  0  0  0
 25 21  1  1  0  0  0
 25 24  1  0  0  0  0
 25 30  1  0  0  0  0
 26 28  1  0  0  0  0
 27 31  1  0  0  0  0
 27 32  2  0  0  0  0
 29 35  1  0  0  0  0
 29 26  1  1  0  0  0
 30 33  2  0  0  0  0
 31 22  2  0  0  0  0
 32 23  1  0  0  0  0
 33 38  1  0  0  0  0
 34 28  2  0  0  0  0
 34 31  1  0  0  0  0
 35 33  1  6  0  0  0
 35 34  1  0  0  0  0
 38 27  1  0  0  0  0
 39 42  1  0  0  0  0
 39  3  1  0  0  0  0
 39 43  1  1  0  0  0
 40 41  1  0  0  0  0
 40 42  1  0  0  0  0
 41 42  1  0  0  0  0
 44 47  1  1  0  0  0
 44 46  1  0  0  0  0
 44 43  1  0  0  0  0
 46 45  1  0  0  0  0
 48 47  1  0  0  0  0
 48 49  1  0  0  0  0
 49 52  1  0  0  0  0
 50 52  1  0  0  0  0
 52 51  2  0  0  0  0
M  END
>  <MODEL>
5

>  <REMARK>
 VINA RESULT:      -6.3      3.151      5.735
  Name = 
  16 active torsions:
  status: ('A' for Active; 'I' for Inactive)
    1  A    between atoms: C_2  and  N_12
    2  A    between atoms: C_2  and  C_39
    3  A    between atoms: C_2  and  C_42
    4  A    between atoms: C_3  and  O_25
    5  A    between atoms: C_3  and  C_41
    6  A    between atoms: C_5  and  C_6
    7  A    between atoms: C_5  and  C_35
    8  A    between atoms: C_6  and  C_15
    9  A    between atoms: N_12  and  C_28
   10  A    between atoms: C_14  and  C_52
   11  A    between atoms: C_18  and  N_26
   12  A    between atoms: O_25  and  C_39
   13  A    between atoms: C_28  and  C_43
   14  A    between atoms: C_28  and  C_50
   15  A    between atoms: C_32  and  C_44
   16  A    between atoms: C_44  and  C_52
                            x       y       z     vdW  Elec       q    Type
                         _______ _______ _______ _____ _____    ______ ____

>  <TORSDO>
F 16

$$$$
=
 OpenBabel10222417473D

 52 58  0  0  1  0  0  0  0  0999 V2000
  189.2530  176.2280  137.3110 C   0  0  0  0  0  0  0  0  0  0  0  0
  188.2930  177.1400  137.6910 C   0  0  0  0  0  0  0  0  0  0  0  0
  187.0920  176.5020  137.4760 C   0  0  0  0  0  0  0  0  0  0  0  0
  188.6000  175.0870  136.8780 C   0  0  0  0  0  3  0  0  0  0  0  0
  187.3040  175.2960  136.9950 O   0  0  0  0  0  0  0  0  0  0  0  0
  191.6520  175.7490  136.6060 C   0  0  0  0  0  0  0  0  0  0  0  0
  191.3200  174.8690  135.7700 O   0  0  0  0  0  0  0  0  0  0  0  0
  190.6670  176.4370  137.3870 N   0  0  0  0  0  2  0  0  0  0  0  0
  193.0900  176.1000  136.7700 C   0  0  0  0  0  2  0  0  0  0  0  0
  193.3940  173.9950  137.7780 O   0  0  0  0  0  0  0  0  0  0  0  0
  193.8860  174.8780  137.0910 C   0  0  0  0  0  0  0  0  0  0  0  0
  196.2560  174.8570  137.5860 N   0  0  0  0  0  0  0  0  0  0  0  0
  197.8970  174.0000  136.0360 C   0  0  0  0  0  2  0  0  0  0  0  0
  198.4890  174.6670  138.4690 C   0  0  0  0  0  1  0  0  0  0  0  0
  197.4900  174.5590  137.3690 C   0  0  0  0  0  0  0  0  0  0  0  0
  195.2660  174.7270  136.5340 C   0  0  1  0  0  3  0  0  0  0  0  0
  195.4150  173.3910  135.7840 C   0  0  0  0  0  2  0  0  0  0  0  0
  196.8800  172.9390  135.6090 C   0  0  0  0  0  2  0  0  0  0  0  0
  189.0140  179.4680  137.2300 C   0  0  0  0  0  1  0  0  0  0  0  0
  188.4860  178.5070  138.2780 C   0  0  2  0  0  3  0  0  0  0  0  0
  189.4330  178.4690  139.4690 C   0  0  0  0  0  2  0  0  0  0  0  0
  189.4390  177.6880  146.5980 C   0  0  0  0  0  3  0  0  0  0  0  0
  187.0930  177.7170  147.2220 C   0  0  0  0  0  3  0  0  0  0  0  0
  190.5040  176.7560  141.0370 C   0  0  2  0  0  3  0  0  0  0  0  0
  189.2020  177.2200  140.3230 C   0  0  1  0  0  3  0  0  0  0  0  0
  191.8800  177.2920  143.0620 N   0  0  0  0  0  2  0  0  0  0  0  0
  187.7110  177.8820  144.8870 C   0  0  0  0  0  0  0  0  0  0  0  0
  191.4130  177.3800  144.2460 N   0  0  0  0  0  0  0  0  0  0  0  0
  190.9260  177.8010  142.0760 C   0  0  2  0  0  3  0  0  0  0  0  0
  188.1280  177.4700  141.3030 N   0  0  0  0  0  0  0  0  0  0  0  0
  189.0780  177.8120  145.2530 C   0  0  0  0  0  0  0  0  0  0  0  0
  186.7260  177.8330  145.8780 C   0  0  0  0  0  3  0  0  0  0  0  0
  188.3660  177.9340  142.4960 C   0  0  0  0  0  0  0  0  0  0  0  0
  190.0920  177.8950  144.1860 C   0  0  0  0  0  0  0  0  0  0  0  0
  189.7560  178.0960  142.9330 C   0  0  1  0  0  3  0  0  0  0  0  0
  188.4450  177.6420  147.5810 C   0  0  0  0  0  3  0  0  0  0  0  0
  191.6230  176.4830  140.0470 C   0  0  0  0  0  1  0  0  0  0  0  0
  187.3400  177.9360  143.4980 N   0  0  0  0  0  2  0  0  0  0  0  0
  185.7390  177.0670  137.7710 C   0  0  2  0  0  3  0  0  0  0  0  0
  184.0150  176.5600  135.9400 C   0  0  0  0  0  2  0  0  0  0  0  0
  185.4040  176.5640  135.3290 C   0  0  0  0  0  2  0  0  0  0  0  0
  185.0740  177.5210  136.4590 C   0  0  0  0  0  3  0  0  0  0  0  0
  185.8440  178.1210  138.7780 N   0  0  0  0  0  2  0  0  0  0  0  0
  184.5880  178.1460  139.5150 C   0  0  2  0  0  3  0  0  0  0  0  0
  184.2490  180.4930  139.0780 O   0  0  0  0  0  1  0  0  0  0  0  0
  183.6570  179.2320  138.9820 C   0  0  0  0  0  2  0  0  0  0  0  0
  184.8410  178.2870  141.0120 C   0  0  0  0  0  2  0  0  0  0  0  0
  183.6540  178.1610  141.7360 O   0  0  0  0  0  0  0  0  0  0  0  0
  183.5990  179.3120  142.5220 C   0  0  0  0  0  2  0  0  0  0  0  0
  183.5980  179.0430  145.0300 N   0  0  0  0  0  1  0  0  0  0  0  0
  181.6690  178.7050  143.7770 O   0  0  0  0  0  0  0  0  0  0  0  0
  182.8890  179.0120  143.7950 C   0  0  0  0  0  0  0  0  0  0  0  0
  1  8  1  0  0  0  0
  1  2  1  0  0  0  0
  2 20  1  0  0  0  0
  3  2  2  0  0  0  0
  3 39  1  0  0  0  0
  4  5  1  0  0  0  0
  4  1  2  0  0  0  0
  5  3  1  0  0  0  0
  6  9  1  0  0  0  0
  6  8  1  0  0  0  0
  7  6  2  0  0  0  0
  9 11  1  0  0  0  0
 11 10  2  0  0  0  0
 13 15  1  0  0  0  0
 15 12  2  0  0  0  0
 15 14  1  0  0  0  0
 16 11  1  1  0  0  0
 16 12  1  0  0  0  0
 17 16  1  0  0  0  0
 18 17  1  0  0  0  0
 18 13  1  0  0  0  0
 20 19  1  6  0  0  0
 20 21  1  0  0  0  0
 22 36  1  0  0  0  0
 23 36  2  0  0  0  0
 24 37  1  6  0  0  0
 24 29  1  0  0  0  0
 25 21  1  1  0  0  0
 25 24  1  0  0  0  0
 25 30  1  0  0  0  0
 26 28  1  0  0  0  0
 27 31  1  0  0  0  0
 27 32  2  0  0  0  0
 29 35  1  0  0  0  0
 29 26  1  1  0  0  0
 30 33  2  0  0  0  0
 31 22  2  0  0  0  0
 32 23  1  0  0  0  0
 33 38  1  0  0  0  0
 34 28  2  0  0  0  0
 34 31  1  0  0  0  0
 35 33  1  6  0  0  0
 35 34  1  0  0  0  0
 38 27  1  0  0  0  0
 39 43  1  1  0  0  0
 40 42  1  0  0  0  0
 41 40  1  0  0  0  0
 41 42  1  0  0  0  0
 42 39  1  0  0  0  0
 43 44  1  0  0  0  0
 44 46  1  6  0  0  0
 44 47  1  0  0  0  0
 46 45  1  0  0  0  0
 47 48  1  0  0  0  0
 48 49  1  0  0  0  0
 49 52  1  0  0  0  0
 51 52  2  0  0  0  0
 52 50  1  0  0  0  0
M  END
>  <MODEL>
6

>  <REMARK>
 VINA RESULT:      -6.2      2.992      5.364
  Name = 
  16 active torsions:
  status: ('A' for Active; 'I' for Inactive)
    1  A    between atoms: C_2  and  N_12
    2  A    between atoms: C_2  and  C_39
    3  A    between atoms: C_2  and  C_42
    4  A    between atoms: C_3  and  O_25
    5  A    between atoms: C_3  and  C_41
    6  A    between atoms: C_5  and  C_6
    7  A    between atoms: C_5  and  C_35
    8  A    between atoms: C_6  and  C_15
    9  A    between atoms: N_12  and  C_28
   10  A    between atoms: C_14  and  C_52
   11  A    between atoms: C_18  and  N_26
   12  A    between atoms: O_25  and  C_39
   13  A    between atoms: C_28  and  C_43
   14  A    between atoms: C_28  and  C_50
   15  A    between atoms: C_32  and  C_44
   16  A    between atoms: C_44  and  C_52
                            x       y       z     vdW  Elec       q    Type
                         _______ _______ _______ _____ _____    ______ ____

>  <TORSDO>
F 16

$$$$
=
 OpenBabel10222417473D

 52 58  0  0  1  0  0  0  0  0999 V2000
  190.5760  176.9230  139.2210 C   0  0  0  0  0  0  0  0  0  0  0  0
  190.2770  177.0390  137.8800 C   0  0  0  0  0  0  0  0  0  0  0  0
  191.1910  176.2300  137.2420 C   0  0  0  0  0  0  0  0  0  0  0  0
  191.6520  176.0620  139.3380 C   0  0  0  0  0  3  0  0  0  0  0  0
  191.9880  175.6690  138.1250 O   0  0  0  0  0  0  0  0  0  0  0  0
  189.7060  177.0490  141.6100 C   0  0  0  0  0  0  0  0  0  0  0  0
  190.1970  175.9370  141.9370 O   0  0  0  0  0  0  0  0  0  0  0  0
  189.8660  177.5660  140.2840 N   0  0  0  0  0  2  0  0  0  0  0  0
  188.9690  177.8520  142.6250 C   0  0  0  0  0  2  0  0  0  0  0  0
  191.0370  178.5560  143.5000 O   0  0  0  0  0  0  0  0  0  0  0  0
  189.8830  178.2360  143.7420 C   0  0  0  0  0  0  0  0  0  0  0  0
  187.9210  178.1180  145.1570 N   0  0  0  0  0  0  0  0  0  0  0  0
  188.0600  177.7370  147.5370 C   0  0  0  0  0  2  0  0  0  0  0  0
  185.8100  177.7310  146.2500 C   0  0  0  0  0  1  0  0  0  0  0  0
  187.2900  177.9090  146.2600 C   0  0  0  0  0  0  0  0  0  0  0  0
  189.3640  178.2620  145.1450 C   0  0  1  0  0  3  0  0  0  0  0  0
  190.0440  177.1800  146.0040 C   0  0  0  0  0  2  0  0  0  0  0  0
  189.2540  176.8150  147.2780 C   0  0  0  0  0  2  0  0  0  0  0  0
  189.2850  179.2900  137.5640 C   0  0  0  0  0  1  0  0  0  0  0  0
  189.1660  177.8140  137.2370 C   0  0  2  0  0  3  0  0  0  0  0  0
  187.8030  177.2950  137.6740 C   0  0  0  0  0  2  0  0  0  0  0  0
  180.7750  177.0830  139.0850 C   0  0  0  0  0  3  0  0  0  0  0  0
  180.4620  178.6720  140.8920 C   0  0  0  0  0  3  0  0  0  0  0  0
  185.7210  177.5510  136.2120 C   0  0  2  0  0  3  0  0  0  0  0  0
  186.6800  178.2350  137.2270 C   0  0  1  0  0  3  0  0  0  0  0  0
  183.7650  175.9850  136.1720 N   0  0  0  0  0  2  0  0  0  0  0  0
  182.6670  178.3620  139.9410 C   0  0  0  0  0  0  0  0  0  0  0  0
  182.7110  176.1330  136.8760 N   0  0  0  0  0  0  0  0  0  0  0  0
  184.9560  176.4170  136.9040 C   0  0  2  0  0  3  0  0  0  0  0  0
  185.9370  178.7260  138.4030 N   0  0  0  0  0  0  0  0  0  0  0  0
  182.1370  177.3960  139.0510 C   0  0  0  0  0  0  0  0  0  0  0  0
  181.8220  178.9950  140.8580 C   0  0  0  0  0  3  0  0  0  0  0  0
  184.8910  178.1100  138.8740 C   0  0  0  0  0  0  0  0  0  0  0  0
  183.0610  176.7260  138.1160 C   0  0  0  0  0  0  0  0  0  0  0  0
  184.3530  176.9590  138.1430 C   0  0  1  0  0  3  0  0  0  0  0  0
  179.9390  177.7210  140.0060 C   0  0  0  0  0  3  0  0  0  0  0  0
  186.4630  177.0450  134.9870 C   0  0  0  0  0  1  0  0  0  0  0  0
  184.0540  178.7360  139.8560 N   0  0  0  0  0  2  0  0  0  0  0  0
  191.2590  175.9870  135.7690 C   0  0  2  0  0  3  0  0  0  0  0  0
  189.3560  174.2780  135.9660 C   0  0  0  0  0  2  0  0  0  0  0  0
  189.9930  174.1580  134.5940 C   0  0  0  0  0  2  0  0  0  0  0  0
  189.8840  175.5170  135.2600 C   0  0  0  0  0  3  0  0  0  0  0  0
  192.3520  175.0650  135.4620 N   0  0  0  0  0  2  0  0  0  0  0  0
  193.5970  175.7340  135.8130 C   0  0  2  0  0  3  0  0  0  0  0  0
  195.1960  177.3540  135.0170 O   0  0  0  0  0  1  0  0  0  0  0  0
  194.1700  176.4940  134.6180 C   0  0  0  0  0  2  0  0  0  0  0  0
  194.5970  174.7440  136.4000 C   0  0  0  0  0  2  0  0  0  0  0  0
  195.1310  175.2220  137.5980 O   0  0  0  0  0  0  0  0  0  0  0  0
  196.0870  174.2730  137.9590 C   0  0  0  0  0  2  0  0  0  0  0  0
  198.3010  175.2530  138.6640 N   0  0  0  0  0  1  0  0  0  0  0  0
  196.5810  174.9290  140.1930 O   0  0  0  0  0  0  0  0  0  0  0  0
  196.9820  174.8400  139.0040 C   0  0  0  0  0  0  0  0  0  0  0  0
  1  4  2  0  0  0  0
  1  8  1  0  0  0  0
  2  1  1  0  0  0  0
  3  2  2  0  0  0  0
  3  5  1  0  0  0  0
  5  4  1  0  0  0  0
  6  7  2  0  0  0  0
  6  9  1  0  0  0  0
  8  6  1  0  0  0  0
  9 11  1  0  0  0  0
 10 11  2  0  0  0  0
 12 15  2  0  0  0  0
 14 15  1  0  0  0  0
 15 13  1  0  0  0  0
 16 11  1  6  0  0  0
 16 12  1  0  0  0  0
 16 17  1  0  0  0  0
 17 18  1  0  0  0  0
 18 13  1  0  0  0  0
 20 19  1  1  0  0  0
 20 21  1  0  0  0  0
 20  2  1  0  0  0  0
 22 36  1  0  0  0  0
 24 37  1  6  0  0  0
 24 29  1  0  0  0  0
 24 25  1  0  0  0  0
 25 21  1  1  0  0  0
 25 30  1  0  0  0  0
 26 28  1  0  0  0  0
 27 32  2  0  0  0  0
 28 34  2  0  0  0  0
 29 26  1  6  0  0  0
 29 35  1  0  0  0  0
 30 33  2  0  0  0  0
 31 22  2  0  0  0  0
 31 27  1  0  0  0  0
 32 23  1  0  0  0  0
 33 38  1  0  0  0  0
 34 31  1  0  0  0  0
 35 34  1  6  0  0  0
 35 33  1  0  0  0  0
 36 23  2  0  0  0  0
 38 27  1  0  0  0  0
 39 43  1  1  0  0  0
 39  3  1  0  0  0  0
 41 42  1  0  0  0  0
 41 40  1  0  0  0  0
 42 39  1  0  0  0  0
 42 40  1  0  0  0  0
 43 44  1  0  0  0  0
 44 46  1  6  0  0  0
 44 47  1  0  0  0  0
 46 45  1  0  0  0  0
 47 48  1  0  0  0  0
 48 49  1  0  0  0  0
 49 52  1  0  0  0  0
 50 52  1  0  0  0  0
 52 51  2  0  0  0  0
M  END
>  <MODEL>
7

>  <REMARK>
 VINA RESULT:      -6.1      4.132     10.276
  Name = 
  16 active torsions:
  status: ('A' for Active; 'I' for Inactive)
    1  A    between atoms: C_2  and  N_12
    2  A    between atoms: C_2  and  C_39
    3  A    between atoms: C_2  and  C_42
    4  A    between atoms: C_3  and  O_25
    5  A    between atoms: C_3  and  C_41
    6  A    between atoms: C_5  and  C_6
    7  A    between atoms: C_5  and  C_35
    8  A    between atoms: C_6  and  C_15
    9  A    between atoms: N_12  and  C_28
   10  A    between atoms: C_14  and  C_52
   11  A    between atoms: C_18  and  N_26
   12  A    between atoms: O_25  and  C_39
   13  A    between atoms: C_28  and  C_43
   14  A    between atoms: C_28  and  C_50
   15  A    between atoms: C_32  and  C_44
   16  A    between atoms: C_44  and  C_52
                            x       y       z     vdW  Elec       q    Type
                         _______ _______ _______ _____ _____    ______ ____

>  <TORSDO>
F 16

$$$$
=
 OpenBabel10222417473D

 52 58  0  0  1  0  0  0  0  0999 V2000
  188.4300  177.9650  137.5990 C   0  0  0  0  0  0  0  0  0  0  0  0
  187.4530  177.9400  138.5710 C   0  0  0  0  0  0  0  0  0  0  0  0
  186.2650  178.0470  137.8840 C   0  0  0  0  0  0  0  0  0  0  0  0
  187.7980  178.0920  136.3740 C   0  0  0  0  0  3  0  0  0  0  0  0
  186.4990  178.1370  136.5930 O   0  0  0  0  0  0  0  0  0  0  0  0
  190.6410  176.7080  137.5260 C   0  0  0  0  0  0  0  0  0  0  0  0
  190.1360  175.6780  137.0070 O   0  0  0  0  0  0  0  0  0  0  0  0
  189.8370  177.8500  137.8370 N   0  0  0  0  0  2  0  0  0  0  0  0
  192.1050  176.7480  137.8000 C   0  0  0  0  0  2  0  0  0  0  0  0
  192.9240  176.0150  135.7180 O   0  0  0  0  0  0  0  0  0  0  0  0
  192.8220  175.7820  136.9130 C   0  0  0  0  0  0  0  0  0  0  0  0
  193.8000  173.6130  136.4630 N   0  0  0  0  0  0  0  0  0  0  0  0
  195.0800  172.4010  138.1130 C   0  0  0  0  0  2  0  0  0  0  0  0
  194.9150  171.6440  135.6400 C   0  0  0  0  0  1  0  0  0  0  0  0
  194.5310  172.5860  136.7290 C   0  0  0  0  0  0  0  0  0  0  0  0
  193.4420  174.5560  137.5050 C   0  0  1  0  0  3  0  0  0  0  0  0
  194.6590  174.9210  138.3750 C   0  0  0  0  0  2  0  0  0  0  0  0
  195.6230  173.7410  138.6160 C   0  0  0  0  0  2  0  0  0  0  0  0
  186.8300  178.8220  140.8040 C   0  0  0  0  0  1  0  0  0  0  0  0
  187.6180  177.7670  140.0520 C   0  0  2  0  0  3  0  0  0  0  0  0
  189.0830  177.8280  140.4580 C   0  0  0  0  0  2  0  0  0  0  0  0
  189.6920  178.2520  147.5910 C   0  0  0  0  0  3  0  0  0  0  0  0
  187.5710  177.4350  148.4390 C   0  0  0  0  0  3  0  0  0  0  0  0
  190.8260  176.9600  142.1160 C   0  0  2  0  0  3  0  0  0  0  0  0
  189.4230  176.7430  141.4830 C   0  0  1  0  0  3  0  0  0  0  0  0
  191.9390  178.3160  143.9060 N   0  0  0  0  0  2  0  0  0  0  0  0
  187.9730  177.4620  146.0520 C   0  0  0  0  0  0  0  0  0  0  0  0
  191.5240  178.3960  145.1100 N   0  0  0  0  0  0  0  0  0  0  0  0
  190.8210  178.2370  142.9640 C   0  0  2  0  0  3  0  0  0  0  0  0
  188.3800  176.6920  142.5260 N   0  0  0  0  0  0  0  0  0  0  0  0
  189.2600  178.0060  146.2840 C   0  0  0  0  0  0  0  0  0  0  0  0
  187.1350  177.1800  147.1350 C   0  0  0  0  0  3  0  0  0  0  0  0
  188.4530  177.3950  143.6200 C   0  0  0  0  0  0  0  0  0  0  0  0
  190.1070  178.3200  145.1190 C   0  0  0  0  0  0  0  0  0  0  0  0
  189.6680  178.1690  143.8900 C   0  0  1  0  0  3  0  0  0  0  0  0
  188.8460  177.9660  148.6670 C   0  0  0  0  0  3  0  0  0  0  0  0
  191.9190  177.0070  141.0610 C   0  0  0  0  0  1  0  0  0  0  0  0
  187.5570  177.1430  144.7110 N   0  0  0  0  0  2  0  0  0  0  0  0
  184.9010  178.0310  138.4950 C   0  0  2  0  0  3  0  0  0  0  0  0
  183.2780  176.0470  138.3740 C   0  0  0  0  0  2  0  0  0  0  0  0
  184.4780  175.7650  137.4870 C   0  0  0  0  0  2  0  0  0  0  0  0
  183.9560  177.1840  137.6230 C   0  0  0  0  0  3  0  0  0  0  0  0
  184.4340  179.3980  138.7190 N   0  0  0  0  0  2  0  0  0  0  0  0
  183.0570  179.3180  139.1850 C   0  0  2  0  0  3  0  0  0  0  0  0
  181.6200  180.4210  137.5930 O   0  0  0  0  0  1  0  0  0  0  0  0
  182.2750  180.5770  138.8160 C   0  0  0  0  0  2  0  0  0  0  0  0
  183.0070  179.0250  140.6800 C   0  0  0  0  0  2  0  0  0  0  0  0
  181.8420  178.3340  141.0180 O   0  0  0  0  0  0  0  0  0  0  0  0
  181.3740  178.9750  142.1650 C   0  0  0  0  0  2  0  0  0  0  0  0
  179.6800  177.8730  143.6740 N   0  0  0  0  0  1  0  0  0  0  0  0
  179.0770  178.7190  141.5950 O   0  0  0  0  0  0  0  0  0  0  0  0
  179.9820  178.5330  142.4490 C   0  0  0  0  0  0  0  0  0  0  0  0
  1  8  1  0  0  0  0
  1  2  1  0  0  0  0
  2 20  1  0  0  0  0
  3 39  1  0  0  0  0
  3  2  2  0  0  0  0
  4  5  1  0  0  0  0
  4  1  2  0  0  0  0
  5  3  1  0  0  0  0
  6  9  1  0  0  0  0
  6  8  1  0  0  0  0
  7  6  2  0  0  0  0
 10 11  2  0  0  0  0
 11  9  1  0  0  0  0
 12 15  2  0  0  0  0
 12 16  1  0  0  0  0
 13 18  1  0  0  0  0
 14 15  1  0  0  0  0
 15 13  1  0  0  0  0
 16 11  1  6  0  0  0
 16 17  1  0  0  0  0
 17 18  1  0  0  0  0
 20 21  1  0  0  0  0
 20 19  1  1  0  0  0
 22 36  1  0  0  0  0
 23 36  2  0  0  0  0
 24 37  1  6  0  0  0
 24 29  1  0  0  0  0
 25 21  1  6  0  0  0
 25 24  1  0  0  0  0
 25 30  1  0  0  0  0
 26 28  1  0  0  0  0
 27 31  1  0  0  0  0
 27 32  2  0  0  0  0
 28 34  2  0  0  0  0
 29 35  1  0  0  0  0
 29 26  1  1  0  0  0
 30 33  2  0  0  0  0
 31 22  2  0  0  0  0
 32 23  1  0  0  0  0
 33 38  1  0  0  0  0
 34 31  1  0  0  0  0
 35 33  1  1  0  0  0
 35 34  1  0  0  0  0
 38 27  1  0  0  0  0
 39 43  1  6  0  0  0
 41 42  1  0  0  0  0
 41 40  1  0  0  0  0
 42 40  1  0  0  0  0
 42 39  1  0  0  0  0
 43 44  1  0  0  0  0
 44 46  1  1  0  0  0
 44 47  1  0  0  0  0
 45 46  1  0  0  0  0
 47 48  1  0  0  0  0
 48 49  1  0  0  0  0
 49 52  1  0  0  0  0
 51 52  2  0  0  0  0
 52 50  1  0  0  0  0
M  END
>  <MODEL>
8

>  <REMARK>
 VINA RESULT:      -6.1      2.599      4.686
  Name = 
  16 active torsions:
  status: ('A' for Active; 'I' for Inactive)
    1  A    between atoms: C_2  and  N_12
    2  A    between atoms: C_2  and  C_39
    3  A    between atoms: C_2  and  C_42
    4  A    between atoms: C_3  and  O_25
    5  A    between atoms: C_3  and  C_41
    6  A    between atoms: C_5  and  C_6
    7  A    between atoms: C_5  and  C_35
    8  A    between atoms: C_6  and  C_15
    9  A    between atoms: N_12  and  C_28
   10  A    between atoms: C_14  and  C_52
   11  A    between atoms: C_18  and  N_26
   12  A    between atoms: O_25  and  C_39
   13  A    between atoms: C_28  and  C_43
   14  A    between atoms: C_28  and  C_50
   15  A    between atoms: C_32  and  C_44
   16  A    between atoms: C_44  and  C_52
                            x       y       z     vdW  Elec       q    Type
                         _______ _______ _______ _____ _____    ______ ____

>  <TORSDO>
F 16

$$$$
=
 OpenBabel10222417473D

 52 58  0  0  1  0  0  0  0  0999 V2000
  193.1920  176.4420  138.2060 C   0  0  0  0  0  0  0  0  0  0  0  0
  191.8440  176.2070  138.0420 C   0  0  0  0  0  0  0  0  0  0  0  0
  191.2420  176.8350  139.1080 C   0  0  0  0  0  0  0  0  0  0  0  0
  193.3500  177.1900  139.3590 C   0  0  0  0  0  3  0  0  0  0  0  0
  192.1530  177.4040  139.8680 O   0  0  0  0  0  0  0  0  0  0  0  0
  194.8560  174.7190  137.3420 C   0  0  0  0  0  0  0  0  0  0  0  0
  194.5380  173.8560  138.2020 O   0  0  0  0  0  0  0  0  0  0  0  0
  194.2220  176.0030  137.3140 N   0  0  0  0  0  2  0  0  0  0  0  0
  195.8910  174.3910  136.3230 C   0  0  0  0  0  2  0  0  0  0  0  0
  197.6870  175.3820  137.4770 O   0  0  0  0  0  0  0  0  0  0  0  0
  197.2460  174.3720  136.9510 C   0  0  0  0  0  0  0  0  0  0  0  0
  197.1870  171.9800  137.3270 N   0  0  0  0  0  0  0  0  0  0  0  0
  198.9620  170.5110  136.6050 C   0  0  0  0  0  2  0  0  0  0  0  0
  196.7140  169.6290  137.5460 C   0  0  0  0  0  1  0  0  0  0  0  0
  197.6090  170.7690  137.2010 C   0  0  0  0  0  0  0  0  0  0  0  0
  198.0340  173.1000  136.9660 C   0  0  1  0  0  3  0  0  0  0  0  0
  198.7280  172.8670  135.6110 C   0  0  0  0  0  2  0  0  0  0  0  0
  199.1410  171.4000  135.3720 C   0  0  0  0  0  2  0  0  0  0  0  0
  191.0310  176.3850  135.7050 C   0  0  0  0  0  1  0  0  0  0  0  0
  191.1540  175.4870  136.9210 C   0  0  2  0  0  3  0  0  0  0  0  0
  189.7760  174.9980  137.3430 C   0  0  0  0  0  2  0  0  0  0  0  0
  183.1420  172.3180  136.8440 C   0  0  0  0  0  3  0  0  0  0  0  0
  181.6810  174.2270  137.1750 C   0  0  0  0  0  3  0  0  0  0  0  0
  188.5970  173.5730  135.5770 C   0  0  2  0  0  3  0  0  0  0  0  0
  188.8000  174.9980  136.1640 C   0  0  1  0  0  3  0  0  0  0  0  0
  187.2950  171.4780  136.0240 N   0  0  0  0  0  2  0  0  0  0  0  0
  184.0810  174.5450  137.1750 C   0  0  0  0  0  0  0  0  0  0  0  0
  186.0340  171.4420  136.2130 N   0  0  0  0  0  0  0  0  0  0  0  0
  187.8840  172.6850  136.6040 C   0  0  2  0  0  3  0  0  0  0  0  0
  187.5100  175.5830  136.5780 N   0  0  0  0  0  0  0  0  0  0  0  0
  184.2560  173.1560  136.9580 C   0  0  0  0  0  0  0  0  0  0  0  0
  182.7910  175.0710  137.2820 C   0  0  0  0  0  3  0  0  0  0  0  0
  186.5380  174.8610  137.0560 C   0  0  0  0  0  0  0  0  0  0  0  0
  185.6310  172.6280  136.8780 C   0  0  0  0  0  0  0  0  0  0  0  0
  186.6740  173.4010  137.0690 C   0  0  1  0  0  3  0  0  0  0  0  0
  181.8560  172.8550  136.9540 C   0  0  0  0  0  3  0  0  0  0  0  0
  189.9110  172.9530  135.1350 C   0  0  0  0  0  1  0  0  0  0  0  0
  185.2260  175.4160  137.2190 N   0  0  0  0  0  2  0  0  0  0  0  0
  189.7700  176.9010  139.3630 C   0  0  2  0  0  3  0  0  0  0  0  0
  187.9210  178.3930  138.3950 C   0  0  0  0  0  2  0  0  0  0  0  0
  189.2040  178.6190  137.6150 C   0  0  0  0  0  2  0  0  0  0  0  0
  189.2660  178.3320  139.1040 C   0  0  0  0  0  3  0  0  0  0  0  0
  189.4700  176.4000  140.7040 N   0  0  0  0  0  2  0  0  0  0  0  0
  189.3030  177.5560  141.5730 C   0  0  2  0  0  3  0  0  0  0  0  0
  190.0260  177.8600  143.8530 O   0  0  0  0  0  1  0  0  0  0  0  0
  190.4760  177.6910  142.5420 C   0  0  0  0  0  2  0  0  0  0  0  0
  187.9620  177.5010  142.2960 C   0  0  0  0  0  2  0  0  0  0  0  0
  187.0780  178.4530  141.7850 O   0  0  0  0  0  0  0  0  0  0  0  0
  185.8790  178.2150  142.4570 C   0  0  0  0  0  2  0  0  0  0  0  0
  184.9550  179.3770  140.4180 N   0  0  0  0  0  1  0  0  0  0  0  0
  183.6630  179.0750  142.3270 O   0  0  0  0  0  0  0  0  0  0  0  0
  184.7650  178.8980  141.7450 C   0  0  0  0  0  0  0  0  0  0  0  0
  1  4  2  0  0  0  0
  2  1  1  0  0  0  0
  2  3  2  0  0  0  0
  3 39  1  0  0  0  0
  3  5  1  0  0  0  0
  4  5  1  0  0  0  0
  6  7  2  0  0  0  0
  8  6  1  0  0  0  0
  8  1  1  0  0  0  0
  9 11  1  0  0  0  0
  9  6  1  0  0  0  0
 11 10  2  0  0  0  0
 13 15  1  0  0  0  0
 15 12  2  0  0  0  0
 15 14  1  0  0  0  0
 16 11  1  6  0  0  0
 16 12  1  0  0  0  0
 17 16  1  0  0  0  0
 18 17  1  0  0  0  0
 18 13  1  0  0  0  0
 20 19  1  6  0  0  0
 20 21  1  0  0  0  0
 20  2  1  0  0  0  0
 22 36  2  0  0  0  0
 22 31  1  0  0  0  0
 23 32  2  0  0  0  0
 24 37  1  1  0  0  0
 24 25  1  0  0  0  0
 24 29  1  0  0  0  0
 25 30  1  0  0  0  0
 25 21  1  1  0  0  0
 26 28  1  0  0  0  0
 27 38  1  0  0  0  0
 27 32  1  0  0  0  0
 28 34  2  0  0  0  0
 29 26  1  6  0  0  0
 29 35  1  0  0  0  0
 30 33  2  0  0  0  0
 31 27  2  0  0  0  0
 33 35  1  0  0  0  0
 33 38  1  0  0  0  0
 34 31  1  0  0  0  0
 35 34  1  6  0  0  0
 36 23  1  0  0  0  0
 39 43  1  1  0  0  0
 40 42  1  0  0  0  0
 41 40  1  0  0  0  0
 41 42  1  0  0  0  0
 42 39  1  0  0  0  0
 43 44  1  0  0  0  0
 44 47  1  1  0  0  0
 44 46  1  0  0  0  0
 46 45  1  0  0  0  0
 48 47  1  0  0  0  0
 48 49  1  0  0  0  0
 50 52  1  0  0  0  0
 52 51  2  0  0  0  0
 52 49  1  0  0  0  0
M  END
>  <MODEL>
9

>  <REMARK>
 VINA RESULT:      -5.9      3.857      9.207
  Name = 
  16 active torsions:
  status: ('A' for Active; 'I' for Inactive)
    1  A    between atoms: C_2  and  N_12
    2  A    between atoms: C_2  and  C_39
    3  A    between atoms: C_2  and  C_42
    4  A    between atoms: C_3  and  O_25
    5  A    between atoms: C_3  and  C_41
    6  A    between atoms: C_5  and  C_6
    7  A    between atoms: C_5  and  C_35
    8  A    between atoms: C_6  and  C_15
    9  A    between atoms: N_12  and  C_28
   10  A    between atoms: C_14  and  C_52
   11  A    between atoms: C_18  and  N_26
   12  A    between atoms: O_25  and  C_39
   13  A    between atoms: C_28  and  C_43
   14  A    between atoms: C_28  and  C_50
   15  A    between atoms: C_32  and  C_44
   16  A    between atoms: C_44  and  C_52
                            x       y       z     vdW  Elec       q    Type
                         _______ _______ _______ _____ _____    ______ ____

>  <TORSDO>
F 16

$$$$
