=
 OpenBabel10222420103D

 46 50  0  0  1  0  0  0  0  0999 V2000
  190.0900  176.7080  139.5160 C   0  0  0  0  0  0  0  0  0  0  0  0
  188.8420  177.1370  138.7870 C   0  0  0  0  0  2  0  0  0  0  0  0
  189.3190  177.8280  141.6130 C   0  0  0  0  0  2  0  0  0  0  0  0
  187.9240  177.8440  141.0000 C   0  0  2  0  0  3  0  0  0  0  0  0
  190.2600  176.9650  140.8220 C   0  0  0  0  0  2  0  0  0  0  0  0
  188.0500  178.2150  139.5280 C   0  0  0  0  0  2  0  0  0  0  0  0
  191.0390  175.9030  138.8070 N   0  0  0  0  0  0  0  0  0  0  0  0
  190.3130  174.1630  137.2820 C   0  0  0  0  0  2  0  0  0  0  0  0
  190.9010  175.5520  137.4010 C   0  0  2  0  0  3  0  0  0  0  0  0
  191.8000  174.3750  137.0880 C   0  0  2  0  0  3  0  0  0  0  0  0
  192.1060  174.3810  135.6680 N   0  0  0  0  0  2  0  0  0  0  0  0
  193.5050  174.3660  135.5490 N   0  0  0  0  0  0  0  0  0  0  0  0
  193.8790  175.6520  135.3310 O   0  0  0  0  0  1  0  0  0  0  0  0
  194.6940  172.5920  136.7600 C   0  0  0  0  0  2  0  0  0  0  0  0
  195.1760  174.8970  137.2720 C   0  0  0  0  0  2  0  0  0  0  0  0
  196.2140  174.0410  137.9860 C   0  0  1  0  0  0  0  0  0  0  0  0
  194.0530  173.9650  136.8450 C   0  0  1  0  0  3  0  0  0  0  0  0
  195.7740  172.5890  137.8190 C   0  0  0  0  0  2  0  0  0  0  0  0
  197.5600  174.2780  137.3530 C   0  0  0  0  0  0  0  0  0  0  0  0
  198.2690  173.3040  136.9740 O   0  0  0  0  0  0  0  0  0  0  0  0
  197.9940  175.5810  137.1150 O   0  0  0  0  0  0  0  0  0  0  0  0
  197.5030  176.2920  136.0910 O   0  0  0  0  0  1  0  0  0  0  0  0
  195.4930  175.5200  139.7590 O   0  0  0  0  0  1  0  0  0  0  0  0
  196.2700  174.3930  139.4730 C   0  0  0  0  0  2  0  0  0  0  0  0
  187.0710  178.8630  141.7310 C   0  0  0  0  0  2  0  0  0  0  0  0
  185.6950  178.9650  141.0840 C   0  0  0  0  0  2  0  0  0  0  0  0
  184.5600  178.7960  142.1030 C   0  0  1  0  0  3  0  0  0  0  0  0
  180.8420  178.0740  141.1550 C   0  0  0  0  0  2  0  0  0  0  0  0
  183.5840  177.7150  140.0470 C   0  0  0  0  0  2  0  0  0  0  0  0
  182.4740  176.8390  139.4910 C   0  0  0  0  0  2  0  0  0  0  0  0
  182.0410  178.8760  141.6490 C   0  0  2  0  0  3  0  0  0  0  0  0
  180.9410  177.8060  139.3570 S   0  0  0  0  0  0  0  0  0  0  0  0
  183.3370  178.0520  141.5220 C   0  0  2  0  0  3  0  0  0  0  0  0
  181.7980  179.2290  142.9640 F   0  0  0  0  0  0  0  0  0  0  0  0
  185.1040  178.1110  143.3560 C   0  0  0  0  0  2  0  0  0  0  0  0
  184.7030  178.8540  144.6290 C   0  0  0  0  0  2  0  0  0  0  0  0
  185.4680  178.4100  145.8800 C   0  0  2  0  0  3  0  0  0  0  0  0
  185.2240  179.2810  146.9410 O   0  0  0  0  0  1  0  0  0  0  0  0
  186.9700  178.2800  145.6440 C   0  0  0  0  0  2  0  0  0  0  0  0
  187.7000  177.7450  146.8770 C   0  0  0  0  0  2  0  0  0  0  0  0
  191.3040  176.3990  147.3090 C   0  0  0  0  0  2  0  0  0  0  0  0
  190.9560  176.8070  144.9960 C   0  0  0  0  0  2  0  0  0  0  0  0
  191.8680  177.0310  146.1170 N   0  0  0  0  0  2  0  0  0  0  0  0
  189.0100  177.0250  146.5510 C   0  0  0  0  0  3  0  0  0  0  0  0
  190.0080  177.0990  147.7070 C   0  0  0  0  0  2  0  0  0  0  0  0
  189.6310  177.5260  145.2450 C   0  0  0  0  0  2  0  0  0  0  0  0
  1  5  1  0  0  0  0
  2  1  1  0  0  0  0
  2  6  1  0  0  0  0
  4  3  1  0  0  0  0
  4 25  1  1  0  0  0
  5  3  1  0  0  0  0
  6  4  1  0  0  0  0
  7  1  2  0  0  0  0
  8  9  1  0  0  0  0
  9  7  1  1  0  0  0
 10 11  1  6  0  0  0
 10  8  1  0  0  0  0
 10  9  1  0  0  0  0
 12 11  1  0  0  0  0
 13 12  1  0  0  0  0
 14 17  1  0  0  0  0
 14 18  1  0  0  0  0
 15 16  1  0  0  0  0
 16 24  1  1  0  0  0
 17 12  1  6  0  0  0
 17 15  1  0  0  0  0
 18 16  1  0  0  0  0
 19 16  1  0  0  0  0
 20 19  2  0  0  0  0
 21 19  1  0  0  0  0
 22 21  1  0  0  0  0
 24 23  1  0  0  0  0
 26 25  1  0  0  0  0
 27 26  1  6  0  0  0
 27 35  1  0  0  0  0
 28 31  1  0  0  0  0
 29 33  1  0  0  0  0
 30 29  1  0  0  0  0
 31 34  1  1  0  0  0
 32 30  1  0  0  0  0
 32 28  1  0  0  0  0
 33 31  1  0  0  0  0
 33 27  1  6  0  0  0
 35 36  1  0  0  0  0
 36 37  1  0  0  0  0
 37 38  1  1  0  0  0
 39 37  1  0  0  0  0
 39 40  1  0  0  0  0
 41 45  1  0  0  0  0
 42 46  1  0  0  0  0
 42 43  1  0  0  0  0
 43 41  1  0  0  0  0
 44 40  1  0  0  0  0
 44 45  1  0  0  0  0
 46 44  1  0  0  0  0
M  END
>  <MODEL>
1

>  <REMARK>
 VINA RESULT:      -8.4      0.000      0.000
  Name = 
  18 active torsions:
  status: ('A' for Active; 'I' for Inactive)
    1  A    between atoms: N_1  and  N_11
    2  A    between atoms: N_1  and  C_33
    3  A    between atoms: C_3  and  N_44
    4  A    between atoms: N_11  and  C_20
    5  A    between atoms: C_12  and  C_21
    6  A    between atoms: C_12  and  C_30
    7  A    between atoms: C_14  and  C_23
    8  A    between atoms: C_14  and  C_29
    9  A    between atoms: C_14  and  C_32
   10  A    between atoms: O_17  and  C_21
   11  A    between atoms: C_18  and  N_44
   12  A    between atoms: C_19  and  C_23
   13  A    between atoms: C_19  and  C_27
   14  A    between atoms: C_27  and  C_28
   15  A    between atoms: C_28  and  C_42
   16  A    between atoms: C_29  and  C_37
   17  A    between atoms: C_31  and  C_37
   18  A    between atoms: C_40  and  C_42
                            x       y       z     vdW  Elec       q    Type
                         _______ _______ _______ _____ _____    ______ ____

>  <TORSDO>
F 18

$$$$
=
 OpenBabel10222420103D

 46 50  0  0  1  0  0  0  0  0999 V2000
  183.0590  178.7960  143.4190 C   0  0  0  0  0  0  0  0  0  0  0  0
  183.9410  178.8280  144.6410 C   0  0  0  0  0  2  0  0  0  0  0  0
  185.0370  178.4510  141.9300 C   0  0  0  0  0  2  0  0  0  0  0  0
  185.8090  178.0450  143.1790 C   0  0  2  0  0  3  0  0  0  0  0  0
  183.5620  178.5490  142.2000 C   0  0  0  0  0  3  0  0  0  0  0  0
  185.4260  178.9910  144.3110 C   0  0  0  0  0  2  0  0  0  0  0  0
  181.6440  178.9100  143.6090 N   0  0  0  0  0  2  0  0  0  0  0  0
  179.3050  179.1760  143.0230 C   0  0  0  0  0  2  0  0  0  0  0  0
  180.7360  179.4090  142.5860 C   0  0  2  0  0  3  0  0  0  0  0  0
  179.9490  178.2520  142.0090 C   0  0  2  0  0  3  0  0  0  0  0  0
  179.4980  178.6090  140.6750 N   0  0  0  0  0  2  0  0  0  0  0  0
  179.8070  177.5290  139.8330 N   0  0  0  0  0  0  0  0  0  0  0  0
  179.3880  177.8850  138.5930 O   0  0  0  0  0  1  0  0  0  0  0  0
  181.6830  175.9900  139.4580 C   0  0  0  0  0  2  0  0  0  0  0  0
  181.8420  178.2590  138.6620 C   0  0  0  0  0  2  0  0  0  0  0  0
  183.0210  177.4860  138.0860 C   0  0  1  0  0  0  0  0  0  0  0  0
  181.2650  177.4110  139.7850 C   0  0  1  0  0  3  0  0  0  0  0  0
  183.0190  176.1170  138.7600 C   0  0  0  0  0  2  0  0  0  0  0  0
  182.8400  177.3600  136.5960 C   0  0  0  0  0  0  0  0  0  0  0  0
  181.9690  178.0510  135.9970 O   0  0  0  0  0  0  0  0  0  0  0  0
  183.6870  176.5310  135.8630 O   0  0  0  0  0  0  0  0  0  0  0  0
  183.2950  175.3060  135.4880 O   0  0  0  0  0  1  0  0  0  0  0  0
  184.1120  179.5330  138.7750 O   0  0  0  0  0  1  0  0  0  0  0  0
  184.3350  178.2070  138.3900 C   0  0  0  0  0  2  0  0  0  0  0  0
  187.2960  178.1360  142.8960 C   0  0  0  0  0  2  0  0  0  0  0  0
  187.5790  177.8240  141.4310 C   0  0  0  0  0  2  0  0  0  0  0  0
  189.0520  177.4730  141.1850 C   0  0  1  0  0  3  0  0  0  0  0  0
  190.5450  176.9770  137.6120 C   0  0  0  0  0  2  0  0  0  0  0  0
  188.3830  178.5000  138.9840 C   0  0  0  0  0  2  0  0  0  0  0  0
  188.8610  179.0070  137.6340 C   0  0  0  0  0  2  0  0  0  0  0  0
  190.0000  176.5810  138.9800 C   0  0  2  0  0  3  0  0  0  0  0  0
  189.2110  177.5980  136.5400 S   0  0  0  0  0  0  0  0  0  0  0  0
  189.5220  177.8240  139.7560 C   0  0  2  0  0  3  0  0  0  0  0  0
  191.0070  175.9220  139.6600 F   0  0  0  0  0  0  0  0  0  0  0  0
  189.9160  178.1450  142.2510 C   0  0  0  0  0  2  0  0  0  0  0  0
  191.3040  177.5130  142.3390 C   0  0  0  0  0  2  0  0  0  0  0  0
  191.6880  177.0350  143.7430 C   0  0  2  0  0  3  0  0  0  0  0  0
  191.5020  175.6590  143.8630 O   0  0  0  0  0  1  0  0  0  0  0  0
  190.9280  177.7640  144.8470 C   0  0  0  0  0  2  0  0  0  0  0  0
  190.9350  176.9810  146.1610 C   0  0  0  0  0  2  0  0  0  0  0  0
  187.1320  177.3950  146.7660 C   0  0  0  0  0  2  0  0  0  0  0  0
  188.2530  177.9720  148.7790 C   0  0  0  0  0  2  0  0  0  0  0  0
  187.2350  178.4020  147.8210 N   0  0  0  0  0  2  0  0  0  0  0  0
  189.5950  177.0090  146.9000 C   0  0  0  0  0  3  0  0  0  0  0  0
  188.4310  177.3430  145.9670 C   0  0  0  0  0  2  0  0  0  0  0  0
  189.6270  177.9480  148.1090 C   0  0  0  0  0  2  0  0  0  0  0  0
  1  7  1  0  0  0  0
  1  2  1  0  0  0  0
  3  5  1  0  0  0  0
  3  4  1  0  0  0  0
  4 25  1  6  0  0  0
  4  6  1  0  0  0  0
  5  1  2  0  0  0  0
  6  2  1  0  0  0  0
  9  8  1  0  0  0  0
  9  7  1  1  0  0  0
 10 11  1  6  0  0  0
 10  9  1  0  0  0  0
 10  8  1  0  0  0  0
 12 11  1  0  0  0  0
 13 12  1  0  0  0  0
 14 17  1  0  0  0  0
 15 17  1  0  0  0  0
 16 24  1  1  0  0  0
 16 15  1  0  0  0  0
 16 18  1  0  0  0  0
 17 12  1  6  0  0  0
 18 14  1  0  0  0  0
 19 16  1  0  0  0  0
 20 19  2  0  0  0  0
 21 19  1  0  0  0  0
 22 21  1  0  0  0  0
 24 23  1  0  0  0  0
 26 25  1  0  0  0  0
 27 26  1  6  0  0  0
 27 35  1  0  0  0  0
 28 31  1  0  0  0  0
 29 33  1  0  0  0  0
 30 29  1  0  0  0  0
 31 34  1  1  0  0  0
 31 33  1  0  0  0  0
 32 28  1  0  0  0  0
 32 30  1  0  0  0  0
 33 27  1  1  0  0  0
 35 36  1  0  0  0  0
 36 37  1  0  0  0  0
 37 38  1  6  0  0  0
 37 39  1  0  0  0  0
 39 40  1  0  0  0  0
 40 44  1  0  0  0  0
 41 43  1  0  0  0  0
 43 42  1  0  0  0  0
 44 46  1  0  0  0  0
 45 41  1  0  0  0  0
 45 44  1  0  0  0  0
 46 42  1  0  0  0  0
M  END
>  <MODEL>
2

>  <REMARK>
 VINA RESULT:      -8.2      5.660      9.853
  Name = 
  18 active torsions:
  status: ('A' for Active; 'I' for Inactive)
    1  A    between atoms: N_1  and  N_11
    2  A    between atoms: N_1  and  C_33
    3  A    between atoms: C_3  and  N_44
    4  A    between atoms: N_11  and  C_20
    5  A    between atoms: C_12  and  C_21
    6  A    between atoms: C_12  and  C_30
    7  A    between atoms: C_14  and  C_23
    8  A    between atoms: C_14  and  C_29
    9  A    between atoms: C_14  and  C_32
   10  A    between atoms: O_17  and  C_21
   11  A    between atoms: C_18  and  N_44
   12  A    between atoms: C_19  and  C_23
   13  A    between atoms: C_19  and  C_27
   14  A    between atoms: C_27  and  C_28
   15  A    between atoms: C_28  and  C_42
   16  A    between atoms: C_29  and  C_37
   17  A    between atoms: C_31  and  C_37
   18  A    between atoms: C_40  and  C_42
                            x       y       z     vdW  Elec       q    Type
                         _______ _______ _______ _____ _____    ______ ____

>  <TORSDO>
F 18

$$$$
=
 OpenBabel10222420103D

 46 50  0  0  1  0  0  0  0  0999 V2000
  188.2550  177.5650  144.9670 C   0  0  0  0  0  0  0  0  0  0  0  0
  187.8730  176.9010  143.6690 C   0  0  0  0  0  2  0  0  0  0  0  0
  190.5840  177.9550  144.1480 C   0  0  0  0  0  2  0  0  0  0  0  0
  190.0500  177.7050  142.7430 C   0  0  2  0  0  3  0  0  0  0  0  0
  189.4700  178.1070  145.1440 C   0  0  0  0  0  3  0  0  0  0  0  0
  189.0770  176.5330  142.8000 C   0  0  0  0  0  2  0  0  0  0  0  0
  187.2420  177.7160  145.9680 N   0  0  0  0  0  2  0  0  0  0  0  0
  185.1930  178.4930  147.0080 C   0  0  0  0  0  2  0  0  0  0  0  0
  186.2120  178.7430  145.9160 C   0  0  2  0  0  3  0  0  0  0  0  0
  184.8830  178.1020  145.5770 C   0  0  2  0  0  3  0  0  0  0  0  0
  184.0160  179.1020  144.9790 N   0  0  0  0  0  2  0  0  0  0  0  0
  183.2630  178.4540  143.9870 N   0  0  0  0  0  0  0  0  0  0  0  0
  181.9720  178.8100  144.2010 O   0  0  0  0  0  1  0  0  0  0  0  0
  184.9110  178.3300  142.1720 C   0  0  0  0  0  2  0  0  0  0  0  0
  182.6000  178.7540  141.6380 C   0  0  0  0  0  2  0  0  0  0  0  0
  183.3330  178.4930  140.3290 C   0  0  1  0  0  0  0  0  0  0  0  0
  183.6620  179.0140  142.6950 C   0  0  1  0  0  3  0  0  0  0  0  0
  184.8210  178.4310  140.6650 C   0  0  0  0  0  2  0  0  0  0  0  0
  182.8500  177.1880  139.7520 C   0  0  0  0  0  0  0  0  0  0  0  0
  181.7130  176.7340  140.0620 O   0  0  0  0  0  0  0  0  0  0  0  0
  183.6300  176.5150  138.8140 O   0  0  0  0  0  0  0  0  0  0  0  0
  183.1920  175.3860  138.2400 O   0  0  0  0  0  1  0  0  0  0  0  0
  184.2540  180.3250  139.0460 O   0  0  0  0  0  1  0  0  0  0  0  0
  183.0770  179.6270  139.3360 C   0  0  0  0  0  2  0  0  0  0  0  0
  191.2080  177.3840  141.8190 C   0  0  0  0  0  2  0  0  0  0  0  0
  190.7460  176.4820  140.6800 C   0  0  0  0  0  2  0  0  0  0  0  0
  190.7250  177.2140  139.3320 C   0  0  1  0  0  3  0  0  0  0  0  0
  193.8190  175.6180  137.5650 C   0  0  0  0  0  2  0  0  0  0  0  0
  190.8930  175.1570  137.8850 C   0  0  0  0  0  2  0  0  0  0  0  0
  191.5890  174.5020  136.7040 C   0  0  0  0  0  2  0  0  0  0  0  0
  193.0070  176.2420  138.6940 C   0  0  2  0  0  3  0  0  0  0  0  0
  193.2390  173.9300  137.2080 S   0  0  0  0  0  0  0  0  0  0  0  0
  191.5530  176.4930  138.2450 C   0  0  2  0  0  3  0  0  0  0  0  0
  193.6290  177.4210  139.0600 F   0  0  0  0  0  0  0  0  0  0  0  0
  189.2760  177.4290  138.8970 C   0  0  0  0  0  2  0  0  0  0  0  0
  189.0020  178.8880  138.5370 C   0  0  0  0  0  2  0  0  0  0  0  0
  188.6850  179.1190  137.0550 C   0  0  2  0  0  3  0  0  0  0  0  0
  187.3820  179.5880  136.8980 O   0  0  0  0  0  1  0  0  0  0  0  0
  188.9010  177.8750  136.2000 C   0  0  0  0  0  2  0  0  0  0  0  0
  187.6420  177.4890  135.4210 C   0  0  0  0  0  2  0  0  0  0  0  0
  186.4130  174.2330  137.1180 C   0  0  0  0  0  2  0  0  0  0  0  0
  187.9250  173.6240  135.3900 C   0  0  0  0  0  2  0  0  0  0  0  0
  187.5860  173.4190  136.7980 N   0  0  0  0  0  2  0  0  0  0  0  0
  187.2420  176.0220  135.5860 C   0  0  0  0  0  3  0  0  0  0  0  0
  186.7600  175.7150  137.0040 C   0  0  0  0  0  2  0  0  0  0  0  0
  188.3630  175.0690  135.1600 C   0  0  0  0  0  2  0  0  0  0  0  0
  1  5  2  0  0  0  0
  1  7  1  0  0  0  0
  2  1  1  0  0  0  0
  3  5  1  0  0  0  0
  4 25  1  6  0  0  0
  4  6  1  0  0  0  0
  4  3  1  0  0  0  0
  6  2  1  0  0  0  0
  9  7  1  1  0  0  0
  9  8  1  0  0  0  0
 10 11  1  6  0  0  0
 10  9  1  0  0  0  0
 10  8  1  0  0  0  0
 12 13  1  0  0  0  0
 12 11  1  0  0  0  0
 14 17  1  0  0  0  0
 15 17  1  0  0  0  0
 16 24  1  6  0  0  0
 16 18  1  0  0  0  0
 16 15  1  0  0  0  0
 17 12  1  1  0  0  0
 18 14  1  0  0  0  0
 19 20  2  0  0  0  0
 19 16  1  0  0  0  0
 21 19  1  0  0  0  0
 22 21  1  0  0  0  0
 23 24  1  0  0  0  0
 26 25  1  0  0  0  0
 27 35  1  6  0  0  0
 27 26  1  0  0  0  0
 28 31  1  0  0  0  0
 29 33  1  0  0  0  0
 30 32  1  0  0  0  0
 30 29  1  0  0  0  0
 31 34  1  6  0  0  0
 32 28  1  0  0  0  0
 33 31  1  0  0  0  0
 33 27  1  1  0  0  0
 36 35  1  0  0  0  0
 37 38  1  1  0  0  0
 37 36  1  0  0  0  0
 39 37  1  0  0  0  0
 40 44  1  0  0  0  0
 40 39  1  0  0  0  0
 42 43  1  0  0  0  0
 43 41  1  0  0  0  0
 44 45  1  0  0  0  0
 45 41  1  0  0  0  0
 46 42  1  0  0  0  0
 46 44  1  0  0  0  0
M  END
>  <MODEL>
3

>  <REMARK>
 VINA RESULT:      -8.1      4.952     10.986
  Name = 
  18 active torsions:
  status: ('A' for Active; 'I' for Inactive)
    1  A    between atoms: N_1  and  N_11
    2  A    between atoms: N_1  and  C_33
    3  A    between atoms: C_3  and  N_44
    4  A    between atoms: N_11  and  C_20
    5  A    between atoms: C_12  and  C_21
    6  A    between atoms: C_12  and  C_30
    7  A    between atoms: C_14  and  C_23
    8  A    between atoms: C_14  and  C_29
    9  A    between atoms: C_14  and  C_32
   10  A    between atoms: O_17  and  C_21
   11  A    between atoms: C_18  and  N_44
   12  A    between atoms: C_19  and  C_23
   13  A    between atoms: C_19  and  C_27
   14  A    between atoms: C_27  and  C_28
   15  A    between atoms: C_28  and  C_42
   16  A    between atoms: C_29  and  C_37
   17  A    between atoms: C_31  and  C_37
   18  A    between atoms: C_40  and  C_42
                            x       y       z     vdW  Elec       q    Type
                         _______ _______ _______ _____ _____    ______ ____

>  <TORSDO>
F 18

$$$$
=
 OpenBabel10222420103D

 46 50  0  0  1  0  0  0  0  0999 V2000
  188.2510  178.1830  138.4310 C   0  0  0  0  0  0  0  0  0  0  0  0
  186.7520  178.0310  138.4930 C   0  0  0  0  0  2  0  0  0  0  0  0
  188.3470  178.7940  140.8530 C   0  0  0  0  0  2  0  0  0  0  0  0
  186.9480  178.2040  140.9780 C   0  0  2  0  0  3  0  0  0  0  0  0
  188.9720  178.4570  139.5290 C   0  0  0  0  0  3  0  0  0  0  0  0
  186.1360  178.6290  139.7600 C   0  0  0  0  0  2  0  0  0  0  0  0
  188.9040  177.9010  137.1880 N   0  0  0  0  0  2  0  0  0  0  0  0
  189.0400  175.4800  137.2540 C   0  0  0  0  0  2  0  0  0  0  0  0
  189.7940  176.7660  136.9900 C   0  0  2  0  0  3  0  0  0  0  0  0
  189.9770  176.0390  138.3060 C   0  0  2  0  0  3  0  0  0  0  0  0
  191.2330  175.3100  138.2700 N   0  0  0  0  0  2  0  0  0  0  0  0
  192.1860  176.1620  137.6900 N   0  0  0  0  0  0  0  0  0  0  0  0
  192.9390  176.6390  138.7130 O   0  0  0  0  0  1  0  0  0  0  0  0
  194.1530  176.1810  136.2200 C   0  0  0  0  0  2  0  0  0  0  0  0
  193.7950  174.3030  137.6860 C   0  0  0  0  0  2  0  0  0  0  0  0
  195.1870  174.1580  137.0860 C   0  0  1  0  0  0  0  0  0  0  0  0
  193.0600  175.3400  136.8520 C   0  0  1  0  0  3  0  0  0  0  0  0
  195.3150  175.2360  136.0130 C   0  0  0  0  0  2  0  0  0  0  0  0
  196.2090  174.3500  138.1760 C   0  0  0  0  0  0  0  0  0  0  0  0
  196.0200  173.8600  139.3240 O   0  0  0  0  0  0  0  0  0  0  0  0
  197.4060  175.0080  137.8950 O   0  0  0  0  0  0  0  0  0  0  0  0
  198.1200  175.5820  138.8720 O   0  0  0  0  0  1  0  0  0  0  0  0
  194.5030  171.8380  137.0370 O   0  0  0  0  0  1  0  0  0  0  0  0
  195.3570  172.7780  136.4510 C   0  0  0  0  0  2  0  0  0  0  0  0
  186.3020  178.7210  142.2480 C   0  0  0  0  0  2  0  0  0  0  0  0
  184.8750  178.1980  142.3700 C   0  0  0  0  0  2  0  0  0  0  0  0
  184.0290  179.0370  143.3370 C   0  0  1  0  0  3  0  0  0  0  0  0
  180.9250  178.8950  140.9730 C   0  0  0  0  0  2  0  0  0  0  0  0
  181.6060  178.5810  143.8560 C   0  0  0  0  0  2  0  0  0  0  0  0
  180.1610  178.8890  143.4980 C   0  0  0  0  0  2  0  0  0  0  0  0
  182.3420  178.6110  141.4570 C   0  0  2  0  0  3  0  0  0  0  0  0
  179.7050  177.9960  141.9810 S   0  0  0  0  0  0  0  0  0  0  0  0
  182.5730  179.2210  142.8540 C   0  0  2  0  0  3  0  0  0  0  0  0
  183.2190  179.1390  140.5290 F   0  0  0  0  0  0  0  0  0  0  0  0
  184.0940  178.4180  144.7320 C   0  0  0  0  0  2  0  0  0  0  0  0
  185.2140  179.0280  145.5720 C   0  0  0  0  0  2  0  0  0  0  0  0
  186.1330  177.9960  146.2360 C   0  0  2  0  0  3  0  0  0  0  0  0
  186.7600  178.5430  147.3540 O   0  0  0  0  0  1  0  0  0  0  0  0
  187.1730  177.4250  145.2780 C   0  0  0  0  0  2  0  0  0  0  0  0
  188.5940  177.8460  145.6580 C   0  0  0  0  0  2  0  0  0  0  0  0
  191.6260  177.6750  143.2550 C   0  0  0  0  0  2  0  0  0  0  0  0
  190.1970  175.8460  142.7500 C   0  0  0  0  0  2  0  0  0  0  0  0
  190.9480  176.9610  142.1740 N   0  0  0  0  0  2  0  0  0  0  0  0
  189.6740  177.2500  144.7530 C   0  0  0  0  0  3  0  0  0  0  0  0
  190.5970  178.3240  144.1770 C   0  0  0  0  0  2  0  0  0  0  0  0
  189.0790  176.3750  143.6470 C   0  0  0  0  0  2  0  0  0  0  0  0
  1  2  1  0  0  0  0
  1  5  2  0  0  0  0
  2  6  1  0  0  0  0
  3  4  1  0  0  0  0
  4 25  1  1  0  0  0
  5  3  1  0  0  0  0
  6  4  1  0  0  0  0
  7  1  1  0  0  0  0
  8 10  1  0  0  0  0
  9  7  1  1  0  0  0
  9  8  1  0  0  0  0
  9 10  1  0  0  0  0
 10 11  1  6  0  0  0
 12 11  1  0  0  0  0
 12 13  1  0  0  0  0
 14 17  1  0  0  0  0
 16 24  1  6  0  0  0
 16 15  1  0  0  0  0
 16 19  1  0  0  0  0
 17 15  1  0  0  0  0
 17 12  1  1  0  0  0
 18 14  1  0  0  0  0
 18 16  1  0  0  0  0
 19 20  2  0  0  0  0
 21 19  1  0  0  0  0
 21 22  1  0  0  0  0
 24 23  1  0  0  0  0
 25 26  1  0  0  0  0
 27 26  1  6  0  0  0
 27 35  1  0  0  0  0
 28 31  1  0  0  0  0
 28 32  1  0  0  0  0
 30 29  1  0  0  0  0
 31 34  1  6  0  0  0
 31 33  1  0  0  0  0
 32 30  1  0  0  0  0
 33 27  1  1  0  0  0
 33 29  1  0  0  0  0
 35 36  1  0  0  0  0
 36 37  1  0  0  0  0
 37 38  1  1  0  0  0
 39 40  1  0  0  0  0
 39 37  1  0  0  0  0
 41 45  1  0  0  0  0
 42 46  1  0  0  0  0
 43 42  1  0  0  0  0
 43 41  1  0  0  0  0
 44 40  1  0  0  0  0
 45 44  1  0  0  0  0
 46 44  1  0  0  0  0
M  END
>  <MODEL>
4

>  <REMARK>
 VINA RESULT:      -8.0      1.820      2.622
  Name = 
  18 active torsions:
  status: ('A' for Active; 'I' for Inactive)
    1  A    between atoms: N_1  and  N_11
    2  A    between atoms: N_1  and  C_33
    3  A    between atoms: C_3  and  N_44
    4  A    between atoms: N_11  and  C_20
    5  A    between atoms: C_12  and  C_21
    6  A    between atoms: C_12  and  C_30
    7  A    between atoms: C_14  and  C_23
    8  A    between atoms: C_14  and  C_29
    9  A    between atoms: C_14  and  C_32
   10  A    between atoms: O_17  and  C_21
   11  A    between atoms: C_18  and  N_44
   12  A    between atoms: C_19  and  C_23
   13  A    between atoms: C_19  and  C_27
   14  A    between atoms: C_27  and  C_28
   15  A    between atoms: C_28  and  C_42
   16  A    between atoms: C_29  and  C_37
   17  A    between atoms: C_31  and  C_37
   18  A    between atoms: C_40  and  C_42
                            x       y       z     vdW  Elec       q    Type
                         _______ _______ _______ _____ _____    ______ ____

>  <TORSDO>
F 18

$$$$
=
 OpenBabel10222420103D

 46 50  0  0  1  0  0  0  0  0999 V2000
  184.5620  178.8940  142.9270 C   0  0  0  0  0  0  0  0  0  0  0  0
  183.1440  178.7170  142.4470 C   0  0  0  0  0  2  0  0  0  0  0  0
  185.4130  178.9220  140.5760 C   0  0  0  0  0  2  0  0  0  0  0  0
  183.9790  179.1950  140.1420 C   0  0  2  0  0  3  0  0  0  0  0  0
  185.5760  179.0610  142.0640 C   0  0  0  0  0  3  0  0  0  0  0  0
  183.0490  178.3190  140.9730 C   0  0  0  0  0  2  0  0  0  0  0  0
  184.7860  179.0080  144.3370 N   0  0  0  0  0  2  0  0  0  0  0  0
  185.2660  178.3030  146.6080 C   0  0  0  0  0  2  0  0  0  0  0  0
  185.3900  177.9550  145.1400 C   0  0  2  0  0  3  0  0  0  0  0  0
  186.5810  178.5170  145.8870 C   0  0  2  0  0  3  0  0  0  0  0  0
  187.4910  177.4310  146.2080 N   0  0  0  0  0  2  0  0  0  0  0  0
  188.4550  177.9480  147.0880 N   0  0  0  0  0  0  0  0  0  0  0  0
  188.5900  177.0320  148.0800 O   0  0  0  0  0  1  0  0  0  0  0  0
  190.5130  176.7180  146.5600 C   0  0  0  0  0  2  0  0  0  0  0  0
  189.4960  178.0970  144.8650 C   0  0  0  0  0  2  0  0  0  0  0  0
  190.5950  177.2820  144.1960 C   0  0  1  0  0  0  0  0  0  0  0  0
  189.7270  178.0010  146.3650 C   0  0  1  0  0  3  0  0  0  0  0  0
  191.3570  176.5730  145.3130 C   0  0  0  0  0  2  0  0  0  0  0  0
  189.9610  176.2900  143.2550 C   0  0  0  0  0  0  0  0  0  0  0  0
  190.5590  175.2180  142.9580 O   0  0  0  0  0  0  0  0  0  0  0  0
  188.6760  176.5210  142.7680 O   0  0  0  0  0  0  0  0  0  0  0  0
  187.6270  175.8390  143.2470 O   0  0  0  0  0  1  0  0  0  0  0  0
  191.9540  179.2830  144.2030 O   0  0  0  0  0  1  0  0  0  0  0  0
  191.5470  178.1960  143.4240 C   0  0  0  0  0  2  0  0  0  0  0  0
  183.8340  178.8680  138.6690 C   0  0  0  0  0  2  0  0  0  0  0  0
  182.5170  178.1450  138.4110 C   0  0  0  0  0  2  0  0  0  0  0  0
  182.7000  176.8950  137.5400 C   0  0  1  0  0  3  0  0  0  0  0  0
  180.5460  173.6430  137.6930 C   0  0  0  0  0  2  0  0  0  0  0  0
  180.4200  176.4980  138.5350 C   0  0  0  0  0  2  0  0  0  0  0  0
  179.1110  175.7340  138.4200 C   0  0  0  0  0  2  0  0  0  0  0  0
  181.7870  174.5190  137.8200 C   0  0  2  0  0  3  0  0  0  0  0  0
  179.3460  174.0290  139.0060 S   0  0  0  0  0  0  0  0  0  0  0  0
  181.4470  175.9920  137.5170 C   0  0  2  0  0  3  0  0  0  0  0  0
  182.7370  174.0330  136.9410 F   0  0  0  0  0  0  0  0  0  0  0  0
  183.1270  177.3160  136.1350 C   0  0  0  0  0  2  0  0  0  0  0  0
  184.3370  176.5220  135.6480 C   0  0  0  0  0  2  0  0  0  0  0  0
  185.6760  177.2480  135.8200 C   0  0  2  0  0  3  0  0  0  0  0  0
  186.4940  177.0430  134.7110 O   0  0  0  0  0  1  0  0  0  0  0  0
  186.4090  176.8450  137.0960 C   0  0  0  0  0  2  0  0  0  0  0  0
  187.2130  178.0060  137.6850 C   0  0  0  0  0  2  0  0  0  0  0  0
  190.4050  175.8590  138.1290 C   0  0  0  0  0  2  0  0  0  0  0  0
  190.4350  177.5540  139.7920 C   0  0  0  0  0  2  0  0  0  0  0  0
  190.5900  176.1190  139.5560 N   0  0  0  0  0  2  0  0  0  0  0  0
  188.6570  177.6390  138.0350 C   0  0  0  0  0  3  0  0  0  0  0  0
  188.9680  176.1750  137.7230 C   0  0  0  0  0  2  0  0  0  0  0  0
  189.0010  177.9850  139.4860 C   0  0  0  0  0  2  0  0  0  0  0  0
  1  7  1  0  0  0  0
  2  1  1  0  0  0  0
  3  5  1  0  0  0  0
  4 25  1  6  0  0  0
  4  3  1  0  0  0  0
  4  6  1  0  0  0  0
  5  1  2  0  0  0  0
  6  2  1  0  0  0  0
  9  7  1  6  0  0  0
  9 10  1  0  0  0  0
  9  8  1  0  0  0  0
 10 11  1  1  0  0  0
 10  8  1  0  0  0  0
 11 12  1  0  0  0  0
 12 13  1  0  0  0  0
 15 17  1  0  0  0  0
 16 24  1  6  0  0  0
 16 15  1  0  0  0  0
 16 18  1  0  0  0  0
 17 14  1  0  0  0  0
 17 12  1  1  0  0  0
 18 14  1  0  0  0  0
 19 16  1  0  0  0  0
 20 19  2  0  0  0  0
 21 22  1  0  0  0  0
 21 19  1  0  0  0  0
 24 23  1  0  0  0  0
 26 25  1  0  0  0  0
 27 35  1  6  0  0  0
 27 26  1  0  0  0  0
 28 31  1  0  0  0  0
 28 32  1  0  0  0  0
 30 29  1  0  0  0  0
 30 32  1  0  0  0  0
 31 34  1  6  0  0  0
 33 27  1  1  0  0  0
 33 31  1  0  0  0  0
 33 29  1  0  0  0  0
 36 37  1  0  0  0  0
 36 35  1  0  0  0  0
 37 38  1  6  0  0  0
 37 39  1  0  0  0  0
 39 40  1  0  0  0  0
 40 44  1  0  0  0  0
 41 43  1  0  0  0  0
 43 42  1  0  0  0  0
 44 46  1  0  0  0  0
 45 44  1  0  0  0  0
 45 41  1  0  0  0  0
 46 42  1  0  0  0  0
M  END
>  <MODEL>
5

>  <REMARK>
 VINA RESULT:      -7.9      4.246      8.600
  Name = 
  18 active torsions:
  status: ('A' for Active; 'I' for Inactive)
    1  A    between atoms: N_1  and  N_11
    2  A    between atoms: N_1  and  C_33
    3  A    between atoms: C_3  and  N_44
    4  A    between atoms: N_11  and  C_20
    5  A    between atoms: C_12  and  C_21
    6  A    between atoms: C_12  and  C_30
    7  A    between atoms: C_14  and  C_23
    8  A    between atoms: C_14  and  C_29
    9  A    between atoms: C_14  and  C_32
   10  A    between atoms: O_17  and  C_21
   11  A    between atoms: C_18  and  N_44
   12  A    between atoms: C_19  and  C_23
   13  A    between atoms: C_19  and  C_27
   14  A    between atoms: C_27  and  C_28
   15  A    between atoms: C_28  and  C_42
   16  A    between atoms: C_29  and  C_37
   17  A    between atoms: C_31  and  C_37
   18  A    between atoms: C_40  and  C_42
                            x       y       z     vdW  Elec       q    Type
                         _______ _______ _______ _____ _____    ______ ____

>  <TORSDO>
F 18

$$$$
=
 OpenBabel10222420103D

 46 50  0  0  1  0  0  0  0  0999 V2000
  184.8280  178.7940  142.5900 C   0  0  0  0  0  0  0  0  0  0  0  0
  183.4010  178.4660  142.2320 C   0  0  0  0  0  2  0  0  0  0  0  0
  185.5000  178.7590  140.1830 C   0  0  0  0  0  2  0  0  0  0  0  0
  184.0190  178.8800  139.8470 C   0  0  2  0  0  3  0  0  0  0  0  0
  185.7570  178.9980  141.6440 C   0  0  0  0  0  3  0  0  0  0  0  0
  183.2360  177.9760  140.7920 C   0  0  0  0  0  2  0  0  0  0  0  0
  185.1420  179.0090  143.9710 N   0  0  0  0  0  2  0  0  0  0  0  0
  185.1540  178.2350  146.2700 C   0  0  0  0  0  2  0  0  0  0  0  0
  185.6200  177.9570  144.8570 C   0  0  2  0  0  3  0  0  0  0  0  0
  186.5790  178.5520  145.8660 C   0  0  2  0  0  3  0  0  0  0  0  0
  187.4620  177.5050  146.3500 N   0  0  0  0  0  2  0  0  0  0  0  0
  188.3870  178.1130  147.2140 N   0  0  0  0  0  0  0  0  0  0  0  0
  188.4380  177.3310  148.3210 O   0  0  0  0  0  1  0  0  0  0  0  0
  190.3070  176.6630  146.7230 C   0  0  0  0  0  2  0  0  0  0  0  0
  189.5820  178.2590  145.0690 C   0  0  0  0  0  2  0  0  0  0  0  0
  190.6120  177.3520  144.4110 C   0  0  1  0  0  0  0  0  0  0  0  0
  189.7000  178.0450  146.5710 C   0  0  1  0  0  3  0  0  0  0  0  0
  191.2070  176.4870  145.5200 C   0  0  0  0  0  2  0  0  0  0  0  0
  189.9240  176.5070  143.3710 C   0  0  0  0  0  0  0  0  0  0  0  0
  190.5180  175.5210  142.8530 O   0  0  0  0  0  0  0  0  0  0  0  0
  188.5970  176.7700  143.0320 O   0  0  0  0  0  0  0  0  0  0  0  0
  187.6440  175.8480  143.2250 O   0  0  0  0  0  1  0  0  0  0  0  0
  192.3300  179.0330  144.6830 O   0  0  0  0  0  1  0  0  0  0  0  0
  191.7180  178.1810  143.7580 C   0  0  0  0  0  2  0  0  0  0  0  0
  183.7990  178.4560  138.4080 C   0  0  0  0  0  2  0  0  0  0  0  0
  183.7260  176.9370  138.3060 C   0  0  0  0  0  2  0  0  0  0  0  0
  184.8260  176.3620  137.4040 C   0  0  1  0  0  3  0  0  0  0  0  0
  184.2580  172.5560  136.7390 C   0  0  0  0  0  2  0  0  0  0  0  0
  182.9070  175.1730  136.2840 C   0  0  0  0  0  2  0  0  0  0  0  0
  182.4870  173.9980  135.4170 C   0  0  0  0  0  2  0  0  0  0  0  0
  184.6100  173.8120  137.5280 C   0  0  2  0  0  3  0  0  0  0  0  0
  182.4680  172.4780  136.4150 S   0  0  0  0  0  0  0  0  0  0  0  0
  184.3870  175.0750  136.6710 C   0  0  2  0  0  3  0  0  0  0  0  0
  185.9300  173.7040  137.9260 F   0  0  0  0  0  0  0  0  0  0  0  0
  185.2980  177.4410  136.4320 C   0  0  0  0  0  2  0  0  0  0  0  0
  186.8050  177.3720  136.1950 C   0  0  0  0  0  2  0  0  0  0  0  0
  187.6490  177.8180  137.3950 C   0  0  2  0  0  3  0  0  0  0  0  0
  188.4370  178.9170  137.0600 O   0  0  0  0  0  1  0  0  0  0  0  0
  188.5200  176.6990  137.9560 C   0  0  0  0  0  2  0  0  0  0  0  0
  189.2210  177.1140  139.2510 C   0  0  0  0  0  2  0  0  0  0  0  0
  192.9670  177.1170  140.2280 C   0  0  0  0  0  2  0  0  0  0  0  0
  192.7800  176.1180  138.0820 C   0  0  0  0  0  2  0  0  0  0  0  0
  193.5000  177.1200  138.8660 N   0  0  0  0  0  2  0  0  0  0  0  0
  190.6820  176.6680  139.3290 C   0  0  0  0  0  3  0  0  0  0  0  0
  191.5160  177.5880  140.2210 C   0  0  0  0  0  2  0  0  0  0  0  0
  191.3120  176.5180  137.9420 C   0  0  0  0  0  2  0  0  0  0  0  0
  1  7  1  0  0  0  0
  2  1  1  0  0  0  0
  3  5  1  0  0  0  0
  4 25  1  6  0  0  0
  4  3  1  0  0  0  0
  4  6  1  0  0  0  0
  5  1  2  0  0  0  0
  6  2  1  0  0  0  0
  9  7  1  6  0  0  0
  9 10  1  0  0  0  0
  9  8  1  0  0  0  0
 10  8  1  0  0  0  0
 10 11  1  1  0  0  0
 11 12  1  0  0  0  0
 12 13  1  0  0  0  0
 15 17  1  0  0  0  0
 16 24  1  6  0  0  0
 16 15  1  0  0  0  0
 16 18  1  0  0  0  0
 17 14  1  0  0  0  0
 17 12  1  1  0  0  0
 18 14  1  0  0  0  0
 19 16  1  0  0  0  0
 20 19  2  0  0  0  0
 21 22  1  0  0  0  0
 21 19  1  0  0  0  0
 24 23  1  0  0  0  0
 26 25  1  0  0  0  0
 27 35  1  6  0  0  0
 27 26  1  0  0  0  0
 28 31  1  0  0  0  0
 29 33  1  0  0  0  0
 30 29  1  0  0  0  0
 30 32  1  0  0  0  0
 31 34  1  6  0  0  0
 32 28  1  0  0  0  0
 33 27  1  1  0  0  0
 33 31  1  0  0  0  0
 36 35  1  0  0  0  0
 36 37  1  0  0  0  0
 37 38  1  6  0  0  0
 37 39  1  0  0  0  0
 39 40  1  0  0  0  0
 40 44  1  0  0  0  0
 42 43  1  0  0  0  0
 43 41  1  0  0  0  0
 44 45  1  0  0  0  0
 45 41  1  0  0  0  0
 46 42  1  0  0  0  0
 46 44  1  0  0  0  0
M  END
>  <MODEL>
6

>  <REMARK>
 VINA RESULT:      -7.8      3.944      8.539
  Name = 
  18 active torsions:
  status: ('A' for Active; 'I' for Inactive)
    1  A    between atoms: N_1  and  N_11
    2  A    between atoms: N_1  and  C_33
    3  A    between atoms: C_3  and  N_44
    4  A    between atoms: N_11  and  C_20
    5  A    between atoms: C_12  and  C_21
    6  A    between atoms: C_12  and  C_30
    7  A    between atoms: C_14  and  C_23
    8  A    between atoms: C_14  and  C_29
    9  A    between atoms: C_14  and  C_32
   10  A    between atoms: O_17  and  C_21
   11  A    between atoms: C_18  and  N_44
   12  A    between atoms: C_19  and  C_23
   13  A    between atoms: C_19  and  C_27
   14  A    between atoms: C_27  and  C_28
   15  A    between atoms: C_28  and  C_42
   16  A    between atoms: C_29  and  C_37
   17  A    between atoms: C_31  and  C_37
   18  A    between atoms: C_40  and  C_42
                            x       y       z     vdW  Elec       q    Type
                         _______ _______ _______ _____ _____    ______ ____

>  <TORSDO>
F 18

$$$$
=
 OpenBabel10222420103D

 46 50  0  0  1  0  0  0  0  0999 V2000
  184.5570  178.9590  143.0870 C   0  0  0  0  0  0  0  0  0  0  0  0
  183.1970  178.6620  142.5100 C   0  0  0  0  0  2  0  0  0  0  0  0
  185.5810  178.9910  140.8070 C   0  0  0  0  0  2  0  0  0  0  0  0
  184.1670  179.1430  140.2590 C   0  0  2  0  0  3  0  0  0  0  0  0
  185.6190  179.1810  142.2970 C   0  0  0  0  0  3  0  0  0  0  0  0
  183.2440  178.2210  141.0450 C   0  0  0  0  0  2  0  0  0  0  0  0
  184.6630  179.1260  144.5050 N   0  0  0  0  0  2  0  0  0  0  0  0
  184.8310  178.4470  146.8280 C   0  0  0  0  0  2  0  0  0  0  0  0
  185.1780  178.0960  145.3970 C   0  0  2  0  0  3  0  0  0  0  0  0
  186.2300  178.6990  146.3030 C   0  0  2  0  0  3  0  0  0  0  0  0
  187.1160  177.6430  146.7620 N   0  0  0  0  0  2  0  0  0  0  0  0
  188.4070  177.9640  146.3110 N   0  0  0  0  0  0  0  0  0  0  0  0
  189.1930  178.0040  147.4160 O   0  0  0  0  0  1  0  0  0  0  0  0
  188.0660  176.7550  144.2020 C   0  0  0  0  0  2  0  0  0  0  0  0
  190.3060  177.0750  145.0280 C   0  0  0  0  0  2  0  0  0  0  0  0
  190.4130  176.5210  143.6140 C   0  0  1  0  0  0  0  0  0  0  0  0
  188.8730  176.8510  145.4830 C   0  0  1  0  0  3  0  0  0  0  0  0
  189.0000  176.1340  143.1870 C   0  0  0  0  0  2  0  0  0  0  0  0
  190.9810  177.5880  142.7150 C   0  0  0  0  0  0  0  0  0  0  0  0
  191.7410  178.4810  143.1830 O   0  0  0  0  0  0  0  0  0  0  0  0
  190.7260  177.5470  141.3450 O   0  0  0  0  0  0  0  0  0  0  0  0
  191.7320  177.5090  140.4600 O   0  0  0  0  0  1  0  0  0  0  0  0
  192.0990  175.2030  144.7420 O   0  0  0  0  0  1  0  0  0  0  0  0
  191.3140  175.2860  143.5880 C   0  0  0  0  0  2  0  0  0  0  0  0
  184.1600  178.7680  138.7890 C   0  0  0  0  0  2  0  0  0  0  0  0
  185.5090  178.1880  138.3820 C   0  0  0  0  0  2  0  0  0  0  0  0
  185.4090  177.3090  137.1290 C   0  0  1  0  0  3  0  0  0  0  0  0
  188.8610  177.5060  135.3140 C   0  0  0  0  0  2  0  0  0  0  0  0
  187.6370  176.3110  137.7540 C   0  0  0  0  0  2  0  0  0  0  0  0
  188.9350  175.7080  137.2430 C   0  0  0  0  0  2  0  0  0  0  0  0
  187.5490  178.0070  135.9070 C   0  0  2  0  0  3  0  0  0  0  0  0
  190.0240  177.0290  136.6310 S   0  0  0  0  0  0  0  0  0  0  0  0
  186.7900  176.8590  136.6000 C   0  0  2  0  0  3  0  0  0  0  0  0
  186.8030  178.5520  134.8780 F   0  0  0  0  0  0  0  0  0  0  0  0
  184.4930  176.1210  137.4170 C   0  0  0  0  0  2  0  0  0  0  0  0
  183.1380  176.2690  136.7290 C   0  0  0  0  0  2  0  0  0  0  0  0
  181.9400  175.9350  137.6240 C   0  0  2  0  0  3  0  0  0  0  0  0
  181.1410  174.9580  137.0340 O   0  0  0  0  0  1  0  0  0  0  0  0
  181.1000  177.1600  137.9730 C   0  0  0  0  0  2  0  0  0  0  0  0
  180.1920  176.9070  139.1780 C   0  0  0  0  0  2  0  0  0  0  0  0
  179.8940  180.6620  140.0750 C   0  0  0  0  0  2  0  0  0  0  0  0
  179.1790  179.4080  141.9610 C   0  0  0  0  0  2  0  0  0  0  0  0
  180.0400  180.5060  141.5210 N   0  0  0  0  0  2  0  0  0  0  0  0
  179.6710  178.1880  139.8330 C   0  0  0  0  0  3  0  0  0  0  0  0
  180.4310  179.4260  139.3590 C   0  0  0  0  0  2  0  0  0  0  0  0
  179.6640  178.0890  141.3610 C   0  0  0  0  0  2  0  0  0  0  0  0
  1  7  1  0  0  0  0
  2  1  1  0  0  0  0
  3  5  1  0  0  0  0
  4 25  1  6  0  0  0
  4  3  1  0  0  0  0
  4  6  1  0  0  0  0
  5  1  2  0  0  0  0
  6  2  1  0  0  0  0
  9  7  1  6  0  0  0
  9 10  1  0  0  0  0
  9  8  1  0  0  0  0
 10 11  1  1  0  0  0
 10  8  1  0  0  0  0
 12 11  1  0  0  0  0
 12 13  1  0  0  0  0
 14 17  1  0  0  0  0
 15 17  1  0  0  0  0
 16 24  1  6  0  0  0
 16 15  1  0  0  0  0
 17 12  1  1  0  0  0
 18 16  1  0  0  0  0
 18 14  1  0  0  0  0
 19 20  2  0  0  0  0
 19 16  1  0  0  0  0
 21 19  1  0  0  0  0
 22 21  1  0  0  0  0
 24 23  1  0  0  0  0
 26 25  1  0  0  0  0
 27 35  1  1  0  0  0
 27 26  1  0  0  0  0
 28 31  1  0  0  0  0
 28 32  1  0  0  0  0
 30 29  1  0  0  0  0
 31 34  1  6  0  0  0
 31 33  1  0  0  0  0
 32 30  1  0  0  0  0
 33 27  1  1  0  0  0
 33 29  1  0  0  0  0
 36 35  1  0  0  0  0
 36 37  1  0  0  0  0
 37 38  1  6  0  0  0
 37 39  1  0  0  0  0
 39 40  1  0  0  0  0
 40 44  1  0  0  0  0
 41 43  1  0  0  0  0
 43 42  1  0  0  0  0
 44 46  1  0  0  0  0
 45 44  1  0  0  0  0
 45 41  1  0  0  0  0
 46 42  1  0  0  0  0
M  END
>  <MODEL>
7

>  <REMARK>
 VINA RESULT:      -7.5      5.189      9.319
  Name = 
  18 active torsions:
  status: ('A' for Active; 'I' for Inactive)
    1  A    between atoms: N_1  and  N_11
    2  A    between atoms: N_1  and  C_33
    3  A    between atoms: C_3  and  N_44
    4  A    between atoms: N_11  and  C_20
    5  A    between atoms: C_12  and  C_21
    6  A    between atoms: C_12  and  C_30
    7  A    between atoms: C_14  and  C_23
    8  A    between atoms: C_14  and  C_29
    9  A    between atoms: C_14  and  C_32
   10  A    between atoms: O_17  and  C_21
   11  A    between atoms: C_18  and  N_44
   12  A    between atoms: C_19  and  C_23
   13  A    between atoms: C_19  and  C_27
   14  A    between atoms: C_27  and  C_28
   15  A    between atoms: C_28  and  C_42
   16  A    between atoms: C_29  and  C_37
   17  A    between atoms: C_31  and  C_37
   18  A    between atoms: C_40  and  C_42
                            x       y       z     vdW  Elec       q    Type
                         _______ _______ _______ _____ _____    ______ ____

>  <TORSDO>
F 18

$$$$
=
 OpenBabel10222420103D

 46 50  0  0  1  0  0  0  0  0999 V2000
  190.6640  177.2940  142.6010 C   0  0  0  0  0  0  0  0  0  0  0  0
  189.2660  177.8460  142.4860 C   0  0  0  0  0  2  0  0  0  0  0  0
  190.9800  177.4240  140.1250 C   0  0  0  0  0  2  0  0  0  0  0  0
  189.7860  178.3700  140.1000 C   0  0  2  0  0  3  0  0  0  0  0  0
  191.4600  177.1770  141.5270 C   0  0  0  0  0  3  0  0  0  0  0  0
  188.7260  177.8340  141.0550 C   0  0  0  0  0  2  0  0  0  0  0  0
  191.1700  177.0150  143.9110 N   0  0  0  0  0  2  0  0  0  0  0  0
  191.2980  177.0680  146.3330 C   0  0  0  0  0  2  0  0  0  0  0  0
  190.8010  177.7800  145.0930 C   0  0  2  0  0  3  0  0  0  0  0  0
  189.8400  176.9670  145.9350 C   0  0  2  0  0  3  0  0  0  0  0  0
  189.0520  177.8710  146.7550 N   0  0  0  0  0  2  0  0  0  0  0  0
  187.7050  177.5140  146.5830 N   0  0  0  0  0  0  0  0  0  0  0  0
  187.0080  178.2090  147.5180 O   0  0  0  0  0  1  0  0  0  0  0  0
  186.6700  176.8850  144.4470 C   0  0  0  0  0  2  0  0  0  0  0  0
  186.1800  179.0410  145.4050 C   0  0  0  0  0  2  0  0  0  0  0  0
  185.2300  178.8320  144.2330 C   0  0  1  0  0  0  0  0  0  0  0  0
  187.2830  178.0030  145.2700 C   0  0  1  0  0  3  0  0  0  0  0  0
  185.6890  177.5640  143.5180 C   0  0  0  0  0  2  0  0  0  0  0  0
  183.8280  178.6810  144.7630 C   0  0  0  0  0  0  0  0  0  0  0  0
  183.6150  178.6470  146.0070 O   0  0  0  0  0  0  0  0  0  0  0  0
  182.7520  178.6550  143.8780 O   0  0  0  0  0  0  0  0  0  0  0  0
  181.4930  178.5750  144.3290 O   0  0  0  0  0  1  0  0  0  0  0  0
  185.7440  179.6220  142.0060 O   0  0  0  0  0  1  0  0  0  0  0  0
  185.2970  180.0180  143.2700 C   0  0  0  0  0  2  0  0  0  0  0  0
  189.2370  178.4410  138.6880 C   0  0  0  0  0  2  0  0  0  0  0  0
  188.0270  177.5260  138.5420 C   0  0  0  0  0  2  0  0  0  0  0  0
  187.4420  177.5590  137.1240 C   0  0  1  0  0  3  0  0  0  0  0  0
  189.2240  174.6720  135.1910 C   0  0  0  0  0  2  0  0  0  0  0  0
  187.0780  175.0670  137.2190 C   0  0  0  0  0  2  0  0  0  0  0  0
  187.0870  173.7620  136.4400 C   0  0  0  0  0  2  0  0  0  0  0  0
  189.0960  175.9480  136.0160 C   0  0  2  0  0  3  0  0  0  0  0  0
  188.8010  173.2110  136.1900 S   0  0  0  0  0  0  0  0  0  0  0  0
  187.6210  176.2220  136.3700 C   0  0  2  0  0  3  0  0  0  0  0  0
  189.6340  176.9840  135.2760 F   0  0  0  0  0  0  0  0  0  0  0  0
  185.9760  177.9840  137.1920 C   0  0  0  0  0  2  0  0  0  0  0  0
  185.5150  178.2030  138.6310 C   0  0  0  0  0  2  0  0  0  0  0  0
  184.1660  178.9200  138.7550 C   0  0  2  0  0  3  0  0  0  0  0  0
  184.3500  180.2570  139.1050 O   0  0  0  0  0  1  0  0  0  0  0  0
  183.2230  178.2440  139.7450 C   0  0  0  0  0  2  0  0  0  0  0  0
  182.5850  176.9830  139.1580 C   0  0  0  0  0  2  0  0  0  0  0  0
  179.1710  177.5940  140.8810 C   0  0  0  0  0  2  0  0  0  0  0  0
  179.2400  175.3220  140.1930 C   0  0  0  0  0  2  0  0  0  0  0  0
  178.9480  176.2150  141.3140 N   0  0  0  0  0  2  0  0  0  0  0  0
  181.0970  176.8390  139.4830 C   0  0  0  0  0  3  0  0  0  0  0  0
  180.6500  177.8110  140.5750 C   0  0  0  0  0  2  0  0  0  0  0  0
  180.7230  175.3960  139.8340 C   0  0  0  0  0  2  0  0  0  0  0  0
  1  7  1  0  0  0  0
  2  1  1  0  0  0  0
  3  5  1  0  0  0  0
  4 25  1  6  0  0  0
  4  3  1  0  0  0  0
  4  6  1  0  0  0  0
  5  1  2  0  0  0  0
  6  2  1  0  0  0  0
  9  7  1  6  0  0  0
  9 10  1  0  0  0  0
  9  8  1  0  0  0  0
 10  8  1  0  0  0  0
 10 11  1  1  0  0  0
 12 11  1  0  0  0  0
 12 13  1  0  0  0  0
 14 17  1  0  0  0  0
 16 24  1  6  0  0  0
 16 19  1  0  0  0  0
 16 15  1  0  0  0  0
 17 15  1  0  0  0  0
 17 12  1  1  0  0  0
 18 16  1  0  0  0  0
 18 14  1  0  0  0  0
 19 20  2  0  0  0  0
 21 22  1  0  0  0  0
 21 19  1  0  0  0  0
 23 24  1  0  0  0  0
 26 25  1  0  0  0  0
 27 35  1  1  0  0  0
 27 26  1  0  0  0  0
 28 31  1  0  0  0  0
 28 32  1  0  0  0  0
 30 29  1  0  0  0  0
 31 34  1  6  0  0  0
 31 33  1  0  0  0  0
 32 30  1  0  0  0  0
 33 27  1  1  0  0  0
 33 29  1  0  0  0  0
 35 36  1  0  0  0  0
 36 37  1  0  0  0  0
 37 38  1  1  0  0  0
 37 39  1  0  0  0  0
 40 44  1  0  0  0  0
 40 39  1  0  0  0  0
 41 43  1  0  0  0  0
 42 43  1  0  0  0  0
 44 46  1  0  0  0  0
 44 45  1  0  0  0  0
 45 41  1  0  0  0  0
 46 42  1  0  0  0  0
M  END
>  <MODEL>
8

>  <REMARK>
 VINA RESULT:      -7.5      5.903     10.353
  Name = 
  18 active torsions:
  status: ('A' for Active; 'I' for Inactive)
    1  A    between atoms: N_1  and  N_11
    2  A    between atoms: N_1  and  C_33
    3  A    between atoms: C_3  and  N_44
    4  A    between atoms: N_11  and  C_20
    5  A    between atoms: C_12  and  C_21
    6  A    between atoms: C_12  and  C_30
    7  A    between atoms: C_14  and  C_23
    8  A    between atoms: C_14  and  C_29
    9  A    between atoms: C_14  and  C_32
   10  A    between atoms: O_17  and  C_21
   11  A    between atoms: C_18  and  N_44
   12  A    between atoms: C_19  and  C_23
   13  A    between atoms: C_19  and  C_27
   14  A    between atoms: C_27  and  C_28
   15  A    between atoms: C_28  and  C_42
   16  A    between atoms: C_29  and  C_37
   17  A    between atoms: C_31  and  C_37
   18  A    between atoms: C_40  and  C_42
                            x       y       z     vdW  Elec       q    Type
                         _______ _______ _______ _____ _____    ______ ____

>  <TORSDO>
F 18

$$$$
=
 OpenBabel10222420103D

 46 50  0  0  1  0  0  0  0  0999 V2000
  184.1240  178.8970  141.3850 C   0  0  0  0  0  0  0  0  0  0  0  0
  184.6810  179.4190  140.0850 C   0  0  0  0  0  2  0  0  0  0  0  0
  182.2000  177.8310  140.1980 C   0  0  0  0  0  2  0  0  0  0  0  0
  183.0100  177.9770  138.9160 C   0  0  2  0  0  3  0  0  0  0  0  0
  183.0350  178.1130  141.4140 C   0  0  0  0  0  3  0  0  0  0  0  0
  183.6860  179.3430  138.9260 C   0  0  0  0  0  2  0  0  0  0  0  0
  184.8620  179.1550  142.5850 N   0  0  0  0  0  2  0  0  0  0  0  0
  184.1620  178.8930  144.8920 C   0  0  0  0  0  2  0  0  0  0  0  0
  184.8800  178.2500  143.7250 C   0  0  2  0  0  3  0  0  0  0  0  0
  185.6760  178.8780  144.8500 C   0  0  2  0  0  3  0  0  0  0  0  0
  186.1740  177.8260  145.7190 N   0  0  0  0  0  2  0  0  0  0  0  0
  187.4290  178.2420  146.1910 N   0  0  0  0  0  0  0  0  0  0  0  0
  187.3610  178.1820  147.5450 O   0  0  0  0  0  1  0  0  0  0  0  0
  188.1530  176.8170  144.3270 C   0  0  0  0  0  2  0  0  0  0  0  0
  189.8130  177.8420  145.7420 C   0  0  0  0  0  2  0  0  0  0  0  0
  190.5390  177.2290  144.5520 C   0  0  1  0  0  0  0  0  0  0  0  0
  188.4130  177.2490  145.7590 C   0  0  1  0  0  3  0  0  0  0  0  0
  189.5050  176.4140  143.7800 C   0  0  0  0  0  2  0  0  0  0  0  0
  191.1040  178.3370  143.7030 C   0  0  0  0  0  0  0  0  0  0  0  0
  190.8970  179.5450  144.0070 O   0  0  0  0  0  0  0  0  0  0  0  0
  191.9220  178.0300  142.6170 O   0  0  0  0  0  0  0  0  0  0  0  0
  191.4440  177.3470  141.5680 O   0  0  0  0  0  1  0  0  0  0  0  0
  191.8640  176.4170  146.4060 O   0  0  0  0  0  1  0  0  0  0  0  0
  191.6670  176.3110  145.0260 C   0  0  0  0  0  2  0  0  0  0  0  0
  182.0810  177.8580  137.7230 C   0  0  0  0  0  2  0  0  0  0  0  0
  182.8550  177.4090  136.4890 C   0  0  0  0  0  2  0  0  0  0  0  0
  183.9790  176.4230  136.8350 C   0  0  1  0  0  3  0  0  0  0  0  0
  183.9140  172.5200  136.8670 C   0  0  0  0  0  2  0  0  0  0  0  0
  182.1730  174.8190  136.1200 C   0  0  0  0  0  2  0  0  0  0  0  0
  181.8630  173.4640  135.5040 C   0  0  0  0  0  2  0  0  0  0  0  0
  184.1410  173.9300  137.3980 C   0  0  2  0  0  3  0  0  0  0  0  0
  182.1360  172.1560  136.7370 S   0  0  0  0  0  0  0  0  0  0  0  0
  183.6760  174.9810  136.3700 C   0  0  2  0  0  3  0  0  0  0  0  0
  185.4880  174.0640  137.6780 F   0  0  0  0  0  0  0  0  0  0  0  0
  185.2980  176.9410  136.2640 C   0  0  0  0  0  2  0  0  0  0  0  0
  186.3630  177.0990  137.3480 C   0  0  0  0  0  2  0  0  0  0  0  0
  187.8030  177.0440  136.8260 C   0  0  2  0  0  3  0  0  0  0  0  0
  187.8690  176.3130  135.6410 O   0  0  0  0  0  1  0  0  0  0  0  0
  188.7830  176.4770  137.8470 C   0  0  0  0  0  2  0  0  0  0  0  0
  189.6790  175.3950  137.2410 C   0  0  0  0  0  2  0  0  0  0  0  0
  193.0870  176.6450  138.5900 C   0  0  0  0  0  2  0  0  0  0  0  0
  193.4250  174.4870  137.6580 C   0  0  0  0  0  2  0  0  0  0  0  0
  193.9280  175.8600  137.6870 N   0  0  0  0  0  2  0  0  0  0  0  0
  191.0860  175.3530  137.8430 C   0  0  0  0  0  3  0  0  0  0  0  0
  191.6740  176.7530  138.0250 C   0  0  0  0  0  2  0  0  0  0  0  0
  192.0280  174.4530  137.0400 C   0  0  0  0  0  2  0  0  0  0  0  0
  1  5  2  0  0  0  0
  1  7  1  0  0  0  0
  2  1  1  0  0  0  0
  3  5  1  0  0  0  0
  4 25  1  6  0  0  0
  4  6  1  0  0  0  0
  4  3  1  0  0  0  0
  6  2  1  0  0  0  0
  9  7  1  6  0  0  0
  9 10  1  0  0  0  0
  9  8  1  0  0  0  0
 10  8  1  0  0  0  0
 10 11  1  1  0  0  0
 11 12  1  0  0  0  0
 12 13  1  0  0  0  0
 14 17  1  0  0  0  0
 15 17  1  0  0  0  0
 16 24  1  1  0  0  0
 16 15  1  0  0  0  0
 17 12  1  6  0  0  0
 18 14  1  0  0  0  0
 18 16  1  0  0  0  0
 19 20  2  0  0  0  0
 19 16  1  0  0  0  0
 21 19  1  0  0  0  0
 22 21  1  0  0  0  0
 24 23  1  0  0  0  0
 26 27  1  0  0  0  0
 26 25  1  0  0  0  0
 27 35  1  6  0  0  0
 28 31  1  0  0  0  0
 29 33  1  0  0  0  0
 30 29  1  0  0  0  0
 30 32  1  0  0  0  0
 31 34  1  6  0  0  0
 32 28  1  0  0  0  0
 33 27  1  1  0  0  0
 33 31  1  0  0  0  0
 35 36  1  0  0  0  0
 37 38  1  6  0  0  0
 37 36  1  0  0  0  0
 37 39  1  0  0  0  0
 40 44  1  0  0  0  0
 40 39  1  0  0  0  0
 42 43  1  0  0  0  0
 43 41  1  0  0  0  0
 44 45  1  0  0  0  0
 45 41  1  0  0  0  0
 46 42  1  0  0  0  0
 46 44  1  0  0  0  0
M  END
>  <MODEL>
9

>  <REMARK>
 VINA RESULT:      -7.2      3.655      8.779
  Name = 
  18 active torsions:
  status: ('A' for Active; 'I' for Inactive)
    1  A    between atoms: N_1  and  N_11
    2  A    between atoms: N_1  and  C_33
    3  A    between atoms: C_3  and  N_44
    4  A    between atoms: N_11  and  C_20
    5  A    between atoms: C_12  and  C_21
    6  A    between atoms: C_12  and  C_30
    7  A    between atoms: C_14  and  C_23
    8  A    between atoms: C_14  and  C_29
    9  A    between atoms: C_14  and  C_32
   10  A    between atoms: O_17  and  C_21
   11  A    between atoms: C_18  and  N_44
   12  A    between atoms: C_19  and  C_23
   13  A    between atoms: C_19  and  C_27
   14  A    between atoms: C_27  and  C_28
   15  A    between atoms: C_28  and  C_42
   16  A    between atoms: C_29  and  C_37
   17  A    between atoms: C_31  and  C_37
   18  A    between atoms: C_40  and  C_42
                            x       y       z     vdW  Elec       q    Type
                         _______ _______ _______ _____ _____    ______ ____

>  <TORSDO>
F 18

$$$$
