=
 OpenBabel10222416003D

 25 28  0  0  1  0  0  0  0  0999 V2000
  189.3850  178.3060  148.0720 C   0  0  0  0  0  3  0  0  0  0  0  0
  186.5180  177.5190  144.3720 N   0  0  0  0  0  0  0  0  0  0  0  0
  191.9310  179.1430  144.7200 C   0  0  0  0  0  1  0  0  0  0  0  0
  189.4620  177.7090  146.7410 N   0  0  0  0  0  0  0  0  0  0  0  0
  188.4570  177.2310  141.3550 O   0  0  0  0  0  0  0  0  0  0  0  0
  188.0090  177.2700  142.6860 C   0  0  0  0  0  0  0  0  0  0  0  0
  189.8170  177.0070  140.9640 C   0  0  2  0  0  3  0  0  0  0  0  0
  190.0930  177.9050  143.6640 N   0  0  0  0  0  0  0  0  0  0  0  0
  187.9240  178.5780  148.2880 C   0  0  0  0  0  3  0  0  0  0  0  0
  190.0680  175.6740  145.7440 O   0  0  0  0  0  0  0  0  0  0  0  0
  187.8490  177.5940  144.8780 C   0  0  2  0  0  3  0  0  0  0  0  0
  188.1550  177.8000  146.1730 C   0  0  0  0  0  0  0  0  0  0  0  0
  188.7670  177.4120  143.7610 C   0  0  0  0  0  0  0  0  0  0  0  0
  191.2650  178.0030  142.7550 C   0  0  2  0  0  3  0  0  0  0  0  0
  190.9860  179.0960  143.5400 C   0  0  2  0  0  3  0  0  0  0  0  0
  190.3920  176.6430  146.4830 C   0  0  0  0  0  0  0  0  0  0  0  0
  186.6060  177.3140  143.0950 C   0  0  0  0  0  3  0  0  0  0  0  0
  187.2400  178.2780  147.1970 C   0  0  0  0  0  0  0  0  0  0  0  0
  190.7220  178.1870  141.3450 C   0  0  0  0  0  2  0  0  0  0  0  0
  191.7260  176.6290  147.1570 C   0  0  0  0  0  2  0  0  0  0  0  0
  192.4080  175.4540  146.8420 O   0  0  0  0  0  1  0  0  0  0  0  0
  190.9030  175.8320  139.1300 N   0  0  0  0  0  1  0  0  0  0  0  0
  189.8650  176.7920  139.4620 C   0  0  0  0  0  2  0  0  0  0  0  0
  184.6730  178.6030  146.9860 N   0  0  0  0  0  0  0  0  0  0  0  0
  185.8180  178.4580  147.0800 C   0  0  0  0  0  0  0  0  0  0  0  0
  1  9  2  0  0  0  0
  2 11  1  0  0  0  0
  4  1  1  0  0  0  0
  5  6  1  0  0  0  0
  6 17  1  0  0  0  0
  6 13  2  0  0  0  0
  7 23  1  6  0  0  0
  7 19  1  0  0  0  0
  7  5  1  0  0  0  0
  8 13  1  0  0  0  0
 10 16  2  0  0  0  0
 11 12  1  6  0  0  0
 12  4  1  0  0  0  0
 12 18  2  0  0  0  0
 13 11  1  0  0  0  0
 14 19  1  6  0  0  0
 14 15  1  0  0  0  0
 14  8  1  0  0  0  0
 15  8  1  0  0  0  0
 15  3  1  1  0  0  0
 16  4  1  0  0  0  0
 16 20  1  0  0  0  0
 17  2  2  0  0  0  0
 18  9  1  0  0  0  0
 21 20  1  0  0  0  0
 22 23  1  0  0  0  0
 24 25  3  0  0  0  0
 25 18  1  0  0  0  0
M  END
>  <MODEL>
1

>  <REMARK>
 VINA RESULT:      -6.6      0.000      0.000
  Name = 
  3 active torsions:
  status: ('A' for Active; 'I' for Inactive)
    1  A    between atoms: C_2  and  C_21
    2  A    between atoms: C_9  and  C_11
    3  A    between atoms: C_18  and  C_23
                            x       y       z     vdW  Elec       q    Type
                         _______ _______ _______ _____ _____    ______ ____

>  <TORSDO>
F 3

$$$$
=
 OpenBabel10222416003D

 25 28  0  0  1  0  0  0  0  0999 V2000
  190.4320  177.3730  144.9760 C   0  0  0  0  0  3  0  0  0  0  0  0
  185.8870  178.0530  146.1660 N   0  0  0  0  0  0  0  0  0  0  0  0
  188.7400  178.9410  141.3570 C   0  0  0  0  0  1  0  0  0  0  0  0
  189.1110  177.2100  144.3740 N   0  0  0  0  0  0  0  0  0  0  0  0
  183.8980  178.5140  143.2040 O   0  0  0  0  0  0  0  0  0  0  0  0
  184.9000  178.1870  144.1330 C   0  0  0  0  0  0  0  0  0  0  0  0
  183.9940  178.2860  141.7930 C   0  0  2  0  0  3  0  0  0  0  0  0
  186.7350  178.2780  142.6080 N   0  0  0  0  0  0  0  0  0  0  0  0
  190.1600  177.7110  146.4140 C   0  0  0  0  0  3  0  0  0  0  0  0
  187.8160  175.5310  143.3730 O   0  0  0  0  0  0  0  0  0  0  0  0
  186.8500  177.8360  145.1370 C   0  0  0  0  0  0  0  0  0  0  0  0
  188.1560  177.6010  145.3620 C   0  0  0  0  0  0  0  0  0  0  0  0
  186.1640  177.9150  143.8540 C   0  0  0  0  0  0  0  0  0  0  0  0
  186.4150  178.5330  141.1780 C   0  0  2  0  0  3  0  0  0  0  0  0
  187.3450  179.3540  141.7700 C   0  0  2  0  0  3  0  0  0  0  0  0
  188.8920  176.1870  143.3870 C   0  0  0  0  0  0  0  0  0  0  0  0
  184.7440  178.2430  145.5860 C   0  0  0  0  0  2  0  0  0  0  0  0
  188.8590  177.8310  146.6140 C   0  0  0  0  0  0  0  0  0  0  0  0
  185.0450  179.1940  141.1390 C   0  0  0  0  0  2  0  0  0  0  0  0
  189.9720  175.8340  142.4180 C   0  0  0  0  0  2  0  0  0  0  0  0
  190.8200  174.8750  142.9750 O   0  0  0  0  0  1  0  0  0  0  0  0
  181.6760  178.9180  142.1830 N   0  0  0  0  0  1  0  0  0  0  0  0
  182.6380  178.5390  141.1630 C   0  0  0  0  0  2  0  0  0  0  0  0
  187.8180  178.4610  148.9080 N   0  0  0  0  0  0  0  0  0  0  0  0
  188.2820  178.1800  147.8850 C   0  0  0  0  0  0  0  0  0  0  0  0
  1  9  2  0  0  0  0
  4  1  1  0  0  0  0
  4 12  1  0  0  0  0
  5  6  1  0  0  0  0
  6 17  1  0  0  0  0
  7 23  1  6  0  0  0
  7  5  1  0  0  0  0
  8 13  1  0  0  0  0
  9 18  1  0  0  0  0
 10 16  2  0  0  0  0
 11 12  1  0  0  0  0
 11  2  2  0  0  0  0
 12 18  2  0  0  0  0
 13  6  2  0  0  0  0
 13 11  1  0  0  0  0
 14 19  1  1  0  0  0
 14 15  1  0  0  0  0
 14  8  1  0  0  0  0
 15  3  1  6  0  0  0
 15  8  1  0  0  0  0
 16  4  1  0  0  0  0
 17  2  1  0  0  0  0
 18 25  1  0  0  0  0
 19  7  1  0  0  0  0
 20 21  1  0  0  0  0
 20 16  1  0  0  0  0
 23 22  1  0  0  0  0
 25 24  3  0  0  0  0
M  END
>  <MODEL>
2

>  <REMARK>
 VINA RESULT:      -6.5      2.569      4.415
  Name = 
  3 active torsions:
  status: ('A' for Active; 'I' for Inactive)
    1  A    between atoms: C_2  and  C_21
    2  A    between atoms: C_9  and  C_11
    3  A    between atoms: C_18  and  C_23
                            x       y       z     vdW  Elec       q    Type
                         _______ _______ _______ _____ _____    ______ ____

>  <TORSDO>
F 3

$$$$
=
 OpenBabel10222416003D

 25 28  0  0  1  0  0  0  0  0999 V2000
  180.2230  178.3950  142.6430 C   0  0  0  0  0  3  0  0  0  0  0  0
  184.8960  179.1950  142.4050 N   0  0  0  0  0  0  0  0  0  0  0  0
  181.3460  176.3290  139.0520 C   0  0  0  0  0  1  0  0  0  0  0  0
  181.2270  178.6960  141.6260 N   0  0  0  0  0  0  0  0  0  0  0  0
  186.1100  178.4140  139.1090 O   0  0  0  0  0  0  0  0  0  0  0  0
  185.3250  178.7380  140.2290 C   0  0  0  0  0  0  0  0  0  0  0  0
  185.5910  178.2060  137.7900 C   0  0  2  0  0  3  0  0  0  0  0  0
  183.2890  177.7810  139.4310 N   0  0  0  0  0  0  0  0  0  0  0  0
  180.9430  178.5500  143.9520 C   0  0  0  0  0  3  0  0  0  0  0  0
  181.6300  180.2870  139.9500 O   0  0  0  0  0  0  0  0  0  0  0  0
  183.6860  178.8750  141.7210 C   0  0  1  0  0  3  0  0  0  0  0  0
  182.4740  178.8410  142.3070 C   0  0  0  0  0  0  0  0  0  0  0  0
  184.0130  178.6070  140.3280 C   0  0  0  0  0  0  0  0  0  0  0  0
  183.2990  177.2200  138.0530 C   0  0  2  0  0  3  0  0  0  0  0  0
  182.8570  176.3990  139.0630 C   0  0  2  0  0  3  0  0  0  0  0  0
  180.8560  179.4210  140.4410 C   0  0  0  0  0  0  0  0  0  0  0  0
  185.8540  179.1310  141.5340 C   0  0  0  0  0  3  0  0  0  0  0  0
  182.2220  178.8100  143.7390 C   0  0  0  0  0  0  0  0  0  0  0  0
  184.7510  176.9250  137.7030 C   0  0  0  0  0  2  0  0  0  0  0  0
  179.5100  179.2170  139.8250 C   0  0  0  0  0  2  0  0  0  0  0  0
  179.5910  179.3650  138.4400 O   0  0  0  0  0  1  0  0  0  0  0  0
  187.6730  179.2210  137.0420 N   0  0  0  0  0  1  0  0  0  0  0  0
  186.7520  178.1220  136.8160 C   0  0  0  0  0  2  0  0  0  0  0  0
  183.9540  179.1210  145.6480 N   0  0  0  0  0  0  0  0  0  0  0  0
  183.1820  178.9820  144.7970 C   0  0  0  0  0  0  0  0  0  0  0  0
  1  9  2  0  0  0  0
  4 12  1  0  0  0  0
  4  1  1  0  0  0  0
  5  6  1  0  0  0  0
  6 13  2  0  0  0  0
  6 17  1  0  0  0  0
  7 23  1  6  0  0  0
  7  5  1  0  0  0  0
  8 13  1  0  0  0  0
 10 16  2  0  0  0  0
 11 12  1  6  0  0  0
 11  2  1  0  0  0  0
 12 18  2  0  0  0  0
 13 11  1  0  0  0  0
 14 19  1  1  0  0  0
 14 15  1  0  0  0  0
 14  8  1  0  0  0  0
 15  3  1  6  0  0  0
 15  8  1  0  0  0  0
 16  4  1  0  0  0  0
 17  2  2  0  0  0  0
 18  9  1  0  0  0  0
 18 25  1  0  0  0  0
 19  7  1  0  0  0  0
 20 16  1  0  0  0  0
 21 20  1  0  0  0  0
 23 22  1  0  0  0  0
 25 24  3  0  0  0  0
M  END
>  <MODEL>
3

>  <REMARK>
 VINA RESULT:      -6.4      5.598      8.309
  Name = 
  3 active torsions:
  status: ('A' for Active; 'I' for Inactive)
    1  A    between atoms: C_2  and  C_21
    2  A    between atoms: C_9  and  C_11
    3  A    between atoms: C_18  and  C_23
                            x       y       z     vdW  Elec       q    Type
                         _______ _______ _______ _____ _____    ______ ____

>  <TORSDO>
F 3

$$$$
=
 OpenBabel10222416003D

 25 28  0  0  1  0  0  0  0  0999 V2000
  182.2650  178.7900  141.1480 C   0  0  0  0  0  3  0  0  0  0  0  0
  186.9990  178.5480  141.4000 N   0  0  0  0  0  0  0  0  0  0  0  0
  183.3100  176.9640  137.4080 C   0  0  0  0  0  1  0  0  0  0  0  0
  183.4150  178.9770  140.2670 N   0  0  0  0  0  0  0  0  0  0  0  0
  188.3720  177.9090  138.1370 O   0  0  0  0  0  0  0  0  0  0  0  0
  187.5560  178.2650  139.2240 C   0  0  0  0  0  0  0  0  0  0  0  0
  187.9680  177.9790  136.7640 C   0  0  2  0  0  3  0  0  0  0  0  0
  185.4630  177.8890  138.1390 N   0  0  0  0  0  0  0  0  0  0  0  0
  182.8550  178.6260  142.5200 C   0  0  0  0  0  3  0  0  0  0  0  0
  184.3250  180.6240  138.8660 O   0  0  0  0  0  0  0  0  0  0  0  0
  185.8310  178.5890  140.5840 C   0  0  0  0  0  0  0  0  0  0  0  0
  184.5820  178.7580  141.0600 C   0  0  0  0  0  0  0  0  0  0  0  0
  186.2430  178.4210  139.1970 C   0  0  0  0  0  0  0  0  0  0  0  0
  185.5040  177.5060  136.7030 C   0  0  2  0  0  3  0  0  0  0  0  0
  184.7910  176.6910  137.5500 C   0  0  2  0  0  3  0  0  0  0  0  0
  183.3360  179.9010  139.1680 C   0  0  0  0  0  0  0  0  0  0  0  0
  188.0110  178.3740  140.6090 C   0  0  0  0  0  2  0  0  0  0  0  0
  184.1750  178.6160  142.4480 C   0  0  0  0  0  0  0  0  0  0  0  0
  186.8900  176.9380  136.4320 C   0  0  0  0  0  2  0  0  0  0  0  0
  182.0530  180.0770  138.4230 C   0  0  0  0  0  2  0  0  0  0  0  0
  181.7120  181.4280  138.3700 O   0  0  0  0  0  1  0  0  0  0  0  0
  190.0710  176.7820  136.5010 N   0  0  0  0  0  1  0  0  0  0  0  0
  189.1840  177.7520  135.8840 C   0  0  0  0  0  2  0  0  0  0  0  0
  185.7150  178.3040  144.5160 N   0  0  0  0  0  0  0  0  0  0  0  0
  185.0280  178.4430  143.5940 C   0  0  0  0  0  0  0  0  0  0  0  0
  1  9  2  0  0  0  0
  4 12  1  0  0  0  0
  4  1  1  0  0  0  0
  5  6  1  0  0  0  0
  6 17  1  0  0  0  0
  7 23  1  6  0  0  0
  7  5  1  0  0  0  0
  8 13  1  0  0  0  0
 10 16  2  0  0  0  0
 11 12  1  0  0  0  0
 11  2  2  0  0  0  0
 12 18  2  0  0  0  0
 13  6  2  0  0  0  0
 13 11  1  0  0  0  0
 14 19  1  1  0  0  0
 14 15  1  0  0  0  0
 14  8  1  0  0  0  0
 15  3  1  6  0  0  0
 15  8  1  0  0  0  0
 16  4  1  0  0  0  0
 17  2  1  0  0  0  0
 18  9  1  0  0  0  0
 18 25  1  0  0  0  0
 19  7  1  0  0  0  0
 20 16  1  0  0  0  0
 21 20  1  0  0  0  0
 23 22  1  0  0  0  0
 25 24  3  0  0  0  0
M  END
>  <MODEL>
4

>  <REMARK>
 VINA RESULT:      -6.2      4.738      7.660
  Name = 
  3 active torsions:
  status: ('A' for Active; 'I' for Inactive)
    1  A    between atoms: C_2  and  C_21
    2  A    between atoms: C_9  and  C_11
    3  A    between atoms: C_18  and  C_23
                            x       y       z     vdW  Elec       q    Type
                         _______ _______ _______ _____ _____    ______ ____

>  <TORSDO>
F 3

$$$$
=
 OpenBabel10222416003D

 25 28  0  0  1  0  0  0  0  0999 V2000
  190.5780  176.7520  139.5980 C   0  0  0  0  0  3  0  0  0  0  0  0
  186.3010  178.7860  139.9140 N   0  0  0  0  0  0  0  0  0  0  0  0
  189.2530  175.5460  143.4990 C   0  0  0  0  0  1  0  0  0  0  0  0
  189.7700  177.4390  140.6020 N   0  0  0  0  0  0  0  0  0  0  0  0
  185.1940  178.7930  143.3370 O   0  0  0  0  0  0  0  0  0  0  0  0
  185.9430  178.7480  142.1500 C   0  0  0  0  0  0  0  0  0  0  0  0
  185.7450  178.6300  144.6490 C   0  0  2  0  0  3  0  0  0  0  0  0
  187.7230  177.3980  142.9930 N   0  0  0  0  0  0  0  0  0  0  0  0
  189.8210  176.9200  138.3130 C   0  0  0  0  0  3  0  0  0  0  0  0
  189.9220  179.2850  142.0410 O   0  0  0  0  0  0  0  0  0  0  0  0
  187.4390  178.2490  140.5850 C   0  0  0  0  0  0  0  0  0  0  0  0
  188.5510  177.8180  139.9600 C   0  0  0  0  0  0  0  0  0  0  0  0
  187.1670  178.2620  142.0160 C   0  0  0  0  0  0  0  0  0  0  0  0
  187.6790  177.0450  144.4370 C   0  0  2  0  0  3  0  0  0  0  0  0
  187.8140  176.0110  143.5410 C   0  0  2  0  0  3  0  0  0  0  0  0
  190.4070  178.1880  141.6510 C   0  0  0  0  0  0  0  0  0  0  0  0
  185.4310  179.0930  140.8240 C   0  0  0  0  0  2  0  0  0  0  0  0
  188.6730  177.5340  138.5390 C   0  0  0  0  0  0  0  0  0  0  0  0
  186.2330  177.1950  144.8890 C   0  0  0  0  0  2  0  0  0  0  0  0
  191.7000  177.7170  142.2320 C   0  0  0  0  0  2  0  0  0  0  0  0
  191.7820  178.0850  143.5760 O   0  0  0  0  0  1  0  0  0  0  0  0
  185.0980  178.5460  146.9940 N   0  0  0  0  0  1  0  0  0  0  0  0
  184.6820  178.9840  145.6740 C   0  0  0  0  0  2  0  0  0  0  0  0
  186.9310  178.0410  136.6800 N   0  0  0  0  0  0  0  0  0  0  0  0
  187.7080  177.8150  137.5090 C   0  0  0  0  0  0  0  0  0  0  0  0
  1  4  1  0  0  0  0
  2 11  2  0  0  0  0
  2 17  1  0  0  0  0
  4 16  1  0  0  0  0
  5  7  1  0  0  0  0
  6  5  1  0  0  0  0
  7 19  1  0  0  0  0
  7 23  1  1  0  0  0
  8 15  1  0  0  0  0
  8 14  1  0  0  0  0
  9 18  1  0  0  0  0
  9  1  2  0  0  0  0
 11 13  1  0  0  0  0
 12 11  1  0  0  0  0
 12  4  1  0  0  0  0
 13  6  2  0  0  0  0
 13  8  1  0  0  0  0
 14 19  1  6  0  0  0
 15  3  1  1  0  0  0
 15 14  1  0  0  0  0
 16 10  2  0  0  0  0
 16 20  1  0  0  0  0
 17  6  1  0  0  0  0
 18 12  2  0  0  0  0
 20 21  1  0  0  0  0
 23 22  1  0  0  0  0
 24 25  3  0  0  0  0
 25 18  1  0  0  0  0
M  END
>  <MODEL>
5

>  <REMARK>
 VINA RESULT:      -5.9      2.646      6.397
  Name = 
  3 active torsions:
  status: ('A' for Active; 'I' for Inactive)
    1  A    between atoms: C_2  and  C_21
    2  A    between atoms: C_9  and  C_11
    3  A    between atoms: C_18  and  C_23
                            x       y       z     vdW  Elec       q    Type
                         _______ _______ _______ _____ _____    ______ ____

>  <TORSDO>
F 3

$$$$
=
 OpenBabel10222416003D

 25 28  0  0  1  0  0  0  0  0999 V2000
  186.9690  178.0850  139.7920 C   0  0  0  0  0  3  0  0  0  0  0  0
  191.6240  177.5910  140.5760 N   0  0  0  0  0  0  0  0  0  0  0  0
  188.1040  175.1460  136.8770 C   0  0  0  0  0  1  0  0  0  0  0  0
  188.1930  177.9150  139.0140 N   0  0  0  0  0  0  0  0  0  0  0  0
  193.1660  175.9030  137.7980 O   0  0  0  0  0  0  0  0  0  0  0  0
  192.3110  176.6280  138.6460 C   0  0  0  0  0  0  0  0  0  0  0  0
  192.8740  175.5850  136.4320 C   0  0  2  0  0  3  0  0  0  0  0  0
  190.2770  176.0930  137.5160 N   0  0  0  0  0  0  0  0  0  0  0  0
  187.4360  178.3000  141.2030 C   0  0  0  0  0  3  0  0  0  0  0  0
  189.3620  178.9930  137.2890 O   0  0  0  0  0  0  0  0  0  0  0  0
  190.5290  177.4690  139.6710 C   0  0  0  0  0  0  0  0  0  0  0  0
  189.2720  177.8620  139.9490 C   0  0  0  0  0  0  0  0  0  0  0  0
  191.0250  176.8610  138.4430 C   0  0  0  0  0  0  0  0  0  0  0  0
  190.3870  175.2930  136.2670 C   0  0  2  0  0  3  0  0  0  0  0  0
  189.5360  174.8250  137.2400 C   0  0  2  0  0  3  0  0  0  0  0  0
  188.2870  178.4680  137.6900 C   0  0  0  0  0  0  0  0  0  0  0  0
  192.6710  177.1160  139.9760 C   0  0  0  0  0  2  0  0  0  0  0  0
  188.7500  178.1740  141.2700 C   0  0  0  0  0  0  0  0  0  0  0  0
  191.7260  174.5720  136.3150 C   0  0  0  0  0  2  0  0  0  0  0  0
  187.0870  178.5020  136.8020 C   0  0  0  0  0  2  0  0  0  0  0  0
  187.4620  178.2640  135.4800 O   0  0  0  0  0  1  0  0  0  0  0  0
  195.3050  175.6520  136.3400 N   0  0  0  0  0  1  0  0  0  0  0  0
  194.1230  175.0170  135.7840 C   0  0  0  0  0  2  0  0  0  0  0  0
  190.0960  178.3900  143.4810 N   0  0  0  0  0  0  0  0  0  0  0  0
  189.4960  178.2940  142.4950 C   0  0  0  0  0  0  0  0  0  0  0  0
  1  9  2  0  0  0  0
  4  1  1  0  0  0  0
  4 12  1  0  0  0  0
  5  6  1  0  0  0  0
  6 17  1  0  0  0  0
  7 23  1  1  0  0  0
  7  5  1  0  0  0  0
  8 13  1  0  0  0  0
  9 18  1  0  0  0  0
 10 16  2  0  0  0  0
 11 12  1  0  0  0  0
 11  2  2  0  0  0  0
 12 18  2  0  0  0  0
 13  6  2  0  0  0  0
 13 11  1  0  0  0  0
 14 19  1  1  0  0  0
 14 15  1  0  0  0  0
 14  8  1  0  0  0  0
 15  3  1  6  0  0  0
 15  8  1  0  0  0  0
 16  4  1  0  0  0  0
 17  2  1  0  0  0  0
 18 25  1  0  0  0  0
 19  7  1  0  0  0  0
 20 16  1  0  0  0  0
 21 20  1  0  0  0  0
 23 22  1  0  0  0  0
 25 24  3  0  0  0  0
M  END
>  <MODEL>
6

>  <REMARK>
 VINA RESULT:      -5.7      4.405      7.498
  Name = 
  3 active torsions:
  status: ('A' for Active; 'I' for Inactive)
    1  A    between atoms: C_2  and  C_21
    2  A    between atoms: C_9  and  C_11
    3  A    between atoms: C_18  and  C_23
                            x       y       z     vdW  Elec       q    Type
                         _______ _______ _______ _____ _____    ______ ____

>  <TORSDO>
F 3

$$$$
=
 OpenBabel10222416003D

 25 28  0  0  1  0  0  0  0  0999 V2000
  185.9160  178.7070  144.1200 C   0  0  0  0  0  3  0  0  0  0  0  0
  187.5340  178.2230  139.6840 N   0  0  0  0  0  0  0  0  0  0  0  0
  190.1670  178.9860  144.6380 C   0  0  0  0  0  1  0  0  0  0  0  0
  187.0210  178.0480  143.4280 N   0  0  0  0  0  0  0  0  0  0  0  0
  191.0580  177.5030  139.7330 O   0  0  0  0  0  0  0  0  0  0  0  0
  189.6990  177.6690  140.0470 C   0  0  0  0  0  0  0  0  0  0  0  0
  192.0540  177.0500  140.6580 C   0  0  2  0  0  3  0  0  0  0  0  0
  189.9930  178.0090  142.3920 N   0  0  0  0  0  0  0  0  0  0  0  0
  185.0250  179.2160  143.0230 C   0  0  0  0  0  3  0  0  0  0  0  0
  187.9390  175.9020  143.1960 O   0  0  0  0  0  0  0  0  0  0  0  0
  187.7840  178.1090  141.0830 C   0  0  1  0  0  3  0  0  0  0  0  0
  186.8560  178.3190  142.0350 C   0  0  0  0  0  0  0  0  0  0  0  0
  189.1810  177.7360  141.2620 C   0  0  0  0  0  0  0  0  0  0  0  0
  191.3750  177.8810  142.9260 C   0  0  2  0  0  3  0  0  0  0  0  0
  190.6920  179.0380  143.2200 C   0  0  2  0  0  3  0  0  0  0  0  0
  187.5860  176.8390  143.9630 C   0  0  0  0  0  0  0  0  0  0  0  0
  188.6450  177.9520  139.0740 C   0  0  0  0  0  3  0  0  0  0  0  0
  185.5750  178.9800  141.8450 C   0  0  0  0  0  0  0  0  0  0  0  0
  192.3260  178.0870  141.7570 C   0  0  0  0  0  2  0  0  0  0  0  0
  187.6830  176.6430  145.4410 C   0  0  0  0  0  2  0  0  0  0  0  0
  189.0120  176.7530  145.8510 O   0  0  0  0  0  1  0  0  0  0  0  0
  193.0650  176.7020  138.4720 N   0  0  0  0  0  1  0  0  0  0  0  0
  193.3360  176.7650  139.8970 C   0  0  0  0  0  2  0  0  0  0  0  0
  184.4960  179.6970  139.5940 N   0  0  0  0  0  0  0  0  0  0  0  0
  184.9770  179.3780  140.5970 C   0  0  0  0  0  0  0  0  0  0  0  0
  2 11  1  0  0  0  0
  4 16  1  0  0  0  0
  4  1  1  0  0  0  0
  5  6  1  0  0  0  0
  5  7  1  0  0  0  0
  6 13  2  0  0  0  0
  7 23  1  6  0  0  0
  7 19  1  0  0  0  0
  8 14  1  0  0  0  0
  8 15  1  0  0  0  0
  9  1  2  0  0  0  0
 10 16  2  0  0  0  0
 11 13  1  0  0  0  0
 11 12  1  6  0  0  0
 12  4  1  0  0  0  0
 13  8  1  0  0  0  0
 14 19  1  6  0  0  0
 14 15  1  0  0  0  0
 15  3  1  1  0  0  0
 16 20  1  0  0  0  0
 17  2  2  0  0  0  0
 17  6  1  0  0  0  0
 18 12  2  0  0  0  0
 18  9  1  0  0  0  0
 20 21  1  0  0  0  0
 22 23  1  0  0  0  0
 24 25  3  0  0  0  0
 25 18  1  0  0  0  0
M  END
>  <MODEL>
7

>  <REMARK>
 VINA RESULT:      -5.5      2.413      4.033
  Name = 
  3 active torsions:
  status: ('A' for Active; 'I' for Inactive)
    1  A    between atoms: C_2  and  C_21
    2  A    between atoms: C_9  and  C_11
    3  A    between atoms: C_18  and  C_23
                            x       y       z     vdW  Elec       q    Type
                         _______ _______ _______ _____ _____    ______ ____

>  <TORSDO>
F 3

$$$$
=
 OpenBabel10222416003D

 25 28  0  0  1  0  0  0  0  0999 V2000
  180.1310  178.3590  140.2570 C   0  0  0  0  0  3  0  0  0  0  0  0
  184.5910  178.9230  141.7820 N   0  0  0  0  0  0  0  0  0  0  0  0
  182.4260  176.4640  137.1640 C   0  0  0  0  0  1  0  0  0  0  0  0
  181.4440  178.6690  139.6970 N   0  0  0  0  0  0  0  0  0  0  0  0
  186.8980  178.2860  139.0960 O   0  0  0  0  0  0  0  0  0  0  0  0
  185.7690  178.5800  139.8790 C   0  0  0  0  0  0  0  0  0  0  0  0
  186.8890  178.1890  137.6670 C   0  0  2  0  0  3  0  0  0  0  0  0
  184.1370  177.7840  138.3290 N   0  0  0  0  0  0  0  0  0  0  0  0
  180.3300  178.3940  141.7450 C   0  0  0  0  0  3  0  0  0  0  0  0
  182.4710  180.3380  138.4070 O   0  0  0  0  0  0  0  0  0  0  0  0
  183.7040  178.7110  140.6860 C   0  0  0  0  0  0  0  0  0  0  0  0
  182.3620  178.7050  140.7910 C   0  0  0  0  0  0  0  0  0  0  0  0
  184.5070  178.5130  139.4880 C   0  0  0  0  0  0  0  0  0  0  0  0
  184.6320  177.3100  137.0090 C   0  0  2  0  0  3  0  0  0  0  0  0
  183.8310  176.4520  137.7250 C   0  0  2  0  0  3  0  0  0  0  0  0
  181.5490  179.4850  138.5170 C   0  0  0  0  0  0  0  0  0  0  0  0
  185.7980  178.8630  141.3140 C   0  0  0  0  0  2  0  0  0  0  0  0
  181.6050  178.5980  142.0280 C   0  0  0  0  0  0  0  0  0  0  0  0
  186.1030  176.9610  137.1840 C   0  0  0  0  0  2  0  0  0  0  0  0
  180.5140  179.3910  137.4440 C   0  0  0  0  0  2  0  0  0  0  0  0
  181.1060  179.5670  136.1930 O   0  0  0  0  0  1  0  0  0  0  0  0
  188.9670  179.3990  137.2900 N   0  0  0  0  0  1  0  0  0  0  0  0
  188.3220  178.1030  137.1740 C   0  0  0  0  0  2  0  0  0  0  0  0
  182.5330  178.6970  144.4520 N   0  0  0  0  0  0  0  0  0  0  0  0
  182.1190  178.6530  143.3710 C   0  0  0  0  0  0  0  0  0  0  0  0
  1  9  2  0  0  0  0
  4  1  1  0  0  0  0
  4 12  1  0  0  0  0
  5  6  1  0  0  0  0
  6 17  1  0  0  0  0
  7 23  1  1  0  0  0
  7  5  1  0  0  0  0
  8 13  1  0  0  0  0
  9 18  1  0  0  0  0
 10 16  2  0  0  0  0
 11 12  1  0  0  0  0
 11  2  2  0  0  0  0
 12 18  2  0  0  0  0
 13  6  2  0  0  0  0
 13 11  1  0  0  0  0
 14 19  1  1  0  0  0
 14 15  1  0  0  0  0
 14  8  1  0  0  0  0
 15  3  1  6  0  0  0
 15  8  1  0  0  0  0
 16  4  1  0  0  0  0
 17  2  1  0  0  0  0
 18 25  1  0  0  0  0
 19  7  1  0  0  0  0
 20 16  1  0  0  0  0
 21 20  1  0  0  0  0
 23 22  1  0  0  0  0
 25 24  3  0  0  0  0
M  END
>  <MODEL>
8

>  <REMARK>
 VINA RESULT:      -5.5      5.814      8.683
  Name = 
  3 active torsions:
  status: ('A' for Active; 'I' for Inactive)
    1  A    between atoms: C_2  and  C_21
    2  A    between atoms: C_9  and  C_11
    3  A    between atoms: C_18  and  C_23
                            x       y       z     vdW  Elec       q    Type
                         _______ _______ _______ _____ _____    ______ ____

>  <TORSDO>
F 3

$$$$
=
 OpenBabel10222416003D

 25 28  0  0  1  0  0  0  0  0999 V2000
  189.7860  177.0300  145.6900 C   0  0  0  0  0  3  0  0  0  0  0  0
  185.8120  178.4220  143.4980 N   0  0  0  0  0  0  0  0  0  0  0  0
  191.1840  178.0210  141.7540 C   0  0  0  0  0  1  0  0  0  0  0  0
  189.1600  176.8940  144.3770 N   0  0  0  0  0  0  0  0  0  0  0  0
  186.3340  178.4980  139.9390 O   0  0  0  0  0  0  0  0  0  0  0  0
  186.4110  178.2540  141.3210 C   0  0  0  0  0  0  0  0  0  0  0  0
  187.2590  177.9840  138.9730 C   0  0  2  0  0  3  0  0  0  0  0  0
  188.7610  177.8420  141.4020 N   0  0  0  0  0  0  0  0  0  0  0  0
  188.7380  177.6750  146.5500 C   0  0  0  0  0  3  0  0  0  0  0  0
  188.4860  175.2000  142.9010 O   0  0  0  0  0  0  0  0  0  0  0  0
  187.1350  177.9010  143.3900 C   0  0  1  0  0  3  0  0  0  0  0  0
  187.9070  177.5760  144.4450 C   0  0  0  0  0  0  0  0  0  0  0  0
  187.4650  177.7970  141.9760 C   0  0  0  0  0  0  0  0  0  0  0  0
  189.4930  177.8400  140.1070 C   0  0  2  0  0  3  0  0  0  0  0  0
  189.9770  178.6570  141.1010 C   0  0  2  0  0  3  0  0  0  0  0  0
  189.4120  175.7260  143.5770 C   0  0  0  0  0  0  0  0  0  0  0  0
  185.3790  178.6150  142.2910 C   0  0  0  0  0  3  0  0  0  0  0  0
  187.6740  177.9720  145.8240 C   0  0  0  0  0  0  0  0  0  0  0  0
  188.6470  178.6250  139.1150 C   0  0  0  0  0  2  0  0  0  0  0  0
  190.7550  175.0720  143.6030 C   0  0  0  0  0  2  0  0  0  0  0  0
  191.7430  176.0170  143.8800 O   0  0  0  0  0  1  0  0  0  0  0  0
  187.5930  179.1630  136.8700 N   0  0  0  0  0  1  0  0  0  0  0  0
  186.7140  178.2520  137.5820 C   0  0  0  0  0  2  0  0  0  0  0  0
  185.5720  179.1550  146.7870 N   0  0  0  0  0  0  0  0  0  0  0  0
  186.5090  178.6280  146.3570 C   0  0  0  0  0  0  0  0  0  0  0  0
  1  9  2  0  0  0  0
  4 12  1  0  0  0  0
  4  1  1  0  0  0  0
  5  6  1  0  0  0  0
  6 13  2  0  0  0  0
  6 17  1  0  0  0  0
  7 23  1  6  0  0  0
  7 19  1  0  0  0  0
  7  5  1  0  0  0  0
  8 13  1  0  0  0  0
 10 16  2  0  0  0  0
 11  2  1  0  0  0  0
 11 12  1  6  0  0  0
 12 18  2  0  0  0  0
 13 11  1  0  0  0  0
 14 19  1  6  0  0  0
 14 15  1  0  0  0  0
 14  8  1  0  0  0  0
 15  8  1  0  0  0  0
 15  3  1  1  0  0  0
 16 20  1  0  0  0  0
 16  4  1  0  0  0  0
 17  2  2  0  0  0  0
 18 25  1  0  0  0  0
 18  9  1  0  0  0  0
 20 21  1  0  0  0  0
 22 23  1  0  0  0  0
 25 24  3  0  0  0  0
M  END
>  <MODEL>
9

>  <REMARK>
 VINA RESULT:      -4.9      2.174      2.815
  Name = 
  3 active torsions:
  status: ('A' for Active; 'I' for Inactive)
    1  A    between atoms: C_2  and  C_21
    2  A    between atoms: C_9  and  C_11
    3  A    between atoms: C_18  and  C_23
                            x       y       z     vdW  Elec       q    Type
                         _______ _______ _______ _____ _____    ______ ____

>  <TORSDO>
F 3

$$$$
