=
 OpenBabel10222419053D

 50 56  0  0  1  0  0  0  0  0999 V2000
  186.9520  178.0220  137.2460 C   0  0  0  0  0  0  0  0  0  0  0  0
  186.5620  178.6560  135.9290 C   0  0  0  0  0  2  0  0  0  0  0  0
  187.7980  179.1420  136.6590 C   0  0  0  0  0  2  0  0  0  0  0  0
  187.7130  176.7050  137.2820 C   0  0  0  0  0  0  0  0  0  0  0  0
  189.7010  174.7670  135.7900 C   0  0  0  0  0  0  0  0  0  0  0  0
  190.5510  174.5060  134.8970 O   0  0  0  0  0  0  0  0  0  0  0  0
  187.5430  174.2360  136.8270 C   0  0  0  0  0  2  0  0  0  0  0  0
  189.9290  177.1160  138.5780 C   0  0  0  0  0  0  0  0  0  0  0  0
  191.2350  175.6970  137.6010 C   0  0  0  0  0  0  0  0  0  0  0  0
  189.1900  176.5940  137.5210 C   0  0  0  0  0  0  0  0  0  0  0  0
  188.4490  174.1560  135.7370 O   0  0  0  0  0  0  0  0  0  0  0  0
  186.9940  175.6230  136.9310 C   0  0  0  0  0  3  0  0  0  0  0  0
  191.1400  176.5360  138.6520 N   0  0  0  0  0  2  0  0  0  0  0  0
  190.0510  175.7190  136.8710 C   0  0  0  0  0  0  0  0  0  0  0  0
  189.9780  177.5540  141.0040 C   0  0  0  0  0  1  0  0  0  0  0  0
  189.4360  178.0070  139.6620 C   0  0  0  0  0  2  0  0  0  0  0  0
  192.3550  174.2730  137.6240 S   0  0  0  0  0  0  0  0  0  0  0  0
  195.7920  175.5710  134.9410 C   0  0  2  0  0  3  0  0  0  0  0  0
  194.8080  176.6610  135.3340 C   0  0  0  0  0  2  0  0  0  0  0  0
  194.8340  174.0630  136.6490 O   0  0  0  0  0  0  0  0  0  0  0  0
  193.5560  176.0130  135.9040 C   0  0  0  0  0  2  0  0  0  0  0  0
  196.0390  174.6300  136.1320 C   0  0  2  0  0  3  0  0  0  0  0  0
  193.9000  175.0600  137.0470 C   0  0  1  0  0  0  0  0  0  0  0  0
  194.4030  175.8030  138.1180 O   0  0  0  0  0  1  0  0  0  0  0  0
  196.9870  176.1860  134.5940 F   0  0  0  0  0  0  0  0  0  0  0  0
  197.6890  174.2660  137.5580 C   0  0  0  0  0  1  0  0  0  0  0  0
  196.7950  175.2560  137.1390 O   0  0  0  0  0  0  0  0  0  0  0  0
  186.0140  178.4120  138.4050 C   0  0  1  0  0  3  0  0  0  0  0  0
  182.7470  176.2900  137.5380 C   0  0  0  0  0  2  0  0  0  0  0  0
  184.0230  176.7160  138.3410 C   0  0  0  0  0  2  0  0  0  0  0  0
  180.5800  177.6560  137.7460 O   0  0  0  0  0  0  0  0  0  0  0  0
  181.6270  177.9480  138.6340 C   0  0  2  0  0  3  0  0  0  0  0  0
  184.5440  178.1550  138.0050 C   0  0  1  0  0  3  0  0  0  0  0  0
  182.3050  179.2700  138.6560 C   0  0  0  0  0  3  0  0  0  0  0  0
  183.6480  179.3340  138.4340 C   0  0  0  0  0  3  0  0  0  0  0  0
  181.8850  177.5050  137.2400 C   0  0  1  0  0  3  0  0  0  0  0  0
  186.4000  177.7840  139.7600 C   0  0  0  0  0  2  0  0  0  0  0  0
  186.2500  178.7390  140.9460 C   0  0  0  0  0  2  0  0  0  0  0  0
  185.3070  178.1710  142.0070 C   0  0  0  0  0  2  0  0  0  0  0  0
  185.5590  178.3610  145.8790 C   0  0  0  0  0  0  0  0  0  0  0  0
  184.7950  178.6840  146.9980 O   0  0  0  0  0  1  0  0  0  0  0  0
  185.0120  178.5250  144.5870 C   0  0  0  0  0  0  0  0  0  0  0  0
  187.5670  177.4140  144.9200 C   0  0  0  0  0  3  0  0  0  0  0  0
  185.7840  178.1670  143.4400 C   0  0  0  0  0  0  0  0  0  0  0  0
  183.6310  179.0890  144.4780 C   0  0  0  0  0  1  0  0  0  0  0  0
  187.0280  177.5640  143.6390 C   0  0  0  0  0  3  0  0  0  0  0  0
  186.8700  177.8680  146.0330 C   0  0  0  0  0  0  0  0  0  0  0  0
  187.4770  177.6750  147.3800 C   0  0  0  0  0  2  0  0  0  0  0  0
  188.9820  177.5970  147.2680 C   0  0  0  0  0  2  0  0  0  0  0  0
  189.5540  178.2030  148.4010 O   0  0  0  0  0  1  0  0  0  0  0  0
  1  4  1  0  0  0  0
  1 28  1  0  0  0  0
  2  3  1  0  0  0  0
  2  1  1  0  0  0  0
  3  1  1  0  0  0  0
  4 10  1  0  0  0  0
  5 14  1  0  0  0  0
  6  5  2  0  0  0  0
  7 12  1  0  0  0  0
  8 13  1  0  0  0  0
  8 16  1  0  0  0  0
  9 17  1  0  0  0  0
  9 13  1  0  0  0  0
 10  8  2  0  0  0  0
 11  5  1  0  0  0  0
 11  7  1  0  0  0  0
 12  4  2  0  0  0  0
 14 10  1  0  0  0  0
 14  9  2  0  0  0  0
 16 15  1  0  0  0  0
 18 25  1  1  0  0  0
 18 19  1  0  0  0  0
 18 22  1  0  0  0  0
 19 21  1  0  0  0  0
 20 23  1  0  0  0  0
 21 23  1  0  0  0  0
 22 20  1  0  0  0  0
 22 27  1  1  0  0  0
 23 17  1  0  0  0  0
 23 24  1  1  0  0  0
 27 26  1  0  0  0  0
 28 37  1  1  0  0  0
 29 30  1  0  0  0  0
 31 32  1  0  0  0  0
 32 34  1  6  0  0  0
 33 30  1  0  0  0  0
 33 28  1  1  0  0  0
 33 35  1  0  0  0  0
 35 34  2  0  0  0  0
 36 29  1  1  0  0  0
 36 31  1  0  0  0  0
 36 32  1  0  0  0  0
 37 38  1  0  0  0  0
 38 39  1  0  0  0  0
 39 44  1  0  0  0  0
 40 47  1  0  0  0  0
 40 41  1  0  0  0  0
 42 40  2  0  0  0  0
 43 47  2  0  0  0  0
 44 46  2  0  0  0  0
 44 42  1  0  0  0  0
 45 42  1  0  0  0  0
 46 43  1  0  0  0  0
 47 48  1  0  0  0  0
 49 48  1  0  0  0  0
 49 50  1  0  0  0  0
M  END
>  <MODEL>
1

>  <REMARK>
 VINA RESULT:      -7.9      0.000      0.000
  Name = 
  13 active torsions:
  status: ('A' for Active; 'I' for Inactive)
    1  A    between atoms: C_3  and  C_6
    2  A    between atoms: C_3  and  C_11
    3  A    between atoms: C_11  and  C_35
    4  A    between atoms: C_11  and  C_41
    5  A    between atoms: C_12  and  C_36
    6  A    between atoms: C_12  and  C_45
    7  A    between atoms: C_16  and  C_42
    8  A    between atoms: C_24  and  C_37
    9  A    between atoms: C_25  and  O_38
   10  A    between atoms: C_26  and  S_31
   11  A    between atoms: C_27  and  S_31
   12  A    between atoms: C_37  and  C_39
   13  A    between atoms: C_39  and  C_41
                            x       y       z     vdW  Elec       q    Type
                         _______ _______ _______ _____ _____    ______ ____

>  <TORSDO>
F 13

$$$$
=
 OpenBabel10222419053D

 50 56  0  0  1  0  0  0  0  0999 V2000
  186.7150  177.7790  136.9270 C   0  0  0  0  0  0  0  0  0  0  0  0
  187.0830  179.2080  136.5940 C   0  0  0  0  0  2  0  0  0  0  0  0
  187.3020  178.1190  135.5640 C   0  0  0  0  0  2  0  0  0  0  0  0
  185.2760  177.2980  136.8120 C   0  0  0  0  0  0  0  0  0  0  0  0
  183.2780  174.8750  137.0680 C   0  0  0  0  0  0  0  0  0  0  0  0
  182.9690  173.7140  137.4500 O   0  0  0  0  0  0  0  0  0  0  0  0
  183.5270  176.4560  135.2110 C   0  0  0  0  0  2  0  0  0  0  0  0
  184.0930  177.8210  139.0670 C   0  0  0  0  0  0  0  0  0  0  0  0
  182.6620  176.2030  139.1550 C   0  0  0  0  0  0  0  0  0  0  0  0
  184.3940  176.9970  137.9880 C   0  0  0  0  0  0  0  0  0  0  0  0
  183.4050  175.1300  135.7040 O   0  0  0  0  0  0  0  0  0  0  0  0
  184.8720  177.0080  135.5620 C   0  0  0  0  0  3  0  0  0  0  0  0
  183.0190  177.3660  139.7360 N   0  0  0  0  0  2  0  0  0  0  0  0
  183.5020  175.9360  138.0780 C   0  0  0  0  0  0  0  0  0  0  0  0
  183.7060  180.2530  138.9490 C   0  0  0  0  0  1  0  0  0  0  0  0
  184.6720  179.1590  139.3620 C   0  0  0  0  0  2  0  0  0  0  0  0
  180.9690  175.5670  139.2680 S   0  0  0  0  0  0  0  0  0  0  0  0
  180.1080  179.7570  140.8150 C   0  0  2  0  0  3  0  0  0  0  0  0
  179.2220  179.2750  139.6780 C   0  0  0  0  0  2  0  0  0  0  0  0
  180.9620  177.4630  141.1510 O   0  0  0  0  0  0  0  0  0  0  0  0
  179.8580  178.0450  139.0470 C   0  0  0  0  0  2  0  0  0  0  0  0
  180.3870  178.6030  141.7920 C   0  0  2  0  0  3  0  0  0  0  0  0
  180.1450  176.9730  140.0950 C   0  0  1  0  0  0  0  0  0  0  0  0
  178.9310  176.4950  140.5960 O   0  0  0  0  0  1  0  0  0  0  0  0
  179.4240  180.7620  141.4860 F   0  0  0  0  0  0  0  0  0  0  0  0
  179.6610  178.3500  143.8650 C   0  0  0  0  0  1  0  0  0  0  0  0
  179.2420  178.2620  142.5340 O   0  0  0  0  0  0  0  0  0  0  0  0
  187.6760  177.1290  137.9400 C   0  0  1  0  0  3  0  0  0  0  0  0
  191.0650  175.2940  136.9030 C   0  0  0  0  0  2  0  0  0  0  0  0
  190.0050  175.9410  137.8590 C   0  0  0  0  0  2  0  0  0  0  0  0
  190.6800  172.9320  135.9640 O   0  0  0  0  0  0  0  0  0  0  0  0
  189.8150  173.3860  136.9720 C   0  0  2  0  0  3  0  0  0  0  0  0
  188.5810  176.0990  137.2270 C   0  0  1  0  0  3  0  0  0  0  0  0
  188.3570  173.5690  136.7470 C   0  0  0  0  0  3  0  0  0  0  0  0
  187.8040  174.8000  136.9340 C   0  0  0  0  0  3  0  0  0  0  0  0
  190.3900  174.3100  135.9620 C   0  0  1  0  0  3  0  0  0  0  0  0
  188.4600  178.1430  138.7980 C   0  0  0  0  0  2  0  0  0  0  0  0
  187.9540  178.2530  140.2380 C   0  0  0  0  0  2  0  0  0  0  0  0
  188.6670  177.2640  141.1610 C   0  0  0  0  0  2  0  0  0  0  0  0
  188.6970  177.2370  145.0450 C   0  0  0  0  0  0  0  0  0  0  0  0
  189.5720  177.0900  146.1190 O   0  0  0  0  0  1  0  0  0  0  0  0
  189.1790  177.0910  143.7250 C   0  0  0  0  0  0  0  0  0  0  0  0
  186.5100  177.8190  144.1950 C   0  0  0  0  0  3  0  0  0  0  0  0
  188.2890  177.2700  142.6230 C   0  0  0  0  0  0  0  0  0  0  0  0
  190.6200  176.7370  143.5400 C   0  0  0  0  0  1  0  0  0  0  0  0
  186.9820  177.6870  142.8860 C   0  0  0  0  0  3  0  0  0  0  0  0
  187.3390  177.5330  145.2720 C   0  0  0  0  0  0  0  0  0  0  0  0
  186.7970  177.7000  146.6500 C   0  0  0  0  0  2  0  0  0  0  0  0
  185.4630  178.4090  146.6040 C   0  0  0  0  0  2  0  0  0  0  0  0
  185.5780  179.6380  147.2800 O   0  0  0  0  0  1  0  0  0  0  0  0
  1 28  1  0  0  0  0
  2  1  1  0  0  0  0
  3  2  1  0  0  0  0
  3  1  1  0  0  0  0
  4  1  1  0  0  0  0
  4 10  1  0  0  0  0
  5  6  2  0  0  0  0
  5 14  1  0  0  0  0
  7 12  1  0  0  0  0
  7 11  1  0  0  0  0
  8 16  1  0  0  0  0
  8 13  1  0  0  0  0
  9 17  1  0  0  0  0
  9 13  1  0  0  0  0
 10 14  1  0  0  0  0
 10  8  2  0  0  0  0
 11  5  1  0  0  0  0
 12  4  2  0  0  0  0
 14  9  2  0  0  0  0
 15 16  1  0  0  0  0
 17 23  1  0  0  0  0
 18 25  1  1  0  0  0
 18 22  1  0  0  0  0
 19 18  1  0  0  0  0
 20 22  1  0  0  0  0
 21 19  1  0  0  0  0
 21 23  1  0  0  0  0
 22 27  1  6  0  0  0
 23 24  1  1  0  0  0
 23 20  1  0  0  0  0
 27 26  1  0  0  0  0
 28 37  1  6  0  0  0
 29 30  1  0  0  0  0
 31 32  1  0  0  0  0
 32 34  1  6  0  0  0
 33 30  1  0  0  0  0
 33 28  1  1  0  0  0
 34 35  2  0  0  0  0
 35 33  1  0  0  0  0
 36 31  1  0  0  0  0
 36 29  1  1  0  0  0
 36 32  1  0  0  0  0
 37 38  1  0  0  0  0
 38 39  1  0  0  0  0
 39 44  1  0  0  0  0
 40 47  1  0  0  0  0
 40 41  1  0  0  0  0
 42 40  2  0  0  0  0
 43 47  2  0  0  0  0
 44 46  2  0  0  0  0
 44 42  1  0  0  0  0
 45 42  1  0  0  0  0
 46 43  1  0  0  0  0
 47 48  1  0  0  0  0
 49 48  1  0  0  0  0
 49 50  1  0  0  0  0
M  END
>  <MODEL>
2

>  <REMARK>
 VINA RESULT:      -7.2      4.225      9.163
  Name = 
  13 active torsions:
  status: ('A' for Active; 'I' for Inactive)
    1  A    between atoms: C_3  and  C_6
    2  A    between atoms: C_3  and  C_11
    3  A    between atoms: C_11  and  C_35
    4  A    between atoms: C_11  and  C_41
    5  A    between atoms: C_12  and  C_36
    6  A    between atoms: C_12  and  C_45
    7  A    between atoms: C_16  and  C_42
    8  A    between atoms: C_24  and  C_37
    9  A    between atoms: C_25  and  O_38
   10  A    between atoms: C_26  and  S_31
   11  A    between atoms: C_27  and  S_31
   12  A    between atoms: C_37  and  C_39
   13  A    between atoms: C_39  and  C_41
                            x       y       z     vdW  Elec       q    Type
                         _______ _______ _______ _____ _____    ______ ____

>  <TORSDO>
F 13

$$$$
=
 OpenBabel10222419053D

 50 56  0  0  1  0  0  0  0  0999 V2000
  188.3000  177.9190  138.4180 C   0  0  0  0  0  0  0  0  0  0  0  0
  189.0230  179.1540  137.9290 C   0  0  0  0  0  2  0  0  0  0  0  0
  188.3640  178.2260  136.9290 C   0  0  0  0  0  2  0  0  0  0  0  0
  186.8760  178.0080  138.9470 C   0  0  0  0  0  0  0  0  0  0  0  0
  184.2290  179.7090  139.1220 C   0  0  0  0  0  0  0  0  0  0  0  0
  183.4770  180.6500  138.7510 O   0  0  0  0  0  0  0  0  0  0  0  0
  185.4750  178.6360  140.9400 C   0  0  0  0  0  2  0  0  0  0  0  0
  185.3350  176.7670  137.2610 C   0  0  0  0  0  0  0  0  0  0  0  0
  183.5030  177.8930  137.4870 C   0  0  0  0  0  0  0  0  0  0  0  0
  185.6510  177.8310  138.0990 C   0  0  1  0  0  3  0  0  0  0  0  0
  184.8090  179.7610  140.3880 O   0  0  0  0  0  0  0  0  0  0  0  0
  186.7700  178.4110  140.2260 C   0  0  0  0  0  3  0  0  0  0  0  0
  184.0300  176.7800  136.9370 N   0  0  0  0  0  0  0  0  0  0  0  0
  184.4830  178.5760  138.2010 C   0  0  0  0  0  0  0  0  0  0  0  0
  185.4640  174.6530  135.9990 C   0  0  0  0  0  1  0  0  0  0  0  0
  186.1980  175.6030  136.9250 C   0  0  0  0  0  2  0  0  0  0  0  0
  181.7370  178.0160  137.8700 S   0  0  0  0  0  0  0  0  0  0  0  0
  179.9850  173.8180  137.8190 C   0  0  2  0  0  3  0  0  0  0  0  0
  181.4560  173.9290  137.4490 C   0  0  0  0  0  2  0  0  0  0  0  0
  180.0000  176.1430  138.6560 O   0  0  0  0  0  0  0  0  0  0  0  0
  181.7830  175.3860  137.1600 C   0  0  0  0  0  2  0  0  0  0  0  0
  179.6560  174.7920  138.9620 C   0  0  2  0  0  3  0  0  0  0  0  0
  181.3770  176.2840  138.3270 C   0  0  1  0  0  0  0  0  0  0  0  0
  182.1780  175.9790  139.4310 O   0  0  0  0  0  1  0  0  0  0  0  0
  179.7550  172.5190  138.2490 F   0  0  0  0  0  0  0  0  0  0  0  0
  179.2260  174.6400  141.1270 C   0  0  0  0  0  1  0  0  0  0  0  0
  180.2200  174.3730  140.1800 O   0  0  0  0  0  0  0  0  0  0  0  0
  189.2550  176.8230  138.9300 C   0  0  1  0  0  3  0  0  0  0  0  0
  192.1910  175.9990  136.3560 C   0  0  0  0  0  2  0  0  0  0  0  0
  191.5170  176.2550  137.7470 C   0  0  0  0  0  2  0  0  0  0  0  0
  191.8830  173.7370  135.1740 O   0  0  0  0  0  0  0  0  0  0  0  0
  191.4400  173.8500  136.5010 C   0  0  2  0  0  3  0  0  0  0  0  0
  189.9560  176.1330  137.7390 C   0  0  1  0  0  3  0  0  0  0  0  0
  190.0110  173.6960  136.8780 C   0  0  0  0  0  3  0  0  0  0  0  0
  189.3720  174.7260  137.5020 C   0  0  0  0  0  3  0  0  0  0  0  0
  191.3780  174.9950  135.5570 C   0  0  1  0  0  3  0  0  0  0  0  0
  190.2320  177.3050  140.0220 C   0  0  0  0  0  2  0  0  0  0  0  0
  189.5410  177.7580  141.3100 C   0  0  0  0  0  2  0  0  0  0  0  0
  189.2220  176.5730  142.2220 C   0  0  0  0  0  2  0  0  0  0  0  0
  190.7410  176.8510  145.7860 C   0  0  0  0  0  0  0  0  0  0  0  0
  191.9410  176.6630  146.4680 O   0  0  0  0  0  1  0  0  0  0  0  0
  190.6590  176.5300  144.4130 C   0  0  0  0  0  0  0  0  0  0  0  0
  188.4700  177.6800  145.7400 C   0  0  0  0  0  3  0  0  0  0  0  0
  189.4380  176.7510  143.7060 C   0  0  0  0  0  0  0  0  0  0  0  0
  191.8720  175.9540  143.7540 C   0  0  0  0  0  1  0  0  0  0  0  0
  188.3850  177.3760  144.3780 C   0  0  0  0  0  3  0  0  0  0  0  0
  189.6150  177.3620  146.4600 C   0  0  0  0  0  0  0  0  0  0  0  0
  189.6660  177.7170  147.9070 C   0  0  0  0  0  2  0  0  0  0  0  0
  188.3710  178.3730  148.3300 C   0  0  0  0  0  2  0  0  0  0  0  0
  187.6310  177.4590  149.1010 O   0  0  0  0  0  1  0  0  0  0  0  0
  1 28  1  0  0  0  0
  1  4  1  0  0  0  0
  2  1  1  0  0  0  0
  3  2  1  0  0  0  0
  3  1  1  0  0  0  0
  4 12  2  0  0  0  0
  5 11  1  0  0  0  0
  6  5  2  0  0  0  0
  9 17  1  0  0  0  0
  9 14  2  0  0  0  0
 10  8  1  1  0  0  0
 10 14  1  0  0  0  0
 10  4  1  0  0  0  0
 11  7  1  0  0  0  0
 12  7  1  0  0  0  0
 13  8  2  0  0  0  0
 13  9  1  0  0  0  0
 14  5  1  0  0  0  0
 15 16  1  0  0  0  0
 16  8  1  0  0  0  0
 17 23  1  0  0  0  0
 18 25  1  1  0  0  0
 18 22  1  0  0  0  0
 19 18  1  0  0  0  0
 20 22  1  0  0  0  0
 21 19  1  0  0  0  0
 21 23  1  0  0  0  0
 22 27  1  1  0  0  0
 23 20  1  0  0  0  0
 23 24  1  1  0  0  0
 27 26  1  0  0  0  0
 28 37  1  1  0  0  0
 29 30  1  0  0  0  0
 31 36  1  0  0  0  0
 31 32  1  0  0  0  0
 32 34  1  6  0  0  0
 33 30  1  0  0  0  0
 33 28  1  1  0  0  0
 34 35  2  0  0  0  0
 35 33  1  0  0  0  0
 36 29  1  1  0  0  0
 36 32  1  0  0  0  0
 37 38  1  0  0  0  0
 38 39  1  0  0  0  0
 39 44  1  0  0  0  0
 40 47  1  0  0  0  0
 40 41  1  0  0  0  0
 42 40  2  0  0  0  0
 43 47  2  0  0  0  0
 44 46  2  0  0  0  0
 44 42  1  0  0  0  0
 45 42  1  0  0  0  0
 46 43  1  0  0  0  0
 47 48  1  0  0  0  0
 48 49  1  0  0  0  0
 49 50  1  0  0  0  0
M  END
>  <MODEL>
3

>  <REMARK>
 VINA RESULT:      -7.1      3.942      9.030
  Name = 
  13 active torsions:
  status: ('A' for Active; 'I' for Inactive)
    1  A    between atoms: C_3  and  C_6
    2  A    between atoms: C_3  and  C_11
    3  A    between atoms: C_11  and  C_35
    4  A    between atoms: C_11  and  C_41
    5  A    between atoms: C_12  and  C_36
    6  A    between atoms: C_12  and  C_45
    7  A    between atoms: C_16  and  C_42
    8  A    between atoms: C_24  and  C_37
    9  A    between atoms: C_25  and  O_38
   10  A    between atoms: C_26  and  S_31
   11  A    between atoms: C_27  and  S_31
   12  A    between atoms: C_37  and  C_39
   13  A    between atoms: C_39  and  C_41
                            x       y       z     vdW  Elec       q    Type
                         _______ _______ _______ _____ _____    ______ ____

>  <TORSDO>
F 13

$$$$
=
 OpenBabel10222419053D

 50 56  0  0  1  0  0  0  0  0999 V2000
  187.5090  177.3810  137.1760 C   0  0  0  0  0  0  0  0  0  0  0  0
  188.0580  178.5260  136.3540 C   0  0  0  0  0  2  0  0  0  0  0  0
  187.8040  177.1860  135.6960 C   0  0  0  0  0  2  0  0  0  0  0  0
  186.0200  177.2750  137.4680 C   0  0  0  0  0  0  0  0  0  0  0  0
  183.0860  177.7870  136.4360 C   0  0  0  0  0  0  0  0  0  0  0  0
  182.2470  178.0420  135.5310 O   0  0  0  0  0  0  0  0  0  0  0  0
  184.0750  178.4100  138.5910 C   0  0  0  0  0  2  0  0  0  0  0  0
  185.2610  174.8770  136.8140 C   0  0  0  0  0  0  0  0  0  0  0  0
  183.2180  175.2510  136.2150 C   0  0  0  0  0  0  0  0  0  0  0  0
  185.1100  176.2590  136.8440 C   0  0  1  0  0  3  0  0  0  0  0  0
  183.3170  178.7310  137.4350 O   0  0  0  0  0  0  0  0  0  0  0  0
  185.5190  178.2650  138.2290 C   0  0  0  0  0  3  0  0  0  0  0  0
  184.1050  174.2720  136.4850 N   0  0  0  0  0  0  0  0  0  0  0  0
  183.8110  176.4940  136.4120 C   0  0  0  0  0  0  0  0  0  0  0  0
  186.1080  172.6090  137.2850 C   0  0  0  0  0  1  0  0  0  0  0  0
  186.4270  174.0910  137.3020 C   0  0  0  0  0  2  0  0  0  0  0  0
  181.4330  174.9750  136.3530 S   0  0  0  0  0  0  0  0  0  0  0  0
  179.4090  176.0490  140.2840 C   0  0  2  0  0  3  0  0  0  0  0  0
  179.9100  174.6190  140.1640 C   0  0  0  0  0  2  0  0  0  0  0  0
  180.6850  176.6860  138.2650 O   0  0  0  0  0  0  0  0  0  0  0  0
  180.2150  174.3250  138.7030 C   0  0  0  0  0  2  0  0  0  0  0  0
  180.4110  177.0140  139.6280 C   0  0  2  0  0  3  0  0  0  0  0  0
  181.1770  175.3590  138.1210 C   0  0  1  0  0  0  0  0  0  0  0  0
  182.4170  175.2260  138.7510 O   0  0  0  0  0  1  0  0  0  0  0  0
  179.3090  176.3500  141.6350 F   0  0  0  0  0  0  0  0  0  0  0  0
  181.4560  178.3580  141.0400 C   0  0  0  0  0  1  0  0  0  0  0  0
  181.5910  177.1300  140.3840 O   0  0  0  0  0  0  0  0  0  0  0  0
  188.5400  176.7950  138.1600 C   0  0  1  0  0  3  0  0  0  0  0  0
  192.2740  176.2970  136.8400 C   0  0  0  0  0  2  0  0  0  0  0  0
  191.1290  176.5510  137.8800 C   0  0  0  0  0  2  0  0  0  0  0  0
  192.7230  173.9180  135.9760 O   0  0  0  0  0  0  0  0  0  0  0  0
  191.8360  174.0680  137.0530 C   0  0  2  0  0  3  0  0  0  0  0  0
  189.7030  176.1400  137.3810 C   0  0  1  0  0  3  0  0  0  0  0  0
  190.4020  173.6880  136.9610 C   0  0  0  0  0  3  0  0  0  0  0  0
  189.4460  174.6340  137.1810 C   0  0  0  0  0  3  0  0  0  0  0  0
  191.9410  175.0900  135.9800 C   0  0  1  0  0  3  0  0  0  0  0  0
  189.0090  177.7910  139.2400 C   0  0  0  0  0  2  0  0  0  0  0  0
  188.3320  177.5920  140.5980 C   0  0  0  0  0  2  0  0  0  0  0  0
  189.3590  177.3830  141.7110 C   0  0  0  0  0  2  0  0  0  0  0  0
  189.0570  177.4720  145.5830 C   0  0  0  0  0  0  0  0  0  0  0  0
  189.8470  177.4750  146.7300 O   0  0  0  0  0  1  0  0  0  0  0  0
  189.6650  177.3540  144.3140 C   0  0  0  0  0  0  0  0  0  0  0  0
  186.8930  177.7300  144.5340 C   0  0  0  0  0  3  0  0  0  0  0  0
  188.8580  177.3800  143.1360 C   0  0  0  0  0  0  0  0  0  0  0  0
  191.1510  177.1910  144.2620 C   0  0  0  0  0  1  0  0  0  0  0  0
  187.4900  177.6250  143.2740 C   0  0  0  0  0  3  0  0  0  0  0  0
  187.6560  177.5900  145.6860 C   0  0  0  0  0  0  0  0  0  0  0  0
  186.9810  177.7220  147.0080 C   0  0  0  0  0  2  0  0  0  0  0  0
  185.6400  178.4000  146.8420 C   0  0  0  0  0  2  0  0  0  0  0  0
  185.6910  179.6640  147.4590 O   0  0  0  0  0  1  0  0  0  0  0  0
  1  4  1  0  0  0  0
  1 28  1  0  0  0  0
  2  1  1  0  0  0  0
  3  2  1  0  0  0  0
  3  1  1  0  0  0  0
  4 12  2  0  0  0  0
  5 11  1  0  0  0  0
  6  5  2  0  0  0  0
  8 10  1  0  0  0  0
  8 16  1  0  0  0  0
  9 17  1  0  0  0  0
  9 14  2  0  0  0  0
  9 13  1  0  0  0  0
 10 14  1  1  0  0  0
 10  4  1  0  0  0  0
 11  7  1  0  0  0  0
 12  7  1  0  0  0  0
 13  8  2  0  0  0  0
 14  5  1  0  0  0  0
 15 16  1  0  0  0  0
 17 23  1  0  0  0  0
 18 25  1  1  0  0  0
 19 18  1  0  0  0  0
 20 22  1  0  0  0  0
 21 19  1  0  0  0  0
 22 18  1  0  0  0  0
 22 27  1  1  0  0  0
 23 20  1  0  0  0  0
 23 21  1  0  0  0  0
 23 24  1  1  0  0  0
 27 26  1  0  0  0  0
 28 37  1  1  0  0  0
 29 30  1  0  0  0  0
 31 36  1  0  0  0  0
 31 32  1  0  0  0  0
 32 34  1  6  0  0  0
 33 30  1  0  0  0  0
 33 28  1  1  0  0  0
 34 35  2  0  0  0  0
 35 33  1  0  0  0  0
 36 29  1  1  0  0  0
 36 32  1  0  0  0  0
 37 38  1  0  0  0  0
 38 39  1  0  0  0  0
 39 44  1  0  0  0  0
 40 47  1  0  0  0  0
 40 41  1  0  0  0  0
 42 40  2  0  0  0  0
 43 47  2  0  0  0  0
 44 46  2  0  0  0  0
 44 42  1  0  0  0  0
 45 42  1  0  0  0  0
 46 43  1  0  0  0  0
 47 48  1  0  0  0  0
 49 48  1  0  0  0  0
 49 50  1  0  0  0  0
M  END
>  <MODEL>
4

>  <REMARK>
 VINA RESULT:      -6.9      3.907      8.945
  Name = 
  13 active torsions:
  status: ('A' for Active; 'I' for Inactive)
    1  A    between atoms: C_3  and  C_6
    2  A    between atoms: C_3  and  C_11
    3  A    between atoms: C_11  and  C_35
    4  A    between atoms: C_11  and  C_41
    5  A    between atoms: C_12  and  C_36
    6  A    between atoms: C_12  and  C_45
    7  A    between atoms: C_16  and  C_42
    8  A    between atoms: C_24  and  C_37
    9  A    between atoms: C_25  and  O_38
   10  A    between atoms: C_26  and  S_31
   11  A    between atoms: C_27  and  S_31
   12  A    between atoms: C_37  and  C_39
   13  A    between atoms: C_39  and  C_41
                            x       y       z     vdW  Elec       q    Type
                         _______ _______ _______ _____ _____    ______ ____

>  <TORSDO>
F 13

$$$$
=
 OpenBabel10222419053D

 50 56  0  0  1  0  0  0  0  0999 V2000
  188.3560  177.2460  137.0560 C   0  0  0  0  0  0  0  0  0  0  0  0
  188.2110  178.7510  137.0210 C   0  0  0  0  0  2  0  0  0  0  0  0
  189.0550  178.0550  135.9730 C   0  0  0  0  0  2  0  0  0  0  0  0
  187.2770  176.3460  136.4740 C   0  0  0  0  0  0  0  0  0  0  0  0
  185.8870  173.5180  136.5320 C   0  0  0  0  0  0  0  0  0  0  0  0
  185.6440  172.4000  137.0630 O   0  0  0  0  0  0  0  0  0  0  0  0
  186.7350  174.7600  134.5960 C   0  0  0  0  0  2  0  0  0  0  0  0
  185.0600  176.8690  137.7270 C   0  0  0  0  0  0  0  0  0  0  0  0
  184.0910  174.9370  137.6530 C   0  0  0  0  0  0  0  0  0  0  0  0
  185.9980  176.0000  137.1800 C   0  0  0  0  0  0  0  0  0  0  0  0
  186.6250  173.5630  135.3510 O   0  0  0  0  0  0  0  0  0  0  0  0
  187.6050  175.7390  135.3180 C   0  0  0  0  0  3  0  0  0  0  0  0
  183.8970  176.2350  137.9620 N   0  0  0  0  0  2  0  0  0  0  0  0
  185.3860  174.7530  137.1790 C   0  0  0  0  0  0  0  0  0  0  0  0
  185.2390  178.7640  139.2940 C   0  0  0  0  0  1  0  0  0  0  0  0
  185.1650  178.3490  137.8380 C   0  0  0  0  0  2  0  0  0  0  0  0
  182.7110  173.8550  137.1990 S   0  0  0  0  0  0  0  0  0  0  0  0
  180.2660  177.3290  138.8280 C   0  0  2  0  0  3  0  0  0  0  0  0
  180.0040  176.9550  137.3780 C   0  0  0  0  0  2  0  0  0  0  0  0
  181.5290  175.2310  139.1620 O   0  0  0  0  0  0  0  0  0  0  0  0
  181.1270  176.0510  136.8910 C   0  0  0  0  0  2  0  0  0  0  0  0
  180.4810  176.0590  139.6680 C   0  0  2  0  0  3  0  0  0  0  0  0
  181.3020  174.8450  137.8110 C   0  0  1  0  0  0  0  0  0  0  0  0
  180.1660  174.0370  137.7170 O   0  0  0  0  0  1  0  0  0  0  0  0
  179.1450  177.9990  139.3000 F   0  0  0  0  0  0  0  0  0  0  0  0
  179.5140  174.5630  140.9780 C   0  0  0  0  0  1  0  0  0  0  0  0
  179.2840  175.3400  139.8390 O   0  0  0  0  0  0  0  0  0  0  0  0
  189.2420  176.7510  138.2160 C   0  0  1  0  0  3  0  0  0  0  0  0
  193.2090  176.5480  137.8290 C   0  0  0  0  0  2  0  0  0  0  0  0
  191.8290  176.6100  138.5710 C   0  0  0  0  0  2  0  0  0  0  0  0
  194.0010  174.3440  136.7690 O   0  0  0  0  0  0  0  0  0  0  0  0
  192.8670  174.3040  137.5950 C   0  0  2  0  0  3  0  0  0  0  0  0
  190.5980  176.2530  137.6710 C   0  0  1  0  0  3  0  0  0  0  0  0
  191.5270  173.9120  137.0870 C   0  0  0  0  0  3  0  0  0  0  0  0
  190.4910  174.7910  137.1930 C   0  0  0  0  0  3  0  0  0  0  0  0
  193.1730  175.4830  136.7460 C   0  0  1  0  0  3  0  0  0  0  0  0
  189.3800  177.7630  139.3720 C   0  0  0  0  0  2  0  0  0  0  0  0
  188.6170  177.3610  140.6370 C   0  0  0  0  0  2  0  0  0  0  0  0
  189.5470  177.2670  141.8470 C   0  0  0  0  0  2  0  0  0  0  0  0
  188.8610  177.6280  145.6530 C   0  0  0  0  0  0  0  0  0  0  0  0
  189.5260  177.8610  146.8550 O   0  0  0  0  0  1  0  0  0  0  0  0
  189.6010  177.5080  144.4560 C   0  0  0  0  0  0  0  0  0  0  0  0
  186.7960  177.4290  144.4110 C   0  0  0  0  0  3  0  0  0  0  0  0
  188.9170  177.2990  143.2190 C   0  0  0  0  0  0  0  0  0  0  0  0
  191.0910  177.5950  144.5410 C   0  0  0  0  0  1  0  0  0  0  0  0
  187.5200  177.3210  143.2210 C   0  0  0  0  0  3  0  0  0  0  0  0
  187.4570  177.5170  145.6300 C   0  0  0  0  0  0  0  0  0  0  0  0
  186.6440  177.6440  146.8720 C   0  0  0  0  0  2  0  0  0  0  0  0
  186.0370  179.0260  146.9600 C   0  0  0  0  0  2  0  0  0  0  0  0
  184.7110  178.9690  146.4940 O   0  0  0  0  0  1  0  0  0  0  0  0
  1 28  1  0  0  0  0
  2  1  1  0  0  0  0
  3  2  1  0  0  0  0
  3  1  1  0  0  0  0
  4  1  1  0  0  0  0
  4 10  1  0  0  0  0
  5  6  2  0  0  0  0
  5 14  1  0  0  0  0
  7 12  1  0  0  0  0
  7 11  1  0  0  0  0
  8 16  1  0  0  0  0
  8 13  1  0  0  0  0
  9 13  1  0  0  0  0
 10  8  2  0  0  0  0
 11  5  1  0  0  0  0
 12  4  2  0  0  0  0
 14 10  1  0  0  0  0
 14  9  2  0  0  0  0
 16 15  1  0  0  0  0
 17  9  1  0  0  0  0
 17 23  1  0  0  0  0
 18 25  1  1  0  0  0
 18 22  1  0  0  0  0
 19 18  1  0  0  0  0
 20 22  1  0  0  0  0
 21 19  1  0  0  0  0
 21 23  1  0  0  0  0
 22 27  1  6  0  0  0
 23 24  1  6  0  0  0
 23 20  1  0  0  0  0
 27 26  1  0  0  0  0
 28 37  1  1  0  0  0
 29 30  1  0  0  0  0
 31 32  1  0  0  0  0
 32 34  1  6  0  0  0
 33 28  1  1  0  0  0
 33 30  1  0  0  0  0
 34 35  2  0  0  0  0
 35 33  1  0  0  0  0
 36 31  1  0  0  0  0
 36 32  1  0  0  0  0
 36 29  1  1  0  0  0
 37 38  1  0  0  0  0
 38 39  1  0  0  0  0
 39 44  1  0  0  0  0
 40 41  1  0  0  0  0
 42 45  1  0  0  0  0
 42 40  2  0  0  0  0
 43 47  2  0  0  0  0
 44 46  2  0  0  0  0
 44 42  1  0  0  0  0
 46 43  1  0  0  0  0
 47 40  1  0  0  0  0
 47 48  1  0  0  0  0
 48 49  1  0  0  0  0
 50 49  1  0  0  0  0
M  END
>  <MODEL>
5

>  <REMARK>
 VINA RESULT:      -6.8      3.647      8.830
  Name = 
  13 active torsions:
  status: ('A' for Active; 'I' for Inactive)
    1  A    between atoms: C_3  and  C_6
    2  A    between atoms: C_3  and  C_11
    3  A    between atoms: C_11  and  C_35
    4  A    between atoms: C_11  and  C_41
    5  A    between atoms: C_12  and  C_36
    6  A    between atoms: C_12  and  C_45
    7  A    between atoms: C_16  and  C_42
    8  A    between atoms: C_24  and  C_37
    9  A    between atoms: C_25  and  O_38
   10  A    between atoms: C_26  and  S_31
   11  A    between atoms: C_27  and  S_31
   12  A    between atoms: C_37  and  C_39
   13  A    between atoms: C_39  and  C_41
                            x       y       z     vdW  Elec       q    Type
                         _______ _______ _______ _____ _____    ______ ____

>  <TORSDO>
F 13

$$$$
=
 OpenBabel10222419053D

 50 56  0  0  1  0  0  0  0  0999 V2000
  187.6650  177.5920  136.9560 C   0  0  0  0  0  0  0  0  0  0  0  0
  188.3850  178.9180  137.0650 C   0  0  0  0  0  2  0  0  0  0  0  0
  188.5120  178.0980  135.7970 C   0  0  0  0  0  2  0  0  0  0  0  0
  186.1900  177.5360  136.5870 C   0  0  0  0  0  0  0  0  0  0  0  0
  183.6780  175.7150  136.0280 C   0  0  0  0  0  0  0  0  0  0  0  0
  183.0600  174.6180  136.0710 O   0  0  0  0  0  0  0  0  0  0  0  0
  184.5640  177.5510  134.6660 C   0  0  0  0  0  2  0  0  0  0  0  0
  184.8220  177.8300  138.7780 C   0  0  0  0  0  0  0  0  0  0  0  0
  183.0650  176.6570  138.3160 C   0  0  0  0  0  0  0  0  0  0  0  0
  185.0910  177.2180  137.5590 C   0  0  0  0  0  0  0  0  0  0  0  0
  184.0700  176.2270  134.7920 O   0  0  0  0  0  0  0  0  0  0  0  0
  185.9280  177.6450  135.2720 C   0  0  0  0  0  3  0  0  0  0  0  0
  183.5820  177.5300  139.2040 N   0  0  0  0  0  2  0  0  0  0  0  0
  183.9790  176.4300  137.2910 C   0  0  0  0  0  0  0  0  0  0  0  0
  185.2200  179.0050  140.9090 C   0  0  0  0  0  1  0  0  0  0  0  0
  185.6360  178.8740  139.4570 C   0  0  0  0  0  2  0  0  0  0  0  0
  181.2760  176.4700  138.1030 S   0  0  0  0  0  0  0  0  0  0  0  0
  181.4450  181.0160  138.1790 C   0  0  2  0  0  3  0  0  0  0  0  0
  181.0170  180.3890  136.8620 C   0  0  0  0  0  2  0  0  0  0  0  0
  181.1670  178.8440  139.3260 O   0  0  0  0  0  0  0  0  0  0  0  0
  181.3590  178.9080  136.8870 C   0  0  0  0  0  2  0  0  0  0  0  0
  180.8380  180.2340  139.3560 C   0  0  2  0  0  3  0  0  0  0  0  0
  180.7590  178.2230  138.1120 C   0  0  1  0  0  0  0  0  0  0  0  0
  179.3660  178.2370  138.0000 O   0  0  0  0  0  1  0  0  0  0  0  0
  180.9630  182.3180  138.2040 F   0  0  0  0  0  0  0  0  0  0  0  0
  179.2630  180.8690  140.7730 C   0  0  0  0  0  1  0  0  0  0  0  0
  179.4500  180.4390  139.4560 O   0  0  0  0  0  0  0  0  0  0  0  0
  188.2920  176.4890  137.8300 C   0  0  1  0  0  3  0  0  0  0  0  0
  189.9550  173.3010  136.0990 C   0  0  0  0  0  2  0  0  0  0  0  0
  189.6860  174.3620  137.2210 C   0  0  0  0  0  2  0  0  0  0  0  0
  188.2860  171.3850  135.7140 O   0  0  0  0  0  0  0  0  0  0  0  0
  188.1140  172.1840  136.8540 C   0  0  2  0  0  3  0  0  0  0  0  0
  188.3500  175.1610  137.0440 C   0  0  1  0  0  3  0  0  0  0  0  0
  186.9030  173.0190  137.0650 C   0  0  0  0  0  3  0  0  0  0  0  0
  187.0400  174.3660  137.2170 C   0  0  0  0  0  3  0  0  0  0  0  0
  188.6410  172.7410  135.5820 C   0  0  1  0  0  3  0  0  0  0  0  0
  189.6410  176.8870  138.4640 C   0  0  0  0  0  2  0  0  0  0  0  0
  189.5000  177.6970  139.7550 C   0  0  0  0  0  2  0  0  0  0  0  0
  188.8250  176.8810  140.8580 C   0  0  0  0  0  2  0  0  0  0  0  0
  189.2040  177.1420  144.7150 C   0  0  0  0  0  0  0  0  0  0  0  0
  188.4370  177.1950  145.8770 O   0  0  0  0  0  1  0  0  0  0  0  0
  188.5660  177.1180  143.4560 C   0  0  0  0  0  0  0  0  0  0  0  0
  191.3590  176.9110  143.6420 C   0  0  0  0  0  3  0  0  0  0  0  0
  189.3520  177.0330  142.2660 C   0  0  0  0  0  0  0  0  0  0  0  0
  187.0730  177.1940  143.4250 C   0  0  0  0  0  1  0  0  0  0  0  0
  190.7340  176.8750  142.3920 C   0  0  0  0  0  3  0  0  0  0  0  0
  190.6110  177.1090  144.7960 C   0  0  0  0  0  0  0  0  0  0  0  0
  191.3170  177.1280  146.1080 C   0  0  0  0  0  2  0  0  0  0  0  0
  192.0580  175.8270  146.3200 C   0  0  0  0  0  2  0  0  0  0  0  0
  192.2740  175.6480  147.6980 O   0  0  0  0  0  1  0  0  0  0  0  0
  1  2  1  0  0  0  0
  1 28  1  0  0  0  0
  3  1  1  0  0  0  0
  3  2  1  0  0  0  0
  4  1  1  0  0  0  0
  4 10  1  0  0  0  0
  5  6  2  0  0  0  0
  5 14  1  0  0  0  0
  7 11  1  0  0  0  0
  7 12  1  0  0  0  0
  8 13  1  0  0  0  0
  8 16  1  0  0  0  0
  9 13  1  0  0  0  0
 10  8  2  0  0  0  0
 11  5  1  0  0  0  0
 12  4  2  0  0  0  0
 14 10  1  0  0  0  0
 14  9  2  0  0  0  0
 16 15  1  0  0  0  0
 17 23  1  0  0  0  0
 17  9  1  0  0  0  0
 18 25  1  6  0  0  0
 18 22  1  0  0  0  0
 19 21  1  0  0  0  0
 19 18  1  0  0  0  0
 20 22  1  0  0  0  0
 21 23  1  0  0  0  0
 22 27  1  6  0  0  0
 23 24  1  6  0  0  0
 23 20  1  0  0  0  0
 27 26  1  0  0  0  0
 28 37  1  6  0  0  0
 29 30  1  0  0  0  0
 31 32  1  0  0  0  0
 32 34  1  6  0  0  0
 33 35  1  0  0  0  0
 33 30  1  0  0  0  0
 33 28  1  1  0  0  0
 34 35  2  0  0  0  0
 36 31  1  0  0  0  0
 36 29  1  1  0  0  0
 36 32  1  0  0  0  0
 37 38  1  0  0  0  0
 38 39  1  0  0  0  0
 39 44  1  0  0  0  0
 40 47  1  0  0  0  0
 40 41  1  0  0  0  0
 42 40  2  0  0  0  0
 43 47  2  0  0  0  0
 44 46  2  0  0  0  0
 44 42  1  0  0  0  0
 45 42  1  0  0  0  0
 46 43  1  0  0  0  0
 47 48  1  0  0  0  0
 48 49  1  0  0  0  0
 49 50  1  0  0  0  0
M  END
>  <MODEL>
6

>  <REMARK>
 VINA RESULT:      -6.5      4.608      8.708
  Name = 
  13 active torsions:
  status: ('A' for Active; 'I' for Inactive)
    1  A    between atoms: C_3  and  C_6
    2  A    between atoms: C_3  and  C_11
    3  A    between atoms: C_11  and  C_35
    4  A    between atoms: C_11  and  C_41
    5  A    between atoms: C_12  and  C_36
    6  A    between atoms: C_12  and  C_45
    7  A    between atoms: C_16  and  C_42
    8  A    between atoms: C_24  and  C_37
    9  A    between atoms: C_25  and  O_38
   10  A    between atoms: C_26  and  S_31
   11  A    between atoms: C_27  and  S_31
   12  A    between atoms: C_37  and  C_39
   13  A    between atoms: C_39  and  C_41
                            x       y       z     vdW  Elec       q    Type
                         _______ _______ _______ _____ _____    ______ ____

>  <TORSDO>
F 13

$$$$
=
 OpenBabel10222419053D

 50 56  0  0  1  0  0  0  0  0999 V2000
  188.2220  178.1530  138.0450 C   0  0  0  0  0  0  0  0  0  0  0  0
  188.7860  179.4950  138.4550 C   0  0  0  0  0  2  0  0  0  0  0  0
  189.4270  178.7290  137.3150 C   0  0  0  0  0  2  0  0  0  0  0  0
  187.0060  178.0640  137.1340 C   0  0  0  0  0  0  0  0  0  0  0  0
  185.0250  176.1890  135.5550 C   0  0  0  0  0  0  0  0  0  0  0  0
  184.5110  175.0670  135.2980 O   0  0  0  0  0  0  0  0  0  0  0  0
  186.2390  178.1560  134.7390 C   0  0  0  0  0  2  0  0  0  0  0  0
  184.8900  178.1370  138.6420 C   0  0  0  0  0  0  0  0  0  0  0  0
  183.5250  176.9320  137.4770 C   0  0  0  0  0  0  0  0  0  0  0  0
  185.6440  177.6300  137.5890 C   0  0  0  0  0  0  0  0  0  0  0  0
  185.8240  176.8070  134.5940 O   0  0  0  0  0  0  0  0  0  0  0  0
  187.2600  178.2610  135.8270 C   0  0  0  0  0  3  0  0  0  0  0  0
  183.6040  177.7560  138.5410 N   0  0  0  0  0  2  0  0  0  0  0  0
  184.7730  176.8190  136.8730 C   0  0  0  0  0  0  0  0  0  0  0  0
  184.9200  178.7280  141.0350 C   0  0  0  0  0  1  0  0  0  0  0  0
  185.3130  179.1600  139.6360 C   0  0  0  0  0  2  0  0  0  0  0  0
  181.9680  176.6890  136.5820 S   0  0  0  0  0  0  0  0  0  0  0  0
  179.9080  172.6550  137.0020 C   0  0  2  0  0  3  0  0  0  0  0  0
  181.4010  172.6110  136.7180 C   0  0  0  0  0  2  0  0  0  0  0  0
  180.0530  175.0700  137.5050 O   0  0  0  0  0  0  0  0  0  0  0  0
  181.8540  173.9860  136.2510 C   0  0  0  0  0  2  0  0  0  0  0  0
  179.5900  173.8030  137.9740 C   0  0  2  0  0  3  0  0  0  0  0  0
  181.4530  175.0690  137.2510 C   0  0  1  0  0  0  0  0  0  0  0  0
  182.1650  174.8730  138.4370 O   0  0  0  0  0  1  0  0  0  0  0  0
  179.5560  171.4490  137.5930 F   0  0  0  0  0  0  0  0  0  0  0  0
  179.0950  174.1120  140.1070 C   0  0  0  0  0  1  0  0  0  0  0  0
  180.0520  173.5260  139.2730 O   0  0  0  0  0  0  0  0  0  0  0  0
  188.5130  177.0380  139.0670 C   0  0  1  0  0  3  0  0  0  0  0  0
  188.7980  173.9620  136.5400 C   0  0  0  0  0  2  0  0  0  0  0  0
  188.4800  175.4230  137.0100 C   0  0  0  0  0  2  0  0  0  0  0  0
  191.2290  173.2560  136.0900 O   0  0  0  0  0  0  0  0  0  0  0  0
  190.9710  174.6180  136.3060 C   0  0  2  0  0  3  0  0  0  0  0  0
  189.1630  175.8280  138.3600 C   0  0  1  0  0  3  0  0  0  0  0  0
  191.5410  175.3630  137.4590 C   0  0  0  0  0  3  0  0  0  0  0  0
  190.6990  175.9640  138.3460 C   0  0  0  0  0  3  0  0  0  0  0  0
  190.1910  173.5580  136.9930 C   0  0  1  0  0  3  0  0  0  0  0  0
  189.2940  177.5160  140.3080 C   0  0  0  0  0  2  0  0  0  0  0  0
  188.4000  177.8950  141.4910 C   0  0  0  0  0  2  0  0  0  0  0  0
  188.2800  176.7480  142.4940 C   0  0  0  0  0  2  0  0  0  0  0  0
  188.9820  177.2270  146.2840 C   0  0  0  0  0  0  0  0  0  0  0  0
  188.3190  177.4630  147.4860 O   0  0  0  0  0  1  0  0  0  0  0  0
  188.2520  177.1990  145.0750 C   0  0  0  0  0  0  0  0  0  0  0  0
  191.0010  176.6340  145.0920 C   0  0  0  0  0  3  0  0  0  0  0  0
  188.9270  176.9270  143.8460 C   0  0  0  0  0  0  0  0  0  0  0  0
  186.7830  177.4730  145.1370 C   0  0  0  0  0  1  0  0  0  0  0  0
  190.2830  176.5940  143.8930 C   0  0  0  0  0  3  0  0  0  0  0  0
  190.3740  177.0110  146.2730 C   0  0  0  0  0  0  0  0  0  0  0  0
  191.1750  177.0270  147.5300 C   0  0  0  0  0  2  0  0  0  0  0  0
  191.9380  175.7300  147.6780 C   0  0  0  0  0  2  0  0  0  0  0  0
  193.2090  176.0110  148.2120 O   0  0  0  0  0  1  0  0  0  0  0  0
  1  2  1  0  0  0  0
  1 28  1  0  0  0  0
  3  1  1  0  0  0  0
  3  2  1  0  0  0  0
  4 10  1  0  0  0  0
  4  1  1  0  0  0  0
  5 14  1  0  0  0  0
  6  5  2  0  0  0  0
  7 12  1  0  0  0  0
  8 16  1  0  0  0  0
  9 13  1  0  0  0  0
 10  8  2  0  0  0  0
 11  7  1  0  0  0  0
 11  5  1  0  0  0  0
 12  4  2  0  0  0  0
 13  8  1  0  0  0  0
 14  9  2  0  0  0  0
 14 10  1  0  0  0  0
 16 15  1  0  0  0  0
 17 23  1  0  0  0  0
 17  9  1  0  0  0  0
 18 25  1  1  0  0  0
 18 22  1  0  0  0  0
 19 18  1  0  0  0  0
 20 22  1  0  0  0  0
 21 19  1  0  0  0  0
 21 23  1  0  0  0  0
 22 27  1  1  0  0  0
 23 20  1  0  0  0  0
 23 24  1  1  0  0  0
 27 26  1  0  0  0  0
 28 37  1  1  0  0  0
 29 30  1  0  0  0  0
 30 33  1  0  0  0  0
 31 32  1  0  0  0  0
 31 36  1  0  0  0  0
 32 36  1  0  0  0  0
 32 34  1  1  0  0  0
 33 28  1  6  0  0  0
 34 35  2  0  0  0  0
 35 33  1  0  0  0  0
 36 29  1  6  0  0  0
 37 38  1  0  0  0  0
 38 39  1  0  0  0  0
 39 44  1  0  0  0  0
 40 41  1  0  0  0  0
 42 45  1  0  0  0  0
 42 40  2  0  0  0  0
 43 47  2  0  0  0  0
 44 46  2  0  0  0  0
 44 42  1  0  0  0  0
 46 43  1  0  0  0  0
 47 40  1  0  0  0  0
 47 48  1  0  0  0  0
 48 49  1  0  0  0  0
 49 50  1  0  0  0  0
M  END
>  <MODEL>
7

>  <REMARK>
 VINA RESULT:      -6.4      4.031      8.503
  Name = 
  13 active torsions:
  status: ('A' for Active; 'I' for Inactive)
    1  A    between atoms: C_3  and  C_6
    2  A    between atoms: C_3  and  C_11
    3  A    between atoms: C_11  and  C_35
    4  A    between atoms: C_11  and  C_41
    5  A    between atoms: C_12  and  C_36
    6  A    between atoms: C_12  and  C_45
    7  A    between atoms: C_16  and  C_42
    8  A    between atoms: C_24  and  C_37
    9  A    between atoms: C_25  and  O_38
   10  A    between atoms: C_26  and  S_31
   11  A    between atoms: C_27  and  S_31
   12  A    between atoms: C_37  and  C_39
   13  A    between atoms: C_39  and  C_41
                            x       y       z     vdW  Elec       q    Type
                         _______ _______ _______ _____ _____    ______ ____

>  <TORSDO>
F 13

$$$$
=
 OpenBabel10222419053D

 50 56  0  0  1  0  0  0  0  0999 V2000
  188.1940  177.7500  137.4380 C   0  0  0  0  0  0  0  0  0  0  0  0
  188.5840  179.1430  137.8790 C   0  0  0  0  0  2  0  0  0  0  0  0
  189.0780  178.6120  136.5490 C   0  0  0  0  0  2  0  0  0  0  0  0
  186.8400  177.4870  136.7950 C   0  0  0  0  0  0  0  0  0  0  0  0
  184.6900  175.3400  135.9580 C   0  0  0  0  0  0  0  0  0  0  0  0
  184.1860  174.1850  135.9980 O   0  0  0  0  0  0  0  0  0  0  0  0
  185.6540  177.1410  134.6020 C   0  0  0  0  0  2  0  0  0  0  0  0
  185.0260  177.8080  138.6290 C   0  0  0  0  0  0  0  0  0  0  0  0
  183.5270  176.4000  137.9620 C   0  0  0  0  0  0  0  0  0  0  0  0
  185.6010  177.1280  137.5610 C   0  0  0  0  0  0  0  0  0  0  0  0
  185.2770  175.7840  134.7740 O   0  0  0  0  0  0  0  0  0  0  0  0
  186.8480  177.4490  135.4500 C   0  0  0  0  0  3  0  0  0  0  0  0
  183.7600  177.4030  138.8330 N   0  0  0  0  0  2  0  0  0  0  0  0
  184.6500  176.1940  137.1690 C   0  0  0  0  0  0  0  0  0  0  0  0
  185.1760  178.9720  140.7970 C   0  0  0  0  0  1  0  0  0  0  0  0
  185.5760  178.9970  139.3350 C   0  0  0  0  0  2  0  0  0  0  0  0
  181.8470  175.9850  137.4230 S   0  0  0  0  0  0  0  0  0  0  0  0
  179.9540  179.9770  136.3380 C   0  0  2  0  0  3  0  0  0  0  0  0
  179.0050  178.9140  136.8670 C   0  0  0  0  0  2  0  0  0  0  0  0
  181.8970  178.6330  137.0650 O   0  0  0  0  0  0  0  0  0  0  0  0
  179.7070  177.5650  136.8320 C   0  0  0  0  0  2  0  0  0  0  0  0
  181.2850  179.9230  137.1070 C   0  0  2  0  0  3  0  0  0  0  0  0
  181.0400  177.6180  137.5750 C   0  0  1  0  0  0  0  0  0  0  0  0
  180.7920  177.8240  138.9350 O   0  0  0  0  0  1  0  0  0  0  0  0
  179.3600  181.2150  136.5470 F   0  0  0  0  0  0  0  0  0  0  0  0
  182.3860  180.9600  138.7200 C   0  0  0  0  0  1  0  0  0  0  0  0
  181.1430  180.3920  138.4250 O   0  0  0  0  0  0  0  0  0  0  0  0
  188.9050  176.6410  138.2370 C   0  0  1  0  0  3  0  0  0  0  0  0
  192.4740  175.6420  136.7570 C   0  0  0  0  0  2  0  0  0  0  0  0
  191.3970  175.9450  137.8550 C   0  0  0  0  0  2  0  0  0  0  0  0
  192.4510  173.3900  135.5180 O   0  0  0  0  0  0  0  0  0  0  0  0
  191.6050  173.5370  136.6280 C   0  0  2  0  0  3  0  0  0  0  0  0
  189.9200  175.9060  137.3350 C   0  0  1  0  0  3  0  0  0  0  0  0
  190.1240  173.4630  136.5150 C   0  0  0  0  0  3  0  0  0  0  0  0
  189.3730  174.5300  136.9060 C   0  0  0  0  0  3  0  0  0  0  0  0
  191.9150  174.6760  135.7270 C   0  0  1  0  0  3  0  0  0  0  0  0
  189.5080  177.1230  139.5730 C   0  0  0  0  0  2  0  0  0  0  0  0
  188.4650  177.3890  140.6600 C   0  0  0  0  0  2  0  0  0  0  0  0
  188.9790  178.3860  141.6990 C   0  0  0  0  0  2  0  0  0  0  0  0
  189.9700  177.5560  145.3620 C   0  0  0  0  0  0  0  0  0  0  0  0
  191.0840  177.5060  146.1970 O   0  0  0  0  0  1  0  0  0  0  0  0
  190.1330  177.8700  143.9950 C   0  0  0  0  0  0  0  0  0  0  0  0
  187.5700  177.4910  145.0730 C   0  0  0  0  0  3  0  0  0  0  0  0
  188.9880  177.9500  143.1450 C   0  0  0  0  0  0  0  0  0  0  0  0
  191.5220  178.0970  143.4890 C   0  0  0  0  0  1  0  0  0  0  0  0
  187.7230  177.8130  143.7210 C   0  0  0  0  0  3  0  0  0  0  0  0
  188.6850  177.2980  145.8790 C   0  0  0  0  0  0  0  0  0  0  0  0
  188.4740  176.9690  147.3170 C   0  0  0  0  0  2  0  0  0  0  0  0
  187.8310  178.1370  148.0310 C   0  0  0  0  0  2  0  0  0  0  0  0
  188.3130  178.1820  149.3520 O   0  0  0  0  0  1  0  0  0  0  0  0
  1  2  1  0  0  0  0
  1 28  1  0  0  0  0
  3  1  1  0  0  0  0
  3  2  1  0  0  0  0
  4  1  1  0  0  0  0
  4 10  1  0  0  0  0
  5  6  2  0  0  0  0
  5 14  1  0  0  0  0
  7 11  1  0  0  0  0
  7 12  1  0  0  0  0
  8 13  1  0  0  0  0
  8 16  1  0  0  0  0
  9 13  1  0  0  0  0
 10  8  2  0  0  0  0
 11  5  1  0  0  0  0
 12  4  2  0  0  0  0
 14 10  1  0  0  0  0
 14  9  2  0  0  0  0
 16 15  1  0  0  0  0
 17 23  1  0  0  0  0
 17  9  1  0  0  0  0
 18 25  1  1  0  0  0
 18 19  1  0  0  0  0
 18 22  1  0  0  0  0
 20 22  1  0  0  0  0
 20 23  1  0  0  0  0
 21 19  1  0  0  0  0
 21 23  1  0  0  0  0
 22 27  1  1  0  0  0
 23 24  1  1  0  0  0
 27 26  1  0  0  0  0
 28 37  1  1  0  0  0
 29 30  1  0  0  0  0
 31 36  1  0  0  0  0
 31 32  1  0  0  0  0
 32 34  1  6  0  0  0
 33 30  1  0  0  0  0
 33 28  1  1  0  0  0
 34 35  2  0  0  0  0
 35 33  1  0  0  0  0
 36 32  1  0  0  0  0
 36 29  1  1  0  0  0
 37 38  1  0  0  0  0
 38 39  1  0  0  0  0
 39 44  1  0  0  0  0
 40 47  1  0  0  0  0
 40 41  1  0  0  0  0
 42 40  2  0  0  0  0
 43 47  2  0  0  0  0
 44 46  2  0  0  0  0
 44 42  1  0  0  0  0
 45 42  1  0  0  0  0
 46 43  1  0  0  0  0
 47 48  1  0  0  0  0
 48 49  1  0  0  0  0
 49 50  1  0  0  0  0
M  END
>  <MODEL>
8

>  <REMARK>
 VINA RESULT:      -6.3      3.857      8.747
  Name = 
  13 active torsions:
  status: ('A' for Active; 'I' for Inactive)
    1  A    between atoms: C_3  and  C_6
    2  A    between atoms: C_3  and  C_11
    3  A    between atoms: C_11  and  C_35
    4  A    between atoms: C_11  and  C_41
    5  A    between atoms: C_12  and  C_36
    6  A    between atoms: C_12  and  C_45
    7  A    between atoms: C_16  and  C_42
    8  A    between atoms: C_24  and  C_37
    9  A    between atoms: C_25  and  O_38
   10  A    between atoms: C_26  and  S_31
   11  A    between atoms: C_27  and  S_31
   12  A    between atoms: C_37  and  C_39
   13  A    between atoms: C_39  and  C_41
                            x       y       z     vdW  Elec       q    Type
                         _______ _______ _______ _____ _____    ______ ____

>  <TORSDO>
F 13

$$$$
=
 OpenBabel10222419053D

 50 56  0  0  1  0  0  0  0  0999 V2000
  186.7170  176.9330  136.2000 C   0  0  0  0  0  0  0  0  0  0  0  0
  186.9510  177.5090  134.8210 C   0  0  0  0  0  2  0  0  0  0  0  0
  186.8830  178.4350  136.0180 C   0  0  0  0  0  2  0  0  0  0  0  0
  187.8650  176.3360  137.0000 C   0  0  0  0  0  0  0  0  0  0  0  0
  190.9850  176.1640  137.4110 C   0  0  0  0  0  0  0  0  0  0  0  0
  192.1620  176.5730  137.2260 O   0  0  0  0  0  0  0  0  0  0  0  0
  189.3670  174.3300  137.2280 C   0  0  0  0  0  2  0  0  0  0  0  0
  188.2050  177.8180  139.1080 C   0  0  0  0  0  0  0  0  0  0  0  0
  190.3330  177.5900  139.4200 C   0  0  0  0  0  0  0  0  0  0  0  0
  188.6690  177.0960  138.0140 C   0  0  0  0  0  0  0  0  0  0  0  0
  190.5970  174.9410  136.8660 O   0  0  0  0  0  0  0  0  0  0  0  0
  188.2260  175.0930  136.6340 C   0  0  0  0  0  3  0  0  0  0  0  0
  189.2010  178.0690  139.9770 N   0  0  0  0  0  2  0  0  0  0  0  0
  190.0420  176.9940  138.1970 C   0  0  0  0  0  0  0  0  0  0  0  0
  186.7000  178.6810  140.8600 C   0  0  0  0  0  1  0  0  0  0  0  0
  186.7880  178.0980  139.4630 C   0  0  0  0  0  2  0  0  0  0  0  0
  191.7610  177.1220  140.4320 S   0  0  0  0  0  0  0  0  0  0  0  0
  188.6640  177.3470  143.7560 C   0  0  2  0  0  3  0  0  0  0  0  0
  189.2350  175.9670  143.4730 C   0  0  0  0  0  2  0  0  0  0  0  0
  190.4340  178.3840  142.3780 O   0  0  0  0  0  0  0  0  0  0  0  0
  189.9540  175.9970  142.1330 C   0  0  0  0  0  2  0  0  0  0  0  0
  189.7720  178.4080  143.6430 C   0  0  2  0  0  3  0  0  0  0  0  0
  190.9990  177.1100  142.0920 C   0  0  1  0  0  0  0  0  0  0  0  0
  192.0140  176.8090  143.0040 O   0  0  0  0  0  1  0  0  0  0  0  0
  188.1730  177.3420  145.0550 F   0  0  0  0  0  0  0  0  0  0  0  0
  191.3930  179.5270  144.6480 C   0  0  0  0  0  1  0  0  0  0  0  0
  190.6830  178.3240  144.7110 O   0  0  0  0  0  0  0  0  0  0  0  0
  185.2760  176.4270  136.4070 C   0  0  1  0  0  3  0  0  0  0  0  0
  185.1770  172.5690  137.4220 C   0  0  0  0  0  2  0  0  0  0  0  0
  184.7870  174.0860  137.4660 C   0  0  0  0  0  2  0  0  0  0  0  0
  184.2740  171.0610  135.5470 O   0  0  0  0  0  0  0  0  0  0  0  0
  183.7380  172.3530  135.6650 C   0  0  2  0  0  3  0  0  0  0  0  0
  185.2170  174.8980  136.1970 C   0  0  1  0  0  3  0  0  0  0  0  0
  183.8790  173.3740  134.5940 C   0  0  0  0  0  3  0  0  0  0  0  0
  184.4970  174.5550  134.8780 C   0  0  0  0  0  3  0  0  0  0  0  0
  185.1580  172.0640  135.9900 C   0  0  1  0  0  3  0  0  0  0  0  0
  184.6340  176.8900  137.7310 C   0  0  0  0  0  2  0  0  0  0  0  0
  183.4620  177.8550  137.5430 C   0  0  0  0  0  2  0  0  0  0  0  0
  183.6410  179.1240  138.3770 C   0  0  0  0  0  2  0  0  0  0  0  0
  180.5170  180.1000  140.4680 C   0  0  0  0  0  0  0  0  0  0  0  0
  179.2750  180.7170  140.3340 O   0  0  0  0  0  1  0  0  0  0  0  0
  181.3890  180.0370  139.3600 C   0  0  0  0  0  0  0  0  0  0  0  0
  182.0750  178.8020  141.7840 C   0  0  0  0  0  3  0  0  0  0  0  0
  182.6510  179.3790  139.4880 C   0  0  0  0  0  0  0  0  0  0  0  0
  180.9510  180.6840  138.0850 C   0  0  0  0  0  1  0  0  0  0  0  0
  182.9390  178.7250  140.6880 C   0  0  0  0  0  3  0  0  0  0  0  0
  180.9000  179.5380  141.7020 C   0  0  0  0  0  0  0  0  0  0  0  0
  180.0020  179.5800  142.8900 C   0  0  0  0  0  2  0  0  0  0  0  0
  179.7220  178.1790  143.3840 C   0  0  0  0  0  2  0  0  0  0  0  0
  179.0670  178.2580  144.6260 O   0  0  0  0  0  1  0  0  0  0  0  0
  1 28  1  0  0  0  0
  1  4  1  0  0  0  0
  2  3  1  0  0  0  0
  2  1  1  0  0  0  0
  3  1  1  0  0  0  0
  4 10  1  0  0  0  0
  5 14  1  0  0  0  0
  6  5  2  0  0  0  0
  8 16  1  0  0  0  0
  8 13  1  0  0  0  0
  9 13  1  0  0  0  0
  9 17  1  0  0  0  0
 10 14  1  0  0  0  0
 10  8  2  0  0  0  0
 11  7  1  0  0  0  0
 11  5  1  0  0  0  0
 12  4  2  0  0  0  0
 12  7  1  0  0  0  0
 14  9  2  0  0  0  0
 16 15  1  0  0  0  0
 17 23  1  0  0  0  0
 18 25  1  1  0  0  0
 19 18  1  0  0  0  0
 20 22  1  0  0  0  0
 21 19  1  0  0  0  0
 22 18  1  0  0  0  0
 22 27  1  1  0  0  0
 23 21  1  0  0  0  0
 23 20  1  0  0  0  0
 23 24  1  1  0  0  0
 26 27  1  0  0  0  0
 28 37  1  1  0  0  0
 29 30  1  0  0  0  0
 31 32  1  0  0  0  0
 31 36  1  0  0  0  0
 32 34  1  6  0  0  0
 32 36  1  0  0  0  0
 33 28  1  1  0  0  0
 33 30  1  0  0  0  0
 34 35  2  0  0  0  0
 35 33  1  0  0  0  0
 36 29  1  1  0  0  0
 38 37  1  0  0  0  0
 38 39  1  0  0  0  0
 39 44  1  0  0  0  0
 40 47  1  0  0  0  0
 41 40  1  0  0  0  0
 42 44  1  0  0  0  0
 42 40  2  0  0  0  0
 44 46  2  0  0  0  0
 45 42  1  0  0  0  0
 46 43  1  0  0  0  0
 47 43  2  0  0  0  0
 47 48  1  0  0  0  0
 48 49  1  0  0  0  0
 49 50  1  0  0  0  0
M  END
>  <MODEL>
9

>  <REMARK>
 VINA RESULT:      -5.9      3.482      6.418
  Name = 
  13 active torsions:
  status: ('A' for Active; 'I' for Inactive)
    1  A    between atoms: C_3  and  C_6
    2  A    between atoms: C_3  and  C_11
    3  A    between atoms: C_11  and  C_35
    4  A    between atoms: C_11  and  C_41
    5  A    between atoms: C_12  and  C_36
    6  A    between atoms: C_12  and  C_45
    7  A    between atoms: C_16  and  C_42
    8  A    between atoms: C_24  and  C_37
    9  A    between atoms: C_25  and  O_38
   10  A    between atoms: C_26  and  S_31
   11  A    between atoms: C_27  and  S_31
   12  A    between atoms: C_37  and  C_39
   13  A    between atoms: C_39  and  C_41
                            x       y       z     vdW  Elec       q    Type
                         _______ _______ _______ _____ _____    ______ ____

>  <TORSDO>
F 13

$$$$
