=
 OpenBabel10222420153D

 52 56  0  0  1  0  0  0  0  0999 V2000
  186.5820  174.8060  135.9790 N   0  0  0  0  0  2  0  0  0  0  0  0
  187.6480  176.6080  137.4220 C   0  0  0  0  0  0  0  0  0  0  0  0
  185.4260  176.6840  136.9360 N   0  0  0  0  0  0  0  0  0  0  0  0
  185.4820  174.1670  135.3230 C   0  0  0  0  0  0  0  0  0  0  0  0
  187.1940  177.7000  138.0250 C   0  0  0  0  0  0  0  0  0  0  0  0
  185.6850  173.1060  134.6760 O   0  0  0  0  0  0  0  0  0  0  0  0
  184.1650  174.7160  135.3900 N   0  0  0  0  0  2  0  0  0  0  0  0
  185.7260  177.8320  137.7860 C   0  0  0  0  0  2  0  0  0  0  0  0
  186.5120  176.0110  136.7500 C   0  0  0  0  0  0  0  0  0  0  0  0
  183.1130  174.1000  134.7980 O   0  0  0  0  0  0  0  0  0  0  0  0
  179.9200  171.6840  136.7080 C   0  0  0  0  0  2  0  0  0  0  0  0
  181.1620  174.3940  136.1670 C   0  0  1  0  0  3  0  0  0  0  0  0
  182.3870  173.5290  135.8480 C   0  0  1  0  0  3  0  0  0  0  0  0
  182.0510  172.0790  135.5080 C   0  0  0  0  0  2  0  0  0  0  0  0
  180.1300  174.4500  135.0460 C   0  0  0  0  0  1  0  0  0  0  0  0
  180.5700  174.0660  137.5400 C   0  0  0  0  0  2  0  0  0  0  0  0
  179.5820  172.8910  137.5880 C   0  0  0  0  0  2  0  0  0  0  0  0
  181.4050  171.3560  136.6800 C   0  0  0  0  0  2  0  0  0  0  0  0
  187.9160  178.5060  138.9680 N   0  0  0  0  0  2  0  0  0  0  0  0
  188.0210  178.2570  140.3750 C   0  0  0  0  0  0  0  0  0  0  0  0
  188.1610  177.8500  143.1290 C   0  0  0  0  0  0  0  0  0  0  0  0
  187.0290  178.3370  142.5460 N   0  0  0  0  0  0  0  0  0  0  0  0
  189.2030  177.7760  140.9480 C   0  0  0  0  0  3  0  0  0  0  0  0
  186.9390  178.5480  141.2060 C   0  0  0  0  0  3  0  0  0  0  0  0
  189.2750  177.5660  142.3250 C   0  0  0  0  0  3  0  0  0  0  0  0
  188.3150  177.2170  147.3670 C   0  0  0  0  0  3  0  0  0  0  0  0
  189.4640  177.0420  146.5900 C   0  0  0  0  0  0  0  0  0  0  0  0
  187.1140  177.6010  146.7650 C   0  0  0  0  0  3  0  0  0  0  0  0
  187.0600  177.8080  145.3830 C   0  0  0  0  0  3  0  0  0  0  0  0
  188.2070  177.6320  144.5900 C   0  0  0  0  0  0  0  0  0  0  0  0
  189.4080  177.2460  145.2070 C   0  0  0  0  0  3  0  0  0  0  0  0
  191.8110  176.4120  146.1750 C   0  0  0  0  0  1  0  0  0  0  0  0
  190.7380  176.6140  147.2290 C   0  0  0  0  0  2  0  0  0  0  0  0
  188.9850  175.9650  137.6110 C   0  0  0  0  0  2  0  0  0  0  0  0
  190.1090  176.7170  135.4630 C   0  0  0  0  0  2  0  0  0  0  0  0
  192.1060  174.3810  136.5560 C   0  0  0  0  0  0  0  0  0  0  0  0
  190.4740  175.3300  134.9470 C   0  0  0  0  0  2  0  0  0  0  0  0
  192.4480  173.1290  136.6770 N   0  0  0  0  0  0  0  0  0  0  0  0
  191.9400  175.0280  135.2100 C   0  0  0  0  0  2  0  0  0  0  0  0
  191.4680  176.6180  137.6260 C   0  0  0  0  0  2  0  0  0  0  0  0
  190.0870  176.8170  136.9880 C   0  0  2  0  0  3  0  0  0  0  0  0
  191.8540  175.1480  137.8210 C   0  0  0  0  0  2  0  0  0  0  0  0
  194.1000  171.7900  135.4030 N   0  0  0  0  0  2  0  0  0  0  0  0
  192.7500  172.1890  135.6300 C   0  0  0  0  0  0  0  0  0  0  0  0
  191.8440  171.7170  134.8930 O   0  0  0  0  0  0  0  0  0  0  0  0
  195.1930  172.2450  136.2530 C   0  0  0  0  0  2  0  0  0  0  0  0
  196.3290  172.8370  135.4200 C   0  0  2  0  0  3  0  0  0  0  0  0
  197.3230  172.6210  137.5820 O   0  0  0  0  0  1  0  0  0  0  0  0
  197.6000  172.9290  136.2500 C   0  0  0  0  0  2  0  0  0  0  0  0
  195.9600  174.2060  134.8540 C   0  0  0  0  0  2  0  0  0  0  0  0
  195.6630  175.2020  135.9650 C   0  0  0  0  0  2  0  0  0  0  0  0
  196.5300  176.2900  135.8710 O   0  0  0  0  0  1  0  0  0  0  0  0
  1  9  1  0  0  0  0
  2 34  1  0  0  0  0
  2  5  2  0  0  0  0
  3  8  1  0  0  0  0
  4  7  1  0  0  0  0
  4  1  1  0  0  0  0
  5 19  1  0  0  0  0
  6  4  2  0  0  0  0
  8  5  1  0  0  0  0
  9  3  2  0  0  0  0
  9  2  1  0  0  0  0
 10  7  1  0  0  0  0
 11 17  1  0  0  0  0
 12 15  1  6  0  0  0
 12 16  1  0  0  0  0
 13 10  1  6  0  0  0
 13 12  1  0  0  0  0
 14 13  1  0  0  0  0
 14 18  1  0  0  0  0
 16 17  1  0  0  0  0
 18 11  1  0  0  0  0
 19 20  1  0  0  0  0
 20 23  2  0  0  0  0
 20 24  1  0  0  0  0
 21 30  1  0  0  0  0
 22 21  1  0  0  0  0
 23 25  1  0  0  0  0
 24 22  2  0  0  0  0
 25 21  2  0  0  0  0
 27 33  1  0  0  0  0
 27 26  2  0  0  0  0
 28 26  1  0  0  0  0
 29 28  2  0  0  0  0
 30 31  2  0  0  0  0
 30 29  1  0  0  0  0
 31 27  1  0  0  0  0
 32 33  1  0  0  0  0
 35 41  1  0  0  0  0
 36 38  2  0  0  0  0
 36 42  1  0  0  0  0
 37 39  1  0  0  0  0
 37 35  1  0  0  0  0
 39 36  1  0  0  0  0
 40 42  1  0  0  0  0
 41 34  1  1  0  0  0
 41 40  1  0  0  0  0
 43 44  1  0  0  0  0
 43 46  1  0  0  0  0
 44 38  1  0  0  0  0
 45 44  2  0  0  0  0
 47 50  1  1  0  0  0
 47 49  1  0  0  0  0
 47 46  1  0  0  0  0
 49 48  1  0  0  0  0
 50 51  1  0  0  0  0
 52 51  1  0  0  0  0
M  END
>  <MODEL>
1

>  <REMARK>
 VINA RESULT:      -7.8      0.000      0.000
  Name = 
  14 active torsions:
  status: ('A' for Active; 'I' for Inactive)
    1  A    between atoms: C_2  and  C_49
    2  A    between atoms: O_4  and  C_19
    3  A    between atoms: O_4  and  N_23
    4  A    between atoms: N_5  and  C_39
    5  A    between atoms: N_6  and  C_9
    6  A    between atoms: N_6  and  C_18
    7  A    between atoms: C_10  and  C_24
    8  A    between atoms: C_10  and  C_33
    9  A    between atoms: C_14  and  C_44
   10  A    between atoms: C_17  and  C_22
   11  A    between atoms: C_24  and  C_39
   12  A    between atoms: C_24  and  C_50
   13  A    between atoms: N_28  and  C_29
   14  A    between atoms: C_41  and  C_49
                            x       y       z     vdW  Elec       q    Type
                         _______ _______ _______ _____ _____    ______ ____

>  <TORSDO>
F 14

$$$$
=
 OpenBabel10222420153D

 52 56  0  0  1  0  0  0  0  0999 V2000
  186.4790  175.9040  135.9630 N   0  0  0  0  0  2  0  0  0  0  0  0
  187.9780  177.3500  137.4230 C   0  0  0  0  0  0  0  0  0  0  0  0
  185.7610  177.1460  137.8930 N   0  0  0  0  0  0  0  0  0  0  0  0
  185.2340  175.2990  135.6020 C   0  0  0  0  0  0  0  0  0  0  0  0
  187.7780  178.0990  138.5010 C   0  0  0  0  0  0  0  0  0  0  0  0
  185.1880  174.5440  134.5940 O   0  0  0  0  0  0  0  0  0  0  0  0
  184.0490  175.5410  136.3620 N   0  0  0  0  0  2  0  0  0  0  0  0
  186.3440  178.0150  138.9100 C   0  0  0  0  0  2  0  0  0  0  0  0
  186.6920  176.7810  137.0770 C   0  0  0  0  0  0  0  0  0  0  0  0
  182.8730  174.9470  136.0430 O   0  0  0  0  0  0  0  0  0  0  0  0
  180.6340  175.1470  139.8670 C   0  0  0  0  0  2  0  0  0  0  0  0
  180.6400  174.6560  136.8780 C   0  0  1  0  0  3  0  0  0  0  0  0
  181.9510  175.4460  136.9680 C   0  0  1  0  0  3  0  0  0  0  0  0
  182.5770  175.4530  138.3610 C   0  0  0  0  0  2  0  0  0  0  0  0
  180.7640  173.1940  137.2930 C   0  0  0  0  0  1  0  0  0  0  0  0
  179.4780  175.3940  137.5450 C   0  0  0  0  0  2  0  0  0  0  0  0
  179.3320  175.1970  139.0620 C   0  0  0  0  0  2  0  0  0  0  0  0
  181.6810  176.1370  139.3830 C   0  0  0  0  0  2  0  0  0  0  0  0
  188.7970  178.7000  139.3130 N   0  0  0  0  0  2  0  0  0  0  0  0
  189.0900  178.3650  140.6740 C   0  0  0  0  0  0  0  0  0  0  0  0
  189.7390  177.6580  143.2910 C   0  0  0  0  0  0  0  0  0  0  0  0
  190.6990  177.7470  142.3270 N   0  0  0  0  0  0  0  0  0  0  0  0
  188.0810  178.2610  141.6380 C   0  0  0  0  0  3  0  0  0  0  0  0
  190.4070  178.0860  141.0440 C   0  0  0  0  0  3  0  0  0  0  0  0
  188.4030  177.9120  142.9490 C   0  0  0  0  0  3  0  0  0  0  0  0
  190.7960  176.5990  147.3100 C   0  0  0  0  0  3  0  0  0  0  0  0
  189.5770  177.2330  147.0490 C   0  0  0  0  0  0  0  0  0  0  0  0
  191.6710  176.3060  146.2610 C   0  0  0  0  0  3  0  0  0  0  0  0
  191.3300  176.6500  144.9500 C   0  0  0  0  0  3  0  0  0  0  0  0
  190.1100  177.2910  144.6750 C   0  0  0  0  0  0  0  0  0  0  0  0
  189.2380  177.5800  145.7360 C   0  0  0  0  0  3  0  0  0  0  0  0
  187.3320  178.0730  147.6250 C   0  0  0  0  0  1  0  0  0  0  0  0
  188.6530  177.5630  148.1690 C   0  0  0  0  0  2  0  0  0  0  0  0
  189.2950  176.9450  136.8400 C   0  0  0  0  0  2  0  0  0  0  0  0
  190.7290  175.8140  138.6010 C   0  0  0  0  0  2  0  0  0  0  0  0
  192.5750  175.6200  135.9190 C   0  0  0  0  0  0  0  0  0  0  0  0
  192.0560  176.4480  138.2000 C   0  0  0  0  0  2  0  0  0  0  0  0
  193.4340  176.1260  135.0800 N   0  0  0  0  0  0  0  0  0  0  0  0
  192.8900  175.4750  137.3820 C   0  0  0  0  0  2  0  0  0  0  0  0
  190.2700  174.6120  136.3930 C   0  0  0  0  0  2  0  0  0  0  0  0
  189.7630  175.6190  137.4340 C   0  0  2  0  0  3  0  0  0  0  0  0
  191.2390  175.2130  135.3700 C   0  0  0  0  0  2  0  0  0  0  0  0
  195.8650  175.6700  135.2540 N   0  0  0  0  0  2  0  0  0  0  0  0
  194.7720  176.5820  135.3510 C   0  0  0  0  0  0  0  0  0  0  0  0
  195.0020  177.7730  135.6890 O   0  0  0  0  0  0  0  0  0  0  0  0
  195.6860  174.2940  134.8100 C   0  0  0  0  0  2  0  0  0  0  0  0
  196.2260  173.3070  135.8430 C   0  0  2  0  0  3  0  0  0  0  0  0
  194.0270  172.3850  136.0060 O   0  0  0  0  0  1  0  0  0  0  0  0
  195.3740  172.0470  135.8670 C   0  0  0  0  0  2  0  0  0  0  0  0
  196.2990  173.9290  137.2360 C   0  0  0  0  0  2  0  0  0  0  0  0
  197.7400  174.0640  137.7050 C   0  0  0  0  0  2  0  0  0  0  0  0
  198.0390  175.4060  137.9390 O   0  0  0  0  0  1  0  0  0  0  0  0
  1  9  1  0  0  0  0
  2  5  2  0  0  0  0
  3  8  1  0  0  0  0
  4  1  1  0  0  0  0
  4  7  1  0  0  0  0
  5  8  1  0  0  0  0
  5 19  1  0  0  0  0
  6  4  2  0  0  0  0
  9  2  1  0  0  0  0
  9  3  2  0  0  0  0
 10  7  1  0  0  0  0
 12 13  1  0  0  0  0
 12 15  1  1  0  0  0
 12 16  1  0  0  0  0
 13 10  1  6  0  0  0
 13 14  1  0  0  0  0
 14 18  1  0  0  0  0
 16 17  1  0  0  0  0
 17 11  1  0  0  0  0
 18 11  1  0  0  0  0
 19 20  1  0  0  0  0
 20 24  2  0  0  0  0
 20 23  1  0  0  0  0
 21 30  1  0  0  0  0
 22 21  2  0  0  0  0
 23 25  2  0  0  0  0
 24 22  1  0  0  0  0
 25 21  1  0  0  0  0
 27 26  1  0  0  0  0
 27 33  1  0  0  0  0
 28 26  2  0  0  0  0
 29 28  1  0  0  0  0
 30 29  2  0  0  0  0
 30 31  1  0  0  0  0
 31 27  2  0  0  0  0
 32 33  1  0  0  0  0
 34  2  1  0  0  0  0
 36 39  1  0  0  0  0
 37 35  1  0  0  0  0
 38 44  1  0  0  0  0
 38 36  2  0  0  0  0
 39 37  1  0  0  0  0
 40 41  1  0  0  0  0
 41 34  1  6  0  0  0
 41 35  1  0  0  0  0
 42 36  1  0  0  0  0
 42 40  1  0  0  0  0
 43 44  1  0  0  0  0
 44 45  2  0  0  0  0
 46 43  1  0  0  0  0
 47 46  1  6  0  0  0
 47 49  1  0  0  0  0
 47 50  1  0  0  0  0
 49 48  1  0  0  0  0
 50 51  1  0  0  0  0
 51 52  1  0  0  0  0
M  END
>  <MODEL>
2

>  <REMARK>
 VINA RESULT:      -7.8      1.658      2.870
  Name = 
  14 active torsions:
  status: ('A' for Active; 'I' for Inactive)
    1  A    between atoms: C_2  and  C_49
    2  A    between atoms: O_4  and  C_19
    3  A    between atoms: O_4  and  N_23
    4  A    between atoms: N_5  and  C_39
    5  A    between atoms: N_6  and  C_9
    6  A    between atoms: N_6  and  C_18
    7  A    between atoms: C_10  and  C_24
    8  A    between atoms: C_10  and  C_33
    9  A    between atoms: C_14  and  C_44
   10  A    between atoms: C_17  and  C_22
   11  A    between atoms: C_24  and  C_39
   12  A    between atoms: C_24  and  C_50
   13  A    between atoms: N_28  and  C_29
   14  A    between atoms: C_41  and  C_49
                            x       y       z     vdW  Elec       q    Type
                         _______ _______ _______ _____ _____    ______ ____

>  <TORSDO>
F 14

$$$$
=
 OpenBabel10222420153D

 52 56  0  0  1  0  0  0  0  0999 V2000
  186.5030  174.9780  135.9220 N   0  0  0  0  0  2  0  0  0  0  0  0
  188.3980  176.1830  137.1160 C   0  0  0  0  0  0  0  0  0  0  0  0
  186.2650  176.9680  137.2510 N   0  0  0  0  0  0  0  0  0  0  0  0
  185.1340  174.7810  135.5550 C   0  0  0  0  0  0  0  0  0  0  0  0
  188.4710  177.2700  137.8750 C   0  0  0  0  0  0  0  0  0  0  0  0
  184.8290  173.8020  134.8220 O   0  0  0  0  0  0  0  0  0  0  0  0
  184.1150  175.6780  136.0020 N   0  0  0  0  0  2  0  0  0  0  0  0
  187.1080  177.8550  138.0470 C   0  0  0  0  0  2  0  0  0  0  0  0
  187.0050  176.0380  136.7450 C   0  0  0  0  0  0  0  0  0  0  0  0
  182.8120  175.4800  135.6830 O   0  0  0  0  0  0  0  0  0  0  0  0
  179.6790  173.4530  138.0810 C   0  0  0  0  0  2  0  0  0  0  0  0
  181.4890  175.8450  137.6540 C   0  0  1  0  0  3  0  0  0  0  0  0
  182.2600  174.8360  136.7940 C   0  0  1  0  0  3  0  0  0  0  0  0
  181.4200  173.6470  136.3300 C   0  0  0  0  0  2  0  0  0  0  0  0
  180.2610  176.4340  136.9710 C   0  0  0  0  0  1  0  0  0  0  0  0
  181.2200  175.3110  139.0620 C   0  0  0  0  0  2  0  0  0  0  0  0
  179.9730  174.4270  139.2250 C   0  0  0  0  0  2  0  0  0  0  0  0
  180.9270  172.8090  137.5000 C   0  0  0  0  0  2  0  0  0  0  0  0
  189.6150  177.6970  138.6300 N   0  0  0  0  0  2  0  0  0  0  0  0
  189.7980  177.5300  140.0400 C   0  0  0  0  0  0  0  0  0  0  0  0
  190.0810  177.2710  142.8010 C   0  0  0  0  0  0  0  0  0  0  0  0
  188.8760  177.5780  142.2420 N   0  0  0  0  0  0  0  0  0  0  0  0
  191.0520  177.2350  140.5870 C   0  0  0  0  0  3  0  0  0  0  0  0
  188.7150  177.7130  140.8990 C   0  0  0  0  0  3  0  0  0  0  0  0
  191.1960  177.1000  141.9670 C   0  0  0  0  0  3  0  0  0  0  0  0
  190.4130  176.8570  147.0560 C   0  0  0  0  0  3  0  0  0  0  0  0
  189.1800  177.1700  146.4760 C   0  0  0  0  0  0  0  0  0  0  0  0
  191.5400  176.6750  146.2500 C   0  0  0  0  0  3  0  0  0  0  0  0
  191.4350  176.8100  144.8620 C   0  0  0  0  0  3  0  0  0  0  0  0
  190.2030  177.1280  144.2680 C   0  0  0  0  0  0  0  0  0  0  0  0
  189.0770  177.3080  145.0870 C   0  0  0  0  0  3  0  0  0  0  0  0
  188.3960  177.9950  148.6630 C   0  0  0  0  0  1  0  0  0  0  0  0
  187.9840  177.3830  147.3370 C   0  0  0  0  0  2  0  0  0  0  0  0
  189.4660  175.1580  136.9050 C   0  0  0  0  0  2  0  0  0  0  0  0
  190.1840  173.9600  134.7870 C   0  0  0  0  0  2  0  0  0  0  0  0
  192.9910  174.3260  136.4080 C   0  0  0  0  0  0  0  0  0  0  0  0
  191.1460  172.9770  135.4430 C   0  0  0  0  0  2  0  0  0  0  0  0
  193.8560  173.9420  137.3030 N   0  0  0  0  0  0  0  0  0  0  0  0
  192.5850  173.4340  135.2680 C   0  0  0  0  0  2  0  0  0  0  0  0
  191.3900  176.1010  135.4900 C   0  0  0  0  0  2  0  0  0  0  0  0
  190.0820  175.2990  135.5160 C   0  0  2  0  0  3  0  0  0  0  0  0
  192.3900  175.6920  136.5760 C   0  0  0  0  0  2  0  0  0  0  0  0
  195.9450  172.6860  137.7570 N   0  0  0  0  0  2  0  0  0  0  0  0
  194.5730  172.6970  137.3640 C   0  0  0  0  0  0  0  0  0  0  0  0
  194.0200  171.6060  137.0610 O   0  0  0  0  0  0  0  0  0  0  0  0
  196.6350  173.8980  138.1800 C   0  0  0  0  0  2  0  0  0  0  0  0
  198.0670  173.9310  137.6480 C   0  0  2  0  0  3  0  0  0  0  0  0
  198.3970  175.7690  139.1380 O   0  0  0  0  0  1  0  0  0  0  0  0
  198.9890  174.6020  138.6530 C   0  0  0  0  0  2  0  0  0  0  0  0
  198.1500  174.6320  136.2940 C   0  0  0  0  0  2  0  0  0  0  0  0
  196.8590  175.3700  135.9740 C   0  0  0  0  0  2  0  0  0  0  0  0
  197.1190  176.7300  135.8080 O   0  0  0  0  0  1  0  0  0  0  0  0
  1  9  1  0  0  0  0
  2  5  2  0  0  0  0
  3  8  1  0  0  0  0
  4  1  1  0  0  0  0
  4  7  1  0  0  0  0
  5  8  1  0  0  0  0
  5 19  1  0  0  0  0
  6  4  2  0  0  0  0
  9  2  1  0  0  0  0
  9  3  2  0  0  0  0
 10  7  1  0  0  0  0
 11 17  1  0  0  0  0
 12 15  1  6  0  0  0
 12 16  1  0  0  0  0
 13 10  1  6  0  0  0
 13 12  1  0  0  0  0
 14 13  1  0  0  0  0
 14 18  1  0  0  0  0
 16 17  1  0  0  0  0
 18 11  1  0  0  0  0
 19 20  1  0  0  0  0
 20 23  2  0  0  0  0
 20 24  1  0  0  0  0
 21 30  1  0  0  0  0
 22 21  1  0  0  0  0
 23 25  1  0  0  0  0
 24 22  2  0  0  0  0
 25 21  2  0  0  0  0
 27 26  1  0  0  0  0
 27 33  1  0  0  0  0
 28 26  2  0  0  0  0
 29 28  1  0  0  0  0
 30 29  2  0  0  0  0
 30 31  1  0  0  0  0
 31 27  2  0  0  0  0
 33 32  1  0  0  0  0
 34  2  1  0  0  0  0
 35 37  1  0  0  0  0
 35 41  1  0  0  0  0
 36 42  1  0  0  0  0
 36 38  2  0  0  0  0
 38 44  1  0  0  0  0
 39 37  1  0  0  0  0
 39 36  1  0  0  0  0
 40 41  1  0  0  0  0
 40 42  1  0  0  0  0
 41 34  1  1  0  0  0
 43 46  1  0  0  0  0
 44 43  1  0  0  0  0
 45 44  2  0  0  0  0
 47 50  1  6  0  0  0
 47 46  1  0  0  0  0
 47 49  1  0  0  0  0
 49 48  1  0  0  0  0
 51 50  1  0  0  0  0
 52 51  1  0  0  0  0
M  END
>  <MODEL>
3

>  <REMARK>
 VINA RESULT:      -7.8      1.585      2.254
  Name = 
  14 active torsions:
  status: ('A' for Active; 'I' for Inactive)
    1  A    between atoms: C_2  and  C_49
    2  A    between atoms: O_4  and  C_19
    3  A    between atoms: O_4  and  N_23
    4  A    between atoms: N_5  and  C_39
    5  A    between atoms: N_6  and  C_9
    6  A    between atoms: N_6  and  C_18
    7  A    between atoms: C_10  and  C_24
    8  A    between atoms: C_10  and  C_33
    9  A    between atoms: C_14  and  C_44
   10  A    between atoms: C_17  and  C_22
   11  A    between atoms: C_24  and  C_39
   12  A    between atoms: C_24  and  C_50
   13  A    between atoms: N_28  and  C_29
   14  A    between atoms: C_41  and  C_49
                            x       y       z     vdW  Elec       q    Type
                         _______ _______ _______ _____ _____    ______ ____

>  <TORSDO>
F 14

$$$$
=
 OpenBabel10222420153D

 52 56  0  0  1  0  0  0  0  0999 V2000
  186.2340  174.9240  136.1350 N   0  0  0  0  0  2  0  0  0  0  0  0
  188.0300  176.3370  137.2500 C   0  0  0  0  0  0  0  0  0  0  0  0
  185.8570  177.0120  137.2670 N   0  0  0  0  0  0  0  0  0  0  0  0
  184.8870  174.6190  135.7590 C   0  0  0  0  0  0  0  0  0  0  0  0
  188.0270  177.4920  137.9050 C   0  0  0  0  0  0  0  0  0  0  0  0
  184.6540  173.5610  135.1160 O   0  0  0  0  0  0  0  0  0  0  0  0
  183.8100  175.4950  136.1000 N   0  0  0  0  0  2  0  0  0  0  0  0
  186.6300  178.0140  137.9930 C   0  0  0  0  0  2  0  0  0  0  0  0
  186.6570  176.0820  136.8660 C   0  0  0  0  0  0  0  0  0  0  0  0
  182.5290  175.1970  135.7740 O   0  0  0  0  0  0  0  0  0  0  0  0
  181.6970  178.6090  138.4830 C   0  0  0  0  0  2  0  0  0  0  0  0
  181.3830  175.6670  137.8320 C   0  0  1  0  0  3  0  0  0  0  0  0
  181.7540  176.1600  136.4280 C   0  0  1  0  0  3  0  0  0  0  0  0
  182.4860  177.5010  136.4130 C   0  0  0  0  0  2  0  0  0  0  0  0
  182.5740  175.5100  138.7710 C   0  0  0  0  0  1  0  0  0  0  0  0
  180.2220  176.4630  138.4310 C   0  0  0  0  0  2  0  0  0  0  0  0
  180.5930  177.7760  139.1380 C   0  0  0  0  0  2  0  0  0  0  0  0
  181.6220  178.6250  136.9650 C   0  0  0  0  0  2  0  0  0  0  0  0
  189.1260  178.0500  138.6400 N   0  0  0  0  0  2  0  0  0  0  0  0
  189.4200  177.8080  140.0200 C   0  0  0  0  0  0  0  0  0  0  0  0
  189.9470  177.4260  142.7310 C   0  0  0  0  0  0  0  0  0  0  0  0
  188.8600  178.1370  142.3190 N   0  0  0  0  0  0  0  0  0  0  0  0
  190.5550  177.0920  140.4140 C   0  0  0  0  0  3  0  0  0  0  0  0
  188.5840  178.3400  141.0030 C   0  0  0  0  0  3  0  0  0  0  0  0
  190.8200  176.8940  141.7690 C   0  0  0  0  0  3  0  0  0  0  0  0
  190.6580  176.8540  146.9210 C   0  0  0  0  0  3  0  0  0  0  0  0
  189.4360  177.3720  146.4810 C   0  0  0  0  0  0  0  0  0  0  0  0
  191.6490  176.5180  145.9950 C   0  0  0  0  0  3  0  0  0  0  0  0
  191.4210  176.7030  144.6290 C   0  0  0  0  0  3  0  0  0  0  0  0
  190.2000  177.2280  144.1740 C   0  0  0  0  0  0  0  0  0  0  0  0
  189.2100  177.5610  145.1130 C   0  0  0  0  0  3  0  0  0  0  0  0
  187.0290  177.8050  146.7930 C   0  0  0  0  0  1  0  0  0  0  0  0
  188.3870  177.7490  147.4680 C   0  0  0  0  0  2  0  0  0  0  0  0
  189.1570  175.3580  137.1580 C   0  0  0  0  0  2  0  0  0  0  0  0
  189.8460  173.6430  135.4180 C   0  0  0  0  0  2  0  0  0  0  0  0
  192.6840  175.0110  136.2630 C   0  0  0  0  0  0  0  0  0  0  0  0
  191.0800  173.1230  136.1460 C   0  0  0  0  0  2  0  0  0  0  0  0
  193.7210  175.1100  137.0460 N   0  0  0  0  0  0  0  0  0  0  0  0
  192.3450  173.7270  135.5590 C   0  0  0  0  0  2  0  0  0  0  0  0
  190.6220  176.0660  135.1720 C   0  0  0  0  0  2  0  0  0  0  0  0
  189.5420  175.1140  135.7010 C   0  0  2  0  0  3  0  0  0  0  0  0
  191.8200  176.2290  136.1130 C   0  0  0  0  0  2  0  0  0  0  0  0
  195.7280  173.8040  136.4050 N   0  0  0  0  0  2  0  0  0  0  0  0
  194.7010  174.1010  137.3490 C   0  0  0  0  0  0  0  0  0  0  0  0
  194.6640  173.4560  138.4300 O   0  0  0  0  0  0  0  0  0  0  0  0
  195.8710  174.5490  135.1610 C   0  0  0  0  0  2  0  0  0  0  0  0
  196.8140  175.7380  135.3360 C   0  0  2  0  0  3  0  0  0  0  0  0
  195.3690  177.6180  135.6330 O   0  0  0  0  0  1  0  0  0  0  0  0
  196.2090  176.9880  134.7140 C   0  0  0  0  0  2  0  0  0  0  0  0
  198.1930  175.4600  134.7410 C   0  0  0  0  0  2  0  0  0  0  0  0
  199.0110  174.5530  135.6480 C   0  0  0  0  0  2  0  0  0  0  0  0
  198.9990  175.0490  136.9510 O   0  0  0  0  0  1  0  0  0  0  0  0
  1  9  1  0  0  0  0
  2  5  2  0  0  0  0
  3  8  1  0  0  0  0
  4  7  1  0  0  0  0
  4  1  1  0  0  0  0
  5  8  1  0  0  0  0
  5 19  1  0  0  0  0
  6  4  2  0  0  0  0
  9  2  1  0  0  0  0
  9  3  2  0  0  0  0
 10  7  1  0  0  0  0
 11 17  1  0  0  0  0
 12 16  1  0  0  0  0
 12 15  1  1  0  0  0
 13 10  1  1  0  0  0
 13 12  1  0  0  0  0
 14 13  1  0  0  0  0
 14 18  1  0  0  0  0
 16 17  1  0  0  0  0
 18 11  1  0  0  0  0
 19 20  1  0  0  0  0
 20 23  2  0  0  0  0
 20 24  1  0  0  0  0
 21 30  1  0  0  0  0
 22 21  1  0  0  0  0
 23 25  1  0  0  0  0
 24 22  2  0  0  0  0
 25 21  2  0  0  0  0
 27 26  1  0  0  0  0
 27 33  1  0  0  0  0
 28 26  2  0  0  0  0
 29 28  1  0  0  0  0
 30 29  2  0  0  0  0
 30 31  1  0  0  0  0
 31 27  2  0  0  0  0
 32 33  1  0  0  0  0
 34  2  1  0  0  0  0
 35 41  1  0  0  0  0
 35 37  1  0  0  0  0
 36 38  2  0  0  0  0
 38 44  1  0  0  0  0
 39 37  1  0  0  0  0
 39 36  1  0  0  0  0
 40 41  1  0  0  0  0
 40 42  1  0  0  0  0
 41 34  1  1  0  0  0
 42 36  1  0  0  0  0
 43 44  1  0  0  0  0
 44 45  2  0  0  0  0
 46 47  1  0  0  0  0
 46 43  1  0  0  0  0
 47 49  1  6  0  0  0
 49 48  1  0  0  0  0
 50 47  1  0  0  0  0
 50 51  1  0  0  0  0
 51 52  1  0  0  0  0
M  END
>  <MODEL>
4

>  <REMARK>
 VINA RESULT:      -7.7      1.917      3.092
  Name = 
  14 active torsions:
  status: ('A' for Active; 'I' for Inactive)
    1  A    between atoms: C_2  and  C_49
    2  A    between atoms: O_4  and  C_19
    3  A    between atoms: O_4  and  N_23
    4  A    between atoms: N_5  and  C_39
    5  A    between atoms: N_6  and  C_9
    6  A    between atoms: N_6  and  C_18
    7  A    between atoms: C_10  and  C_24
    8  A    between atoms: C_10  and  C_33
    9  A    between atoms: C_14  and  C_44
   10  A    between atoms: C_17  and  C_22
   11  A    between atoms: C_24  and  C_39
   12  A    between atoms: C_24  and  C_50
   13  A    between atoms: N_28  and  C_29
   14  A    between atoms: C_41  and  C_49
                            x       y       z     vdW  Elec       q    Type
                         _______ _______ _______ _____ _____    ______ ____

>  <TORSDO>
F 14

$$$$
=
 OpenBabel10222420153D

 52 56  0  0  1  0  0  0  0  0999 V2000
  185.6680  175.0470  136.0450 N   0  0  0  0  0  2  0  0  0  0  0  0
  186.0890  177.0510  137.5540 C   0  0  0  0  0  0  0  0  0  0  0  0
  183.9750  176.5300  136.8900 N   0  0  0  0  0  0  0  0  0  0  0  0
  184.8380  174.1440  135.3080 C   0  0  0  0  0  0  0  0  0  0  0  0
  185.3100  177.9710  138.1100 C   0  0  0  0  0  0  0  0  0  0  0  0
  185.3710  173.1860  134.6880 O   0  0  0  0  0  0  0  0  0  0  0  0
  183.4200  174.3170  135.2640 N   0  0  0  0  0  2  0  0  0  0  0  0
  183.8850  177.7050  137.7520 C   0  0  0  0  0  2  0  0  0  0  0  0
  185.2140  176.1780  136.7980 C   0  0  0  0  0  0  0  0  0  0  0  0
  182.6240  173.4480  134.5940 O   0  0  0  0  0  0  0  0  0  0  0  0
  180.1340  173.6980  138.2560 C   0  0  0  0  0  2  0  0  0  0  0  0
  181.4660  172.0060  136.1250 C   0  0  1  0  0  3  0  0  0  0  0  0
  181.4670  173.3410  135.3710 C   0  0  1  0  0  3  0  0  0  0  0  0
  181.3440  174.5650  136.2760 C   0  0  0  0  0  2  0  0  0  0  0  0
  182.5730  171.8770  137.1640 C   0  0  0  0  0  1  0  0  0  0  0  0
  180.0750  171.6460  136.6520 C   0  0  0  0  0  2  0  0  0  0  0  0
  179.6850  172.2550  138.0070 C   0  0  0  0  0  2  0  0  0  0  0  0
  180.0210  174.5850  137.0270 C   0  0  0  0  0  2  0  0  0  0  0  0
  185.7100  178.9290  139.1010 N   0  0  0  0  0  2  0  0  0  0  0  0
  186.2920  178.6240  140.3730 C   0  0  0  0  0  0  0  0  0  0  0  0
  187.3460  178.0730  142.8950 C   0  0  0  0  0  0  0  0  0  0  0  0
  185.9990  178.1350  142.6930 N   0  0  0  0  0  0  0  0  0  0  0  0
  187.6790  178.5880  140.5550 C   0  0  0  0  0  3  0  0  0  0  0  0
  185.4620  178.4060  141.4740 C   0  0  0  0  0  3  0  0  0  0  0  0
  188.2100  178.3080  141.8140 C   0  0  0  0  0  3  0  0  0  0  0  0
  188.9160  177.1930  146.7870 C   0  0  0  0  0  3  0  0  0  0  0  0
  189.7740  177.2720  145.6860 C   0  0  0  0  0  0  0  0  0  0  0  0
  187.5450  177.4030  146.6220 C   0  0  0  0  0  3  0  0  0  0  0  0
  187.0300  177.6900  145.3540 C   0  0  0  0  0  3  0  0  0  0  0  0
  187.8810  177.7690  144.2390 C   0  0  0  0  0  0  0  0  0  0  0  0
  189.2570  177.5560  144.4170 C   0  0  0  0  0  3  0  0  0  0  0  0
  191.4930  176.3200  147.1750 C   0  0  0  0  0  1  0  0  0  0  0  0
  191.2330  177.0290  145.8590 C   0  0  0  0  0  2  0  0  0  0  0  0
  187.5300  176.7890  137.8560 C   0  0  0  0  0  2  0  0  0  0  0  0
  188.4450  177.4930  135.5960 C   0  0  0  0  0  2  0  0  0  0  0  0
  190.8920  175.7510  136.8650 C   0  0  0  0  0  0  0  0  0  0  0  0
  189.0770  176.1580  135.2240 C   0  0  0  0  0  2  0  0  0  0  0  0
  191.4840  174.6170  137.1120 N   0  0  0  0  0  0  0  0  0  0  0  0
  190.5770  176.1890  135.4620 C   0  0  0  0  0  2  0  0  0  0  0  0
  189.8280  177.9240  137.7010 C   0  0  0  0  0  2  0  0  0  0  0  0
  188.4260  177.7660  137.1000 C   0  0  2  0  0  3  0  0  0  0  0  0
  190.5080  176.5950  138.0450 C   0  0  0  0  0  2  0  0  0  0  0  0
  193.3010  173.6990  135.6960 N   0  0  0  0  0  2  0  0  0  0  0  0
  191.9550  173.6400  136.1660 C   0  0  0  0  0  0  0  0  0  0  0  0
  191.1970  172.7340  135.7280 O   0  0  0  0  0  0  0  0  0  0  0  0
  194.2520  174.6780  136.2030 C   0  0  0  0  0  2  0  0  0  0  0  0
  195.4610  173.9940  136.8410 C   0  0  2  0  0  3  0  0  0  0  0  0
  196.4640  176.0520  136.1560 O   0  0  0  0  0  1  0  0  0  0  0  0
  196.7420  174.7180  136.4570 C   0  0  0  0  0  2  0  0  0  0  0  0
  195.5440  172.5190  136.4540 C   0  0  0  0  0  2  0  0  0  0  0  0
  195.2980  171.6190  137.6560 C   0  0  0  0  0  2  0  0  0  0  0  0
  195.0760  172.3960  138.7930 O   0  0  0  0  0  1  0  0  0  0  0  0
  1  9  1  0  0  0  0
  2 34  1  0  0  0  0
  2  5  2  0  0  0  0
  3  8  1  0  0  0  0
  4  1  1  0  0  0  0
  5 19  1  0  0  0  0
  6  4  2  0  0  0  0
  7  4  1  0  0  0  0
  8  5  1  0  0  0  0
  9  3  2  0  0  0  0
  9  2  1  0  0  0  0
 10  7  1  0  0  0  0
 12 16  1  0  0  0  0
 12 15  1  1  0  0  0
 13 10  1  1  0  0  0
 13 12  1  0  0  0  0
 13 14  1  0  0  0  0
 14 18  1  0  0  0  0
 16 17  1  0  0  0  0
 17 11  1  0  0  0  0
 18 11  1  0  0  0  0
 19 20  1  0  0  0  0
 20 23  2  0  0  0  0
 20 24  1  0  0  0  0
 21 30  1  0  0  0  0
 22 21  1  0  0  0  0
 23 25  1  0  0  0  0
 24 22  2  0  0  0  0
 25 21  2  0  0  0  0
 27 33  1  0  0  0  0
 27 26  2  0  0  0  0
 28 26  1  0  0  0  0
 29 28  2  0  0  0  0
 30 31  2  0  0  0  0
 30 29  1  0  0  0  0
 31 27  1  0  0  0  0
 33 32  1  0  0  0  0
 35 41  1  0  0  0  0
 36 38  2  0  0  0  0
 36 42  1  0  0  0  0
 37 39  1  0  0  0  0
 37 35  1  0  0  0  0
 39 36  1  0  0  0  0
 40 42  1  0  0  0  0
 41 40  1  0  0  0  0
 41 34  1  1  0  0  0
 43 44  1  0  0  0  0
 43 46  1  0  0  0  0
 44 38  1  0  0  0  0
 45 44  2  0  0  0  0
 47 46  1  6  0  0  0
 48 49  1  0  0  0  0
 49 47  1  0  0  0  0
 50 47  1  0  0  0  0
 50 51  1  0  0  0  0
 51 52  1  0  0  0  0
M  END
>  <MODEL>
5

>  <REMARK>
 VINA RESULT:      -7.5      1.183      2.034
  Name = 
  14 active torsions:
  status: ('A' for Active; 'I' for Inactive)
    1  A    between atoms: C_2  and  C_49
    2  A    between atoms: O_4  and  C_19
    3  A    between atoms: O_4  and  N_23
    4  A    between atoms: N_5  and  C_39
    5  A    between atoms: N_6  and  C_9
    6  A    between atoms: N_6  and  C_18
    7  A    between atoms: C_10  and  C_24
    8  A    between atoms: C_10  and  C_33
    9  A    between atoms: C_14  and  C_44
   10  A    between atoms: C_17  and  C_22
   11  A    between atoms: C_24  and  C_39
   12  A    between atoms: C_24  and  C_50
   13  A    between atoms: N_28  and  C_29
   14  A    between atoms: C_41  and  C_49
                            x       y       z     vdW  Elec       q    Type
                         _______ _______ _______ _____ _____    ______ ____

>  <TORSDO>
F 14

$$$$
=
 OpenBabel10222420153D

 52 56  0  0  1  0  0  0  0  0999 V2000
  187.5000  178.4760  140.3420 N   0  0  0  0  0  2  0  0  0  0  0  0
  189.1520  177.9290  138.4870 C   0  0  0  0  0  0  0  0  0  0  0  0
  189.6700  177.4910  140.6600 N   0  0  0  0  0  0  0  0  0  0  0  0
  187.0600  178.5110  141.7030 C   0  0  0  0  0  0  0  0  0  0  0  0
  190.3700  177.4010  138.4580 C   0  0  0  0  0  0  0  0  0  0  0  0
  185.9230  178.9840  141.9690 O   0  0  0  0  0  0  0  0  0  0  0  0
  187.8910  178.0220  142.7580 N   0  0  0  0  0  2  0  0  0  0  0  0
  190.7990  177.0530  139.8460 C   0  0  0  0  0  2  0  0  0  0  0  0
  188.7590  177.9710  139.8810 C   0  0  0  0  0  0  0  0  0  0  0  0
  187.4690  178.0240  144.0460 O   0  0  0  0  0  0  0  0  0  0  0  0
  190.6250  177.1660  147.0430 C   0  0  0  0  0  2  0  0  0  0  0  0
  189.8050  177.4750  144.1430 C   0  0  1  0  0  3  0  0  0  0  0  0
  188.4090  177.2550  144.7380 C   0  0  1  0  0  3  0  0  0  0  0  0
  188.3170  177.5570  146.2330 C   0  0  0  0  0  2  0  0  0  0  0  0
  190.3420  178.8910  144.3220 C   0  0  0  0  0  1  0  0  0  0  0  0
  190.7880  176.3810  144.5640 C   0  0  0  0  0  2  0  0  0  0  0  0
  191.4840  176.5810  145.9190 C   0  0  0  0  0  2  0  0  0  0  0  0
  189.2020  176.6320  147.0550 C   0  0  0  0  0  2  0  0  0  0  0  0
  191.0830  176.9870  137.2830 N   0  0  0  0  0  2  0  0  0  0  0  0
  192.1030  175.9830  137.2330 C   0  0  0  0  0  0  0  0  0  0  0  0
  194.1520  174.0980  137.0920 C   0  0  0  0  0  0  0  0  0  0  0  0
  194.4260  175.4260  137.2280 N   0  0  0  0  0  0  0  0  0  0  0  0
  191.7930  174.6290  137.0720 C   0  0  0  0  0  3  0  0  0  0  0  0
  193.4440  176.3650  137.2950 C   0  0  0  0  0  3  0  0  0  0  0  0
  192.8150  173.6820  137.0060 C   0  0  0  0  0  3  0  0  0  0  0  0
  197.3670  171.2650  136.9210 C   0  0  0  0  0  3  0  0  0  0  0  0
  197.6390  172.6270  137.0840 C   0  0  0  0  0  0  0  0  0  0  0  0
  196.0450  170.8240  136.8160 C   0  0  0  0  0  3  0  0  0  0  0  0
  194.9950  171.7450  136.8710 C   0  0  0  0  0  3  0  0  0  0  0  0
  195.2550  173.1160  137.0300 C   0  0  0  0  0  0  0  0  0  0  0  0
  196.5870  173.5480  137.1350 C   0  0  0  0  0  3  0  0  0  0  0  0
  199.1280  174.3440  138.0410 C   0  0  0  0  0  1  0  0  0  0  0  0
  199.0490  173.1000  137.1760 C   0  0  0  0  0  2  0  0  0  0  0  0
  188.2500  178.1780  137.3210 C   0  0  0  0  0  2  0  0  0  0  0  0
  187.6990  177.4190  134.9630 C   0  0  0  0  0  2  0  0  0  0  0  0
  185.5190  175.8100  136.7790 C   0  0  0  0  0  0  0  0  0  0  0  0
  186.1820  177.5000  135.0890 C   0  0  0  0  0  2  0  0  0  0  0  0
  184.3830  175.7420  137.4140 N   0  0  0  0  0  0  0  0  0  0  0  0
  185.5860  176.1200  135.3100 C   0  0  0  0  0  2  0  0  0  0  0  0
  188.0750  175.6720  136.7910 C   0  0  0  0  0  2  0  0  0  0  0  0
  188.4060  177.0780  136.2740 C   0  0  2  0  0  3  0  0  0  0  0  0
  186.7670  175.5950  137.5840 C   0  0  0  0  0  2  0  0  0  0  0  0
  182.4170  177.1740  136.9330 N   0  0  0  0  0  2  0  0  0  0  0  0
  183.0570  175.9010  136.8760 C   0  0  0  0  0  0  0  0  0  0  0  0
  182.4380  174.9310  136.3640 O   0  0  0  0  0  0  0  0  0  0  0  0
  183.0920  178.3550  137.4530 C   0  0  0  0  0  2  0  0  0  0  0  0
  182.3520  178.9260  138.6620 C   0  0  2  0  0  3  0  0  0  0  0  0
  184.3760  180.1220  139.0890 O   0  0  0  0  0  1  0  0  0  0  0  0
  183.3440  179.4150  139.7060 C   0  0  0  0  0  2  0  0  0  0  0  0
  181.3930  177.9060  139.2710 C   0  0  0  0  0  2  0  0  0  0  0  0
  181.3250  178.0470  140.7840 C   0  0  0  0  0  2  0  0  0  0  0  0
  180.0420  178.4360  141.1670 O   0  0  0  0  0  1  0  0  0  0  0  0
  1  4  1  0  0  0  0
  2  9  1  0  0  0  0
  4  6  2  0  0  0  0
  4  7  1  0  0  0  0
  5  2  2  0  0  0  0
  5  8  1  0  0  0  0
  7 10  1  0  0  0  0
  8  3  1  0  0  0  0
  9  1  1  0  0  0  0
  9  3  2  0  0  0  0
 11 18  1  0  0  0  0
 12 15  1  1  0  0  0
 12 16  1  0  0  0  0
 12 13  1  0  0  0  0
 13 10  1  6  0  0  0
 13 14  1  0  0  0  0
 14 18  1  0  0  0  0
 16 17  1  0  0  0  0
 17 11  1  0  0  0  0
 19  5  1  0  0  0  0
 20 19  1  0  0  0  0
 20 24  1  0  0  0  0
 21 22  1  0  0  0  0
 22 24  2  0  0  0  0
 23 20  2  0  0  0  0
 25 23  1  0  0  0  0
 25 21  2  0  0  0  0
 26 27  1  0  0  0  0
 27 31  2  0  0  0  0
 27 33  1  0  0  0  0
 28 29  1  0  0  0  0
 28 26  2  0  0  0  0
 29 30  2  0  0  0  0
 30 21  1  0  0  0  0
 30 31  1  0  0  0  0
 33 32  1  0  0  0  0
 34  2  1  0  0  0  0
 35 37  1  0  0  0  0
 35 41  1  0  0  0  0
 36 38  2  0  0  0  0
 36 42  1  0  0  0  0
 37 39  1  0  0  0  0
 39 36  1  0  0  0  0
 40 42  1  0  0  0  0
 41 40  1  0  0  0  0
 41 34  1  1  0  0  0
 43 46  1  0  0  0  0
 44 43  1  0  0  0  0
 44 38  1  0  0  0  0
 45 44  2  0  0  0  0
 47 46  1  6  0  0  0
 47 50  1  0  0  0  0
 47 49  1  0  0  0  0
 48 49  1  0  0  0  0
 50 51  1  0  0  0  0
 51 52  1  0  0  0  0
M  END
>  <MODEL>
6

>  <REMARK>
 VINA RESULT:      -7.3      3.626     10.773
  Name = 
  14 active torsions:
  status: ('A' for Active; 'I' for Inactive)
    1  A    between atoms: C_2  and  C_49
    2  A    between atoms: O_4  and  C_19
    3  A    between atoms: O_4  and  N_23
    4  A    between atoms: N_5  and  C_39
    5  A    between atoms: N_6  and  C_9
    6  A    between atoms: N_6  and  C_18
    7  A    between atoms: C_10  and  C_24
    8  A    between atoms: C_10  and  C_33
    9  A    between atoms: C_14  and  C_44
   10  A    between atoms: C_17  and  C_22
   11  A    between atoms: C_24  and  C_39
   12  A    between atoms: C_24  and  C_50
   13  A    between atoms: N_28  and  C_29
   14  A    between atoms: C_41  and  C_49
                            x       y       z     vdW  Elec       q    Type
                         _______ _______ _______ _____ _____    ______ ____

>  <TORSDO>
F 14

$$$$
=
 OpenBabel10222420153D

 52 56  0  0  1  0  0  0  0  0999 V2000
  181.8410  177.9140  137.3120 N   0  0  0  0  0  2  0  0  0  0  0  0
  184.2470  177.9690  138.1350 C   0  0  0  0  0  0  0  0  0  0  0  0
  182.8650  179.7430  138.4900 N   0  0  0  0  0  0  0  0  0  0  0  0
  180.5250  178.4520  137.1510 C   0  0  0  0  0  0  0  0  0  0  0  0
  184.9840  178.8630  138.7840 C   0  0  0  0  0  0  0  0  0  0  0  0
  179.6520  177.7700  136.5500 O   0  0  0  0  0  0  0  0  0  0  0  0
  180.1910  179.7470  137.6550 N   0  0  0  0  0  2  0  0  0  0  0  0
  184.1560  180.0690  139.0890 C   0  0  0  0  0  2  0  0  0  0  0  0
  182.9360  178.5640  137.9690 C   0  0  0  0  0  0  0  0  0  0  0  0
  178.9380  180.2500  137.5320 O   0  0  0  0  0  0  0  0  0  0  0  0
  181.1450  183.6640  135.7560 C   0  0  0  0  0  2  0  0  0  0  0  0
  179.2880  182.5980  137.9000 C   0  0  1  0  0  3  0  0  0  0  0  0
  179.1010  181.4730  136.8740 C   0  0  1  0  0  3  0  0  0  0  0  0
  180.2380  181.3620  135.8600 C   0  0  0  0  0  2  0  0  0  0  0  0
  180.5730  182.4900  138.7140 C   0  0  0  0  0  1  0  0  0  0  0  0
  179.0590  183.9800  137.2840 C   0  0  0  0  0  2  0  0  0  0  0  0
  180.2640  184.6140  136.5730 C   0  0  0  0  0  2  0  0  0  0  0  0
  180.3540  182.6090  134.9980 C   0  0  0  0  0  2  0  0  0  0  0  0
  186.2880  178.6390  139.3390 N   0  0  0  0  0  2  0  0  0  0  0  0
  186.5870  178.4540  140.7270 C   0  0  0  0  0  0  0  0  0  0  0  0
  187.2330  178.0180  143.4040 C   0  0  0  0  0  0  0  0  0  0  0  0
  188.1310  177.7570  142.4110 N   0  0  0  0  0  0  0  0  0  0  0  0
  185.6380  178.7110  141.7230 C   0  0  0  0  0  3  0  0  0  0  0  0
  187.8370  177.9580  141.0990 C   0  0  0  0  0  3  0  0  0  0  0  0
  185.9600  178.4990  143.0630 C   0  0  0  0  0  3  0  0  0  0  0  0
  188.3280  177.3530  147.4960 C   0  0  0  0  0  3  0  0  0  0  0  0
  189.2540  177.1190  146.4750 C   0  0  0  0  0  0  0  0  0  0  0  0
  187.0430  177.8070  147.1850 C   0  0  0  0  0  3  0  0  0  0  0  0
  186.6830  178.0240  145.8520 C   0  0  0  0  0  3  0  0  0  0  0  0
  187.6030  177.7890  144.8170 C   0  0  0  0  0  0  0  0  0  0  0  0
  188.8910  177.3340  145.1410 C   0  0  0  0  0  3  0  0  0  0  0  0
  191.6120  177.0760  145.7560 C   0  0  0  0  0  1  0  0  0  0  0  0
  190.6170  176.6170  146.8060 C   0  0  0  0  0  2  0  0  0  0  0  0
  184.5940  176.5390  137.8680 C   0  0  0  0  0  2  0  0  0  0  0  0
  184.4440  174.7850  136.0410 C   0  0  0  0  0  2  0  0  0  0  0  0
  187.6590  175.2340  136.3630 C   0  0  0  0  0  0  0  0  0  0  0  0
  185.5770  173.8960  136.5400 C   0  0  0  0  0  2  0  0  0  0  0  0
  188.7970  174.9920  136.9490 N   0  0  0  0  0  0  0  0  0  0  0  0
  186.8440  174.1380  135.7360 C   0  0  0  0  0  2  0  0  0  0  0  0
  185.8400  176.8900  135.6510 C   0  0  0  0  0  2  0  0  0  0  0  0
  184.6360  176.2650  136.3680 C   0  0  2  0  0  3  0  0  0  0  0  0
  187.1750  176.6550  136.3640 C   0  0  0  0  0  2  0  0  0  0  0  0
  190.8840  173.6570  136.8620 N   0  0  0  0  0  2  0  0  0  0  0  0
  189.4760  173.7300  137.0770 C   0  0  0  0  0  0  0  0  0  0  0  0
  188.8490  172.6750  137.3630 O   0  0  0  0  0  0  0  0  0  0  0  0
  191.6850  174.8420  136.5890 C   0  0  0  0  0  2  0  0  0  0  0  0
  192.5500  175.2130  137.7930 C   0  0  2  0  0  3  0  0  0  0  0  0
  190.8160  176.4280  138.9010 O   0  0  0  0  0  1  0  0  0  0  0  0
  192.1030  176.5450  138.3750 C   0  0  0  0  0  2  0  0  0  0  0  0
  194.0330  175.2570  137.4320 C   0  0  0  0  0  2  0  0  0  0  0  0
  194.2820  176.1610  136.2340 C   0  0  0  0  0  2  0  0  0  0  0  0
  195.6540  176.3080  136.0280 O   0  0  0  0  0  1  0  0  0  0  0  0
  1  9  1  0  0  0  0
  2  5  2  0  0  0  0
  3  8  1  0  0  0  0
  4  1  1  0  0  0  0
  4  7  1  0  0  0  0
  5  8  1  0  0  0  0
  5 19  1  0  0  0  0
  6  4  2  0  0  0  0
  9  2  1  0  0  0  0
  9  3  2  0  0  0  0
 10  7  1  0  0  0  0
 11 17  1  0  0  0  0
 12 15  1  6  0  0  0
 13 10  1  1  0  0  0
 13 12  1  0  0  0  0
 14 13  1  0  0  0  0
 16 12  1  0  0  0  0
 17 16  1  0  0  0  0
 18 11  1  0  0  0  0
 18 14  1  0  0  0  0
 19 20  1  0  0  0  0
 20 24  2  0  0  0  0
 20 23  1  0  0  0  0
 21 30  1  0  0  0  0
 22 21  2  0  0  0  0
 23 25  2  0  0  0  0
 24 22  1  0  0  0  0
 25 21  1  0  0  0  0
 27 33  1  0  0  0  0
 27 26  2  0  0  0  0
 28 26  1  0  0  0  0
 29 28  2  0  0  0  0
 30 31  2  0  0  0  0
 30 29  1  0  0  0  0
 31 27  1  0  0  0  0
 32 33  1  0  0  0  0
 34  2  1  0  0  0  0
 35 41  1  0  0  0  0
 35 37  1  0  0  0  0
 36 42  1  0  0  0  0
 36 38  2  0  0  0  0
 38 44  1  0  0  0  0
 39 36  1  0  0  0  0
 39 37  1  0  0  0  0
 40 42  1  0  0  0  0
 40 41  1  0  0  0  0
 41 34  1  1  0  0  0
 43 44  1  0  0  0  0
 44 45  2  0  0  0  0
 46 43  1  0  0  0  0
 47 46  1  6  0  0  0
 47 49  1  0  0  0  0
 49 48  1  0  0  0  0
 50 47  1  0  0  0  0
 51 50  1  0  0  0  0
 52 51  1  0  0  0  0
M  END
>  <MODEL>
7

>  <REMARK>
 VINA RESULT:      -7.1      3.937      5.624
  Name = 
  14 active torsions:
  status: ('A' for Active; 'I' for Inactive)
    1  A    between atoms: C_2  and  C_49
    2  A    between atoms: O_4  and  C_19
    3  A    between atoms: O_4  and  N_23
    4  A    between atoms: N_5  and  C_39
    5  A    between atoms: N_6  and  C_9
    6  A    between atoms: N_6  and  C_18
    7  A    between atoms: C_10  and  C_24
    8  A    between atoms: C_10  and  C_33
    9  A    between atoms: C_14  and  C_44
   10  A    between atoms: C_17  and  C_22
   11  A    between atoms: C_24  and  C_39
   12  A    between atoms: C_24  and  C_50
   13  A    between atoms: N_28  and  C_29
   14  A    between atoms: C_41  and  C_49
                            x       y       z     vdW  Elec       q    Type
                         _______ _______ _______ _____ _____    ______ ____

>  <TORSDO>
F 14

$$$$
=
 OpenBabel10222420153D

 52 56  0  0  1  0  0  0  0  0999 V2000
  183.2330  177.6240  136.9350 N   0  0  0  0  0  2  0  0  0  0  0  0
  185.5230  177.9420  137.9930 C   0  0  0  0  0  0  0  0  0  0  0  0
  183.6830  178.9180  138.9110 N   0  0  0  0  0  0  0  0  0  0  0  0
  181.8150  177.8020  136.8610 C   0  0  0  0  0  0  0  0  0  0  0  0
  185.9700  178.6040  139.0540 C   0  0  0  0  0  0  0  0  0  0  0  0
  181.1760  177.2610  135.9190 O   0  0  0  0  0  0  0  0  0  0  0  0
  181.1190  178.5840  137.8340 N   0  0  0  0  0  2  0  0  0  0  0  0
  184.8270  179.2690  139.7480 C   0  0  0  0  0  2  0  0  0  0  0  0
  184.0940  178.1710  137.9400 C   0  0  0  0  0  0  0  0  0  0  0  0
  179.7720  178.7310  137.7870 O   0  0  0  0  0  0  0  0  0  0  0  0
  180.8890  182.9110  136.8090 C   0  0  0  0  0  2  0  0  0  0  0  0
  179.5520  180.9460  138.6880 C   0  0  1  0  0  3  0  0  0  0  0  0
  179.5650  180.0670  137.4320 C   0  0  1  0  0  3  0  0  0  0  0  0
  180.6010  180.4870  136.3910 C   0  0  0  0  0  2  0  0  0  0  0  0
  180.8880  181.0050  139.4210 C   0  0  0  0  0  1  0  0  0  0  0  0
  178.9310  182.3190  138.4220 C   0  0  0  0  0  2  0  0  0  0  0  0
  179.8720  183.3900  137.8490 C   0  0  0  0  0  2  0  0  0  0  0  0
  180.3260  181.8790  135.8450 C   0  0  0  0  0  2  0  0  0  0  0  0
  187.2880  178.5120  139.6140 N   0  0  0  0  0  2  0  0  0  0  0  0
  187.5980  178.2670  140.9900 C   0  0  0  0  0  0  0  0  0  0  0  0
  188.1220  177.8470  143.6950 C   0  0  0  0  0  0  0  0  0  0  0  0
  186.8510  178.0560  143.2490 N   0  0  0  0  0  0  0  0  0  0  0  0
  188.9150  178.0760  141.4230 C   0  0  0  0  0  3  0  0  0  0  0  0
  186.5720  178.2670  141.9350 C   0  0  0  0  0  3  0  0  0  0  0  0
  189.1800  177.8600  142.7750 C   0  0  0  0  0  3  0  0  0  0  0  0
  188.8710  177.1750  147.8640 C   0  0  0  0  0  3  0  0  0  0  0  0
  189.8810  176.9470  146.9240 C   0  0  0  0  0  0  0  0  0  0  0  0
  187.6160  177.6250  147.4470 C   0  0  0  0  0  3  0  0  0  0  0  0
  187.3680  177.8450  146.0890 C   0  0  0  0  0  3  0  0  0  0  0  0
  188.3730  177.6160  145.1340 C   0  0  0  0  0  0  0  0  0  0  0  0
  189.6310  177.1640  145.5650 C   0  0  0  0  0  3  0  0  0  0  0  0
  192.0460  176.0440  146.1650 C   0  0  0  0  0  1  0  0  0  0  0  0
  191.2120  176.4480  147.3670 C   0  0  0  0  0  2  0  0  0  0  0  0
  186.2750  176.9410  137.1740 C   0  0  0  0  0  2  0  0  0  0  0  0
  186.9830  176.7030  134.7490 C   0  0  0  0  0  2  0  0  0  0  0  0
  189.7580  176.1680  136.3780 C   0  0  0  0  0  0  0  0  0  0  0  0
  187.8670  175.4740  134.9310 C   0  0  0  0  0  2  0  0  0  0  0  0
  190.5730  175.3870  137.0300 N   0  0  0  0  0  0  0  0  0  0  0  0
  189.3340  175.8680  134.9680 C   0  0  0  0  0  2  0  0  0  0  0  0
  188.2910  178.2650  136.2930 C   0  0  0  0  0  2  0  0  0  0  0  0
  186.9380  177.6130  135.9760 C   0  0  2  0  0  3  0  0  0  0  0  0
  189.2330  177.3720  137.1060 C   0  0  0  0  0  2  0  0  0  0  0  0
  192.6180  174.1870  136.3080 N   0  0  0  0  0  2  0  0  0  0  0  0
  191.2140  174.1880  136.5600 C   0  0  0  0  0  0  0  0  0  0  0  0
  190.5580  173.1340  136.3480 O   0  0  0  0  0  0  0  0  0  0  0  0
  193.4530  175.3480  136.5870 C   0  0  0  0  0  2  0  0  0  0  0  0
  194.8810  174.9290  136.9350 C   0  0  2  0  0  3  0  0  0  0  0  0
  196.7580  175.5930  135.6140 O   0  0  0  0  0  1  0  0  0  0  0  0
  195.6880  174.6990  135.6670 C   0  0  0  0  0  2  0  0  0  0  0  0
  194.9060  173.6840  137.8180 C   0  0  0  0  0  2  0  0  0  0  0  0
  195.6540  173.9430  139.1170 C   0  0  0  0  0  2  0  0  0  0  0  0
  196.1420  175.2500  139.1310 O   0  0  0  0  0  1  0  0  0  0  0  0
  1  9  1  0  0  0  0
  2  5  2  0  0  0  0
  3  8  1  0  0  0  0
  4  1  1  0  0  0  0
  4  7  1  0  0  0  0
  5 19  1  0  0  0  0
  5  8  1  0  0  0  0
  6  4  2  0  0  0  0
  9  2  1  0  0  0  0
  9  3  2  0  0  0  0
 10  7  1  0  0  0  0
 11 17  1  0  0  0  0
 12 15  1  6  0  0  0
 13 10  1  1  0  0  0
 13 12  1  0  0  0  0
 14 13  1  0  0  0  0
 16 12  1  0  0  0  0
 17 16  1  0  0  0  0
 18 14  1  0  0  0  0
 18 11  1  0  0  0  0
 19 20  1  0  0  0  0
 20 23  2  0  0  0  0
 20 24  1  0  0  0  0
 21 30  1  0  0  0  0
 22 21  1  0  0  0  0
 23 25  1  0  0  0  0
 24 22  2  0  0  0  0
 25 21  2  0  0  0  0
 27 33  1  0  0  0  0
 27 26  2  0  0  0  0
 28 26  1  0  0  0  0
 29 28  2  0  0  0  0
 30 31  2  0  0  0  0
 30 29  1  0  0  0  0
 31 27  1  0  0  0  0
 32 33  1  0  0  0  0
 34  2  1  0  0  0  0
 35 37  1  0  0  0  0
 35 41  1  0  0  0  0
 36 38  2  0  0  0  0
 36 42  1  0  0  0  0
 37 39  1  0  0  0  0
 39 36  1  0  0  0  0
 40 42  1  0  0  0  0
 41 40  1  0  0  0  0
 41 34  1  1  0  0  0
 43 44  1  0  0  0  0
 43 46  1  0  0  0  0
 44 38  1  0  0  0  0
 45 44  2  0  0  0  0
 46 47  1  0  0  0  0
 47 49  1  6  0  0  0
 47 50  1  0  0  0  0
 48 49  1  0  0  0  0
 50 51  1  0  0  0  0
 51 52  1  0  0  0  0
M  END
>  <MODEL>
8

>  <REMARK>
 VINA RESULT:      -7.1      3.360      4.507
  Name = 
  14 active torsions:
  status: ('A' for Active; 'I' for Inactive)
    1  A    between atoms: C_2  and  C_49
    2  A    between atoms: O_4  and  C_19
    3  A    between atoms: O_4  and  N_23
    4  A    between atoms: N_5  and  C_39
    5  A    between atoms: N_6  and  C_9
    6  A    between atoms: N_6  and  C_18
    7  A    between atoms: C_10  and  C_24
    8  A    between atoms: C_10  and  C_33
    9  A    between atoms: C_14  and  C_44
   10  A    between atoms: C_17  and  C_22
   11  A    between atoms: C_24  and  C_39
   12  A    between atoms: C_24  and  C_50
   13  A    between atoms: N_28  and  C_29
   14  A    between atoms: C_41  and  C_49
                            x       y       z     vdW  Elec       q    Type
                         _______ _______ _______ _____ _____    ______ ____

>  <TORSDO>
F 14

$$$$
=
 OpenBabel10222420153D

 52 56  0  0  1  0  0  0  0  0999 V2000
  192.1650  177.3250  139.7650 N   0  0  0  0  0  2  0  0  0  0  0  0
  189.7560  178.1390  139.7390 C   0  0  0  0  0  0  0  0  0  0  0  0
  190.7500  177.4160  137.8230 N   0  0  0  0  0  0  0  0  0  0  0  0
  193.3440  176.7780  139.1660 C   0  0  0  0  0  0  0  0  0  0  0  0
  188.8320  178.2690  138.7940 C   0  0  0  0  0  0  0  0  0  0  0  0
  194.3600  176.5750  139.8820 O   0  0  0  0  0  0  0  0  0  0  0  0
  193.3840  176.4640  137.7720 N   0  0  0  0  0  2  0  0  0  0  0  0
  189.3800  177.7950  137.4890 C   0  0  0  0  0  2  0  0  0  0  0  0
  190.9360  177.6110  139.0860 C   0  0  0  0  0  0  0  0  0  0  0  0
  194.4870  175.9170  137.2040 O   0  0  0  0  0  0  0  0  0  0  0  0
  195.4350  171.6220  136.6300 C   0  0  0  0  0  2  0  0  0  0  0  0
  193.6990  174.0140  135.9680 C   0  0  1  0  0  3  0  0  0  0  0  0
  194.2890  174.5350  137.2840 C   0  0  1  0  0  3  0  0  0  0  0  0
  195.5950  173.8540  137.6910 C   0  0  0  0  0  2  0  0  0  0  0  0
  194.6340  174.1440  134.7720 C   0  0  0  0  0  1  0  0  0  0  0  0
  193.0830  172.6220  136.1260 C   0  0  0  0  0  2  0  0  0  0  0  0
  194.0510  171.4350  136.0030 C   0  0  0  0  0  2  0  0  0  0  0  0
  195.4020  172.3690  137.9540 C   0  0  0  0  0  2  0  0  0  0  0  0
  187.4450  178.5720  139.0060 N   0  0  0  0  0  2  0  0  0  0  0  0
  186.3370  177.8300  138.4850 C   0  0  0  0  0  0  0  0  0  0  0  0
  184.2380  176.3560  137.3930 C   0  0  0  0  0  0  0  0  0  0  0  0
  185.5340  175.9720  137.2180 N   0  0  0  0  0  0  0  0  0  0  0  0
  185.0170  178.2610  138.6630 C   0  0  0  0  0  3  0  0  0  0  0  0
  186.5740  176.6760  137.7370 C   0  0  0  0  0  3  0  0  0  0  0  0
  183.9640  177.5230  138.1230 C   0  0  0  0  0  3  0  0  0  0  0  0
  181.0640  174.0040  135.7240 C   0  0  0  0  0  3  0  0  0  0  0  0
  182.1120  173.3820  136.4100 C   0  0  0  0  0  0  0  0  0  0  0  0
  181.0480  175.3940  135.5830 C   0  0  0  0  0  3  0  0  0  0  0  0
  182.0810  176.1640  136.1260 C   0  0  0  0  0  3  0  0  0  0  0  0
  183.1410  175.5510  136.8140 C   0  0  0  0  0  0  0  0  0  0  0  0
  183.1470  174.1540  136.9500 C   0  0  0  0  0  3  0  0  0  0  0  0
  183.5730  171.4070  136.6070 C   0  0  0  0  0  1  0  0  0  0  0  0
  182.1390  171.9000  136.5440 C   0  0  0  0  0  2  0  0  0  0  0  0
  189.5550  178.2490  141.2170 C   0  0  0  0  0  2  0  0  0  0  0  0
  190.0400  176.0110  142.3110 C   0  0  0  0  0  2  0  0  0  0  0  0
  189.3110  177.9240  144.8500 C   0  0  0  0  0  0  0  0  0  0  0  0
  188.8840  176.0320  143.3040 C   0  0  0  0  0  2  0  0  0  0  0  0
  188.4520  178.4930  145.6480 N   0  0  0  0  0  0  0  0  0  0  0  0
  189.3710  176.4320  144.6870 C   0  0  0  0  0  2  0  0  0  0  0  0
  191.2260  178.1100  143.1610 C   0  0  0  0  0  2  0  0  0  0  0  0
  190.5780  177.3990  141.9660 C   0  0  2  0  0  3  0  0  0  0  0  0
  190.2260  178.8260  144.0730 C   0  0  0  0  0  2  0  0  0  0  0  0
  186.0970  178.1770  146.3570 N   0  0  0  0  0  2  0  0  0  0  0  0
  187.4810  177.8580  146.4990 C   0  0  0  0  0  0  0  0  0  0  0  0
  187.8260  177.0320  147.3840 O   0  0  0  0  0  0  0  0  0  0  0  0
  185.6160  179.0760  145.3170 C   0  0  0  0  0  2  0  0  0  0  0  0
  184.9740  178.2970  144.1690 C   0  0  2  0  0  3  0  0  0  0  0  0
  185.8960  179.0220  142.0880 O   0  0  0  0  0  1  0  0  0  0  0  0
  185.9930  178.0380  143.0710 C   0  0  0  0  0  2  0  0  0  0  0  0
  183.7540  179.0240  143.6060 C   0  0  0  0  0  2  0  0  0  0  0  0
  182.4870  178.6340  144.3510 C   0  0  0  0  0  2  0  0  0  0  0  0
  181.3690  178.9210  143.5680 O   0  0  0  0  0  1  0  0  0  0  0  0
  2 34  1  0  0  0  0
  3  9  2  0  0  0  0
  4  1  1  0  0  0  0
  4  6  2  0  0  0  0
  5 19  1  0  0  0  0
  5  2  2  0  0  0  0
  7  4  1  0  0  0  0
  8  3  1  0  0  0  0
  8  5  1  0  0  0  0
  9  2  1  0  0  0  0
  9  1  1  0  0  0  0
 10  7  1  0  0  0  0
 11 18  1  0  0  0  0
 12 15  1  6  0  0  0
 12 16  1  0  0  0  0
 12 13  1  0  0  0  0
 13 10  1  6  0  0  0
 13 14  1  0  0  0  0
 14 18  1  0  0  0  0
 17 16  1  0  0  0  0
 17 11  1  0  0  0  0
 20 23  1  0  0  0  0
 20 19  1  0  0  0  0
 21 25  1  0  0  0  0
 22 21  2  0  0  0  0
 22 24  1  0  0  0  0
 24 20  2  0  0  0  0
 25 23  2  0  0  0  0
 26 27  1  0  0  0  0
 27 33  1  0  0  0  0
 27 31  2  0  0  0  0
 28 26  2  0  0  0  0
 28 29  1  0  0  0  0
 29 30  2  0  0  0  0
 30 31  1  0  0  0  0
 30 21  1  0  0  0  0
 33 32  1  0  0  0  0
 35 37  1  0  0  0  0
 36 38  2  0  0  0  0
 37 39  1  0  0  0  0
 38 44  1  0  0  0  0
 39 36  1  0  0  0  0
 40 42  1  0  0  0  0
 41 34  1  1  0  0  0
 41 35  1  0  0  0  0
 41 40  1  0  0  0  0
 42 36  1  0  0  0  0
 43 44  1  0  0  0  0
 44 45  2  0  0  0  0
 46 43  1  0  0  0  0
 47 49  1  6  0  0  0
 47 46  1  0  0  0  0
 48 49  1  0  0  0  0
 50 47  1  0  0  0  0
 50 51  1  0  0  0  0
 52 51  1  0  0  0  0
M  END
>  <MODEL>
9

>  <REMARK>
 VINA RESULT:      -6.8      3.416     11.042
  Name = 
  14 active torsions:
  status: ('A' for Active; 'I' for Inactive)
    1  A    between atoms: C_2  and  C_49
    2  A    between atoms: O_4  and  C_19
    3  A    between atoms: O_4  and  N_23
    4  A    between atoms: N_5  and  C_39
    5  A    between atoms: N_6  and  C_9
    6  A    between atoms: N_6  and  C_18
    7  A    between atoms: C_10  and  C_24
    8  A    between atoms: C_10  and  C_33
    9  A    between atoms: C_14  and  C_44
   10  A    between atoms: C_17  and  C_22
   11  A    between atoms: C_24  and  C_39
   12  A    between atoms: C_24  and  C_50
   13  A    between atoms: N_28  and  C_29
   14  A    between atoms: C_41  and  C_49
                            x       y       z     vdW  Elec       q    Type
                         _______ _______ _______ _____ _____    ______ ____

>  <TORSDO>
F 14

$$$$
