=
 OpenBabel10222418273D

 26 29  0  0  1  0  0  0  0  0999 V2000
  184.5340  178.4670  143.7470 C   0  0  0  0  0  0  0  0  0  0  0  0
  189.6380  177.7300  142.6940 C   0  0  1  0  0  3  0  0  0  0  0  0
  191.1070  177.3180  144.6910 N   0  0  0  0  0  2  0  0  0  0  0  0
  188.5340  177.5840  143.6530 N   0  0  0  0  0  0  0  0  0  0  0  0
  187.2120  177.8590  143.5380 C   0  0  0  0  0  0  0  0  0  0  0  0
  189.9680  177.2980  145.5580 C   0  0  0  0  0  0  0  0  0  0  0  0
  187.5910  177.5830  147.0920 C   0  0  0  0  0  3  0  0  0  0  0  0
  185.1680  178.4890  142.5310 N   0  0  0  0  0  0  0  0  0  0  0  0
  186.4970  178.2010  142.3940 C   0  0  0  0  0  3  0  0  0  0  0  0
  190.0370  177.2740  146.9730 C   0  0  0  0  0  0  0  0  0  0  0  0
  187.5740  177.5720  145.6990 C   0  0  0  0  0  0  0  0  0  0  0  0
  188.8430  177.4250  147.7250 C   0  0  0  0  0  3  0  0  0  0  0  0
  186.5890  177.8380  144.7720 C   0  0  0  0  0  0  0  0  0  0  0  0
  185.2420  178.1510  144.9200 C   0  0  0  0  0  3  0  0  0  0  0  0
  190.9430  177.1000  143.2450 C   0  0  0  0  0  2  0  0  0  0  0  0
  188.7280  177.4290  144.9730 C   0  0  0  0  0  0  0  0  0  0  0  0
  193.3920  176.0530  148.3000 N   0  0  0  0  0  1  0  0  0  0  0  0
  192.0640  175.9710  147.7960 C   0  0  0  0  0  0  0  0  0  0  0  0
  191.2800  177.1610  147.6800 N   0  0  0  0  0  2  0  0  0  0  0  0
  191.5780  174.8450  147.5100 O   0  0  0  0  0  0  0  0  0  0  0  0
  181.9630  179.0560  143.8940 C   0  0  0  0  0  3  0  0  0  0  0  0
  183.1370  178.7880  143.8270 C   0  0  0  0  0  0  0  0  0  0  0  0
  189.2910  177.1060  141.3460 C   0  0  0  0  0  2  0  0  0  0  0  0
  189.7400  177.9150  140.3000 O   0  0  0  0  0  0  0  0  0  0  0  0
  188.6090  178.1360  139.5160 C   0  0  0  0  0  2  0  0  0  0  0  0
  188.9360  179.0540  138.4410 N   0  0  0  0  0  1  0  0  0  0  0  0
  1 22  1  0  0  0  0
  1 14  1  0  0  0  0
  2 23  1  6  0  0  0
  2 15  1  0  0  0  0
  2  4  1  0  0  0  0
  3  6  1  0  0  0  0
  4 16  1  0  0  0  0
  5  4  1  0  0  0  0
  5 13  1  0  0  0  0
  6 10  1  0  0  0  0
  7 12  1  0  0  0  0
  8  1  2  0  0  0  0
  9  8  1  0  0  0  0
  9  5  2  0  0  0  0
 10 19  1  0  0  0  0
 10 12  2  0  0  0  0
 11  7  2  0  0  0  0
 13 14  2  0  0  0  0
 13 11  1  0  0  0  0
 15  3  1  0  0  0  0
 16  6  2  0  0  0  0
 16 11  1  0  0  0  0
 18 17  1  0  0  0  0
 19 18  1  0  0  0  0
 20 18  2  0  0  0  0
 22 21  3  0  0  0  0
 24 23  1  0  0  0  0
 25 24  1  0  0  0  0
 26 25  1  0  0  0  0
M  END
>  <MODEL>
1

>  <REMARK>
 VINA RESULT:      -9.0      0.000      0.000
  Name = 
  5 active torsions:
  status: ('A' for Active; 'I' for Inactive)
    1  A    between atoms: C_1  and  C_19
    2  A    between atoms: C_2  and  C_25
    3  A    between atoms: C_11  and  N_21
    4  A    between atoms: C_14  and  O_18
    5  A    between atoms: O_18  and  C_25
                            x       y       z     vdW  Elec       q    Type
                         _______ _______ _______ _____ _____    ______ ____

>  <TORSDO>
F 5

$$$$
=
 OpenBabel10222418273D

 26 29  0  0  1  0  0  0  0  0999 V2000
  185.2780  178.3110  143.9360 C   0  0  0  0  0  0  0  0  0  0  0  0
  190.2870  176.7380  144.3050 C   0  0  1  0  0  3  0  0  0  0  0  0
  191.5770  176.7160  142.1480 N   0  0  0  0  0  2  0  0  0  0  0  0
  189.2590  177.4330  143.5180 N   0  0  0  0  0  0  0  0  0  0  0  0
  187.9660  177.7230  143.8020 C   0  0  0  0  0  0  0  0  0  0  0  0
  190.4730  177.3020  141.4500 C   0  0  0  0  0  0  0  0  0  0  0  0
  188.0570  178.2010  140.2510 C   0  0  0  0  0  3  0  0  0  0  0  0
  185.9640  177.8950  145.0480 N   0  0  0  0  0  0  0  0  0  0  0  0
  187.2950  177.5870  145.0140 C   0  0  0  0  0  3  0  0  0  0  0  0
  190.3990  177.4500  140.0430 C   0  0  0  0  0  0  0  0  0  0  0  0
  188.1900  178.0660  141.6300 C   0  0  0  0  0  0  0  0  0  0  0  0
  189.1840  177.8920  139.4580 C   0  0  0  0  0  3  0  0  0  0  0  0
  187.2870  178.1360  142.6700 C   0  0  0  0  0  0  0  0  0  0  0  0
  185.9290  178.4300  142.6950 C   0  0  0  0  0  3  0  0  0  0  0  0
  191.6720  176.8240  143.6120 C   0  0  0  0  0  2  0  0  0  0  0  0
  189.3630  177.6370  142.1950 C   0  0  0  0  0  0  0  0  0  0  0  0
  192.5550  175.9120  137.3060 N   0  0  0  0  0  1  0  0  0  0  0  0
  191.5310  175.9900  138.2900 C   0  0  0  0  0  0  0  0  0  0  0  0
  191.4910  177.1120  139.1770 N   0  0  0  0  0  2  0  0  0  0  0  0
  190.7060  175.0460  138.4030 O   0  0  0  0  0  0  0  0  0  0  0  0
  182.7020  178.8640  144.1170 C   0  0  0  0  0  3  0  0  0  0  0  0
  183.8780  178.6110  144.0340 C   0  0  0  0  0  0  0  0  0  0  0  0
  190.3810  177.2990  145.7200 C   0  0  0  0  0  2  0  0  0  0  0  0
  191.6610  177.0980  146.2440 O   0  0  0  0  0  0  0  0  0  0  0  0
  191.4570  176.3110  147.3760 C   0  0  0  0  0  2  0  0  0  0  0  0
  192.7400  175.9590  147.9570 N   0  0  0  0  0  1  0  0  0  0  0  0
  1 22  1  0  0  0  0
  1  8  1  0  0  0  0
  2 23  1  1  0  0  0
  3 15  1  0  0  0  0
  4  5  1  0  0  0  0
  4  2  1  0  0  0  0
  5  9  1  0  0  0  0
  6  3  1  0  0  0  0
  6 16  1  0  0  0  0
  7 11  1  0  0  0  0
  9  8  2  0  0  0  0
 10  6  2  0  0  0  0
 11 16  2  0  0  0  0
 11 13  1  0  0  0  0
 12 10  1  0  0  0  0
 12  7  2  0  0  0  0
 13 14  1  0  0  0  0
 13  5  2  0  0  0  0
 14  1  2  0  0  0  0
 15  2  1  0  0  0  0
 16  4  1  0  0  0  0
 17 18  1  0  0  0  0
 18 20  2  0  0  0  0
 18 19  1  0  0  0  0
 19 10  1  0  0  0  0
 22 21  3  0  0  0  0
 23 24  1  0  0  0  0
 24 25  1  0  0  0  0
 25 26  1  0  0  0  0
M  END
>  <MODEL>
2

>  <REMARK>
 VINA RESULT:      -8.4      1.962      5.763
  Name = 
  5 active torsions:
  status: ('A' for Active; 'I' for Inactive)
    1  A    between atoms: C_1  and  C_19
    2  A    between atoms: C_2  and  C_25
    3  A    between atoms: C_11  and  N_21
    4  A    between atoms: C_14  and  O_18
    5  A    between atoms: O_18  and  C_25
                            x       y       z     vdW  Elec       q    Type
                         _______ _______ _______ _____ _____    ______ ____

>  <TORSDO>
F 5

$$$$
=
 OpenBabel10222418273D

 26 29  0  0  1  0  0  0  0  0999 V2000
  190.2500  176.8590  145.8080 C   0  0  0  0  0  0  0  0  0  0  0  0
  186.1910  178.7500  143.0420 C   0  0  1  0  0  3  0  0  0  0  0  0
  186.5490  178.9010  140.5590 N   0  0  0  0  0  2  0  0  0  0  0  0
  187.4570  178.0050  143.0360 N   0  0  0  0  0  0  0  0  0  0  0  0
  188.2710  177.6250  144.0510 C   0  0  0  0  0  0  0  0  0  0  0  0
  187.8220  178.2580  140.6760 C   0  0  0  0  0  0  0  0  0  0  0  0
  190.4180  177.2270  141.2090 C   0  0  0  0  0  3  0  0  0  0  0  0
  189.0330  177.2960  146.2650 N   0  0  0  0  0  0  0  0  0  0  0  0
  188.0340  177.6920  145.4210 C   0  0  0  0  0  3  0  0  0  0  0  0
  188.7600  178.1350  139.6210 C   0  0  0  0  0  0  0  0  0  0  0  0
  189.4510  177.3420  142.2040 C   0  0  0  0  0  0  0  0  0  0  0  0
  190.0540  177.6260  139.9040 C   0  0  0  0  0  3  0  0  0  0  0  0
  189.4950  177.1920  143.5740 C   0  0  0  0  0  0  0  0  0  0  0  0
  190.5220  176.8090  144.4290 C   0  0  0  0  0  3  0  0  0  0  0  0
  185.5490  178.7700  141.6310 C   0  0  0  0  0  2  0  0  0  0  0  0
  188.2020  177.8360  141.9320 C   0  0  0  0  0  0  0  0  0  0  0  0
  187.2670  178.4780  136.1340 N   0  0  0  0  0  1  0  0  0  0  0  0
  187.6930  177.8340  137.3290 C   0  0  0  0  0  0  0  0  0  0  0  0
  188.4710  178.5620  138.2840 N   0  0  0  0  0  2  0  0  0  0  0  0
  187.4250  176.6160  137.5060 O   0  0  0  0  0  0  0  0  0  0  0  0
  192.1130  176.1340  147.5330 C   0  0  0  0  0  3  0  0  0  0  0  0
  191.2630  176.4650  146.7450 C   0  0  0  0  0  0  0  0  0  0  0  0
  185.2050  178.1680  144.0500 C   0  0  0  0  0  2  0  0  0  0  0  0
  183.8900  178.3900  143.6360 O   0  0  0  0  0  0  0  0  0  0  0  0
  183.2800  179.0120  144.7240 C   0  0  0  0  0  2  0  0  0  0  0  0
  184.1150  178.8570  145.9010 N   0  0  0  0  0  1  0  0  0  0  0  0
  1  8  1  0  0  0  0
  1 22  1  0  0  0  0
  2 23  1  1  0  0  0
  3  6  1  0  0  0  0
  3 15  1  0  0  0  0
  4  2  1  0  0  0  0
  4  5  1  0  0  0  0
  5  9  1  0  0  0  0
  6 16  1  0  0  0  0
  7 11  1  0  0  0  0
  9  8  2  0  0  0  0
 10 12  1  0  0  0  0
 10  6  2  0  0  0  0
 11 13  1  0  0  0  0
 12  7  2  0  0  0  0
 13  5  2  0  0  0  0
 13 14  1  0  0  0  0
 14  1  2  0  0  0  0
 15  2  1  0  0  0  0
 16 11  2  0  0  0  0
 16  4  1  0  0  0  0
 17 18  1  0  0  0  0
 18 20  2  0  0  0  0
 18 19  1  0  0  0  0
 19 10  1  0  0  0  0
 22 21  3  0  0  0  0
 24 23  1  0  0  0  0
 24 25  1  0  0  0  0
 25 26  1  0  0  0  0
M  END
>  <MODEL>
3

>  <REMARK>
 VINA RESULT:      -8.3      2.576      7.292
  Name = 
  5 active torsions:
  status: ('A' for Active; 'I' for Inactive)
    1  A    between atoms: C_1  and  C_19
    2  A    between atoms: C_2  and  C_25
    3  A    between atoms: C_11  and  N_21
    4  A    between atoms: C_14  and  O_18
    5  A    between atoms: O_18  and  C_25
                            x       y       z     vdW  Elec       q    Type
                         _______ _______ _______ _____ _____    ______ ____

>  <TORSDO>
F 5

$$$$
=
 OpenBabel10222418273D

 26 29  0  0  1  0  0  0  0  0999 V2000
  185.2180  178.3260  142.6810 C   0  0  0  0  0  0  0  0  0  0  0  0
  190.4700  178.0080  142.5850 C   0  0  1  0  0  3  0  0  0  0  0  0
  191.5630  177.4750  144.7840 N   0  0  0  0  0  2  0  0  0  0  0  0
  189.2200  177.6970  143.2920 N   0  0  0  0  0  0  0  0  0  0  0  0
  187.9260  177.9030  142.9460 C   0  0  0  0  0  0  0  0  0  0  0  0
  190.2860  177.2960  145.4060 C   0  0  0  0  0  0  0  0  0  0  0  0
  187.6470  177.2760  146.4640 C   0  0  0  0  0  3  0  0  0  0  0  0
  186.0660  178.5140  141.6200 N   0  0  0  0  0  0  0  0  0  0  0  0
  187.4150  178.3210  141.7200 C   0  0  0  0  0  3  0  0  0  0  0  0
  190.0880  177.1270  146.7990 C   0  0  0  0  0  0  0  0  0  0  0  0
  187.8950  177.4120  145.1000 C   0  0  0  0  0  0  0  0  0  0  0  0
  188.7650  177.1270  147.3130 C   0  0  0  0  0  3  0  0  0  0  0  0
  187.0840  177.7150  144.0260 C   0  0  0  0  0  0  0  0  0  0  0  0
  185.7140  177.9300  143.9360 C   0  0  0  0  0  3  0  0  0  0  0  0
  191.6930  177.4020  143.3200 C   0  0  0  0  0  2  0  0  0  0  0  0
  189.1720  177.4140  144.6040 C   0  0  0  0  0  0  0  0  0  0  0  0
  193.3230  176.1040  148.5290 N   0  0  0  0  0  1  0  0  0  0  0  0
  192.1520  175.9650  147.7340 C   0  0  0  0  0  0  0  0  0  0  0  0
  191.1800  177.0140  147.7210 N   0  0  0  0  0  2  0  0  0  0  0  0
  191.9610  174.8980  147.0930 O   0  0  0  0  0  0  0  0  0  0  0  0
  182.6270  178.7430  142.3760 C   0  0  0  0  0  3  0  0  0  0  0  0
  183.8100  178.5530  142.5150 C   0  0  0  0  0  0  0  0  0  0  0  0
  190.4350  177.5110  141.1440 C   0  0  0  0  0  2  0  0  0  0  0  0
  191.7310  177.3480  140.6480 O   0  0  0  0  0  0  0  0  0  0  0  0
  191.5620  176.6830  139.4350 C   0  0  0  0  0  2  0  0  0  0  0  0
  192.8000  176.7330  138.6790 N   0  0  0  0  0  1  0  0  0  0  0  0
  1 14  1  0  0  0  0
  2 23  1  6  0  0  0
  2  4  1  0  0  0  0
  2 15  1  0  0  0  0
  3  6  1  0  0  0  0
  4 16  1  0  0  0  0
  5  4  1  0  0  0  0
  5 13  1  0  0  0  0
  6 10  1  0  0  0  0
  7 12  1  0  0  0  0
  8  9  1  0  0  0  0
  8  1  2  0  0  0  0
  9  5  2  0  0  0  0
 10 12  2  0  0  0  0
 10 19  1  0  0  0  0
 11  7  2  0  0  0  0
 13 11  1  0  0  0  0
 14 13  2  0  0  0  0
 15  3  1  0  0  0  0
 16 11  1  0  0  0  0
 16  6  2  0  0  0  0
 18 17  1  0  0  0  0
 19 18  1  0  0  0  0
 20 18  2  0  0  0  0
 21 22  3  0  0  0  0
 22  1  1  0  0  0  0
 24 23  1  0  0  0  0
 25 24  1  0  0  0  0
 26 25  1  0  0  0  0
M  END
>  <MODEL>
4

>  <REMARK>
 VINA RESULT:      -8.3      1.402      1.443
  Name = 
  5 active torsions:
  status: ('A' for Active; 'I' for Inactive)
    1  A    between atoms: C_1  and  C_19
    2  A    between atoms: C_2  and  C_25
    3  A    between atoms: C_11  and  N_21
    4  A    between atoms: C_14  and  O_18
    5  A    between atoms: O_18  and  C_25
                            x       y       z     vdW  Elec       q    Type
                         _______ _______ _______ _____ _____    ______ ____

>  <TORSDO>
F 5

$$$$
=
 OpenBabel10222418273D

 26 29  0  0  1  0  0  0  0  0999 V2000
  191.6070  176.3760  146.9360 C   0  0  0  0  0  0  0  0  0  0  0  0
  188.7960  177.0100  142.5320 C   0  0  1  0  0  3  0  0  0  0  0  0
  186.4110  177.7300  142.8640 N   0  0  0  0  0  2  0  0  0  0  0  0
  188.9300  177.2830  143.9700 N   0  0  0  0  0  0  0  0  0  0  0  0
  189.9180  176.9790  144.8450 C   0  0  0  0  0  0  0  0  0  0  0  0
  186.6200  177.8640  144.2740 C   0  0  0  0  0  0  0  0  0  0  0  0
  187.2110  177.7800  147.0540 C   0  0  0  0  0  3  0  0  0  0  0  0
  191.9990  176.1830  145.6360 N   0  0  0  0  0  0  0  0  0  0  0  0
  191.1830  176.4630  144.5770 C   0  0  0  0  0  3  0  0  0  0  0  0
  185.5900  178.0980  145.2190 C   0  0  0  0  0  0  0  0  0  0  0  0
  188.1920  177.5850  146.0840 C   0  0  0  0  0  0  0  0  0  0  0  0
  185.8990  178.0450  146.6030 C   0  0  0  0  0  3  0  0  0  0  0  0
  189.5060  177.1740  146.1510 C   0  0  0  0  0  0  0  0  0  0  0  0
  190.3250  176.8710  147.2320 C   0  0  0  0  0  3  0  0  0  0  0  0
  187.5570  177.7300  141.9400 C   0  0  0  0  0  2  0  0  0  0  0  0
  187.8930  177.6340  144.7470 C   0  0  0  0  0  0  0  0  0  0  0  0
  182.4400  179.4380  143.5490 N   0  0  0  0  0  1  0  0  0  0  0  0
  183.7570  179.4560  144.0870 C   0  0  0  0  0  0  0  0  0  0  0  0
  184.2290  178.3280  144.8310 N   0  0  0  0  0  2  0  0  0  0  0  0
  184.4700  180.4840  143.9490 O   0  0  0  0  0  0  0  0  0  0  0  0
  193.2650  175.7830  148.9050 C   0  0  0  0  0  3  0  0  0  0  0  0
  192.5080  176.0540  148.0060 C   0  0  0  0  0  0  0  0  0  0  0  0
  190.0490  177.4240  141.7670 C   0  0  0  0  0  2  0  0  0  0  0  0
  190.5420  176.3550  141.0160 O   0  0  0  0  0  0  0  0  0  0  0  0
  190.5790  176.8320  139.7070 C   0  0  0  0  0  2  0  0  0  0  0  0
  190.6080  175.7130  138.7830 N   0  0  0  0  0  1  0  0  0  0  0  0
  1 14  1  0  0  0  0
  1 22  1  0  0  0  0
  2 23  1  6  0  0  0
  2  4  1  0  0  0  0
  3  6  1  0  0  0  0
  4 16  1  0  0  0  0
  4  5  1  0  0  0  0
  5 13  1  0  0  0  0
  6 16  2  0  0  0  0
  6 10  1  0  0  0  0
  8  1  2  0  0  0  0
  9  5  2  0  0  0  0
  9  8  1  0  0  0  0
 10 12  2  0  0  0  0
 11 13  1  0  0  0  0
 11  7  2  0  0  0  0
 12  7  1  0  0  0  0
 13 14  2  0  0  0  0
 15  2  1  0  0  0  0
 15  3  1  0  0  0  0
 16 11  1  0  0  0  0
 17 18  1  0  0  0  0
 18 19  1  0  0  0  0
 19 10  1  0  0  0  0
 20 18  2  0  0  0  0
 22 21  3  0  0  0  0
 24 23  1  0  0  0  0
 25 24  1  0  0  0  0
 26 25  1  0  0  0  0
M  END
>  <MODEL>
5

>  <REMARK>
 VINA RESULT:      -8.3      2.043      6.209
  Name = 
  5 active torsions:
  status: ('A' for Active; 'I' for Inactive)
    1  A    between atoms: C_1  and  C_19
    2  A    between atoms: C_2  and  C_25
    3  A    between atoms: C_11  and  N_21
    4  A    between atoms: C_14  and  O_18
    5  A    between atoms: O_18  and  C_25
                            x       y       z     vdW  Elec       q    Type
                         _______ _______ _______ _____ _____    ______ ____

>  <TORSDO>
F 5

$$$$
=
 OpenBabel10222418273D

 26 29  0  0  1  0  0  0  0  0999 V2000
  184.9670  178.4090  143.6260 C   0  0  0  0  0  0  0  0  0  0  0  0
  189.9740  176.9850  144.4030 C   0  0  1  0  0  3  0  0  0  0  0  0
  191.3990  176.8660  142.3360 N   0  0  0  0  0  2  0  0  0  0  0  0
  188.9840  177.6070  143.5120 N   0  0  0  0  0  0  0  0  0  0  0  0
  187.6700  177.8810  143.6960 C   0  0  0  0  0  0  0  0  0  0  0  0
  190.3290  177.3820  141.5360 C   0  0  0  0  0  0  0  0  0  0  0  0
  187.9760  178.1470  140.1350 C   0  0  0  0  0  3  0  0  0  0  0  0
  185.5890  178.0780  144.8020 N   0  0  0  0  0  0  0  0  0  0  0  0
  186.9260  177.8020  144.8700 C   0  0  0  0  0  3  0  0  0  0  0  0
  190.3430  177.4430  140.1200 C   0  0  0  0  0  0  0  0  0  0  0  0
  188.0250  178.0990  141.5260 C   0  0  0  0  0  0  0  0  0  0  0  0
  189.1590  177.8190  139.4350 C   0  0  0  0  0  3  0  0  0  0  0  0
  187.0560  178.2080  142.5010 C   0  0  0  0  0  0  0  0  0  0  0  0
  185.6930  178.4700  142.4230 C   0  0  0  0  0  3  0  0  0  0  0  0
  191.3980  177.0640  143.7940 C   0  0  0  0  0  2  0  0  0  0  0  0
  189.1680  177.7330  142.1880 C   0  0  0  0  0  0  0  0  0  0  0  0
  192.6740  175.8910  137.5380 N   0  0  0  0  0  1  0  0  0  0  0  0
  191.5660  175.9880  138.4260 C   0  0  0  0  0  0  0  0  0  0  0  0
  191.4940  177.0800  139.3470 N   0  0  0  0  0  2  0  0  0  0  0  0
  190.6910  175.0820  138.4270 O   0  0  0  0  0  0  0  0  0  0  0  0
  182.3730  178.9090  143.6110 C   0  0  0  0  0  3  0  0  0  0  0  0
  183.5580  178.6810  143.6180 C   0  0  0  0  0  0  0  0  0  0  0  0
  189.9660  177.6330  145.7840 C   0  0  0  0  0  2  0  0  0  0  0  0
  189.4940  176.7350  146.7440 O   0  0  0  0  0  0  0  0  0  0  0  0
  189.3760  177.4950  147.9070 C   0  0  0  0  0  2  0  0  0  0  0  0
  188.0010  177.4570  148.3720 N   0  0  0  0  0  1  0  0  0  0  0  0
  1  8  1  0  0  0  0
  2 23  1  1  0  0  0
  3 15  1  0  0  0  0
  4  5  1  0  0  0  0
  4  2  1  0  0  0  0
  5  9  1  0  0  0  0
  6 16  1  0  0  0  0
  6  3  1  0  0  0  0
  7 11  1  0  0  0  0
  8  9  2  0  0  0  0
 10  6  2  0  0  0  0
 11 16  2  0  0  0  0
 11 13  1  0  0  0  0
 12 10  1  0  0  0  0
 12  7  2  0  0  0  0
 13  5  2  0  0  0  0
 14 13  1  0  0  0  0
 14  1  2  0  0  0  0
 15  2  1  0  0  0  0
 16  4  1  0  0  0  0
 17 18  1  0  0  0  0
 18 20  2  0  0  0  0
 18 19  1  0  0  0  0
 19 10  1  0  0  0  0
 21 22  3  0  0  0  0
 22  1  1  0  0  0  0
 23 24  1  0  0  0  0
 24 25  1  0  0  0  0
 25 26  1  0  0  0  0
M  END
>  <MODEL>
6

>  <REMARK>
 VINA RESULT:      -8.0      2.060      5.672
  Name = 
  5 active torsions:
  status: ('A' for Active; 'I' for Inactive)
    1  A    between atoms: C_1  and  C_19
    2  A    between atoms: C_2  and  C_25
    3  A    between atoms: C_11  and  N_21
    4  A    between atoms: C_14  and  O_18
    5  A    between atoms: O_18  and  C_25
                            x       y       z     vdW  Elec       q    Type
                         _______ _______ _______ _____ _____    ______ ____

>  <TORSDO>
F 5

$$$$
=
 OpenBabel10222418273D

 26 29  0  0  1  0  0  0  0  0999 V2000
  188.4870  178.2000  139.1310 C   0  0  0  0  0  0  0  0  0  0  0  0
  186.5680  177.8900  144.0220 C   0  0  1  0  0  3  0  0  0  0  0  0
  188.2670  177.4680  145.8270 N   0  0  0  0  0  2  0  0  0  0  0  0
  187.7420  178.0790  143.1590 N   0  0  0  0  0  0  0  0  0  0  0  0
  187.8510  178.1680  141.8110 C   0  0  0  0  0  0  0  0  0  0  0  0
  189.3360  177.5670  144.8800 C   0  0  0  0  0  0  0  0  0  0  0  0
  191.2440  177.5310  142.7720 C   0  0  0  0  0  3  0  0  0  0  0  0
  187.1840  178.3010  139.5470 N   0  0  0  0  0  0  0  0  0  0  0  0
  186.8330  178.2790  140.8670 C   0  0  0  0  0  3  0  0  0  0  0  0
  190.6890  177.2530  145.1620 C   0  0  0  0  0  0  0  0  0  0  0  0
  189.9090  177.8610  142.5540 C   0  0  0  0  0  0  0  0  0  0  0  0
  191.6280  177.2310  144.0980 C   0  0  0  0  0  3  0  0  0  0  0  0
  189.1690  178.0600  141.4080 C   0  0  0  0  0  0  0  0  0  0  0  0
  189.5280  178.0600  140.0650 C   0  0  0  0  0  3  0  0  0  0  0  0
  186.9470  178.0410  145.5180 C   0  0  0  0  0  2  0  0  0  0  0  0
  189.0010  177.8790  143.5810 C   0  0  0  0  0  0  0  0  0  0  0  0
  192.6130  175.7600  148.0900 N   0  0  0  0  0  1  0  0  0  0  0  0
  192.0560  175.8440  146.7840 C   0  0  0  0  0  0  0  0  0  0  0  0
  191.1370  176.8960  146.4760 N   0  0  0  0  0  2  0  0  0  0  0  0
  192.3380  174.9610  145.9310 O   0  0  0  0  0  0  0  0  0  0  0  0
  189.0440  178.2370  136.5490 C   0  0  0  0  0  3  0  0  0  0  0  0
  188.7900  178.2200  137.7280 C   0  0  0  0  0  0  0  0  0  0  0  0
  185.4530  178.8680  143.6700 C   0  0  0  0  0  2  0  0  0  0  0  0
  184.2560  178.1860  143.4380 O   0  0  0  0  0  0  0  0  0  0  0  0
  183.2790  178.9790  144.0350 C   0  0  0  0  0  2  0  0  0  0  0  0
  183.4860  179.0030  145.4720 N   0  0  0  0  0  1  0  0  0  0  0  0
  1  8  2  0  0  0  0
  1 14  1  0  0  0  0
  2 23  1  6  0  0  0
  2 15  1  0  0  0  0
  4 16  1  0  0  0  0
  4  2  1  0  0  0  0
  5  4  1  0  0  0  0
  6 10  1  0  0  0  0
  6  3  1  0  0  0  0
  7 12  1  0  0  0  0
  8  9  1  0  0  0  0
  9  5  2  0  0  0  0
 10 19  1  0  0  0  0
 11  7  2  0  0  0  0
 11 16  1  0  0  0  0
 12 10  2  0  0  0  0
 13  5  1  0  0  0  0
 13 11  1  0  0  0  0
 14 13  2  0  0  0  0
 15  3  1  0  0  0  0
 16  6  2  0  0  0  0
 18 17  1  0  0  0  0
 19 18  1  0  0  0  0
 20 18  2  0  0  0  0
 21 22  3  0  0  0  0
 22  1  1  0  0  0  0
 24 23  1  0  0  0  0
 24 25  1  0  0  0  0
 25 26  1  0  0  0  0
M  END
>  <MODEL>
7

>  <REMARK>
 VINA RESULT:      -7.8      1.906      4.833
  Name = 
  5 active torsions:
  status: ('A' for Active; 'I' for Inactive)
    1  A    between atoms: C_1  and  C_19
    2  A    between atoms: C_2  and  C_25
    3  A    between atoms: C_11  and  N_21
    4  A    between atoms: C_14  and  O_18
    5  A    between atoms: O_18  and  C_25
                            x       y       z     vdW  Elec       q    Type
                         _______ _______ _______ _____ _____    ______ ____

>  <TORSDO>
F 5

$$$$
=
 OpenBabel10222418273D

 26 29  0  0  1  0  0  0  0  0999 V2000
  187.1270  177.9050  146.4890 C   0  0  0  0  0  0  0  0  0  0  0  0
  184.3020  179.1790  142.2350 C   0  0  1  0  0  3  0  0  0  0  0  0
  185.5170  179.0200  140.0400 N   0  0  0  0  0  2  0  0  0  0  0  0
  185.4930  178.5130  142.7810 N   0  0  0  0  0  0  0  0  0  0  0  0
  185.8960  178.3180  144.0600 C   0  0  0  0  0  0  0  0  0  0  0  0
  186.6700  178.4720  140.6880 C   0  0  0  0  0  0  0  0  0  0  0  0
  188.9150  177.6700  142.2390 C   0  0  0  0  0  3  0  0  0  0  0  0
  185.8240  178.3290  146.4220 N   0  0  0  0  0  0  0  0  0  0  0  0
  185.1870  178.5510  145.2350 C   0  0  0  0  0  3  0  0  0  0  0  0
  187.9230  178.2640  140.0580 C   0  0  0  0  0  0  0  0  0  0  0  0
  187.6560  177.8600  142.8050 C   0  0  0  0  0  0  0  0  0  0  0  0
  189.0350  177.8710  140.8470 C   0  0  0  0  0  3  0  0  0  0  0  0
  187.2120  177.8960  144.1100 C   0  0  0  0  0  0  0  0  0  0  0  0
  187.8710  177.6880  145.3150 C   0  0  0  0  0  3  0  0  0  0  0  0
  184.2030  178.9750  140.7010 C   0  0  0  0  0  2  0  0  0  0  0  0
  186.5820  178.2420  142.0440 C   0  0  0  0  0  0  0  0  0  0  0  0
  187.8240  178.0090  136.2590 N   0  0  0  0  0  1  0  0  0  0  0  0
  187.8170  177.5670  137.6110 C   0  0  0  0  0  0  0  0  0  0  0  0
  188.1240  178.4930  138.6570 N   0  0  0  0  0  2  0  0  0  0  0  0
  187.5940  176.3540  137.8660 O   0  0  0  0  0  0  0  0  0  0  0  0
  188.2610  177.5220  148.8440 C   0  0  0  0  0  3  0  0  0  0  0  0
  187.7430  177.6970  147.7680 C   0  0  0  0  0  0  0  0  0  0  0  0
  183.0270  178.6790  142.9060 C   0  0  0  0  0  2  0  0  0  0  0  0
  181.9100  178.9790  142.1220 O   0  0  0  0  0  0  0  0  0  0  0  0
  180.9090  179.2890  143.0410 C   0  0  0  0  0  2  0  0  0  0  0  0
  180.2020  180.4790  142.6040 N   0  0  0  0  0  1  0  0  0  0  0  0
  1 22  1  0  0  0  0
  2  4  1  0  0  0  0
  2 23  1  1  0  0  0
  3  6  1  0  0  0  0
  3 15  1  0  0  0  0
  4  5  1  0  0  0  0
  5 13  2  0  0  0  0
  5  9  1  0  0  0  0
  6 16  1  0  0  0  0
  7 11  1  0  0  0  0
  8  1  1  0  0  0  0
  9  8  2  0  0  0  0
 10  6  2  0  0  0  0
 10 12  1  0  0  0  0
 11 13  1  0  0  0  0
 12  7  2  0  0  0  0
 13 14  1  0  0  0  0
 14  1  2  0  0  0  0
 15  2  1  0  0  0  0
 16  4  1  0  0  0  0
 16 11  2  0  0  0  0
 17 18  1  0  0  0  0
 18 20  2  0  0  0  0
 18 19  1  0  0  0  0
 19 10  1  0  0  0  0
 22 21  3  0  0  0  0
 24 23  1  0  0  0  0
 24 25  1  0  0  0  0
 26 25  1  0  0  0  0
M  END
>  <MODEL>
8

>  <REMARK>
 VINA RESULT:      -7.8      3.467      7.014
  Name = 
  5 active torsions:
  status: ('A' for Active; 'I' for Inactive)
    1  A    between atoms: C_1  and  C_19
    2  A    between atoms: C_2  and  C_25
    3  A    between atoms: C_11  and  N_21
    4  A    between atoms: C_14  and  O_18
    5  A    between atoms: O_18  and  C_25
                            x       y       z     vdW  Elec       q    Type
                         _______ _______ _______ _____ _____    ______ ____

>  <TORSDO>
F 5

$$$$
=
 OpenBabel10222418273D

 26 29  0  0  1  0  0  0  0  0999 V2000
  189.4970  177.4910  142.0020 C   0  0  0  0  0  0  0  0  0  0  0  0
  186.5530  178.4060  146.2680 C   0  0  1  0  0  3  0  0  0  0  0  0
  184.1280  178.8950  145.8250 N   0  0  0  0  0  2  0  0  0  0  0  0
  186.5970  178.0580  144.8410 N   0  0  0  0  0  0  0  0  0  0  0  0
  187.6440  177.8280  144.0120 C   0  0  0  0  0  0  0  0  0  0  0  0
  184.3030  178.6340  144.4290 C   0  0  0  0  0  0  0  0  0  0  0  0
  184.9710  178.3400  141.6800 C   0  0  0  0  0  3  0  0  0  0  0  0
  189.8820  177.5150  143.3180 N   0  0  0  0  0  0  0  0  0  0  0  0
  188.9910  177.6900  144.3380 C   0  0  0  0  0  3  0  0  0  0  0  0
  183.3240  178.8880  143.4360 C   0  0  0  0  0  0  0  0  0  0  0  0
  185.8870  178.0760  142.6950 C   0  0  0  0  0  0  0  0  0  0  0  0
  183.6740  178.7440  142.0690 C   0  0  0  0  0  3  0  0  0  0  0  0
  187.2400  177.8110  142.6900 C   0  0  0  0  0  0  0  0  0  0  0  0
  188.1460  177.6560  141.6470 C   0  0  0  0  0  3  0  0  0  0  0  0
  185.0990  178.3800  146.8040 C   0  0  0  0  0  2  0  0  0  0  0  0
  185.5500  178.2170  144.0160 C   0  0  0  0  0  0  0  0  0  0  0  0
  179.5420  179.2110  143.7540 N   0  0  0  0  0  1  0  0  0  0  0  0
  180.7910  178.8650  143.1680 C   0  0  0  0  0  0  0  0  0  0  0  0
  182.0030  179.3430  143.7590 N   0  0  0  0  0  2  0  0  0  0  0  0
  180.8120  178.1860  142.1080 O   0  0  0  0  0  0  0  0  0  0  0  0
  191.3120  177.1630  140.1110 C   0  0  0  0  0  3  0  0  0  0  0  0
  190.4830  177.3120  140.9740 C   0  0  0  0  0  0  0  0  0  0  0  0
  187.4270  177.4710  147.0970 C   0  0  0  0  0  2  0  0  0  0  0  0
  187.6310  177.9940  148.3760 O   0  0  0  0  0  0  0  0  0  0  0  0
  189.0010  178.2400  148.4410 C   0  0  0  0  0  2  0  0  0  0  0  0
  189.7120  177.2120  147.7030 N   0  0  0  0  0  1  0  0  0  0  0  0
  1  8  1  0  0  0  0
  2 15  1  0  0  0  0
  2 23  1  1  0  0  0
  3 15  1  0  0  0  0
  4  2  1  0  0  0  0
  5  9  1  0  0  0  0
  5  4  1  0  0  0  0
  6  3  1  0  0  0  0
  7 12  2  0  0  0  0
  7 11  1  0  0  0  0
  8  9  2  0  0  0  0
 10 19  1  0  0  0  0
 10  6  2  0  0  0  0
 11 16  2  0  0  0  0
 12 10  1  0  0  0  0
 13 11  1  0  0  0  0
 13  5  2  0  0  0  0
 14  1  2  0  0  0  0
 14 13  1  0  0  0  0
 16  6  1  0  0  0  0
 16  4  1  0  0  0  0
 18 17  1  0  0  0  0
 18 19  1  0  0  0  0
 20 18  2  0  0  0  0
 21 22  3  0  0  0  0
 22  1  1  0  0  0  0
 23 24  1  0  0  0  0
 24 25  1  0  0  0  0
 26 25  1  0  0  0  0
M  END
>  <MODEL>
9

>  <REMARK>
 VINA RESULT:      -7.7      2.811      7.646
  Name = 
  5 active torsions:
  status: ('A' for Active; 'I' for Inactive)
    1  A    between atoms: C_1  and  C_19
    2  A    between atoms: C_2  and  C_25
    3  A    between atoms: C_11  and  N_21
    4  A    between atoms: C_14  and  O_18
    5  A    between atoms: O_18  and  C_25
                            x       y       z     vdW  Elec       q    Type
                         _______ _______ _______ _____ _____    ______ ____

>  <TORSDO>
F 5

$$$$
