=
 OpenBabel10222419223D

 49 53  0  0  1  0  0  0  0  0999 V2000
  188.2290  174.6560  136.3610 C   0  0  0  0  0  0  0  0  0  0  0  0
  185.8460  174.8330  137.0240 C   0  0  0  0  0  0  0  0  0  0  0  0
  184.7190  175.5550  137.4150 C   0  0  0  0  0  3  0  0  0  0  0  0
  188.1630  173.3600  136.4610 N   0  0  0  0  0  0  0  0  0  0  0  0
  187.0340  172.6680  137.0920 C   0  0  0  0  0  2  0  0  0  0  0  0
  186.0260  177.5860  137.4580 C   0  0  0  0  0  3  0  0  0  0  0  0
  187.0770  175.4870  136.8120 C   0  0  0  0  0  0  0  0  0  0  0  0
  187.1620  176.8820  137.0430 C   0  0  0  0  0  0  0  0  0  0  0  0
  184.8090  176.9330  137.6490 C   0  0  0  0  0  0  0  0  0  0  0  0
  185.7190  173.3660  136.7520 C   0  0  0  0  0  2  0  0  0  0  0  0
  183.6110  177.7470  138.0280 C   0  0  0  0  0  2  0  0  0  0  0  0
  183.9540  178.7940  140.3110 C   0  0  0  0  0  0  0  0  0  0  0  0
  184.6680  179.7090  139.8140 O   0  0  0  0  0  0  0  0  0  0  0  0
  183.4080  177.7670  139.4720 N   0  0  0  0  0  2  0  0  0  0  0  0
  182.5150  178.9640  142.2870 O   0  0  0  0  0  0  0  0  0  0  0  0
  184.6440  178.5720  142.7380 C   0  0  0  0  0  3  0  0  0  0  0  0
  183.9420  178.6420  143.9270 C   0  0  0  0  0  3  0  0  0  0  0  0
  182.6200  178.8910  143.5920 C   0  0  0  0  0  3  0  0  0  0  0  0
  183.6980  178.7790  141.7540 C   0  0  0  0  0  0  0  0  0  0  0  0
  188.4430  177.6430  136.9100 C   0  0  0  0  0  2  0  0  0  0  0  0
  189.1420  179.6150  138.0340 O   0  0  0  0  0  1  0  0  0  0  0  0
  188.8540  178.2650  138.2360 C   0  0  2  0  0  3  0  0  0  0  0  0
  190.0830  177.5640  138.7960 C   0  0  0  0  0  2  0  0  0  0  0  0
  190.1370  177.7030  140.3090 C   0  0  0  0  0  2  0  0  0  0  0  0
  188.8120  177.3070  140.9410 C   0  0  0  0  0  2  0  0  0  0  0  0
  187.8370  178.3690  148.0470 O   0  0  0  0  0  0  0  0  0  0  0  0
  189.0460  176.7910  142.3510 C   0  0  1  0  0  3  0  0  0  0  0  0
  191.1380  177.0740  143.8730 C   0  0  1  0  0  3  0  0  0  0  0  0
  188.0920  177.9770  145.7860 O   0  0  0  0  0  0  0  0  0  0  0  0
  191.5160  178.3960  143.6410 O   0  0  0  0  0  1  0  0  0  0  0  0
  190.5880  176.8500  146.3240 C   0  0  0  0  0  0  0  0  0  0  0  0
  190.1810  177.0180  145.0410 C   0  0  0  0  0  0  0  0  0  0  0  0
  190.5370  176.4780  142.5900 C   0  0  0  0  0  2  0  0  0  0  0  0
  188.6990  177.1760  144.7720 C   0  0  2  0  0  3  0  0  0  0  0  0
  188.4440  177.7670  147.1210 C   0  0  0  0  0  0  0  0  0  0  0  0
  188.4410  177.7410  143.3820 C   0  0  0  0  0  2  0  0  0  0  0  0
  189.5620  176.8170  147.4350 C   0  0  0  0  0  2  0  0  0  0  0  0
  192.3530  175.8370  147.7780 C   0  0  0  0  0  1  0  0  0  0  0  0
  191.9260  176.6750  146.7080 O   0  0  0  0  0  0  0  0  0  0  0  0
  189.3440  175.2590  135.7660 O   0  0  0  0  0  0  0  0  0  0  0  0
  190.6090  174.6180  135.6590 C   0  0  0  0  0  2  0  0  0  0  0  0
  191.7180  175.6090  135.9640 C   0  0  0  0  0  2  0  0  0  0  0  0
  191.5150  174.4680  138.0480 O   0  0  0  0  0  1  0  0  0  0  0  0
  192.3500  175.3120  137.3160 C   0  0  1  0  0  3  0  0  0  0  0  0
  193.7380  174.6900  137.1740 C   0  0  0  0  0  2  0  0  0  0  0  0
  195.4870  174.4360  138.9690 C   0  0  0  0  0  0  0  0  0  0  0  0
  196.2990  174.9620  139.7740 O   0  0  0  0  0  1  0  0  0  0  0  0
  194.6740  175.2630  138.1340 N   0  0  0  0  0  2  0  0  0  0  0  0
  195.4010  173.0510  138.8930 O   0  0  0  0  0  0  0  0  0  0  0  0
  1  4  2  0  0  0  0
  1  7  1  0  0  0  0
  2  3  1  0  0  0  0
  3  9  2  0  0  0  0
  4  5  1  0  0  0  0
  6  9  1  0  0  0  0
  7  2  2  0  0  0  0
  7  8  1  0  0  0  0
  8  6  2  0  0  0  0
  9 11  1  0  0  0  0
 10  2  1  0  0  0  0
 10  5  1  0  0  0  0
 11 14  1  0  0  0  0
 12 19  1  0  0  0  0
 13 12  2  0  0  0  0
 14 12  1  0  0  0  0
 15 18  1  0  0  0  0
 16 17  1  0  0  0  0
 18 17  2  0  0  0  0
 19 15  1  0  0  0  0
 19 16  2  0  0  0  0
 20  8  1  0  0  0  0
 20 22  1  0  0  0  0
 22 21  1  6  0  0  0
 22 23  1  0  0  0  0
 23 24  1  0  0  0  0
 24 25  1  0  0  0  0
 27 25  1  6  0  0  0
 27 33  1  0  0  0  0
 27 36  1  0  0  0  0
 28 30  1  6  0  0  0
 28 32  1  0  0  0  0
 29 35  1  0  0  0  0
 31 39  1  0  0  0  0
 31 37  1  0  0  0  0
 32 31  2  0  0  0  0
 33 28  1  0  0  0  0
 34 36  1  6  0  0  0
 34 32  1  0  0  0  0
 34 29  1  0  0  0  0
 35 37  1  0  0  0  0
 35 26  2  0  0  0  0
 39 38  1  0  0  0  0
 40  1  1  0  0  0  0
 41 40  1  0  0  0  0
 41 42  1  0  0  0  0
 42 44  1  0  0  0  0
 44 43  1  6  0  0  0
 45 44  1  0  0  0  0
 45 48  1  0  0  0  0
 46 47  1  0  0  0  0
 48 46  1  0  0  0  0
 49 46  2  0  0  0  0
M  END
>  <MODEL>
1

>  <REMARK>
 VINA RESULT:      -9.2      0.000      0.000
  Name = 
  16 active torsions:
  status: ('A' for Active; 'I' for Inactive)
    1  A    between atoms: C_1  and  O_14
    2  A    between atoms: C_3  and  C_43
    3  A    between atoms: C_4  and  C_19
    4  A    between atoms: C_4  and  C_45
    5  A    between atoms: C_11  and  C_29
    6  A    between atoms: O_14  and  C_19
    7  A    between atoms: C_17  and  O_27
    8  A    between atoms: C_21  and  C_32
    9  A    between atoms: C_21  and  C_40
   10  A    between atoms: C_29  and  C_32
   11  A    between atoms: C_30  and  C_39
   12  A    between atoms: C_30  and  C_40
   13  A    between atoms: C_35  and  N_41
   14  A    between atoms: C_35  and  C_45
   15  A    between atoms: C_36  and  N_42
   16  A    between atoms: C_36  and  C_47
                            x       y       z     vdW  Elec       q    Type
                         _______ _______ _______ _____ _____    ______ ____

>  <TORSDO>
F 16

$$$$
=
 OpenBabel10222419223D

 49 53  0  0  1  0  0  0  0  0999 V2000
  186.3720  174.4490  136.3200 C   0  0  0  0  0  0  0  0  0  0  0  0
  184.3710  175.2280  137.5610 C   0  0  0  0  0  0  0  0  0  0  0  0
  183.5940  176.2170  138.1640 C   0  0  0  0  0  3  0  0  0  0  0  0
  186.0370  173.2120  136.5500 N   0  0  0  0  0  0  0  0  0  0  0  0
  184.9950  172.8380  137.5140 C   0  0  0  0  0  2  0  0  0  0  0  0
  185.2970  177.8600  137.6800 C   0  0  0  0  0  3  0  0  0  0  0  0
  185.6140  175.5500  136.9770 C   0  0  0  0  0  0  0  0  0  0  0  0
  186.0800  176.8860  137.0500 C   0  0  0  0  0  0  0  0  0  0  0  0
  184.0620  177.5340  138.2390 C   0  0  0  0  0  0  0  0  0  0  0  0
  183.8360  173.8320  137.4650 C   0  0  0  0  0  2  0  0  0  0  0  0
  183.2380  178.6300  138.8410 C   0  0  0  0  0  2  0  0  0  0  0  0
  184.2140  179.0170  141.1490 C   0  0  0  0  0  0  0  0  0  0  0  0
  185.2480  179.5430  140.6510 O   0  0  0  0  0  0  0  0  0  0  0  0
  183.1740  178.5210  140.2940 N   0  0  0  0  0  2  0  0  0  0  0  0
  182.9500  178.9990  143.2470 O   0  0  0  0  0  0  0  0  0  0  0  0
  185.1250  178.6840  143.4880 C   0  0  0  0  0  3  0  0  0  0  0  0
  184.5290  178.6490  144.7350 C   0  0  0  0  0  3  0  0  0  0  0  0
  183.1730  178.8520  144.5310 C   0  0  0  0  0  3  0  0  0  0  0  0
  184.0880  178.9040  142.6040 C   0  0  0  0  0  0  0  0  0  0  0  0
  187.4160  177.3020  136.5200 C   0  0  0  0  0  2  0  0  0  0  0  0
  189.3840  178.5390  137.0090 O   0  0  0  0  0  1  0  0  0  0  0  0
  188.2480  177.9820  137.5970 C   0  0  2  0  0  3  0  0  0  0  0  0
  188.6690  176.9790  138.6600 C   0  0  0  0  0  2  0  0  0  0  0  0
  188.7760  177.6500  140.0200 C   0  0  0  0  0  2  0  0  0  0  0  0
  190.1850  177.5270  140.5790 C   0  0  0  0  0  2  0  0  0  0  0  0
  192.4650  175.5530  147.1730 O   0  0  0  0  0  0  0  0  0  0  0  0
  190.1750  177.8160  142.0710 C   0  0  1  0  0  3  0  0  0  0  0  0
  188.4070  177.1470  143.8580 C   0  0  1  0  0  3  0  0  0  0  0  0
  191.7910  176.2390  145.0740 O   0  0  0  0  0  0  0  0  0  0  0  0
  188.0700  175.8440  143.4910 O   0  0  0  0  0  1  0  0  0  0  0  0
  189.3690  177.0660  146.1880 C   0  0  0  0  0  0  0  0  0  0  0  0
  189.5500  177.1160  144.8450 C   0  0  0  0  0  0  0  0  0  0  0  0
  188.7350  177.9670  142.6010 C   0  0  0  0  0  2  0  0  0  0  0  0
  190.9680  177.1220  144.3110 C   0  0  2  0  0  3  0  0  0  0  0  0
  191.6690  176.2280  146.4650 C   0  0  0  0  0  0  0  0  0  0  0  0
  191.0070  176.7840  142.8270 C   0  0  0  0  0  2  0  0  0  0  0  0
  190.5720  177.0270  147.1040 C   0  0  0  0  0  2  0  0  0  0  0  0
  187.5880  178.1700  147.5540 C   0  0  0  0  0  1  0  0  0  0  0  0
  188.1130  177.0720  146.8120 O   0  0  0  0  0  0  0  0  0  0  0  0
  187.3890  174.7420  135.4030 O   0  0  0  0  0  0  0  0  0  0  0  0
  188.4690  173.8570  135.1330 C   0  0  0  0  0  2  0  0  0  0  0  0
  189.7870  174.6040  135.2300 C   0  0  0  0  0  2  0  0  0  0  0  0
  189.8460  173.5550  137.3700 O   0  0  0  0  0  1  0  0  0  0  0  0
  190.2500  174.6950  136.6770 C   0  0  1  0  0  3  0  0  0  0  0  0
  191.7640  174.8700  136.7820 C   0  0  0  0  0  2  0  0  0  0  0  0
  193.1980  176.4430  138.1280 C   0  0  0  0  0  0  0  0  0  0  0  0
  193.4820  176.9750  139.2330 O   0  0  0  0  0  1  0  0  0  0  0  0
  192.1370  175.4900  138.0480 N   0  0  0  0  0  2  0  0  0  0  0  0
  193.9170  176.8020  136.9940 O   0  0  0  0  0  0  0  0  0  0  0  0
  1  4  2  0  0  0  0
  1  7  1  0  0  0  0
  2  3  1  0  0  0  0
  3  9  2  0  0  0  0
  4  5  1  0  0  0  0
  6  9  1  0  0  0  0
  7  8  1  0  0  0  0
  7  2  2  0  0  0  0
  8  6  2  0  0  0  0
  9 11  1  0  0  0  0
 10  5  1  0  0  0  0
 10  2  1  0  0  0  0
 11 14  1  0  0  0  0
 12 19  1  0  0  0  0
 13 12  2  0  0  0  0
 14 12  1  0  0  0  0
 15 18  1  0  0  0  0
 16 17  1  0  0  0  0
 18 17  2  0  0  0  0
 19 15  1  0  0  0  0
 19 16  2  0  0  0  0
 20  8  1  0  0  0  0
 20 22  1  0  0  0  0
 22 21  1  6  0  0  0
 22 23  1  0  0  0  0
 23 24  1  0  0  0  0
 24 25  1  0  0  0  0
 27 25  1  6  0  0  0
 27 33  1  0  0  0  0
 27 36  1  0  0  0  0
 28 30  1  6  0  0  0
 28 32  1  0  0  0  0
 29 35  1  0  0  0  0
 31 39  1  0  0  0  0
 31 37  1  0  0  0  0
 32 31  2  0  0  0  0
 33 28  1  0  0  0  0
 34 36  1  6  0  0  0
 34 32  1  0  0  0  0
 34 29  1  0  0  0  0
 35 37  1  0  0  0  0
 35 26  2  0  0  0  0
 39 38  1  0  0  0  0
 40  1  1  0  0  0  0
 41 42  1  0  0  0  0
 41 40  1  0  0  0  0
 42 44  1  0  0  0  0
 44 45  1  0  0  0  0
 44 43  1  1  0  0  0
 45 48  1  0  0  0  0
 46 47  1  0  0  0  0
 48 46  1  0  0  0  0
 49 46  2  0  0  0  0
M  END
>  <MODEL>
2

>  <REMARK>
 VINA RESULT:      -8.9      1.554      2.381
  Name = 
  16 active torsions:
  status: ('A' for Active; 'I' for Inactive)
    1  A    between atoms: C_1  and  O_14
    2  A    between atoms: C_3  and  C_43
    3  A    between atoms: C_4  and  C_19
    4  A    between atoms: C_4  and  C_45
    5  A    between atoms: C_11  and  C_29
    6  A    between atoms: O_14  and  C_19
    7  A    between atoms: C_17  and  O_27
    8  A    between atoms: C_21  and  C_32
    9  A    between atoms: C_21  and  C_40
   10  A    between atoms: C_29  and  C_32
   11  A    between atoms: C_30  and  C_39
   12  A    between atoms: C_30  and  C_40
   13  A    between atoms: C_35  and  N_41
   14  A    between atoms: C_35  and  C_45
   15  A    between atoms: C_36  and  N_42
   16  A    between atoms: C_36  and  C_47
                            x       y       z     vdW  Elec       q    Type
                         _______ _______ _______ _____ _____    ______ ____

>  <TORSDO>
F 16

$$$$
=
 OpenBabel10222419223D

 49 53  0  0  1  0  0  0  0  0999 V2000
  186.0000  174.9380  136.2250 C   0  0  0  0  0  0  0  0  0  0  0  0
  184.0560  175.9540  137.3830 C   0  0  0  0  0  0  0  0  0  0  0  0
  183.4240  176.9950  138.0620 C   0  0  0  0  0  3  0  0  0  0  0  0
  185.3970  173.7840  136.2210 N   0  0  0  0  0  0  0  0  0  0  0  0
  184.1890  173.5150  137.0090 C   0  0  0  0  0  2  0  0  0  0  0  0
  185.4690  178.2790  138.0140 C   0  0  0  0  0  3  0  0  0  0  0  0
  185.4020  176.0760  136.9780 C   0  0  0  0  0  0  0  0  0  0  0  0
  186.1140  177.2550  137.3100 C   0  0  0  0  0  0  0  0  0  0  0  0
  184.1330  178.1550  138.3940 C   0  0  0  0  0  0  0  0  0  0  0  0
  183.2690  174.7350  137.0130 C   0  0  0  0  0  2  0  0  0  0  0  0
  183.4760  179.3100  139.0850 C   0  0  0  0  0  2  0  0  0  0  0  0
  183.1290  178.8080  141.5450 C   0  0  0  0  0  0  0  0  0  0  0  0
  182.0520  178.1990  141.2960 O   0  0  0  0  0  0  0  0  0  0  0  0
  183.8830  179.4050  140.4820 N   0  0  0  0  0  2  0  0  0  0  0  0
  184.8470  179.1260  143.2640 O   0  0  0  0  0  0  0  0  0  0  0  0
  182.8070  178.8090  144.0580 C   0  0  0  0  0  3  0  0  0  0  0  0
  183.6780  178.9780  145.1180 C   0  0  0  0  0  3  0  0  0  0  0  0
  184.9360  179.1700  144.5710 C   0  0  0  0  0  3  0  0  0  0  0  0
  183.5970  178.9140  142.9300 C   0  0  0  0  0  0  0  0  0  0  0  0
  187.5620  177.4390  136.9830 C   0  0  0  0  0  2  0  0  0  0  0  0
  188.9540  179.2720  137.5700 O   0  0  0  0  0  1  0  0  0  0  0  0
  188.2910  178.1660  138.1020 C   0  0  2  0  0  3  0  0  0  0  0  0
  189.3000  177.2430  138.7690 C   0  0  0  0  0  2  0  0  0  0  0  0
  189.1540  177.2910  140.2820 C   0  0  0  0  0  2  0  0  0  0  0  0
  190.4980  177.0890  140.9660 C   0  0  0  0  0  2  0  0  0  0  0  0
  186.9730  178.1650  147.2100 O   0  0  0  0  0  0  0  0  0  0  0  0
  190.2840  176.6420  142.4020 C   0  0  1  0  0  3  0  0  0  0  0  0
  191.6580  177.2450  144.5280 C   0  0  1  0  0  3  0  0  0  0  0  0
  188.0500  177.7620  145.2070 O   0  0  0  0  0  0  0  0  0  0  0  0
  191.9300  178.6010  144.3490 O   0  0  0  0  0  1  0  0  0  0  0  0
  190.3160  177.0020  146.6490 C   0  0  0  0  0  0  0  0  0  0  0  0
  190.3680  177.0840  145.2960 C   0  0  0  0  0  0  0  0  0  0  0  0
  191.6220  176.5430  143.1610 C   0  0  0  0  0  2  0  0  0  0  0  0
  189.0660  177.0300  144.5230 C   0  0  2  0  0  3  0  0  0  0  0  0
  187.9340  177.6320  146.5940 C   0  0  0  0  0  0  0  0  0  0  0  0
  189.2450  177.5230  143.0930 C   0  0  0  0  0  2  0  0  0  0  0  0
  188.9780  176.8530  147.3380 C   0  0  0  0  0  2  0  0  0  0  0  0
  192.2500  175.8830  147.7740 C   0  0  0  0  0  1  0  0  0  0  0  0
  191.4450  177.0220  147.4810 O   0  0  0  0  0  0  0  0  0  0  0  0
  187.1620  175.1270  135.4680 O   0  0  0  0  0  0  0  0  0  0  0  0
  188.1660  174.1290  135.3250 C   0  0  0  0  0  2  0  0  0  0  0  0
  189.3080  174.4020  136.2880 C   0  0  0  0  0  2  0  0  0  0  0  0
  190.5380  176.2070  135.3310 O   0  0  0  0  0  1  0  0  0  0  0  0
  190.5600  174.8270  135.5340 C   0  0  1  0  0  3  0  0  0  0  0  0
  191.8350  174.4200  136.2700 C   0  0  0  0  0  2  0  0  0  0  0  0
  193.4260  176.2560  136.9360 C   0  0  0  0  0  0  0  0  0  0  0  0
  194.3880  177.0150  136.6480 O   0  0  0  0  0  0  0  0  0  0  0  0
  192.9330  175.3310  135.9660 N   0  0  0  0  0  2  0  0  0  0  0  0
  192.8620  176.3210  138.2050 O   0  0  0  0  0  1  0  0  0  0  0  0
  1  7  1  0  0  0  0
  2  3  1  0  0  0  0
  3  9  2  0  0  0  0
  4  1  2  0  0  0  0
  4  5  1  0  0  0  0
  5 10  1  0  0  0  0
  6  9  1  0  0  0  0
  7  8  1  0  0  0  0
  7  2  2  0  0  0  0
  8  6  2  0  0  0  0
  9 11  1  0  0  0  0
 10  2  1  0  0  0  0
 11 14  1  0  0  0  0
 12 19  1  0  0  0  0
 13 12  2  0  0  0  0
 14 12  1  0  0  0  0
 15 18  1  0  0  0  0
 16 17  1  0  0  0  0
 18 17  2  0  0  0  0
 19 15  1  0  0  0  0
 19 16  2  0  0  0  0
 20  8  1  0  0  0  0
 20 22  1  0  0  0  0
 22 21  1  6  0  0  0
 22 23  1  0  0  0  0
 23 24  1  0  0  0  0
 24 25  1  0  0  0  0
 27 25  1  6  0  0  0
 27 36  1  0  0  0  0
 27 33  1  0  0  0  0
 28 30  1  6  0  0  0
 28 32  1  0  0  0  0
 29 35  1  0  0  0  0
 31 37  1  0  0  0  0
 31 39  1  0  0  0  0
 32 31  2  0  0  0  0
 33 28  1  0  0  0  0
 34 36  1  6  0  0  0
 34 29  1  0  0  0  0
 34 32  1  0  0  0  0
 35 26  2  0  0  0  0
 35 37  1  0  0  0  0
 39 38  1  0  0  0  0
 40  1  1  0  0  0  0
 41 40  1  0  0  0  0
 41 42  1  0  0  0  0
 44 43  1  1  0  0  0
 44 45  1  0  0  0  0
 44 42  1  0  0  0  0
 46 49  1  0  0  0  0
 47 46  2  0  0  0  0
 48 45  1  0  0  0  0
 48 46  1  0  0  0  0
M  END
>  <MODEL>
3

>  <REMARK>
 VINA RESULT:      -8.4      1.596      2.021
  Name = 
  16 active torsions:
  status: ('A' for Active; 'I' for Inactive)
    1  A    between atoms: C_1  and  O_14
    2  A    between atoms: C_3  and  C_43
    3  A    between atoms: C_4  and  C_19
    4  A    between atoms: C_4  and  C_45
    5  A    between atoms: C_11  and  C_29
    6  A    between atoms: O_14  and  C_19
    7  A    between atoms: C_17  and  O_27
    8  A    between atoms: C_21  and  C_32
    9  A    between atoms: C_21  and  C_40
   10  A    between atoms: C_29  and  C_32
   11  A    between atoms: C_30  and  C_39
   12  A    between atoms: C_30  and  C_40
   13  A    between atoms: C_35  and  N_41
   14  A    between atoms: C_35  and  C_45
   15  A    between atoms: C_36  and  N_42
   16  A    between atoms: C_36  and  C_47
                            x       y       z     vdW  Elec       q    Type
                         _______ _______ _______ _____ _____    ______ ____

>  <TORSDO>
F 16

$$$$
=
 OpenBabel10222419223D

 49 53  0  0  1  0  0  0  0  0999 V2000
  184.2820  175.8350  137.7300 C   0  0  0  0  0  0  0  0  0  0  0  0
  185.7970  174.0790  136.8530 C   0  0  0  0  0  0  0  0  0  0  0  0
  186.9540  173.6530  136.2000 C   0  0  0  0  0  3  0  0  0  0  0  0
  183.3690  174.9360  137.9610 N   0  0  0  0  0  0  0  0  0  0  0  0
  183.4520  173.5670  137.4380 C   0  0  0  0  0  2  0  0  0  0  0  0
  187.5510  175.9490  135.7450 C   0  0  0  0  0  3  0  0  0  0  0  0
  185.5170  175.4540  136.9900 C   0  0  0  0  0  0  0  0  0  0  0  0
  186.4070  176.3960  136.4170 C   0  0  0  0  0  0  0  0  0  0  0  0
  187.8270  174.5870  135.6300 C   0  0  0  0  0  0  0  0  0  0  0  0
  184.8940  173.0630  137.4810 C   0  0  0  0  0  2  0  0  0  0  0  0
  189.0980  174.1690  134.9580 C   0  0  0  0  0  2  0  0  0  0  0  0
  190.7700  174.4120  136.8480 C   0  0  0  0  0  0  0  0  0  0  0  0
  190.1870  173.5120  137.5140 O   0  0  0  0  0  0  0  0  0  0  0  0
  190.2630  174.8030  135.5650 N   0  0  0  0  0  2  0  0  0  0  0  0
  193.1060  174.4610  137.5840 O   0  0  0  0  0  0  0  0  0  0  0  0
  192.0400  176.3870  137.7990 C   0  0  0  0  0  3  0  0  0  0  0  0
  193.3400  176.5450  138.2420 C   0  0  0  0  0  3  0  0  0  0  0  0
  193.9630  175.3160  138.0900 C   0  0  0  0  0  3  0  0  0  0  0  0
  191.9590  175.0670  137.4010 C   0  0  0  0  0  0  0  0  0  0  0  0
  186.1520  177.8700  136.4540 C   0  0  0  0  0  2  0  0  0  0  0  0
  188.0520  179.2570  136.7810 O   0  0  0  0  0  1  0  0  0  0  0  0
  187.0560  178.5590  137.4650 C   0  0  2  0  0  3  0  0  0  0  0  0
  187.6980  177.5370  138.3910 C   0  0  0  0  0  2  0  0  0  0  0  0
  188.7340  178.1990  139.2850 C   0  0  0  0  0  2  0  0  0  0  0  0
  189.5070  177.1620  140.0850 C   0  0  0  0  0  2  0  0  0  0  0  0
  192.3310  175.8880  146.6400 O   0  0  0  0  0  0  0  0  0  0  0  0
  189.6080  177.5990  141.5360 C   0  0  1  0  0  3  0  0  0  0  0  0
  187.9970  177.0920  143.5170 C   0  0  1  0  0  3  0  0  0  0  0  0
  191.4830  176.3510  144.5430 O   0  0  0  0  0  0  0  0  0  0  0  0
  187.6590  175.7550  143.3090 O   0  0  0  0  0  1  0  0  0  0  0  0
  189.1400  177.2580  145.7590 C   0  0  0  0  0  0  0  0  0  0  0  0
  189.2150  177.1750  144.4070 C   0  0  0  0  0  0  0  0  0  0  0  0
  188.2110  177.7860  142.1610 C   0  0  0  0  0  2  0  0  0  0  0  0
  190.5860  177.1430  143.7650 C   0  0  2  0  0  3  0  0  0  0  0  0
  191.4700  176.4780  145.9350 C   0  0  0  0  0  0  0  0  0  0  0  0
  190.5160  176.6570  142.3230 C   0  0  0  0  0  2  0  0  0  0  0  0
  190.4110  177.3250  146.5760 C   0  0  0  0  0  2  0  0  0  0  0  0
  187.7810  177.9510  147.7410 C   0  0  0  0  0  1  0  0  0  0  0  0
  187.9350  177.3120  146.4770 O   0  0  0  0  0  0  0  0  0  0  0  0
  184.1350  177.1310  138.2390 O   0  0  0  0  0  0  0  0  0  0  0  0
  182.8690  177.7440  138.4500 C   0  0  0  0  0  2  0  0  0  0  0  0
  183.0050  178.8820  139.4450 C   0  0  0  0  0  2  0  0  0  0  0  0
  185.1400  179.5410  140.2790 O   0  0  0  0  0  1  0  0  0  0  0  0
  184.1230  178.6000  140.4380 C   0  0  1  0  0  3  0  0  0  0  0  0
  183.6200  178.6040  141.8810 C   0  0  0  0  0  2  0  0  0  0  0  0
  184.4880  178.8710  144.2300 C   0  0  0  0  0  0  0  0  0  0  0  0
  185.4590  179.0260  145.0160 O   0  0  0  0  0  1  0  0  0  0  0  0
  184.7160  178.8060  142.8210 N   0  0  0  0  0  2  0  0  0  0  0  0
  183.2040  178.7520  144.7470 O   0  0  0  0  0  0  0  0  0  0  0  0
  1  4  2  0  0  0  0
  1 40  1  0  0  0  0
  2  7  1  0  0  0  0
  2 10  1  0  0  0  0
  3  2  2  0  0  0  0
  5 10  1  0  0  0  0
  5  4  1  0  0  0  0
  6  8  1  0  0  0  0
  7  1  1  0  0  0  0
  8 20  1  0  0  0  0
  8  7  2  0  0  0  0
  9  6  2  0  0  0  0
  9  3  1  0  0  0  0
 11 14  1  0  0  0  0
 11  9  1  0  0  0  0
 12 19  1  0  0  0  0
 12 13  2  0  0  0  0
 14 12  1  0  0  0  0
 15 18  1  0  0  0  0
 16 17  1  0  0  0  0
 18 17  2  0  0  0  0
 19 15  1  0  0  0  0
 19 16  2  0  0  0  0
 20 22  1  0  0  0  0
 22 21  1  6  0  0  0
 22 23  1  0  0  0  0
 23 24  1  0  0  0  0
 24 25  1  0  0  0  0
 27 25  1  6  0  0  0
 27 33  1  0  0  0  0
 27 36  1  0  0  0  0
 28 30  1  6  0  0  0
 28 32  1  0  0  0  0
 29 35  1  0  0  0  0
 31 39  1  0  0  0  0
 31 37  1  0  0  0  0
 32 31  2  0  0  0  0
 33 28  1  0  0  0  0
 34 36  1  6  0  0  0
 34 32  1  0  0  0  0
 34 29  1  0  0  0  0
 35 37  1  0  0  0  0
 35 26  2  0  0  0  0
 39 38  1  0  0  0  0
 40 41  1  0  0  0  0
 41 42  1  0  0  0  0
 42 44  1  0  0  0  0
 44 43  1  1  0  0  0
 44 45  1  0  0  0  0
 45 48  1  0  0  0  0
 46 49  2  0  0  0  0
 46 47  1  0  0  0  0
 48 46  1  0  0  0  0
M  END
>  <MODEL>
4

>  <REMARK>
 VINA RESULT:      -7.9      1.708      6.975
  Name = 
  16 active torsions:
  status: ('A' for Active; 'I' for Inactive)
    1  A    between atoms: C_1  and  O_14
    2  A    between atoms: C_3  and  C_43
    3  A    between atoms: C_4  and  C_19
    4  A    between atoms: C_4  and  C_45
    5  A    between atoms: C_11  and  C_29
    6  A    between atoms: O_14  and  C_19
    7  A    between atoms: C_17  and  O_27
    8  A    between atoms: C_21  and  C_32
    9  A    between atoms: C_21  and  C_40
   10  A    between atoms: C_29  and  C_32
   11  A    between atoms: C_30  and  C_39
   12  A    between atoms: C_30  and  C_40
   13  A    between atoms: C_35  and  N_41
   14  A    between atoms: C_35  and  C_45
   15  A    between atoms: C_36  and  N_42
   16  A    between atoms: C_36  and  C_47
                            x       y       z     vdW  Elec       q    Type
                         _______ _______ _______ _____ _____    ______ ____

>  <TORSDO>
F 16

$$$$
=
 OpenBabel10222419223D

 49 53  0  0  1  0  0  0  0  0999 V2000
  188.5440  174.4810  136.0730 C   0  0  0  0  0  0  0  0  0  0  0  0
  186.0910  174.5530  136.4290 C   0  0  0  0  0  0  0  0  0  0  0  0
  184.8980  175.2210  136.7090 C   0  0  0  0  0  3  0  0  0  0  0  0
  188.5100  173.1800  136.0890 N   0  0  0  0  0  0  0  0  0  0  0  0
  187.3340  172.4210  136.5270 C   0  0  0  0  0  2  0  0  0  0  0  0
  186.1190  177.2790  137.0390 C   0  0  0  0  0  3  0  0  0  0  0  0
  187.3160  175.2520  136.4170 C   0  0  0  0  0  0  0  0  0  0  0  0
  187.3230  176.6320  136.7370 C   0  0  0  0  0  0  0  0  0  0  0  0
  184.9100  176.5830  137.0310 C   0  0  0  0  0  0  0  0  0  0  0  0
  186.0500  173.1030  136.0580 C   0  0  0  0  0  2  0  0  0  0  0  0
  183.6470  177.3410  137.2970 C   0  0  0  0  0  2  0  0  0  0  0  0
  182.1150  176.1960  138.9610 C   0  0  0  0  0  0  0  0  0  0  0  0
  182.7270  176.7280  139.9290 O   0  0  0  0  0  0  0  0  0  0  0  0
  182.5390  176.4480  137.6140 N   0  0  0  0  0  2  0  0  0  0  0  0
  180.5480  174.4070  138.3740 O   0  0  0  0  0  0  0  0  0  0  0  0
  180.2170  175.2920  140.3730 C   0  0  0  0  0  3  0  0  0  0  0  0
  179.2780  174.2990  140.1640 C   0  0  0  0  0  3  0  0  0  0  0  0
  179.5250  173.7800  138.9020 C   0  0  0  0  0  3  0  0  0  0  0  0
  180.9790  175.3080  139.2220 C   0  0  0  0  0  0  0  0  0  0  0  0
  188.5840  177.4330  136.8160 C   0  0  0  0  0  2  0  0  0  0  0  0
  188.8190  179.7450  137.3070 O   0  0  0  0  0  1  0  0  0  0  0  0
  188.4800  178.5180  137.8780 C   0  0  2  0  0  3  0  0  0  0  0  0
  189.4200  178.2220  139.0370 C   0  0  0  0  0  2  0  0  0  0  0  0
  188.6360  177.8130  140.2730 C   0  0  0  0  0  2  0  0  0  0  0  0
  189.4980  176.9880  141.2170 C   0  0  0  0  0  2  0  0  0  0  0  0
  184.3920  179.2180  145.8570 O   0  0  0  0  0  0  0  0  0  0  0  0
  188.7380  176.7150  142.5040 C   0  0  1  0  0  3  0  0  0  0  0  0
  189.4230  177.2500  144.9570 C   0  0  1  0  0  3  0  0  0  0  0  0
  185.9680  178.4550  144.3520 O   0  0  0  0  0  0  0  0  0  0  0  0
  189.9990  178.5160  144.8510 O   0  0  0  0  0  1  0  0  0  0  0  0
  187.4350  177.4360  146.4980 C   0  0  0  0  0  0  0  0  0  0  0  0
  187.9460  177.3880  145.2420 C   0  0  0  0  0  0  0  0  0  0  0  0
  189.7040  176.4480  143.6760 C   0  0  0  0  0  2  0  0  0  0  0  0
  186.9890  177.4970  144.0720 C   0  0  2  0  0  3  0  0  0  0  0  0
  185.3780  178.4710  145.6180 C   0  0  0  0  0  0  0  0  0  0  0  0
  187.7240  177.8230  142.7790 C   0  0  0  0  0  2  0  0  0  0  0  0
  185.9420  177.5880  146.6920 C   0  0  0  0  0  2  0  0  0  0  0  0
  188.6000  178.4360  148.4730 C   0  0  0  0  0  1  0  0  0  0  0  0
  188.2060  177.3300  147.6650 O   0  0  0  0  0  0  0  0  0  0  0  0
  189.7050  175.1490  135.6650 O   0  0  0  0  0  0  0  0  0  0  0  0
  191.0150  174.6910  135.9780 C   0  0  0  0  0  2  0  0  0  0  0  0
  191.3270  174.9760  137.4370 C   0  0  0  0  0  2  0  0  0  0  0  0
  192.3200  176.5810  138.8930 O   0  0  0  0  0  1  0  0  0  0  0  0
  192.2750  176.1590  137.5640 C   0  0  1  0  0  3  0  0  0  0  0  0
  193.6800  175.8220  137.0680 C   0  0  0  0  0  2  0  0  0  0  0  0
  194.9250  174.0160  138.3070 C   0  0  0  0  0  0  0  0  0  0  0  0
  195.6800  173.6740  139.2530 O   0  0  0  0  0  1  0  0  0  0  0  0
  194.5350  175.3830  138.1650 N   0  0  0  0  0  2  0  0  0  0  0  0
  194.4880  173.0560  137.4010 O   0  0  0  0  0  0  0  0  0  0  0  0
  1  4  2  0  0  0  0
  1  7  1  0  0  0  0
  2  3  1  0  0  0  0
  3  9  2  0  0  0  0
  4  5  1  0  0  0  0
  7  2  2  0  0  0  0
  7  8  1  0  0  0  0
  8 20  1  0  0  0  0
  8  6  2  0  0  0  0
  9  6  1  0  0  0  0
  9 11  1  0  0  0  0
 10  2  1  0  0  0  0
 10  5  1  0  0  0  0
 11 14  1  0  0  0  0
 12 19  1  0  0  0  0
 12 13  2  0  0  0  0
 14 12  1  0  0  0  0
 15 18  1  0  0  0  0
 15 19  1  0  0  0  0
 17 16  1  0  0  0  0
 18 17  2  0  0  0  0
 19 16  2  0  0  0  0
 20 22  1  0  0  0  0
 22 21  1  6  0  0  0
 22 23  1  0  0  0  0
 23 24  1  0  0  0  0
 24 25  1  0  0  0  0
 27 25  1  6  0  0  0
 27 36  1  0  0  0  0
 27 33  1  0  0  0  0
 28 30  1  6  0  0  0
 28 32  1  0  0  0  0
 29 35  1  0  0  0  0
 31 37  1  0  0  0  0
 31 39  1  0  0  0  0
 32 31  2  0  0  0  0
 33 28  1  0  0  0  0
 34 36  1  6  0  0  0
 34 29  1  0  0  0  0
 34 32  1  0  0  0  0
 35 26  2  0  0  0  0
 35 37  1  0  0  0  0
 39 38  1  0  0  0  0
 40 41  1  0  0  0  0
 40  1  1  0  0  0  0
 41 42  1  0  0  0  0
 42 44  1  0  0  0  0
 44 43  1  1  0  0  0
 45 44  1  0  0  0  0
 45 48  1  0  0  0  0
 46 47  1  0  0  0  0
 48 46  1  0  0  0  0
 49 46  2  0  0  0  0
M  END
>  <MODEL>
5

>  <REMARK>
 VINA RESULT:      -7.7      2.206      2.816
  Name = 
  16 active torsions:
  status: ('A' for Active; 'I' for Inactive)
    1  A    between atoms: C_1  and  O_14
    2  A    between atoms: C_3  and  C_43
    3  A    between atoms: C_4  and  C_19
    4  A    between atoms: C_4  and  C_45
    5  A    between atoms: C_11  and  C_29
    6  A    between atoms: O_14  and  C_19
    7  A    between atoms: C_17  and  O_27
    8  A    between atoms: C_21  and  C_32
    9  A    between atoms: C_21  and  C_40
   10  A    between atoms: C_29  and  C_32
   11  A    between atoms: C_30  and  C_39
   12  A    between atoms: C_30  and  C_40
   13  A    between atoms: C_35  and  N_41
   14  A    between atoms: C_35  and  C_45
   15  A    between atoms: C_36  and  N_42
   16  A    between atoms: C_36  and  C_47
                            x       y       z     vdW  Elec       q    Type
                         _______ _______ _______ _____ _____    ______ ____

>  <TORSDO>
F 16

$$$$
=
 OpenBabel10222419223D

 49 53  0  0  1  0  0  0  0  0999 V2000
  183.6470  178.9870  143.9470 C   0  0  0  0  0  0  0  0  0  0  0  0
  186.0000  178.4520  144.5170 C   0  0  0  0  0  0  0  0  0  0  0  0
  187.3070  178.0960  144.1820 C   0  0  0  0  0  3  0  0  0  0  0  0
  183.3290  178.9440  145.2090 N   0  0  0  0  0  0  0  0  0  0  0  0
  184.2270  178.4070  146.2370 C   0  0  0  0  0  2  0  0  0  0  0  0
  186.6650  177.8960  141.8620 C   0  0  0  0  0  3  0  0  0  0  0  0
  185.0110  178.5670  143.5190 C   0  0  0  0  0  0  0  0  0  0  0  0
  185.3540  178.2740  142.1760 C   0  0  0  0  0  0  0  0  0  0  0  0
  187.6400  177.8010  142.8540 C   0  0  0  0  0  0  0  0  0  0  0  0
  185.6750  178.7920  145.9390 C   0  0  0  0  0  2  0  0  0  0  0  0
  189.0390  177.4560  142.4510 C   0  0  0  0  0  2  0  0  0  0  0  0
  190.6150  177.5070  144.4360 C   0  0  0  0  0  0  0  0  0  0  0  0
  190.7880  178.7500  144.3000 O   0  0  0  0  0  0  0  0  0  0  0  0
  189.7640  176.7930  143.5290 N   0  0  0  0  0  2  0  0  0  0  0  0
  191.3640  177.2280  146.7520 O   0  0  0  0  0  0  0  0  0  0  0  0
  191.9670  175.5910  145.3930 C   0  0  0  0  0  3  0  0  0  0  0  0
  192.4440  175.3160  146.6610 C   0  0  0  0  0  3  0  0  0  0  0  0
  192.0440  176.3670  147.4710 C   0  0  0  0  0  3  0  0  0  0  0  0
  191.3020  176.7940  145.5160 C   0  0  0  0  0  0  0  0  0  0  0  0
  184.3520  178.3030  141.0650 C   0  0  0  0  0  2  0  0  0  0  0  0
  184.5400  180.1220  139.5500 O   0  0  0  0  0  1  0  0  0  0  0  0
  184.9740  178.8150  139.7760 C   0  0  2  0  0  3  0  0  0  0  0  0
  184.5690  177.9370  138.6010 C   0  0  0  0  0  2  0  0  0  0  0  0
  185.6870  177.8650  137.5740 C   0  0  0  0  0  2  0  0  0  0  0  0
  185.8110  176.4610  137.0000 C   0  0  0  0  0  2  0  0  0  0  0  0
  192.2710  177.4420  140.1420 O   0  0  0  0  0  0  0  0  0  0  0  0
  187.2320  175.9540  137.1780 C   0  0  1  0  0  3  0  0  0  0  0  0
  189.3130  176.3460  135.6660 C   0  0  1  0  0  3  0  0  0  0  0  0
  190.1990  177.0730  139.1920 O   0  0  0  0  0  0  0  0  0  0  0  0
  189.1890  177.6880  135.3060 O   0  0  0  0  0  1  0  0  0  0  0  0
  191.4850  176.0820  136.9210 C   0  0  0  0  0  0  0  0  0  0  0  0
  190.1360  176.2330  136.9270 C   0  0  0  0  0  0  0  0  0  0  0  0
  187.9160  175.7220  135.8160 C   0  0  0  0  0  2  0  0  0  0  0  0
  189.4280  176.3100  138.2640 C   0  0  2  0  0  3  0  0  0  0  0  0
  191.5810  176.8780  139.2520 C   0  0  0  0  0  0  0  0  0  0  0  0
  188.0180  176.8660  138.1170 C   0  0  0  0  0  2  0  0  0  0  0  0
  192.2320  175.9890  138.2330 C   0  0  0  0  0  2  0  0  0  0  0  0
  193.6080  175.5230  135.7230 C   0  0  0  0  0  1  0  0  0  0  0  0
  192.2590  175.9800  135.7560 O   0  0  0  0  0  0  0  0  0  0  0  0
  182.7380  179.4920  143.0100 O   0  0  0  0  0  0  0  0  0  0  0  0
  181.3970  179.0300  142.9020 C   0  0  0  0  0  2  0  0  0  0  0  0
  180.4440  180.2120  142.8670 C   0  0  0  0  0  2  0  0  0  0  0  0
  179.2930  181.5820  141.2920 O   0  0  0  0  0  1  0  0  0  0  0  0
  179.7110  180.2740  141.5350 C   0  0  1  0  0  3  0  0  0  0  0  0
  180.5780  179.7730  140.3820 C   0  0  0  0  0  2  0  0  0  0  0  0
  180.4940  180.7100  138.0450 C   0  0  0  0  0  0  0  0  0  0  0  0
  179.8950  180.8250  136.9440 O   0  0  0  0  0  0  0  0  0  0  0  0
  179.9040  179.9480  139.1000 N   0  0  0  0  0  2  0  0  0  0  0  0
  181.7320  181.3170  138.2150 O   0  0  0  0  0  1  0  0  0  0  0  0
  1  4  2  0  0  0  0
  2 10  1  0  0  0  0
  3  2  1  0  0  0  0
  4  5  1  0  0  0  0
  6  8  2  0  0  0  0
  6  9  1  0  0  0  0
  7  1  1  0  0  0  0
  7  2  2  0  0  0  0
  8  7  1  0  0  0  0
  9  3  2  0  0  0  0
 10  5  1  0  0  0  0
 11  9  1  0  0  0  0
 11 14  1  0  0  0  0
 12 19  1  0  0  0  0
 13 12  2  0  0  0  0
 14 12  1  0  0  0  0
 15 18  1  0  0  0  0
 16 19  2  0  0  0  0
 16 17  1  0  0  0  0
 17 18  2  0  0  0  0
 19 15  1  0  0  0  0
 20  8  1  0  0  0  0
 22 21  1  6  0  0  0
 22 20  1  0  0  0  0
 23 22  1  0  0  0  0
 24 23  1  0  0  0  0
 25 24  1  0  0  0  0
 27 25  1  6  0  0  0
 27 36  1  0  0  0  0
 28 30  1  1  0  0  0
 28 33  1  0  0  0  0
 28 32  1  0  0  0  0
 29 35  1  0  0  0  0
 31 32  2  0  0  0  0
 31 37  1  0  0  0  0
 32 34  1  0  0  0  0
 33 27  1  0  0  0  0
 34 36  1  6  0  0  0
 34 29  1  0  0  0  0
 35 26  2  0  0  0  0
 37 35  1  0  0  0  0
 38 39  1  0  0  0  0
 39 31  1  0  0  0  0
 40  1  1  0  0  0  0
 41 40  1  0  0  0  0
 42 41  1  0  0  0  0
 44 43  1  6  0  0  0
 44 42  1  0  0  0  0
 45 44  1  0  0  0  0
 46 49  1  0  0  0  0
 46 48  1  0  0  0  0
 47 46  2  0  0  0  0
 48 45  1  0  0  0  0
M  END
>  <MODEL>
6

>  <REMARK>
 VINA RESULT:      -7.6      2.628      9.858
  Name = 
  16 active torsions:
  status: ('A' for Active; 'I' for Inactive)
    1  A    between atoms: C_1  and  O_14
    2  A    between atoms: C_3  and  C_43
    3  A    between atoms: C_4  and  C_19
    4  A    between atoms: C_4  and  C_45
    5  A    between atoms: C_11  and  C_29
    6  A    between atoms: O_14  and  C_19
    7  A    between atoms: C_17  and  O_27
    8  A    between atoms: C_21  and  C_32
    9  A    between atoms: C_21  and  C_40
   10  A    between atoms: C_29  and  C_32
   11  A    between atoms: C_30  and  C_39
   12  A    between atoms: C_30  and  C_40
   13  A    between atoms: C_35  and  N_41
   14  A    between atoms: C_35  and  C_45
   15  A    between atoms: C_36  and  N_42
   16  A    between atoms: C_36  and  C_47
                            x       y       z     vdW  Elec       q    Type
                         _______ _______ _______ _____ _____    ______ ____

>  <TORSDO>
F 16

$$$$
=
 OpenBabel10222419223D

 49 53  0  0  1  0  0  0  0  0999 V2000
  183.7270  178.9930  144.2590 C   0  0  0  0  0  0  0  0  0  0  0  0
  186.0610  178.3370  144.7820 C   0  0  0  0  0  0  0  0  0  0  0  0
  187.3510  177.9530  144.4180 C   0  0  0  0  0  3  0  0  0  0  0  0
  183.4120  178.8860  145.5180 N   0  0  0  0  0  0  0  0  0  0  0  0
  184.2930  178.2530  146.5060 C   0  0  0  0  0  2  0  0  0  0  0  0
  186.6940  177.9190  142.0940 C   0  0  0  0  0  3  0  0  0  0  0  0
  185.0730  178.5500  143.7980 C   0  0  0  0  0  0  0  0  0  0  0  0
  185.4000  178.3270  142.4380 C   0  0  0  0  0  0  0  0  0  0  0  0
  187.6680  177.7270  143.0730 C   0  0  0  0  0  0  0  0  0  0  0  0
  185.7540  178.6010  146.2240 C   0  0  0  0  0  2  0  0  0  0  0  0
  189.0520  177.3550  142.6410 C   0  0  0  0  0  2  0  0  0  0  0  0
  190.5320  177.4200  144.6980 C   0  0  0  0  0  0  0  0  0  0  0  0
  190.5910  178.6810  144.6480 O   0  0  0  0  0  0  0  0  0  0  0  0
  189.7910  176.6930  143.7090 N   0  0  0  0  0  2  0  0  0  0  0  0
  192.0180  175.6720  145.5570 O   0  0  0  0  0  0  0  0  0  0  0  0
  191.1860  177.0080  147.1100 C   0  0  0  0  0  3  0  0  0  0  0  0
  192.0040  176.0730  147.7170 C   0  0  0  0  0  3  0  0  0  0  0  0
  192.4970  175.2620  146.7070 C   0  0  0  0  0  3  0  0  0  0  0  0
  191.2380  176.7050  145.7640 C   0  0  0  0  0  0  0  0  0  0  0  0
  184.3950  178.4610  141.3370 C   0  0  0  0  0  2  0  0  0  0  0  0
  184.5310  180.1180  139.6410 O   0  0  0  0  0  1  0  0  0  0  0  0
  185.0590  178.8880  140.0370 C   0  0  2  0  0  3  0  0  0  0  0  0
  184.8100  177.8570  138.9460 C   0  0  0  0  0  2  0  0  0  0  0  0
  185.9310  177.8800  137.9190 C   0  0  0  0  0  2  0  0  0  0  0  0
  187.2840  178.0580  138.5930 C   0  0  0  0  0  2  0  0  0  0  0  0
  190.0300  172.2350  135.2560 O   0  0  0  0  0  0  0  0  0  0  0  0
  188.3800  177.4970  137.7030 C   0  0  1  0  0  3  0  0  0  0  0  0
  190.7670  176.6910  138.3540 C   0  0  1  0  0  3  0  0  0  0  0  0
  189.1280  174.1140  136.2510 O   0  0  0  0  0  0  0  0  0  0  0  0
  190.5500  176.0090  139.5510 O   0  0  0  0  0  1  0  0  0  0  0  0
  191.7210  175.0500  136.6930 C   0  0  0  0  0  0  0  0  0  0  0  0
  190.6590  175.7290  137.1950 C   0  0  0  0  0  0  0  0  0  0  0  0
  189.7780  177.8620  138.2430 C   0  0  0  0  0  2  0  0  0  0  0  0
  189.2970  175.4950  136.5720 C   0  0  2  0  0  3  0  0  0  0  0  0
  190.1880  173.4170  135.6650 C   0  0  0  0  0  0  0  0  0  0  0  0
  188.1780  176.0020  137.4710 C   0  0  0  0  0  2  0  0  0  0  0  0
  191.5190  174.0960  135.5360 C   0  0  0  0  0  2  0  0  0  0  0  0
  193.8530  174.1020  137.5930 C   0  0  0  0  0  1  0  0  0  0  0  0
  193.0350  175.1870  137.1650 O   0  0  0  0  0  0  0  0  0  0  0  0
  182.8350  179.5880  143.3600 O   0  0  0  0  0  0  0  0  0  0  0  0
  181.5780  179.0160  143.0190 C   0  0  0  0  0  2  0  0  0  0  0  0
  180.5390  180.1100  142.8520 C   0  0  0  0  0  2  0  0  0  0  0  0
  179.9890  181.1760  140.7910 O   0  0  0  0  0  1  0  0  0  0  0  0
  179.8390  179.9880  141.5070 C   0  0  1  0  0  3  0  0  0  0  0  0
  180.3680  178.8090  140.6920 C   0  0  0  0  0  2  0  0  0  0  0  0
  181.0600  178.9490  138.2740 C   0  0  0  0  0  0  0  0  0  0  0  0
  181.8600  179.3680  137.3970 O   0  0  0  0  0  0  0  0  0  0  0  0
  181.2850  179.2570  139.6500 N   0  0  0  0  0  2  0  0  0  0  0  0
  179.9550  178.2000  137.8870 O   0  0  0  0  0  1  0  0  0  0  0  0
  1  4  2  0  0  0  0
  2 10  1  0  0  0  0
  3  2  1  0  0  0  0
  4  5  1  0  0  0  0
  6  8  2  0  0  0  0
  6  9  1  0  0  0  0
  7  1  1  0  0  0  0
  7  2  2  0  0  0  0
  8  7  1  0  0  0  0
  9  3  2  0  0  0  0
 10  5  1  0  0  0  0
 11  9  1  0  0  0  0
 11 14  1  0  0  0  0
 12 19  1  0  0  0  0
 13 12  2  0  0  0  0
 14 12  1  0  0  0  0
 15 19  1  0  0  0  0
 15 18  1  0  0  0  0
 16 17  1  0  0  0  0
 18 17  2  0  0  0  0
 19 16  2  0  0  0  0
 20  8  1  0  0  0  0
 22 21  1  6  0  0  0
 22 20  1  0  0  0  0
 23 22  1  0  0  0  0
 24 25  1  0  0  0  0
 24 23  1  0  0  0  0
 26 35  2  0  0  0  0
 27 33  1  0  0  0  0
 27 25  1  1  0  0  0
 28 30  1  1  0  0  0
 29 34  1  0  0  0  0
 31 39  1  0  0  0  0
 31 32  2  0  0  0  0
 32 28  1  0  0  0  0
 33 28  1  0  0  0  0
 34 32  1  0  0  0  0
 34 36  1  1  0  0  0
 35 29  1  0  0  0  0
 36 27  1  0  0  0  0
 37 35  1  0  0  0  0
 37 31  1  0  0  0  0
 39 38  1  0  0  0  0
 40  1  1  0  0  0  0
 41 40  1  0  0  0  0
 42 41  1  0  0  0  0
 44 43  1  6  0  0  0
 44 42  1  0  0  0  0
 45 44  1  0  0  0  0
 46 48  1  0  0  0  0
 47 46  2  0  0  0  0
 48 45  1  0  0  0  0
 49 46  1  0  0  0  0
M  END
>  <MODEL>
7

>  <REMARK>
 VINA RESULT:      -7.6      2.513      9.874
  Name = 
  16 active torsions:
  status: ('A' for Active; 'I' for Inactive)
    1  A    between atoms: C_1  and  O_14
    2  A    between atoms: C_3  and  C_43
    3  A    between atoms: C_4  and  C_19
    4  A    between atoms: C_4  and  C_45
    5  A    between atoms: C_11  and  C_29
    6  A    between atoms: O_14  and  C_19
    7  A    between atoms: C_17  and  O_27
    8  A    between atoms: C_21  and  C_32
    9  A    between atoms: C_21  and  C_40
   10  A    between atoms: C_29  and  C_32
   11  A    between atoms: C_30  and  C_39
   12  A    between atoms: C_30  and  C_40
   13  A    between atoms: C_35  and  N_41
   14  A    between atoms: C_35  and  C_45
   15  A    between atoms: C_36  and  N_42
   16  A    between atoms: C_36  and  C_47
                            x       y       z     vdW  Elec       q    Type
                         _______ _______ _______ _____ _____    ______ ____

>  <TORSDO>
F 16

$$$$
=
 OpenBabel10222419223D

 49 53  0  0  1  0  0  0  0  0999 V2000
  186.2860  177.8230  138.4290 C   0  0  0  0  0  0  0  0  0  0  0  0
  184.1730  177.8370  137.1310 C   0  0  0  0  0  0  0  0  0  0  0  0
  182.8350  178.1850  136.9450 C   0  0  0  0  0  3  0  0  0  0  0  0
  186.7880  176.9470  137.6070 N   0  0  0  0  0  0  0  0  0  0  0  0
  185.9760  176.2270  136.6200 C   0  0  0  0  0  2  0  0  0  0  0  0
  182.7860  179.1990  139.1370 C   0  0  0  0  0  3  0  0  0  0  0  0
  184.8480  178.1970  138.3160 C   0  0  0  0  0  0  0  0  0  0  0  0
  184.1350  178.8790  139.3320 C   0  0  0  0  0  0  0  0  0  0  0  0
  182.1320  178.8540  137.9540 C   0  0  0  0  0  0  0  0  0  0  0  0
  184.9120  177.1490  136.0250 C   0  0  0  0  0  2  0  0  0  0  0  0
  180.7090  179.2790  137.7740 C   0  0  0  0  0  2  0  0  0  0  0  0
  180.5640  181.8100  137.7460 C   0  0  0  0  0  0  0  0  0  0  0  0
  180.5740  181.8500  139.0080 O   0  0  0  0  0  0  0  0  0  0  0  0
  180.6110  180.5490  137.0640 N   0  0  0  0  0  2  0  0  0  0  0  0
  180.4350  184.2470  137.5330 O   0  0  0  0  0  0  0  0  0  0  0  0
  180.4670  183.1610  135.6060 C   0  0  0  0  0  3  0  0  0  0  0  0
  180.3970  184.5190  135.3520 C   0  0  0  0  0  3  0  0  0  0  0  0
  180.3770  185.1520  136.5850 C   0  0  0  0  0  3  0  0  0  0  0  0
  180.4890  183.0590  136.9830 C   0  0  0  0  0  0  0  0  0  0  0  0
  184.7520  179.2370  140.6470 C   0  0  0  0  0  2  0  0  0  0  0  0
  183.2870  179.3120  142.5140 O   0  0  0  0  0  1  0  0  0  0  0  0
  184.1130  178.4560  141.7850 C   0  0  2  0  0  3  0  0  0  0  0  0
  185.1810  177.8790  142.7030 C   0  0  0  0  0  2  0  0  0  0  0  0
  185.5270  178.8630  143.8090 C   0  0  0  0  0  2  0  0  0  0  0  0
  185.5840  178.1660  145.1600 C   0  0  0  0  0  2  0  0  0  0  0  0
  192.0640  177.1270  148.2430 O   0  0  0  0  0  0  0  0  0  0  0  0
  186.8330  177.3040  145.2430 C   0  0  1  0  0  3  0  0  0  0  0  0
  188.9560  177.3440  143.7390 C   0  0  1  0  0  3  0  0  0  0  0  0
  189.9720  177.4010  147.3050 O   0  0  0  0  0  0  0  0  0  0  0  0
  189.1730  178.7080  143.5430 O   0  0  0  0  0  1  0  0  0  0  0  0
  190.9840  176.4010  144.9040 C   0  0  0  0  0  0  0  0  0  0  0  0
  189.7160  176.8800  144.9590 C   0  0  0  0  0  0  0  0  0  0  0  0
  187.4460  177.0740  143.8480 C   0  0  0  0  0  2  0  0  0  0  0  0
  189.0410  176.9710  146.3120 C   0  0  2  0  0  3  0  0  0  0  0  0
  191.2610  176.8630  147.3080 C   0  0  0  0  0  0  0  0  0  0  0  0
  187.8150  177.8730  146.2650 C   0  0  0  0  0  2  0  0  0  0  0  0
  191.6760  175.9690  146.1780 C   0  0  0  0  0  2  0  0  0  0  0  0
  192.0560  177.3200  142.8390 C   0  0  0  0  0  1  0  0  0  0  0  0
  191.7160  176.2500  143.7160 O   0  0  0  0  0  0  0  0  0  0  0  0
  187.1090  178.4620  139.3640 O   0  0  0  0  0  0  0  0  0  0  0  0
  188.2580  177.8470  139.9350 C   0  0  0  0  0  2  0  0  0  0  0  0
  189.4950  178.2220  139.1390 C   0  0  0  0  0  2  0  0  0  0  0  0
  190.2020  176.2510  140.2800 O   0  0  0  0  0  1  0  0  0  0  0  0
  190.6560  177.3000  139.4810 C   0  0  1  0  0  3  0  0  0  0  0  0
  191.3380  176.7520  138.2280 C   0  0  0  0  0  2  0  0  0  0  0  0
  189.9810  175.1020  136.8950 C   0  0  0  0  0  0  0  0  0  0  0  0
  189.1220  174.8730  136.0030 O   0  0  0  0  0  0  0  0  0  0  0  0
  190.3640  176.4470  137.1880 N   0  0  0  0  0  2  0  0  0  0  0  0
  190.5390  174.0380  137.5930 O   0  0  0  0  0  1  0  0  0  0  0  0
  1 40  1  0  0  0  0
  2  7  1  0  0  0  0
  3  2  2  0  0  0  0
  3  9  1  0  0  0  0
  4  1  2  0  0  0  0
  5  4  1  0  0  0  0
  6  8  1  0  0  0  0
  7  1  1  0  0  0  0
  7  8  2  0  0  0  0
  8 20  1  0  0  0  0
  9  6  2  0  0  0  0
 10  5  1  0  0  0  0
 10  2  1  0  0  0  0
 11  9  1  0  0  0  0
 12 13  2  0  0  0  0
 14 12  1  0  0  0  0
 14 11  1  0  0  0  0
 16 19  2  0  0  0  0
 17 16  1  0  0  0  0
 17 18  2  0  0  0  0
 18 15  1  0  0  0  0
 19 15  1  0  0  0  0
 19 12  1  0  0  0  0
 20 22  1  0  0  0  0
 22 21  1  1  0  0  0
 22 23  1  0  0  0  0
 23 24  1  0  0  0  0
 24 25  1  0  0  0  0
 27 25  1  6  0  0  0
 27 36  1  0  0  0  0
 28 30  1  1  0  0  0
 28 33  1  0  0  0  0
 28 32  1  0  0  0  0
 29 35  1  0  0  0  0
 31 32  2  0  0  0  0
 31 37  1  0  0  0  0
 32 34  1  0  0  0  0
 33 27  1  0  0  0  0
 34 36  1  6  0  0  0
 34 29  1  0  0  0  0
 35 26  2  0  0  0  0
 37 35  1  0  0  0  0
 38 39  1  0  0  0  0
 39 31  1  0  0  0  0
 40 41  1  0  0  0  0
 42 44  1  0  0  0  0
 42 41  1  0  0  0  0
 44 43  1  1  0  0  0
 45 44  1  0  0  0  0
 46 48  1  0  0  0  0
 46 49  1  0  0  0  0
 47 46  2  0  0  0  0
 48 45  1  0  0  0  0
M  END
>  <MODEL>
8

>  <REMARK>
 VINA RESULT:      -7.5      3.049      5.053
  Name = 
  16 active torsions:
  status: ('A' for Active; 'I' for Inactive)
    1  A    between atoms: C_1  and  O_14
    2  A    between atoms: C_3  and  C_43
    3  A    between atoms: C_4  and  C_19
    4  A    between atoms: C_4  and  C_45
    5  A    between atoms: C_11  and  C_29
    6  A    between atoms: O_14  and  C_19
    7  A    between atoms: C_17  and  O_27
    8  A    between atoms: C_21  and  C_32
    9  A    between atoms: C_21  and  C_40
   10  A    between atoms: C_29  and  C_32
   11  A    between atoms: C_30  and  C_39
   12  A    between atoms: C_30  and  C_40
   13  A    between atoms: C_35  and  N_41
   14  A    between atoms: C_35  and  C_45
   15  A    between atoms: C_36  and  N_42
   16  A    between atoms: C_36  and  C_47
                            x       y       z     vdW  Elec       q    Type
                         _______ _______ _______ _____ _____    ______ ____

>  <TORSDO>
F 16

$$$$
=
 OpenBabel10222419223D

 49 53  0  0  1  0  0  0  0  0999 V2000
  186.9650  177.7540  145.1660 C   0  0  0  0  0  0  0  0  0  0  0  0
  184.6730  178.6240  145.5390 C   0  0  0  0  0  0  0  0  0  0  0  0
  183.4070  179.0090  145.0980 C   0  0  0  0  0  3  0  0  0  0  0  0
  187.2850  178.0670  146.3890 N   0  0  0  0  0  0  0  0  0  0  0  0
  186.4420  178.9140  147.2390 C   0  0  0  0  0  2  0  0  0  0  0  0
  184.0660  178.5900  142.8120 C   0  0  0  0  0  3  0  0  0  0  0  0
  185.6480  178.1830  144.6190 C   0  0  0  0  0  0  0  0  0  0  0  0
  185.3340  178.1780  143.2370 C   0  0  0  0  0  0  0  0  0  0  0  0
  183.1040  179.0080  143.7310 C   0  0  0  0  0  0  0  0  0  0  0  0
  184.9640  178.6050  147.0070 C   0  0  0  0  0  2  0  0  0  0  0  0
  181.7440  179.3750  143.2250 C   0  0  0  0  0  2  0  0  0  0  0  0
  180.2580  178.9570  141.2140 C   0  0  0  0  0  0  0  0  0  0  0  0
  179.4970  179.9070  141.5470 O   0  0  0  0  0  0  0  0  0  0  0  0
  181.3940  178.6260  142.0240 N   0  0  0  0  0  2  0  0  0  0  0  0
  179.4600  178.7050  138.9120 O   0  0  0  0  0  0  0  0  0  0  0  0
  180.1780  176.8310  139.8410 C   0  0  0  0  0  3  0  0  0  0  0  0
  179.7600  176.5580  138.5510 C   0  0  0  0  0  3  0  0  0  0  0  0
  179.3200  177.7580  138.0150 C   0  0  0  0  0  3  0  0  0  0  0  0
  179.9660  178.1850  140.0030 C   0  0  0  0  0  0  0  0  0  0  0  0
  186.3300  177.7920  142.1890 C   0  0  0  0  0  2  0  0  0  0  0  0
  185.7900  179.3750  140.5020 O   0  0  0  0  0  1  0  0  0  0  0  0
  186.7940  179.0060  141.3980 C   0  0  2  0  0  3  0  0  0  0  0  0
  188.0670  178.6880  140.6300 C   0  0  0  0  0  2  0  0  0  0  0  0
  187.7430  178.2480  139.2110 C   0  0  0  0  0  2  0  0  0  0  0  0
  188.8680  178.6160  138.2550 C   0  0  0  0  0  2  0  0  0  0  0  0
  187.0400  171.9250  136.1430 O   0  0  0  0  0  0  0  0  0  0  0  0
  189.1100  177.4760  137.2800 C   0  0  1  0  0  3  0  0  0  0  0  0
  190.9110  175.6000  137.3670 C   0  0  1  0  0  3  0  0  0  0  0  0
  187.5830  174.0840  136.7550 O   0  0  0  0  0  0  0  0  0  0  0  0
  190.9390  175.2580  138.7190 O   0  0  0  0  0  1  0  0  0  0  0  0
  190.2340  173.5480  136.0670 C   0  0  0  0  0  0  0  0  0  0  0  0
  189.9090  174.7310  136.6450 C   0  0  0  0  0  0  0  0  0  0  0  0
  190.6040  177.0990  137.2230 C   0  0  0  0  0  2  0  0  0  0  0  0
  188.4670  175.1910  136.5780 C   0  0  2  0  0  3  0  0  0  0  0  0
  187.8630  172.8790  136.1080 C   0  0  0  0  0  0  0  0  0  0  0  0
  188.1870  176.2990  137.5840 C   0  0  0  0  0  2  0  0  0  0  0  0
  189.1630  172.7350  135.3730 C   0  0  0  0  0  2  0  0  0  0  0  0
  191.9090  171.8470  135.3210 C   0  0  0  0  0  1  0  0  0  0  0  0
  191.5320  173.0160  136.0420 O   0  0  0  0  0  0  0  0  0  0  0  0
  187.8230  176.9580  144.3970 O   0  0  0  0  0  0  0  0  0  0  0  0
  189.1000  177.3980  143.9520 C   0  0  0  0  0  2  0  0  0  0  0  0
  189.9150  176.2120  143.4680 C   0  0  0  0  0  2  0  0  0  0  0  0
  191.6770  177.6970  144.0830 O   0  0  0  0  0  1  0  0  0  0  0  0
  191.3710  176.3500  143.8910 C   0  0  1  0  0  3  0  0  0  0  0  0
  191.6750  175.5520  145.1580 C   0  0  0  0  0  2  0  0  0  0  0  0
  191.1370  176.7560  147.3040 C   0  0  0  0  0  0  0  0  0  0  0  0
  191.5020  177.5030  148.2490 O   0  0  0  0  0  1  0  0  0  0  0  0
  192.0540  176.4320  146.2570 N   0  0  0  0  0  2  0  0  0  0  0  0
  189.8460  176.2430  147.3000 O   0  0  0  0  0  0  0  0  0  0  0  0
  1  4  2  0  0  0  0
  2 10  1  0  0  0  0
  3  2  1  0  0  0  0
  4  5  1  0  0  0  0
  6  8  2  0  0  0  0
  6  9  1  0  0  0  0
  7  1  1  0  0  0  0
  7  2  2  0  0  0  0
  8  7  1  0  0  0  0
  9  3  2  0  0  0  0
 10  5  1  0  0  0  0
 11  9  1  0  0  0  0
 12 13  2  0  0  0  0
 12 14  1  0  0  0  0
 14 11  1  0  0  0  0
 15 19  1  0  0  0  0
 16 19  2  0  0  0  0
 17 16  1  0  0  0  0
 18 17  2  0  0  0  0
 18 15  1  0  0  0  0
 19 12  1  0  0  0  0
 20  8  1  0  0  0  0
 22 21  1  6  0  0  0
 22 20  1  0  0  0  0
 23 22  1  0  0  0  0
 24 23  1  0  0  0  0
 25 24  1  0  0  0  0
 27 36  1  0  0  0  0
 27 25  1  1  0  0  0
 28 30  1  1  0  0  0
 31 32  2  0  0  0  0
 32 28  1  0  0  0  0
 33 27  1  0  0  0  0
 33 28  1  0  0  0  0
 34 32  1  0  0  0  0
 34 29  1  0  0  0  0
 34 36  1  1  0  0  0
 35 26  2  0  0  0  0
 35 29  1  0  0  0  0
 37 31  1  0  0  0  0
 37 35  1  0  0  0  0
 38 39  1  0  0  0  0
 39 31  1  0  0  0  0
 40  1  1  0  0  0  0
 41 40  1  0  0  0  0
 42 44  1  0  0  0  0
 42 41  1  0  0  0  0
 44 43  1  1  0  0  0
 44 45  1  0  0  0  0
 45 48  1  0  0  0  0
 46 47  1  0  0  0  0
 48 46  1  0  0  0  0
 49 46  2  0  0  0  0
M  END
>  <MODEL>
9

>  <REMARK>
 VINA RESULT:      -7.4      3.001      8.157
  Name = 
  16 active torsions:
  status: ('A' for Active; 'I' for Inactive)
    1  A    between atoms: C_1  and  O_14
    2  A    between atoms: C_3  and  C_43
    3  A    between atoms: C_4  and  C_19
    4  A    between atoms: C_4  and  C_45
    5  A    between atoms: C_11  and  C_29
    6  A    between atoms: O_14  and  C_19
    7  A    between atoms: C_17  and  O_27
    8  A    between atoms: C_21  and  C_32
    9  A    between atoms: C_21  and  C_40
   10  A    between atoms: C_29  and  C_32
   11  A    between atoms: C_30  and  C_39
   12  A    between atoms: C_30  and  C_40
   13  A    between atoms: C_35  and  N_41
   14  A    between atoms: C_35  and  C_45
   15  A    between atoms: C_36  and  N_42
   16  A    between atoms: C_36  and  C_47
                            x       y       z     vdW  Elec       q    Type
                         _______ _______ _______ _____ _____    ______ ____

>  <TORSDO>
F 16

$$$$
