=
 OpenBabel10222417333D

 57 60  0  0  1  0  0  0  0  0999 V2000
  185.7720  178.7830  140.8110 C   0  0  0  0  0  0  0  0  0  0  0  0
  188.0310  178.3320  140.1870 C   0  0  0  0  0  0  0  0  0  0  0  0
  186.0400  178.3620  142.1340 C   0  0  0  0  0  0  0  0  0  0  0  0
  187.3330  177.9410  142.4530 C   0  0  0  0  0  3  0  0  0  0  0  0
  186.7790  178.7680  139.8910 N   0  0  0  0  0  0  0  0  0  0  0  0
  188.3320  177.9150  141.4810 C   0  0  0  0  0  3  0  0  0  0  0  0
  189.0870  178.3100  139.1340 C   0  0  0  0  0  2  0  0  0  0  0  0
  188.6130  178.9950  137.9380 N   0  0  0  0  0  2  0  0  0  0  0  0
  189.3110  178.4600  136.8460 N   0  0  0  0  0  2  0  0  0  0  0  0
  190.0310  177.3580  137.3240 N   0  0  0  0  0  2  0  0  0  0  0  0
  189.9510  176.3260  136.3000 C   0  0  2  0  0  3  0  0  0  0  0  0
  189.3140  174.0230  136.4940 O   0  0  0  0  0  0  0  0  0  0  0  0
  189.0380  175.2280  136.7440 C   0  0  0  0  0  0  0  0  0  0  0  0
  187.8640  175.5410  137.4170 O   0  0  0  0  0  1  0  0  0  0  0  0
  191.3510  175.7980  136.0030 C   0  0  0  0  0  2  0  0  0  0  0  0
  192.2530  175.8460  137.2340 C   0  0  2  0  0  3  0  0  0  0  0  0
  193.2650  176.7730  137.0370 F   0  0  0  0  0  0  0  0  0  0  0  0
  192.8440  174.4800  137.5820 C   0  0  0  0  0  2  0  0  0  0  0  0
  194.3400  174.5610  137.8520 C   0  0  0  0  0  1  0  0  0  0  0  0
  184.4510  179.3930  140.4370 C   0  0  0  0  0  2  0  0  0  0  0  0
  183.8950  177.4010  139.2550 O   0  0  0  0  0  0  0  0  0  0  0  0
  183.4820  178.3660  139.9520 C   0  0  0  0  0  0  0  0  0  0  0  0
  181.2180  179.2430  139.5300 C   0  0  0  0  0  0  0  0  0  0  0  0
  182.0840  178.5540  140.2240 N   0  0  0  0  0  0  0  0  0  0  0  0
  180.3390  180.3140  137.4930 C   0  0  1  0  0  3  0  0  0  0  0  0
  181.8970  181.3160  138.3900 N   0  0  0  0  0  2  0  0  0  0  0  0
  181.5840  179.9010  138.2150 C   0  0  1  0  0  3  0  0  0  0  0  0
  180.7210  181.7020  137.7180 N   0  0  0  0  0  2  0  0  0  0  0  0
  180.4550  179.9890  136.0120 C   0  0  0  0  0  2  0  0  0  0  0  0
  182.2670  176.8510  134.9140 C   0  0  0  0  0  3  0  0  0  0  0  0
  181.9190  178.1980  135.0660 C   0  0  0  0  0  3  0  0  0  0  0  0
  181.4950  175.8550  135.5240 C   0  0  0  0  0  0  0  0  0  0  0  0
  180.0240  177.5520  136.4350 C   0  0  0  0  0  3  0  0  0  0  0  0
  180.7970  178.5500  135.8250 C   0  0  0  0  0  0  0  0  0  0  0  0
  180.3740  176.2070  136.2850 C   0  0  0  0  0  3  0  0  0  0  0  0
  181.9690  174.1390  135.3720 S   0  0  0  0  0  0  0  0  0  0  0  0
  183.6770  174.5570  134.9020 C   0  0  0  0  0  2  0  0  0  0  0  0
  184.5130  174.6950  136.1530 C   0  0  0  0  0  2  0  0  0  0  0  0
  183.9040  173.8600  137.2660 C   0  0  0  0  0  2  0  0  0  0  0  0
  186.0050  172.6640  136.7210 C   0  0  0  0  0  1  0  0  0  0  0  0
  184.9300  172.8670  137.7710 C   0  0  0  0  0  2  0  0  0  0  0  0
  179.2240  177.9600  139.9710 N   0  0  0  0  0  1  0  0  0  0  0  0
  179.8070  179.2910  140.0270 C   0  0  0  0  0  2  0  0  0  0  0  0
  185.0630  178.3830  143.1820 N   0  0  0  0  0  2  0  0  0  0  0  0
  184.8980  179.4530  144.1150 C   0  0  0  0  0  3  0  0  0  0  0  0
  184.9720  179.2500  145.4260 C   0  0  0  0  0  3  0  0  0  0  0  0
  185.2460  177.9030  146.0210 C   0  0  0  0  0  2  0  0  0  0  0  0
  187.6910  177.6270  146.6680 C   0  0  0  0  0  0  0  0  0  0  0  0
  187.4780  178.1240  147.8080 O   0  0  0  0  0  0  0  0  0  0  0  0
  186.6140  177.4840  145.7350 N   0  0  0  0  0  2  0  0  0  0  0  0
  189.7820  177.9560  145.2840 C   0  0  0  0  0  2  0  0  0  0  0  0
  189.9390  176.9150  147.5790 C   0  0  0  0  0  2  0  0  0  0  0  0
  190.7970  176.4900  143.5320 C   0  0  0  0  0  1  0  0  0  0  0  0
  191.0720  177.2720  144.8020 C   0  0  2  0  0  3  0  0  0  0  0  0
  191.4420  176.8550  147.2660 C   0  0  0  0  0  2  0  0  0  0  0  0
  191.7000  176.3400  145.8490 C   0  0  0  0  0  2  0  0  0  0  0  0
  189.0600  177.0990  146.3280 C   0  0  1  0  0  3  0  0  0  0  0  0
  1  3  1  0  0  0  0
  2  6  2  0  0  0  0
  3  4  2  0  0  0  0
  3 44  1  0  0  0  0
  5  2  1  0  0  0  0
  5  1  2  0  0  0  0
  6  4  1  0  0  0  0
  7  2  1  0  0  0  0
  8  7  1  0  0  0  0
  9 10  1  0  0  0  0
  9  8  1  0  0  0  0
 11 15  1  1  0  0  0
 11 13  1  0  0  0  0
 11 10  1  0  0  0  0
 12 13  2  0  0  0  0
 13 14  1  0  0  0  0
 15 16  1  0  0  0  0
 16 17  1  6  0  0  0
 16 18  1  0  0  0  0
 18 19  1  0  0  0  0
 20  1  1  0  0  0  0
 21 22  2  0  0  0  0
 22 24  1  0  0  0  0
 22 20  1  0  0  0  0
 23 43  1  0  0  0  0
 23 24  2  0  0  0  0
 25 29  1  6  0  0  0
 25 28  1  0  0  0  0
 25 27  1  0  0  0  0
 27 26  1  0  0  0  0
 27 23  1  1  0  0  0
 28 26  1  0  0  0  0
 30 31  2  0  0  0  0
 30 32  1  0  0  0  0
 31 34  1  0  0  0  0
 32 35  2  0  0  0  0
 34 29  1  0  0  0  0
 34 33  2  0  0  0  0
 35 33  1  0  0  0  0
 36 32  1  0  0  0  0
 37 36  1  0  0  0  0
 37 38  1  0  0  0  0
 38 39  1  0  0  0  0
 39 41  1  0  0  0  0
 40 41  1  0  0  0  0
 42 43  1  0  0  0  0
 44 45  1  0  0  0  0
 45 46  2  0  0  0  0
 46 47  1  0  0  0  0
 48 49  2  0  0  0  0
 50 47  1  0  0  0  0
 50 48  1  0  0  0  0
 51 57  1  0  0  0  0
 54 53  1  6  0  0  0
 54 51  1  0  0  0  0
 54 56  1  0  0  0  0
 55 52  1  0  0  0  0
 56 55  1  0  0  0  0
 57 48  1  1  0  0  0
 57 52  1  0  0  0  0
M  END
>  <MODEL>
1

>  <REMARK>
 VINA RESULT:      -6.7      0.000      0.000
  Name = 
  26 active torsions:
  status: ('A' for Active; 'I' for Inactive)
    1  A    between atoms: C_1  and  C_14
    2  A    between atoms: C_2  and  C_38
    3  A    between atoms: C_2  and  C_51
    4  A    between atoms: C_3  and  N_45
    5  A    between atoms: C_4  and  C_39
    6  A    between atoms: C_7  and  C_15
    7  A    between atoms: C_8  and  C_40
    8  A    between atoms: C_8  and  C_47
    9  A    between atoms: C_9  and  C_43
   10  A    between atoms: N_10  and  N_13
   11  A    between atoms: N_10  and  N_33
   12  A    between atoms: C_11  and  C_18
   13  A    between atoms: C_11  and  C_23
   14  A    between atoms: N_13  and  C_23
   15  A    between atoms: C_14  and  C_52
   16  A    between atoms: C_15  and  N_33
   17  A    between atoms: C_18  and  C_19
   18  A    between atoms: C_22  and  C_56
   19  A    between atoms: C_23  and  C_31
   20  A    between atoms: S_24  and  C_37
   21  A    between atoms: S_24  and  C_40
   22  A    between atoms: C_28  and  N_45
   23  A    between atoms: C_34  and  C_39
   24  A    between atoms: C_34  and  N_53
   25  A    between atoms: C_35  and  C_47
   26  A    between atoms: N_36  and  C_43
                            x       y       z     vdW  Elec       q    Type
                         _______ _______ _______ _____ _____    ______ ____

>  <TORSDO>
F 26

$$$$
=
 OpenBabel10222417333D

 57 60  0  0  1  0  0  0  0  0999 V2000
  183.5940  178.5760  141.8840 C   0  0  0  0  0  0  0  0  0  0  0  0
  185.5730  178.0910  143.1260 C   0  0  0  0  0  0  0  0  0  0  0  0
  182.9550  179.0370  143.0580 C   0  0  0  0  0  0  0  0  0  0  0  0
  183.6700  179.0230  144.2580 C   0  0  0  0  0  3  0  0  0  0  0  0
  184.8830  178.1350  141.9570 N   0  0  0  0  0  0  0  0  0  0  0  0
  184.9780  178.5430  144.3010 C   0  0  0  0  0  3  0  0  0  0  0  0
  186.9720  177.5720  143.1530 C   0  0  0  0  0  2  0  0  0  0  0  0
  187.4000  177.3640  144.5300 N   0  0  0  0  0  2  0  0  0  0  0  0
  188.6910  177.8980  144.6520 N   0  0  0  0  0  2  0  0  0  0  0  0
  189.5660  176.8140  144.8030 N   0  0  0  0  0  2  0  0  0  0  0  0
  190.4530  177.1380  145.9110 C   0  0  2  0  0  3  0  0  0  0  0  0
  192.4430  176.1830  146.8450 O   0  0  0  0  0  1  0  0  0  0  0  0
  191.6940  176.3060  145.8380 C   0  0  0  0  0  0  0  0  0  0  0  0
  192.0360  175.6850  144.6430 O   0  0  0  0  0  0  0  0  0  0  0  0
  189.7170  176.9230  147.2290 C   0  0  0  0  0  2  0  0  0  0  0  0
  189.4420  178.2390  147.9510 C   0  0  2  0  0  3  0  0  0  0  0  0
  190.1430  178.2730  149.1470 F   0  0  0  0  0  0  0  0  0  0  0  0
  187.9510  178.4700  148.2040 C   0  0  0  0  0  2  0  0  0  0  0  0
  187.2250  177.1740  148.5350 C   0  0  0  0  0  1  0  0  0  0  0  0
  182.9430  178.7070  140.5370 C   0  0  0  0  0  2  0  0  0  0  0  0
  184.6580  179.9680  139.4690 O   0  0  0  0  0  0  0  0  0  0  0  0
  183.9460  178.9280  139.4540 C   0  0  0  0  0  0  0  0  0  0  0  0
  185.0760  177.5710  137.7350 C   0  0  0  0  0  0  0  0  0  0  0  0
  184.0140  177.9850  138.3720 N   0  0  0  0  0  0  0  0  0  0  0  0
  187.4830  177.1110  137.4770 C   0  0  1  0  0  3  0  0  0  0  0  0
  186.9630  179.0960  137.3220 N   0  0  0  0  0  2  0  0  0  0  0  0
  186.4730  177.9930  138.1430 C   0  0  1  0  0  3  0  0  0  0  0  0
  187.9060  178.2620  136.6910 N   0  0  0  0  0  2  0  0  0  0  0  0
  188.5820  176.7330  138.4570 C   0  0  0  0  0  2  0  0  0  0  0  0
  192.0260  176.1530  136.9960 C   0  0  0  0  0  3  0  0  0  0  0  0
  190.9440  176.7610  137.6410 C   0  0  0  0  0  3  0  0  0  0  0  0
  191.8850  174.8740  136.4470 C   0  0  0  0  0  0  0  0  0  0  0  0
  189.5770  174.8110  137.1850 C   0  0  0  0  0  3  0  0  0  0  0  0
  189.7180  176.0930  137.7360 C   0  0  0  0  0  0  0  0  0  0  0  0
  190.6600  174.2020  136.5430 C   0  0  0  0  0  3  0  0  0  0  0  0
  193.2820  174.0760  135.6680 S   0  0  0  0  0  0  0  0  0  0  0  0
  194.4400  175.3710  136.2100 C   0  0  0  0  0  2  0  0  0  0  0  0
  195.6770  174.7180  136.7840 C   0  0  0  0  0  2  0  0  0  0  0  0
  195.3700  173.2730  137.1370 C   0  0  0  0  0  2  0  0  0  0  0  0
  195.8890  174.3910  139.2870 C   0  0  0  0  0  1  0  0  0  0  0  0
  195.4450  173.0930  138.6390 C   0  0  0  0  0  2  0  0  0  0  0  0
  184.5450  175.2810  137.1930 N   0  0  0  0  0  1  0  0  0  0  0  0
  184.8840  176.5780  136.6310 C   0  0  0  0  0  2  0  0  0  0  0  0
  181.6220  179.5610  143.0770 N   0  0  0  0  0  2  0  0  0  0  0  0
  180.4390  178.7660  143.1810 C   0  0  0  0  0  3  0  0  0  0  0  0
  179.3160  179.1060  142.5590 C   0  0  0  0  0  3  0  0  0  0  0  0
  179.2060  180.3270  141.6970 C   0  0  0  0  0  2  0  0  0  0  0  0
  179.6890  181.0200  139.2970 C   0  0  0  0  0  0  0  0  0  0  0  0
  179.3440  182.2100  139.5380 O   0  0  0  0  0  0  0  0  0  0  0  0
  179.6490  180.0370  140.3360 N   0  0  0  0  0  2  0  0  0  0  0  0
  179.4340  179.5430  137.2590 C   0  0  0  0  0  2  0  0  0  0  0  0
  180.3410  181.8870  137.0130 C   0  0  0  0  0  2  0  0  0  0  0  0
  180.9960  177.8420  136.3020 C   0  0  0  0  0  1  0  0  0  0  0  0
  180.1410  179.0540  135.9840 C   0  0  2  0  0  3  0  0  0  0  0  0
  180.4140  181.5230  135.5220 C   0  0  0  0  0  2  0  0  0  0  0  0
  181.0090  180.1290  135.3130 C   0  0  0  0  0  2  0  0  0  0  0  0
  180.2320  180.6610  137.9390 C   0  0  1  0  0  3  0  0  0  0  0  0
  1  5  2  0  0  0  0
  1  3  1  0  0  0  0
  2  7  1  0  0  0  0
  2  6  2  0  0  0  0
  3 44  1  0  0  0  0
  3  4  2  0  0  0  0
  4  6  1  0  0  0  0
  5  2  1  0  0  0  0
  7  8  1  0  0  0  0
  8  9  1  0  0  0  0
  9 10  1  0  0  0  0
 10 11  1  0  0  0  0
 11 15  1  1  0  0  0
 13 11  1  0  0  0  0
 13 12  1  0  0  0  0
 14 13  2  0  0  0  0
 15 16  1  0  0  0  0
 16 18  1  0  0  0  0
 16 17  1  1  0  0  0
 18 19  1  0  0  0  0
 20  1  1  0  0  0  0
 22 21  2  0  0  0  0
 22 20  1  0  0  0  0
 23 24  2  0  0  0  0
 24 22  1  0  0  0  0
 25 27  1  0  0  0  0
 25 29  1  1  0  0  0
 26 27  1  0  0  0  0
 27 23  1  6  0  0  0
 28 26  1  0  0  0  0
 28 25  1  0  0  0  0
 30 31  1  0  0  0  0
 31 34  2  0  0  0  0
 32 35  1  0  0  0  0
 32 30  2  0  0  0  0
 33 34  1  0  0  0  0
 34 29  1  0  0  0  0
 35 33  2  0  0  0  0
 36 37  1  0  0  0  0
 36 32  1  0  0  0  0
 37 38  1  0  0  0  0
 38 39  1  0  0  0  0
 39 41  1  0  0  0  0
 41 40  1  0  0  0  0
 43 42  1  0  0  0  0
 43 23  1  0  0  0  0
 44 45  1  0  0  0  0
 46 45  2  0  0  0  0
 47 46  1  0  0  0  0
 48 49  2  0  0  0  0
 48 50  1  0  0  0  0
 50 47  1  0  0  0  0
 51 57  1  0  0  0  0
 52 57  1  0  0  0  0
 54 53  1  1  0  0  0
 54 51  1  0  0  0  0
 55 52  1  0  0  0  0
 56 55  1  0  0  0  0
 56 54  1  0  0  0  0
 57 48  1  1  0  0  0
M  END
>  <MODEL>
2

>  <REMARK>
 VINA RESULT:      -6.4      3.281      9.396
  Name = 
  26 active torsions:
  status: ('A' for Active; 'I' for Inactive)
    1  A    between atoms: C_1  and  C_14
    2  A    between atoms: C_2  and  C_38
    3  A    between atoms: C_2  and  C_51
    4  A    between atoms: C_3  and  N_45
    5  A    between atoms: C_4  and  C_39
    6  A    between atoms: C_7  and  C_15
    7  A    between atoms: C_8  and  C_40
    8  A    between atoms: C_8  and  C_47
    9  A    between atoms: C_9  and  C_43
   10  A    between atoms: N_10  and  N_13
   11  A    between atoms: N_10  and  N_33
   12  A    between atoms: C_11  and  C_18
   13  A    between atoms: C_11  and  C_23
   14  A    between atoms: N_13  and  C_23
   15  A    between atoms: C_14  and  C_52
   16  A    between atoms: C_15  and  N_33
   17  A    between atoms: C_18  and  C_19
   18  A    between atoms: C_22  and  C_56
   19  A    between atoms: C_23  and  C_31
   20  A    between atoms: S_24  and  C_37
   21  A    between atoms: S_24  and  C_40
   22  A    between atoms: C_28  and  N_45
   23  A    between atoms: C_34  and  C_39
   24  A    between atoms: C_34  and  N_53
   25  A    between atoms: C_35  and  C_47
   26  A    between atoms: N_36  and  C_43
                            x       y       z     vdW  Elec       q    Type
                         _______ _______ _______ _____ _____    ______ ____

>  <TORSDO>
F 26

$$$$
=
 OpenBabel10222417333D

 57 60  0  0  1  0  0  0  0  0999 V2000
  185.9050  178.6480  141.2770 C   0  0  0  0  0  0  0  0  0  0  0  0
  187.9510  178.2950  140.1000 C   0  0  0  0  0  0  0  0  0  0  0  0
  186.4750  178.1120  142.4540 C   0  0  0  0  0  0  0  0  0  0  0  0
  187.8050  177.6870  142.4200 C   0  0  0  0  0  3  0  0  0  0  0  0
  186.6670  178.7350  140.1480 N   0  0  0  0  0  0  0  0  0  0  0  0
  188.5470  177.7670  141.2420 C   0  0  0  0  0  3  0  0  0  0  0  0
  188.7290  178.3880  138.8300 C   0  0  0  0  0  2  0  0  0  0  0  0
  188.1710  177.4800  137.8360 N   0  0  0  0  0  2  0  0  0  0  0  0
  188.7390  177.8160  136.5980 N   0  0  0  0  0  2  0  0  0  0  0  0
  189.7430  176.8740  136.3430 N   0  0  0  0  0  2  0  0  0  0  0  0
  189.1770  175.5640  136.6320 C   0  0  2  0  0  3  0  0  0  0  0  0
  189.9840  173.4590  137.4450 O   0  0  0  0  0  0  0  0  0  0  0  0
  190.2040  174.6890  137.2780 C   0  0  0  0  0  0  0  0  0  0  0  0
  191.3990  175.2430  137.7190 O   0  0  0  0  0  1  0  0  0  0  0  0
  188.6520  174.9440  135.3410 C   0  0  0  0  0  2  0  0  0  0  0  0
  187.1720  174.5850  135.4410 C   0  0  2  0  0  3  0  0  0  0  0  0
  186.7270  174.7860  136.7380 F   0  0  0  0  0  0  0  0  0  0  0  0
  186.8850  173.1490  134.9970 C   0  0  0  0  0  2  0  0  0  0  0  0
  188.1570  172.4140  134.5990 C   0  0  0  0  0  1  0  0  0  0  0  0
  184.5360  179.2670  141.2810 C   0  0  0  0  0  2  0  0  0  0  0  0
  183.8530  177.2500  140.2140 O   0  0  0  0  0  0  0  0  0  0  0  0
  183.4980  178.3240  140.7710 C   0  0  0  0  0  0  0  0  0  0  0  0
  181.4090  179.3520  139.9640 C   0  0  0  0  0  0  0  0  0  0  0  0
  182.1160  178.7080  140.8530 N   0  0  0  0  0  0  0  0  0  0  0  0
  180.8580  179.8100  137.6070 C   0  0  1  0  0  3  0  0  0  0  0  0
  182.1460  181.1630  138.4700 N   0  0  0  0  0  2  0  0  0  0  0  0
  181.9700  179.7210  138.6050 C   0  0  1  0  0  3  0  0  0  0  0  0
  181.0940  181.2470  137.5370 N   0  0  0  0  0  2  0  0  0  0  0  0
  181.2730  179.1630  136.2950 C   0  0  0  0  0  2  0  0  0  0  0  0
  181.6570  175.5840  137.4660 C   0  0  0  0  0  3  0  0  0  0  0  0
  181.1260  176.8610  137.2540 C   0  0  0  0  0  3  0  0  0  0  0  0
  182.9250  175.2620  136.9690 C   0  0  0  0  0  0  0  0  0  0  0  0
  183.1330  177.4950  136.0500 C   0  0  0  0  0  3  0  0  0  0  0  0
  181.8630  177.8180  136.5480 C   0  0  0  0  0  0  0  0  0  0  0  0
  183.6630  176.2180  136.2590 C   0  0  0  0  0  3  0  0  0  0  0  0
  183.5820  173.6150  137.1960 S   0  0  0  0  0  0  0  0  0  0  0  0
  182.0950  172.8270  136.5050 C   0  0  0  0  0  2  0  0  0  0  0  0
  182.2340  171.3260  136.6170 C   0  0  0  0  0  2  0  0  0  0  0  0
  183.6930  170.9380  136.4580 C   0  0  0  0  0  2  0  0  0  0  0  0
  185.3150  169.7970  134.9720 C   0  0  0  0  0  1  0  0  0  0  0  0
  183.8430  170.0150  135.2670 C   0  0  0  0  0  2  0  0  0  0  0  0
  179.7460  179.4330  141.7090 N   0  0  0  0  0  1  0  0  0  0  0  0
  179.9760  179.6400  140.2890 C   0  0  0  0  0  2  0  0  0  0  0  0
  185.7730  178.0220  143.7000 N   0  0  0  0  0  2  0  0  0  0  0  0
  185.1980  179.1330  144.3900 C   0  0  0  0  0  3  0  0  0  0  0  0
  185.0000  179.1100  145.7030 C   0  0  0  0  0  3  0  0  0  0  0  0
  185.3760  177.9370  146.5570 C   0  0  0  0  0  2  0  0  0  0  0  0
  187.8860  177.7380  146.9160 C   0  0  0  0  0  0  0  0  0  0  0  0
  187.8280  178.4650  147.9460 O   0  0  0  0  0  0  0  0  0  0  0  0
  186.6940  177.4330  146.1850 N   0  0  0  0  0  2  0  0  0  0  0  0
  189.9200  177.9110  145.4230 C   0  0  0  0  0  2  0  0  0  0  0  0
  190.1260  176.8880  147.7230 C   0  0  0  0  0  2  0  0  0  0  0  0
  190.7450  176.3600  143.6440 C   0  0  0  0  0  1  0  0  0  0  0  0
  191.1360  177.1360  144.8870 C   0  0  2  0  0  3  0  0  0  0  0  0
  191.6040  176.7240  147.3350 C   0  0  0  0  0  2  0  0  0  0  0  0
  191.7550  176.1770  145.9140 C   0  0  0  0  0  2  0  0  0  0  0  0
  189.1980  177.1150  146.5150 C   0  0  1  0  0  3  0  0  0  0  0  0
  1 20  1  0  0  0  0
  1  3  1  0  0  0  0
  2  5  1  0  0  0  0
  2  6  2  0  0  0  0
  3 44  1  0  0  0  0
  4  3  2  0  0  0  0
  5  1  2  0  0  0  0
  6  4  1  0  0  0  0
  7  2  1  0  0  0  0
  8  7  1  0  0  0  0
  9  8  1  0  0  0  0
 10  9  1  0  0  0  0
 10 11  1  0  0  0  0
 11 15  1  6  0  0  0
 11 13  1  0  0  0  0
 13 12  2  0  0  0  0
 13 14  1  0  0  0  0
 15 16  1  0  0  0  0
 16 17  1  1  0  0  0
 18 16  1  0  0  0  0
 19 18  1  0  0  0  0
 21 22  2  0  0  0  0
 22 24  1  0  0  0  0
 22 20  1  0  0  0  0
 23 43  1  0  0  0  0
 23 24  2  0  0  0  0
 25 29  1  6  0  0  0
 25 27  1  0  0  0  0
 26 27  1  0  0  0  0
 27 23  1  1  0  0  0
 28 25  1  0  0  0  0
 28 26  1  0  0  0  0
 29 34  1  0  0  0  0
 31 30  1  0  0  0  0
 32 36  1  0  0  0  0
 32 30  2  0  0  0  0
 33 35  2  0  0  0  0
 33 34  1  0  0  0  0
 34 31  2  0  0  0  0
 35 32  1  0  0  0  0
 37 38  1  0  0  0  0
 37 36  1  0  0  0  0
 39 38  1  0  0  0  0
 40 41  1  0  0  0  0
 41 39  1  0  0  0  0
 43 42  1  0  0  0  0
 44 45  1  0  0  0  0
 45 46  2  0  0  0  0
 46 47  1  0  0  0  0
 48 49  2  0  0  0  0
 50 47  1  0  0  0  0
 50 48  1  0  0  0  0
 51 57  1  0  0  0  0
 54 53  1  6  0  0  0
 54 51  1  0  0  0  0
 54 56  1  0  0  0  0
 55 52  1  0  0  0  0
 56 55  1  0  0  0  0
 57 48  1  1  0  0  0
 57 52  1  0  0  0  0
M  END
>  <MODEL>
3

>  <REMARK>
 VINA RESULT:      -6.3      1.714      2.411
  Name = 
  26 active torsions:
  status: ('A' for Active; 'I' for Inactive)
    1  A    between atoms: C_1  and  C_14
    2  A    between atoms: C_2  and  C_38
    3  A    between atoms: C_2  and  C_51
    4  A    between atoms: C_3  and  N_45
    5  A    between atoms: C_4  and  C_39
    6  A    between atoms: C_7  and  C_15
    7  A    between atoms: C_8  and  C_40
    8  A    between atoms: C_8  and  C_47
    9  A    between atoms: C_9  and  C_43
   10  A    between atoms: N_10  and  N_13
   11  A    between atoms: N_10  and  N_33
   12  A    between atoms: C_11  and  C_18
   13  A    between atoms: C_11  and  C_23
   14  A    between atoms: N_13  and  C_23
   15  A    between atoms: C_14  and  C_52
   16  A    between atoms: C_15  and  N_33
   17  A    between atoms: C_18  and  C_19
   18  A    between atoms: C_22  and  C_56
   19  A    between atoms: C_23  and  C_31
   20  A    between atoms: S_24  and  C_37
   21  A    between atoms: S_24  and  C_40
   22  A    between atoms: C_28  and  N_45
   23  A    between atoms: C_34  and  C_39
   24  A    between atoms: C_34  and  N_53
   25  A    between atoms: C_35  and  C_47
   26  A    between atoms: N_36  and  C_43
                            x       y       z     vdW  Elec       q    Type
                         _______ _______ _______ _____ _____    ______ ____

>  <TORSDO>
F 26

$$$$
=
 OpenBabel10222417333D

 57 60  0  0  1  0  0  0  0  0999 V2000
  183.6620  178.5900  142.1420 C   0  0  0  0  0  0  0  0  0  0  0  0
  185.3440  178.2600  143.8020 C   0  0  0  0  0  0  0  0  0  0  0  0
  182.7420  178.9940  143.1360 C   0  0  0  0  0  0  0  0  0  0  0  0
  183.1680  179.0330  144.4660 C   0  0  0  0  0  3  0  0  0  0  0  0
  184.9330  178.2530  142.5080 N   0  0  0  0  0  0  0  0  0  0  0  0
  184.4670  178.6580  144.8080 C   0  0  0  0  0  3  0  0  0  0  0  0
  186.7380  177.8540  144.1490 C   0  0  0  0  0  2  0  0  0  0  0  0
  187.2410  176.9070  143.1630 N   0  0  0  0  0  2  0  0  0  0  0  0
  188.5260  176.5210  143.5710 N   0  0  0  0  0  2  0  0  0  0  0  0
  189.2840  177.6930  143.6910 N   0  0  0  0  0  2  0  0  0  0  0  0
  190.1390  177.5260  144.8570 C   0  0  2  0  0  3  0  0  0  0  0  0
  191.6270  176.4540  143.3140 O   0  0  0  0  0  0  0  0  0  0  0  0
  191.3120  176.6620  144.5160 C   0  0  0  0  0  0  0  0  0  0  0  0
  192.0430  176.0640  145.5350 O   0  0  0  0  0  1  0  0  0  0  0  0
  189.3250  176.9320  146.0010 C   0  0  0  0  0  2  0  0  0  0  0  0
  189.4780  177.7360  147.2890 C   0  0  2  0  0  3  0  0  0  0  0  0
  190.6270  177.3390  147.9560 F   0  0  0  0  0  0  0  0  0  0  0  0
  188.2610  177.6120  148.2070 C   0  0  0  0  0  2  0  0  0  0  0  0
  187.0180  178.2330  147.5880 C   0  0  0  0  0  1  0  0  0  0  0  0
  183.3220  178.6730  140.6820 C   0  0  0  0  0  2  0  0  0  0  0  0
  185.5260  179.3510  140.0830 O   0  0  0  0  0  0  0  0  0  0  0  0
  184.5410  178.6100  139.8220 C   0  0  0  0  0  0  0  0  0  0  0  0
  185.5190  177.4720  137.8680 C   0  0  0  0  0  0  0  0  0  0  0  0
  184.5250  177.7600  138.6630 N   0  0  0  0  0  0  0  0  0  0  0  0
  187.9130  177.0410  137.4780 C   0  0  1  0  0  3  0  0  0  0  0  0
  187.3290  178.9920  137.1850 N   0  0  0  0  0  2  0  0  0  0  0  0
  186.9290  177.9580  138.1340 C   0  0  1  0  0  3  0  0  0  0  0  0
  188.2490  178.1250  136.5630 N   0  0  0  0  0  2  0  0  0  0  0  0
  189.0890  176.7770  138.4060 C   0  0  0  0  0  2  0  0  0  0  0  0
  192.4440  175.9580  136.8560 C   0  0  0  0  0  3  0  0  0  0  0  0
  191.4170  176.6490  137.5070 C   0  0  0  0  0  3  0  0  0  0  0  0
  192.2220  174.6610  136.3780 C   0  0  0  0  0  0  0  0  0  0  0  0
  189.9440  174.7480  137.1990 C   0  0  0  0  0  3  0  0  0  0  0  0
  190.1660  176.0470  137.6790 C   0  0  0  0  0  0  0  0  0  0  0  0
  190.9720  174.0560  136.5520 C   0  0  0  0  0  3  0  0  0  0  0  0
  193.5500  173.7590  135.5930 S   0  0  0  0  0  0  0  0  0  0  0  0
  194.2290  173.1920  137.1830 C   0  0  0  0  0  2  0  0  0  0  0  0
  195.0440  174.3070  137.7970 C   0  0  0  0  0  2  0  0  0  0  0  0
  196.1300  173.7160  138.6780 C   0  0  0  0  0  2  0  0  0  0  0  0
  198.4110  174.6010  138.2770 C   0  0  0  0  0  1  0  0  0  0  0  0
  197.3990  173.5460  137.8690 C   0  0  0  0  0  2  0  0  0  0  0  0
  184.3540  177.2100  135.7720 N   0  0  0  0  0  1  0  0  0  0  0  0
  185.2460  176.5560  136.7150 C   0  0  0  0  0  2  0  0  0  0  0  0
  181.4010  179.4110  142.8490 N   0  0  0  0  0  2  0  0  0  0  0  0
  180.2710  178.5380  142.8180 C   0  0  0  0  0  3  0  0  0  0  0  0
  179.4940  178.4450  141.7440 C   0  0  0  0  0  3  0  0  0  0  0  0
  179.7490  179.2260  140.4910 C   0  0  0  0  0  2  0  0  0  0  0  0
  180.6970  178.6810  138.1930 C   0  0  0  0  0  0  0  0  0  0  0  0
  181.2510  179.8120  138.1190 O   0  0  0  0  0  0  0  0  0  0  0  0
  179.9400  178.3270  139.3560 N   0  0  0  0  0  2  0  0  0  0  0  0
  180.3940  176.2770  137.4690 C   0  0  0  0  0  2  0  0  0  0  0  0
  180.3170  178.1300  135.7560 C   0  0  0  0  0  2  0  0  0  0  0  0
  182.1010  174.5470  136.8830 C   0  0  0  0  0  1  0  0  0  0  0  0
  180.8260  175.2300  136.4280 C   0  0  2  0  0  3  0  0  0  0  0  0
  180.0780  176.9800  134.7660 C   0  0  0  0  0  2  0  0  0  0  0  0
  181.0320  175.8120  135.0220 C   0  0  0  0  0  2  0  0  0  0  0  0
  180.9140  177.6700  137.0980 C   0  0  1  0  0  3  0  0  0  0  0  0
  1  5  2  0  0  0  0
  1  3  1  0  0  0  0
  2  7  1  0  0  0  0
  2  6  2  0  0  0  0
  3  4  2  0  0  0  0
  4  6  1  0  0  0  0
  5  2  1  0  0  0  0
  8  9  1  0  0  0  0
  8  7  1  0  0  0  0
  9 10  1  0  0  0  0
 10 11  1  0  0  0  0
 11 15  1  1  0  0  0
 12 13  2  0  0  0  0
 13 11  1  0  0  0  0
 13 14  1  0  0  0  0
 15 16  1  0  0  0  0
 16 17  1  1  0  0  0
 16 18  1  0  0  0  0
 19 18  1  0  0  0  0
 20  1  1  0  0  0  0
 22 21  2  0  0  0  0
 22 20  1  0  0  0  0
 23 24  2  0  0  0  0
 24 22  1  0  0  0  0
 25 27  1  0  0  0  0
 25 29  1  1  0  0  0
 26 27  1  0  0  0  0
 27 23  1  6  0  0  0
 28 26  1  0  0  0  0
 28 25  1  0  0  0  0
 30 31  1  0  0  0  0
 31 34  2  0  0  0  0
 32 35  1  0  0  0  0
 32 30  2  0  0  0  0
 33 34  1  0  0  0  0
 34 29  1  0  0  0  0
 35 33  2  0  0  0  0
 36 32  1  0  0  0  0
 36 37  1  0  0  0  0
 37 38  1  0  0  0  0
 38 39  1  0  0  0  0
 41 40  1  0  0  0  0
 41 39  1  0  0  0  0
 42 43  1  0  0  0  0
 43 23  1  0  0  0  0
 44  3  1  0  0  0  0
 45 44  1  0  0  0  0
 46 45  2  0  0  0  0
 47 46  1  0  0  0  0
 48 50  1  0  0  0  0
 49 48  2  0  0  0  0
 50 47  1  0  0  0  0
 52 57  1  0  0  0  0
 54 53  1  1  0  0  0
 54 51  1  0  0  0  0
 55 56  1  0  0  0  0
 55 52  1  0  0  0  0
 56 54  1  0  0  0  0
 57 51  1  0  0  0  0
 57 48  1  1  0  0  0
M  END
>  <MODEL>
4

>  <REMARK>
 VINA RESULT:      -6.0      3.119      9.316
  Name = 
  26 active torsions:
  status: ('A' for Active; 'I' for Inactive)
    1  A    between atoms: C_1  and  C_14
    2  A    between atoms: C_2  and  C_38
    3  A    between atoms: C_2  and  C_51
    4  A    between atoms: C_3  and  N_45
    5  A    between atoms: C_4  and  C_39
    6  A    between atoms: C_7  and  C_15
    7  A    between atoms: C_8  and  C_40
    8  A    between atoms: C_8  and  C_47
    9  A    between atoms: C_9  and  C_43
   10  A    between atoms: N_10  and  N_13
   11  A    between atoms: N_10  and  N_33
   12  A    between atoms: C_11  and  C_18
   13  A    between atoms: C_11  and  C_23
   14  A    between atoms: N_13  and  C_23
   15  A    between atoms: C_14  and  C_52
   16  A    between atoms: C_15  and  N_33
   17  A    between atoms: C_18  and  C_19
   18  A    between atoms: C_22  and  C_56
   19  A    between atoms: C_23  and  C_31
   20  A    between atoms: S_24  and  C_37
   21  A    between atoms: S_24  and  C_40
   22  A    between atoms: C_28  and  N_45
   23  A    between atoms: C_34  and  C_39
   24  A    between atoms: C_34  and  N_53
   25  A    between atoms: C_35  and  C_47
   26  A    between atoms: N_36  and  C_43
                            x       y       z     vdW  Elec       q    Type
                         _______ _______ _______ _____ _____    ______ ____

>  <TORSDO>
F 26

$$$$
=
 OpenBabel10222417333D

 57 60  0  0  1  0  0  0  0  0999 V2000
  184.3650  178.7790  142.5020 C   0  0  0  0  0  0  0  0  0  0  0  0
  185.7310  178.1600  144.3590 C   0  0  0  0  0  0  0  0  0  0  0  0
  183.2830  179.0480  143.3710 C   0  0  0  0  0  0  0  0  0  0  0  0
  183.4690  178.8740  144.7440 C   0  0  0  0  0  3  0  0  0  0  0  0
  185.5530  178.3600  143.0270 N   0  0  0  0  0  0  0  0  0  0  0  0
  184.6890  178.4210  145.2450 C   0  0  0  0  0  3  0  0  0  0  0  0
  187.0430  177.6730  144.8760 C   0  0  0  0  0  2  0  0  0  0  0  0
  187.2600  178.1700  146.2290 N   0  0  0  0  0  2  0  0  0  0  0  0
  188.0060  177.2010  146.9150 N   0  0  0  0  0  2  0  0  0  0  0  0
  189.2890  177.7340  147.1020 N   0  0  0  0  0  2  0  0  0  0  0  0
  190.2180  176.8470  146.4180 C   0  0  2  0  0  3  0  0  0  0  0  0
  191.8040  175.3110  147.3520 O   0  0  0  0  0  0  0  0  0  0  0  0
  191.3510  176.4870  147.3260 C   0  0  0  0  0  0  0  0  0  0  0  0
  191.8910  177.4530  148.1660 O   0  0  0  0  0  1  0  0  0  0  0  0
  190.7190  177.5220  145.1460 C   0  0  0  0  0  2  0  0  0  0  0  0
  191.1070  176.5060  144.0740 C   0  0  2  0  0  3  0  0  0  0  0  0
  192.2130  176.9630  143.3740 F   0  0  0  0  0  0  0  0  0  0  0  0
  189.9580  176.2010  143.1130 C   0  0  0  0  0  2  0  0  0  0  0  0
  189.3650  177.4690  142.5160 C   0  0  0  0  0  1  0  0  0  0  0  0
  184.2870  179.0920  141.0350 C   0  0  0  0  0  2  0  0  0  0  0  0
  186.6540  179.2350  140.8050 O   0  0  0  0  0  0  0  0  0  0  0  0
  185.5710  178.7950  140.3330 C   0  0  0  0  0  0  0  0  0  0  0  0
  186.5260  177.7800  138.3010 C   0  0  0  0  0  0  0  0  0  0  0  0
  185.5270  178.0830  139.0860 N   0  0  0  0  0  0  0  0  0  0  0  0
  188.8830  177.1620  137.9360 C   0  0  1  0  0  3  0  0  0  0  0  0
  188.5040  179.1840  137.8850 N   0  0  0  0  0  2  0  0  0  0  0  0
  187.9630  178.0830  138.6760 C   0  0  1  0  0  3  0  0  0  0  0  0
  189.3630  178.3140  137.1840 N   0  0  0  0  0  2  0  0  0  0  0  0
  189.9840  176.6630  138.8590 C   0  0  0  0  0  2  0  0  0  0  0  0
  193.3160  175.8750  137.2450 C   0  0  0  0  0  3  0  0  0  0  0  0
  192.3090  176.5400  137.9530 C   0  0  0  0  0  3  0  0  0  0  0  0
  193.0550  174.6310  136.6580 C   0  0  0  0  0  0  0  0  0  0  0  0
  190.7780  174.7190  137.4830 C   0  0  0  0  0  3  0  0  0  0  0  0
  191.0400  175.9650  138.0720 C   0  0  0  0  0  0  0  0  0  0  0  0
  191.7850  174.0530  136.7780 C   0  0  0  0  0  3  0  0  0  0  0  0
  194.3550  173.7580  135.7970 S   0  0  0  0  0  0  0  0  0  0  0  0
  195.6100  174.9970  136.2450 C   0  0  0  0  0  2  0  0  0  0  0  0
  196.6240  174.3620  137.1690 C   0  0  0  0  0  2  0  0  0  0  0  0
  197.6560  173.6080  136.3480 C   0  0  0  0  0  2  0  0  0  0  0  0
  198.8980  174.4390  138.3250 C   0  0  0  0  0  1  0  0  0  0  0  0
  199.0300  173.8210  136.9460 C   0  0  0  0  0  2  0  0  0  0  0  0
  184.8900  177.3820  136.5740 N   0  0  0  0  0  1  0  0  0  0  0  0
  186.2200  177.0290  137.0430 C   0  0  0  0  0  2  0  0  0  0  0  0
  182.0120  179.5350  142.9220 N   0  0  0  0  0  2  0  0  0  0  0  0
  180.7700  178.8580  143.1170 C   0  0  0  0  0  3  0  0  0  0  0  0
  179.9970  178.5140  142.0930 C   0  0  0  0  0  3  0  0  0  0  0  0
  180.3710  178.7900  140.6690 C   0  0  0  0  0  2  0  0  0  0  0  0
  181.0230  176.8730  139.1290 C   0  0  0  0  0  0  0  0  0  0  0  0
  182.2480  177.1520  139.2490 O   0  0  0  0  0  0  0  0  0  0  0  0
  180.0390  177.6500  139.8200 N   0  0  0  0  0  2  0  0  0  0  0  0
  181.7950  174.9430  137.6890 C   0  0  0  0  0  2  0  0  0  0  0  0
  179.7690  174.6780  139.1720 C   0  0  0  0  0  2  0  0  0  0  0  0
  181.2710  174.4060  135.3040 C   0  0  0  0  0  1  0  0  0  0  0  0
  181.3190  173.8520  136.7150 C   0  0  2  0  0  3  0  0  0  0  0  0
  179.7380  173.2560  138.5930 C   0  0  0  0  0  2  0  0  0  0  0  0
  179.9480  173.2620  137.0780 C   0  0  0  0  0  2  0  0  0  0  0  0
  180.6070  175.6620  138.3350 C   0  0  1  0  0  3  0  0  0  0  0  0
  1  5  2  0  0  0  0
  1  3  1  0  0  0  0
  2  7  1  0  0  0  0
  2  6  2  0  0  0  0
  3  4  2  0  0  0  0
  4  6  1  0  0  0  0
  5  2  1  0  0  0  0
  7  8  1  0  0  0  0
  8  9  1  0  0  0  0
  9 10  1  0  0  0  0
 11 15  1  6  0  0  0
 11 10  1  0  0  0  0
 11 13  1  0  0  0  0
 13 12  2  0  0  0  0
 13 14  1  0  0  0  0
 16 17  1  6  0  0  0
 16 15  1  0  0  0  0
 18 16  1  0  0  0  0
 19 18  1  0  0  0  0
 20  1  1  0  0  0  0
 22 21  2  0  0  0  0
 22 20  1  0  0  0  0
 23 24  2  0  0  0  0
 24 22  1  0  0  0  0
 25 27  1  0  0  0  0
 25 29  1  1  0  0  0
 26 27  1  0  0  0  0
 27 23  1  6  0  0  0
 28 26  1  0  0  0  0
 28 25  1  0  0  0  0
 30 31  1  0  0  0  0
 31 34  2  0  0  0  0
 32 35  1  0  0  0  0
 32 30  2  0  0  0  0
 33 34  1  0  0  0  0
 34 29  1  0  0  0  0
 35 33  2  0  0  0  0
 36 37  1  0  0  0  0
 36 32  1  0  0  0  0
 37 38  1  0  0  0  0
 39 41  1  0  0  0  0
 39 38  1  0  0  0  0
 41 40  1  0  0  0  0
 42 43  1  0  0  0  0
 43 23  1  0  0  0  0
 44 45  1  0  0  0  0
 44  3  1  0  0  0  0
 46 45  2  0  0  0  0
 47 46  1  0  0  0  0
 48 49  2  0  0  0  0
 48 50  1  0  0  0  0
 50 47  1  0  0  0  0
 51 57  1  0  0  0  0
 54 53  1  6  0  0  0
 54 56  1  0  0  0  0
 54 51  1  0  0  0  0
 55 52  1  0  0  0  0
 56 55  1  0  0  0  0
 57 48  1  1  0  0  0
 57 52  1  0  0  0  0
M  END
>  <MODEL>
5

>  <REMARK>
 VINA RESULT:      -5.9      3.096      9.459
  Name = 
  26 active torsions:
  status: ('A' for Active; 'I' for Inactive)
    1  A    between atoms: C_1  and  C_14
    2  A    between atoms: C_2  and  C_38
    3  A    between atoms: C_2  and  C_51
    4  A    between atoms: C_3  and  N_45
    5  A    between atoms: C_4  and  C_39
    6  A    between atoms: C_7  and  C_15
    7  A    between atoms: C_8  and  C_40
    8  A    between atoms: C_8  and  C_47
    9  A    between atoms: C_9  and  C_43
   10  A    between atoms: N_10  and  N_13
   11  A    between atoms: N_10  and  N_33
   12  A    between atoms: C_11  and  C_18
   13  A    between atoms: C_11  and  C_23
   14  A    between atoms: N_13  and  C_23
   15  A    between atoms: C_14  and  C_52
   16  A    between atoms: C_15  and  N_33
   17  A    between atoms: C_18  and  C_19
   18  A    between atoms: C_22  and  C_56
   19  A    between atoms: C_23  and  C_31
   20  A    between atoms: S_24  and  C_37
   21  A    between atoms: S_24  and  C_40
   22  A    between atoms: C_28  and  N_45
   23  A    between atoms: C_34  and  C_39
   24  A    between atoms: C_34  and  N_53
   25  A    between atoms: C_35  and  C_47
   26  A    between atoms: N_36  and  C_43
                            x       y       z     vdW  Elec       q    Type
                         _______ _______ _______ _____ _____    ______ ____

>  <TORSDO>
F 26

$$$$
=
 OpenBabel10222417333D

 57 60  0  0  1  0  0  0  0  0999 V2000
  183.4390  179.0940  140.6760 C   0  0  0  0  0  0  0  0  0  0  0  0
  183.5850  178.7680  143.0360 C   0  0  0  0  0  0  0  0  0  0  0  0
  182.0350  178.9350  140.7280 C   0  0  0  0  0  0  0  0  0  0  0  0
  181.4330  178.7050  141.9680 C   0  0  0  0  0  3  0  0  0  0  0  0
  184.1610  179.0210  141.8320 N   0  0  0  0  0  0  0  0  0  0  0  0
  182.2040  178.6120  143.1260 C   0  0  0  0  0  3  0  0  0  0  0  0
  184.4260  178.6700  144.2640 C   0  0  0  0  0  2  0  0  0  0  0  0
  185.8380  178.6780  143.9040 N   0  0  0  0  0  2  0  0  0  0  0  0
  186.4310  177.5630  144.5130 N   0  0  0  0  0  2  0  0  0  0  0  0
  187.2620  178.0490  145.5300 N   0  0  0  0  0  2  0  0  0  0  0  0
  188.4800  177.2520  145.4970 C   0  0  2  0  0  3  0  0  0  0  0  0
  190.2760  177.1000  147.0780 O   0  0  0  0  0  0  0  0  0  0  0  0
  189.0310  177.0960  146.8790 C   0  0  0  0  0  0  0  0  0  0  0  0
  188.1620  176.9190  147.9490 O   0  0  0  0  0  1  0  0  0  0  0  0
  189.4930  177.9120  144.5680 C   0  0  0  0  0  2  0  0  0  0  0  0
  189.8140  177.0370  143.3590 C   0  0  2  0  0  3  0  0  0  0  0  0
  190.4630  175.8850  143.7740 F   0  0  0  0  0  0  0  0  0  0  0  0
  190.6520  177.7700  142.3100 C   0  0  0  0  0  2  0  0  0  0  0  0
  190.7870  176.9620  141.0270 C   0  0  0  0  0  1  0  0  0  0  0  0
  184.1340  179.4970  139.4070 C   0  0  0  0  0  2  0  0  0  0  0  0
  186.3320  178.6150  139.6600 O   0  0  0  0  0  0  0  0  0  0  0  0
  185.2310  178.5500  139.0490 C   0  0  0  0  0  0  0  0  0  0  0  0
  185.8430  177.3860  136.9660 C   0  0  0  0  0  0  0  0  0  0  0  0
  185.0300  177.6420  137.9550 N   0  0  0  0  0  0  0  0  0  0  0  0
  188.2400  176.9060  136.6630 C   0  0  1  0  0  3  0  0  0  0  0  0
  187.5300  178.4860  135.5510 N   0  0  0  0  0  2  0  0  0  0  0  0
  187.2310  177.9890  136.8910 C   0  0  1  0  0  3  0  0  0  0  0  0
  188.4730  177.4620  135.3360 N   0  0  0  0  0  2  0  0  0  0  0  0
  189.4670  177.1370  137.5320 C   0  0  0  0  0  2  0  0  0  0  0  0
  190.9530  173.7260  136.8350 C   0  0  0  0  0  3  0  0  0  0  0  0
  190.0250  174.7450  137.0740 C   0  0  0  0  0  3  0  0  0  0  0  0
  192.3230  174.0130  136.8340 C   0  0  0  0  0  0  0  0  0  0  0  0
  191.8370  176.3380  137.3150 C   0  0  0  0  0  3  0  0  0  0  0  0
  190.4640  176.0510  137.3150 C   0  0  0  0  0  0  0  0  0  0  0  0
  192.7640  175.3200  137.0720 C   0  0  0  0  0  3  0  0  0  0  0  0
  193.5060  172.7220  136.4780 S   0  0  0  0  0  0  0  0  0  0  0  0
  194.9260  173.7830  136.8880 C   0  0  0  0  0  2  0  0  0  0  0  0
  196.1180  172.9110  137.2110 C   0  0  0  0  0  2  0  0  0  0  0  0
  195.6440  171.5050  137.5370 C   0  0  0  0  0  2  0  0  0  0  0  0
  197.6320  170.0250  137.5510 C   0  0  0  0  0  1  0  0  0  0  0  0
  196.4460  170.5030  136.7350 C   0  0  0  0  0  2  0  0  0  0  0  0
  184.3540  176.9790  135.1120 N   0  0  0  0  0  1  0  0  0  0  0  0
  185.3990  176.3940  135.9370 C   0  0  0  0  0  2  0  0  0  0  0  0
  181.1850  179.0400  139.5790 N   0  0  0  0  0  2  0  0  0  0  0  0
  180.0960  178.1610  139.2930 C   0  0  0  0  0  3  0  0  0  0  0  0
  180.0840  177.4010  138.2030 C   0  0  0  0  0  3  0  0  0  0  0  0
  181.2050  177.3950  137.2080 C   0  0  0  0  0  2  0  0  0  0  0  0
  182.3490  175.1940  137.7730 C   0  0  0  0  0  0  0  0  0  0  0  0
  182.6960  175.6290  138.9060 O   0  0  0  0  0  0  0  0  0  0  0  0
  181.5960  176.0270  136.8840 N   0  0  0  0  0  2  0  0  0  0  0  0
  182.1680  173.4130  135.9860 C   0  0  0  0  0  2  0  0  0  0  0  0
  184.1380  173.4200  137.5660 C   0  0  0  0  0  2  0  0  0  0  0  0
  180.9660  171.2210  136.0170 C   0  0  0  0  0  1  0  0  0  0  0  0
  182.2880  171.9030  135.7220 C   0  0  2  0  0  3  0  0  0  0  0  0
  184.5720  172.1840  136.7640 C   0  0  0  0  0  2  0  0  0  0  0  0
  183.4030  171.2250  136.5320 C   0  0  0  0  0  2  0  0  0  0  0  0
  182.6470  173.7660  137.3980 C   0  0  1  0  0  3  0  0  0  0  0  0
  1  3  2  0  0  0  0
  1  5  1  0  0  0  0
  2  6  1  0  0  0  0
  2  7  1  0  0  0  0
  3  4  1  0  0  0  0
  4  6  2  0  0  0  0
  5  2  2  0  0  0  0
  8  7  1  0  0  0  0
  8  9  1  0  0  0  0
  9 10  1  0  0  0  0
 11 15  1  6  0  0  0
 11 10  1  0  0  0  0
 11 13  1  0  0  0  0
 13 12  2  0  0  0  0
 13 14  1  0  0  0  0
 16 17  1  1  0  0  0
 16 15  1  0  0  0  0
 18 16  1  0  0  0  0
 19 18  1  0  0  0  0
 20  1  1  0  0  0  0
 22 20  1  0  0  0  0
 22 21  2  0  0  0  0
 23 24  2  0  0  0  0
 24 22  1  0  0  0  0
 25 27  1  0  0  0  0
 25 29  1  1  0  0  0
 26 27  1  0  0  0  0
 27 23  1  6  0  0  0
 28 26  1  0  0  0  0
 28 25  1  0  0  0  0
 30 31  1  0  0  0  0
 31 34  2  0  0  0  0
 32 30  2  0  0  0  0
 32 35  1  0  0  0  0
 34 33  1  0  0  0  0
 34 29  1  0  0  0  0
 35 33  2  0  0  0  0
 36 32  1  0  0  0  0
 36 37  1  0  0  0  0
 37 38  1  0  0  0  0
 38 39  1  0  0  0  0
 41 39  1  0  0  0  0
 41 40  1  0  0  0  0
 42 43  1  0  0  0  0
 43 23  1  0  0  0  0
 44  3  1  0  0  0  0
 45 44  1  0  0  0  0
 46 45  2  0  0  0  0
 47 46  1  0  0  0  0
 48 49  2  0  0  0  0
 50 47  1  0  0  0  0
 50 48  1  0  0  0  0
 51 57  1  0  0  0  0
 54 51  1  0  0  0  0
 54 53  1  1  0  0  0
 54 56  1  0  0  0  0
 55 52  1  0  0  0  0
 56 55  1  0  0  0  0
 57 52  1  0  0  0  0
 57 48  1  6  0  0  0
M  END
>  <MODEL>
6

>  <REMARK>
 VINA RESULT:      -5.7      2.929      9.201
  Name = 
  26 active torsions:
  status: ('A' for Active; 'I' for Inactive)
    1  A    between atoms: C_1  and  C_14
    2  A    between atoms: C_2  and  C_38
    3  A    between atoms: C_2  and  C_51
    4  A    between atoms: C_3  and  N_45
    5  A    between atoms: C_4  and  C_39
    6  A    between atoms: C_7  and  C_15
    7  A    between atoms: C_8  and  C_40
    8  A    between atoms: C_8  and  C_47
    9  A    between atoms: C_9  and  C_43
   10  A    between atoms: N_10  and  N_13
   11  A    between atoms: N_10  and  N_33
   12  A    between atoms: C_11  and  C_18
   13  A    between atoms: C_11  and  C_23
   14  A    between atoms: N_13  and  C_23
   15  A    between atoms: C_14  and  C_52
   16  A    between atoms: C_15  and  N_33
   17  A    between atoms: C_18  and  C_19
   18  A    between atoms: C_22  and  C_56
   19  A    between atoms: C_23  and  C_31
   20  A    between atoms: S_24  and  C_37
   21  A    between atoms: S_24  and  C_40
   22  A    between atoms: C_28  and  N_45
   23  A    between atoms: C_34  and  C_39
   24  A    between atoms: C_34  and  N_53
   25  A    between atoms: C_35  and  C_47
   26  A    between atoms: N_36  and  C_43
                            x       y       z     vdW  Elec       q    Type
                         _______ _______ _______ _____ _____    ______ ____

>  <TORSDO>
F 26

$$$$
=
 OpenBabel10222417333D

 57 60  0  0  1  0  0  0  0  0999 V2000
  184.0940  178.4730  141.8000 C   0  0  0  0  0  0  0  0  0  0  0  0
  185.7360  178.4550  140.0680 C   0  0  0  0  0  0  0  0  0  0  0  0
  185.1080  178.3780  142.7800 C   0  0  0  0  0  0  0  0  0  0  0  0
  186.4410  178.3390  142.3620 C   0  0  0  0  0  3  0  0  0  0  0  0
  184.4440  178.5230  140.4820 N   0  0  0  0  0  0  0  0  0  0  0  0
  186.7620  178.3680  141.0050 C   0  0  0  0  0  3  0  0  0  0  0  0
  186.0600  178.4860  138.6120 C   0  0  0  0  0  2  0  0  0  0  0  0
  187.4990  178.6100  138.4240 N   0  0  0  0  0  2  0  0  0  0  0  0
  187.7830  178.2350  137.1030 N   0  0  0  0  0  2  0  0  0  0  0  0
  187.8780  176.8370  137.0900 N   0  0  0  0  0  2  0  0  0  0  0  0
  187.5530  176.4050  135.7380 C   0  0  2  0  0  3  0  0  0  0  0  0
  185.2930  176.2290  134.9610 O   0  0  0  0  0  0  0  0  0  0  0  0
  186.1980  175.7730  135.7110 C   0  0  0  0  0  0  0  0  0  0  0  0
  185.9290  174.6890  136.5370 O   0  0  0  0  0  1  0  0  0  0  0  0
  188.6260  175.4410  135.2430 C   0  0  0  0  0  2  0  0  0  0  0  0
  189.8250  175.3860  136.1870 C   0  0  2  0  0  3  0  0  0  0  0  0
  190.8280  176.2210  135.7190 F   0  0  0  0  0  0  0  0  0  0  0  0
  190.3600  173.9660  136.3740 C   0  0  0  0  0  2  0  0  0  0  0  0
  189.2470  172.9780  136.6890 C   0  0  0  0  0  1  0  0  0  0  0  0
  182.6550  178.6760  142.1800 C   0  0  0  0  0  2  0  0  0  0  0  0
  182.0490  177.3960  140.2650 O   0  0  0  0  0  0  0  0  0  0  0  0
  181.7290  178.3140  141.0670 C   0  0  0  0  0  0  0  0  0  0  0  0
  180.2620  179.9440  139.9430 C   0  0  0  0  0  0  0  0  0  0  0  0
  180.5290  179.0850  140.8890 N   0  0  0  0  0  0  0  0  0  0  0  0
  180.5380  181.0310  137.7500 C   0  0  1  0  0  3  0  0  0  0  0  0
  182.1060  181.3080  139.0530 N   0  0  0  0  0  2  0  0  0  0  0  0
  181.2110  180.1870  138.7870 C   0  0  1  0  0  3  0  0  0  0  0  0
  181.4660  182.1040  138.0820 N   0  0  0  0  0  2  0  0  0  0  0  0
  180.8480  180.5040  136.3570 C   0  0  0  0  0  2  0  0  0  0  0  0
  181.8650  176.8580  136.3090 C   0  0  0  0  0  3  0  0  0  0  0  0
  181.9350  178.2550  136.2920 C   0  0  0  0  0  3  0  0  0  0  0  0
  180.6200  176.2200  136.3740 C   0  0  0  0  0  0  0  0  0  0  0  0
  179.5150  178.3770  136.4030 C   0  0  0  0  0  3  0  0  0  0  0  0
  180.7620  179.0160  136.3380 C   0  0  0  0  0  0  0  0  0  0  0  0
  179.4460  176.9800  136.4230 C   0  0  0  0  0  3  0  0  0  0  0  0
  180.5330  174.4360  136.4470 S   0  0  0  0  0  0  0  0  0  0  0  0
  181.9230  174.2290  135.2910 C   0  0  0  0  0  2  0  0  0  0  0  0
  182.5720  172.8860  135.5340 C   0  0  0  0  0  2  0  0  0  0  0  0
  183.7520  172.7150  134.5940 C   0  0  0  0  0  2  0  0  0  0  0  0
  183.8550  170.7600  136.1140 C   0  0  0  0  0  1  0  0  0  0  0  0
  184.6020  171.5510  135.0570 C   0  0  0  0  0  2  0  0  0  0  0  0
  178.9940  181.7740  140.8720 N   0  0  0  0  0  1  0  0  0  0  0  0
  178.9310  180.6280  139.9790 C   0  0  0  0  0  2  0  0  0  0  0  0
  184.8460  178.3650  144.1890 N   0  0  0  0  0  2  0  0  0  0  0  0
  184.9840  179.4970  145.0500 C   0  0  0  0  0  3  0  0  0  0  0  0
  185.3740  179.3660  146.3130 C   0  0  0  0  0  3  0  0  0  0  0  0
  185.7130  178.0390  146.9220 C   0  0  0  0  0  2  0  0  0  0  0  0
  188.2250  177.6350  146.8990 C   0  0  0  0  0  0  0  0  0  0  0  0
  188.3640  178.2480  147.9940 O   0  0  0  0  0  0  0  0  0  0  0  0
  186.9240  177.4920  146.3180 N   0  0  0  0  0  2  0  0  0  0  0  0
  190.0180  177.8130  145.1250 C   0  0  0  0  0  2  0  0  0  0  0  0
  190.4970  176.5980  147.2860 C   0  0  0  0  0  2  0  0  0  0  0  0
  190.4590  176.3670  143.1340 C   0  0  0  0  0  1  0  0  0  0  0  0
  191.0840  177.0170  144.3530 C   0  0  2  0  0  3  0  0  0  0  0  0
  191.8850  176.3830  146.6630 C   0  0  0  0  0  2  0  0  0  0  0  0
  191.7830  175.9440  145.2020 C   0  0  0  0  0  2  0  0  0  0  0  0
  189.4150  176.9740  146.2560 C   0  0  1  0  0  3  0  0  0  0  0  0
  1 20  1  0  0  0  0
  1  3  1  0  0  0  0
  2  5  1  0  0  0  0
  2  6  2  0  0  0  0
  3 44  1  0  0  0  0
  4  3  2  0  0  0  0
  5  1  2  0  0  0  0
  6  4  1  0  0  0  0
  7  2  1  0  0  0  0
  8  7  1  0  0  0  0
  9  8  1  0  0  0  0
 10  9  1  0  0  0  0
 11 15  1  1  0  0  0
 11 10  1  0  0  0  0
 12 13  2  0  0  0  0
 13 11  1  0  0  0  0
 13 14  1  0  0  0  0
 15 16  1  0  0  0  0
 16 17  1  6  0  0  0
 16 18  1  0  0  0  0
 18 19  1  0  0  0  0
 21 22  2  0  0  0  0
 22 20  1  0  0  0  0
 23 43  1  0  0  0  0
 23 24  2  0  0  0  0
 24 22  1  0  0  0  0
 25 29  1  6  0  0  0
 25 28  1  0  0  0  0
 25 27  1  0  0  0  0
 27 26  1  0  0  0  0
 27 23  1  1  0  0  0
 28 26  1  0  0  0  0
 30 32  1  0  0  0  0
 31 30  2  0  0  0  0
 31 34  1  0  0  0  0
 32 35  2  0  0  0  0
 32 36  1  0  0  0  0
 33 35  1  0  0  0  0
 34 29  1  0  0  0  0
 34 33  2  0  0  0  0
 37 38  1  0  0  0  0
 37 36  1  0  0  0  0
 39 41  1  0  0  0  0
 39 38  1  0  0  0  0
 41 40  1  0  0  0  0
 43 42  1  0  0  0  0
 44 45  1  0  0  0  0
 45 46  2  0  0  0  0
 46 47  1  0  0  0  0
 48 49  2  0  0  0  0
 50 48  1  0  0  0  0
 50 47  1  0  0  0  0
 51 57  1  0  0  0  0
 54 53  1  6  0  0  0
 54 51  1  0  0  0  0
 54 56  1  0  0  0  0
 55 52  1  0  0  0  0
 56 55  1  0  0  0  0
 57 48  1  1  0  0  0
 57 52  1  0  0  0  0
M  END
>  <MODEL>
7

>  <REMARK>
 VINA RESULT:      -5.5      1.667      2.060
  Name = 
  26 active torsions:
  status: ('A' for Active; 'I' for Inactive)
    1  A    between atoms: C_1  and  C_14
    2  A    between atoms: C_2  and  C_38
    3  A    between atoms: C_2  and  C_51
    4  A    between atoms: C_3  and  N_45
    5  A    between atoms: C_4  and  C_39
    6  A    between atoms: C_7  and  C_15
    7  A    between atoms: C_8  and  C_40
    8  A    between atoms: C_8  and  C_47
    9  A    between atoms: C_9  and  C_43
   10  A    between atoms: N_10  and  N_13
   11  A    between atoms: N_10  and  N_33
   12  A    between atoms: C_11  and  C_18
   13  A    between atoms: C_11  and  C_23
   14  A    between atoms: N_13  and  C_23
   15  A    between atoms: C_14  and  C_52
   16  A    between atoms: C_15  and  N_33
   17  A    between atoms: C_18  and  C_19
   18  A    between atoms: C_22  and  C_56
   19  A    between atoms: C_23  and  C_31
   20  A    between atoms: S_24  and  C_37
   21  A    between atoms: S_24  and  C_40
   22  A    between atoms: C_28  and  N_45
   23  A    between atoms: C_34  and  C_39
   24  A    between atoms: C_34  and  N_53
   25  A    between atoms: C_35  and  C_47
   26  A    between atoms: N_36  and  C_43
                            x       y       z     vdW  Elec       q    Type
                         _______ _______ _______ _____ _____    ______ ____

>  <TORSDO>
F 26

$$$$
=
 OpenBabel10222417333D

 57 60  0  0  1  0  0  0  0  0999 V2000
  184.7330  178.8770  142.5040 C   0  0  0  0  0  0  0  0  0  0  0  0
  185.7840  178.0910  144.4980 C   0  0  0  0  0  0  0  0  0  0  0  0
  183.5430  179.1390  143.2190 C   0  0  0  0  0  0  0  0  0  0  0  0
  183.5140  178.8760  144.5910 C   0  0  0  0  0  3  0  0  0  0  0  0
  185.8140  178.3770  143.1700 N   0  0  0  0  0  0  0  0  0  0  0  0
  184.6300  178.3430  145.2360 C   0  0  0  0  0  3  0  0  0  0  0  0
  186.9870  177.5200  145.1700 C   0  0  0  0  0  2  0  0  0  0  0  0
  186.9240  177.7730  146.6040 N   0  0  0  0  0  2  0  0  0  0  0  0
  188.1400  177.3480  147.1580 N   0  0  0  0  0  2  0  0  0  0  0  0
  189.1370  177.6340  146.2170 N   0  0  0  0  0  2  0  0  0  0  0  0
  190.2660  176.7660  146.5200 C   0  0  2  0  0  3  0  0  0  0  0  0
  190.3920  178.0740  148.5240 O   0  0  0  0  0  1  0  0  0  0  0  0
  190.9330  177.2110  147.7820 C   0  0  0  0  0  0  0  0  0  0  0  0
  192.1720  176.6850  148.1260 O   0  0  0  0  0  0  0  0  0  0  0  0
  191.2380  176.7720  145.3460 C   0  0  0  0  0  2  0  0  0  0  0  0
  190.5710  177.2320  144.0520 C   0  0  2  0  0  3  0  0  0  0  0  0
  189.3980  176.5220  143.8510 F   0  0  0  0  0  0  0  0  0  0  0  0
  191.4890  177.0960  142.8370 C   0  0  0  0  0  2  0  0  0  0  0  0
  190.9490  177.8510  141.6310 C   0  0  0  0  0  1  0  0  0  0  0  0
  184.8860  179.2790  141.0650 C   0  0  0  0  0  2  0  0  0  0  0  0
  187.2120  178.7670  141.0280 O   0  0  0  0  0  0  0  0  0  0  0  0
  186.1000  178.6720  140.4430 C   0  0  0  0  0  0  0  0  0  0  0  0
  186.9420  177.7240  138.3300 C   0  0  0  0  0  0  0  0  0  0  0  0
  185.9810  178.0660  139.1460 N   0  0  0  0  0  0  0  0  0  0  0  0
  189.2240  176.9080  137.8870 C   0  0  1  0  0  3  0  0  0  0  0  0
  189.0490  178.9550  138.0120 N   0  0  0  0  0  2  0  0  0  0  0  0
  188.4030  177.8490  138.7120 C   0  0  1  0  0  3  0  0  0  0  0  0
  189.8140  178.0670  137.2300 N   0  0  0  0  0  2  0  0  0  0  0  0
  190.2720  176.2250  138.7510 C   0  0  0  0  0  2  0  0  0  0  0  0
  193.4040  175.0060  137.0080 C   0  0  0  0  0  3  0  0  0  0  0  0
  192.5300  175.7840  137.7740 C   0  0  0  0  0  3  0  0  0  0  0  0
  192.9380  173.8490  136.3720 C   0  0  0  0  0  0  0  0  0  0  0  0
  190.7200  174.2520  137.2640 C   0  0  0  0  0  3  0  0  0  0  0  0
  191.1880  175.4100  137.9030 C   0  0  0  0  0  0  0  0  0  0  0  0
  191.5950  173.4720  136.5020 C   0  0  0  0  0  3  0  0  0  0  0  0
  194.0660  172.8270  135.4350 S   0  0  0  0  0  0  0  0  0  0  0  0
  195.2070  174.2100  135.1260 C   0  0  0  0  0  2  0  0  0  0  0  0
  196.5750  173.6580  134.7950 C   0  0  0  0  0  2  0  0  0  0  0  0
  197.3870  173.5140  136.0700 C   0  0  0  0  0  2  0  0  0  0  0  0
  197.4730  174.7990  138.1870 C   0  0  0  0  0  1  0  0  0  0  0  0
  197.6150  174.8810  136.6790 C   0  0  0  0  0  2  0  0  0  0  0  0
  185.1280  177.2570  136.8110 N   0  0  0  0  0  1  0  0  0  0  0  0
  186.5580  177.1070  137.0210 C   0  0  0  0  0  2  0  0  0  0  0  0
  182.3700  179.7060  142.6200 N   0  0  0  0  0  2  0  0  0  0  0  0
  181.1370  179.0090  142.4370 C   0  0  0  0  0  3  0  0  0  0  0  0
  180.7320  178.6170  141.2330 C   0  0  0  0  0  3  0  0  0  0  0  0
  181.5350  178.8590  139.9920 C   0  0  0  0  0  2  0  0  0  0  0  0
  181.5960  181.0530  138.7040 C   0  0  0  0  0  0  0  0  0  0  0  0
  182.8110  181.2260  138.9960 O   0  0  0  0  0  0  0  0  0  0  0  0
  180.9060  179.8860  139.1660 N   0  0  0  0  0  2  0  0  0  0  0  0
  181.6350  183.3680  137.6870 C   0  0  0  0  0  2  0  0  0  0  0  0
  180.6550  181.4360  136.3900 C   0  0  0  0  0  2  0  0  0  0  0  0
  180.0060  185.2510  137.9130 C   0  0  0  0  0  1  0  0  0  0  0  0
  180.7900  184.4050  136.9280 C   0  0  2  0  0  3  0  0  0  0  0  0
  180.4100  182.5030  135.3110 C   0  0  0  0  0  2  0  0  0  0  0  0
  179.8250  183.7830  135.9090 C   0  0  0  0  0  2  0  0  0  0  0  0
  180.9010  182.0270  137.7900 C   0  0  1  0  0  3  0  0  0  0  0  0
  1  5  2  0  0  0  0
  1  3  1  0  0  0  0
  2  7  1  0  0  0  0
  2  6  2  0  0  0  0
  3  4  2  0  0  0  0
  4  6  1  0  0  0  0
  5  2  1  0  0  0  0
  7  8  1  0  0  0  0
  8  9  1  0  0  0  0
 10 11  1  0  0  0  0
 10  9  1  0  0  0  0
 11 15  1  6  0  0  0
 11 13  1  0  0  0  0
 13 14  2  0  0  0  0
 13 12  1  0  0  0  0
 16 17  1  6  0  0  0
 16 15  1  0  0  0  0
 18 16  1  0  0  0  0
 19 18  1  0  0  0  0
 20  1  1  0  0  0  0
 22 21  2  0  0  0  0
 22 20  1  0  0  0  0
 23 24  2  0  0  0  0
 24 22  1  0  0  0  0
 25 27  1  0  0  0  0
 25 29  1  1  0  0  0
 26 27  1  0  0  0  0
 27 23  1  6  0  0  0
 28 25  1  0  0  0  0
 28 26  1  0  0  0  0
 30 31  1  0  0  0  0
 31 34  2  0  0  0  0
 32 35  1  0  0  0  0
 32 30  2  0  0  0  0
 33 34  1  0  0  0  0
 34 29  1  0  0  0  0
 35 33  2  0  0  0  0
 36 32  1  0  0  0  0
 37 36  1  0  0  0  0
 38 37  1  0  0  0  0
 38 39  1  0  0  0  0
 39 41  1  0  0  0  0
 41 40  1  0  0  0  0
 42 43  1  0  0  0  0
 43 23  1  0  0  0  0
 44  3  1  0  0  0  0
 45 44  1  0  0  0  0
 46 45  2  0  0  0  0
 47 46  1  0  0  0  0
 48 49  2  0  0  0  0
 48 50  1  0  0  0  0
 50 47  1  0  0  0  0
 51 57  1  0  0  0  0
 52 57  1  0  0  0  0
 54 51  1  0  0  0  0
 54 53  1  1  0  0  0
 55 56  1  0  0  0  0
 55 52  1  0  0  0  0
 56 54  1  0  0  0  0
 57 48  1  1  0  0  0
M  END
>  <MODEL>
8

>  <REMARK>
 VINA RESULT:      -5.5      3.229      9.820
  Name = 
  26 active torsions:
  status: ('A' for Active; 'I' for Inactive)
    1  A    between atoms: C_1  and  C_14
    2  A    between atoms: C_2  and  C_38
    3  A    between atoms: C_2  and  C_51
    4  A    between atoms: C_3  and  N_45
    5  A    between atoms: C_4  and  C_39
    6  A    between atoms: C_7  and  C_15
    7  A    between atoms: C_8  and  C_40
    8  A    between atoms: C_8  and  C_47
    9  A    between atoms: C_9  and  C_43
   10  A    between atoms: N_10  and  N_13
   11  A    between atoms: N_10  and  N_33
   12  A    between atoms: C_11  and  C_18
   13  A    between atoms: C_11  and  C_23
   14  A    between atoms: N_13  and  C_23
   15  A    between atoms: C_14  and  C_52
   16  A    between atoms: C_15  and  N_33
   17  A    between atoms: C_18  and  C_19
   18  A    between atoms: C_22  and  C_56
   19  A    between atoms: C_23  and  C_31
   20  A    between atoms: S_24  and  C_37
   21  A    between atoms: S_24  and  C_40
   22  A    between atoms: C_28  and  N_45
   23  A    between atoms: C_34  and  C_39
   24  A    between atoms: C_34  and  N_53
   25  A    between atoms: C_35  and  C_47
   26  A    between atoms: N_36  and  C_43
                            x       y       z     vdW  Elec       q    Type
                         _______ _______ _______ _____ _____    ______ ____

>  <TORSDO>
F 26

$$$$
=
 OpenBabel10222417333D

 57 60  0  0  1  0  0  0  0  0999 V2000
  185.0430  178.9800  141.5150 C   0  0  0  0  0  0  0  0  0  0  0  0
  183.5540  178.4460  139.7290 C   0  0  0  0  0  0  0  0  0  0  0  0
  183.9600  179.0170  142.4240 C   0  0  0  0  0  0  0  0  0  0  0  0
  182.6760  178.7470  141.9460 C   0  0  0  0  0  3  0  0  0  0  0  0
  184.8040  178.6800  140.2060 N   0  0  0  0  0  0  0  0  0  0  0  0
  182.4640  178.4680  140.5950 C   0  0  0  0  0  3  0  0  0  0  0  0
  183.3460  178.1510  138.2810 C   0  0  0  0  0  2  0  0  0  0  0  0
  183.8830  176.8350  137.9580 N   0  0  0  0  0  2  0  0  0  0  0  0
  184.0650  176.7870  136.5690 N   0  0  0  0  0  2  0  0  0  0  0  0
  185.2920  176.1500  136.3420 N   0  0  0  0  0  2  0  0  0  0  0  0
  185.0130  174.9730  135.5310 C   0  0  2  0  0  3  0  0  0  0  0  0
  184.7890  173.8980  137.6620 O   0  0  0  0  0  1  0  0  0  0  0  0
  184.6710  173.8120  136.4100 C   0  0  0  0  0  0  0  0  0  0  0  0
  184.2430  172.6200  135.8380 O   0  0  0  0  0  0  0  0  0  0  0  0
  186.2190  174.6670  134.6510 C   0  0  0  0  0  2  0  0  0  0  0  0
  187.3160  173.9340  135.4190 C   0  0  2  0  0  3  0  0  0  0  0  0
  188.3670  174.8010  135.6770 F   0  0  0  0  0  0  0  0  0  0  0  0
  187.8210  172.6930  134.6810 C   0  0  0  0  0  2  0  0  0  0  0  0
  188.5510  171.7370  135.6130 C   0  0  0  0  0  1  0  0  0  0  0  0
  186.4630  179.1060  141.9860 C   0  0  0  0  0  2  0  0  0  0  0  0
  188.1260  177.4180  141.7410 O   0  0  0  0  0  0  0  0  0  0  0  0
  187.3960  178.2730  141.1710 C   0  0  0  0  0  0  0  0  0  0  0  0
  188.3530  178.0230  138.9140 C   0  0  0  0  0  0  0  0  0  0  0  0
  187.4970  178.5290  139.7610 N   0  0  0  0  0  0  0  0  0  0  0  0
  190.3130  176.7150  138.1980 C   0  0  1  0  0  3  0  0  0  0  0  0
  190.4660  177.5370  140.0780 N   0  0  0  0  0  2  0  0  0  0  0  0
  189.3570  176.9640  139.3220 C   0  0  1  0  0  3  0  0  0  0  0  0
  191.3630  177.3090  139.0160 N   0  0  0  0  0  2  0  0  0  0  0  0
  190.5720  175.2240  138.0460 C   0  0  0  0  0  2  0  0  0  0  0  0
  193.2320  175.7400  135.4030 C   0  0  0  0  0  3  0  0  0  0  0  0
  192.0970  175.9320  136.1980 C   0  0  0  0  0  3  0  0  0  0  0  0
  194.0350  174.6090  135.5900 C   0  0  0  0  0  0  0  0  0  0  0  0
  192.5660  173.8590  137.3650 C   0  0  0  0  0  3  0  0  0  0  0  0
  191.7620  174.9920  137.1790 C   0  0  0  0  0  0  0  0  0  0  0  0
  193.7020  173.6690  136.5730 C   0  0  0  0  0  3  0  0  0  0  0  0
  195.5130  174.3910  134.6090 S   0  0  0  0  0  0  0  0  0  0  0  0
  195.7920  172.7060  135.2380 C   0  0  0  0  0  2  0  0  0  0  0  0
  197.2800  172.4500  135.3200 C   0  0  0  0  0  2  0  0  0  0  0  0
  197.6370  171.9770  136.7180 C   0  0  0  0  0  2  0  0  0  0  0  0
  197.9390  174.0590  138.0280 C   0  0  0  0  0  1  0  0  0  0  0  0
  197.0050  172.8980  137.7400 C   0  0  0  0  0  2  0  0  0  0  0  0
  189.0080  179.6830  137.2920 N   0  0  0  0  0  1  0  0  0  0  0  0
  188.2550  178.4540  137.4840 C   0  0  0  0  0  2  0  0  0  0  0  0
  184.1140  179.2770  143.8250 N   0  0  0  0  0  2  0  0  0  0  0  0
  183.9200  178.3060  144.8550 C   0  0  0  0  0  3  0  0  0  0  0  0
  184.7210  178.2470  145.9130 C   0  0  0  0  0  3  0  0  0  0  0  0
  185.8660  179.1920  146.1160 C   0  0  0  0  0  2  0  0  0  0  0  0
  187.8820  177.7500  146.6900 C   0  0  0  0  0  0  0  0  0  0  0  0
  187.4530  177.5630  147.8620 O   0  0  0  0  0  0  0  0  0  0  0  0
  187.1300  178.5480  145.7700 N   0  0  0  0  0  2  0  0  0  0  0  0
  189.7380  177.6850  144.9730 C   0  0  0  0  0  2  0  0  0  0  0  0
  190.1940  176.9710  147.3510 C   0  0  0  0  0  2  0  0  0  0  0  0
  190.3520  175.8970  143.3370 C   0  0  0  0  0  1  0  0  0  0  0  0
  190.8830  176.8230  144.4140 C   0  0  2  0  0  3  0  0  0  0  0  0
  191.6190  176.7290  146.8290 C   0  0  0  0  0  2  0  0  0  0  0  0
  191.6070  175.9960  145.4870 C   0  0  0  0  0  2  0  0  0  0  0  0
  189.1380  177.0550  146.2340 C   0  0  1  0  0  3  0  0  0  0  0  0
  1 20  1  0  0  0  0
  1  3  1  0  0  0  0
  2  5  1  0  0  0  0
  2  6  2  0  0  0  0
  3 44  1  0  0  0  0
  4  3  2  0  0  0  0
  5  1  2  0  0  0  0
  6  4  1  0  0  0  0
  7  2  1  0  0  0  0
  8  7  1  0  0  0  0
  9  8  1  0  0  0  0
 10  9  1  0  0  0  0
 11 15  1  1  0  0  0
 11 10  1  0  0  0  0
 11 13  1  0  0  0  0
 13 12  1  0  0  0  0
 14 13  2  0  0  0  0
 15 16  1  0  0  0  0
 16 17  1  6  0  0  0
 18 16  1  0  0  0  0
 18 19  1  0  0  0  0
 22 21  2  0  0  0  0
 22 20  1  0  0  0  0
 23 24  2  0  0  0  0
 24 22  1  0  0  0  0
 25 29  1  1  0  0  0
 25 28  1  0  0  0  0
 25 27  1  0  0  0  0
 27 23  1  6  0  0  0
 27 26  1  0  0  0  0
 28 26  1  0  0  0  0
 30 32  2  0  0  0  0
 30 31  1  0  0  0  0
 31 34  2  0  0  0  0
 32 35  1  0  0  0  0
 34 33  1  0  0  0  0
 34 29  1  0  0  0  0
 35 33  2  0  0  0  0
 36 37  1  0  0  0  0
 36 32  1  0  0  0  0
 37 38  1  0  0  0  0
 38 39  1  0  0  0  0
 39 41  1  0  0  0  0
 41 40  1  0  0  0  0
 42 43  1  0  0  0  0
 43 23  1  0  0  0  0
 44 45  1  0  0  0  0
 45 46  2  0  0  0  0
 46 47  1  0  0  0  0
 48 49  2  0  0  0  0
 50 47  1  0  0  0  0
 50 48  1  0  0  0  0
 51 57  1  0  0  0  0
 54 53  1  6  0  0  0
 54 51  1  0  0  0  0
 54 56  1  0  0  0  0
 55 52  1  0  0  0  0
 56 55  1  0  0  0  0
 57 48  1  1  0  0  0
 57 52  1  0  0  0  0
M  END
>  <MODEL>
9

>  <REMARK>
 VINA RESULT:      -5.4      3.045      7.497
  Name = 
  26 active torsions:
  status: ('A' for Active; 'I' for Inactive)
    1  A    between atoms: C_1  and  C_14
    2  A    between atoms: C_2  and  C_38
    3  A    between atoms: C_2  and  C_51
    4  A    between atoms: C_3  and  N_45
    5  A    between atoms: C_4  and  C_39
    6  A    between atoms: C_7  and  C_15
    7  A    between atoms: C_8  and  C_40
    8  A    between atoms: C_8  and  C_47
    9  A    between atoms: C_9  and  C_43
   10  A    between atoms: N_10  and  N_13
   11  A    between atoms: N_10  and  N_33
   12  A    between atoms: C_11  and  C_18
   13  A    between atoms: C_11  and  C_23
   14  A    between atoms: N_13  and  C_23
   15  A    between atoms: C_14  and  C_52
   16  A    between atoms: C_15  and  N_33
   17  A    between atoms: C_18  and  C_19
   18  A    between atoms: C_22  and  C_56
   19  A    between atoms: C_23  and  C_31
   20  A    between atoms: S_24  and  C_37
   21  A    between atoms: S_24  and  C_40
   22  A    between atoms: C_28  and  N_45
   23  A    between atoms: C_34  and  C_39
   24  A    between atoms: C_34  and  N_53
   25  A    between atoms: C_35  and  C_47
   26  A    between atoms: N_36  and  C_43
                            x       y       z     vdW  Elec       q    Type
                         _______ _______ _______ _____ _____    ______ ____

>  <TORSDO>
F 26

$$$$
