=
 OpenBabel10222417263D

 28 32  0  0  1  0  0  0  0  0999 V2000
  183.0980  179.5440  144.0470 C   0  0  0  0  0  2  0  0  0  0  0  0
  185.3570  177.7850  144.6320 C   0  0  1  0  0  3  0  0  0  0  0  0
  184.7390  178.7000  145.6580 C   0  0  0  0  0  0  0  0  0  0  0  0
  191.6910  176.1820  144.3690 C   0  0  0  0  0  3  0  0  0  0  0  0
  189.4520  177.5720  147.6160 C   0  0  0  0  0  0  0  0  0  0  0  0
  187.6230  177.0780  143.8420 O   0  0  0  0  0  0  0  0  0  0  0  0
  188.7580  178.0340  148.7710 N   0  0  0  0  0  1  0  0  0  0  0  0
  183.5590  178.4430  143.0870 C   0  0  2  0  0  3  0  0  0  0  0  0
  191.0910  176.0180  143.1170 C   0  0  0  0  0  3  0  0  0  0  0  0
  183.6810  179.4070  145.3870 N   0  0  0  0  0  0  0  0  0  0  0  0
  185.2930  178.7290  146.9740 N   0  0  0  0  0  0  0  0  0  0  0  0
  189.7360  176.3170  142.9420 C   0  0  0  0  0  3  0  0  0  0  0  0
  186.4900  178.2850  147.2070 C   0  0  0  0  0  3  0  0  0  0  0  0
  185.0630  178.2620  143.2170 C   0  0  0  0  0  2  0  0  0  0  0  0
  187.3530  177.7450  146.1260 C   0  0  0  0  0  0  0  0  0  0  0  0
  191.5180  176.8130  146.6990 C   0  0  0  0  0  3  0  0  0  0  0  0
  190.7720  177.2650  147.7400 N   0  0  0  0  0  0  0  0  0  0  0  0
  189.5700  176.9530  145.2790 C   0  0  0  0  0  0  0  0  0  0  0  0
  190.9350  176.6470  145.4490 C   0  0  0  0  0  0  0  0  0  0  0  0
  188.8010  177.4250  146.3630 C   0  0  0  0  0  0  0  0  0  0  0  0
  188.9760  176.7840  144.0190 C   0  0  0  0  0  0  0  0  0  0  0  0
  186.8260  177.5600  144.8900 C   0  0  0  0  0  0  0  0  0  0  0  0
  183.2160  178.8170  141.6570 C   0  0  0  0  0  2  0  0  0  0  0  0
  184.4090  178.7510  140.8260 N   0  0  0  0  0  2  0  0  0  0  0  0
  184.4090  179.1390  139.4520 C   0  0  0  0  0  0  0  0  0  0  0  0
  185.4720  179.0510  138.7830 O   0  0  0  0  0  0  0  0  0  0  0  0
  183.1630  179.6130  138.7810 C   0  0  0  0  0  2  0  0  0  0  0  0
  183.1110  181.0060  138.8180 O   0  0  0  0  0  1  0  0  0  0  0  0
  1 10  1  0  0  0  0
  2 14  1  6  0  0  0
  2 22  1  0  0  0  0
  2  3  1  0  0  0  0
  3 11  1  0  0  0  0
  4 19  1  0  0  0  0
  5 17  1  0  0  0  0
  5  7  1  0  0  0  0
  6 21  1  0  0  0  0
  6 22  1  0  0  0  0
  8 23  1  6  0  0  0
  8 14  1  0  0  0  0
  8  1  1  0  0  0  0
  9  4  2  0  0  0  0
 10  3  2  0  0  0  0
 11 13  2  0  0  0  0
 12  9  1  0  0  0  0
 12 21  2  0  0  0  0
 15 20  1  0  0  0  0
 15 13  1  0  0  0  0
 16 17  2  0  0  0  0
 18 19  2  0  0  0  0
 18 20  1  0  0  0  0
 19 16  1  0  0  0  0
 20  5  2  0  0  0  0
 21 18  1  0  0  0  0
 22 15  2  0  0  0  0
 24 23  1  0  0  0  0
 25 24  1  0  0  0  0
 26 25  2  0  0  0  0
 27 28  1  0  0  0  0
 27 25  1  0  0  0  0
M  END
>  <MODEL>
1

>  <REMARK>
 VINA RESULT:     -10.7      0.000      0.000
  Name = 
  3 active torsions:
  status: ('A' for Active; 'I' for Inactive)
    1  A    between atoms: C_8  and  C_22
    2  A    between atoms: N_10  and  C_22
    3  A    between atoms: C_11  and  C_24
                            x       y       z     vdW  Elec       q    Type
                         _______ _______ _______ _____ _____    ______ ____

>  <TORSDO>
F 3

$$$$
=
 OpenBabel10222417263D

 28 32  0  0  1  0  0  0  0  0999 V2000
  182.9950  179.5530  143.7890 C   0  0  0  0  0  2  0  0  0  0  0  0
  185.2530  177.8120  144.4280 C   0  0  1  0  0  3  0  0  0  0  0  0
  184.5820  178.6970  145.4470 C   0  0  0  0  0  0  0  0  0  0  0  0
  191.6140  176.2970  144.3830 C   0  0  0  0  0  3  0  0  0  0  0  0
  189.2300  177.5900  147.5660 C   0  0  0  0  0  0  0  0  0  0  0  0
  187.5590  177.1520  143.7140 O   0  0  0  0  0  0  0  0  0  0  0  0
  188.4850  178.0180  148.7020 N   0  0  0  0  0  1  0  0  0  0  0  0
  183.5090  178.4790  142.8260 C   0  0  2  0  0  3  0  0  0  0  0  0
  191.0660  176.1520  143.1050 C   0  0  0  0  0  3  0  0  0  0  0  0
  183.5260  179.3960  145.1480 N   0  0  0  0  0  0  0  0  0  0  0  0
  185.0840  178.7060  146.7840 N   0  0  0  0  0  0  0  0  0  0  0  0
  189.7160  176.4380  142.8830 C   0  0  0  0  0  3  0  0  0  0  0  0
  186.2770  178.2720  147.0550 C   0  0  0  0  0  3  0  0  0  0  0  0
  185.0090  178.3150  143.0120 C   0  0  0  0  0  2  0  0  0  0  0  0
  187.1890  177.7660  145.9990 C   0  0  0  0  0  0  0  0  0  0  0  0
  191.3410  176.8770  146.7170 C   0  0  0  0  0  3  0  0  0  0  0  0
  190.5490  177.2970  147.7360 N   0  0  0  0  0  0  0  0  0  0  0  0
  189.4480  177.0220  145.2240 C   0  0  0  0  0  0  0  0  0  0  0  0
  190.8100  176.7300  145.4410 C   0  0  0  0  0  0  0  0  0  0  0  0
  188.6310  177.4610  146.2860 C   0  0  0  0  0  0  0  0  0  0  0  0
  188.9070  176.8710  143.9380 C   0  0  0  0  0  0  0  0  0  0  0  0
  186.7140  177.6010  144.7390 C   0  0  0  0  0  0  0  0  0  0  0  0
  183.2170  178.8790  141.3920 C   0  0  0  0  0  2  0  0  0  0  0  0
  182.5930  177.7710  140.6840 N   0  0  0  0  0  2  0  0  0  0  0  0
  181.1780  177.5790  140.6550 C   0  0  0  0  0  0  0  0  0  0  0  0
  180.6990  176.5960  140.0320 O   0  0  0  0  0  0  0  0  0  0  0  0
  180.2570  178.5020  141.3810 C   0  0  0  0  0  2  0  0  0  0  0  0
  179.7070  177.8450  142.4810 O   0  0  0  0  0  1  0  0  0  0  0  0
  1 10  1  0  0  0  0
  2 14  1  6  0  0  0
  2 22  1  0  0  0  0
  2  3  1  0  0  0  0
  3 11  1  0  0  0  0
  4 19  1  0  0  0  0
  5 17  1  0  0  0  0
  5  7  1  0  0  0  0
  6 21  1  0  0  0  0
  6 22  1  0  0  0  0
  8 23  1  6  0  0  0
  8 14  1  0  0  0  0
  8  1  1  0  0  0  0
  9  4  2  0  0  0  0
 10  3  2  0  0  0  0
 11 13  2  0  0  0  0
 12  9  1  0  0  0  0
 12 21  2  0  0  0  0
 15 20  1  0  0  0  0
 15 13  1  0  0  0  0
 16 17  2  0  0  0  0
 18 19  2  0  0  0  0
 18 20  1  0  0  0  0
 19 16  1  0  0  0  0
 20  5  2  0  0  0  0
 21 18  1  0  0  0  0
 22 15  2  0  0  0  0
 24 23  1  0  0  0  0
 25 24  1  0  0  0  0
 25 27  1  0  0  0  0
 26 25  2  0  0  0  0
 27 28  1  0  0  0  0
M  END
>  <MODEL>
2

>  <REMARK>
 VINA RESULT:     -10.2      1.719      1.904
  Name = 
  3 active torsions:
  status: ('A' for Active; 'I' for Inactive)
    1  A    between atoms: C_8  and  C_22
    2  A    between atoms: N_10  and  C_22
    3  A    between atoms: C_11  and  C_24
                            x       y       z     vdW  Elec       q    Type
                         _______ _______ _______ _____ _____    ______ ____

>  <TORSDO>
F 3

$$$$
=
 OpenBabel10222417263D

 28 32  0  0  1  0  0  0  0  0999 V2000
  188.3250  178.3100  138.9560 C   0  0  0  0  0  2  0  0  0  0  0  0
  188.5020  177.1220  141.6200 C   0  0  1  0  0  3  0  0  0  0  0  0
  187.3680  178.0200  141.1930 C   0  0  0  0  0  0  0  0  0  0  0  0
  190.9360  176.7860  147.6800 C   0  0  0  0  0  3  0  0  0  0  0  0
  187.1750  178.1060  146.4150 C   0  0  0  0  0  0  0  0  0  0  0  0
  190.0150  176.7840  143.5840 O   0  0  0  0  0  0  0  0  0  0  0  0
  185.8720  178.5640  146.0670 N   0  0  0  0  0  1  0  0  0  0  0  0
  189.3310  177.2090  139.3060 C   0  0  2  0  0  3  0  0  0  0  0  0
  191.8810  176.3480  146.7470 C   0  0  0  0  0  3  0  0  0  0  0  0
  187.2780  178.4630  139.9720 N   0  0  0  0  0  0  0  0  0  0  0  0
  186.3410  178.3250  142.1360 N   0  0  0  0  0  0  0  0  0  0  0  0
  191.5740  176.3490  145.3830 C   0  0  0  0  0  3  0  0  0  0  0  0
  186.5310  178.1590  143.4100 C   0  0  0  0  0  3  0  0  0  0  0  0
  189.7400  177.3480  140.7640 C   0  0  0  0  0  2  0  0  0  0  0  0
  187.8210  177.6690  143.9560 C   0  0  0  0  0  0  0  0  0  0  0  0
  188.7320  177.6610  148.1650 C   0  0  0  0  0  3  0  0  0  0  0  0
  187.5170  178.0840  147.7330 N   0  0  0  0  0  0  0  0  0  0  0  0
  189.3660  177.2310  145.8750 C   0  0  0  0  0  0  0  0  0  0  0  0
  189.6810  177.2250  147.2480 C   0  0  0  0  0  0  0  0  0  0  0  0
  188.1030  177.6750  145.4310 C   0  0  0  0  0  0  0  0  0  0  0  0
  190.3210  176.7880  144.9460 C   0  0  0  0  0  0  0  0  0  0  0  0
  188.7760  177.2270  143.1000 C   0  0  0  0  0  0  0  0  0  0  0  0
  190.5600  177.3230  138.4230 C   0  0  0  0  0  2  0  0  0  0  0  0
  191.7650  177.2710  139.2380 N   0  0  0  0  0  2  0  0  0  0  0  0
  193.0000  176.7480  138.7480 C   0  0  0  0  0  0  0  0  0  0  0  0
  194.0050  176.7220  139.5060 O   0  0  0  0  0  0  0  0  0  0  0  0
  193.1140  176.1980  137.3660 C   0  0  0  0  0  2  0  0  0  0  0  0
  194.1720  176.8160  136.7010 O   0  0  0  0  0  1  0  0  0  0  0  0
  1  8  1  0  0  0  0
  1 10  1  0  0  0  0
  2 14  1  6  0  0  0
  2 22  1  0  0  0  0
  3  2  1  0  0  0  0
  3 11  1  0  0  0  0
  5 17  1  0  0  0  0
  6 21  1  0  0  0  0
  7  5  1  0  0  0  0
  8 23  1  6  0  0  0
  8 14  1  0  0  0  0
  9  4  2  0  0  0  0
 10  3  2  0  0  0  0
 11 13  2  0  0  0  0
 12  9  1  0  0  0  0
 13 15  1  0  0  0  0
 15 20  1  0  0  0  0
 17 16  2  0  0  0  0
 18 19  2  0  0  0  0
 19  4  1  0  0  0  0
 19 16  1  0  0  0  0
 20 18  1  0  0  0  0
 20  5  2  0  0  0  0
 21 12  2  0  0  0  0
 21 18  1  0  0  0  0
 22  6  1  0  0  0  0
 22 15  2  0  0  0  0
 23 24  1  0  0  0  0
 25 24  1  0  0  0  0
 25 26  2  0  0  0  0
 27 25  1  0  0  0  0
 28 27  1  0  0  0  0
M  END
>  <MODEL>
3

>  <REMARK>
 VINA RESULT:      -9.8      3.640      5.702
  Name = 
  3 active torsions:
  status: ('A' for Active; 'I' for Inactive)
    1  A    between atoms: C_8  and  C_22
    2  A    between atoms: N_10  and  C_22
    3  A    between atoms: C_11  and  C_24
                            x       y       z     vdW  Elec       q    Type
                         _______ _______ _______ _____ _____    ______ ____

>  <TORSDO>
F 3

$$$$
=
 OpenBabel10222417263D

 28 32  0  0  1  0  0  0  0  0999 V2000
  190.0670  176.7800  138.9780 C   0  0  0  0  0  2  0  0  0  0  0  0
  189.3430  177.9680  141.5480 C   0  0  1  0  0  3  0  0  0  0  0  0
  190.5920  177.1500  141.3420 C   0  0  0  0  0  0  0  0  0  0  0  0
  185.8610  178.1690  147.0790 C   0  0  0  0  0  3  0  0  0  0  0  0
  189.8660  177.1090  146.5180 C   0  0  0  0  0  0  0  0  0  0  0  0
  187.4870  178.2100  143.2090 O   0  0  0  0  0  0  0  0  0  0  0  0
  191.2380  176.7410  146.4120 N   0  0  0  0  0  1  0  0  0  0  0  0
  188.9420  177.8090  139.1260 C   0  0  2  0  0  3  0  0  0  0  0  0
  185.0680  178.5330  145.9860 C   0  0  0  0  0  3  0  0  0  0  0  0
  190.9270  176.7070  140.1650 N   0  0  0  0  0  0  0  0  0  0  0  0
  191.4550  176.9230  142.4570 N   0  0  0  0  0  0  0  0  0  0  0  0
  185.6100  178.5460  144.6970 C   0  0  0  0  0  3  0  0  0  0  0  0
  191.0330  177.0820  143.6750 C   0  0  0  0  0  3  0  0  0  0  0  0
  188.2940  177.6510  140.4910 C   0  0  0  0  0  2  0  0  0  0  0  0
  189.6360  177.4850  143.9760 C   0  0  0  0  0  0  0  0  0  0  0  0
  187.9980  177.4530  147.9590 C   0  0  0  0  0  3  0  0  0  0  0  0
  189.2960  177.1140  147.7540 N   0  0  0  0  0  0  0  0  0  0  0  0
  187.7510  177.8240  145.5850 C   0  0  0  0  0  0  0  0  0  0  0  0
  187.1990  177.8160  146.8820 C   0  0  0  0  0  0  0  0  0  0  0  0
  189.1000  177.4670  145.3790 C   0  0  0  0  0  0  0  0  0  0  0  0
  186.9470  178.1930  144.4950 C   0  0  0  0  0  0  0  0  0  0  0  0
  188.8200  177.8530  142.9580 C   0  0  0  0  0  0  0  0  0  0  0  0
  187.8990  177.6040  138.0430 C   0  0  0  0  0  2  0  0  0  0  0  0
  186.6750  178.3080  138.3920 N   0  0  0  0  0  2  0  0  0  0  0  0
  185.3840  177.8510  137.9870 C   0  0  0  0  0  0  0  0  0  0  0  0
  184.3630  178.5100  138.3140 O   0  0  0  0  0  0  0  0  0  0  0  0
  185.2250  176.6240  137.1520 C   0  0  0  0  0  2  0  0  0  0  0  0
  185.1570  176.9790  135.8060 O   0  0  0  0  0  1  0  0  0  0  0  0
  1  8  1  0  0  0  0
  1 10  1  0  0  0  0
  2 14  1  6  0  0  0
  2 22  1  0  0  0  0
  3  2  1  0  0  0  0
  3 11  1  0  0  0  0
  5 17  1  0  0  0  0
  6 21  1  0  0  0  0
  7  5  1  0  0  0  0
  8 23  1  6  0  0  0
  8 14  1  0  0  0  0
  9  4  2  0  0  0  0
 10  3  2  0  0  0  0
 11 13  2  0  0  0  0
 12  9  1  0  0  0  0
 13 15  1  0  0  0  0
 15 20  1  0  0  0  0
 17 16  2  0  0  0  0
 18 19  2  0  0  0  0
 19  4  1  0  0  0  0
 19 16  1  0  0  0  0
 20 18  1  0  0  0  0
 20  5  2  0  0  0  0
 21 12  2  0  0  0  0
 21 18  1  0  0  0  0
 22  6  1  0  0  0  0
 22 15  2  0  0  0  0
 23 24  1  0  0  0  0
 25 26  2  0  0  0  0
 25 24  1  0  0  0  0
 27 25  1  0  0  0  0
 28 27  1  0  0  0  0
M  END
>  <MODEL>
4

>  <REMARK>
 VINA RESULT:      -9.7      2.708      5.035
  Name = 
  3 active torsions:
  status: ('A' for Active; 'I' for Inactive)
    1  A    between atoms: C_8  and  C_22
    2  A    between atoms: N_10  and  C_22
    3  A    between atoms: C_11  and  C_24
                            x       y       z     vdW  Elec       q    Type
                         _______ _______ _______ _____ _____    ______ ____

>  <TORSDO>
F 3

$$$$
=
 OpenBabel10222417263D

 28 32  0  0  1  0  0  0  0  0999 V2000
  189.7740  178.0710  138.8080 C   0  0  0  0  0  2  0  0  0  0  0  0
  188.5290  177.2610  141.3250 C   0  0  1  0  0  3  0  0  0  0  0  0
  187.8430  178.1460  140.3140 C   0  0  0  0  0  0  0  0  0  0  0  0
  187.7340  177.6540  147.8030 C   0  0  0  0  0  3  0  0  0  0  0  0
  185.2020  178.9720  144.7480 C   0  0  0  0  0  0  0  0  0  0  0  0
  188.8780  177.1250  143.7980 O   0  0  0  0  0  0  0  0  0  0  0  0
  184.2820  179.4420  143.7670 N   0  0  0  0  0  1  0  0  0  0  0  0
  190.3620  176.9810  139.7090 C   0  0  2  0  0  3  0  0  0  0  0  0
  188.9540  177.0430  147.4940 C   0  0  0  0  0  3  0  0  0  0  0  0
  188.3940  178.4180  139.1670 N   0  0  0  0  0  0  0  0  0  0  0  0
  186.5320  178.6310  140.6050 N   0  0  0  0  0  0  0  0  0  0  0  0
  189.3340  176.8680  146.1600 C   0  0  0  0  0  3  0  0  0  0  0  0
  186.0740  178.6360  141.8200 C   0  0  0  0  0  3  0  0  0  0  0  0
  190.0410  177.3010  141.1600 C   0  0  0  0  0  2  0  0  0  0  0  0
  186.8850  178.1620  142.9690 C   0  0  0  0  0  0  0  0  0  0  0  0
  185.6790  178.6980  147.0680 C   0  0  0  0  0  3  0  0  0  0  0  0
  184.8710  179.1170  146.0610 N   0  0  0  0  0  0  0  0  0  0  0  0
  187.2720  177.9210  145.4290 C   0  0  0  0  0  0  0  0  0  0  0  0
  186.8940  178.0910  146.7750 C   0  0  0  0  0  0  0  0  0  0  0  0
  186.4310  178.3610  144.3860 C   0  0  0  0  0  0  0  0  0  0  0  0
  188.4980  177.3050  145.1290 C   0  0  0  0  0  0  0  0  0  0  0  0
  188.0760  177.5580  142.7320 C   0  0  0  0  0  0  0  0  0  0  0  0
  191.8670  176.9080  139.5280 C   0  0  0  0  0  2  0  0  0  0  0  0
  192.2040  177.0220  138.1160 N   0  0  0  0  0  2  0  0  0  0  0  0
  193.0780  176.1040  137.4600 C   0  0  0  0  0  0  0  0  0  0  0  0
  193.3370  176.2620  136.2380 O   0  0  0  0  0  0  0  0  0  0  0  0
  193.7200  174.9800  138.2020 C   0  0  0  0  0  2  0  0  0  0  0  0
  195.0430  175.3080  138.4960 O   0  0  0  0  0  1  0  0  0  0  0  0
  1 10  1  0  0  0  0
  1  8  1  0  0  0  0
  2 14  1  1  0  0  0
  2 22  1  0  0  0  0
  3 11  1  0  0  0  0
  3  2  1  0  0  0  0
  5 17  1  0  0  0  0
  6 21  1  0  0  0  0
  7  5  1  0  0  0  0
  8 23  1  1  0  0  0
  8 14  1  0  0  0  0
  9  4  1  0  0  0  0
 10  3  2  0  0  0  0
 11 13  2  0  0  0  0
 12  9  2  0  0  0  0
 13 15  1  0  0  0  0
 15 20  1  0  0  0  0
 17 16  2  0  0  0  0
 18 19  1  0  0  0  0
 19 16  1  0  0  0  0
 19  4  2  0  0  0  0
 20  5  2  0  0  0  0
 20 18  1  0  0  0  0
 21 18  2  0  0  0  0
 21 12  1  0  0  0  0
 22 15  2  0  0  0  0
 22  6  1  0  0  0  0
 24 23  1  0  0  0  0
 25 24  1  0  0  0  0
 25 27  1  0  0  0  0
 26 25  2  0  0  0  0
 27 28  1  0  0  0  0
M  END
>  <MODEL>
5

>  <REMARK>
 VINA RESULT:      -9.6      3.863      6.708
  Name = 
  3 active torsions:
  status: ('A' for Active; 'I' for Inactive)
    1  A    between atoms: C_8  and  C_22
    2  A    between atoms: N_10  and  C_22
    3  A    between atoms: C_11  and  C_24
                            x       y       z     vdW  Elec       q    Type
                         _______ _______ _______ _____ _____    ______ ____

>  <TORSDO>
F 3

$$$$
=
 OpenBabel10222417263D

 28 32  0  0  1  0  0  0  0  0999 V2000
  183.6690  178.2130  139.2870 C   0  0  0  0  0  2  0  0  0  0  0  0
  185.5970  178.7710  141.4110 C   0  0  1  0  0  3  0  0  0  0  0  0
  186.0020  178.4640  139.9910 C   0  0  0  0  0  0  0  0  0  0  0  0
  189.0250  177.1140  146.7270 C   0  0  0  0  0  3  0  0  0  0  0  0
  190.3310  177.5750  142.7810 C   0  0  0  0  0  0  0  0  0  0  0  0
  186.2630  178.1630  143.7450 O   0  0  0  0  0  0  0  0  0  0  0  0
  190.8560  177.7190  141.4650 N   0  0  0  0  0  1  0  0  0  0  0  0
  183.2560  178.7660  140.6550 C   0  0  2  0  0  3  0  0  0  0  0  0
  187.6790  177.3060  147.0510 C   0  0  0  0  0  3  0  0  0  0  0  0
  185.1140  178.3040  139.0530 N   0  0  0  0  0  0  0  0  0  0  0  0
  187.3920  178.4220  139.6680 N   0  0  0  0  0  0  0  0  0  0  0  0
  186.7590  177.6550  146.0570 C   0  0  0  0  0  3  0  0  0  0  0  0
  188.2910  178.2830  140.5940 C   0  0  0  0  0  3  0  0  0  0  0  0
  184.2060  178.2360  141.7170 C   0  0  0  0  0  2  0  0  0  0  0  0
  187.9300  178.1410  142.0260 C   0  0  0  0  0  0  0  0  0  0  0  0
  190.7880  177.0840  145.0690 C   0  0  0  0  0  3  0  0  0  0  0  0
  191.1910  177.2400  143.7820 N   0  0  0  0  0  0  0  0  0  0  0  0
  188.5310  177.6190  144.3980 C   0  0  0  0  0  0  0  0  0  0  0  0
  189.4530  177.2700  145.4050 C   0  0  0  0  0  0  0  0  0  0  0  0
  188.9550  177.7770  143.0620 C   0  0  0  0  0  0  0  0  0  0  0  0
  187.1820  177.8110  144.7340 C   0  0  0  0  0  0  0  0  0  0  0  0
  186.6390  178.3190  142.4030 C   0  0  0  0  0  0  0  0  0  0  0  0
  181.8380  178.3400  140.9860 C   0  0  0  0  0  2  0  0  0  0  0  0
  181.0420  179.5020  141.3520 N   0  0  0  0  0  2  0  0  0  0  0  0
  180.5460  179.7060  142.6750 C   0  0  0  0  0  0  0  0  0  0  0  0
  179.8560  180.7280  142.9270 O   0  0  0  0  0  0  0  0  0  0  0  0
  180.8000  178.7120  143.7590 C   0  0  0  0  0  2  0  0  0  0  0  0
  179.7190  177.8380  143.8560 O   0  0  0  0  0  1  0  0  0  0  0  0
  1  8  1  0  0  0  0
  2 14  1  1  0  0  0
  2 22  1  0  0  0  0
  3  2  1  0  0  0  0
  4  9  1  0  0  0  0
  5 20  2  0  0  0  0
  5 17  1  0  0  0  0
  6 21  1  0  0  0  0
  7  5  1  0  0  0  0
  8 23  1  1  0  0  0
  8 14  1  0  0  0  0
 10  1  1  0  0  0  0
 10  3  2  0  0  0  0
 11  3  1  0  0  0  0
 11 13  2  0  0  0  0
 12  9  2  0  0  0  0
 13 15  1  0  0  0  0
 15 22  2  0  0  0  0
 15 20  1  0  0  0  0
 16 19  1  0  0  0  0
 17 16  2  0  0  0  0
 18 21  2  0  0  0  0
 18 19  1  0  0  0  0
 19  4  2  0  0  0  0
 20 18  1  0  0  0  0
 21 12  1  0  0  0  0
 22  6  1  0  0  0  0
 23 24  1  0  0  0  0
 24 25  1  0  0  0  0
 25 26  2  0  0  0  0
 25 27  1  0  0  0  0
 27 28  1  0  0  0  0
M  END
>  <MODEL>
6

>  <REMARK>
 VINA RESULT:      -9.6      2.796      4.663
  Name = 
  3 active torsions:
  status: ('A' for Active; 'I' for Inactive)
    1  A    between atoms: C_8  and  C_22
    2  A    between atoms: N_10  and  C_22
    3  A    between atoms: C_11  and  C_24
                            x       y       z     vdW  Elec       q    Type
                         _______ _______ _______ _____ _____    ______ ____

>  <TORSDO>
F 3

$$$$
=
 OpenBabel10222417263D

 28 32  0  0  1  0  0  0  0  0999 V2000
  190.5500  176.3750  139.2010 C   0  0  0  0  0  2  0  0  0  0  0  0
  189.0070  177.8900  141.1670 C   0  0  1  0  0  3  0  0  0  0  0  0
  190.1880  177.0280  141.5340 C   0  0  0  0  0  0  0  0  0  0  0  0
  183.7490  178.8500  144.9340 C   0  0  0  0  0  3  0  0  0  0  0  0
  187.6010  177.6490  146.0330 C   0  0  0  0  0  0  0  0  0  0  0  0
  186.6890  178.3750  141.9750 O   0  0  0  0  0  0  0  0  0  0  0  0
  188.8880  177.2440  146.4890 N   0  0  0  0  0  1  0  0  0  0  0  0
  189.5200  177.4370  138.8040 C   0  0  2  0  0  3  0  0  0  0  0  0
  183.4410  179.0900  143.5910 C   0  0  0  0  0  3  0  0  0  0  0  0
  190.9040  176.4340  140.6240 N   0  0  0  0  0  0  0  0  0  0  0  0
  190.5610  176.9250  142.9090 N   0  0  0  0  0  0  0  0  0  0  0  0
  184.4210  178.9310  142.6060 C   0  0  0  0  0  3  0  0  0  0  0  0
  189.7300  177.2440  143.8540 C   0  0  0  0  0  3  0  0  0  0  0  0
  188.4040  177.4640  139.8360 C   0  0  0  0  0  2  0  0  0  0  0  0
  188.3500  177.7090  143.5660 C   0  0  0  0  0  0  0  0  0  0  0  0
  185.3590  178.2080  146.6230 C   0  0  0  0  0  3  0  0  0  0  0  0
  186.6160  177.8200  146.9580 N   0  0  0  0  0  0  0  0  0  0  0  0
  186.0310  178.2840  144.3050 C   0  0  0  0  0  0  0  0  0  0  0  0
  185.0390  178.4490  145.2920 C   0  0  0  0  0  0  0  0  0  0  0  0
  187.3340  177.8780  144.6580 C   0  0  0  0  0  0  0  0  0  0  0  0
  185.7120  178.5290  142.9600 C   0  0  0  0  0  0  0  0  0  0  0  0
  187.9940  177.9620  142.2820 C   0  0  0  0  0  0  0  0  0  0  0  0
  188.9390  177.1180  137.4380 C   0  0  0  0  0  2  0  0  0  0  0  0
  187.7830  176.2460  137.5810 N   0  0  0  0  0  2  0  0  0  0  0  0
  187.7780  174.8950  137.1190 C   0  0  0  0  0  0  0  0  0  0  0  0
  186.7430  174.1950  137.2650 O   0  0  0  0  0  0  0  0  0  0  0  0
  188.9670  174.3070  136.4350 C   0  0  0  0  0  2  0  0  0  0  0  0
  189.7280  173.5860  137.3540 O   0  0  0  0  0  1  0  0  0  0  0  0
  1 10  1  0  0  0  0
  2 14  1  6  0  0  0
  2  3  1  0  0  0  0
  2 22  1  0  0  0  0
  3 11  1  0  0  0  0
  4 19  1  0  0  0  0
  5  7  1  0  0  0  0
  5 17  1  0  0  0  0
  6 22  1  0  0  0  0
  6 21  1  0  0  0  0
  8 23  1  6  0  0  0
  8  1  1  0  0  0  0
  8 14  1  0  0  0  0
  9  4  2  0  0  0  0
 10  3  2  0  0  0  0
 11 13  2  0  0  0  0
 12 21  2  0  0  0  0
 12  9  1  0  0  0  0
 15 13  1  0  0  0  0
 15 20  1  0  0  0  0
 16 17  2  0  0  0  0
 18 20  1  0  0  0  0
 18 19  2  0  0  0  0
 19 16  1  0  0  0  0
 20  5  2  0  0  0  0
 21 18  1  0  0  0  0
 22 15  2  0  0  0  0
 23 24  1  0  0  0  0
 25 26  2  0  0  0  0
 25 24  1  0  0  0  0
 27 25  1  0  0  0  0
 27 28  1  0  0  0  0
M  END
>  <MODEL>
7

>  <REMARK>
 VINA RESULT:      -9.5      3.636      6.116
  Name = 
  3 active torsions:
  status: ('A' for Active; 'I' for Inactive)
    1  A    between atoms: C_8  and  C_22
    2  A    between atoms: N_10  and  C_22
    3  A    between atoms: C_11  and  C_24
                            x       y       z     vdW  Elec       q    Type
                         _______ _______ _______ _____ _____    ______ ____

>  <TORSDO>
F 3

$$$$
=
 OpenBabel10222417263D

 28 32  0  0  1  0  0  0  0  0999 V2000
  187.6650  178.4780  139.2250 C   0  0  0  0  0  2  0  0  0  0  0  0
  188.0790  177.2470  141.8430 C   0  0  1  0  0  3  0  0  0  0  0  0
  186.8800  178.1020  141.5150 C   0  0  0  0  0  0  0  0  0  0  0  0
  190.9400  176.9020  147.7120 C   0  0  0  0  0  3  0  0  0  0  0  0
  187.0470  178.0770  146.7390 C   0  0  0  0  0  0  0  0  0  0  0  0
  189.7380  176.9390  143.6900 O   0  0  0  0  0  0  0  0  0  0  0  0
  185.7050  178.4830  146.4910 N   0  0  0  0  0  1  0  0  0  0  0  0
  188.7400  177.4170  139.4800 C   0  0  2  0  0  3  0  0  0  0  0  0
  191.8360  176.5260  146.7070 C   0  0  0  0  0  3  0  0  0  0  0  0
  186.6860  178.5640  140.3140 N   0  0  0  0  0  0  0  0  0  0  0  0
  185.9090  178.3420  142.5330 N   0  0  0  0  0  0  0  0  0  0  0  0
  191.4350  176.5400  145.3670 C   0  0  0  0  0  3  0  0  0  0  0  0
  186.1940  178.1600  143.7870 C   0  0  0  0  0  3  0  0  0  0  0  0
  189.2430  177.5450  140.9090 C   0  0  0  0  0  2  0  0  0  0  0  0
  187.5390  177.7170  144.2320 C   0  0  0  0  0  0  0  0  0  0  0  0
  188.7400  177.6680  148.3670 C   0  0  0  0  0  3  0  0  0  0  0  0
  187.4810  178.0450  148.0290 N   0  0  0  0  0  0  0  0  0  0  0  0
  189.2310  177.3120  146.0290 C   0  0  0  0  0  0  0  0  0  0  0  0
  189.6410  177.2940  147.3770 C   0  0  0  0  0  0  0  0  0  0  0  0
  187.9220  177.7070  145.6840 C   0  0  0  0  0  0  0  0  0  0  0  0
  190.1370  176.9310  145.0270 C   0  0  0  0  0  0  0  0  0  0  0  0
  188.4500  177.3360  143.3020 C   0  0  0  0  0  0  0  0  0  0  0  0
  189.8990  177.6030  138.5170 C   0  0  0  0  0  2  0  0  0  0  0  0
  190.8250  176.4860  138.6310 N   0  0  0  0  0  2  0  0  0  0  0  0
  190.8130  175.3840  137.7230 C   0  0  0  0  0  0  0  0  0  0  0  0
  191.6350  174.4440  137.8800 O   0  0  0  0  0  0  0  0  0  0  0  0
  189.8210  175.3080  136.6120 C   0  0  0  0  0  2  0  0  0  0  0  0
  188.6620  174.6750  137.0600 O   0  0  0  0  0  1  0  0  0  0  0  0
  1  8  1  0  0  0  0
  1 10  1  0  0  0  0
  2 14  1  6  0  0  0
  2 22  1  0  0  0  0
  3  2  1  0  0  0  0
  3 11  1  0  0  0  0
  5 17  1  0  0  0  0
  6 21  1  0  0  0  0
  7  5  1  0  0  0  0
  8 23  1  6  0  0  0
  8 14  1  0  0  0  0
  9  4  2  0  0  0  0
 10  3  2  0  0  0  0
 11 13  2  0  0  0  0
 12  9  1  0  0  0  0
 13 15  1  0  0  0  0
 15 20  1  0  0  0  0
 17 16  2  0  0  0  0
 18 19  2  0  0  0  0
 19  4  1  0  0  0  0
 19 16  1  0  0  0  0
 20 18  1  0  0  0  0
 20  5  2  0  0  0  0
 21 12  2  0  0  0  0
 21 18  1  0  0  0  0
 22  6  1  0  0  0  0
 22 15  2  0  0  0  0
 23 24  1  0  0  0  0
 25 26  2  0  0  0  0
 25 24  1  0  0  0  0
 27 28  1  0  0  0  0
 27 25  1  0  0  0  0
M  END
>  <MODEL>
8

>  <REMARK>
 VINA RESULT:      -9.5      3.286      4.943
  Name = 
  3 active torsions:
  status: ('A' for Active; 'I' for Inactive)
    1  A    between atoms: C_8  and  C_22
    2  A    between atoms: N_10  and  C_22
    3  A    between atoms: C_11  and  C_24
                            x       y       z     vdW  Elec       q    Type
                         _______ _______ _______ _____ _____    ______ ____

>  <TORSDO>
F 3

$$$$
=
 OpenBabel10222417263D

 28 32  0  0  1  0  0  0  0  0999 V2000
  190.9130  176.4580  139.9410 C   0  0  0  0  0  2  0  0  0  0  0  0
  189.1900  177.9540  141.7660 C   0  0  1  0  0  3  0  0  0  0  0  0
  190.3730  177.1430  142.2300 C   0  0  0  0  0  0  0  0  0  0  0  0
  183.6620  178.7950  145.1560 C   0  0  0  0  0  3  0  0  0  0  0  0
  187.4710  177.7590  146.5330 C   0  0  0  0  0  0  0  0  0  0  0  0
  186.8070  178.3690  142.4090 O   0  0  0  0  0  0  0  0  0  0  0  0
  188.7390  177.4100  147.0830 N   0  0  0  0  0  1  0  0  0  0  0  0
  189.8750  177.4730  139.4530 C   0  0  2  0  0  3  0  0  0  0  0  0
  183.4360  178.9970  143.7910 C   0  0  0  0  0  3  0  0  0  0  0  0
  191.1690  176.5580  141.3820 N   0  0  0  0  0  0  0  0  0  0  0  0
  190.6570  177.0820  143.6280 N   0  0  0  0  0  0  0  0  0  0  0  0
  184.4840  178.8540  142.8760 C   0  0  0  0  0  3  0  0  0  0  0  0
  189.7550  177.3890  144.5090 C   0  0  0  0  0  3  0  0  0  0  0  0
  188.6920  177.4790  140.4080 C   0  0  0  0  0  2  0  0  0  0  0  0
  188.3810  177.7960  144.1200 C   0  0  0  0  0  0  0  0  0  0  0  0
  185.1770  178.2470  146.9610 C   0  0  0  0  0  3  0  0  0  0  0  0
  186.4220  177.9120  147.3870 N   0  0  0  0  0  0  0  0  0  0  0  0
  185.9990  178.3010  144.6910 C   0  0  0  0  0  0  0  0  0  0  0  0
  184.9380  178.4490  145.6070 C   0  0  0  0  0  0  0  0  0  0  0  0
  187.2890  177.9500  145.1390 C   0  0  0  0  0  0  0  0  0  0  0  0
  185.7620  178.5070  143.3230 C   0  0  0  0  0  0  0  0  0  0  0  0
  188.1020  178.0110  142.8100 C   0  0  0  0  0  0  0  0  0  0  0  0
  189.3980  177.1050  138.0600 C   0  0  0  0  0  2  0  0  0  0  0  0
  189.0270  178.3070  137.3280 N   0  0  0  0  0  2  0  0  0  0  0  0
  187.6670  178.7000  137.1380 C   0  0  0  0  0  0  0  0  0  0  0  0
  187.4110  179.7470  136.4880 O   0  0  0  0  0  0  0  0  0  0  0  0
  186.5420  177.8740  137.6640 C   0  0  0  0  0  2  0  0  0  0  0  0
  185.9420  178.5290  138.7380 O   0  0  0  0  0  1  0  0  0  0  0  0
  1 10  1  0  0  0  0
  2 14  1  6  0  0  0
  2  3  1  0  0  0  0
  2 22  1  0  0  0  0
  3 11  1  0  0  0  0
  4 19  1  0  0  0  0
  5  7  1  0  0  0  0
  5 17  1  0  0  0  0
  6 22  1  0  0  0  0
  6 21  1  0  0  0  0
  8 23  1  6  0  0  0
  8  1  1  0  0  0  0
  8 14  1  0  0  0  0
  9  4  2  0  0  0  0
 10  3  2  0  0  0  0
 11 13  2  0  0  0  0
 12 21  2  0  0  0  0
 12  9  1  0  0  0  0
 15 13  1  0  0  0  0
 15 20  1  0  0  0  0
 16 17  2  0  0  0  0
 18 20  1  0  0  0  0
 18 19  2  0  0  0  0
 19 16  1  0  0  0  0
 20  5  2  0  0  0  0
 21 18  1  0  0  0  0
 22 15  2  0  0  0  0
 24 23  1  0  0  0  0
 25 24  1  0  0  0  0
 25 27  1  0  0  0  0
 26 25  2  0  0  0  0
 27 28  1  0  0  0  0
M  END
>  <MODEL>
9

>  <REMARK>
 VINA RESULT:      -9.4      2.756      5.505
  Name = 
  3 active torsions:
  status: ('A' for Active; 'I' for Inactive)
    1  A    between atoms: C_8  and  C_22
    2  A    between atoms: N_10  and  C_22
    3  A    between atoms: C_11  and  C_24
                            x       y       z     vdW  Elec       q    Type
                         _______ _______ _______ _____ _____    ______ ____

>  <TORSDO>
F 3

$$$$
