=
 OpenBabel10222420523D

 48 54  0  0  1  0  0  0  0  0999 V2000
  183.3510  178.5090  139.2890 S   0  0  0  0  0  0  0  0  0  0  0  0
  185.9310  178.2220  144.7250 C   0  0  0  0  0  0  0  0  0  0  0  0
  187.3670  178.6310  142.3170 C   0  0  1  0  0  3  0  0  0  0  0  0
  182.9700  178.4970  141.9890 C   0  0  0  0  0  2  0  0  0  0  0  0
  185.3180  178.8680  141.1820 C   0  0  0  0  0  0  0  0  0  0  0  0
  185.3720  178.9890  143.7730 C   0  0  0  0  0  0  0  0  0  0  0  0
  187.5710  178.2420  140.8500 C   0  0  0  0  0  2  0  0  0  0  0  0
  185.9530  178.9380  142.4600 N   0  0  0  0  0  0  0  0  0  0  0  0
  184.3220  180.0010  144.1010 C   0  0  0  0  0  1  0  0  0  0  0  0
  182.0960  177.4650  140.0330 C   0  0  0  0  0  0  0  0  0  0  0  0
  187.7380  177.5340  143.2840 C   0  0  0  0  0  0  0  0  0  0  0  0
  187.0730  177.4070  144.4000 N   0  0  0  0  0  0  0  0  0  0  0  0
  186.3300  178.7240  140.1050 C   0  0  0  0  0  2  0  0  0  0  0  0
  181.9920  177.5750  141.3530 C   0  0  0  0  0  3  0  0  0  0  0  0
  183.9980  178.7380  140.9440 C   0  0  0  0  0  0  0  0  0  0  0  0
  183.4820  175.2880  138.0730 O   0  0  0  0  0  1  0  0  0  0  0  0
  180.1490  178.2690  137.3950 C   0  0  1  0  0  3  0  0  0  0  0  0
  179.3290  177.2330  138.1940 C   0  0  0  0  0  2  0  0  0  0  0  0
  181.4730  177.7140  136.8120 C   0  0  1  0  0  3  0  0  0  0  0  0
  181.4210  176.3410  136.5200 O   0  0  0  0  0  0  0  0  0  0  0  0
  179.3510  178.7630  136.3780 F   0  0  0  0  0  0  0  0  0  0  0  0
  181.8650  178.4310  135.6810 O   0  0  0  0  0  1  0  0  0  0  0  0
  181.2240  176.5960  139.2860 N   0  0  0  0  0  0  0  0  0  0  0  0
  181.8150  175.5590  137.9790 P   0  0  2  0  0  0  0  0  0  0  0  0
  181.0980  174.2300  138.0360 O   0  0  0  0  0  0  0  0  0  0  0  0
  179.8770  176.7650  139.4220 O   0  0  0  0  0  0  0  0  0  0  0  0
  188.9670  176.6990  143.0480 C   0  0  2  0  0  3  0  0  0  0  0  0
  188.5960  175.2950  143.1210 N   0  0  0  0  0  1  0  0  0  0  0  0
  189.8640  178.3120  144.7850 C   0  0  0  0  0  2  0  0  0  0  0  0
  191.5170  178.5840  143.0510 C   0  0  0  0  0  2  0  0  0  0  0  0
  190.6380  179.3580  144.0130 C   0  0  0  0  0  2  0  0  0  0  0  0
  191.4410  177.1800  143.4270 N   0  0  0  0  0  0  0  0  0  0  0  0
  190.1170  177.0050  144.0500 C   0  0  2  0  0  3  0  0  0  0  0  0
  191.6610  176.3670  142.2350 C   0  0  0  0  0  2  0  0  0  0  0  0
  192.7040  177.4350  140.3980 F   0  0  0  0  0  0  0  0  0  0  0  0
  191.4720  177.2100  140.9860 C   0  0  1  0  0  3  0  0  0  0  0  0
  190.6050  176.5160  140.0480 N   0  0  0  0  0  2  0  0  0  0  0  0
  190.6660  177.2410  138.7900 C   0  0  0  0  0  2  0  0  0  0  0  0
  189.7790  176.5530  137.7700 C   0  0  0  0  0  2  0  0  0  0  0  0
  188.7690  177.5340  137.2050 C   0  0  0  0  0  2  0  0  0  0  0  0
  189.0290  178.8680  137.7180 N   0  0  0  0  0  2  0  0  0  0  0  0
  188.1540  179.6990  137.1070 O   0  0  0  0  0  1  0  0  0  0  0  0
  185.3130  178.1970  146.4100 S   0  0  0  0  0  0  0  0  0  0  0  0
  186.9190  178.7200  147.0820 C   0  0  0  0  0  2  0  0  0  0  0  0
  187.4320  177.6830  148.0600 C   0  0  1  0  0  0  0  0  0  0  0  0
  187.8080  178.2690  149.2810 O   0  0  0  0  0  0  0  0  0  0  0  0
  188.5570  176.8490  147.4920 C   0  0  0  0  0  2  0  0  0  0  0  0
  188.8450  178.0520  148.3590 C   0  0  1  0  0  3  0  0  0  0  0  0
  1 10  1  0  0  0  0
  1 15  1  0  0  0  0
  2 43  1  0  0  0  0
  3  7  1  6  0  0  0
  3  8  1  0  0  0  0
  3 11  1  0  0  0  0
  5  8  1  0  0  0  0
  6  9  1  0  0  0  0
  6  2  2  0  0  0  0
  8  6  1  0  0  0  0
 10 14  2  0  0  0  0
 11 12  2  0  0  0  0
 12  2  1  0  0  0  0
 13  7  1  0  0  0  0
 13  5  1  0  0  0  0
 14  4  1  0  0  0  0
 15  5  2  0  0  0  0
 15  4  1  0  0  0  0
 17 21  1  6  0  0  0
 17 18  1  0  0  0  0
 18 26  1  0  0  0  0
 19 22  1  6  0  0  0
 19 17  1  0  0  0  0
 20 19  1  0  0  0  0
 20 24  1  0  0  0  0
 23 26  1  0  0  0  0
 23 10  1  0  0  0  0
 24 25  2  1  0  0  0
 24 16  1  0  0  0  0
 24 23  1  0  0  0  0
 27 28  1  1  0  0  0
 27 11  1  0  0  0  0
 30 32  1  0  0  0  0
 30 31  1  0  0  0  0
 31 29  1  0  0  0  0
 32 33  1  0  0  0  0
 33 27  1  6  0  0  0
 33 29  1  0  0  0  0
 34 32  1  0  0  0  0
 36 35  1  6  0  0  0
 36 34  1  0  0  0  0
 37 36  1  0  0  0  0
 38 37  1  0  0  0  0
 39 38  1  0  0  0  0
 40 41  1  0  0  0  0
 40 39  1  0  0  0  0
 42 41  1  0  0  0  0
 43 44  1  0  0  0  0
 45 44  1  6  0  0  0
 45 48  1  0  0  0  0
 45 46  1  0  0  0  0
 47 45  1  0  0  0  0
 48 47  1  1  0  0  0
 48 46  1  0  0  0  0
M  END
>  <MODEL>
1

>  <REMARK>
 VINA RESULT:      -6.9      0.000      0.000
  Name = 
  13 active torsions:
  status: ('A' for Active; 'I' for Inactive)
    1  A    between atoms: S_1  and  C_7
    2  A    between atoms: S_1  and  C_31
    3  A    between atoms: C_3  and  N_34
    4  A    between atoms: C_3  and  C_35
    5  A    between atoms: C_10  and  C_31
    6  A    between atoms: N_11  and  C_20
    7  A    between atoms: C_20  and  C_35
    8  A    between atoms: C_21  and  C_29
    9  A    between atoms: C_21  and  C_44
   10  A    between atoms: C_27  and  C_32
   11  A    between atoms: C_27  and  N_34
   12  A    between atoms: C_28  and  N_30
   13  A    between atoms: C_32  and  N_41
                            x       y       z     vdW  Elec       q    Type
                         _______ _______ _______ _____ _____    ______ ____

>  <TORSDO>
F 13

$$$$
=
 OpenBabel10222420523D

 48 54  0  0  1  0  0  0  0  0999 V2000
  186.5130  178.5160  141.7420 S   0  0  0  0  0  0  0  0  0  0  0  0
  186.7570  176.9870  135.9200 C   0  0  0  0  0  0  0  0  0  0  0  0
  184.3550  177.6130  137.2870 C   0  0  1  0  0  3  0  0  0  0  0  0
  188.1020  178.0940  139.5660 C   0  0  0  0  0  2  0  0  0  0  0  0
  185.6360  178.2970  139.1410 C   0  0  0  0  0  0  0  0  0  0  0  0
  186.7850  177.9680  136.8380 C   0  0  0  0  0  0  0  0  0  0  0  0
  183.5090  177.4560  138.5530 C   0  0  0  0  0  2  0  0  0  0  0  0
  185.6630  178.0680  137.7300 N   0  0  0  0  0  0  0  0  0  0  0  0
  187.8320  179.0350  136.8110 C   0  0  0  0  0  1  0  0  0  0  0  0
  188.0050  177.5280  141.8730 C   0  0  0  0  0  0  0  0  0  0  0  0
  184.5130  176.3300  136.5090 C   0  0  0  0  0  0  0  0  0  0  0  0
  185.6230  176.1010  135.8620 N   0  0  0  0  0  0  0  0  0  0  0  0
  184.2460  178.2110  139.6550 C   0  0  0  0  0  2  0  0  0  0  0  0
  188.7040  177.4240  140.7490 C   0  0  0  0  0  3  0  0  0  0  0  0
  186.6990  178.3770  139.9650 C   0  0  0  0  0  0  0  0  0  0  0  0
  186.9630  178.8060  144.6620 O   0  0  0  0  0  0  0  0  0  0  0  0
  191.0960  177.6680  143.2230 C   0  0  1  0  0  3  0  0  0  0  0  0
  190.5930  176.2410  143.5290 C   0  0  0  0  0  2  0  0  0  0  0  0
  190.2680  178.7890  143.9010 C   0  0  1  0  0  3  0  0  0  0  0  0
  189.6820  178.3940  145.1140 O   0  0  0  0  0  0  0  0  0  0  0  0
  192.4210  177.7540  143.6120 F   0  0  0  0  0  0  0  0  0  0  0  0
  191.0370  179.9380  144.0910 O   0  0  0  0  0  1  0  0  0  0  0  0
  188.4600  176.9150  143.0940 N   0  0  0  0  0  0  0  0  0  0  0  0
  188.2080  177.6620  144.6790 P   0  0  2  0  0  0  0  0  0  0  0  0
  187.8740  176.5870  145.6880 O   0  0  0  0  0  1  0  0  0  0  0  0
  189.3250  175.8630  143.0030 O   0  0  0  0  0  0  0  0  0  0  0  0
  183.3440  175.3990  136.3390 C   0  0  2  0  0  3  0  0  0  0  0  0
  182.1190  176.1830  136.3530 N   0  0  0  0  0  1  0  0  0  0  0  0
  184.6770  173.7690  137.7500 C   0  0  0  0  0  2  0  0  0  0  0  0
  183.4760  172.2300  136.3360 C   0  0  0  0  0  2  0  0  0  0  0  0
  184.8520  172.5340  136.8960 C   0  0  0  0  0  2  0  0  0  0  0  0
  182.5260  173.0860  137.0300 N   0  0  0  0  0  0  0  0  0  0  0  0
  183.2850  174.2860  137.4250 C   0  0  2  0  0  3  0  0  0  0  0  0
  181.3990  173.3480  136.1410 C   0  0  0  0  0  2  0  0  0  0  0  0
  180.3670  171.9300  137.7300 F   0  0  0  0  0  0  0  0  0  0  0  0
  180.1010  172.9230  136.8050 C   0  0  1  0  0  3  0  0  0  0  0  0
  179.4930  174.0610  137.4740 N   0  0  0  0  0  2  0  0  0  0  0  0
  179.6650  173.8610  138.9030 C   0  0  0  0  0  2  0  0  0  0  0  0
  180.2630  175.1110  139.5190 C   0  0  0  0  0  2  0  0  0  0  0  0
  179.3970  175.5990  140.6650 C   0  0  0  0  0  2  0  0  0  0  0  0
  179.5980  177.0230  140.8680 N   0  0  0  0  0  2  0  0  0  0  0  0
  179.4260  177.2570  142.1900 O   0  0  0  0  0  1  0  0  0  0  0  0
  188.0860  176.7550  134.7360 S   0  0  0  0  0  0  0  0  0  0  0  0
  188.9320  175.5600  135.8140 C   0  0  0  0  0  2  0  0  0  0  0  0
  190.3880  175.9500  135.9750 C   0  0  1  0  0  0  0  0  0  0  0  0
  191.2400  174.8520  135.7700 O   0  0  0  0  0  0  0  0  0  0  0  0
  190.6720  176.6150  137.3010 C   0  0  0  0  0  2  0  0  0  0  0  0
  190.9160  175.1370  137.1060 C   0  0  1  0  0  3  0  0  0  0  0  0
  1 10  1  0  0  0  0
  2  6  2  0  0  0  0
  3  8  1  0  0  0  0
  3  7  1  1  0  0  0
  4 15  1  0  0  0  0
  4 14  1  0  0  0  0
  5 13  1  0  0  0  0
  5 15  2  0  0  0  0
  6  8  1  0  0  0  0
  7 13  1  0  0  0  0
  8  5  1  0  0  0  0
  9  6  1  0  0  0  0
 10 23  1  0  0  0  0
 11  3  1  0  0  0  0
 12  2  1  0  0  0  0
 12 11  2  0  0  0  0
 14 10  2  0  0  0  0
 15  1  1  0  0  0  0
 17 18  1  0  0  0  0
 17 21  1  1  0  0  0
 17 19  1  0  0  0  0
 19 22  1  1  0  0  0
 19 20  1  0  0  0  0
 23 24  1  0  0  0  0
 24 16  2  6  0  0  0
 24 20  1  0  0  0  0
 24 25  1  0  0  0  0
 26 23  1  0  0  0  0
 26 18  1  0  0  0  0
 27 28  1  1  0  0  0
 27 11  1  0  0  0  0
 30 31  1  0  0  0  0
 30 32  1  0  0  0  0
 31 29  1  0  0  0  0
 32 33  1  0  0  0  0
 33 27  1  6  0  0  0
 33 29  1  0  0  0  0
 34 36  1  0  0  0  0
 34 32  1  0  0  0  0
 36 37  1  0  0  0  0
 36 35  1  1  0  0  0
 37 38  1  0  0  0  0
 38 39  1  0  0  0  0
 39 40  1  0  0  0  0
 40 41  1  0  0  0  0
 41 42  1  0  0  0  0
 43 44  1  0  0  0  0
 43  2  1  0  0  0  0
 45 44  1  6  0  0  0
 45 48  1  0  0  0  0
 45 47  1  0  0  0  0
 46 45  1  0  0  0  0
 46 48  1  0  0  0  0
 48 47  1  1  0  0  0
M  END
>  <MODEL>
2

>  <REMARK>
 VINA RESULT:      -5.9      3.929     10.032
  Name = 
  13 active torsions:
  status: ('A' for Active; 'I' for Inactive)
    1  A    between atoms: S_1  and  C_7
    2  A    between atoms: S_1  and  C_31
    3  A    between atoms: C_3  and  N_34
    4  A    between atoms: C_3  and  C_35
    5  A    between atoms: C_10  and  C_31
    6  A    between atoms: N_11  and  C_20
    7  A    between atoms: C_20  and  C_35
    8  A    between atoms: C_21  and  C_29
    9  A    between atoms: C_21  and  C_44
   10  A    between atoms: C_27  and  C_32
   11  A    between atoms: C_27  and  N_34
   12  A    between atoms: C_28  and  N_30
   13  A    between atoms: C_32  and  N_41
                            x       y       z     vdW  Elec       q    Type
                         _______ _______ _______ _____ _____    ______ ____

>  <TORSDO>
F 13

$$$$
=
 OpenBabel10222420523D

 48 54  0  0  1  0  0  0  0  0999 V2000
  194.4210  175.8990  137.6240 S   0  0  0  0  0  0  0  0  0  0  0  0
  188.6340  177.0820  138.8120 C   0  0  0  0  0  0  0  0  0  0  0  0
  190.7810  177.8540  140.4950 C   0  0  1  0  0  3  0  0  0  0  0  0
  191.8660  175.9360  136.6720 C   0  0  0  0  0  2  0  0  0  0  0  0
  192.2880  177.1600  138.8230 C   0  0  0  0  0  0  0  0  0  0  0  0
  189.7810  177.4850  138.2370 C   0  0  0  0  0  0  0  0  0  0  0  0
  192.1070  177.4720  141.1570 C   0  0  0  0  0  2  0  0  0  0  0  0
  190.9430  177.5750  139.0770 N   0  0  0  0  0  0  0  0  0  0  0  0
  189.8110  178.0100  136.8380 C   0  0  0  0  0  1  0  0  0  0  0  0
  193.7570  174.4970  136.7230 C   0  0  0  0  0  0  0  0  0  0  0  0
  189.6000  177.0740  141.0220 C   0  0  0  0  0  0  0  0  0  0  0  0
  188.6160  176.7740  140.2190 N   0  0  0  0  0  0  0  0  0  0  0  0
  193.1280  177.3560  140.0310 C   0  0  0  0  0  2  0  0  0  0  0  0
  192.5120  174.6530  136.2880 C   0  0  0  0  0  3  0  0  0  0  0  0
  192.7340  176.4920  137.7420 C   0  0  0  0  0  0  0  0  0  0  0  0
  195.0720  172.9250  139.2340 O   0  0  0  0  0  1  0  0  0  0  0  0
  196.7940  174.2480  135.2680 C   0  0  1  0  0  3  0  0  0  0  0  0
  196.0000  173.0320  134.7430 C   0  0  0  0  0  2  0  0  0  0  0  0
  197.0370  174.2330  136.7980 C   0  0  1  0  0  3  0  0  0  0  0  0
  197.1130  172.9380  137.3370 O   0  0  0  0  0  0  0  0  0  0  0  0
  198.0010  174.3010  134.5940 F   0  0  0  0  0  0  0  0  0  0  0  0
  198.1780  174.9620  137.1340 O   0  0  0  0  0  1  0  0  0  0  0  0
  194.5020  173.2970  136.4390 N   0  0  0  0  0  0  0  0  0  0  0  0
  195.5020  172.4930  137.6570 P   0  0  2  0  0  0  0  0  0  0  0  0
  195.3650  170.9960  137.5040 O   0  0  0  0  0  0  0  0  0  0  0  0
  194.6360  172.9180  135.1350 O   0  0  0  0  0  0  0  0  0  0  0  0
  189.4770  176.7910  142.4940 C   0  0  2  0  0  3  0  0  0  0  0  0
  188.2820  175.9920  142.7140 N   0  0  0  0  0  1  0  0  0  0  0  0
  190.8350  178.5080  143.7700 C   0  0  0  0  0  2  0  0  0  0  0  0
  189.6830  177.4300  145.5930 C   0  0  0  0  0  2  0  0  0  0  0  0
  191.0460  177.9230  145.1490 C   0  0  0  0  0  2  0  0  0  0  0  0
  188.7070  177.9330  144.6380 N   0  0  0  0  0  0  0  0  0  0  0  0
  189.4340  178.0790  143.3650 C   0  0  2  0  0  3  0  0  0  0  0  0
  187.5820  177.0040  144.5890 C   0  0  0  0  0  2  0  0  0  0  0  0
  187.0540  177.4260  146.8570 F   0  0  0  0  0  0  0  0  0  0  0  0
  186.5150  177.4250  145.5830 C   0  0  1  0  0  3  0  0  0  0  0  0
  186.0350  178.7580  145.2570 N   0  0  0  0  0  2  0  0  0  0  0  0
  184.5950  178.6670  145.0880 C   0  0  0  0  0  2  0  0  0  0  0  0
  184.1550  179.6150  143.9890 C   0  0  0  0  0  2  0  0  0  0  0  0
  184.3460  178.9690  142.6300 C   0  0  0  0  0  2  0  0  0  0  0  0
  185.4920  179.5550  141.9570 N   0  0  0  0  0  2  0  0  0  0  0  0
  185.8260  178.7150  140.9500 O   0  0  0  0  0  1  0  0  0  0  0  0
  187.1050  176.9360  137.8840 S   0  0  0  0  0  0  0  0  0  0  0  0
  187.5760  175.3060  137.2300 C   0  0  0  0  0  2  0  0  0  0  0  0
  187.2690  175.2350  135.7480 C   0  0  1  0  0  0  0  0  0  0  0  0
  186.0970  174.4990  135.5000 O   0  0  0  0  0  0  0  0  0  0  0  0
  188.4250  174.7010  134.9350 C   0  0  0  0  0  2  0  0  0  0  0  0
  187.3050  173.7910  135.3810 C   0  0  1  0  0  3  0  0  0  0  0  0
  1 15  1  0  0  0  0
  2 12  1  0  0  0  0
  3 11  1  0  0  0  0
  3  7  1  1  0  0  0
  4 15  1  0  0  0  0
  5  8  1  0  0  0  0
  5 13  1  0  0  0  0
  6  2  2  0  0  0  0
  6  8  1  0  0  0  0
  8  3  1  0  0  0  0
  9  6  1  0  0  0  0
 10  1  1  0  0  0  0
 11 27  1  0  0  0  0
 12 11  2  0  0  0  0
 13  7  1  0  0  0  0
 14  4  1  0  0  0  0
 14 10  2  0  0  0  0
 15  5  2  0  0  0  0
 17 21  1  6  0  0  0
 17 19  1  0  0  0  0
 18 26  1  0  0  0  0
 18 17  1  0  0  0  0
 19 22  1  6  0  0  0
 19 20  1  0  0  0  0
 20 24  1  0  0  0  0
 23 10  1  0  0  0  0
 23 24  1  0  0  0  0
 24 25  2  6  0  0  0
 24 16  1  0  0  0  0
 26 23  1  0  0  0  0
 27 28  1  6  0  0  0
 29 31  1  0  0  0  0
 31 30  1  0  0  0  0
 32 30  1  0  0  0  0
 33 27  1  1  0  0  0
 33 29  1  0  0  0  0
 33 32  1  0  0  0  0
 34 32  1  0  0  0  0
 34 36  1  0  0  0  0
 36 35  1  1  0  0  0
 37 36  1  0  0  0  0
 38 37  1  0  0  0  0
 39 38  1  0  0  0  0
 40 39  1  0  0  0  0
 41 40  1  0  0  0  0
 42 41  1  0  0  0  0
 43  2  1  0  0  0  0
 44 43  1  0  0  0  0
 45 44  1  1  0  0  0
 46 45  1  0  0  0  0
 47 45  1  0  0  0  0
 48 47  1  6  0  0  0
 48 46  1  0  0  0  0
 48 45  1  0  0  0  0
M  END
>  <MODEL>
3

>  <REMARK>
 VINA RESULT:      -5.6      5.492     10.395
  Name = 
  13 active torsions:
  status: ('A' for Active; 'I' for Inactive)
    1  A    between atoms: S_1  and  C_7
    2  A    between atoms: S_1  and  C_31
    3  A    between atoms: C_3  and  N_34
    4  A    between atoms: C_3  and  C_35
    5  A    between atoms: C_10  and  C_31
    6  A    between atoms: N_11  and  C_20
    7  A    between atoms: C_20  and  C_35
    8  A    between atoms: C_21  and  C_29
    9  A    between atoms: C_21  and  C_44
   10  A    between atoms: C_27  and  C_32
   11  A    between atoms: C_27  and  N_34
   12  A    between atoms: C_28  and  N_30
   13  A    between atoms: C_32  and  N_41
                            x       y       z     vdW  Elec       q    Type
                         _______ _______ _______ _____ _____    ______ ____

>  <TORSDO>
F 13

$$$$
=
 OpenBabel10222420523D

 48 54  0  0  1  0  0  0  0  0999 V2000
  186.6450  178.6160  141.7770 S   0  0  0  0  0  0  0  0  0  0  0  0
  186.7280  177.0030  135.9730 C   0  0  0  0  0  0  0  0  0  0  0  0
  184.3850  177.7930  137.3580 C   0  0  1  0  0  3  0  0  0  0  0  0
  188.1800  178.0710  139.5900 C   0  0  0  0  0  2  0  0  0  0  0  0
  185.7270  178.4190  139.1890 C   0  0  0  0  0  0  0  0  0  0  0  0
  186.8260  177.9920  136.8780 C   0  0  0  0  0  0  0  0  0  0  0  0
  183.5450  177.7040  138.6350 C   0  0  0  0  0  2  0  0  0  0  0  0
  185.7230  178.1720  137.7810 N   0  0  0  0  0  0  0  0  0  0  0  0
  187.9370  178.9920  136.8260 C   0  0  0  0  0  1  0  0  0  0  0  0
  188.0750  177.5400  141.9050 C   0  0  0  0  0  0  0  0  0  0  0  0
  184.4540  176.4930  136.5950 C   0  0  0  0  0  0  0  0  0  0  0  0
  185.5410  176.1880  135.9390 N   0  0  0  0  0  0  0  0  0  0  0  0
  184.3400  178.4250  139.7190 C   0  0  0  0  0  2  0  0  0  0  0  0
  188.7540  177.3800  140.7750 C   0  0  0  0  0  3  0  0  0  0  0  0
  186.8020  178.4440  140.0000 C   0  0  0  0  0  0  0  0  0  0  0  0
  186.9710  178.7870  144.6850 O   0  0  0  0  0  0  0  0  0  0  0  0
  191.1370  177.6740  143.3220 C   0  0  1  0  0  3  0  0  0  0  0  0
  190.6310  176.2410  143.6020 C   0  0  0  0  0  2  0  0  0  0  0  0
  190.2920  178.7850  143.9930 C   0  0  1  0  0  3  0  0  0  0  0  0
  189.6810  178.3760  145.1900 O   0  0  0  0  0  0  0  0  0  0  0  0
  192.4530  177.7580  143.7390 F   0  0  0  0  0  0  0  0  0  0  0  0
  191.0540  179.9340  144.2120 O   0  0  0  0  0  1  0  0  0  0  0  0
  188.5070  176.9160  143.1290 N   0  0  0  0  0  0  0  0  0  0  0  0
  188.2190  177.6450  144.7160 P   0  0  2  0  0  0  0  0  0  0  0  0
  187.8670  176.5590  145.7060 O   0  0  0  0  0  1  0  0  0  0  0  0
  189.3750  175.8670  143.0450 O   0  0  0  0  0  0  0  0  0  0  0  0
  183.2290  175.6330  136.4500 C   0  0  2  0  0  3  0  0  0  0  0  0
  182.0590  176.4960  136.4000 N   0  0  0  0  0  1  0  0  0  0  0  0
  183.7050  173.2580  137.1940 C   0  0  0  0  0  2  0  0  0  0  0  0
  181.3010  173.1810  137.0220 C   0  0  0  0  0  2  0  0  0  0  0  0
  182.5630  172.4230  136.6590 C   0  0  0  0  0  2  0  0  0  0  0  0
  181.6840  174.2500  137.9320 N   0  0  0  0  0  0  0  0  0  0  0  0
  183.0770  174.5850  137.5900 C   0  0  2  0  0  3  0  0  0  0  0  0
  180.7410  175.3530  137.7770 C   0  0  0  0  0  2  0  0  0  0  0  0
  180.8090  175.1080  140.1300 F   0  0  0  0  0  0  0  0  0  0  0  0
  180.0570  175.6440  139.1010 C   0  0  1  0  0  3  0  0  0  0  0  0
  179.9320  177.0810  139.2870 N   0  0  0  0  0  2  0  0  0  0  0  0
  180.4740  177.3920  140.5980 C   0  0  0  0  0  2  0  0  0  0  0  0
  180.4710  178.8950  140.8010 C   0  0  0  0  0  2  0  0  0  0  0  0
  180.9380  179.2380  142.2030 C   0  0  0  0  0  2  0  0  0  0  0  0
  180.1620  180.3470  142.7290 N   0  0  0  0  0  2  0  0  0  0  0  0
  179.7490  181.0740  141.6650 O   0  0  0  0  0  1  0  0  0  0  0  0
  188.0260  176.6760  134.7780 S   0  0  0  0  0  0  0  0  0  0  0  0
  188.8310  175.4720  135.8770 C   0  0  0  0  0  2  0  0  0  0  0  0
  190.1220  176.0500  136.4200 C   0  0  1  0  0  0  0  0  0  0  0  0
  191.2050  175.7810  135.5670 O   0  0  0  0  0  0  0  0  0  0  0  0
  190.4190  175.5960  137.8310 C   0  0  0  0  0  2  0  0  0  0  0  0
  191.0370  174.8950  136.6440 C   0  0  1  0  0  3  0  0  0  0  0  0
  1 10  1  0  0  0  0
  2  6  2  0  0  0  0
  3  8  1  0  0  0  0
  3  7  1  1  0  0  0
  4 15  1  0  0  0  0
  4 14  1  0  0  0  0
  5 13  1  0  0  0  0
  5 15  2  0  0  0  0
  6  8  1  0  0  0  0
  7 13  1  0  0  0  0
  8  5  1  0  0  0  0
  9  6  1  0  0  0  0
 10 23  1  0  0  0  0
 11  3  1  0  0  0  0
 12  2  1  0  0  0  0
 12 11  2  0  0  0  0
 14 10  2  0  0  0  0
 15  1  1  0  0  0  0
 17 18  1  0  0  0  0
 17 21  1  1  0  0  0
 17 19  1  0  0  0  0
 19 22  1  1  0  0  0
 19 20  1  0  0  0  0
 23 24  1  0  0  0  0
 24 16  2  6  0  0  0
 24 20  1  0  0  0  0
 24 25  1  0  0  0  0
 26 23  1  0  0  0  0
 26 18  1  0  0  0  0
 27 28  1  1  0  0  0
 27 11  1  0  0  0  0
 29 33  1  0  0  0  0
 30 32  1  0  0  0  0
 31 30  1  0  0  0  0
 31 29  1  0  0  0  0
 33 27  1  6  0  0  0
 33 32  1  0  0  0  0
 34 32  1  0  0  0  0
 34 36  1  0  0  0  0
 36 37  1  0  0  0  0
 36 35  1  1  0  0  0
 37 38  1  0  0  0  0
 38 39  1  0  0  0  0
 39 40  1  0  0  0  0
 40 41  1  0  0  0  0
 42 41  1  0  0  0  0
 43 44  1  0  0  0  0
 43  2  1  0  0  0  0
 45 44  1  6  0  0  0
 45 48  1  0  0  0  0
 45 47  1  0  0  0  0
 46 45  1  0  0  0  0
 46 48  1  0  0  0  0
 48 47  1  1  0  0  0
M  END
>  <MODEL>
4

>  <REMARK>
 VINA RESULT:      -5.3      3.835      9.955
  Name = 
  13 active torsions:
  status: ('A' for Active; 'I' for Inactive)
    1  A    between atoms: S_1  and  C_7
    2  A    between atoms: S_1  and  C_31
    3  A    between atoms: C_3  and  N_34
    4  A    between atoms: C_3  and  C_35
    5  A    between atoms: C_10  and  C_31
    6  A    between atoms: N_11  and  C_20
    7  A    between atoms: C_20  and  C_35
    8  A    between atoms: C_21  and  C_29
    9  A    between atoms: C_21  and  C_44
   10  A    between atoms: C_27  and  C_32
   11  A    between atoms: C_27  and  N_34
   12  A    between atoms: C_28  and  N_30
   13  A    between atoms: C_32  and  N_41
                            x       y       z     vdW  Elec       q    Type
                         _______ _______ _______ _____ _____    ______ ____

>  <TORSDO>
F 13

$$$$
=
 OpenBabel10222420523D

 48 54  0  0  1  0  0  0  0  0999 V2000
  182.5650  175.5370  135.3870 S   0  0  0  0  0  0  0  0  0  0  0  0
  181.4870  179.9070  139.3920 C   0  0  0  0  0  0  0  0  0  0  0  0
  184.0810  179.1820  138.5070 C   0  0  1  0  0  3  0  0  0  0  0  0
  180.6920  177.1290  136.5670 C   0  0  0  0  0  2  0  0  0  0  0  0
  183.0940  177.7820  136.8910 C   0  0  0  0  0  0  0  0  0  0  0  0
  181.6470  179.5630  138.1030 C   0  0  0  0  0  0  0  0  0  0  0  0
  185.0640  178.0600  138.1640 C   0  0  0  0  0  2  0  0  0  0  0  0
  182.8750  178.9100  137.7410 N   0  0  0  0  0  0  0  0  0  0  0  0
  180.6860  180.0130  137.0490 C   0  0  0  0  0  1  0  0  0  0  0  0
  181.0330  174.8430  136.0090 C   0  0  0  0  0  0  0  0  0  0  0  0
  183.7330  179.2470  139.9750 C   0  0  0  0  0  0  0  0  0  0  0  0
  182.5370  179.6230  140.3370 N   0  0  0  0  0  0  0  0  0  0  0  0
  184.5270  177.3950  136.9010 C   0  0  0  0  0  2  0  0  0  0  0  0
  180.1930  175.7290  136.5330 C   0  0  0  0  0  3  0  0  0  0  0  0
  182.1510  177.0180  136.3080 C   0  0  0  0  0  0  0  0  0  0  0  0
  180.4540  173.2800  138.7880 O   0  0  0  0  0  1  0  0  0  0  0  0
  183.0640  172.2590  135.2400 C   0  0  1  0  0  3  0  0  0  0  0  0
  181.7060  171.9030  134.5950 C   0  0  0  0  0  2  0  0  0  0  0  0
  183.0280  172.3440  136.7860 C   0  0  1  0  0  3  0  0  0  0  0  0
  182.0650  171.5040  137.3690 O   0  0  0  0  0  0  0  0  0  0  0  0
  183.9950  171.3180  134.8370 F   0  0  0  0  0  0  0  0  0  0  0  0
  184.2850  172.0870  137.3350 O   0  0  0  0  0  1  0  0  0  0  0  0
  180.6880  173.4470  135.9250 N   0  0  0  0  0  0  0  0  0  0  0  0
  180.6200  172.4020  137.3520 P   0  0  2  0  0  0  0  0  0  0  0  0
  179.4510  171.4540  137.2190 O   0  0  0  0  0  0  0  0  0  0  0  0
  180.6610  172.8650  134.6920 O   0  0  0  0  0  0  0  0  0  0  0  0
  184.7990  179.0430  141.0150 C   0  0  2  0  0  3  0  0  0  0  0  0
  186.0290  178.6440  140.3480 N   0  0  0  0  0  1  0  0  0  0  0  0
  183.0890  178.3630  142.7580 C   0  0  0  0  0  2  0  0  0  0  0  0
  184.9650  178.8900  144.1780 C   0  0  0  0  0  2  0  0  0  0  0  0
  183.4730  179.1040  144.0200 C   0  0  0  0  0  2  0  0  0  0  0  0
  185.3640  177.8790  143.2110 N   0  0  0  0  0  0  0  0  0  0  0  0
  184.4080  177.9950  142.0960 C   0  0  2  0  0  3  0  0  0  0  0  0
  186.7560  178.1120  142.8410 C   0  0  0  0  0  2  0  0  0  0  0  0
  187.6940  176.0230  143.4390 F   0  0  0  0  0  0  0  0  0  0  0  0
  187.6800  177.3630  143.7840 C   0  0  1  0  0  3  0  0  0  0  0  0
  189.0260  177.9030  143.6910 N   0  0  0  0  0  2  0  0  0  0  0  0
  189.9400  176.8540  144.1110 C   0  0  0  0  0  2  0  0  0  0  0  0
  190.9320  177.4210  145.1080 C   0  0  0  0  0  2  0  0  0  0  0  0
  190.9520  176.5780  146.3690 C   0  0  0  0  0  2  0  0  0  0  0  0
  189.6960  176.7220  147.0830 N   0  0  0  0  0  2  0  0  0  0  0  0
  189.8770  177.7040  147.9970 O   0  0  0  0  0  1  0  0  0  0  0  0
  180.0080  180.7370  139.9790 S   0  0  0  0  0  0  0  0  0  0  0  0
  180.0870  179.8920  141.5870 C   0  0  0  0  0  2  0  0  0  0  0  0
  178.9480  178.9000  141.7060 C   0  0  1  0  0  0  0  0  0  0  0  0
  178.9310  178.2860  142.9700 O   0  0  0  0  0  0  0  0  0  0  0  0
  178.9530  177.8680  140.6030 C   0  0  0  0  0  2  0  0  0  0  0  0
  179.5740  177.5700  141.9470 C   0  0  1  0  0  3  0  0  0  0  0  0
  1 10  1  0  0  0  0
  1 15  1  0  0  0  0
  2 43  1  0  0  0  0
  2 12  1  0  0  0  0
  3  7  1  1  0  0  0
  3 11  1  0  0  0  0
  5 13  1  0  0  0  0
  5  8  1  0  0  0  0
  6  2  2  0  0  0  0
  8  6  1  0  0  0  0
  8  3  1  0  0  0  0
  9  6  1  0  0  0  0
 10 14  2  0  0  0  0
 11 12  2  0  0  0  0
 11 27  1  0  0  0  0
 13  7  1  0  0  0  0
 14  4  1  0  0  0  0
 15  4  1  0  0  0  0
 15  5  2  0  0  0  0
 17 21  1  1  0  0  0
 17 19  1  0  0  0  0
 18 26  1  0  0  0  0
 18 17  1  0  0  0  0
 19 22  1  1  0  0  0
 19 20  1  0  0  0  0
 23 10  1  0  0  0  0
 23 24  1  0  0  0  0
 24 25  2  6  0  0  0
 24 20  1  0  0  0  0
 24 16  1  0  0  0  0
 26 23  1  0  0  0  0
 27 28  1  6  0  0  0
 29 31  1  0  0  0  0
 31 30  1  0  0  0  0
 32 30  1  0  0  0  0
 33 27  1  6  0  0  0
 33 29  1  0  0  0  0
 33 32  1  0  0  0  0
 34 32  1  0  0  0  0
 34 36  1  0  0  0  0
 36 35  1  6  0  0  0
 37 36  1  0  0  0  0
 37 38  1  0  0  0  0
 38 39  1  0  0  0  0
 39 40  1  0  0  0  0
 40 41  1  0  0  0  0
 41 42  1  0  0  0  0
 43 44  1  0  0  0  0
 45 44  1  6  0  0  0
 45 48  1  0  0  0  0
 45 46  1  0  0  0  0
 47 45  1  0  0  0  0
 48 47  1  6  0  0  0
 48 46  1  0  0  0  0
M  END
>  <MODEL>
5

>  <REMARK>
 VINA RESULT:      -4.8      3.593      6.903
  Name = 
  13 active torsions:
  status: ('A' for Active; 'I' for Inactive)
    1  A    between atoms: S_1  and  C_7
    2  A    between atoms: S_1  and  C_31
    3  A    between atoms: C_3  and  N_34
    4  A    between atoms: C_3  and  C_35
    5  A    between atoms: C_10  and  C_31
    6  A    between atoms: N_11  and  C_20
    7  A    between atoms: C_20  and  C_35
    8  A    between atoms: C_21  and  C_29
    9  A    between atoms: C_21  and  C_44
   10  A    between atoms: C_27  and  C_32
   11  A    between atoms: C_27  and  N_34
   12  A    between atoms: C_28  and  N_30
   13  A    between atoms: C_32  and  N_41
                            x       y       z     vdW  Elec       q    Type
                         _______ _______ _______ _____ _____    ______ ____

>  <TORSDO>
F 13

$$$$
=
 OpenBabel10222420523D

 48 54  0  0  1  0  0  0  0  0999 V2000
  188.5190  178.7310  141.5050 S   0  0  0  0  0  0  0  0  0  0  0  0
  186.3990  176.9320  136.1610 C   0  0  0  0  0  0  0  0  0  0  0  0
  184.7630  177.9020  138.2620 C   0  0  1  0  0  3  0  0  0  0  0  0
  189.1200  178.0270  138.9400 C   0  0  0  0  0  2  0  0  0  0  0  0
  186.7080  178.5070  139.4430 C   0  0  0  0  0  0  0  0  0  0  0  0
  186.8640  177.9420  136.9160 C   0  0  0  0  0  0  0  0  0  0  0  0
  184.4460  177.9050  139.7600 C   0  0  0  0  0  2  0  0  0  0  0  0
  186.1780  178.2150  138.1480 N   0  0  0  0  0  0  0  0  0  0  0  0
  187.9210  178.8720  136.4110 C   0  0  0  0  0  1  0  0  0  0  0  0
  189.8480  177.5770  141.1580 C   0  0  0  0  0  0  0  0  0  0  0  0
  184.4910  176.5770  137.5930 C   0  0  0  0  0  0  0  0  0  0  0  0
  185.2480  176.1880  136.6030 N   0  0  0  0  0  0  0  0  0  0  0  0
  185.6140  178.6110  140.4410 C   0  0  0  0  0  2  0  0  0  0  0  0
  190.0580  177.3410  139.8690 C   0  0  0  0  0  3  0  0  0  0  0  0
  188.0060  178.4940  139.8050 C   0  0  0  0  0  0  0  0  0  0  0  0
  188.5550  175.1480  142.8690 O   0  0  0  0  0  0  0  0  0  0  0  0
  190.7640  178.8850  144.1330 C   0  0  1  0  0  3  0  0  0  0  0  0
  191.9930  178.0800  143.6570 C   0  0  0  0  0  2  0  0  0  0  0  0
  189.5070  178.0200  144.4010 C   0  0  1  0  0  3  0  0  0  0  0  0
  189.8070  176.7090  144.8070 O   0  0  0  0  0  0  0  0  0  0  0  0
  191.1170  179.5790  145.2770 F   0  0  0  0  0  0  0  0  0  0  0  0
  188.6650  178.6300  145.3320 O   0  0  0  0  0  1  0  0  0  0  0  0
  190.6710  176.9680  142.1720 N   0  0  0  0  0  0  0  0  0  0  0  0
  190.0190  175.8340  143.3630 P   0  0  2  0  0  0  0  0  0  0  0  0
  191.0240  174.7290  143.5990 O   0  0  0  0  0  1  0  0  0  0  0  0
  191.9230  177.4720  142.3710 O   0  0  0  0  0  0  0  0  0  0  0  0
  183.2620  175.7870  137.9490 C   0  0  2  0  0  3  0  0  0  0  0  0
  183.5850  174.3700  137.8870 N   0  0  0  0  0  1  0  0  0  0  0  0
  182.2200  177.4450  136.3400 C   0  0  0  0  0  2  0  0  0  0  0  0
  180.6730  177.6040  138.1820 C   0  0  0  0  0  2  0  0  0  0  0  0
  181.4720  178.4380  137.2000 C   0  0  0  0  0  2  0  0  0  0  0  0
  180.7580  176.2180  137.7440 N   0  0  0  0  0  0  0  0  0  0  0  0
  182.0450  176.1030  137.0340 C   0  0  2  0  0  3  0  0  0  0  0  0
  180.6330  175.3520  138.9120 C   0  0  0  0  0  2  0  0  0  0  0  0
  178.9310  174.5250  137.4910 F   0  0  0  0  0  0  0  0  0  0  0  0
  179.6730  174.2140  138.6170 C   0  0  1  0  0  3  0  0  0  0  0  0
  180.4180  172.9880  138.3840 N   0  0  0  0  0  2  0  0  0  0  0  0
  179.7390  172.2680  137.3200 C   0  0  0  0  0  2  0  0  0  0  0  0
  180.7270  171.3540  136.6200 C   0  0  0  0  0  2  0  0  0  0  0  0
  181.6870  172.1670  135.7730 C   0  0  0  0  0  2  0  0  0  0  0  0
  182.9990  171.5440  135.7700 N   0  0  0  0  0  2  0  0  0  0  0  0
  183.1620  170.9720  136.9850 O   0  0  0  0  0  1  0  0  0  0  0  0
  187.1530  176.4900  134.5940 S   0  0  0  0  0  0  0  0  0  0  0  0
  187.3280  174.7490  135.0880 C   0  0  0  0  0  2  0  0  0  0  0  0
  188.4690  174.6050  136.0750 C   0  0  1  0  0  0  0  0  0  0  0  0
  189.7100  174.8670  135.4690 O   0  0  0  0  0  0  0  0  0  0  0  0
  188.4790  173.2610  136.7660 C   0  0  0  0  0  2  0  0  0  0  0  0
  189.3400  173.5150  135.5510 C   0  0  1  0  0  3  0  0  0  0  0  0
  2 12  1  0  0  0  0
  2  6  2  0  0  0  0
  3  7  1  1  0  0  0
  4 15  1  0  0  0  0
  4 14  1  0  0  0  0
  5 15  2  0  0  0  0
  5 13  1  0  0  0  0
  6  8  1  0  0  0  0
  7 13  1  0  0  0  0
  8  3  1  0  0  0  0
  8  5  1  0  0  0  0
  9  6  1  0  0  0  0
 10  1  1  0  0  0  0
 10 23  1  0  0  0  0
 11 27  1  0  0  0  0
 11  3  1  0  0  0  0
 12 11  2  0  0  0  0
 14 10  2  0  0  0  0
 15  1  1  0  0  0  0
 17 19  1  0  0  0  0
 17 21  1  1  0  0  0
 18 17  1  0  0  0  0
 19 20  1  0  0  0  0
 19 22  1  1  0  0  0
 23 26  1  0  0  0  0
 23 24  1  0  0  0  0
 24 16  2  6  0  0  0
 24 25  1  0  0  0  0
 24 20  1  0  0  0  0
 26 18  1  0  0  0  0
 27 28  1  6  0  0  0
 29 33  1  0  0  0  0
 29 31  1  0  0  0  0
 31 30  1  0  0  0  0
 32 30  1  0  0  0  0
 32 34  1  0  0  0  0
 33 32  1  0  0  0  0
 33 27  1  1  0  0  0
 36 35  1  6  0  0  0
 36 34  1  0  0  0  0
 37 36  1  0  0  0  0
 38 37  1  0  0  0  0
 39 38  1  0  0  0  0
 40 39  1  0  0  0  0
 41 40  1  0  0  0  0
 41 42  1  0  0  0  0
 43 44  1  0  0  0  0
 43  2  1  0  0  0  0
 45 44  1  6  0  0  0
 45 47  1  0  0  0  0
 46 48  1  0  0  0  0
 46 45  1  0  0  0  0
 48 45  1  0  0  0  0
 48 47  1  1  0  0  0
M  END
>  <MODEL>
6

>  <REMARK>
 VINA RESULT:      -4.8      4.039     10.198
  Name = 
  13 active torsions:
  status: ('A' for Active; 'I' for Inactive)
    1  A    between atoms: S_1  and  C_7
    2  A    between atoms: S_1  and  C_31
    3  A    between atoms: C_3  and  N_34
    4  A    between atoms: C_3  and  C_35
    5  A    between atoms: C_10  and  C_31
    6  A    between atoms: N_11  and  C_20
    7  A    between atoms: C_20  and  C_35
    8  A    between atoms: C_21  and  C_29
    9  A    between atoms: C_21  and  C_44
   10  A    between atoms: C_27  and  C_32
   11  A    between atoms: C_27  and  N_34
   12  A    between atoms: C_28  and  N_30
   13  A    between atoms: C_32  and  N_41
                            x       y       z     vdW  Elec       q    Type
                         _______ _______ _______ _____ _____    ______ ____

>  <TORSDO>
F 13

$$$$
=
 OpenBabel10222420523D

 48 54  0  0  1  0  0  0  0  0999 V2000
  182.4220  174.9220  135.3000 S   0  0  0  0  0  0  0  0  0  0  0  0
  180.9060  180.0490  138.0780 C   0  0  0  0  0  0  0  0  0  0  0  0
  183.5490  179.0300  137.9780 C   0  0  1  0  0  3  0  0  0  0  0  0
  180.4950  176.8110  135.6950 C   0  0  0  0  0  2  0  0  0  0  0  0
  182.8170  177.3910  136.4540 C   0  0  0  0  0  0  0  0  0  0  0  0
  181.3150  179.4480  136.9470 C   0  0  0  0  0  0  0  0  0  0  0  0
  184.4720  177.8130  138.0850 C   0  0  0  0  0  2  0  0  0  0  0  0
  182.5240  178.6750  137.0100 N   0  0  0  0  0  0  0  0  0  0  0  0
  180.6600  179.7300  135.6330 C   0  0  0  0  0  1  0  0  0  0  0  0
  180.7300  174.4450  135.6570 C   0  0  0  0  0  0  0  0  0  0  0  0
  182.8920  179.4020  139.2850 C   0  0  0  0  0  0  0  0  0  0  0  0
  181.6880  179.9040  139.2800 N   0  0  0  0  0  0  0  0  0  0  0  0
  184.1670  176.9390  136.8730 C   0  0  0  0  0  2  0  0  0  0  0  0
  179.8840  175.4590  135.7980 C   0  0  0  0  0  3  0  0  0  0  0  0
  181.9580  176.5750  135.8130 C   0  0  0  0  0  0  0  0  0  0  0  0
  180.1150  173.2710  138.6140 O   0  0  0  0  0  1  0  0  0  0  0  0
  182.5410  171.6390  135.1650 C   0  0  1  0  0  3  0  0  0  0  0  0
  181.1430  171.3160  134.5940 C   0  0  0  0  0  2  0  0  0  0  0  0
  182.5540  171.9090  136.6900 C   0  0  1  0  0  3  0  0  0  0  0  0
  181.5480  171.2200  137.3870 O   0  0  0  0  0  0  0  0  0  0  0  0
  183.3880  170.5870  134.8600 F   0  0  0  0  0  0  0  0  0  0  0  0
  183.8040  171.6220  137.2420 O   0  0  0  0  0  1  0  0  0  0  0  0
  180.2800  173.0800  135.7480 N   0  0  0  0  0  0  0  0  0  0  0  0
  180.1740  172.2200  137.2900 P   0  0  2  0  0  0  0  0  0  0  0  0
  178.9340  171.3550  137.2940 O   0  0  0  0  0  0  0  0  0  0  0  0
  180.1750  172.3600  134.5940 O   0  0  0  0  0  0  0  0  0  0  0  0
  183.6760  179.3530  140.5670 C   0  0  2  0  0  3  0  0  0  0  0  0
  185.0930  179.2870  140.2440 N   0  0  0  0  0  1  0  0  0  0  0  0
  181.7670  178.0970  141.6620 C   0  0  0  0  0  2  0  0  0  0  0  0
  182.8420  179.0270  143.6090 C   0  0  0  0  0  2  0  0  0  0  0  0
  181.4880  178.8230  142.9590 C   0  0  0  0  0  2  0  0  0  0  0  0
  183.8080  178.2410  142.8560 N   0  0  0  0  0  0  0  0  0  0  0  0
  183.2760  178.1630  141.4850 C   0  0  2  0  0  3  0  0  0  0  0  0
  185.1150  178.8840  142.9620 C   0  0  0  0  0  2  0  0  0  0  0  0
  187.4240  178.3840  143.0940 F   0  0  0  0  0  0  0  0  0  0  0  0
  186.1690  177.8610  143.3470 C   0  0  1  0  0  3  0  0  0  0  0  0
  186.0520  177.5390  144.7600 N   0  0  0  0  0  2  0  0  0  0  0  0
  185.9210  178.7950  145.4770 C   0  0  0  0  0  2  0  0  0  0  0  0
  185.7970  178.5160  146.9630 C   0  0  0  0  0  2  0  0  0  0  0  0
  187.1610  178.5700  147.6240 C   0  0  0  0  0  2  0  0  0  0  0  0
  187.6450  177.2240  147.8750 N   0  0  0  0  0  2  0  0  0  0  0  0
  188.9770  177.3230  148.0960 O   0  0  0  0  0  1  0  0  0  0  0  0
  179.4210  181.0540  138.1380 S   0  0  0  0  0  0  0  0  0  0  0  0
  180.3800  182.5980  138.1180 C   0  0  0  0  0  2  0  0  0  0  0  0
  179.7570  183.5800  137.1470 C   0  0  1  0  0  0  0  0  0  0  0  0
  179.9580  183.1850  135.8140 O   0  0  0  0  0  0  0  0  0  0  0  0
  180.2280  184.9990  137.3670 C   0  0  0  0  0  2  0  0  0  0  0  0
  180.8740  184.1210  136.3220 C   0  0  1  0  0  3  0  0  0  0  0  0
  1 10  1  0  0  0  0
  1 15  1  0  0  0  0
  2 43  1  0  0  0  0
  2 12  1  0  0  0  0
  3  7  1  1  0  0  0
  3 11  1  0  0  0  0
  4 14  1  0  0  0  0
  4 15  1  0  0  0  0
  5 13  1  0  0  0  0
  5  8  1  0  0  0  0
  6  8  1  0  0  0  0
  6  2  2  0  0  0  0
  8  3  1  0  0  0  0
  9  6  1  0  0  0  0
 10 23  1  0  0  0  0
 10 14  2  0  0  0  0
 11 27  1  0  0  0  0
 12 11  2  0  0  0  0
 13  7  1  0  0  0  0
 15  5  2  0  0  0  0
 17 21  1  1  0  0  0
 17 19  1  0  0  0  0
 18 26  1  0  0  0  0
 18 17  1  0  0  0  0
 19 22  1  1  0  0  0
 19 20  1  0  0  0  0
 23 24  1  0  0  0  0
 24 25  2  6  0  0  0
 24 20  1  0  0  0  0
 24 16  1  0  0  0  0
 26 23  1  0  0  0  0
 27 28  1  6  0  0  0
 29 31  1  0  0  0  0
 31 30  1  0  0  0  0
 32 34  1  0  0  0  0
 32 30  1  0  0  0  0
 33 27  1  6  0  0  0
 33 29  1  0  0  0  0
 33 32  1  0  0  0  0
 34 36  1  0  0  0  0
 36 35  1  1  0  0  0
 36 37  1  0  0  0  0
 37 38  1  0  0  0  0
 38 39  1  0  0  0  0
 39 40  1  0  0  0  0
 40 41  1  0  0  0  0
 41 42  1  0  0  0  0
 44 43  1  0  0  0  0
 45 47  1  0  0  0  0
 45 44  1  1  0  0  0
 46 48  1  0  0  0  0
 46 45  1  0  0  0  0
 48 45  1  0  0  0  0
 48 47  1  6  0  0  0
M  END
>  <MODEL>
7

>  <REMARK>
 VINA RESULT:      -4.7      4.222      8.409
  Name = 
  13 active torsions:
  status: ('A' for Active; 'I' for Inactive)
    1  A    between atoms: S_1  and  C_7
    2  A    between atoms: S_1  and  C_31
    3  A    between atoms: C_3  and  N_34
    4  A    between atoms: C_3  and  C_35
    5  A    between atoms: C_10  and  C_31
    6  A    between atoms: N_11  and  C_20
    7  A    between atoms: C_20  and  C_35
    8  A    between atoms: C_21  and  C_29
    9  A    between atoms: C_21  and  C_44
   10  A    between atoms: C_27  and  C_32
   11  A    between atoms: C_27  and  N_34
   12  A    between atoms: C_28  and  N_30
   13  A    between atoms: C_32  and  N_41
                            x       y       z     vdW  Elec       q    Type
                         _______ _______ _______ _____ _____    ______ ____

>  <TORSDO>
F 13

$$$$
=
 OpenBabel10222420523D

 48 54  0  0  1  0  0  0  0  0999 V2000
  194.0760  176.0000  136.9420 S   0  0  0  0  0  0  0  0  0  0  0  0
  188.5850  177.3780  139.0030 C   0  0  0  0  0  0  0  0  0  0  0  0
  190.9680  177.7430  140.4940 C   0  0  1  0  0  3  0  0  0  0  0  0
  191.4410  176.3510  136.3340 C   0  0  0  0  0  2  0  0  0  0  0  0
  192.2090  177.2080  138.5660 C   0  0  0  0  0  0  0  0  0  0  0  0
  189.6880  177.7850  138.3520 C   0  0  0  0  0  0  0  0  0  0  0  0
  192.3240  177.1780  140.9240 C   0  0  0  0  0  2  0  0  0  0  0  0
  190.9430  177.6700  139.0420 N   0  0  0  0  0  0  0  0  0  0  0  0
  189.6020  178.5100  137.0470 C   0  0  0  0  0  1  0  0  0  0  0  0
  193.1970  174.7970  135.9440 C   0  0  0  0  0  0  0  0  0  0  0  0
  189.7940  176.9750  141.0510 C   0  0  0  0  0  0  0  0  0  0  0  0
  188.7030  176.8650  140.3440 N   0  0  0  0  0  0  0  0  0  0  0  0
  193.1960  177.1640  139.6730 C   0  0  0  0  0  2  0  0  0  0  0  0
  191.9280  175.1000  135.6950 C   0  0  0  0  0  3  0  0  0  0  0  0
  192.4700  176.6810  137.3540 C   0  0  0  0  0  0  0  0  0  0  0  0
  191.6560  171.9890  136.4380 O   0  0  0  0  0  1  0  0  0  0  0  0
  195.9700  173.2080  137.0320 C   0  0  1  0  0  3  0  0  0  0  0  0
  196.0120  173.0740  135.4930 C   0  0  0  0  0  2  0  0  0  0  0  0
  194.7650  172.4960  137.6960 C   0  0  1  0  0  3  0  0  0  0  0  0
  194.3190  171.3720  136.9810 O   0  0  0  0  0  0  0  0  0  0  0  0
  197.1570  172.7130  137.5430 F   0  0  0  0  0  0  0  0  0  0  0  0
  195.0540  172.1420  139.0150 O   0  0  0  0  0  1  0  0  0  0  0  0
  193.7990  173.6060  135.4020 N   0  0  0  0  0  0  0  0  0  0  0  0
  193.2320  171.9830  135.8230 P   0  0  2  0  0  0  0  0  0  0  0  0
  193.2760  171.1060  134.5940 O   0  0  0  0  0  0  0  0  0  0  0  0
  194.9900  173.7280  134.7480 O   0  0  0  0  0  0  0  0  0  0  0  0
  189.8170  176.4830  142.4720 C   0  0  2  0  0  3  0  0  0  0  0  0
  188.5060  175.9460  142.7990 N   0  0  0  0  0  1  0  0  0  0  0  0
  191.5160  177.2180  144.2030 C   0  0  0  0  0  2  0  0  0  0  0  0
  189.6020  176.8300  145.6170 C   0  0  0  0  0  2  0  0  0  0  0  0
  191.0900  176.5660  145.4990 C   0  0  0  0  0  2  0  0  0  0  0  0
  189.2490  177.7920  144.5830 N   0  0  0  0  0  0  0  0  0  0  0  0
  190.2200  177.5830  143.4950 C   0  0  2  0  0  3  0  0  0  0  0  0
  187.8570  177.5750  144.2010 C   0  0  0  0  0  2  0  0  0  0  0  0
  187.2090  178.9140  146.0420 F   0  0  0  0  0  0  0  0  0  0  0  0
  186.9560  177.7070  145.4170 C   0  0  1  0  0  3  0  0  0  0  0  0
  185.5630  177.6540  145.0070 N   0  0  0  0  0  2  0  0  0  0  0  0
  184.9640  178.9310  145.3560 C   0  0  0  0  0  2  0  0  0  0  0  0
  184.0360  179.3740  144.2420 C   0  0  0  0  0  2  0  0  0  0  0  0
  184.4470  178.7340  142.9290 C   0  0  0  0  0  2  0  0  0  0  0  0
  185.3440  179.6170  142.2050 N   0  0  0  0  0  2  0  0  0  0  0  0
  186.1070  178.8330  141.4090 O   0  0  0  0  0  1  0  0  0  0  0  0
  186.9530  177.4760  138.2640 S   0  0  0  0  0  0  0  0  0  0  0  0
  187.1300  175.8420  137.4870 C   0  0  0  0  0  2  0  0  0  0  0  0
  187.6870  175.9940  136.0860 C   0  0  1  0  0  0  0  0  0  0  0  0
  186.9120  176.8790  135.3170 O   0  0  0  0  0  0  0  0  0  0  0  0
  187.8570  174.6700  135.3770 C   0  0  0  0  0  2  0  0  0  0  0  0
  186.6230  175.5140  135.1580 C   0  0  1  0  0  3  0  0  0  0  0  0
  1 15  1  0  0  0  0
  2 12  1  0  0  0  0
  3  7  1  1  0  0  0
  3 11  1  0  0  0  0
  4 15  1  0  0  0  0
  5  8  1  0  0  0  0
  5 13  1  0  0  0  0
  6  2  2  0  0  0  0
  6  8  1  0  0  0  0
  8  3  1  0  0  0  0
  9  6  1  0  0  0  0
 10  1  1  0  0  0  0
 11 27  1  0  0  0  0
 12 11  2  0  0  0  0
 13  7  1  0  0  0  0
 14 10  2  0  0  0  0
 14  4  1  0  0  0  0
 15  5  2  0  0  0  0
 17 21  1  1  0  0  0
 17 19  1  0  0  0  0
 18 17  1  0  0  0  0
 19 22  1  1  0  0  0
 20 19  1  0  0  0  0
 23 24  1  0  0  0  0
 23 10  1  0  0  0  0
 24 25  2  6  0  0  0
 24 16  1  0  0  0  0
 24 20  1  0  0  0  0
 26 23  1  0  0  0  0
 26 18  1  0  0  0  0
 27 28  1  1  0  0  0
 29 31  1  0  0  0  0
 31 30  1  0  0  0  0
 32 30  1  0  0  0  0
 33 27  1  6  0  0  0
 33 29  1  0  0  0  0
 33 32  1  0  0  0  0
 34 32  1  0  0  0  0
 34 36  1  0  0  0  0
 36 35  1  6  0  0  0
 37 38  1  0  0  0  0
 37 36  1  0  0  0  0
 39 38  1  0  0  0  0
 40 39  1  0  0  0  0
 41 40  1  0  0  0  0
 42 41  1  0  0  0  0
 43  2  1  0  0  0  0
 44 43  1  0  0  0  0
 45 44  1  1  0  0  0
 46 45  1  0  0  0  0
 47 45  1  0  0  0  0
 48 46  1  0  0  0  0
 48 47  1  6  0  0  0
 48 45  1  0  0  0  0
M  END
>  <MODEL>
8

>  <REMARK>
 VINA RESULT:      -4.7      5.066      9.919
  Name = 
  13 active torsions:
  status: ('A' for Active; 'I' for Inactive)
    1  A    between atoms: S_1  and  C_7
    2  A    between atoms: S_1  and  C_31
    3  A    between atoms: C_3  and  N_34
    4  A    between atoms: C_3  and  C_35
    5  A    between atoms: C_10  and  C_31
    6  A    between atoms: N_11  and  C_20
    7  A    between atoms: C_20  and  C_35
    8  A    between atoms: C_21  and  C_29
    9  A    between atoms: C_21  and  C_44
   10  A    between atoms: C_27  and  C_32
   11  A    between atoms: C_27  and  N_34
   12  A    between atoms: C_28  and  N_30
   13  A    between atoms: C_32  and  N_41
                            x       y       z     vdW  Elec       q    Type
                         _______ _______ _______ _____ _____    ______ ____

>  <TORSDO>
F 13

$$$$
=
 OpenBabel10222420523D

 48 54  0  0  1  0  0  0  0  0999 V2000
  193.7280  176.3500  138.7490 S   0  0  0  0  0  0  0  0  0  0  0  0
  187.8680  177.7440  138.8310 C   0  0  0  0  0  0  0  0  0  0  0  0
  189.6540  178.3090  140.9580 C   0  0  1  0  0  3  0  0  0  0  0  0
  191.4230  176.5680  137.3100 C   0  0  0  0  0  2  0  0  0  0  0  0
  191.4430  177.6420  139.5790 C   0  0  0  0  0  0  0  0  0  0  0  0
  189.1210  178.1230  138.5260 C   0  0  0  0  0  0  0  0  0  0  0  0
  190.8030  177.8240  141.8450 C   0  0  0  0  0  2  0  0  0  0  0  0
  190.0910  178.1070  139.5860 N   0  0  0  0  0  0  0  0  0  0  0  0
  189.4540  178.7280  137.2000 C   0  0  0  0  0  1  0  0  0  0  0  0
  193.2110  175.0370  137.6410 C   0  0  0  0  0  0  0  0  0  0  0  0
  188.3640  177.5590  141.1840 C   0  0  0  0  0  0  0  0  0  0  0  0
  187.5530  177.3560  140.1820 N   0  0  0  0  0  0  0  0  0  0  0  0
  192.0270  177.7250  140.9410 C   0  0  0  0  0  2  0  0  0  0  0  0
  192.0870  175.2800  136.9770 C   0  0  0  0  0  3  0  0  0  0  0  0
  192.0750  177.0170  138.5670 C   0  0  0  0  0  0  0  0  0  0  0  0
  195.2110  174.0830  140.0060 O   0  0  0  0  0  1  0  0  0  0  0  0
  195.8130  174.5430  135.5480 C   0  0  1  0  0  3  0  0  0  0  0  0
  195.0110  173.2240  135.5040 C   0  0  0  0  0  2  0  0  0  0  0  0
  196.4200  174.8690  136.9350 C   0  0  1  0  0  3  0  0  0  0  0  0
  196.7240  173.7260  137.6930 O   0  0  0  0  0  0  0  0  0  0  0  0
  196.8140  174.4750  134.5940 F   0  0  0  0  0  0  0  0  0  0  0  0
  197.5500  175.6780  136.8130 O   0  0  0  0  0  1  0  0  0  0  0  0
  193.9530  173.8210  137.4310 N   0  0  0  0  0  0  0  0  0  0  0  0
  195.2780  173.3250  138.4950 P   0  0  2  0  0  0  0  0  0  0  0  0
  195.2220  171.8280  138.6940 O   0  0  0  0  0  0  0  0  0  0  0  0
  193.7960  173.1690  136.2430 O   0  0  0  0  0  0  0  0  0  0  0  0
  187.9340  177.1960  142.5780 C   0  0  2  0  0  3  0  0  0  0  0  0
  188.3870  175.8440  142.8670 N   0  0  0  0  0  1  0  0  0  0  0  0
  185.7890  178.3320  141.8500 C   0  0  0  0  0  2  0  0  0  0  0  0
  186.0050  179.2130  144.0840 C   0  0  0  0  0  2  0  0  0  0  0  0
  185.7090  179.6120  142.6520 C   0  0  0  0  0  2  0  0  0  0  0  0
  185.9990  177.7590  144.1390 N   0  0  0  0  0  0  0  0  0  0  0  0
  186.3980  177.3070  142.7940 C   0  0  2  0  0  3  0  0  0  0  0  0
  186.8930  177.3300  145.2110 C   0  0  0  0  0  2  0  0  0  0  0  0
  185.4030  178.3430  146.7450 F   0  0  0  0  0  0  0  0  0  0  0  0
  186.7420  178.2450  146.4130 C   0  0  1  0  0  3  0  0  0  0  0  0
  187.4840  177.7040  147.5410 N   0  0  0  0  0  2  0  0  0  0  0  0
  188.4780  176.7920  147.0030 C   0  0  0  0  0  2  0  0  0  0  0  0
  189.7910  177.5280  146.8200 C   0  0  0  0  0  2  0  0  0  0  0  0
  190.6960  176.7620  145.8740 C   0  0  0  0  0  2  0  0  0  0  0  0
  192.0530  176.7400  146.3910 N   0  0  0  0  0  2  0  0  0  0  0  0
  192.2030  175.5660  147.0470 O   0  0  0  0  0  1  0  0  0  0  0  0
  186.5550  177.7280  137.6070 S   0  0  0  0  0  0  0  0  0  0  0  0
  186.6340  175.9200  137.4430 C   0  0  0  0  0  2  0  0  0  0  0  0
  187.5840  175.5430  136.3250 C   0  0  1  0  0  0  0  0  0  0  0  0
  186.8930  175.2690  135.1320 O   0  0  0  0  0  0  0  0  0  0  0  0
  188.5000  174.3990  136.6940 C   0  0  0  0  0  2  0  0  0  0  0  0
  187.2260  174.1550  135.9200 C   0  0  1  0  0  3  0  0  0  0  0  0
  2 12  1  0  0  0  0
  3 11  1  0  0  0  0
  3  7  1  1  0  0  0
  4 15  1  0  0  0  0
  5  8  1  0  0  0  0
  5 13  1  0  0  0  0
  6  2  2  0  0  0  0
  6  8  1  0  0  0  0
  8  3  1  0  0  0  0
  9  6  1  0  0  0  0
 10  1  1  0  0  0  0
 11 27  1  0  0  0  0
 12 11  2  0  0  0  0
 13  7  1  0  0  0  0
 14  4  1  0  0  0  0
 14 10  2  0  0  0  0
 15  1  1  0  0  0  0
 15  5  2  0  0  0  0
 17 21  1  6  0  0  0
 17 19  1  0  0  0  0
 18 17  1  0  0  0  0
 18 26  1  0  0  0  0
 19 22  1  6  0  0  0
 19 20  1  0  0  0  0
 20 24  1  0  0  0  0
 23 10  1  0  0  0  0
 23 24  1  0  0  0  0
 24 25  2  1  0  0  0
 24 16  1  0  0  0  0
 26 23  1  0  0  0  0
 27 28  1  6  0  0  0
 29 31  1  0  0  0  0
 29 33  1  0  0  0  0
 30 32  1  0  0  0  0
 31 30  1  0  0  0  0
 32 34  1  0  0  0  0
 33 27  1  1  0  0  0
 33 32  1  0  0  0  0
 34 36  1  0  0  0  0
 36 35  1  1  0  0  0
 36 37  1  0  0  0  0
 38 37  1  0  0  0  0
 39 38  1  0  0  0  0
 40 41  1  0  0  0  0
 40 39  1  0  0  0  0
 41 42  1  0  0  0  0
 43  2  1  0  0  0  0
 44 43  1  0  0  0  0
 45 47  1  0  0  0  0
 45 44  1  1  0  0  0
 46 48  1  0  0  0  0
 46 45  1  0  0  0  0
 48 45  1  0  0  0  0
 48 47  1  6  0  0  0
M  END
>  <MODEL>
9

>  <REMARK>
 VINA RESULT:      -4.7      5.194     10.226
  Name = 
  13 active torsions:
  status: ('A' for Active; 'I' for Inactive)
    1  A    between atoms: S_1  and  C_7
    2  A    between atoms: S_1  and  C_31
    3  A    between atoms: C_3  and  N_34
    4  A    between atoms: C_3  and  C_35
    5  A    between atoms: C_10  and  C_31
    6  A    between atoms: N_11  and  C_20
    7  A    between atoms: C_20  and  C_35
    8  A    between atoms: C_21  and  C_29
    9  A    between atoms: C_21  and  C_44
   10  A    between atoms: C_27  and  C_32
   11  A    between atoms: C_27  and  N_34
   12  A    between atoms: C_28  and  N_30
   13  A    between atoms: C_32  and  N_41
                            x       y       z     vdW  Elec       q    Type
                         _______ _______ _______ _____ _____    ______ ____

>  <TORSDO>
F 13

$$$$
