=
 OpenBabel10222415413D

 40 46  0  0  1  0  0  0  0  0999 V2000
  181.5520  178.9840  141.8040 C   0  0  0  0  0  3  0  0  0  0  0  0
  181.9370  174.5010  136.4110 N   0  0  0  0  0  0  0  0  0  0  0  0
  178.9460  173.6990  138.2510 O   0  0  0  0  0  1  0  0  0  0  0  0
  180.3850  179.5900  141.3340 C   0  0  0  0  0  0  0  0  0  0  0  0
  182.8870  175.5620  136.7040 C   0  0  1  0  0  3  0  0  0  0  0  0
  182.8230  177.3580  138.6760 N   0  0  0  0  0  0  0  0  0  0  0  0
  179.6200  180.3280  142.1740 F   0  0  0  0  0  0  0  0  0  0  0  0
  182.3450  178.2140  140.9420 C   0  0  0  0  0  0  0  0  0  0  0  0
  183.5010  177.5700  141.4020 O   0  0  0  0  0  0  0  0  0  0  0  0
  185.3510  176.0060  137.0880 C   0  0  0  0  0  2  0  0  0  0  0  0
  185.7090  179.0160  140.0910 C   0  0  0  0  0  2  0  0  0  0  0  0
  182.2970  176.1980  137.9580 C   0  0  0  0  0  0  0  0  0  0  0  0
  180.7970  178.6760  139.1320 C   0  0  0  0  0  3  0  0  0  0  0  0
  181.9730  178.0710  139.5940 C   0  0  0  0  0  0  0  0  0  0  0  0
  185.0850  179.4220  141.4190 C   0  0  0  0  0  2  0  0  0  0  0  0
  179.8990  173.6080  137.2910 N   0  0  0  0  0  0  0  0  0  0  0  0
  181.1720  175.5770  138.2870 C   0  0  0  0  0  3  0  0  0  0  0  0
  180.9970  174.5270  137.2970 C   0  0  0  0  0  0  0  0  0  0  0  0
  184.2060  177.7690  138.5250 C   0  0  1  0  0  3  0  0  0  0  0  0
  184.9740  176.9890  137.8370 C   0  0  0  0  0  2  0  0  0  0  0  0
  180.0030  179.4300  140.0000 C   0  0  0  0  0  3  0  0  0  0  0  0
  184.6940  179.1200  138.9600 C   0  0  0  0  0  2  0  0  0  0  0  0
  184.2960  174.9510  136.9090 C   0  0  0  0  0  2  0  0  0  0  0  0
  184.5260  178.2090  142.1630 C   0  0  1  0  0  3  0  0  0  0  0  0
  178.9310  173.0550  135.1200 C   0  0  0  0  0  1  0  0  0  0  0  0
  179.8000  172.5760  136.2660 C   0  0  0  0  0  3  0  0  0  0  0  0
  179.2230  171.3030  136.8550 C   0  0  0  0  0  1  0  0  0  0  0  0
  184.0380  178.5770  143.5600 C   0  0  0  0  0  2  0  0  0  0  0  0
  185.8470  178.3070  146.9560 C   0  0  0  0  0  3  0  0  0  0  0  0
  186.3360  178.1370  144.1850 N   0  0  0  0  0  0  0  0  0  0  0  0
  187.3410  177.9480  145.1510 N   0  0  0  0  0  0  0  0  0  0  0  0
  184.8070  178.4480  145.9760 N   0  0  0  0  0  0  0  0  0  0  0  0
  187.0760  178.0620  146.5210 C   0  0  0  0  0  0  0  0  0  0  0  0
  188.7010  177.7910  144.8570 N   0  0  1  0  0  0  0  0  0  0  0  0
  188.3060  177.9390  147.3000 C   0  0  0  0  0  3  0  0  0  0  0  0
  185.1130  178.3610  144.5700 C   0  0  0  0  0  0  0  0  0  0  0  0
  189.3590  177.7740  146.1820 C   0  0  0  0  0  2  0  0  0  0  0  0
  188.8750  176.4640  144.2760 C   0  0  0  0  0  3  0  0  0  0  0  0
  188.7380  176.5480  142.7670 C   0  0  0  0  0  2  0  0  0  0  0  0
  190.1110  176.4530  143.3940 C   0  0  0  0  0  2  0  0  0  0  0  0
  2  5  1  0  0  0  0
  2 18  2  0  0  0  0
  4  1  1  0  0  0  0
  4  7  1  0  0  0  0
  5 23  1  1  0  0  0
  5 12  1  0  0  0  0
  6 14  1  0  0  0  0
  8  9  1  0  0  0  0
  8  1  2  0  0  0  0
  9 24  1  0  0  0  0
 10 20  1  0  0  0  0
 11 15  1  0  0  0  0
 12 17  2  0  0  0  0
 12  6  1  0  0  0  0
 13 14  2  0  0  0  0
 13 21  1  0  0  0  0
 14  8  1  0  0  0  0
 15 24  1  0  0  0  0
 16 18  1  0  0  0  0
 16  3  1  0  0  0  0
 18 17  1  0  0  0  0
 19 20  1  6  0  0  0
 19  6  1  0  0  0  0
 19 22  1  0  0  0  0
 21  4  2  0  0  0  0
 22 11  1  0  0  0  0
 23 10  1  0  0  0  0
 24 28  1  1  0  0  0
 25 26  1  0  0  0  0
 26 27  1  0  0  0  0
 26 16  1  0  0  0  0
 28 36  1  0  0  0  0
 30 36  2  0  0  0  0
 30 31  1  0  0  0  0
 31 33  1  0  0  0  0
 32 29  2  0  0  0  0
 33 29  1  0  0  0  0
 33 35  2  0  0  0  0
 34 38  1  1  0  0  0
 34 31  1  0  0  0  0
 34 37  1  0  0  0  0
 36 32  1  0  0  0  0
 37 35  1  0  0  0  0
 39 40  1  0  0  0  0
 39 38  1  0  0  0  0
 40 38  1  0  0  0  0
M  END
>  <MODEL>
1

>  <REMARK>
 VINA RESULT:      -8.5      0.000      0.000
  Name = 
  4 active torsions:
  status: ('A' for Active; 'I' for Inactive)
    1  A    between atoms: C_6  and  N_26
    2  A    between atoms: C_15  and  N_28
    3  A    between atoms: C_31  and  C_37
    4  A    between atoms: C_37  and  C_40
                            x       y       z     vdW  Elec       q    Type
                         _______ _______ _______ _____ _____    ______ ____

>  <TORSDO>
F 4

$$$$
=
 OpenBabel10222415413D

 40 46  0  0  1  0  0  0  0  0999 V2000
  191.8090  174.9850  137.4980 C   0  0  0  0  0  3  0  0  0  0  0  0
  189.6030  178.0540  143.4180 N   0  0  0  0  0  0  0  0  0  0  0  0
  192.0520  175.5810  144.3490 O   0  0  0  0  0  1  0  0  0  0  0  0
  193.1150  175.4630  137.6300 C   0  0  0  0  0  0  0  0  0  0  0  0
  189.1580  178.3830  142.0730 C   0  0  1  0  0  3  0  0  0  0  0  0
  189.9570  177.3370  139.7510 N   0  0  0  0  0  0  0  0  0  0  0  0
  194.1220  174.8850  136.9310 F   0  0  0  0  0  0  0  0  0  0  0  0
  190.7640  175.5750  138.2220 C   0  0  0  0  0  0  0  0  0  0  0  0
  189.4530  175.0890  138.1300 O   0  0  0  0  0  0  0  0  0  0  0  0
  187.0790  178.6260  140.6460 C   0  0  0  0  0  2  0  0  0  0  0  0
  187.9860  177.2220  136.7200 C   0  0  0  0  0  2  0  0  0  0  0  0
  189.9690  177.4200  141.2110 C   0  0  0  0  0  0  0  0  0  0  0  0
  192.3460  177.1330  139.2020 C   0  0  0  0  0  3  0  0  0  0  0  0
  191.0320  176.6640  139.0690 C   0  0  0  0  0  0  0  0  0  0  0  0
  188.7380  176.0930  136.0280 C   0  0  0  0  0  2  0  0  0  0  0  0
  191.1300  176.5630  144.5010 N   0  0  0  0  0  0  0  0  0  0  0  0
  190.7580  176.6850  141.9830 C   0  0  0  0  0  3  0  0  0  0  0  0
  190.4870  177.1150  143.3460 C   0  0  0  0  0  0  0  0  0  0  0  0
  188.8490  177.8690  138.9800 C   0  0  1  0  0  3  0  0  0  0  0  0
  187.8250  178.2940  139.6460 C   0  0  0  0  0  2  0  0  0  0  0  0
  193.3850  176.5320  138.4880 C   0  0  0  0  0  3  0  0  0  0  0  0
  188.9450  178.1120  137.5020 C   0  0  0  0  0  2  0  0  0  0  0  0
  187.6250  178.1810  141.9740 C   0  0  0  0  0  2  0  0  0  0  0  0
  188.7780  174.8370  136.8980 C   0  0  1  0  0  3  0  0  0  0  0  0
  191.6860  176.3840  146.8710 C   0  0  0  0  0  1  0  0  0  0  0  0
  190.7960  177.0450  145.8360 C   0  0  0  0  0  3  0  0  0  0  0  0
  189.3390  176.7590  146.1490 C   0  0  0  0  0  1  0  0  0  0  0  0
  189.3890  173.6540  136.1570 C   0  0  0  0  0  2  0  0  0  0  0  0
  187.7570  170.3530  135.0090 C   0  0  0  0  0  3  0  0  0  0  0  0
  187.0900  172.9110  135.9880 N   0  0  0  0  0  0  0  0  0  0  0  0
  186.1250  171.9330  135.6870 N   0  0  0  0  0  0  0  0  0  0  0  0
  188.7490  171.3280  135.3660 N   0  0  0  0  0  2  0  0  0  0  0  0
  186.4810  170.6790  135.1790 C   0  0  0  0  0  0  0  0  0  0  0  0
  184.7420  172.1550  135.7070 N   0  0  0  0  0  0  0  0  0  0  0  0
  185.2930  169.8990  134.8390 C   0  0  0  0  0  3  0  0  0  0  0  0
  188.3540  172.6250  135.8540 C   0  0  0  0  0  0  0  0  0  0  0  0
  184.1660  170.8960  135.1840 C   0  0  0  0  0  3  0  0  0  0  0  0
  184.3350  172.2650  137.1030 C   0  0  0  0  0  3  0  0  0  0  0  0
  184.5920  173.6760  137.5990 C   0  0  0  0  0  2  0  0  0  0  0  0
  183.1900  173.2550  137.2230 C   0  0  0  0  0  2  0  0  0  0  0  0
  1  4  2  0  0  0  0
  1  8  1  0  0  0  0
  3 16  1  0  0  0  0
  4 21  1  0  0  0  0
  5 23  1  1  0  0  0
  5  2  1  0  0  0  0
  6 12  1  0  0  0  0
  7  4  1  0  0  0  0
  8 14  2  0  0  0  0
  9  8  1  0  0  0  0
 10 23  1  0  0  0  0
 11 22  1  0  0  0  0
 12 17  2  0  0  0  0
 12  5  1  0  0  0  0
 14 13  1  0  0  0  0
 14  6  1  0  0  0  0
 15 11  1  0  0  0  0
 15 24  1  0  0  0  0
 16 26  1  0  0  0  0
 17 18  1  0  0  0  0
 18  2  2  0  0  0  0
 18 16  1  0  0  0  0
 19 22  1  1  0  0  0
 19 20  1  0  0  0  0
 19  6  1  0  0  0  0
 20 10  1  0  0  0  0
 21 13  2  0  0  0  0
 24 28  1  6  0  0  0
 24  9  1  0  0  0  0
 26 27  1  0  0  0  0
 26 25  1  0  0  0  0
 29 33  2  0  0  0  0
 29 32  1  0  0  0  0
 31 34  1  0  0  0  0
 31 30  1  0  0  0  0
 32 36  1  0  0  0  0
 33 31  1  0  0  0  0
 34 38  1  0  0  0  0
 35 33  1  0  0  0  0
 35 37  2  0  0  0  0
 36 30  2  0  0  0  0
 36 28  1  0  0  0  0
 37 34  1  0  0  0  0
 38 40  1  0  0  0  0
 38 39  1  0  0  0  0
 40 39  1  0  0  0  0
M  END
>  <MODEL>
2

>  <REMARK>
 VINA RESULT:      -8.4      5.062     11.113
  Name = 
  4 active torsions:
  status: ('A' for Active; 'I' for Inactive)
    1  A    between atoms: C_6  and  N_26
    2  A    between atoms: C_15  and  N_28
    3  A    between atoms: C_31  and  C_37
    4  A    between atoms: C_37  and  C_40
                            x       y       z     vdW  Elec       q    Type
                         _______ _______ _______ _____ _____    ______ ____

>  <TORSDO>
F 4

$$$$
=
 OpenBabel10222415413D

 40 46  0  0  1  0  0  0  0  0999 V2000
  184.4810  178.3310  138.6090 C   0  0  0  0  0  3  0  0  0  0  0  0
  178.9520  182.6400  138.1650 N   0  0  0  0  0  0  0  0  0  0  0  0
  181.2620  183.6000  135.5720 O   0  0  0  0  0  1  0  0  0  0  0  0
  184.2450  177.7530  137.3590 C   0  0  0  0  0  0  0  0  0  0  0  0
  179.1090  181.5550  139.1200 C   0  0  1  0  0  3  0  0  0  0  0  0
  181.1230  179.8190  139.3530 N   0  0  0  0  0  0  0  0  0  0  0  0
  185.2310  177.0660  136.7340 F   0  0  0  0  0  0  0  0  0  0  0  0
  183.4660  179.0460  139.2590 C   0  0  0  0  0  0  0  0  0  0  0  0
  183.6920  179.6620  140.4970 O   0  0  0  0  0  0  0  0  0  0  0  0
  179.0680  181.0350  141.5980 C   0  0  0  0  0  2  0  0  0  0  0  0
  182.0640  178.1020  142.3940 C   0  0  0  0  0  2  0  0  0  0  0  0
  180.4690  180.9760  138.7420 C   0  0  0  0  0  0  0  0  0  0  0  0
  181.9750  178.5880  137.4010 C   0  0  0  0  0  3  0  0  0  0  0  0
  182.2010  179.1640  138.6580 C   0  0  0  0  0  0  0  0  0  0  0  0
  183.4940  177.7570  142.0030 C   0  0  0  0  0  2  0  0  0  0  0  0
  180.1470  183.6290  136.3420 N   0  0  0  0  0  0  0  0  0  0  0  0
  180.9700  181.6460  137.7130 C   0  0  0  0  0  3  0  0  0  0  0  0
  179.9900  182.6730  137.3960 C   0  0  0  0  0  0  0  0  0  0  0  0
  180.7450  179.3560  140.6740 C   0  0  1  0  0  3  0  0  0  0  0  0
  179.9050  180.0890  141.3310 C   0  0  0  0  0  2  0  0  0  0  0  0
  182.9940  177.8880  136.7520 C   0  0  0  0  0  3  0  0  0  0  0  0
  181.1340  178.0020  141.1910 C   0  0  0  0  0  2  0  0  0  0  0  0
  179.0420  182.1210  140.5600 C   0  0  0  0  0  2  0  0  0  0  0  0
  184.2820  179.0100  141.6210 C   0  0  1  0  0  3  0  0  0  0  0  0
  178.9310  184.8360  134.6030 C   0  0  0  0  0  1  0  0  0  0  0  0
  179.1190  184.6340  136.0940 C   0  0  0  0  0  3  0  0  0  0  0  0
  179.5010  185.9480  136.7490 C   0  0  0  0  0  1  0  0  0  0  0  0
  185.7550  178.7000  141.3780 C   0  0  0  0  0  2  0  0  0  0  0  0
  186.3300  177.9300  145.1140 C   0  0  0  0  0  3  0  0  0  0  0  0
  187.7250  178.1480  142.6740 N   0  0  0  0  0  0  0  0  0  0  0  0
  188.3550  177.8120  143.8860 N   0  0  0  0  0  0  0  0  0  0  0  0
  185.6740  178.2210  143.8700 N   0  0  0  0  0  0  0  0  0  0  0  0
  187.6430  177.7340  145.0890 C   0  0  0  0  0  0  0  0  0  0  0  0
  189.7390  177.6810  144.0480 N   0  0  1  0  0  0  0  0  0  0  0  0
  188.5440  177.4870  146.2110 C   0  0  0  0  0  3  0  0  0  0  0  0
  186.4360  178.3300  142.6520 C   0  0  0  0  0  0  0  0  0  0  0  0
  189.9160  177.4690  145.5020 C   0  0  0  0  0  2  0  0  0  0  0  0
  190.1460  176.4480  143.3830 C   0  0  0  0  0  3  0  0  0  0  0  0
  190.5550  176.7510  141.9540 C   0  0  0  0  0  2  0  0  0  0  0  0
  191.6150  176.5320  143.0100 C   0  0  0  0  0  2  0  0  0  0  0  0
  1  8  1  0  0  0  0
  2  5  1  0  0  0  0
  3 16  1  0  0  0  0
  4  1  2  0  0  0  0
  5 23  1  1  0  0  0
  6 19  1  0  0  0  0
  7  4  1  0  0  0  0
  8  9  1  0  0  0  0
  9 24  1  0  0  0  0
 12  5  1  0  0  0  0
 12  6  1  0  0  0  0
 13 14  1  0  0  0  0
 14  8  2  0  0  0  0
 14  6  1  0  0  0  0
 15 11  1  0  0  0  0
 16 18  1  0  0  0  0
 17 12  2  0  0  0  0
 18 17  1  0  0  0  0
 18  2  2  0  0  0  0
 19 22  1  6  0  0  0
 19 20  1  0  0  0  0
 20 10  1  0  0  0  0
 21  4  1  0  0  0  0
 21 13  2  0  0  0  0
 22 11  1  0  0  0  0
 23 10  1  0  0  0  0
 24 28  1  6  0  0  0
 24 15  1  0  0  0  0
 25 26  1  0  0  0  0
 26 16  1  0  0  0  0
 26 27  1  0  0  0  0
 28 36  1  0  0  0  0
 30 31  1  0  0  0  0
 31 34  1  0  0  0  0
 31 33  1  0  0  0  0
 32 29  2  0  0  0  0
 33 29  1  0  0  0  0
 33 35  2  0  0  0  0
 34 38  1  6  0  0  0
 34 37  1  0  0  0  0
 36 30  2  0  0  0  0
 36 32  1  0  0  0  0
 37 35  1  0  0  0  0
 39 40  1  0  0  0  0
 39 38  1  0  0  0  0
 40 38  1  0  0  0  0
M  END
>  <MODEL>
3

>  <REMARK>
 VINA RESULT:      -7.8      3.562      6.090
  Name = 
  4 active torsions:
  status: ('A' for Active; 'I' for Inactive)
    1  A    between atoms: C_6  and  N_26
    2  A    between atoms: C_15  and  N_28
    3  A    between atoms: C_31  and  C_37
    4  A    between atoms: C_37  and  C_40
                            x       y       z     vdW  Elec       q    Type
                         _______ _______ _______ _____ _____    ______ ____

>  <TORSDO>
F 4

$$$$
=
 OpenBabel10222415413D

 40 46  0  0  1  0  0  0  0  0999 V2000
  189.2570  178.4440  138.0900 C   0  0  0  0  0  3  0  0  0  0  0  0
  184.4270  173.5870  136.5350 N   0  0  0  0  0  0  0  0  0  0  0  0
  182.6960  176.3690  138.0340 O   0  0  0  0  0  1  0  0  0  0  0  0
  188.7400  179.3780  137.1890 C   0  0  0  0  0  0  0  0  0  0  0  0
  185.8540  173.4810  136.2750 C   0  0  1  0  0  3  0  0  0  0  0  0
  187.7740  175.2690  136.7620 N   0  0  0  0  0  0  0  0  0  0  0  0
  189.0700  180.6860  137.3040 F   0  0  0  0  0  0  0  0  0  0  0  0
  188.9150  177.0900  137.9790 C   0  0  0  0  0  0  0  0  0  0  0  0
  189.3960  176.1430  138.8930 O   0  0  0  0  0  0  0  0  0  0  0  0
  187.8660  171.9950  136.6740 C   0  0  0  0  0  2  0  0  0  0  0  0
  191.2630  174.4950  137.3180 C   0  0  0  0  0  2  0  0  0  0  0  0
  186.3870  174.8090  136.8050 C   0  0  0  0  0  0  0  0  0  0  0  0
  187.5430  177.6120  136.0470 C   0  0  0  0  0  3  0  0  0  0  0  0
  188.0640  176.6690  136.9430 C   0  0  0  0  0  0  0  0  0  0  0  0
  191.6480  175.7800  138.0390 C   0  0  0  0  0  2  0  0  0  0  0  0
  182.8730  175.1510  137.4660 N   0  0  0  0  0  0  0  0  0  0  0  0
  185.3830  175.5400  137.2710 C   0  0  0  0  0  3  0  0  0  0  0  0
  184.1880  174.7320  137.0850 C   0  0  0  0  0  0  0  0  0  0  0  0
  188.8700  174.3330  136.6000 C   0  0  1  0  0  3  0  0  0  0  0  0
  188.5720  173.0750  136.6290 C   0  0  0  0  0  2  0  0  0  0  0  0
  187.8760  178.9620  136.1720 C   0  0  0  0  0  3  0  0  0  0  0  0
  190.2520  174.7740  136.2140 C   0  0  0  0  0  2  0  0  0  0  0  0
  186.4200  172.2370  137.0050 C   0  0  0  0  0  2  0  0  0  0  0  0
  190.7670  176.0140  139.2650 C   0  0  1  0  0  3  0  0  0  0  0  0
  181.1170  174.5330  135.8860 C   0  0  0  0  0  1  0  0  0  0  0  0
  181.7250  174.2770  137.2520 C   0  0  0  0  0  3  0  0  0  0  0  0
  180.6830  174.5030  138.3310 C   0  0  0  0  0  1  0  0  0  0  0  0
  191.2410  177.2100  140.0820 C   0  0  0  0  0  2  0  0  0  0  0  0
  190.7760  177.0780  143.9090 C   0  0  0  0  0  3  0  0  0  0  0  0
  189.2940  177.2860  141.5200 N   0  0  0  0  0  0  0  0  0  0  0  0
  188.6950  177.2880  142.7930 N   0  0  0  0  0  0  0  0  0  0  0  0
  191.3960  177.1290  142.6150 N   0  0  0  0  0  0  0  0  0  0  0  0
  189.4520  177.1600  143.9640 C   0  0  0  0  0  0  0  0  0  0  0  0
  187.3130  177.2590  143.0170 N   0  0  1  0  0  0  0  0  0  0  0  0
  188.5860  177.0710  145.1360 C   0  0  0  0  0  3  0  0  0  0  0  0
  190.5910  177.2270  141.4240 C   0  0  0  0  0  0  0  0  0  0  0  0
  187.1860  177.1260  144.4850 C   0  0  0  0  0  2  0  0  0  0  0  0
  186.7800  178.5680  142.6580 C   0  0  0  0  0  3  0  0  0  0  0  0
  186.4280  178.5860  141.1820 C   0  0  0  0  0  2  0  0  0  0  0  0
  185.3360  178.4250  142.2140 C   0  0  0  0  0  2  0  0  0  0  0  0
  2 18  2  0  0  0  0
  4  7  1  0  0  0  0
  4  1  2  0  0  0  0
  5  2  1  0  0  0  0
  5 12  1  0  0  0  0
  5 23  1  1  0  0  0
  6 12  1  0  0  0  0
  6 14  1  0  0  0  0
  8  1  1  0  0  0  0
  8  9  1  0  0  0  0
  9 24  1  0  0  0  0
 10 23  1  0  0  0  0
 11 15  1  0  0  0  0
 12 17  2  0  0  0  0
 13 21  2  0  0  0  0
 13 14  1  0  0  0  0
 14  8  2  0  0  0  0
 15 24  1  0  0  0  0
 16  3  1  0  0  0  0
 18 17  1  0  0  0  0
 18 16  1  0  0  0  0
 19 22  1  6  0  0  0
 19 20  1  0  0  0  0
 19  6  1  0  0  0  0
 20 10  1  0  0  0  0
 21  4  1  0  0  0  0
 22 11  1  0  0  0  0
 24 28  1  6  0  0  0
 25 26  1  0  0  0  0
 26 16  1  0  0  0  0
 26 27  1  0  0  0  0
 28 36  1  0  0  0  0
 29 33  1  0  0  0  0
 30 31  1  0  0  0  0
 31 34  1  0  0  0  0
 31 33  1  0  0  0  0
 32 29  2  0  0  0  0
 33 35  2  0  0  0  0
 34 38  1  1  0  0  0
 34 37  1  0  0  0  0
 36 30  2  0  0  0  0
 36 32  1  0  0  0  0
 37 35  1  0  0  0  0
 39 40  1  0  0  0  0
 39 38  1  0  0  0  0
 40 38  1  0  0  0  0
M  END
>  <MODEL>
4

>  <REMARK>
 VINA RESULT:      -7.7      3.700      5.825
  Name = 
  4 active torsions:
  status: ('A' for Active; 'I' for Inactive)
    1  A    between atoms: C_6  and  N_26
    2  A    between atoms: C_15  and  N_28
    3  A    between atoms: C_31  and  C_37
    4  A    between atoms: C_37  and  C_40
                            x       y       z     vdW  Elec       q    Type
                         _______ _______ _______ _____ _____    ______ ____

>  <TORSDO>
F 4

$$$$
=
 OpenBabel10222415413D

 40 46  0  0  1  0  0  0  0  0999 V2000
  189.3250  174.8320  136.3230 C   0  0  0  0  0  3  0  0  0  0  0  0
  188.3770  178.5310  142.2190 N   0  0  0  0  0  0  0  0  0  0  0  0
  190.9480  176.0970  142.8890 O   0  0  0  0  0  1  0  0  0  0  0  0
  190.6340  175.2860  136.1420 C   0  0  0  0  0  0  0  0  0  0  0  0
  187.6720  178.7360  140.9630 C   0  0  1  0  0  3  0  0  0  0  0  0
  187.9800  177.4450  138.6490 N   0  0  0  0  0  0  0  0  0  0  0  0
  191.4750  174.6150  135.3190 F   0  0  0  0  0  0  0  0  0  0  0  0
  188.4510  175.5190  137.1780 C   0  0  0  0  0  0  0  0  0  0  0  0
  187.1450  175.0620  137.3990 O   0  0  0  0  0  0  0  0  0  0  0  0
  185.3500  178.8920  139.9640 C   0  0  0  0  0  2  0  0  0  0  0  0
  185.4380  177.0830  136.1010 C   0  0  0  0  0  2  0  0  0  0  0  0
  188.2860  177.6710  140.0600 C   0  0  0  0  0  0  0  0  0  0  0  0
  190.2080  177.1230  137.6570 C   0  0  0  0  0  3  0  0  0  0  0  0
  188.8910  176.6790  137.8380 C   0  0  0  0  0  0  0  0  0  0  0  0
  186.0270  175.8710  135.3910 C   0  0  0  0  0  2  0  0  0  0  0  0
  190.0810  177.1130  143.1220 N   0  0  0  0  0  0  0  0  0  0  0  0
  189.2100  176.9950  140.7300 C   0  0  0  0  0  3  0  0  0  0  0  0
  189.2230  177.5660  142.0690 C   0  0  0  0  0  0  0  0  0  0  0  0
  186.7430  177.9270  138.0640 C   0  0  1  0  0  3  0  0  0  0  0  0
  185.8770  178.4430  138.8740 C   0  0  0  0  0  2  0  0  0  0  0  0
  191.0770  176.4260  136.8150 C   0  0  0  0  0  3  0  0  0  0  0  0
  186.5400  178.0190  136.5800 C   0  0  0  0  0  2  0  0  0  0  0  0
  186.1490  178.5660  141.1940 C   0  0  0  0  0  2  0  0  0  0  0  0
  186.2340  174.7070  136.3600 C   0  0  1  0  0  3  0  0  0  0  0  0
  191.3490  177.5550  145.1600 C   0  0  0  0  0  1  0  0  0  0  0  0
  190.0270  177.7340  144.4400 C   0  0  0  0  0  3  0  0  0  0  0  0
  188.9050  177.1250  145.2610 C   0  0  0  0  0  1  0  0  0  0  0  0
  186.6760  173.4400  135.6360 C   0  0  0  0  0  2  0  0  0  0  0  0
  184.8030  170.0910  135.2500 C   0  0  0  0  0  3  0  0  0  0  0  0
  184.3330  172.8300  135.7190 N   0  0  0  0  0  0  0  0  0  0  0  0
  183.3000  171.8770  135.6630 N   0  0  0  0  0  0  0  0  0  0  0  0
  185.8650  171.0500  135.3600 N   0  0  0  0  0  0  0  0  0  0  0  0
  183.5580  170.5260  135.4040 C   0  0  0  0  0  0  0  0  0  0  0  0
  181.9350  172.1880  135.6970 N   0  0  1  0  0  0  0  0  0  0  0  0
  182.3130  169.7730  135.2800 C   0  0  0  0  0  3  0  0  0  0  0  0
  185.5700  172.4410  135.5920 C   0  0  0  0  0  0  0  0  0  0  0  0
  181.2620  170.8900  135.4640 C   0  0  0  0  0  2  0  0  0  0  0  0
  181.6110  172.6000  137.0580 C   0  0  0  0  0  3  0  0  0  0  0  0
  181.7040  174.1110  137.1680 C   0  0  0  0  0  2  0  0  0  0  0  0
  180.3520  173.4460  137.0470 C   0  0  0  0  0  2  0  0  0  0  0  0
  1  8  1  0  0  0  0
  3 16  1  0  0  0  0
  4  1  2  0  0  0  0
  4 21  1  0  0  0  0
  5 23  1  1  0  0  0
  5  2  1  0  0  0  0
  6 12  1  0  0  0  0
  7  4  1  0  0  0  0
  8  9  1  0  0  0  0
  8 14  2  0  0  0  0
 10 23  1  0  0  0  0
 11 22  1  0  0  0  0
 12 17  2  0  0  0  0
 12  5  1  0  0  0  0
 13 14  1  0  0  0  0
 14  6  1  0  0  0  0
 15 11  1  0  0  0  0
 15 24  1  0  0  0  0
 16 26  1  0  0  0  0
 17 18  1  0  0  0  0
 18  2  2  0  0  0  0
 18 16  1  0  0  0  0
 19 22  1  6  0  0  0
 19  6  1  0  0  0  0
 19 20  1  0  0  0  0
 20 10  1  0  0  0  0
 21 13  2  0  0  0  0
 24 28  1  6  0  0  0
 24  9  1  0  0  0  0
 26 25  1  0  0  0  0
 26 27  1  0  0  0  0
 29 32  2  0  0  0  0
 29 33  1  0  0  0  0
 31 34  1  0  0  0  0
 31 30  1  0  0  0  0
 32 36  1  0  0  0  0
 33 31  1  0  0  0  0
 34 38  1  1  0  0  0
 35 33  2  0  0  0  0
 35 37  1  0  0  0  0
 36 28  1  0  0  0  0
 36 30  2  0  0  0  0
 37 34  1  0  0  0  0
 38 39  1  0  0  0  0
 40 38  1  0  0  0  0
 40 39  1  0  0  0  0
M  END
>  <MODEL>
5

>  <REMARK>
 VINA RESULT:      -7.6      4.116     10.537
  Name = 
  4 active torsions:
  status: ('A' for Active; 'I' for Inactive)
    1  A    between atoms: C_6  and  N_26
    2  A    between atoms: C_15  and  N_28
    3  A    between atoms: C_31  and  C_37
    4  A    between atoms: C_37  and  C_40
                            x       y       z     vdW  Elec       q    Type
                         _______ _______ _______ _____ _____    ______ ____

>  <TORSDO>
F 4

$$$$
=
 OpenBabel10222415413D

 40 46  0  0  1  0  0  0  0  0999 V2000
  185.5630  178.2810  139.2020 C   0  0  0  0  0  3  0  0  0  0  0  0
  185.6800  172.8140  134.7950 N   0  0  0  0  0  0  0  0  0  0  0  0
  182.8360  172.3740  136.9620 O   0  0  0  0  0  1  0  0  0  0  0  0
  184.3540  178.7730  138.7040 C   0  0  0  0  0  0  0  0  0  0  0  0
  186.6250  173.9200  134.8040 C   0  0  1  0  0  3  0  0  0  0  0  0
  186.6550  176.0730  136.3790 N   0  0  0  0  0  0  0  0  0  0  0  0
  183.6310  179.6580  139.4310 F   0  0  0  0  0  0  0  0  0  0  0  0
  186.3120  177.3610  138.4570 C   0  0  0  0  0  0  0  0  0  0  0  0
  187.5100  176.8300  138.9540 O   0  0  0  0  0  0  0  0  0  0  0  0
  189.0990  174.4490  134.9190 C   0  0  0  0  0  2  0  0  0  0  0  0
  189.5940  178.0010  137.2310 C   0  0  0  0  0  2  0  0  0  0  0  0
  186.1060  174.7890  135.9440 C   0  0  0  0  0  0  0  0  0  0  0  0
  184.6360  177.4410  136.7050 C   0  0  0  0  0  3  0  0  0  0  0  0
  185.8530  176.9490  137.1940 C   0  0  0  0  0  0  0  0  0  0  0  0
  189.0510  178.6590  138.4930 C   0  0  0  0  0  2  0  0  0  0  0  0
  183.7240  172.1010  135.9750 N   0  0  0  0  0  0  0  0  0  0  0  0
  185.0190  174.2380  136.4680 C   0  0  0  0  0  3  0  0  0  0  0  0
  184.8010  173.0100  135.7210 C   0  0  0  0  0  0  0  0  0  0  0  0
  188.0160  176.4550  136.0530 C   0  0  1  0  0  3  0  0  0  0  0  0
  188.7530  175.5580  135.4820 C   0  0  0  0  0  2  0  0  0  0  0  0
  183.8870  178.3470  137.4580 C   0  0  0  0  0  3  0  0  0  0  0  0
  188.5030  177.8690  136.1760 C   0  0  0  0  0  2  0  0  0  0  0  0
  188.0560  173.3720  135.0270 C   0  0  0  0  0  2  0  0  0  0  0  0
  188.5690  177.6160  139.4990 C   0  0  1  0  0  3  0  0  0  0  0  0
  182.1680  170.7760  134.6390 C   0  0  0  0  0  1  0  0  0  0  0  0
  183.5790  170.8840  135.1840 C   0  0  0  0  0  3  0  0  0  0  0  0
  183.9000  169.6660  136.0310 C   0  0  0  0  0  1  0  0  0  0  0  0
  188.1690  178.2510  140.8260 C   0  0  0  0  0  2  0  0  0  0  0  0
  191.4600  177.3700  142.6330 C   0  0  0  0  0  3  0  0  0  0  0  0
  188.6870  177.5780  143.0940 N   0  0  0  0  0  0  0  0  0  0  0  0
  189.6030  177.2140  144.0970 N   0  0  0  0  0  0  0  0  0  0  0  0
  190.5370  177.7950  141.6190 N   0  0  0  0  0  0  0  0  0  0  0  0
  190.9730  177.0940  143.8360 C   0  0  0  0  0  0  0  0  0  0  0  0
  189.2400  176.7890  145.3810 N   0  0  1  0  0  0  0  0  0  0  0  0
  191.6830  176.5900  145.0080 C   0  0  0  0  0  3  0  0  0  0  0  0
  189.1270  177.8760  141.9040 C   0  0  0  0  0  0  0  0  0  0  0  0
  190.5210  176.3860  146.0050 C   0  0  0  0  0  2  0  0  0  0  0  0
  188.7570  177.9550  146.1110 C   0  0  0  0  0  3  0  0  0  0  0  0
  187.2410  177.9940  146.0610 C   0  0  0  0  0  2  0  0  0  0  0  0
  187.9400  177.5030  147.3080 C   0  0  0  0  0  2  0  0  0  0  0  0
  2  5  1  0  0  0  0
  2 18  2  0  0  0  0
  4  1  1  0  0  0  0
  4  7  1  0  0  0  0
  5 23  1  1  0  0  0
  5 12  1  0  0  0  0
  6 14  1  0  0  0  0
  8  9  1  0  0  0  0
  8  1  2  0  0  0  0
  9 24  1  0  0  0  0
 10 23  1  0  0  0  0
 10 20  1  0  0  0  0
 11 15  1  0  0  0  0
 12  6  1  0  0  0  0
 12 17  2  0  0  0  0
 13 14  2  0  0  0  0
 13 21  1  0  0  0  0
 14  8  1  0  0  0  0
 15 24  1  0  0  0  0
 16  3  1  0  0  0  0
 18 16  1  0  0  0  0
 18 17  1  0  0  0  0
 19 20  1  6  0  0  0
 19 22  1  0  0  0  0
 19  6  1  0  0  0  0
 21  4  2  0  0  0  0
 22 11  1  0  0  0  0
 24 28  1  1  0  0  0
 25 26  1  0  0  0  0
 26 16  1  0  0  0  0
 26 27  1  0  0  0  0
 28 36  1  0  0  0  0
 29 33  1  0  0  0  0
 30 31  1  0  0  0  0
 31 34  1  0  0  0  0
 32 36  1  0  0  0  0
 32 29  2  0  0  0  0
 33 31  1  0  0  0  0
 33 35  2  0  0  0  0
 34 37  1  0  0  0  0
 34 38  1  1  0  0  0
 35 37  1  0  0  0  0
 36 30  2  0  0  0  0
 38 40  1  0  0  0  0
 39 38  1  0  0  0  0
 39 40  1  0  0  0  0
M  END
>  <MODEL>
6

>  <REMARK>
 VINA RESULT:      -7.3      3.116      4.574
  Name = 
  4 active torsions:
  status: ('A' for Active; 'I' for Inactive)
    1  A    between atoms: C_6  and  N_26
    2  A    between atoms: C_15  and  N_28
    3  A    between atoms: C_31  and  C_37
    4  A    between atoms: C_37  and  C_40
                            x       y       z     vdW  Elec       q    Type
                         _______ _______ _______ _____ _____    ______ ____

>  <TORSDO>
F 4

$$$$
=
 OpenBabel10222415413D

 40 46  0  0  1  0  0  0  0  0999 V2000
  187.8560  177.0130  136.2120 C   0  0  0  0  0  3  0  0  0  0  0  0
  188.4130  178.2980  143.0950 N   0  0  0  0  0  0  0  0  0  0  0  0
  191.4810  176.7210  142.0540 O   0  0  0  0  0  1  0  0  0  0  0  0
  188.8890  177.8890  135.8730 C   0  0  0  0  0  0  0  0  0  0  0  0
  187.2720  178.6320  142.2570 C   0  0  1  0  0  3  0  0  0  0  0  0
  186.9630  178.2520  139.6340 N   0  0  0  0  0  0  0  0  0  0  0  0
  189.4870  177.7950  134.6600 F   0  0  0  0  0  0  0  0  0  0  0  0
  187.2380  177.1010  137.4670 C   0  0  0  0  0  0  0  0  0  0  0  0
  186.2230  176.2100  137.8390 O   0  0  0  0  0  0  0  0  0  0  0  0
  184.7640  178.3330  142.0630 C   0  0  0  0  0  2  0  0  0  0  0  0
  183.7930  177.8750  137.9340 C   0  0  0  0  0  2  0  0  0  0  0  0
  187.7120  178.1350  140.8840 C   0  0  0  0  0  0  0  0  0  0  0  0
  188.6900  178.9610  138.0320 C   0  0  0  0  0  3  0  0  0  0  0  0
  187.6470  178.0900  138.3770 C   0  0  0  0  0  0  0  0  0  0  0  0
  184.3110  177.1790  136.6810 C   0  0  0  0  0  2  0  0  0  0  0  0
  190.5750  177.2940  142.8840 N   0  0  0  0  0  0  0  0  0  0  0  0
  188.9320  177.6200  140.9650 C   0  0  0  0  0  3  0  0  0  0  0  0
  189.3190  177.7410  142.3620 C   0  0  0  0  0  0  0  0  0  0  0  0
  185.5280  178.4670  139.6380 C   0  0  1  0  0  3  0  0  0  0  0  0
  184.9340  178.4180  140.7860 C   0  0  0  0  0  2  0  0  0  0  0  0
  189.3110  178.8580  136.7860 C   0  0  0  0  0  3  0  0  0  0  0  0
  184.7830  178.9260  138.4190 C   0  0  0  0  0  2  0  0  0  0  0  0
  186.0060  177.9280  142.8070 C   0  0  0  0  0  2  0  0  0  0  0  0
  185.0850  175.9090  137.0320 C   0  0  1  0  0  3  0  0  0  0  0  0
  191.6810  178.7140  144.5330 C   0  0  0  0  0  1  0  0  0  0  0  0
  190.8840  177.4450  144.3020 C   0  0  0  0  0  3  0  0  0  0  0  0
  191.6680  176.2450  144.8000 C   0  0  0  0  0  1  0  0  0  0  0  0
  185.4740  175.1220  135.7860 C   0  0  0  0  0  2  0  0  0  0  0  0
  185.1780  171.2780  135.6770 C   0  0  0  0  0  3  0  0  0  0  0  0
  183.5940  173.5990  135.8950 N   0  0  0  0  0  0  0  0  0  0  0  0
  183.0530  172.3010  135.9110 N   0  0  0  0  0  0  0  0  0  0  0  0
  185.7410  172.5990  135.7140 N   0  0  0  0  0  0  0  0  0  0  0  0
  183.8600  171.1650  135.7770 C   0  0  0  0  0  0  0  0  0  0  0  0
  181.6820  172.0160  135.9020 N   0  0  1  0  0  0  0  0  0  0  0  0
  183.0450  169.9550  135.7050 C   0  0  0  0  0  3  0  0  0  0  0  0
  184.8850  173.7530  135.8180 C   0  0  0  0  0  0  0  0  0  0  0  0
  181.6190  170.5430  135.7770 C   0  0  0  0  0  2  0  0  0  0  0  0
  181.1520  172.3580  137.2170 C   0  0  0  0  0  3  0  0  0  0  0  0
  180.6880  173.8030  137.2190 C   0  0  0  0  0  2  0  0  0  0  0  0
  179.6750  172.6870  137.1000 C   0  0  0  0  0  2  0  0  0  0  0  0
  1  8  1  0  0  0  0
  3 16  1  0  0  0  0
  4  1  2  0  0  0  0
  4 21  1  0  0  0  0
  5 23  1  1  0  0  0
  5  2  1  0  0  0  0
  6 19  1  0  0  0  0
  6 12  1  0  0  0  0
  7  4  1  0  0  0  0
  8  9  1  0  0  0  0
  8 14  2  0  0  0  0
 10 23  1  0  0  0  0
 11 22  1  0  0  0  0
 12 17  2  0  0  0  0
 12  5  1  0  0  0  0
 13 14  1  0  0  0  0
 14  6  1  0  0  0  0
 15 24  1  0  0  0  0
 15 11  1  0  0  0  0
 16 26  1  0  0  0  0
 17 18  1  0  0  0  0
 18 16  1  0  0  0  0
 18  2  2  0  0  0  0
 19 22  1  1  0  0  0
 19 20  1  0  0  0  0
 20 10  1  0  0  0  0
 21 13  2  0  0  0  0
 24 28  1  6  0  0  0
 24  9  1  0  0  0  0
 26 25  1  0  0  0  0
 26 27  1  0  0  0  0
 28 36  1  0  0  0  0
 29 32  2  0  0  0  0
 29 33  1  0  0  0  0
 30 31  1  0  0  0  0
 32 36  1  0  0  0  0
 33 31  1  0  0  0  0
 34 31  1  0  0  0  0
 34 38  1  1  0  0  0
 35 37  1  0  0  0  0
 35 33  2  0  0  0  0
 36 30  2  0  0  0  0
 37 34  1  0  0  0  0
 38 39  1  0  0  0  0
 40 38  1  0  0  0  0
 40 39  1  0  0  0  0
M  END
>  <MODEL>
7

>  <REMARK>
 VINA RESULT:      -7.2      3.515     10.157
  Name = 
  4 active torsions:
  status: ('A' for Active; 'I' for Inactive)
    1  A    between atoms: C_6  and  N_26
    2  A    between atoms: C_15  and  N_28
    3  A    between atoms: C_31  and  C_37
    4  A    between atoms: C_37  and  C_40
                            x       y       z     vdW  Elec       q    Type
                         _______ _______ _______ _____ _____    ______ ____

>  <TORSDO>
F 4

$$$$
=
 OpenBabel10222415413D

 40 46  0  0  1  0  0  0  0  0999 V2000
  187.8090  178.2440  137.2020 C   0  0  0  0  0  3  0  0  0  0  0  0
  184.7510  172.1890  135.3800 N   0  0  0  0  0  0  0  0  0  0  0  0
  182.1250  174.4650  136.3300 O   0  0  0  0  0  1  0  0  0  0  0  0
  187.2310  178.9570  136.1490 C   0  0  0  0  0  0  0  0  0  0  0  0
  186.1800  172.4620  135.3530 C   0  0  1  0  0  3  0  0  0  0  0  0
  187.4550  174.7250  135.9610 N   0  0  0  0  0  0  0  0  0  0  0  0
  187.1850  180.3100  136.1930 F   0  0  0  0  0  0  0  0  0  0  0  0
  187.8550  176.8430  137.1660 C   0  0  0  0  0  0  0  0  0  0  0  0
  188.4000  176.1080  138.2270 O   0  0  0  0  0  0  0  0  0  0  0  0
  188.4080  171.5980  136.1930 C   0  0  0  0  0  2  0  0  0  0  0  0
  190.8750  174.9550  137.1170 C   0  0  0  0  0  2  0  0  0  0  0  0
  186.2490  173.9080  135.8330 C   0  0  0  0  0  0  0  0  0  0  0  0
  186.7510  176.8800  135.0060 C   0  0  0  0  0  3  0  0  0  0  0  0
  187.3350  176.1580  136.0550 C   0  0  0  0  0  0  0  0  0  0  0  0
  190.7820  176.3300  137.7660 C   0  0  0  0  0  2  0  0  0  0  0  0
  182.7070  173.3150  135.9110 N   0  0  0  0  0  0  0  0  0  0  0  0
  185.0250  174.3600  136.0700 C   0  0  0  0  0  3  0  0  0  0  0  0
  184.1310  173.2500  135.7770 C   0  0  0  0  0  0  0  0  0  0  0  0
  188.7670  174.1150  136.0580 C   0  0  1  0  0  3  0  0  0  0  0  0
  188.8060  172.8260  136.1570 C   0  0  0  0  0  2  0  0  0  0  0  0
  186.6950  178.2750  135.0550 C   0  0  0  0  0  3  0  0  0  0  0  0
  190.0320  174.8960  135.8490 C   0  0  0  0  0  2  0  0  0  0  0  0
  186.9140  171.4550  136.2730 C   0  0  0  0  0  2  0  0  0  0  0  0
  189.6720  176.3740  138.8160 C   0  0  1  0  0  3  0  0  0  0  0  0
  180.8120  172.5190  134.5940 C   0  0  0  0  0  1  0  0  0  0  0  0
  181.8810  172.1530  135.6040 C   0  0  0  0  0  3  0  0  0  0  0  0
  181.2350  171.6190  136.8690 C   0  0  0  0  0  1  0  0  0  0  0  0
  189.6700  177.6920  139.5820 C   0  0  0  0  0  2  0  0  0  0  0  0
  192.0130  177.2380  142.6120 C   0  0  0  0  0  3  0  0  0  0  0  0
  189.2770  177.2710  141.9340 N   0  0  0  0  0  0  0  0  0  0  0  0
  189.7360  177.0720  143.2490 N   0  0  0  0  0  0  0  0  0  0  0  0
  191.5490  177.4960  141.2770 N   0  0  0  0  0  0  0  0  0  0  0  0
  191.1020  177.0360  143.5550 C   0  0  0  0  0  0  0  0  0  0  0  0
  188.9130  176.7380  144.3310 N   0  0  1  0  0  0  0  0  0  0  0  0
  191.3110  176.6980  144.9600 C   0  0  0  0  0  3  0  0  0  0  0  0
  190.1390  177.4920  140.9830 C   0  0  0  0  0  0  0  0  0  0  0  0
  189.8580  176.4950  145.4440 C   0  0  0  0  0  2  0  0  0  0  0  0
  188.1400  177.9250  144.6780 C   0  0  0  0  0  3  0  0  0  0  0  0
  186.7440  177.8120  144.0930 C   0  0  0  0  0  2  0  0  0  0  0  0
  186.9700  177.5300  145.5610 C   0  0  0  0  0  2  0  0  0  0  0  0
  2 18  2  0  0  0  0
  4  7  1  0  0  0  0
  4  1  2  0  0  0  0
  5  2  1  0  0  0  0
  5 12  1  0  0  0  0
  5 23  1  1  0  0  0
  6 14  1  0  0  0  0
  6 19  1  0  0  0  0
  8  1  1  0  0  0  0
  8  9  1  0  0  0  0
  9 24  1  0  0  0  0
 10 23  1  0  0  0  0
 11 15  1  0  0  0  0
 12  6  1  0  0  0  0
 12 17  2  0  0  0  0
 13 21  2  0  0  0  0
 13 14  1  0  0  0  0
 14  8  2  0  0  0  0
 15 24  1  0  0  0  0
 16  3  1  0  0  0  0
 18 16  1  0  0  0  0
 18 17  1  0  0  0  0
 19 22  1  6  0  0  0
 19 20  1  0  0  0  0
 20 10  1  0  0  0  0
 21  4  1  0  0  0  0
 22 11  1  0  0  0  0
 24 28  1  6  0  0  0
 25 26  1  0  0  0  0
 26 16  1  0  0  0  0
 26 27  1  0  0  0  0
 28 36  1  0  0  0  0
 29 33  1  0  0  0  0
 30 31  1  0  0  0  0
 31 33  1  0  0  0  0
 31 34  1  0  0  0  0
 32 29  2  0  0  0  0
 33 35  2  0  0  0  0
 34 38  1  1  0  0  0
 34 37  1  0  0  0  0
 35 37  1  0  0  0  0
 36 32  1  0  0  0  0
 36 30  2  0  0  0  0
 38 40  1  0  0  0  0
 39 38  1  0  0  0  0
 39 40  1  0  0  0  0
M  END
>  <MODEL>
8

>  <REMARK>
 VINA RESULT:      -7.0      4.021      5.681
  Name = 
  4 active torsions:
  status: ('A' for Active; 'I' for Inactive)
    1  A    between atoms: C_6  and  N_26
    2  A    between atoms: C_15  and  N_28
    3  A    between atoms: C_31  and  C_37
    4  A    between atoms: C_37  and  C_40
                            x       y       z     vdW  Elec       q    Type
                         _______ _______ _______ _____ _____    ______ ____

>  <TORSDO>
F 4

$$$$
=
 OpenBabel10222415413D

 40 46  0  0  1  0  0  0  0  0999 V2000
  188.0310  178.5110  137.6020 C   0  0  0  0  0  3  0  0  0  0  0  0
  184.7120  172.5750  135.8430 N   0  0  0  0  0  0  0  0  0  0  0  0
  182.1830  175.0150  136.6370 O   0  0  0  0  0  1  0  0  0  0  0  0
  187.5280  179.2220  136.5100 C   0  0  0  0  0  0  0  0  0  0  0  0
  186.1530  172.7710  135.8590 C   0  0  1  0  0  3  0  0  0  0  0  0
  187.5280  174.9810  136.4480 N   0  0  0  0  0  0  0  0  0  0  0  0
  187.5540  180.5760  136.5140 F   0  0  0  0  0  0  0  0  0  0  0  0
  188.0020  177.1090  137.6060 C   0  0  0  0  0  0  0  0  0  0  0  0
  188.4700  176.3780  138.7060 O   0  0  0  0  0  0  0  0  0  0  0  0
  188.3020  171.8160  136.8000 C   0  0  0  0  0  2  0  0  0  0  0  0
  190.9150  175.0630  137.7160 C   0  0  0  0  0  2  0  0  0  0  0  0
  186.2850  174.2250  136.3010 C   0  0  0  0  0  0  0  0  0  0  0  0
  186.9740  177.1400  135.4090 C   0  0  0  0  0  3  0  0  0  0  0  0
  187.4830  176.4200  136.4970 C   0  0  0  0  0  0  0  0  0  0  0  0
  190.8750  176.4590  138.3230 C   0  0  0  0  0  2  0  0  0  0  0  0
  182.7150  173.8230  136.2710 N   0  0  0  0  0  0  0  0  0  0  0  0
  185.0800  174.7490  136.4820 C   0  0  0  0  0  3  0  0  0  0  0  0
  184.1380  173.6790  136.1890 C   0  0  0  0  0  0  0  0  0  0  0  0
  188.8020  174.3050  136.6070 C   0  0  1  0  0  3  0  0  0  0  0  0
  188.7670  173.0190  136.7440 C   0  0  0  0  0  2  0  0  0  0  0  0
  186.9920  178.5370  135.4170 C   0  0  0  0  0  3  0  0  0  0  0  0
  190.1130  175.0110  136.4220 C   0  0  0  0  0  2  0  0  0  0  0  0
  186.8010  171.7540  136.8320 C   0  0  0  0  0  2  0  0  0  0  0  0
  189.7350  176.5930  139.3320 C   0  0  1  0  0  3  0  0  0  0  0  0
  180.5530  173.1900  135.3320 C   0  0  0  0  0  1  0  0  0  0  0  0
  181.8380  172.6980  135.9680 C   0  0  0  0  0  3  0  0  0  0  0  0
  181.5250  171.9220  137.2340 C   0  0  0  0  0  1  0  0  0  0  0  0
  189.7780  177.9320  140.0600 C   0  0  0  0  0  2  0  0  0  0  0  0
  186.8510  177.8630  142.5700 C   0  0  0  0  0  3  0  0  0  0  0  0
  189.6680  177.8420  142.4770 N   0  0  0  0  0  0  0  0  0  0  0  0
  188.9440  177.7890  143.6820 N   0  0  0  0  0  0  0  0  0  0  0  0
  187.5850  177.8640  141.3360 N   0  0  0  0  0  0  0  0  0  0  0  0
  187.5450  177.8250  143.7020 C   0  0  0  0  0  0  0  0  0  0  0  0
  189.5220  177.8530  144.9550 N   0  0  1  0  0  0  0  0  0  0  0  0
  187.0450  177.8770  145.0730 C   0  0  0  0  0  3  0  0  0  0  0  0
  189.0260  177.8610  141.3450 C   0  0  0  0  0  0  0  0  0  0  0  0
  188.3640  177.9070  145.8760 C   0  0  0  0  0  2  0  0  0  0  0  0
  190.2020  176.5860  145.1960 C   0  0  0  0  0  3  0  0  0  0  0  0
  191.6800  176.7350  144.8860 C   0  0  0  0  0  2  0  0  0  0  0  0
  191.2060  176.7530  146.3220 C   0  0  0  0  0  2  0  0  0  0  0  0
  1  8  1  0  0  0  0
  2  5  1  0  0  0  0
  2 18  2  0  0  0  0
  4  7  1  0  0  0  0
  4  1  2  0  0  0  0
  5 12  1  0  0  0  0
  5 23  1  1  0  0  0
  6 14  1  0  0  0  0
  6 19  1  0  0  0  0
  8  9  1  0  0  0  0
  9 24  1  0  0  0  0
 10 23  1  0  0  0  0
 11 15  1  0  0  0  0
 12  6  1  0  0  0  0
 12 17  2  0  0  0  0
 13 21  2  0  0  0  0
 13 14  1  0  0  0  0
 14  8  2  0  0  0  0
 15 24  1  0  0  0  0
 16  3  1  0  0  0  0
 18 16  1  0  0  0  0
 18 17  1  0  0  0  0
 19 22  1  6  0  0  0
 19 20  1  0  0  0  0
 20 10  1  0  0  0  0
 21  4  1  0  0  0  0
 22 11  1  0  0  0  0
 24 28  1  6  0  0  0
 25 26  1  0  0  0  0
 26 16  1  0  0  0  0
 26 27  1  0  0  0  0
 28 36  1  0  0  0  0
 29 33  1  0  0  0  0
 30 31  1  0  0  0  0
 31 33  1  0  0  0  0
 31 34  1  0  0  0  0
 32 36  1  0  0  0  0
 32 29  2  0  0  0  0
 33 35  2  0  0  0  0
 34 38  1  1  0  0  0
 34 37  1  0  0  0  0
 35 37  1  0  0  0  0
 36 30  2  0  0  0  0
 38 40  1  0  0  0  0
 39 38  1  0  0  0  0
 39 40  1  0  0  0  0
M  END
>  <MODEL>
9

>  <REMARK>
 VINA RESULT:      -6.9      3.778      5.275
  Name = 
  4 active torsions:
  status: ('A' for Active; 'I' for Inactive)
    1  A    between atoms: C_6  and  N_26
    2  A    between atoms: C_15  and  N_28
    3  A    between atoms: C_31  and  C_37
    4  A    between atoms: C_37  and  C_40
                            x       y       z     vdW  Elec       q    Type
                         _______ _______ _______ _____ _____    ______ ____

>  <TORSDO>
F 4

$$$$
