=
 OpenBabel10222416283D

 38 43  0  0  1  0  0  0  0  0999 V2000
  185.2770  177.9200  138.1250 C   0  0  0  0  0  0  0  0  0  0  0  0
  182.9790  177.5660  137.0880 C   0  0  0  0  0  0  0  0  0  0  0  0
  186.5750  177.8640  137.9460 N   0  0  0  0  0  0  0  0  0  0  0  0
  182.2310  178.5090  137.6810 C   0  0  0  0  0  3  0  0  0  0  0  0
  189.1390  178.2480  141.8060 N   0  0  0  0  0  2  0  0  0  0  0  0
  183.8370  179.5900  139.2610 C   0  0  0  0  0  3  0  0  0  0  0  0
  185.5940  179.0550  141.7220 C   0  0  0  0  0  3  0  0  0  0  0  0
  187.1260  178.3730  140.2100 C   0  0  0  0  0  0  0  0  0  0  0  0
  184.4090  177.5180  137.0550 N   0  0  0  0  0  0  0  0  0  0  0  0
  186.9350  179.0960  142.3420 C   0  0  0  0  0  3  0  0  0  0  0  0
  184.6720  178.3630  139.4480 C   0  0  2  0  0  3  0  0  0  0  0  0
  185.5180  177.0830  134.9280 C   0  0  0  0  0  1  0  0  0  0  0  0
  183.4490  175.9230  135.6680 C   0  0  0  0  0  0  0  0  0  0  0  0
  182.7380  179.6250  138.5030 C   0  0  0  0  0  3  0  0  0  0  0  0
  190.9050  177.4550  139.5100 C   0  0  0  0  0  2  0  0  0  0  0  0
  183.2950  174.7660  134.7470 C   0  0  0  0  0  1  0  0  0  0  0  0
  189.5120  176.8610  141.5370 C   0  0  1  0  0  3  0  0  0  0  0  0
  182.4180  176.5470  136.2240 C   0  0  0  0  0  3  0  0  0  0  0  0
  188.9780  178.3290  138.5690 C   0  0  0  0  0  2  0  0  0  0  0  0
  185.7350  178.5880  140.4860 C   0  0  0  0  0  0  0  0  0  0  0  0
  187.8340  178.7110  141.4390 C   0  0  0  0  0  0  0  0  0  0  0  0
  189.7270  177.0950  138.7280 N   0  0  0  0  0  2  0  0  0  0  0  0
  187.5490  178.1480  138.9640 C   0  0  0  0  0  0  0  0  0  0  0  0
  184.7750  176.4760  136.1080 C   0  0  2  0  0  3  0  0  0  0  0  0
  190.8810  176.7780  140.8740 C   0  0  0  0  0  2  0  0  0  0  0  0
  189.5360  176.0580  142.8300 C   0  0  0  0  0  2  0  0  0  0  0  0
  191.2490  175.8810  143.4300 S   0  0  0  0  0  0  0  0  0  0  0  0
  191.2020  177.4300  144.3900 C   0  0  0  0  0  2  0  0  0  0  0  0
  189.3110  177.1270  147.6500 N   0  0  0  0  0  0  0  0  0  0  0  0
  187.5300  177.9330  146.6240 C   0  0  0  0  0  0  0  0  0  0  0  0
  188.5810  177.9030  145.7270 C   0  0  0  0  0  3  0  0  0  0  0  0
  188.0100  177.4400  147.8250 C   0  0  0  0  0  3  0  0  0  0  0  0
  190.9400  177.1660  145.8410 C   0  0  0  0  0  0  0  0  0  0  0  0
  189.6410  177.4060  146.3980 N   0  0  0  0  0  0  0  0  0  0  0  0
  191.8710  176.7230  146.5740 O   0  0  0  0  0  0  0  0  0  0  0  0
  186.1610  178.3970  146.3550 C   0  0  0  0  0  0  0  0  0  0  0  0
  185.5740  179.3620  147.1680 O   0  0  0  0  0  1  0  0  0  0  0  0
  185.5220  177.9370  145.3710 O   0  0  0  0  0  0  0  0  0  0  0  0
  1 11  1  0  0  0  0
  2  4  2  0  0  0  0
  3  1  2  0  0  0  0
  3 23  1  0  0  0  0
  4 14  1  0  0  0  0
  7 10  1  0  0  0  0
  8 20  1  0  0  0  0
  8 21  1  0  0  0  0
  9  2  1  0  0  0  0
  9  1  1  0  0  0  0
 11  6  1  6  0  0  0
 11 20  1  0  0  0  0
 13 24  1  0  0  0  0
 13 18  2  0  0  0  0
 14  6  2  0  0  0  0
 15 25  1  0  0  0  0
 16 13  1  0  0  0  0
 17  5  1  0  0  0  0
 17 26  1  1  0  0  0
 18  2  1  0  0  0  0
 19 22  1  0  0  0  0
 19 23  1  0  0  0  0
 20  7  2  0  0  0  0
 21  5  1  0  0  0  0
 21 10  2  0  0  0  0
 22 15  1  0  0  0  0
 23  8  2  0  0  0  0
 24 12  1  6  0  0  0
 24  9  1  0  0  0  0
 25 17  1  0  0  0  0
 26 27  1  0  0  0  0
 27 28  1  0  0  0  0
 28 33  1  0  0  0  0
 29 32  2  0  0  0  0
 30 32  1  0  0  0  0
 31 34  1  0  0  0  0
 31 30  2  0  0  0  0
 33 34  1  0  0  0  0
 33 35  2  0  0  0  0
 34 29  1  0  0  0  0
 36 30  1  0  0  0  0
 36 37  1  0  0  0  0
 38 36  2  0  0  0  0
M  END
>  <MODEL>
1

>  <REMARK>
 VINA RESULT:      -9.4      0.000      0.000
  Name = 
  5 active torsions:
  status: ('A' for Active; 'I' for Inactive)
    1  A    between atoms: C_6  and  C_16
    2  A    between atoms: C_9  and  C_25
    3  A    between atoms: C_25  and  S_28
    4  A    between atoms: C_27  and  C_34
    5  A    between atoms: S_28  and  C_34
                            x       y       z     vdW  Elec       q    Type
                         _______ _______ _______ _____ _____    ______ ____

>  <TORSDO>
F 5

$$$$
=
 OpenBabel10222416283D

 38 43  0  0  1  0  0  0  0  0999 V2000
  190.9220  175.8950  137.5880 C   0  0  0  0  0  0  0  0  0  0  0  0
  191.1090  174.5290  135.4470 C   0  0  0  0  0  0  0  0  0  0  0  0
  191.5310  176.3130  138.6710 N   0  0  0  0  0  0  0  0  0  0  0  0
  190.3140  175.1940  134.5940 C   0  0  0  0  0  3  0  0  0  0  0  0
  188.7810  178.2500  141.8820 N   0  0  0  0  0  2  0  0  0  0  0  0
  189.3940  177.0410  136.0040 C   0  0  0  0  0  3  0  0  0  0  0  0
  187.6690  177.6120  138.4790 C   0  0  0  0  0  3  0  0  0  0  0  0
  189.5990  177.3420  139.6180 C   0  0  0  0  0  0  0  0  0  0  0  0
  191.6250  175.0290  136.6840 N   0  0  0  0  0  0  0  0  0  0  0  0
  187.5430  178.2610  139.8000 C   0  0  0  0  0  2  0  0  0  0  0  0
  189.4800  176.2730  137.2860 C   0  0  0  0  0  0  0  0  0  0  0  0
  193.9940  174.7240  137.1730 C   0  0  0  0  0  1  0  0  0  0  0  0
  192.5730  172.9920  136.1010 C   0  0  0  0  0  0  0  0  0  0  0  0
  189.7340  176.5330  134.8170 C   0  0  0  0  0  3  0  0  0  0  0  0
  191.5250  177.8460  143.0320 C   0  0  0  0  0  2  0  0  0  0  0  0
  193.3650  171.7360  136.1690 C   0  0  0  0  0  1  0  0  0  0  0  0
  189.1350  177.0890  142.6950 C   0  0  1  0  0  3  0  0  0  0  0  0
  191.7110  173.2510  135.1260 C   0  0  0  0  0  3  0  0  0  0  0  0
  191.7710  177.7550  140.7310 C   0  0  0  0  0  2  0  0  0  0  0  0
  188.8700  177.0480  138.4200 C   0  0  0  0  0  0  0  0  0  0  0  0
  188.6900  178.1140  140.4590 C   0  0  0  0  0  0  0  0  0  0  0  0
  191.8540  176.9440  141.9320 N   0  0  0  0  0  2  0  0  0  0  0  0
  190.9100  177.1050  139.6980 C   0  0  0  0  0  0  0  0  0  0  0  0
  192.6210  174.0720  137.1440 C   0  0  2  0  0  3  0  0  0  0  0  0
  190.2230  177.4340  143.7040 C   0  0  0  0  0  2  0  0  0  0  0  0
  187.9120  176.5690  143.4390 C   0  0  0  0  0  2  0  0  0  0  0  0
  186.8400  177.9580  143.9350 S   0  0  0  0  0  0  0  0  0  0  0  0
  186.2440  177.1180  145.4400 C   0  0  0  0  0  2  0  0  0  0  0  0
  188.3550  178.4900  148.2610 N   0  0  0  0  0  0  0  0  0  0  0  0
  190.0320  177.2560  147.5280 C   0  0  0  0  0  0  0  0  0  0  0  0
  188.9270  177.0150  146.7330 C   0  0  0  0  0  3  0  0  0  0  0  0
  189.6510  178.1860  148.4790 C   0  0  0  0  0  3  0  0  0  0  0  0
  186.6100  177.8830  146.6750 C   0  0  0  0  0  0  0  0  0  0  0  0
  187.9330  177.7880  147.2200 N   0  0  0  0  0  0  0  0  0  0  0  0
  185.7470  178.6210  147.2320 O   0  0  0  0  0  0  0  0  0  0  0  0
  191.3610  176.6450  147.3870 C   0  0  0  0  0  0  0  0  0  0  0  0
  192.2820  176.7180  148.4280 O   0  0  0  0  0  1  0  0  0  0  0  0
  191.6640  176.0300  146.3290 O   0  0  0  0  0  0  0  0  0  0  0  0
  1  3  1  0  0  0  0
  2  9  1  0  0  0  0
  3 23  2  0  0  0  0
  4 14  1  0  0  0  0
  4  2  2  0  0  0  0
  5 17  1  0  0  0  0
  6 11  1  0  0  0  0
  7 10  1  0  0  0  0
  8 23  1  0  0  0  0
  8 21  2  0  0  0  0
  9 24  1  0  0  0  0
  9  1  1  0  0  0  0
 10 21  1  0  0  0  0
 11  1  2  0  0  0  0
 11 20  1  0  0  0  0
 13 16  1  0  0  0  0
 13 24  1  0  0  0  0
 14  6  2  0  0  0  0
 15 25  1  0  0  0  0
 17 26  1  1  0  0  0
 17 25  1  0  0  0  0
 18  2  1  0  0  0  0
 18 13  2  0  0  0  0
 19 22  1  0  0  0  0
 20  7  2  0  0  0  0
 20  8  1  0  0  0  0
 21  5  1  0  0  0  0
 22 15  1  0  0  0  0
 23 19  1  0  0  0  0
 24 12  1  6  0  0  0
 26 27  1  0  0  0  0
 27 28  1  0  0  0  0
 28 33  1  0  0  0  0
 29 32  2  0  0  0  0
 30 32  1  0  0  0  0
 31 34  1  0  0  0  0
 31 30  2  0  0  0  0
 33 34  1  0  0  0  0
 33 35  2  0  0  0  0
 34 29  1  0  0  0  0
 36 30  1  0  0  0  0
 36 37  1  0  0  0  0
 38 36  2  0  0  0  0
M  END
>  <MODEL>
2

>  <REMARK>
 VINA RESULT:      -9.0      3.195      5.777
  Name = 
  5 active torsions:
  status: ('A' for Active; 'I' for Inactive)
    1  A    between atoms: C_6  and  C_16
    2  A    between atoms: C_9  and  C_25
    3  A    between atoms: C_25  and  S_28
    4  A    between atoms: C_27  and  C_34
    5  A    between atoms: S_28  and  C_34
                            x       y       z     vdW  Elec       q    Type
                         _______ _______ _______ _____ _____    ______ ____

>  <TORSDO>
F 5

$$$$
=
 OpenBabel10222416283D

 38 43  0  0  1  0  0  0  0  0999 V2000
  182.9030  177.4230  139.5300 C   0  0  0  0  0  0  0  0  0  0  0  0
  180.5310  176.5030  139.4190 C   0  0  0  0  0  0  0  0  0  0  0  0
  184.0190  177.6400  138.8790 N   0  0  0  0  0  0  0  0  0  0  0  0
  179.8580  177.2980  140.2650 C   0  0  0  0  0  3  0  0  0  0  0  0
  187.6600  178.8450  141.5100 N   0  0  0  0  0  2  0  0  0  0  0  0
  181.6380  178.8130  141.1510 C   0  0  0  0  0  3  0  0  0  0  0  0
  184.2480  178.8480  142.7680 C   0  0  0  0  0  3  0  0  0  0  0  0
  185.2300  178.4140  140.7820 C   0  0  0  0  0  0  0  0  0  0  0  0
  181.8190  176.7670  138.8550 N   0  0  0  0  0  0  0  0  0  0  0  0
  185.6750  179.2250  142.8440 C   0  0  0  0  0  3  0  0  0  0  0  0
  182.7410  177.8130  140.9910 C   0  0  2  0  0  3  0  0  0  0  0  0
  182.1380  176.4370  136.4610 C   0  0  0  0  0  1  0  0  0  0  0  0
  180.8110  174.9070  137.8990 C   0  0  0  0  0  0  0  0  0  0  0  0
  180.3610  178.5530  140.8580 C   0  0  0  0  0  3  0  0  0  0  0  0
  188.5910  178.2990  138.7070 C   0  0  0  0  0  2  0  0  0  0  0  0
  180.5990  173.6830  137.0820 C   0  0  0  0  0  1  0  0  0  0  0  0
  188.2150  177.5580  141.0970 C   0  0  1  0  0  3  0  0  0  0  0  0
  179.9420  175.3270  138.8100 C   0  0  0  0  0  3  0  0  0  0  0  0
  186.3080  178.6620  138.5680 C   0  0  0  0  0  2  0  0  0  0  0  0
  184.0290  178.3380  141.5610 C   0  0  0  0  0  0  0  0  0  0  0  0
  186.2430  178.9840  141.6640 C   0  0  0  0  0  0  0  0  0  0  0  0
  187.3250  177.6360  138.4150 N   0  0  0  0  0  2  0  0  0  0  0  0
  185.2060  178.2010  139.4650 C   0  0  0  0  0  0  0  0  0  0  0  0
  182.0400  175.7660  137.8220 C   0  0  2  0  0  3  0  0  0  0  0  0
  189.2250  177.7300  139.9690 C   0  0  0  0  0  2  0  0  0  0  0  0
  188.8960  176.8720  142.2740 C   0  0  0  0  0  2  0  0  0  0  0  0
  190.6900  177.1940  142.2390 S   0  0  0  0  0  0  0  0  0  0  0  0
  190.6400  178.3080  143.6820 C   0  0  0  0  0  2  0  0  0  0  0  0
  189.3300  176.8370  146.9100 N   0  0  0  0  0  0  0  0  0  0  0  0
  187.4480  177.9440  146.5810 C   0  0  0  0  0  0  0  0  0  0  0  0
  188.3230  178.2470  145.5560 C   0  0  0  0  0  3  0  0  0  0  0  0
  188.1000  177.0560  147.4190 C   0  0  0  0  0  3  0  0  0  0  0  0
  190.6200  177.5380  144.9670 C   0  0  0  0  0  0  0  0  0  0  0  0
  189.4530  177.5510  145.8010 N   0  0  0  0  0  0  0  0  0  0  0  0
  191.6360  176.8680  145.3110 O   0  0  0  0  0  0  0  0  0  0  0  0
  186.0830  178.4620  146.7490 C   0  0  0  0  0  0  0  0  0  0  0  0
  185.8670  179.6750  147.3970 O   0  0  0  0  0  1  0  0  0  0  0  0
  185.1020  177.8190  146.2870 O   0  0  0  0  0  0  0  0  0  0  0  0
  1 11  1  0  0  0  0
  2  4  2  0  0  0  0
  3 23  1  0  0  0  0
  3  1  2  0  0  0  0
  4 14  1  0  0  0  0
  5 21  1  0  0  0  0
  7 10  1  0  0  0  0
  8 20  1  0  0  0  0
  8 21  1  0  0  0  0
  9  2  1  0  0  0  0
  9  1  1  0  0  0  0
 11  6  1  6  0  0  0
 11 20  1  0  0  0  0
 13 18  2  0  0  0  0
 14  6  2  0  0  0  0
 15 25  1  0  0  0  0
 16 13  1  0  0  0  0
 17  5  1  0  0  0  0
 17 26  1  1  0  0  0
 18  2  1  0  0  0  0
 19 23  1  0  0  0  0
 20  7  2  0  0  0  0
 21 10  2  0  0  0  0
 22 19  1  0  0  0  0
 22 15  1  0  0  0  0
 23  8  2  0  0  0  0
 24 12  1  6  0  0  0
 24 13  1  0  0  0  0
 24  9  1  0  0  0  0
 25 17  1  0  0  0  0
 27 26  1  0  0  0  0
 27 28  1  0  0  0  0
 28 33  1  0  0  0  0
 29 32  2  0  0  0  0
 30 36  1  0  0  0  0
 30 32  1  0  0  0  0
 31 34  1  0  0  0  0
 31 30  2  0  0  0  0
 33 35  2  0  0  0  0
 33 34  1  0  0  0  0
 34 29  1  0  0  0  0
 36 37  1  0  0  0  0
 38 36  2  0  0  0  0
M  END
>  <MODEL>
3

>  <REMARK>
 VINA RESULT:      -8.7      1.896      2.346
  Name = 
  5 active torsions:
  status: ('A' for Active; 'I' for Inactive)
    1  A    between atoms: C_6  and  C_16
    2  A    between atoms: C_9  and  C_25
    3  A    between atoms: C_25  and  S_28
    4  A    between atoms: C_27  and  C_34
    5  A    between atoms: S_28  and  C_34
                            x       y       z     vdW  Elec       q    Type
                         _______ _______ _______ _____ _____    ______ ____

>  <TORSDO>
F 5

$$$$
=
 OpenBabel10222416283D

 38 43  0  0  1  0  0  0  0  0999 V2000
  180.8160  180.7850  137.7160 C   0  0  0  0  0  0  0  0  0  0  0  0
  180.7630  182.1140  135.5450 C   0  0  0  0  0  0  0  0  0  0  0  0
  180.4420  180.7320  138.9720 N   0  0  0  0  0  0  0  0  0  0  0  0
  180.7610  181.1570  134.6040 C   0  0  0  0  0  3  0  0  0  0  0  0
  182.5100  177.4450  141.5310 N   0  0  0  0  0  2  0  0  0  0  0  0
  180.9010  179.0510  135.9440 C   0  0  0  0  0  3  0  0  0  0  0  0
  182.6900  177.5020  137.8990 C   0  0  0  0  0  3  0  0  0  0  0  0
  181.6770  178.7560  139.4800 C   0  0  0  0  0  0  0  0  0  0  0  0
  180.4650  181.9350  136.9330 N   0  0  0  0  0  0  0  0  0  0  0  0
  182.8370  176.8360  139.2100 C   0  0  0  0  0  2  0  0  0  0  0  0
  181.6430  179.6780  137.0820 C   0  0  0  0  0  0  0  0  0  0  0  0
  178.9310  183.4930  138.0110 C   0  0  0  0  0  1  0  0  0  0  0  0
  180.6590  184.1770  136.3630 C   0  0  0  0  0  0  0  0  0  0  0  0
  180.5510  179.7150  134.8380 C   0  0  0  0  0  3  0  0  0  0  0  0
  180.9380  179.2670  143.3280 C   0  0  0  0  0  2  0  0  0  0  0  0
  180.7460  185.6570  136.4750 C   0  0  0  0  0  1  0  0  0  0  0  0
  183.1150  178.5680  142.2440 C   0  0  1  0  0  3  0  0  0  0  0  0
  180.8930  183.5230  135.2330 C   0  0  0  0  0  3  0  0  0  0  0  0
  180.0960  179.5830  141.1940 C   0  0  0  0  0  2  0  0  0  0  0  0
  182.0420  178.6440  138.0980 C   0  0  0  0  0  0  0  0  0  0  0  0
  182.2220  177.5710  140.1340 C   0  0  0  0  0  0  0  0  0  0  0  0
  180.8390  180.2460  142.2500 N   0  0  0  0  0  2  0  0  0  0  0  0
  180.8080  179.6840  139.8850 C   0  0  0  0  0  0  0  0  0  0  0  0
  180.3500  183.2650  137.5150 C   0  0  2  0  0  3  0  0  0  0  0  0
  182.3850  178.8480  143.5510 C   0  0  0  0  0  2  0  0  0  0  0  0
  184.5800  178.2790  142.5440 C   0  0  0  0  0  2  0  0  0  0  0  0
  185.1400  179.2750  143.9650 S   0  0  0  0  0  0  0  0  0  0  0  0
  185.8270  177.8390  144.8540 C   0  0  0  0  0  2  0  0  0  0  0  0
  187.7820  178.2970  148.0590 N   0  0  0  0  0  0  0  0  0  0  0  0
  189.5450  177.4520  147.0350 C   0  0  0  0  0  0  0  0  0  0  0  0
  188.4770  177.4370  146.1580 C   0  0  0  0  0  3  0  0  0  0  0  0
  189.0870  177.9970  148.2210 C   0  0  0  0  0  3  0  0  0  0  0  0
  186.1160  178.1690  146.2870 C   0  0  0  0  0  0  0  0  0  0  0  0
  187.4280  177.9600  146.8280 N   0  0  0  0  0  0  0  0  0  0  0  0
  185.1990  178.6420  147.0170 O   0  0  0  0  0  0  0  0  0  0  0  0
  190.9100  176.9820  146.7590 C   0  0  0  0  0  0  0  0  0  0  0  0
  191.7740  176.6790  147.8080 O   0  0  0  0  0  1  0  0  0  0  0  0
  191.2970  176.8290  145.5690 O   0  0  0  0  0  0  0  0  0  0  0  0
  1  3  1  0  0  0  0
  2  9  1  0  0  0  0
  3 23  2  0  0  0  0
  4 14  1  0  0  0  0
  4  2  2  0  0  0  0
  5 17  1  0  0  0  0
  6 11  1  0  0  0  0
  7 20  2  0  0  0  0
  7 10  1  0  0  0  0
  8 23  1  0  0  0  0
  8 21  2  0  0  0  0
  9 24  1  0  0  0  0
  9  1  1  0  0  0  0
 10 21  1  0  0  0  0
 11  1  2  0  0  0  0
 11 20  1  0  0  0  0
 13 16  1  0  0  0  0
 13 24  1  0  0  0  0
 14  6  2  0  0  0  0
 15 25  1  0  0  0  0
 17 26  1  1  0  0  0
 17 25  1  0  0  0  0
 18  2  1  0  0  0  0
 18 13  2  0  0  0  0
 19 22  1  0  0  0  0
 20  8  1  0  0  0  0
 21  5  1  0  0  0  0
 22 15  1  0  0  0  0
 23 19  1  0  0  0  0
 24 12  1  6  0  0  0
 26 27  1  0  0  0  0
 27 28  1  0  0  0  0
 28 33  1  0  0  0  0
 29 32  2  0  0  0  0
 30 32  1  0  0  0  0
 31 34  1  0  0  0  0
 31 30  2  0  0  0  0
 33 34  1  0  0  0  0
 33 35  2  0  0  0  0
 34 29  1  0  0  0  0
 36 30  1  0  0  0  0
 36 37  1  0  0  0  0
 38 36  2  0  0  0  0
M  END
>  <MODEL>
4

>  <REMARK>
 VINA RESULT:      -8.4      3.653      6.489
  Name = 
  5 active torsions:
  status: ('A' for Active; 'I' for Inactive)
    1  A    between atoms: C_6  and  C_16
    2  A    between atoms: C_9  and  C_25
    3  A    between atoms: C_25  and  S_28
    4  A    between atoms: C_27  and  C_34
    5  A    between atoms: S_28  and  C_34
                            x       y       z     vdW  Elec       q    Type
                         _______ _______ _______ _____ _____    ______ ____

>  <TORSDO>
F 5

$$$$
=
 OpenBabel10222416283D

 38 43  0  0  1  0  0  0  0  0999 V2000
  184.3560  174.8460  136.5740 C   0  0  0  0  0  0  0  0  0  0  0  0
  182.4100  173.2390  136.2370 C   0  0  0  0  0  0  0  0  0  0  0  0
  185.6300  175.0750  136.3630 N   0  0  0  0  0  0  0  0  0  0  0  0
  181.3560  174.0620  136.1210 C   0  0  0  0  0  3  0  0  0  0  0  0
  187.4390  178.6270  138.7600 N   0  0  0  0  0  2  0  0  0  0  0  0
  182.3680  176.3240  136.4420 C   0  0  0  0  0  3  0  0  0  0  0  0
  183.8550  178.0800  138.4750 C   0  0  0  0  0  3  0  0  0  0  0  0
  185.7060  177.0730  137.6650 C   0  0  0  0  0  0  0  0  0  0  0  0
  183.7870  173.6100  136.1190 N   0  0  0  0  0  0  0  0  0  0  0  0
  185.0340  178.9120  138.7920 C   0  0  0  0  0  3  0  0  0  0  0  0
  183.4790  175.8390  137.3200 C   0  0  2  0  0  3  0  0  0  0  0  0
  185.2510  172.2460  134.7250 C   0  0  0  0  0  1  0  0  0  0  0  0
  183.5070  171.3070  136.2250 C   0  0  0  0  0  0  0  0  0  0  0  0
  181.4160  175.5270  135.9510 C   0  0  0  0  0  3  0  0  0  0  0  0
  189.6500  177.0990  137.4190 C   0  0  0  0  0  2  0  0  0  0  0  0
  183.8080  169.8540  136.3170 C   0  0  0  0  0  1  0  0  0  0  0  0
  188.2160  177.5960  139.4450 C   0  0  1  0  0  3  0  0  0  0  0  0
  182.2780  171.7990  136.3170 C   0  0  0  0  0  3  0  0  0  0  0  0
  187.7010  176.5200  136.3100 C   0  0  0  0  0  2  0  0  0  0  0  0
  184.2870  176.9900  137.8510 C   0  0  0  0  0  0  0  0  0  0  0  0
  186.1190  178.3220  138.2960 C   0  0  0  0  0  0  0  0  0  0  0  0
  188.7360  175.9870  137.1780 N   0  0  0  0  0  2  0  0  0  0  0  0
  186.3390  176.2280  136.8480 C   0  0  0  0  0  0  0  0  0  0  0  0
  184.5540  172.3730  136.0700 C   0  0  2  0  0  3  0  0  0  0  0  0
  189.6310  177.5110  138.8850 C   0  0  0  0  0  2  0  0  0  0  0  0
  188.2880  177.8880  140.9370 C   0  0  0  0  0  2  0  0  0  0  0  0
  189.8690  177.2900  141.6210 S   0  0  0  0  0  0  0  0  0  0  0  0
  189.0660  176.2000  142.8430 C   0  0  0  0  0  2  0  0  0  0  0  0
  187.9250  177.8820  146.0310 N   0  0  0  0  0  0  0  0  0  0  0  0
  185.9460  178.1750  145.0980 C   0  0  0  0  0  0  0  0  0  0  0  0
  186.7810  177.5670  144.1800 C   0  0  0  0  0  3  0  0  0  0  0  0
  186.6840  178.3620  146.2540 C   0  0  0  0  0  3  0  0  0  0  0  0
  189.1280  176.7850  144.2210 C   0  0  0  0  0  0  0  0  0  0  0  0
  187.9720  177.4100  144.7940 N   0  0  0  0  0  0  0  0  0  0  0  0
  190.2050  176.7180  144.8810 O   0  0  0  0  0  0  0  0  0  0  0  0
  184.5400  178.5500  144.8890 C   0  0  0  0  0  0  0  0  0  0  0  0
  183.9460  178.3830  143.6410 O   0  0  0  0  0  0  0  0  0  0  0  0
  183.8580  179.0030  145.8480 O   0  0  0  0  0  1  0  0  0  0  0  0
  1 11  1  0  0  0  0
  2 18  1  0  0  0  0
  3  1  2  0  0  0  0
  3 23  1  0  0  0  0
  4  2  2  0  0  0  0
  5 17  1  0  0  0  0
  7 10  1  0  0  0  0
  8 20  1  0  0  0  0
  8 21  1  0  0  0  0
  9  2  1  0  0  0  0
  9  1  1  0  0  0  0
 11  6  1  6  0  0  0
 11 20  1  0  0  0  0
 13 16  1  0  0  0  0
 13 18  2  0  0  0  0
 14  4  1  0  0  0  0
 14  6  2  0  0  0  0
 15 25  1  0  0  0  0
 17 26  1  1  0  0  0
 19 23  1  0  0  0  0
 19 22  1  0  0  0  0
 20  7  2  0  0  0  0
 21  5  1  0  0  0  0
 21 10  2  0  0  0  0
 22 15  1  0  0  0  0
 23  8  2  0  0  0  0
 24 12  1  6  0  0  0
 24  9  1  0  0  0  0
 24 13  1  0  0  0  0
 25 17  1  0  0  0  0
 26 27  1  0  0  0  0
 27 28  1  0  0  0  0
 28 33  1  0  0  0  0
 29 32  2  0  0  0  0
 30 32  1  0  0  0  0
 31 34  1  0  0  0  0
 31 30  2  0  0  0  0
 33 34  1  0  0  0  0
 33 35  2  0  0  0  0
 34 29  1  0  0  0  0
 36 30  1  0  0  0  0
 36 38  1  0  0  0  0
 37 36  2  0  0  0  0
M  END
>  <MODEL>
5

>  <REMARK>
 VINA RESULT:      -8.3      2.252      3.481
  Name = 
  5 active torsions:
  status: ('A' for Active; 'I' for Inactive)
    1  A    between atoms: C_6  and  C_16
    2  A    between atoms: C_9  and  C_25
    3  A    between atoms: C_25  and  S_28
    4  A    between atoms: C_27  and  C_34
    5  A    between atoms: S_28  and  C_34
                            x       y       z     vdW  Elec       q    Type
                         _______ _______ _______ _____ _____    ______ ____

>  <TORSDO>
F 5

$$$$
=
 OpenBabel10222416283D

 38 43  0  0  1  0  0  0  0  0999 V2000
  182.8940  177.1630  139.0940 C   0  0  0  0  0  0  0  0  0  0  0  0
  180.5950  176.0700  139.1520 C   0  0  0  0  0  0  0  0  0  0  0  0
  183.9470  177.4490  138.3670 N   0  0  0  0  0  0  0  0  0  0  0  0
  179.9210  176.8300  140.0300 C   0  0  0  0  0  3  0  0  0  0  0  0
  187.6520  178.9630  140.7360 N   0  0  0  0  0  2  0  0  0  0  0  0
  181.6380  178.4850  140.7760 C   0  0  0  0  0  3  0  0  0  0  0  0
  184.3370  178.7400  142.2170 C   0  0  0  0  0  3  0  0  0  0  0  0
  185.2180  178.3430  140.1760 C   0  0  0  0  0  0  0  0  0  0  0  0
  181.8210  176.4170  138.5010 N   0  0  0  0  0  0  0  0  0  0  0  0
  185.7340  179.2220  142.1930 C   0  0  0  0  0  3  0  0  0  0  0  0
  182.7990  177.5670  140.5570 C   0  0  2  0  0  3  0  0  0  0  0  0
  182.0080  176.0680  136.0950 C   0  0  0  0  0  1  0  0  0  0  0  0
  180.8930  174.4720  137.6380 C   0  0  0  0  0  0  0  0  0  0  0  0
  180.3680  178.1280  140.5710 C   0  0  0  0  0  3  0  0  0  0  0  0
  188.4370  178.4360  137.8860 C   0  0  0  0  0  2  0  0  0  0  0  0
  180.7200  173.2210  136.8530 C   0  0  0  0  0  1  0  0  0  0  0  0
  188.2730  177.7130  140.3050 C   0  0  1  0  0  3  0  0  0  0  0  0
  180.0560  174.8440  138.5980 C   0  0  0  0  0  3  0  0  0  0  0  0
  186.1300  178.6290  137.8930 C   0  0  0  0  0  2  0  0  0  0  0  0
  184.0790  178.1940  141.0340 C   0  0  0  0  0  0  0  0  0  0  0  0
  186.2410  179.0010  140.9820 C   0  0  0  0  0  0  0  0  0  0  0  0
  187.2070  177.6780  137.6870 N   0  0  0  0  0  2  0  0  0  0  0  0
  185.1250  178.1050  138.8660 C   0  0  0  0  0  0  0  0  0  0  0  0
  182.0480  175.4170  137.4680 C   0  0  2  0  0  3  0  0  0  0  0  0
  189.1920  177.9380  139.1110 C   0  0  0  0  0  2  0  0  0  0  0  0
  189.0770  177.1000  141.4430 C   0  0  0  0  0  2  0  0  0  0  0  0
  189.0750  178.2140  142.8870 S   0  0  0  0  0  0  0  0  0  0  0  0
  187.9390  177.1610  143.8500 C   0  0  0  0  0  2  0  0  0  0  0  0
  188.8180  177.8830  147.4560 N   0  0  0  0  0  0  0  0  0  0  0  0
  190.7020  176.7720  147.1570 C   0  0  0  0  0  0  0  0  0  0  0  0
  189.9720  176.7260  145.9850 C   0  0  0  0  0  3  0  0  0  0  0  0
  189.9600  177.5040  148.0670 C   0  0  0  0  0  3  0  0  0  0  0  0
  187.7970  177.6550  145.2570 C   0  0  0  0  0  0  0  0  0  0  0  0
  188.8350  177.4150  146.2170 N   0  0  0  0  0  0  0  0  0  0  0  0
  186.7580  178.2920  145.5950 O   0  0  0  0  0  0  0  0  0  0  0  0
  192.0190  176.1620  147.3940 C   0  0  0  0  0  0  0  0  0  0  0  0
  192.8030  176.5760  148.4670 O   0  0  0  0  0  1  0  0  0  0  0  0
  192.4340  175.2430  146.6370 O   0  0  0  0  0  0  0  0  0  0  0  0
  1 11  1  0  0  0  0
  2  4  2  0  0  0  0
  3 23  1  0  0  0  0
  3  1  2  0  0  0  0
  4 14  1  0  0  0  0
  5 21  1  0  0  0  0
  8 21  1  0  0  0  0
  8 20  1  0  0  0  0
  9  1  1  0  0  0  0
  9  2  1  0  0  0  0
 10  7  1  0  0  0  0
 11  6  1  6  0  0  0
 11 20  1  0  0  0  0
 13 18  2  0  0  0  0
 14  6  2  0  0  0  0
 15 25  1  0  0  0  0
 16 13  1  0  0  0  0
 17  5  1  0  0  0  0
 17 26  1  1  0  0  0
 18  2  1  0  0  0  0
 19 23  1  0  0  0  0
 20  7  2  0  0  0  0
 21 10  2  0  0  0  0
 22 15  1  0  0  0  0
 22 19  1  0  0  0  0
 23  8  2  0  0  0  0
 24 12  1  6  0  0  0
 24 13  1  0  0  0  0
 24  9  1  0  0  0  0
 25 17  1  0  0  0  0
 26 27  1  0  0  0  0
 27 28  1  0  0  0  0
 28 33  1  0  0  0  0
 29 32  2  0  0  0  0
 30 36  1  0  0  0  0
 30 32  1  0  0  0  0
 31 34  1  0  0  0  0
 31 30  2  0  0  0  0
 33 35  2  0  0  0  0
 33 34  1  0  0  0  0
 34 29  1  0  0  0  0
 36 37  1  0  0  0  0
 38 36  2  0  0  0  0
M  END
>  <MODEL>
6

>  <REMARK>
 VINA RESULT:      -8.2      2.042      3.423
  Name = 
  5 active torsions:
  status: ('A' for Active; 'I' for Inactive)
    1  A    between atoms: C_6  and  C_16
    2  A    between atoms: C_9  and  C_25
    3  A    between atoms: C_25  and  S_28
    4  A    between atoms: C_27  and  C_34
    5  A    between atoms: S_28  and  C_34
                            x       y       z     vdW  Elec       q    Type
                         _______ _______ _______ _____ _____    ______ ____

>  <TORSDO>
F 5

$$$$
=
 OpenBabel10222416283D

 38 43  0  0  1  0  0  0  0  0999 V2000
  188.3760  177.9390  142.3120 C   0  0  0  0  0  0  0  0  0  0  0  0
  188.5910  177.8860  144.8490 C   0  0  0  0  0  0  0  0  0  0  0  0
  187.6070  178.2220  141.2890 N   0  0  0  0  0  0  0  0  0  0  0  0
  189.8930  178.1470  145.0480 C   0  0  0  0  0  3  0  0  0  0  0  0
  189.1130  176.6650  137.1730 N   0  0  0  0  0  2  0  0  0  0  0  0
  190.7910  178.3300  142.7230 C   0  0  0  0  0  3  0  0  0  0  0  0
  191.2290  176.7450  140.1300 C   0  0  0  0  0  3  0  0  0  0  0  0
  189.1130  177.3700  139.6480 C   0  0  0  0  0  0  0  0  0  0  0  0
  187.8590  178.1110  143.6400 N   0  0  0  0  0  0  0  0  0  0  0  0
  191.0150  176.6380  138.6720 C   0  0  0  0  0  3  0  0  0  0  0  0
  189.7850  177.3960  142.1270 C   0  0  2  0  0  3  0  0  0  0  0  0
  185.6930  179.2220  143.7730 C   0  0  0  0  0  1  0  0  0  0  0  0
  186.4710  177.5190  145.4040 C   0  0  0  0  0  0  0  0  0  0  0  0
  190.8450  178.6210  144.0260 C   0  0  0  0  0  3  0  0  0  0  0  0
  186.3120  177.7090  136.8820 C   0  0  0  0  0  2  0  0  0  0  0  0
  185.2610  177.1310  146.1760 C   0  0  0  0  0  1  0  0  0  0  0  0
  187.9370  175.7990  137.2210 C   0  0  1  0  0  3  0  0  0  0  0  0
  187.6940  177.5030  145.9210 C   0  0  0  0  0  3  0  0  0  0  0  0
  187.1400  178.6260  138.8400 C   0  0  0  0  0  2  0  0  0  0  0  0
  190.0840  177.1370  140.6770 C   0  0  0  0  0  0  0  0  0  0  0  0
  189.7720  177.0250  138.3930 C   0  0  0  0  0  0  0  0  0  0  0  0
  186.1530  177.6900  138.3320 N   0  0  0  0  0  2  0  0  0  0  0  0
  187.9710  178.0060  139.9150 C   0  0  0  0  0  0  0  0  0  0  0  0
  186.4520  177.9170  143.9570 C   0  0  2  0  0  3  0  0  0  0  0  0
  186.8040  176.3610  136.3710 C   0  0  0  0  0  2  0  0  0  0  0  0
  188.2860  174.4030  136.7230 C   0  0  0  0  0  2  0  0  0  0  0  0
  189.1480  174.5030  135.1190 S   0  0  0  0  0  0  0  0  0  0  0  0
  190.7390  173.9320  135.8010 C   0  0  0  0  0  2  0  0  0  0  0  0
  194.1210  175.6140  135.9940 N   0  0  0  0  0  0  0  0  0  0  0  0
  194.6670  174.2000  137.5980 C   0  0  0  0  0  0  0  0  0  0  0  0
  193.3630  173.9490  137.2140 C   0  0  0  0  0  3  0  0  0  0  0  0
  195.1240  175.2480  136.8180 C   0  0  0  0  0  3  0  0  0  0  0  0
  191.8370  174.9120  135.5200 C   0  0  0  0  0  0  0  0  0  0  0  0
  193.0770  174.8350  136.2370 N   0  0  0  0  0  0  0  0  0  0  0  0
  191.6690  175.8050  134.6410 O   0  0  0  0  0  0  0  0  0  0  0  0
  195.4270  173.4870  138.6350 C   0  0  0  0  0  0  0  0  0  0  0  0
  195.4170  172.0960  138.6820 O   0  0  0  0  0  0  0  0  0  0  0  0
  196.1100  174.1340  139.4740 O   0  0  0  0  0  1  0  0  0  0  0  0
  1  9  1  0  0  0  0
  2  4  2  0  0  0  0
  2 18  1  0  0  0  0
  3  1  2  0  0  0  0
  5 17  1  0  0  0  0
  5 21  1  0  0  0  0
  6 14  2  0  0  0  0
  7 20  2  0  0  0  0
  8 23  2  0  0  0  0
  8 20  1  0  0  0  0
  9 24  1  0  0  0  0
  9  2  1  0  0  0  0
 10  7  1  0  0  0  0
 11  1  1  0  0  0  0
 11  6  1  6  0  0  0
 13 18  2  0  0  0  0
 13 16  1  0  0  0  0
 14  4  1  0  0  0  0
 15 22  1  0  0  0  0
 17 26  1  6  0  0  0
 19 23  1  0  0  0  0
 20 11  1  0  0  0  0
 21 10  2  0  0  0  0
 21  8  1  0  0  0  0
 22 19  1  0  0  0  0
 23  3  1  0  0  0  0
 24 12  1  1  0  0  0
 24 13  1  0  0  0  0
 25 15  1  0  0  0  0
 25 17  1  0  0  0  0
 27 28  1  0  0  0  0
 27 26  1  0  0  0  0
 29 34  1  0  0  0  0
 29 32  2  0  0  0  0
 30 36  1  0  0  0  0
 31 30  2  0  0  0  0
 32 30  1  0  0  0  0
 33 28  1  0  0  0  0
 33 34  1  0  0  0  0
 34 31  1  0  0  0  0
 35 33  2  0  0  0  0
 36 37  2  0  0  0  0
 36 38  1  0  0  0  0
M  END
>  <MODEL>
7

>  <REMARK>
 VINA RESULT:      -8.0      4.305      8.867
  Name = 
  5 active torsions:
  status: ('A' for Active; 'I' for Inactive)
    1  A    between atoms: C_6  and  C_16
    2  A    between atoms: C_9  and  C_25
    3  A    between atoms: C_25  and  S_28
    4  A    between atoms: C_27  and  C_34
    5  A    between atoms: S_28  and  C_34
                            x       y       z     vdW  Elec       q    Type
                         _______ _______ _______ _____ _____    ______ ____

>  <TORSDO>
F 5

$$$$
=
 OpenBabel10222416283D

 38 43  0  0  1  0  0  0  0  0999 V2000
  189.1830  177.8180  142.1480 C   0  0  0  0  0  0  0  0  0  0  0  0
  189.2030  177.9600  144.6910 C   0  0  0  0  0  0  0  0  0  0  0  0
  188.4610  177.9070  141.0570 N   0  0  0  0  0  0  0  0  0  0  0  0
  190.4270  178.4440  144.9570 C   0  0  0  0  0  3  0  0  0  0  0  0
  190.5140  176.3640  137.1800 N   0  0  0  0  0  2  0  0  0  0  0  0
  191.4650  178.6260  142.6910 C   0  0  0  0  0  3  0  0  0  0  0  0
  192.3510  176.9760  140.2580 C   0  0  0  0  0  3  0  0  0  0  0  0
  190.2080  177.2130  139.5890 C   0  0  0  0  0  0  0  0  0  0  0  0
  188.5420  177.9860  143.4220 N   0  0  0  0  0  0  0  0  0  0  0  0
  192.2730  176.7440  138.8010 C   0  0  0  0  0  3  0  0  0  0  0  0
  190.6700  177.5040  142.1000 C   0  0  2  0  0  3  0  0  0  0  0  0
  186.2230  178.7320  143.3250 C   0  0  0  0  0  1  0  0  0  0  0  0
  187.1320  177.2850  145.1280 C   0  0  0  0  0  0  0  0  0  0  0  0
  191.3690  179.0030  143.9680 C   0  0  0  0  0  3  0  0  0  0  0  0
  187.6140  176.9120  136.6240 C   0  0  0  0  0  2  0  0  0  0  0  0
  185.9420  176.7530  145.8430 C   0  0  0  0  0  1  0  0  0  0  0  0
  189.4910  175.3210  137.2120 C   0  0  1  0  0  3  0  0  0  0  0  0
  188.2970  177.5030  145.7250 C   0  0  0  0  0  3  0  0  0  0  0  0
  188.1290  178.0740  138.5590 C   0  0  0  0  0  2  0  0  0  0  0  0
  191.1190  177.2080  140.6960 C   0  0  0  0  0  0  0  0  0  0  0  0
  191.0100  176.9030  138.4110 C   0  0  0  0  0  0  0  0  0  0  0  0
  187.3470  176.9590  138.0570 N   0  0  0  0  0  2  0  0  0  0  0  0
  188.9610  177.6680  139.7310 C   0  0  0  0  0  0  0  0  0  0  0  0
  187.1630  177.5840  143.6560 C   0  0  2  0  0  3  0  0  0  0  0  0
  188.3540  175.6350  136.2490 C   0  0  0  0  0  2  0  0  0  0  0  0
  190.0970  173.9730  136.8450 C   0  0  0  0  0  2  0  0  0  0  0  0
  190.5690  173.9540  135.0830 S   0  0  0  0  0  0  0  0  0  0  0  0
  192.3340  174.2530  135.4290 C   0  0  0  0  0  2  0  0  0  0  0  0
  194.6800  171.9950  137.3500 N   0  0  0  0  0  0  0  0  0  0  0  0
  195.5250  173.7920  138.3150 C   0  0  0  0  0  0  0  0  0  0  0  0
  194.5590  174.1900  137.4100 C   0  0  0  0  0  3  0  0  0  0  0  0
  195.5840  172.4100  138.2620 C   0  0  0  0  0  3  0  0  0  0  0  0
  193.0240  173.0010  135.8760 C   0  0  0  0  0  0  0  0  0  0  0  0
  194.0750  173.0610  136.8490 N   0  0  0  0  0  0  0  0  0  0  0  0
  192.6690  171.8860  135.3960 O   0  0  0  0  0  0  0  0  0  0  0  0
  196.3350  174.6680  139.1730 C   0  0  0  0  0  0  0  0  0  0  0  0
  197.6820  174.8780  138.8920 O   0  0  0  0  0  0  0  0  0  0  0  0
  195.8050  175.2530  140.1570 O   0  0  0  0  0  1  0  0  0  0  0  0
  1  9  1  0  0  0  0
  2  4  2  0  0  0  0
  2 18  1  0  0  0  0
  3  1  2  0  0  0  0
  5 17  1  0  0  0  0
  5 21  1  0  0  0  0
  6 14  2  0  0  0  0
  7 20  2  0  0  0  0
  8 23  2  0  0  0  0
  8 20  1  0  0  0  0
  9 24  1  0  0  0  0
  9  2  1  0  0  0  0
 10  7  1  0  0  0  0
 11  1  1  0  0  0  0
 11  6  1  6  0  0  0
 13 18  2  0  0  0  0
 13 16  1  0  0  0  0
 14  4  1  0  0  0  0
 15 22  1  0  0  0  0
 17 26  1  6  0  0  0
 19 23  1  0  0  0  0
 20 11  1  0  0  0  0
 21 10  2  0  0  0  0
 21  8  1  0  0  0  0
 22 19  1  0  0  0  0
 23  3  1  0  0  0  0
 24 12  1  1  0  0  0
 24 13  1  0  0  0  0
 25 15  1  0  0  0  0
 25 17  1  0  0  0  0
 27 28  1  0  0  0  0
 27 26  1  0  0  0  0
 28 33  1  0  0  0  0
 29 32  2  0  0  0  0
 30 36  1  0  0  0  0
 31 30  2  0  0  0  0
 32 30  1  0  0  0  0
 33 34  1  0  0  0  0
 34 29  1  0  0  0  0
 34 31  1  0  0  0  0
 35 33  2  0  0  0  0
 36 38  1  0  0  0  0
 37 36  2  0  0  0  0
M  END
>  <MODEL>
8

>  <REMARK>
 VINA RESULT:      -7.9      4.531      8.981
  Name = 
  5 active torsions:
  status: ('A' for Active; 'I' for Inactive)
    1  A    between atoms: C_6  and  C_16
    2  A    between atoms: C_9  and  C_25
    3  A    between atoms: C_25  and  S_28
    4  A    between atoms: C_27  and  C_34
    5  A    between atoms: S_28  and  C_34
                            x       y       z     vdW  Elec       q    Type
                         _______ _______ _______ _____ _____    ______ ____

>  <TORSDO>
F 5

$$$$
=
 OpenBabel10222416283D

 38 43  0  0  1  0  0  0  0  0999 V2000
  189.1500  177.4570  140.8520 C   0  0  0  0  0  0  0  0  0  0  0  0
  189.6490  177.4410  143.3490 C   0  0  0  0  0  0  0  0  0  0  0  0
  188.3060  177.8070  139.9120 N   0  0  0  0  0  0  0  0  0  0  0  0
  190.9870  177.5470  143.3910 C   0  0  0  0  0  3  0  0  0  0  0  0
  189.1300  175.9790  135.7150 N   0  0  0  0  0  2  0  0  0  0  0  0
  191.6250  177.5630  140.9740 C   0  0  0  0  0  3  0  0  0  0  0  0
  191.5700  175.8740  138.4110 C   0  0  0  0  0  3  0  0  0  0  0  0
  189.5010  176.7390  138.1450 C   0  0  0  0  0  0  0  0  0  0  0  0
  188.8140  177.7230  142.2220 N   0  0  0  0  0  0  0  0  0  0  0  0
  191.1770  175.7580  136.9910 C   0  0  0  0  0  3  0  0  0  0  0  0
  190.4540  176.7440  140.5310 C   0  0  2  0  0  3  0  0  0  0  0  0
  186.8230  179.0920  142.5540 C   0  0  0  0  0  1  0  0  0  0  0  0
  187.5800  177.3470  144.1520 C   0  0  0  0  0  0  0  0  0  0  0  0
  191.8640  177.8780  142.2500 C   0  0  0  0  0  3  0  0  0  0  0  0
  186.4560  177.3460  135.7010 C   0  0  0  0  0  2  0  0  0  0  0  0
  186.4310  177.1280  145.0700 C   0  0  0  0  0  1  0  0  0  0  0  0
  187.8740  175.2620  135.9280 C   0  0  1  0  0  3  0  0  0  0  0  0
  188.8440  177.1960  144.5280 C   0  0  0  0  0  3  0  0  0  0  0  0
  187.6080  178.2040  137.5170 C   0  0  0  0  0  2  0  0  0  0  0  0
  190.5490  176.4150  139.0680 C   0  0  0  0  0  0  0  0  0  0  0  0
  189.9640  176.2850  136.8390 C   0  0  0  0  0  0  0  0  0  0  0  0
  186.4660  177.3820  137.1590 N   0  0  0  0  0  2  0  0  0  0  0  0
  188.4800  177.5150  138.5150 C   0  0  0  0  0  0  0  0  0  0  0  0
  187.4400  177.7100  142.7020 C   0  0  2  0  0  3  0  0  0  0  0  0
  186.7250  175.9370  135.1900 C   0  0  0  0  0  2  0  0  0  0  0  0
  187.9970  173.8230  135.4480 C   0  0  0  0  0  2  0  0  0  0  0  0
  186.3830  173.2160  134.8540 S   0  0  0  0  0  0  0  0  0  0  0  0
  185.9240  172.4990  136.4670 C   0  0  0  0  0  2  0  0  0  0  0  0
  182.3300  173.4070  137.2150 N   0  0  0  0  0  0  0  0  0  0  0  0
  183.0420  175.3520  137.9790 C   0  0  0  0  0  0  0  0  0  0  0  0
  184.1370  174.6010  137.5940 C   0  0  0  0  0  3  0  0  0  0  0  0
  181.9180  174.5830  137.7310 C   0  0  0  0  0  3  0  0  0  0  0  0
  184.4390  172.3550  136.5980 C   0  0  0  0  0  0  0  0  0  0  0  0
  183.6520  173.4270  137.1370 N   0  0  0  0  0  0  0  0  0  0  0  0
  183.8780  171.2850  136.2250 O   0  0  0  0  0  0  0  0  0  0  0  0
  183.0660  176.7090  138.5410 C   0  0  0  0  0  0  0  0  0  0  0  0
  183.0970  177.8180  137.7000 O   0  0  0  0  0  0  0  0  0  0  0  0
  183.0340  176.8760  139.7900 O   0  0  0  0  0  1  0  0  0  0  0  0
  1  9  1  0  0  0  0
  2  4  2  0  0  0  0
  2 18  1  0  0  0  0
  3  1  2  0  0  0  0
  5 17  1  0  0  0  0
  5 21  1  0  0  0  0
  6 14  2  0  0  0  0
  7 20  2  0  0  0  0
  8 23  2  0  0  0  0
  8 20  1  0  0  0  0
  9 24  1  0  0  0  0
  9  2  1  0  0  0  0
 10  7  1  0  0  0  0
 11  1  1  0  0  0  0
 11  6  1  6  0  0  0
 13 18  2  0  0  0  0
 13 16  1  0  0  0  0
 14  4  1  0  0  0  0
 15 22  1  0  0  0  0
 17 26  1  6  0  0  0
 19 23  1  0  0  0  0
 20 11  1  0  0  0  0
 21 10  2  0  0  0  0
 21  8  1  0  0  0  0
 22 19  1  0  0  0  0
 23  3  1  0  0  0  0
 24 12  1  1  0  0  0
 24 13  1  0  0  0  0
 25 15  1  0  0  0  0
 25 17  1  0  0  0  0
 27 26  1  0  0  0  0
 27 28  1  0  0  0  0
 28 33  1  0  0  0  0
 29 32  2  0  0  0  0
 30 36  1  0  0  0  0
 31 30  2  0  0  0  0
 32 30  1  0  0  0  0
 33 34  1  0  0  0  0
 34 29  1  0  0  0  0
 34 31  1  0  0  0  0
 35 33  2  0  0  0  0
 36 38  1  0  0  0  0
 37 36  2  0  0  0  0
M  END
>  <MODEL>
9

>  <REMARK>
 VINA RESULT:      -7.8      3.699      8.556
  Name = 
  5 active torsions:
  status: ('A' for Active; 'I' for Inactive)
    1  A    between atoms: C_6  and  C_16
    2  A    between atoms: C_9  and  C_25
    3  A    between atoms: C_25  and  S_28
    4  A    between atoms: C_27  and  C_34
    5  A    between atoms: S_28  and  C_34
                            x       y       z     vdW  Elec       q    Type
                         _______ _______ _______ _____ _____    ______ ____

>  <TORSDO>
F 5

$$$$
