=
 OpenBabel10222418563D

 43 45  0  0  1  0  0  0  0  0999 V2000
  189.4310  177.4250  143.5560 C   0  0  2  0  0  3  0  0  0  0  0  0
  190.6800  178.0050  144.1280 C   0  0  0  0  0  0  0  0  0  0  0  0
  191.4720  177.2900  144.7970 O   0  0  0  0  0  0  0  0  0  0  0  0
  190.9820  179.3780  143.9100 N   0  0  0  0  0  1  0  0  0  0  0  0
  188.6440  176.8020  144.6120 N   0  0  0  0  0  2  0  0  0  0  0  0
  186.3700  177.6820  144.5670 C   0  0  0  0  0  3  0  0  0  0  0  0
  186.6080  178.5690  147.2060 C   0  0  0  0  0  3  0  0  0  0  0  0
  185.2950  178.3390  145.1740 C   0  0  0  0  0  0  0  0  0  0  0  0
  187.5600  177.4650  145.2680 C   0  0  0  0  0  0  0  0  0  0  0  0
  187.6750  177.9120  146.5920 C   0  0  0  0  0  3  0  0  0  0  0  0
  185.4210  178.7830  146.4990 C   0  0  0  0  0  3  0  0  0  0  0  0
  182.7220  179.1370  142.4260 N   0  0  0  0  0  2  0  0  0  0  0  0
  181.4510  178.8800  143.0400 C   0  0  0  0  0  0  0  0  0  0  0  0
  181.3720  178.5570  144.2550 O   0  0  0  0  0  0  0  0  0  0  0  0
  183.9970  179.0100  143.0630 C   0  0  0  0  0  0  0  0  0  0  0  0
  185.0330  179.3100  142.4120 O   0  0  0  0  0  0  0  0  0  0  0  0
  184.0940  178.5390  144.4170 N   0  0  0  0  0  2  0  0  0  0  0  0
  179.6980  180.4210  142.2370 C   0  0  0  0  0  1  0  0  0  0  0  0
  180.1950  178.9890  142.2360 C   0  0  1  0  0  3  0  0  0  0  0  0
  180.4160  178.5230  140.8030 C   0  0  0  0  0  2  0  0  0  0  0  0
  180.7350  176.3840  139.8020 O   0  0  0  0  0  0  0  0  0  0  0  0
  179.2210  176.4530  141.5200 O   0  0  0  0  0  1  0  0  0  0  0  0
  180.1300  177.0650  140.6680 C   0  0  0  0  0  0  0  0  0  0  0  0
  189.7700  176.4040  142.4750 C   0  0  0  0  0  2  0  0  0  0  0  0
  187.6430  178.0180  140.5620 C   0  0  0  0  0  2  0  0  0  0  0  0
  193.5430  176.7410  138.7380 C   0  0  0  0  0  3  0  0  0  0  0  0
  187.5320  178.5370  139.1350 C   0  0  0  0  0  2  0  0  0  0  0  0
  191.4430  175.6590  137.8970 C   0  0  0  0  0  3  0  0  0  0  0  0
  187.9910  176.4450  137.8490 C   0  0  0  0  0  0  0  0  0  0  0  0
  187.1380  177.4860  138.2520 O   0  0  0  0  0  0  0  0  0  0  0  0
  192.7620  175.8210  137.9070 C   0  0  0  0  0  3  0  0  0  0  0  0
  189.2280  176.3790  138.2660 C   0  0  0  0  0  0  0  0  0  0  0  0
  193.1620  177.3750  139.8420 C   0  0  0  0  0  3  0  0  0  0  0  0
  190.6980  176.8250  140.1130 C   0  0  0  0  0  0  0  0  0  0  0  0
  189.5140  176.9190  141.0510 C   0  0  2  0  0  3  0  0  0  0  0  0
  191.8700  177.3080  140.5360 C   0  0  0  0  0  3  0  0  0  0  0  0
  190.4510  176.3450  138.7300 C   0  0  0  0  0  0  0  0  0  0  0  0
  188.9470  178.1990  141.0340 O   0  0  0  0  0  0  0  0  0  0  0  0
  188.2550  175.3430  135.7790 O   0  0  0  0  0  1  0  0  0  0  0  0
  187.4800  175.3820  136.9390 C   0  0  2  0  0  3  0  0  0  0  0  0
  186.0310  175.6560  136.5820 C   0  0  0  0  0  2  0  0  0  0  0  0
  185.3570  174.4530  136.3740 O   0  0  0  0  0  0  0  0  0  0  0  0
  184.5200  174.3240  137.4810 C   0  0  0  0  0  1  0  0  0  0  0  0
  1 24  1  6  0  0  0
  1  2  1  0  0  0  0
  1  5  1  0  0  0  0
  2  3  2  0  0  0  0
  4  2  1  0  0  0  0
  5  9  1  0  0  0  0
  6  8  2  0  0  0  0
  6  9  1  0  0  0  0
  8 11  1  0  0  0  0
  9 10  2  0  0  0  0
 10  7  1  0  0  0  0
 11  7  2  0  0  0  0
 12 13  1  0  0  0  0
 12 15  1  0  0  0  0
 13 14  2  0  0  0  0
 15 17  1  0  0  0  0
 16 15  2  0  0  0  0
 17  8  1  0  0  0  0
 19 18  1  6  0  0  0
 19 13  1  0  0  0  0
 20 19  1  0  0  0  0
 21 23  2  0  0  0  0
 23 20  1  0  0  0  0
 23 22  1  0  0  0  0
 25 38  1  0  0  0  0
 26 33  2  0  0  0  0
 27 25  1  0  0  0  0
 28 31  2  0  0  0  0
 28 37  1  0  0  0  0
 29 30  1  0  0  0  0
 29 32  2  0  0  0  0
 30 27  1  0  0  0  0
 31 26  1  0  0  0  0
 32 37  2  0  0  0  0
 33 36  1  0  0  0  0
 34 36  2  0  0  0  0
 34 35  1  0  0  0  0
 35 24  1  1  0  0  0
 37 34  1  0  0  0  0
 38 35  1  0  0  0  0
 40 39  1  6  0  0  0
 40 29  1  0  0  0  0
 41 40  1  0  0  0  0
 42 41  1  0  0  0  0
 42 43  1  0  0  0  0
M  END
>  <MODEL>
1

>  <REMARK>
 VINA RESULT:      -8.2      0.000      0.000
  Name = 
  12 active torsions:
  status: ('A' for Active; 'I' for Inactive)
    1  A    between atoms: C_5  and  C_17
    2  A    between atoms: C_8  and  C_23
    3  A    between atoms: C_10  and  C_15
    4  A    between atoms: C_15  and  C_33
    5  A    between atoms: C_17  and  N_19
    6  A    between atoms: C_17  and  C_43
    7  A    between atoms: N_19  and  C_30
    8  A    between atoms: C_23  and  C_41
    9  A    between atoms: O_24  and  C_41
   10  A    between atoms: C_25  and  N_42
   11  A    between atoms: C_31  and  C_43
   12  A    between atoms: C_33  and  C_37
                            x       y       z     vdW  Elec       q    Type
                         _______ _______ _______ _____ _____    ______ ____

>  <TORSDO>
F 12

$$$$
=
 OpenBabel10222418563D

 43 45  0  0  1  0  0  0  0  0999 V2000
  190.2340  177.4350  140.7360 C   0  0  2  0  0  3  0  0  0  0  0  0
  191.4140  177.0150  139.9260 C   0  0  0  0  0  0  0  0  0  0  0  0
  192.5210  177.6010  140.0530 O   0  0  0  0  0  0  0  0  0  0  0  0
  191.2870  175.9390  139.0050 N   0  0  0  0  0  1  0  0  0  0  0  0
  189.5720  178.5660  140.1000 N   0  0  0  0  0  2  0  0  0  0  0  0
  187.2030  178.3850  139.5470 C   0  0  0  0  0  3  0  0  0  0  0  0
  187.8060  178.1190  136.8320 C   0  0  0  0  0  3  0  0  0  0  0  0
  186.1670  178.2240  138.6230 C   0  0  0  0  0  0  0  0  0  0  0  0
  188.5360  178.4140  139.1260 C   0  0  0  0  0  0  0  0  0  0  0  0
  188.8350  178.2810  137.7620 C   0  0  0  0  0  3  0  0  0  0  0  0
  186.4760  178.0900  137.2610 C   0  0  0  0  0  3  0  0  0  0  0  0
  182.6140  179.1480  139.7750 N   0  0  0  0  0  2  0  0  0  0  0  0
  182.0110  177.8920  140.1190 C   0  0  0  0  0  0  0  0  0  0  0  0
  182.6760  176.8230  140.0810 O   0  0  0  0  0  0  0  0  0  0  0  0
  183.9550  179.3300  139.3130 C   0  0  0  0  0  0  0  0  0  0  0  0
  184.3650  180.5000  139.0870 O   0  0  0  0  0  0  0  0  0  0  0  0
  184.8150  178.1990  139.1010 N   0  0  0  0  0  2  0  0  0  0  0  0
  180.0670  176.4110  140.4650 C   0  0  0  0  0  1  0  0  0  0  0  0
  180.5730  177.8380  140.5260 C   0  0  1  0  0  3  0  0  0  0  0  0
  180.3760  178.3940  141.9290 C   0  0  0  0  0  2  0  0  0  0  0  0
  179.7190  180.4490  142.9410 O   0  0  0  0  0  1  0  0  0  0  0  0
  179.5200  180.3640  140.6600 O   0  0  0  0  0  0  0  0  0  0  0  0
  179.8440  179.7870  141.8810 C   0  0  0  0  0  0  0  0  0  0  0  0
  190.6680  177.8030  142.1510 C   0  0  0  0  0  2  0  0  0  0  0  0
  187.5670  176.9830  142.8550 C   0  0  0  0  0  2  0  0  0  0  0  0
  192.4230  175.3170  146.5160 C   0  0  0  0  0  3  0  0  0  0  0  0
  186.7640  176.3500  143.9830 C   0  0  0  0  0  2  0  0  0  0  0  0
  190.6850  177.0520  147.0240 C   0  0  0  0  0  3  0  0  0  0  0  0
  187.4190  177.8210  145.8920 C   0  0  0  0  0  0  0  0  0  0  0  0
  186.4680  177.3200  144.9880 O   0  0  0  0  0  0  0  0  0  0  0  0
  191.7670  176.3440  147.3300 C   0  0  0  0  0  3  0  0  0  0  0  0
  188.6610  177.4140  145.8700 C   0  0  0  0  0  0  0  0  0  0  0  0
  192.2790  175.0840  145.2160 C   0  0  0  0  0  3  0  0  0  0  0  0
  190.4500  176.6700  144.4500 C   0  0  0  0  0  0  0  0  0  0  0  0
  189.7430  177.2360  143.2370 C   0  0  2  0  0  3  0  0  0  0  0  0
  191.4460  175.8030  144.2450 C   0  0  0  0  0  3  0  0  0  0  0  0
  189.8960  176.9920  145.7890 C   0  0  0  0  0  0  0  0  0  0  0  0
  188.8000  176.3360  142.7270 O   0  0  0  0  0  0  0  0  0  0  0  0
  187.5570  178.5270  148.1410 O   0  0  0  0  0  1  0  0  0  0  0  0
  187.0160  178.8480  146.8940 C   0  0  2  0  0  3  0  0  0  0  0  0
  185.5030  178.9150  146.9900 C   0  0  0  0  0  2  0  0  0  0  0  0
  184.9970  179.7010  145.9560 O   0  0  0  0  0  0  0  0  0  0  0  0
  183.8890  178.9950  145.4900 C   0  0  0  0  0  1  0  0  0  0  0  0
  1 24  1  1  0  0  0
  2  3  2  0  0  0  0
  2  1  1  0  0  0  0
  4  2  1  0  0  0  0
  5  1  1  0  0  0  0
  7 11  2  0  0  0  0
  7 10  1  0  0  0  0
  8 17  1  0  0  0  0
  8  6  2  0  0  0  0
  9  6  1  0  0  0  0
  9  5  1  0  0  0  0
 10  9  2  0  0  0  0
 11  8  1  0  0  0  0
 12 13  1  0  0  0  0
 13 19  1  0  0  0  0
 14 13  2  0  0  0  0
 15 12  1  0  0  0  0
 16 15  2  0  0  0  0
 17 15  1  0  0  0  0
 19 18  1  1  0  0  0
 19 20  1  0  0  0  0
 22 23  2  0  0  0  0
 23 20  1  0  0  0  0
 23 21  1  0  0  0  0
 25 27  1  0  0  0  0
 26 31  1  0  0  0  0
 27 30  1  0  0  0  0
 28 31  2  0  0  0  0
 29 40  1  0  0  0  0
 30 29  1  0  0  0  0
 32 29  2  0  0  0  0
 33 26  2  0  0  0  0
 34 37  1  0  0  0  0
 35 24  1  6  0  0  0
 35 34  1  0  0  0  0
 36 34  2  0  0  0  0
 36 33  1  0  0  0  0
 37 32  2  0  0  0  0
 37 28  1  0  0  0  0
 38 25  1  0  0  0  0
 38 35  1  0  0  0  0
 40 41  1  0  0  0  0
 40 39  1  1  0  0  0
 42 41  1  0  0  0  0
 43 42  1  0  0  0  0
M  END
>  <MODEL>
2

>  <REMARK>
 VINA RESULT:      -7.8      2.668      6.561
  Name = 
  12 active torsions:
  status: ('A' for Active; 'I' for Inactive)
    1  A    between atoms: C_5  and  C_17
    2  A    between atoms: C_8  and  C_23
    3  A    between atoms: C_10  and  C_15
    4  A    between atoms: C_15  and  C_33
    5  A    between atoms: C_17  and  N_19
    6  A    between atoms: C_17  and  C_43
    7  A    between atoms: N_19  and  C_30
    8  A    between atoms: C_23  and  C_41
    9  A    between atoms: O_24  and  C_41
   10  A    between atoms: C_25  and  N_42
   11  A    between atoms: C_31  and  C_43
   12  A    between atoms: C_33  and  C_37
                            x       y       z     vdW  Elec       q    Type
                         _______ _______ _______ _____ _____    ______ ____

>  <TORSDO>
F 12

$$$$
=
 OpenBabel10222418563D

 43 45  0  0  1  0  0  0  0  0999 V2000
  189.6040  177.5530  142.4370 C   0  0  2  0  0  3  0  0  0  0  0  0
  190.5800  178.1900  143.3680 C   0  0  0  0  0  0  0  0  0  0  0  0
  190.2070  179.0750  144.1810 O   0  0  0  0  0  0  0  0  0  0  0  0
  191.9440  177.7870  143.3390 N   0  0  0  0  0  1  0  0  0  0  0  0
  188.6180  176.7930  143.1940 N   0  0  0  0  0  2  0  0  0  0  0  0
  186.3650  177.5980  142.7200 C   0  0  0  0  0  3  0  0  0  0  0  0
  185.9730  178.2360  145.4120 C   0  0  0  0  0  3  0  0  0  0  0  0
  185.1500  178.1590  143.1270 C   0  0  0  0  0  0  0  0  0  0  0  0
  187.3840  177.3540  143.6470 C   0  0  0  0  0  0  0  0  0  0  0  0
  187.1820  177.6750  144.9970 C   0  0  0  0  0  3  0  0  0  0  0  0
  184.9600  178.4770  144.4800 C   0  0  0  0  0  3  0  0  0  0  0  0
  183.1780  179.2450  140.0070 N   0  0  0  0  0  2  0  0  0  0  0  0
  181.8510  178.7470  140.2310 C   0  0  0  0  0  0  0  0  0  0  0  0
  181.5470  178.1780  141.3130 O   0  0  0  0  0  0  0  0  0  0  0  0
  184.2810  179.1150  140.9090 C   0  0  0  0  0  0  0  0  0  0  0  0
  185.3830  179.6400  140.5980 O   0  0  0  0  0  0  0  0  0  0  0  0
  184.1350  178.3910  142.1410 N   0  0  0  0  0  2  0  0  0  0  0  0
  179.8050  177.7600  139.2640 C   0  0  0  0  0  1  0  0  0  0  0  0
  180.8070  178.8950  139.1710 C   0  0  1  0  0  3  0  0  0  0  0  0
  180.0840  180.2290  139.2910 C   0  0  0  0  0  2  0  0  0  0  0  0
  179.8320  181.3250  137.1900 O   0  0  0  0  0  0  0  0  0  0  0  0
  181.6930  181.9090  138.3920 O   0  0  0  0  0  1  0  0  0  0  0  0
  180.5280  181.1730  138.2260 C   0  0  0  0  0  0  0  0  0  0  0  0
  190.3300  176.6450  141.4500 C   0  0  0  0  0  2  0  0  0  0  0  0
  188.0430  178.0230  139.5390 C   0  0  0  0  0  2  0  0  0  0  0  0
  193.3110  175.4610  137.2050 C   0  0  0  0  0  3  0  0  0  0  0  0
  187.7070  178.1760  138.0610 C   0  0  0  0  0  2  0  0  0  0  0  0
  190.9890  174.5280  137.0460 C   0  0  0  0  0  3  0  0  0  0  0  0
  187.6920  175.7830  137.3450 C   0  0  0  0  0  0  0  0  0  0  0  0
  187.0440  177.0080  137.5780 O   0  0  0  0  0  0  0  0  0  0  0  0
  192.2940  174.4890  136.7970 C   0  0  0  0  0  3  0  0  0  0  0  0
  188.9740  175.6410  137.5570 C   0  0  0  0  0  0  0  0  0  0  0  0
  193.2200  176.4030  138.1380 C   0  0  0  0  0  3  0  0  0  0  0  0
  190.8140  176.3140  138.9460 C   0  0  0  0  0  0  0  0  0  0  0  0
  189.8530  176.8160  140.0010 C   0  0  2  0  0  3  0  0  0  0  0  0
  192.0890  176.7060  139.0230 C   0  0  0  0  0  3  0  0  0  0  0  0
  190.2540  175.5420  137.8080 C   0  0  0  0  0  0  0  0  0  0  0  0
  189.4260  178.1210  139.7250 O   0  0  0  0  0  0  0  0  0  0  0  0
  187.5520  174.0400  135.7600 O   0  0  0  0  0  1  0  0  0  0  0  0
  186.9080  174.6130  136.8580 C   0  0  2  0  0  3  0  0  0  0  0  0
  185.5100  175.0530  136.4640 C   0  0  0  0  0  2  0  0  0  0  0  0
  184.6030  174.7050  137.4640 O   0  0  0  0  0  0  0  0  0  0  0  0
  184.8370  173.3500  137.6940 C   0  0  0  0  0  1  0  0  0  0  0  0
  1 24  1  6  0  0  0
  1  5  1  0  0  0  0
  1  2  1  0  0  0  0
  2  3  2  0  0  0  0
  4  2  1  0  0  0  0
  5  9  1  0  0  0  0
  6  8  2  0  0  0  0
  6  9  1  0  0  0  0
  8 11  1  0  0  0  0
  9 10  2  0  0  0  0
 10  7  1  0  0  0  0
 11  7  2  0  0  0  0
 12 13  1  0  0  0  0
 12 15  1  0  0  0  0
 13 14  2  0  0  0  0
 15 17  1  0  0  0  0
 16 15  2  0  0  0  0
 17  8  1  0  0  0  0
 19 18  1  1  0  0  0
 19 20  1  0  0  0  0
 19 13  1  0  0  0  0
 21 23  2  0  0  0  0
 23 22  1  0  0  0  0
 23 20  1  0  0  0  0
 25 38  1  0  0  0  0
 26 33  2  0  0  0  0
 27 25  1  0  0  0  0
 28 37  1  0  0  0  0
 29 32  2  0  0  0  0
 29 30  1  0  0  0  0
 30 27  1  0  0  0  0
 31 28  2  0  0  0  0
 31 26  1  0  0  0  0
 32 37  2  0  0  0  0
 33 36  1  0  0  0  0
 34 36  2  0  0  0  0
 34 35  1  0  0  0  0
 35 24  1  1  0  0  0
 37 34  1  0  0  0  0
 38 35  1  0  0  0  0
 40 39  1  6  0  0  0
 40 29  1  0  0  0  0
 41 40  1  0  0  0  0
 41 42  1  0  0  0  0
 42 43  1  0  0  0  0
M  END
>  <MODEL>
3

>  <REMARK>
 VINA RESULT:      -7.7      1.944      2.352
  Name = 
  12 active torsions:
  status: ('A' for Active; 'I' for Inactive)
    1  A    between atoms: C_5  and  C_17
    2  A    between atoms: C_8  and  C_23
    3  A    between atoms: C_10  and  C_15
    4  A    between atoms: C_15  and  C_33
    5  A    between atoms: C_17  and  N_19
    6  A    between atoms: C_17  and  C_43
    7  A    between atoms: N_19  and  C_30
    8  A    between atoms: C_23  and  C_41
    9  A    between atoms: O_24  and  C_41
   10  A    between atoms: C_25  and  N_42
   11  A    between atoms: C_31  and  C_43
   12  A    between atoms: C_33  and  C_37
                            x       y       z     vdW  Elec       q    Type
                         _______ _______ _______ _____ _____    ______ ____

>  <TORSDO>
F 12

$$$$
=
 OpenBabel10222418563D

 43 45  0  0  1  0  0  0  0  0999 V2000
  182.9310  178.3740  140.1660 C   0  0  2  0  0  3  0  0  0  0  0  0
  181.7010  179.1030  140.5900 C   0  0  0  0  0  0  0  0  0  0  0  0
  181.1870  178.8930  141.7200 O   0  0  0  0  0  0  0  0  0  0  0  0
  181.1070  180.0500  139.7090 N   0  0  0  0  0  1  0  0  0  0  0  0
  182.6160  177.4650  139.0710 N   0  0  0  0  0  2  0  0  0  0  0  0
  184.8310  177.2660  138.0700 C   0  0  0  0  0  3  0  0  0  0  0  0
  183.7190  177.1520  135.5090 C   0  0  0  0  0  3  0  0  0  0  0  0
  185.6700  177.1470  136.9570 C   0  0  0  0  0  0  0  0  0  0  0  0
  183.4430  177.3290  137.9130 C   0  0  0  0  0  0  0  0  0  0  0  0
  182.8890  177.2710  136.6250 C   0  0  0  0  0  3  0  0  0  0  0  0
  185.1050  177.0910  135.6740 C   0  0  0  0  0  3  0  0  0  0  0  0
  189.4020  177.9750  137.3910 N   0  0  0  0  0  2  0  0  0  0  0  0
  190.0240  176.7060  137.6370 C   0  0  0  0  0  0  0  0  0  0  0  0
  189.3570  175.6380  137.5930 O   0  0  0  0  0  0  0  0  0  0  0  0
  188.0110  178.1870  137.1380 C   0  0  0  0  0  0  0  0  0  0  0  0
  187.6090  179.3560  136.8970 O   0  0  0  0  0  0  0  0  0  0  0  0
  187.0870  177.0860  137.1670 N   0  0  0  0  0  2  0  0  0  0  0  0
  191.7220  177.0190  139.4030 C   0  0  0  0  0  1  0  0  0  0  0  0
  191.4840  176.6360  137.9550 C   0  0  1  0  0  3  0  0  0  0  0  0
  192.0400  175.2430  137.6940 C   0  0  0  0  0  2  0  0  0  0  0  0
  194.0240  176.3780  137.0180 O   0  0  0  0  0  0  0  0  0  0  0  0
  194.2880  174.1690  137.5670 O   0  0  0  0  0  1  0  0  0  0  0  0
  193.5000  175.3000  137.3960 C   0  0  0  0  0  0  0  0  0  0  0  0
  183.5180  177.6010  141.3430 C   0  0  0  0  0  2  0  0  0  0  0  0
  186.3530  178.8340  140.2330 C   0  0  0  0  0  2  0  0  0  0  0  0
  184.8740  178.7310  146.3620 C   0  0  0  0  0  3  0  0  0  0  0  0
  187.6780  179.3570  140.7710 C   0  0  0  0  0  2  0  0  0  0  0  0
  186.5710  177.2950  145.2020 C   0  0  0  0  0  3  0  0  0  0  0  0
  188.4000  177.4200  142.1730 C   0  0  0  0  0  0  0  0  0  0  0  0
  188.5580  178.2730  141.0680 O   0  0  0  0  0  0  0  0  0  0  0  0
  185.9130  177.7020  146.2830 C   0  0  0  0  0  3  0  0  0  0  0  0
  187.4160  177.5780  143.0190 C   0  0  0  0  0  0  0  0  0  0  0  0
  184.1600  179.2550  145.3710 C   0  0  0  0  0  3  0  0  0  0  0  0
  185.1200  178.2470  143.2480 C   0  0  0  0  0  0  0  0  0  0  0  0
  184.9120  178.0940  141.7570 C   0  0  2  0  0  3  0  0  0  0  0  0
  184.2050  178.9300  143.9410 C   0  0  0  0  0  3  0  0  0  0  0  0
  186.4010  177.7620  143.8230 C   0  0  0  0  0  0  0  0  0  0  0  0
  185.3050  179.2450  141.0640 O   0  0  0  0  0  0  0  0  0  0  0  0
  188.7600  175.3040  143.1540 O   0  0  0  0  0  1  0  0  0  0  0  0
  189.3620  176.3030  142.3870 C   0  0  2  0  0  3  0  0  0  0  0  0
  190.6050  176.8150  143.0920 C   0  0  0  0  0  2  0  0  0  0  0  0
  190.6200  176.3670  144.4120 O   0  0  0  0  0  0  0  0  0  0  0  0
  190.6320  177.5330  145.1770 C   0  0  0  0  0  1  0  0  0  0  0  0
  1  2  1  0  0  0  0
  1 24  1  1  0  0  0
  2  3  2  0  0  0  0
  4  2  1  0  0  0  0
  5  1  1  0  0  0  0
  7 11  2  0  0  0  0
  7 10  1  0  0  0  0
  8 17  1  0  0  0  0
  8  6  2  0  0  0  0
  9  6  1  0  0  0  0
  9  5  1  0  0  0  0
 10  9  2  0  0  0  0
 11  8  1  0  0  0  0
 12 13  1  0  0  0  0
 13 19  1  0  0  0  0
 14 13  2  0  0  0  0
 15 17  1  0  0  0  0
 15 12  1  0  0  0  0
 16 15  2  0  0  0  0
 19 18  1  1  0  0  0
 20 19  1  0  0  0  0
 21 23  2  0  0  0  0
 23 22  1  0  0  0  0
 23 20  1  0  0  0  0
 25 27  1  0  0  0  0
 25 38  1  0  0  0  0
 27 30  1  0  0  0  0
 28 31  2  0  0  0  0
 29 40  1  0  0  0  0
 29 32  2  0  0  0  0
 30 29  1  0  0  0  0
 31 26  1  0  0  0  0
 32 37  2  0  0  0  0
 33 26  2  0  0  0  0
 34 37  1  0  0  0  0
 34 36  2  0  0  0  0
 35 24  1  1  0  0  0
 35 34  1  0  0  0  0
 36 33  1  0  0  0  0
 37 28  1  0  0  0  0
 38 35  1  0  0  0  0
 40 41  1  0  0  0  0
 40 39  1  1  0  0  0
 41 42  1  0  0  0  0
 42 43  1  0  0  0  0
M  END
>  <MODEL>
4

>  <REMARK>
 VINA RESULT:      -7.6      2.744      9.252
  Name = 
  12 active torsions:
  status: ('A' for Active; 'I' for Inactive)
    1  A    between atoms: C_5  and  C_17
    2  A    between atoms: C_8  and  C_23
    3  A    between atoms: C_10  and  C_15
    4  A    between atoms: C_15  and  C_33
    5  A    between atoms: C_17  and  N_19
    6  A    between atoms: C_17  and  C_43
    7  A    between atoms: N_19  and  C_30
    8  A    between atoms: C_23  and  C_41
    9  A    between atoms: O_24  and  C_41
   10  A    between atoms: C_25  and  N_42
   11  A    between atoms: C_31  and  C_43
   12  A    between atoms: C_33  and  C_37
                            x       y       z     vdW  Elec       q    Type
                         _______ _______ _______ _____ _____    ______ ____

>  <TORSDO>
F 12

$$$$
=
 OpenBabel10222418563D

 43 45  0  0  1  0  0  0  0  0999 V2000
  183.4440  177.7620  139.5910 C   0  0  2  0  0  3  0  0  0  0  0  0
  182.2470  176.9610  139.2060 C   0  0  0  0  0  0  0  0  0  0  0  0
  181.2740  177.5020  138.6170 O   0  0  0  0  0  0  0  0  0  0  0  0
  182.2060  175.5700  139.5030 N   0  0  0  0  0  1  0  0  0  0  0  0
  183.0720  178.7680  140.5770 N   0  0  0  0  0  2  0  0  0  0  0  0
  184.8010  178.3310  142.2400 C   0  0  0  0  0  3  0  0  0  0  0  0
  183.0290  178.9320  144.3140 C   0  0  0  0  0  3  0  0  0  0  0  0
  185.2370  178.2500  143.5670 C   0  0  0  0  0  0  0  0  0  0  0  0
  183.4880  178.7100  141.9430 C   0  0  0  0  0  0  0  0  0  0  0  0
  182.6020  179.0120  142.9880 C   0  0  0  0  0  3  0  0  0  0  0  0
  184.3420  178.5520  144.6030 C   0  0  0  0  0  3  0  0  0  0  0  0
  188.5150  177.0340  145.1740 N   0  0  0  0  0  2  0  0  0  0  0  0
  189.4760  177.0850  144.1100 C   0  0  0  0  0  0  0  0  0  0  0  0
  189.1660  177.5440  142.9780 O   0  0  0  0  0  0  0  0  0  0  0  0
  187.1410  177.4190  145.0760 C   0  0  0  0  0  0  0  0  0  0  0  0
  186.4190  177.3600  146.1070 O   0  0  0  0  0  0  0  0  0  0  0  0
  186.5930  177.8570  143.8220 N   0  0  0  0  0  2  0  0  0  0  0  0
  191.6840  176.7310  143.0640 C   0  0  0  0  0  1  0  0  0  0  0  0
  190.8680  176.5870  144.3340 C   0  0  1  0  0  3  0  0  0  0  0  0
  191.5480  177.3400  145.4680 C   0  0  0  0  0  2  0  0  0  0  0  0
  190.9390  176.8210  147.7130 O   0  0  0  0  0  1  0  0  0  0  0  0
  192.3880  175.3510  146.7180 O   0  0  0  0  0  0  0  0  0  0  0  0
  191.6120  176.5030  146.7010 C   0  0  0  0  0  0  0  0  0  0  0  0
  184.0540  178.4250  138.3610 C   0  0  0  0  0  2  0  0  0  0  0  0
  183.1880  176.4160  135.9110 C   0  0  0  0  0  2  0  0  0  0  0  0
  189.1980  177.9030  137.1050 C   0  0  0  0  0  3  0  0  0  0  0  0
  183.8330  175.4910  134.8890 C   0  0  0  0  0  2  0  0  0  0  0  0
  188.0810  175.7010  137.5400 C   0  0  0  0  0  3  0  0  0  0  0  0
  185.1830  174.0200  136.3900 C   0  0  0  0  0  0  0  0  0  0  0  0
  184.1330  174.2270  135.4810 O   0  0  0  0  0  0  0  0  0  0  0  0
  189.1360  176.5090  137.5500 C   0  0  0  0  0  3  0  0  0  0  0  0
  185.9720  174.9980  136.7520 C   0  0  0  0  0  0  0  0  0  0  0  0
  188.1900  178.7420  136.8870 C   0  0  0  0  0  3  0  0  0  0  0  0
  186.0860  177.3550  137.2030 C   0  0  0  0  0  0  0  0  0  0  0  0
  184.5790  177.4200  137.3260 C   0  0  2  0  0  3  0  0  0  0  0  0
  186.7520  178.5050  137.0550 C   0  0  0  0  0  3  0  0  0  0  0  0
  186.7170  176.0150  137.1010 C   0  0  0  0  0  0  0  0  0  0  0  0
  183.9690  177.5650  136.0750 O   0  0  0  0  0  0  0  0  0  0  0  0
  186.5300  172.0820  136.3850 O   0  0  0  0  0  1  0  0  0  0  0  0
  185.4040  172.6650  136.9690 C   0  0  2  0  0  3  0  0  0  0  0  0
  184.1870  171.7930  136.7280 C   0  0  0  0  0  2  0  0  0  0  0  0
  184.5150  170.7490  135.8640 O   0  0  0  0  0  0  0  0  0  0  0  0
  183.5050  169.8060  136.0550 C   0  0  0  0  0  1  0  0  0  0  0  0
  1 24  1  6  0  0  0
  1  5  1  0  0  0  0
  2  4  1  0  0  0  0
  2  1  1  0  0  0  0
  3  2  2  0  0  0  0
  5  9  1  0  0  0  0
  6  8  1  0  0  0  0
  7 11  1  0  0  0  0
  8 17  1  0  0  0  0
  8 11  2  0  0  0  0
  9  6  2  0  0  0  0
  9 10  1  0  0  0  0
 10  7  2  0  0  0  0
 13 19  1  0  0  0  0
 13 12  1  0  0  0  0
 14 13  2  0  0  0  0
 15 12  1  0  0  0  0
 15 16  2  0  0  0  0
 17 15  1  0  0  0  0
 19 18  1  6  0  0  0
 19 20  1  0  0  0  0
 20 23  1  0  0  0  0
 23 22  2  0  0  0  0
 23 21  1  0  0  0  0
 25 38  1  0  0  0  0
 26 31  1  0  0  0  0
 27 30  1  0  0  0  0
 27 25  1  0  0  0  0
 28 31  2  0  0  0  0
 29 32  2  0  0  0  0
 29 40  1  0  0  0  0
 30 29  1  0  0  0  0
 32 37  2  0  0  0  0
 33 36  1  0  0  0  0
 33 26  2  0  0  0  0
 34 35  1  0  0  0  0
 35 24  1  1  0  0  0
 36 34  2  0  0  0  0
 37 34  1  0  0  0  0
 37 28  1  0  0  0  0
 38 35  1  0  0  0  0
 40 39  1  6  0  0  0
 41 40  1  0  0  0  0
 42 43  1  0  0  0  0
 42 41  1  0  0  0  0
M  END
>  <MODEL>
5

>  <REMARK>
 VINA RESULT:      -7.6      2.612      7.285
  Name = 
  12 active torsions:
  status: ('A' for Active; 'I' for Inactive)
    1  A    between atoms: C_5  and  C_17
    2  A    between atoms: C_8  and  C_23
    3  A    between atoms: C_10  and  C_15
    4  A    between atoms: C_15  and  C_33
    5  A    between atoms: C_17  and  N_19
    6  A    between atoms: C_17  and  C_43
    7  A    between atoms: N_19  and  C_30
    8  A    between atoms: C_23  and  C_41
    9  A    between atoms: O_24  and  C_41
   10  A    between atoms: C_25  and  N_42
   11  A    between atoms: C_31  and  C_43
   12  A    between atoms: C_33  and  C_37
                            x       y       z     vdW  Elec       q    Type
                         _______ _______ _______ _____ _____    ______ ____

>  <TORSDO>
F 12

$$$$
=
 OpenBabel10222418563D

 43 45  0  0  1  0  0  0  0  0999 V2000
  184.8560  178.2190  138.7560 C   0  0  2  0  0  3  0  0  0  0  0  0
  184.1990  179.3120  139.5290 C   0  0  0  0  0  0  0  0  0  0  0  0
  184.1930  180.4930  139.0930 O   0  0  0  0  0  0  0  0  0  0  0  0
  183.5690  179.0140  140.7690 N   0  0  0  0  0  1  0  0  0  0  0  0
  186.1740  178.6500  138.3090 N   0  0  0  0  0  2  0  0  0  0  0  0
  187.5220  178.1690  140.2830 C   0  0  0  0  0  3  0  0  0  0  0  0
  189.6290  177.2640  138.6860 C   0  0  0  0  0  3  0  0  0  0  0  0
  188.7010  177.7190  140.8860 C   0  0  0  0  0  0  0  0  0  0  0  0
  187.3880  178.1700  138.8910 C   0  0  0  0  0  0  0  0  0  0  0  0
  188.4480  177.7140  138.0930 C   0  0  0  0  0  3  0  0  0  0  0  0
  189.7560  177.2670  140.0780 C   0  0  0  0  0  3  0  0  0  0  0  0
  187.9910  177.4790  144.6590 N   0  0  0  0  0  2  0  0  0  0  0  0
  189.2310  177.8430  145.2810 C   0  0  0  0  0  0  0  0  0  0  0  0
  190.2140  178.2240  144.5910 O   0  0  0  0  0  0  0  0  0  0  0  0
  187.7420  177.4430  143.2510 C   0  0  0  0  0  0  0  0  0  0  0  0
  186.5880  177.1420  142.8460 O   0  0  0  0  0  0  0  0  0  0  0  0
  188.7930  177.7360  142.3170 N   0  0  0  0  0  2  0  0  0  0  0  0
  188.0240  177.9780  147.4310 C   0  0  0  0  0  1  0  0  0  0  0  0
  189.3720  177.7720  146.7680 C   0  0  1  0  0  3  0  0  0  0  0  0
  189.9610  176.4380  147.2030 C   0  0  0  0  0  2  0  0  0  0  0  0
  192.0640  176.0490  146.1510 O   0  0  0  0  0  0  0  0  0  0  0  0
  192.1620  177.0090  148.2290 O   0  0  0  0  0  1  0  0  0  0  0  0
  191.4510  176.4750  147.1630 C   0  0  0  0  0  0  0  0  0  0  0  0
  183.9940  177.8260  137.5610 C   0  0  0  0  0  2  0  0  0  0  0  0
  181.5920  180.0560  137.3590 C   0  0  0  0  0  2  0  0  0  0  0  0
  180.4480  173.9250  138.2850 C   0  0  0  0  0  3  0  0  0  0  0  0
  180.0860  180.1580  137.5580 C   0  0  0  0  0  2  0  0  0  0  0  0
  180.2170  175.7670  139.9700 C   0  0  0  0  0  3  0  0  0  0  0  0
  179.8730  179.2910  139.8910 C   0  0  0  0  0  0  0  0  0  0  0  0
  179.7770  180.3220  138.9420 O   0  0  0  0  0  0  0  0  0  0  0  0
  180.1320  174.4940  139.5970 C   0  0  0  0  0  3  0  0  0  0  0  0
  180.2550  178.0870  139.5510 C   0  0  0  0  0  0  0  0  0  0  0  0
  181.1550  174.4710  137.3010 C   0  0  0  0  0  3  0  0  0  0  0  0
  181.6820  176.8280  138.0840 C   0  0  0  0  0  0  0  0  0  0  0  0
  182.4950  178.0700  137.7860 C   0  0  2  0  0  3  0  0  0  0  0  0
  181.8240  175.7770  137.2720 C   0  0  0  0  0  3  0  0  0  0  0  0
  180.6670  176.9070  139.1650 C   0  0  0  0  0  0  0  0  0  0  0  0
  181.9130  178.8310  136.7660 O   0  0  0  0  0  0  0  0  0  0  0  0
  179.8200  180.9030  141.6140 O   0  0  0  0  0  1  0  0  0  0  0  0
  179.5460  179.5670  141.3180 C   0  0  2  0  0  3  0  0  0  0  0  0
  180.3620  178.6610  142.2210 C   0  0  0  0  0  2  0  0  0  0  0  0
  179.5120  177.8850  143.0090 O   0  0  0  0  0  0  0  0  0  0  0  0
  179.7930  178.2750  144.3170 C   0  0  0  0  0  1  0  0  0  0  0  0
  1 24  1  6  0  0  0
  1  2  1  0  0  0  0
  2  4  1  0  0  0  0
  3  2  2  0  0  0  0
  5  1  1  0  0  0  0
  5  9  1  0  0  0  0
  6  8  1  0  0  0  0
  7 11  1  0  0  0  0
  8 17  1  0  0  0  0
  9  6  2  0  0  0  0
 10  7  2  0  0  0  0
 10  9  1  0  0  0  0
 11  8  2  0  0  0  0
 12 13  1  0  0  0  0
 13 19  1  0  0  0  0
 14 13  2  0  0  0  0
 15 12  1  0  0  0  0
 16 15  2  0  0  0  0
 17 15  1  0  0  0  0
 19 20  1  0  0  0  0
 19 18  1  1  0  0  0
 21 23  2  0  0  0  0
 23 20  1  0  0  0  0
 23 22  1  0  0  0  0
 25 27  1  0  0  0  0
 26 31  1  0  0  0  0
 27 30  1  0  0  0  0
 29 40  1  0  0  0  0
 30 29  1  0  0  0  0
 31 28  2  0  0  0  0
 32 29  2  0  0  0  0
 33 26  2  0  0  0  0
 34 37  1  0  0  0  0
 35 24  1  6  0  0  0
 35 34  1  0  0  0  0
 36 33  1  0  0  0  0
 36 34  2  0  0  0  0
 37 32  2  0  0  0  0
 37 28  1  0  0  0  0
 38 25  1  0  0  0  0
 38 35  1  0  0  0  0
 40 39  1  1  0  0  0
 40 41  1  0  0  0  0
 41 42  1  0  0  0  0
 42 43  1  0  0  0  0
M  END
>  <MODEL>
6

>  <REMARK>
 VINA RESULT:      -7.5      2.729      9.272
  Name = 
  12 active torsions:
  status: ('A' for Active; 'I' for Inactive)
    1  A    between atoms: C_5  and  C_17
    2  A    between atoms: C_8  and  C_23
    3  A    between atoms: C_10  and  C_15
    4  A    between atoms: C_15  and  C_33
    5  A    between atoms: C_17  and  N_19
    6  A    between atoms: C_17  and  C_43
    7  A    between atoms: N_19  and  C_30
    8  A    between atoms: C_23  and  C_41
    9  A    between atoms: O_24  and  C_41
   10  A    between atoms: C_25  and  N_42
   11  A    between atoms: C_31  and  C_43
   12  A    between atoms: C_33  and  C_37
                            x       y       z     vdW  Elec       q    Type
                         _______ _______ _______ _____ _____    ______ ____

>  <TORSDO>
F 12

$$$$
=
 OpenBabel10222418563D

 43 45  0  0  1  0  0  0  0  0999 V2000
  185.4970  178.3520  140.6860 C   0  0  2  0  0  3  0  0  0  0  0  0
  184.5640  178.7310  141.7860 C   0  0  0  0  0  0  0  0  0  0  0  0
  183.3640  178.3490  141.7700 O   0  0  0  0  0  0  0  0  0  0  0  0
  185.0370  179.5270  142.8650 N   0  0  0  0  0  1  0  0  0  0  0  0
  186.8380  178.8400  140.9810 N   0  0  0  0  0  2  0  0  0  0  0  0
  188.8420  177.5280  140.5220 C   0  0  0  0  0  3  0  0  0  0  0  0
  189.0110  176.7540  143.2010 C   0  0  0  0  0  3  0  0  0  0  0  0
  189.8780  176.6830  140.9320 C   0  0  0  0  0  0  0  0  0  0  0  0
  187.8910  177.9880  141.4390 C   0  0  0  0  0  0  0  0  0  0  0  0
  187.9800  177.5980  142.7830 C   0  0  0  0  0  3  0  0  0  0  0  0
  189.9560  176.2980  142.2790 C   0  0  0  0  0  3  0  0  0  0  0  0
  192.9380  176.2860  138.6340 N   0  0  0  0  0  2  0  0  0  0  0  0
  192.6580  175.1060  137.8660 C   0  0  0  0  0  0  0  0  0  0  0  0
  191.5580  174.5040  137.9810 O   0  0  0  0  0  0  0  0  0  0  0  0
  192.0760  176.8650  139.6180 C   0  0  0  0  0  0  0  0  0  0  0  0
  192.4340  177.9300  140.1880 O   0  0  0  0  0  0  0  0  0  0  0  0
  190.8290  176.2360  139.9570 N   0  0  0  0  0  2  0  0  0  0  0  0
  193.4770  175.1720  135.5380 C   0  0  0  0  0  1  0  0  0  0  0  0
  193.6810  174.5720  136.9150 C   0  0  1  0  0  3  0  0  0  0  0  0
  195.0930  174.8680  137.4000 C   0  0  0  0  0  2  0  0  0  0  0  0
  195.9210  174.6980  139.6290 O   0  0  0  0  0  1  0  0  0  0  0  0
  195.0690  172.7650  138.7430 O   0  0  0  0  0  0  0  0  0  0  0  0
  195.3960  174.1110  138.6490 C   0  0  0  0  0  0  0  0  0  0  0  0
  185.0070  178.9210  139.3580 C   0  0  0  0  0  2  0  0  0  0  0  0
  183.0150  177.1430  137.4470 C   0  0  0  0  0  2  0  0  0  0  0  0
  189.1990  177.6630  136.3330 C   0  0  0  0  0  3  0  0  0  0  0  0
  183.0960  176.1620  136.2850 C   0  0  0  0  0  2  0  0  0  0  0  0
  187.9950  175.6430  137.2030 C   0  0  0  0  0  3  0  0  0  0  0  0
  184.6580  174.4580  137.2320 C   0  0  0  0  0  0  0  0  0  0  0  0
  183.3930  174.8490  136.7610 O   0  0  0  0  0  0  0  0  0  0  0  0
  189.0910  176.2810  136.8070 C   0  0  0  0  0  3  0  0  0  0  0  0
  185.6630  175.2930  137.2560 C   0  0  0  0  0  0  0  0  0  0  0  0
  188.3220  178.6510  136.4740 C   0  0  0  0  0  3  0  0  0  0  0  0
  186.2910  177.5910  137.5700 C   0  0  0  0  0  0  0  0  0  0  0  0
  184.9610  177.8790  138.2310 C   0  0  2  0  0  3  0  0  0  0  0  0
  187.0240  178.6300  137.1590 C   0  0  0  0  0  3  0  0  0  0  0  0
  186.6300  176.1740  137.2820 C   0  0  0  0  0  0  0  0  0  0  0  0
  183.9670  178.1540  137.2840 O   0  0  0  0  0  0  0  0  0  0  0  0
  186.2250  172.8450  137.9500 O   0  0  0  0  0  1  0  0  0  0  0  0
  184.8650  173.0680  137.7270 C   0  0  2  0  0  3  0  0  0  0  0  0
  184.3380  172.0710  136.7120 C   0  0  0  0  0  2  0  0  0  0  0  0
  183.1910  171.4520  137.2060 O   0  0  0  0  0  0  0  0  0  0  0  0
  182.3230  171.3990  136.1170 C   0  0  0  0  0  1  0  0  0  0  0  0
  1 24  1  6  0  0  0
  1  5  1  0  0  0  0
  1  2  1  0  0  0  0
  2  4  1  0  0  0  0
  3  2  2  0  0  0  0
  5  9  1  0  0  0  0
  6  8  2  0  0  0  0
  6  9  1  0  0  0  0
  8 11  1  0  0  0  0
  9 10  2  0  0  0  0
 10  7  1  0  0  0  0
 11  7  2  0  0  0  0
 12 15  1  0  0  0  0
 13 14  2  0  0  0  0
 13 12  1  0  0  0  0
 15 17  1  0  0  0  0
 15 16  2  0  0  0  0
 17  8  1  0  0  0  0
 19 18  1  6  0  0  0
 19 20  1  0  0  0  0
 19 13  1  0  0  0  0
 20 23  1  0  0  0  0
 23 22  2  0  0  0  0
 23 21  1  0  0  0  0
 26 33  2  0  0  0  0
 26 31  1  0  0  0  0
 27 30  1  0  0  0  0
 27 25  1  0  0  0  0
 28 37  1  0  0  0  0
 29 32  2  0  0  0  0
 29 40  1  0  0  0  0
 30 29  1  0  0  0  0
 31 28  2  0  0  0  0
 32 37  2  0  0  0  0
 33 36  1  0  0  0  0
 34 35  1  0  0  0  0
 35 24  1  1  0  0  0
 36 34  2  0  0  0  0
 37 34  1  0  0  0  0
 38 25  1  0  0  0  0
 38 35  1  0  0  0  0
 40 39  1  6  0  0  0
 41 42  1  0  0  0  0
 41 40  1  0  0  0  0
 43 42  1  0  0  0  0
M  END
>  <MODEL>
7

>  <REMARK>
 VINA RESULT:      -7.4      3.030      8.330
  Name = 
  12 active torsions:
  status: ('A' for Active; 'I' for Inactive)
    1  A    between atoms: C_5  and  C_17
    2  A    between atoms: C_8  and  C_23
    3  A    between atoms: C_10  and  C_15
    4  A    between atoms: C_15  and  C_33
    5  A    between atoms: C_17  and  N_19
    6  A    between atoms: C_17  and  C_43
    7  A    between atoms: N_19  and  C_30
    8  A    between atoms: C_23  and  C_41
    9  A    between atoms: O_24  and  C_41
   10  A    between atoms: C_25  and  N_42
   11  A    between atoms: C_31  and  C_43
   12  A    between atoms: C_33  and  C_37
                            x       y       z     vdW  Elec       q    Type
                         _______ _______ _______ _____ _____    ______ ____

>  <TORSDO>
F 12

$$$$
=
 OpenBabel10222418563D

 43 45  0  0  1  0  0  0  0  0999 V2000
  189.6540  177.3460  139.4770 C   0  0  2  0  0  3  0  0  0  0  0  0
  188.6500  178.0980  138.6700 C   0  0  0  0  0  0  0  0  0  0  0  0
  187.4560  177.7060  138.6050 O   0  0  0  0  0  0  0  0  0  0  0  0
  189.0470  179.2730  137.9730 N   0  0  0  0  0  1  0  0  0  0  0  0
  190.3110  176.3470  138.6450 N   0  0  0  0  0  2  0  0  0  0  0  0
  188.7250  175.1270  137.2520 C   0  0  0  0  0  3  0  0  0  0  0  0
  189.9790  176.0460  134.9310 C   0  0  0  0  0  3  0  0  0  0  0  0
  188.2380  174.7330  136.0010 C   0  0  0  0  0  0  0  0  0  0  0  0
  189.8320  175.9750  137.3510 C   0  0  0  0  0  0  0  0  0  0  0  0
  190.4580  176.4350  136.1830 C   0  0  0  0  0  3  0  0  0  0  0  0
  188.8730  175.1970  134.8400 C   0  0  0  0  0  3  0  0  0  0  0  0
  185.8920  171.6910  135.7820 N   0  0  0  0  0  2  0  0  0  0  0  0
  184.5730  172.2490  135.8670 C   0  0  0  0  0  0  0  0  0  0  0  0
  184.3990  173.4960  135.9070 O   0  0  0  0  0  0  0  0  0  0  0  0
  187.1140  172.4340  135.7920 C   0  0  0  0  0  0  0  0  0  0  0  0
  188.2030  171.8120  135.6690 O   0  0  0  0  0  0  0  0  0  0  0  0
  187.1000  173.8620  135.9490 N   0  0  0  0  0  2  0  0  0  0  0  0
  183.8130  169.9030  135.7680 C   0  0  0  0  0  1  0  0  0  0  0  0
  183.3800  171.3480  135.9120 C   0  0  1  0  0  3  0  0  0  0  0  0
  182.6050  171.5260  137.2100 C   0  0  0  0  0  2  0  0  0  0  0  0
  181.0800  172.9910  136.1110 O   0  0  0  0  0  0  0  0  0  0  0  0
  180.1400  171.5220  137.5960 O   0  0  0  0  0  1  0  0  0  0  0  0
  181.2400  172.0650  136.9450 C   0  0  0  0  0  0  0  0  0  0  0  0
  188.9800  176.6810  140.6720 C   0  0  0  0  0  2  0  0  0  0  0  0
  191.1200  178.1130  142.7110 C   0  0  0  0  0  2  0  0  0  0  0  0
  184.9030  179.0950  143.0930 C   0  0  0  0  0  3  0  0  0  0  0  0
  191.1250  178.9620  143.9750 C   0  0  0  0  0  2  0  0  0  0  0  0
  186.3120  177.7550  144.6760 C   0  0  0  0  0  3  0  0  0  0  0  0
  189.7500  177.5320  145.4930 C   0  0  0  0  0  0  0  0  0  0  0  0
  190.9640  178.1370  145.1300 O   0  0  0  0  0  0  0  0  0  0  0  0
  185.1530  178.2680  144.2760 C   0  0  0  0  0  3  0  0  0  0  0  0
  188.6670  177.6970  144.7800 C   0  0  0  0  0  0  0  0  0  0  0  0
  185.6790  179.2590  142.0260 C   0  0  0  0  0  3  0  0  0  0  0  0
  187.8160  177.9930  142.5530 C   0  0  0  0  0  0  0  0  0  0  0  0
  189.1180  177.4850  141.9730 C   0  0  2  0  0  3  0  0  0  0  0  0
  186.9790  178.6420  141.7390 C   0  0  0  0  0  3  0  0  0  0  0  0
  187.6170  177.8740  144.0200 C   0  0  0  0  0  0  0  0  0  0  0  0
  190.0690  178.5080  141.8760 O   0  0  0  0  0  0  0  0  0  0  0  0
  188.6640  177.1140  147.5470 O   0  0  0  0  0  1  0  0  0  0  0  0
  189.6880  176.6710  146.7080 C   0  0  2  0  0  3  0  0  0  0  0  0
  191.0140  176.7160  147.4450 C   0  0  0  0  0  2  0  0  0  0  0  0
  191.6440  175.4750  147.3640 O   0  0  0  0  0  0  0  0  0  0  0  0
  192.8060  175.6220  148.1190 C   0  0  0  0  0  1  0  0  0  0  0  0
  1 24  1  1  0  0  0
  2  1  1  0  0  0  0
  3  2  2  0  0  0  0
  4  2  1  0  0  0  0
  5  1  1  0  0  0  0
  6  9  1  0  0  0  0
  7 10  1  0  0  0  0
  8  6  2  0  0  0  0
  9  5  1  0  0  0  0
 10  9  2  0  0  0  0
 11  7  2  0  0  0  0
 11  8  1  0  0  0  0
 12 15  1  0  0  0  0
 12 13  1  0  0  0  0
 13 14  2  0  0  0  0
 13 19  1  0  0  0  0
 15 17  1  0  0  0  0
 16 15  2  0  0  0  0
 17  8  1  0  0  0  0
 19 18  1  1  0  0  0
 19 20  1  0  0  0  0
 21 23  2  0  0  0  0
 23 20  1  0  0  0  0
 23 22  1  0  0  0  0
 25 27  1  0  0  0  0
 26 31  1  0  0  0  0
 27 30  1  0  0  0  0
 29 40  1  0  0  0  0
 30 29  1  0  0  0  0
 31 28  2  0  0  0  0
 32 29  2  0  0  0  0
 33 26  2  0  0  0  0
 34 37  1  0  0  0  0
 35 24  1  6  0  0  0
 35 34  1  0  0  0  0
 36 33  1  0  0  0  0
 36 34  2  0  0  0  0
 37 28  1  0  0  0  0
 37 32  2  0  0  0  0
 38 35  1  0  0  0  0
 38 25  1  0  0  0  0
 40 41  1  0  0  0  0
 40 39  1  1  0  0  0
 42 41  1  0  0  0  0
 42 43  1  0  0  0  0
M  END
>  <MODEL>
8

>  <REMARK>
 VINA RESULT:      -7.3      3.723      8.827
  Name = 
  12 active torsions:
  status: ('A' for Active; 'I' for Inactive)
    1  A    between atoms: C_5  and  C_17
    2  A    between atoms: C_8  and  C_23
    3  A    between atoms: C_10  and  C_15
    4  A    between atoms: C_15  and  C_33
    5  A    between atoms: C_17  and  N_19
    6  A    between atoms: C_17  and  C_43
    7  A    between atoms: N_19  and  C_30
    8  A    between atoms: C_23  and  C_41
    9  A    between atoms: O_24  and  C_41
   10  A    between atoms: C_25  and  N_42
   11  A    between atoms: C_31  and  C_43
   12  A    between atoms: C_33  and  C_37
                            x       y       z     vdW  Elec       q    Type
                         _______ _______ _______ _____ _____    ______ ____

>  <TORSDO>
F 12

$$$$
=
 OpenBabel10222418563D

 43 45  0  0  1  0  0  0  0  0999 V2000
  184.0890  178.1240  138.4930 C   0  0  2  0  0  3  0  0  0  0  0  0
  184.3240  179.3700  139.2790 C   0  0  0  0  0  0  0  0  0  0  0  0
  184.2890  180.4980  138.7200 O   0  0  0  0  0  0  0  0  0  0  0  0
  184.5840  179.2820  140.6750 N   0  0  0  0  0  1  0  0  0  0  0  0
  185.1720  177.9280  137.5380 N   0  0  0  0  0  2  0  0  0  0  0  0
  187.0010  177.8750  139.1500 C   0  0  0  0  0  3  0  0  0  0  0  0
  188.7670  178.9240  137.2560 C   0  0  0  0  0  3  0  0  0  0  0  0
  188.3350  178.1060  139.5020 C   0  0  0  0  0  0  0  0  0  0  0  0
  186.5450  178.1640  137.8600 C   0  0  0  0  0  0  0  0  0  0  0  0
  187.4350  178.6900  136.9120 C   0  0  0  0  0  3  0  0  0  0  0  0
  189.2160  178.6340  138.5470 C   0  0  0  0  0  3  0  0  0  0  0  0
  190.1720  176.7480  142.5980 N   0  0  0  0  0  2  0  0  0  0  0  0
  189.4480  177.2910  143.7110 C   0  0  0  0  0  0  0  0  0  0  0  0
  188.4020  177.9710  143.5340 O   0  0  0  0  0  0  0  0  0  0  0  0
  189.8530  176.9480  141.2180 C   0  0  0  0  0  0  0  0  0  0  0  0
  190.5560  176.3740  140.3440 O   0  0  0  0  0  0  0  0  0  0  0  0
  188.7570  177.7950  140.8370 N   0  0  0  0  0  2  0  0  0  0  0  0
  191.4060  177.3990  145.2110 C   0  0  0  0  0  1  0  0  0  0  0  0
  189.9330  177.0570  145.1070 C   0  0  1  0  0  3  0  0  0  0  0  0
  189.1410  177.8810  146.1110 C   0  0  0  0  0  2  0  0  0  0  0  0
  188.4460  177.6980  148.3840 O   0  0  0  0  0  1  0  0  0  0  0  0
  189.9780  176.1420  147.6910 O   0  0  0  0  0  0  0  0  0  0  0  0
  189.1720  177.2490  147.4620 C   0  0  0  0  0  0  0  0  0  0  0  0
  182.7500  178.2020  137.7680 C   0  0  0  0  0  2  0  0  0  0  0  0
  181.0000  180.3480  139.5330 C   0  0  0  0  0  2  0  0  0  0  0  0
  179.0400  174.4520  138.4610 C   0  0  0  0  0  3  0  0  0  0  0  0
  179.7550  180.3850  140.4090 C   0  0  0  0  0  2  0  0  0  0  0  0
  179.8930  175.3800  140.6280 C   0  0  0  0  0  3  0  0  0  0  0  0
  180.3050  178.5930  142.0600 C   0  0  0  0  0  0  0  0  0  0  0  0
  180.0620  179.9360  141.7290 O   0  0  0  0  0  0  0  0  0  0  0  0
  179.3990  174.3990  139.8800 C   0  0  0  0  0  3  0  0  0  0  0  0
  180.2560  177.6500  141.1560 C   0  0  0  0  0  0  0  0  0  0  0  0
  179.3970  175.3570  137.5560 C   0  0  0  0  0  3  0  0  0  0  0  0
  180.6800  177.1260  138.8500 C   0  0  0  0  0  0  0  0  0  0  0  0
  181.5530  178.3550  138.7160 C   0  0  2  0  0  3  0  0  0  0  0  0
  180.2610  176.5310  137.7290 C   0  0  0  0  0  3  0  0  0  0  0  0
  180.2190  176.7470  140.2100 C   0  0  0  0  0  0  0  0  0  0  0  0
  180.7900  179.4970  138.4430 O   0  0  0  0  0  0  0  0  0  0  0  0
  179.5020  178.3590  144.2680 O   0  0  0  0  0  1  0  0  0  0  0  0
  180.6370  178.2260  143.4660 C   0  0  2  0  0  3  0  0  0  0  0  0
  181.7450  179.1220  143.9870 C   0  0  0  0  0  2  0  0  0  0  0  0
  182.9840  178.6390  143.5670 O   0  0  0  0  0  0  0  0  0  0  0  0
  183.9150  179.3940  144.2780 C   0  0  0  0  0  1  0  0  0  0  0  0
  1 24  1  6  0  0  0
  1  2  1  0  0  0  0
  2  4  1  0  0  0  0
  3  2  2  0  0  0  0
  5  9  1  0  0  0  0
  5  1  1  0  0  0  0
  6  8  1  0  0  0  0
  7 11  1  0  0  0  0
  8 17  1  0  0  0  0
  9  6  2  0  0  0  0
 10  7  2  0  0  0  0
 10  9  1  0  0  0  0
 11  8  2  0  0  0  0
 12 13  1  0  0  0  0
 13 19  1  0  0  0  0
 14 13  2  0  0  0  0
 15 12  1  0  0  0  0
 16 15  2  0  0  0  0
 17 15  1  0  0  0  0
 19 18  1  6  0  0  0
 19 20  1  0  0  0  0
 20 23  1  0  0  0  0
 23 22  2  0  0  0  0
 23 21  1  0  0  0  0
 25 27  1  0  0  0  0
 26 31  1  0  0  0  0
 27 30  1  0  0  0  0
 29 40  1  0  0  0  0
 30 29  1  0  0  0  0
 31 28  2  0  0  0  0
 32 29  2  0  0  0  0
 33 36  1  0  0  0  0
 33 26  2  0  0  0  0
 34 37  1  0  0  0  0
 35 24  1  6  0  0  0
 35 34  1  0  0  0  0
 36 34  2  0  0  0  0
 37 28  1  0  0  0  0
 37 32  2  0  0  0  0
 38 35  1  0  0  0  0
 38 25  1  0  0  0  0
 40 41  1  0  0  0  0
 40 39  1  1  0  0  0
 42 41  1  0  0  0  0
 42 43  1  0  0  0  0
M  END
>  <MODEL>
9

>  <REMARK>
 VINA RESULT:      -7.3      2.841      9.616
  Name = 
  12 active torsions:
  status: ('A' for Active; 'I' for Inactive)
    1  A    between atoms: C_5  and  C_17
    2  A    between atoms: C_8  and  C_23
    3  A    between atoms: C_10  and  C_15
    4  A    between atoms: C_15  and  C_33
    5  A    between atoms: C_17  and  N_19
    6  A    between atoms: C_17  and  C_43
    7  A    between atoms: N_19  and  C_30
    8  A    between atoms: C_23  and  C_41
    9  A    between atoms: O_24  and  C_41
   10  A    between atoms: C_25  and  N_42
   11  A    between atoms: C_31  and  C_43
   12  A    between atoms: C_33  and  C_37
                            x       y       z     vdW  Elec       q    Type
                         _______ _______ _______ _____ _____    ______ ____

>  <TORSDO>
F 12

$$$$
