=
 OpenBabel10222415363D

 40 44  0  0  1  0  0  0  0  0999 V2000
  188.1620  176.9700  142.5890 N   0  0  0  0  0  0  0  0  0  0  0  0
  186.8280  177.3030  144.4210 C   0  0  2  0  0  3  0  0  0  0  0  0
  187.4840  178.1800  142.3630 C   0  0  0  0  0  0  0  0  0  0  0  0
  187.8050  176.3790  143.8120 N   0  0  0  0  0  2  0  0  0  0  0  0
  187.6620  178.9050  141.3490 O   0  0  0  0  0  0  0  0  0  0  0  0
  186.5730  178.4900  143.4720 C   0  0  1  0  0  3  0  0  0  0  0  0
  185.1410  178.5020  143.0140 C   0  0  0  0  0  0  0  0  0  0  0  0
  182.5510  178.5130  142.1680 N   0  0  0  0  0  0  0  0  0  0  0  0
  184.8230  178.0980  141.7540 N   0  0  0  0  0  0  0  0  0  0  0  0
  182.8360  178.9170  143.4070 N   0  0  0  0  0  0  0  0  0  0  0  0
  183.2150  177.6650  140.0140 N   0  0  0  0  0  1  0  0  0  0  0  0
  184.3860  179.3790  145.2630 C   0  0  0  0  0  1  0  0  0  0  0  0
  184.1140  178.9260  143.8680 C   0  0  0  0  0  0  0  0  0  0  0  0
  183.5340  178.1000  141.3290 C   0  0  0  0  0  0  0  0  0  0  0  0
  187.3120  177.7750  145.7900 C   0  0  0  0  0  2  0  0  0  0  0  0
  188.3140  176.9510  147.9220 C   0  0  2  0  0  3  0  0  0  0  0  0
  189.4260  177.5810  147.0950 C   0  0  1  0  0  0  0  0  0  0  0  0
  188.3160  176.8090  146.4150 C   0  0  2  0  0  3  0  0  0  0  0  0
  188.9500  178.2510  148.3670 C   0  0  0  0  0  2  0  0  0  0  0  0
  190.6600  176.7250  147.3130 C   0  0  0  0  0  2  0  0  0  0  0  0
  191.6800  177.8850  145.3190 N   0  0  0  0  0  1  0  0  0  0  0  0
  191.4930  176.6970  146.0790 C   0  0  0  0  0  0  0  0  0  0  0  0
  192.0570  175.6290  145.7250 O   0  0  0  0  0  0  0  0  0  0  0  0
  189.1720  176.4260  141.6850 C   0  0  0  0  0  2  0  0  0  0  0  0
  190.5610  176.9390  142.0210 C   0  0  0  0  0  2  0  0  0  0  0  0
  191.2780  177.3400  140.7480 C   0  0  0  0  0  2  0  0  0  0  0  0
  190.4100  177.0370  139.5400 C   0  0  0  0  0  2  0  0  0  0  0  0
  189.0880  178.3740  137.8640 C   0  0  0  0  0  0  0  0  0  0  0  0
  188.1720  177.2890  137.6850 N   0  0  0  0  0  2  0  0  0  0  0  0
  188.9370  179.4480  137.2230 O   0  0  0  0  0  0  0  0  0  0  0  0
  190.1820  178.2500  138.7730 N   0  0  0  0  0  2  0  0  0  0  0  0
  185.9790  178.5940  138.5030 O   0  0  0  0  0  1  0  0  0  0  0  0
  187.3850  177.3910  135.2610 C   0  0  0  0  0  1  0  0  0  0  0  0
  185.8290  178.1160  137.1990 C   0  0  1  0  0  3  0  0  0  0  0  0
  187.0540  177.3350  136.7480 C   0  0  2  0  0  0  0  0  0  0  0  0
  185.8170  176.5870  137.2250 C   0  0  2  0  0  3  0  0  0  0  0  0
  184.9490  176.0710  136.0860 C   0  0  0  0  0  2  0  0  0  0  0  0
  185.1150  174.6920  135.9570 O   0  0  0  0  0  0  0  0  0  0  0  0
  184.8120  172.9950  137.5970 C   0  0  0  0  0  1  0  0  0  0  0  0
  185.5380  174.2710  137.2190 C   0  0  0  0  0  2  0  0  0  0  0  0
  1  4  1  0  0  0  0
  2 15  1  1  0  0  0
  3  1  1  0  0  0  0
  3  6  1  0  0  0  0
  4  2  1  0  0  0  0
  5  3  2  0  0  0  0
  6  7  1  6  0  0  0
  6  2  1  0  0  0  0
  7 13  1  0  0  0  0
  8 10  1  0  0  0  0
  9  7  2  0  0  0  0
 10 13  2  0  0  0  0
 11 14  1  0  0  0  0
 13 12  1  0  0  0  0
 14  9  1  0  0  0  0
 14  8  2  0  0  0  0
 16 19  1  6  0  0  0
 17 20  1  1  0  0  0
 17 16  1  0  0  0  0
 17 19  1  0  0  0  0
 18 15  1  6  0  0  0
 18 17  1  0  0  0  0
 18 16  1  0  0  0  0
 21 22  1  0  0  0  0
 22 20  1  0  0  0  0
 23 22  2  0  0  0  0
 24 25  1  0  0  0  0
 24  1  1  0  0  0  0
 26 25  1  0  0  0  0
 27 26  1  0  0  0  0
 28 31  1  0  0  0  0
 29 28  1  0  0  0  0
 30 28  2  0  0  0  0
 31 27  1  0  0  0  0
 34 36  1  0  0  0  0
 34 32  1  1  0  0  0
 35 33  1  6  0  0  0
 35 34  1  0  0  0  0
 35 36  1  0  0  0  0
 35 29  1  0  0  0  0
 36 37  1  6  0  0  0
 38 37  1  0  0  0  0
 38 40  1  0  0  0  0
 40 39  1  0  0  0  0
M  END
>  <MODEL>
1

>  <REMARK>
 VINA RESULT:      -7.9      0.000      0.000
  Name = 
  14 active torsions:
  status: ('A' for Active; 'I' for Inactive)
    1  A    between atoms: O_1  and  C_3
    2  A    between atoms: O_1  and  C_38
    3  A    between atoms: N_2  and  C_21
    4  A    between atoms: C_3  and  C_31
    5  A    between atoms: C_5  and  C_16
    6  A    between atoms: C_5  and  C_29
    7  A    between atoms: C_6  and  C_39
    8  A    between atoms: N_8  and  C_30
    9  A    between atoms: C_9  and  C_11
   10  A    between atoms: C_9  and  C_35
   11  A    between atoms: C_14  and  C_18
   12  A    between atoms: C_14  and  C_22
   13  A    between atoms: C_18  and  N_37
   14  A    between atoms: C_21  and  C_22
                            x       y       z     vdW  Elec       q    Type
                         _______ _______ _______ _____ _____    ______ ____

>  <TORSDO>
F 14

$$$$
=
 OpenBabel10222415363D

 40 44  0  0  1  0  0  0  0  0999 V2000
  188.6280  177.6110  141.6350 N   0  0  0  0  0  0  0  0  0  0  0  0
  187.0070  177.8970  143.2270 C   0  0  2  0  0  3  0  0  0  0  0  0
  188.8290  176.5940  142.5850 C   0  0  0  0  0  0  0  0  0  0  0  0
  187.5470  178.4440  141.9670 N   0  0  0  0  0  2  0  0  0  0  0  0
  189.7190  175.7080  142.4850 O   0  0  0  0  0  0  0  0  0  0  0  0
  187.8520  176.6890  143.6760 C   0  0  1  0  0  3  0  0  0  0  0  0
  188.5280  176.9760  144.9880 C   0  0  0  0  0  0  0  0  0  0  0  0
  189.7690  177.4960  147.3570 N   0  0  0  0  0  0  0  0  0  0  0  0
  189.8820  176.8950  145.0920 N   0  0  0  0  0  0  0  0  0  0  0  0
  188.4410  177.5800  147.2830 N   0  0  0  0  0  0  0  0  0  0  0  0
  191.9220  177.0750  146.3610 N   0  0  0  0  0  1  0  0  0  0  0  0
  186.2960  177.4430  146.0830 C   0  0  0  0  0  1  0  0  0  0  0  0
  187.7820  177.3300  146.1210 C   0  0  0  0  0  0  0  0  0  0  0  0
  190.5050  177.1540  146.2690 C   0  0  0  0  0  0  0  0  0  0  0  0
  185.5350  177.5200  143.0660 C   0  0  0  0  0  2  0  0  0  0  0  0
  184.5340  179.6350  143.9360 C   0  0  2  0  0  3  0  0  0  0  0  0
  183.3950  178.6970  143.5590 C   0  0  1  0  0  0  0  0  0  0  0  0
  184.6620  178.7260  142.7310 C   0  0  2  0  0  3  0  0  0  0  0  0
  183.6650  179.0230  145.0130 C   0  0  0  0  0  2  0  0  0  0  0  0
  182.3060  179.5670  142.9590 C   0  0  0  0  0  2  0  0  0  0  0  0
  180.2000  178.7340  141.8470 N   0  0  0  0  0  1  0  0  0  0  0  0
  180.9930  178.8660  143.0210 C   0  0  0  0  0  0  0  0  0  0  0  0
  180.6000  178.3630  144.1050 O   0  0  0  0  0  0  0  0  0  0  0  0
  189.4130  177.7440  140.4110 C   0  0  0  0  0  2  0  0  0  0  0  0
  188.9020  176.8270  139.3140 C   0  0  0  0  0  2  0  0  0  0  0  0
  188.8030  177.5950  138.0120 C   0  0  0  0  0  2  0  0  0  0  0  0
  187.3560  177.6770  137.5610 C   0  0  0  0  0  2  0  0  0  0  0  0
  185.2760  178.6310  138.6140 C   0  0  0  0  0  0  0  0  0  0  0  0
  184.5200  177.4820  138.2180 N   0  0  0  0  0  2  0  0  0  0  0  0
  184.7250  179.5680  139.2500 O   0  0  0  0  0  0  0  0  0  0  0  0
  186.6640  178.7240  138.2940 N   0  0  0  0  0  2  0  0  0  0  0  0
  183.0570  176.3350  136.2880 O   0  0  0  0  0  1  0  0  0  0  0  0
  182.6640  177.0860  139.9240 C   0  0  0  0  0  1  0  0  0  0  0  0
  182.2740  176.6440  137.4020 C   0  0  1  0  0  3  0  0  0  0  0  0
  183.0920  177.3370  138.4820 C   0  0  2  0  0  0  0  0  0  0  0  0
  182.2070  178.1640  137.5600 C   0  0  2  0  0  3  0  0  0  0  0  0
  180.8740  178.5460  138.1880 C   0  0  0  0  0  2  0  0  0  0  0  0
  180.4300  179.7540  137.6490 O   0  0  0  0  0  0  0  0  0  0  0  0
  181.5370  181.6890  138.4800 C   0  0  0  0  0  1  0  0  0  0  0  0
  180.4620  180.6480  138.7210 C   0  0  0  0  0  2  0  0  0  0  0  0
  1  4  1  0  0  0  0
  1  3  1  0  0  0  0
  2 15  1  6  0  0  0
  2  6  1  0  0  0  0
  3  6  1  0  0  0  0
  4  2  1  0  0  0  0
  5  3  2  0  0  0  0
  6  7  1  1  0  0  0
  7  9  2  0  0  0  0
  7 13  1  0  0  0  0
  9 14  1  0  0  0  0
 10  8  1  0  0  0  0
 12 13  1  0  0  0  0
 13 10  2  0  0  0  0
 14 11  1  0  0  0  0
 14  8  2  0  0  0  0
 16 19  1  1  0  0  0
 17 20  1  6  0  0  0
 17 16  1  0  0  0  0
 17 19  1  0  0  0  0
 18 15  1  1  0  0  0
 18 17  1  0  0  0  0
 18 16  1  0  0  0  0
 20 22  1  0  0  0  0
 21 22  1  0  0  0  0
 22 23  2  0  0  0  0
 24  1  1  0  0  0  0
 25 24  1  0  0  0  0
 26 25  1  0  0  0  0
 27 26  1  0  0  0  0
 27 31  1  0  0  0  0
 28 30  2  0  0  0  0
 29 35  1  0  0  0  0
 29 28  1  0  0  0  0
 31 28  1  0  0  0  0
 34 32  1  6  0  0  0
 34 36  1  0  0  0  0
 34 35  1  0  0  0  0
 35 33  1  1  0  0  0
 36 37  1  1  0  0  0
 36 35  1  0  0  0  0
 38 37  1  0  0  0  0
 38 40  1  0  0  0  0
 39 40  1  0  0  0  0
M  END
>  <MODEL>
2

>  <REMARK>
 VINA RESULT:      -7.2      2.737      6.255
  Name = 
  14 active torsions:
  status: ('A' for Active; 'I' for Inactive)
    1  A    between atoms: O_1  and  C_3
    2  A    between atoms: O_1  and  C_38
    3  A    between atoms: N_2  and  C_21
    4  A    between atoms: C_3  and  C_31
    5  A    between atoms: C_5  and  C_16
    6  A    between atoms: C_5  and  C_29
    7  A    between atoms: C_6  and  C_39
    8  A    between atoms: N_8  and  C_30
    9  A    between atoms: C_9  and  C_11
   10  A    between atoms: C_9  and  C_35
   11  A    between atoms: C_14  and  C_18
   12  A    between atoms: C_14  and  C_22
   13  A    between atoms: C_18  and  N_37
   14  A    between atoms: C_21  and  C_22
                            x       y       z     vdW  Elec       q    Type
                         _______ _______ _______ _____ _____    ______ ____

>  <TORSDO>
F 14

$$$$
=
 OpenBabel10222415363D

 40 44  0  0  1  0  0  0  0  0999 V2000
  186.9730  178.1290  137.2100 N   0  0  0  0  0  0  0  0  0  0  0  0
  185.0160  177.9820  138.3900 C   0  0  2  0  0  3  0  0  0  0  0  0
  186.0120  177.6320  136.3130 C   0  0  0  0  0  0  0  0  0  0  0  0
  186.4400  178.3540  138.4900 N   0  0  0  0  0  2  0  0  0  0  0  0
  186.2480  177.3830  135.1000 O   0  0  0  0  0  0  0  0  0  0  0  0
  184.7090  177.4720  136.9690 C   0  0  1  0  0  3  0  0  0  0  0  0
  184.2890  176.0290  137.0040 C   0  0  0  0  0  0  0  0  0  0  0  0
  183.5450  173.4090  137.0800 N   0  0  0  0  0  0  0  0  0  0  0  0
  185.1540  175.0760  137.4480 N   0  0  0  0  0  0  0  0  0  0  0  0
  182.6800  174.3220  136.6380 N   0  0  0  0  0  0  0  0  0  0  0  0
  185.6980  172.7880  137.9650 N   0  0  0  0  0  1  0  0  0  0  0  0
  182.0080  176.6260  136.0900 C   0  0  0  0  0  1  0  0  0  0  0  0
  183.0100  175.6390  136.5850 C   0  0  0  0  0  0  0  0  0  0  0  0
  184.7870  173.7710  137.4890 C   0  0  0  0  0  0  0  0  0  0  0  0
  184.1210  179.1610  138.7660 C   0  0  0  0  0  2  0  0  0  0  0  0
  183.2390  177.6270  140.5260 C   0  0  2  0  0  3  0  0  0  0  0  0
  182.1470  178.6350  140.1940 C   0  0  1  0  0  0  0  0  0  0  0  0
  183.6000  179.0600  140.1980 C   0  0  2  0  0  3  0  0  0  0  0  0
  181.9870  177.1810  139.8010 C   0  0  0  0  0  2  0  0  0  0  0  0
  181.4570  178.9650  141.5040 C   0  0  0  0  0  2  0  0  0  0  0  0
  179.8160  180.6890  142.3430 N   0  0  0  0  0  1  0  0  0  0  0  0
  180.3290  179.9100  141.2680 C   0  0  0  0  0  0  0  0  0  0  0  0
  179.8500  180.0410  140.1120 O   0  0  0  0  0  0  0  0  0  0  0  0
  188.3490  178.4390  136.8340 C   0  0  0  0  0  2  0  0  0  0  0  0
  189.2730  177.2550  137.0580 C   0  0  0  0  0  2  0  0  0  0  0  0
  190.2220  177.5570  138.2000 C   0  0  0  0  0  2  0  0  0  0  0  0
  189.8460  176.7400  139.4230 C   0  0  0  0  0  2  0  0  0  0  0  0
  189.1880  177.8450  141.5890 C   0  0  0  0  0  0  0  0  0  0  0  0
  190.4460  177.4950  142.1770 N   0  0  0  0  0  2  0  0  0  0  0  0
  188.3290  178.4820  142.2550 O   0  0  0  0  0  0  0  0  0  0  0  0
  188.8970  177.4770  140.2410 N   0  0  0  0  0  2  0  0  0  0  0  0
  191.5920  175.5330  143.5970 O   0  0  0  0  0  1  0  0  0  0  0  0
  191.2270  179.2390  143.8680 C   0  0  0  0  0  1  0  0  0  0  0  0
  191.4860  176.7070  144.3470 C   0  0  1  0  0  3  0  0  0  0  0  0
  190.7950  177.8100  143.5590 C   0  0  2  0  0  0  0  0  0  0  0  0
  190.0090  177.0140  144.5910 C   0  0  2  0  0  3  0  0  0  0  0  0
  189.8580  177.7360  145.9220 C   0  0  0  0  0  2  0  0  0  0  0  0
  188.5260  177.6830  146.3370 O   0  0  0  0  0  0  0  0  0  0  0  0
  186.3210  177.4680  145.4700 C   0  0  0  0  0  1  0  0  0  0  0  0
  187.8060  177.4210  145.1690 C   0  0  0  0  0  2  0  0  0  0  0  0
  1  4  1  0  0  0  0
  2  4  1  0  0  0  0
  2 15  1  6  0  0  0
  3  6  1  0  0  0  0
  3  1  1  0  0  0  0
  5  3  2  0  0  0  0
  6  7  1  1  0  0  0
  6  2  1  0  0  0  0
  7  9  2  0  0  0  0
  8 14  2  0  0  0  0
  9 14  1  0  0  0  0
 10  8  1  0  0  0  0
 12 13  1  0  0  0  0
 13 10  2  0  0  0  0
 13  7  1  0  0  0  0
 14 11  1  0  0  0  0
 16 19  1  6  0  0  0
 17 18  1  0  0  0  0
 17 16  1  0  0  0  0
 17 20  1  1  0  0  0
 18 15  1  6  0  0  0
 18 16  1  0  0  0  0
 19 17  1  0  0  0  0
 22 20  1  0  0  0  0
 22 21  1  0  0  0  0
 23 22  2  0  0  0  0
 24 25  1  0  0  0  0
 24  1  1  0  0  0  0
 25 26  1  0  0  0  0
 26 27  1  0  0  0  0
 27 31  1  0  0  0  0
 28 29  1  0  0  0  0
 28 30  2  0  0  0  0
 29 35  1  0  0  0  0
 31 28  1  0  0  0  0
 34 32  1  6  0  0  0
 34 36  1  0  0  0  0
 35 33  1  1  0  0  0
 35 34  1  0  0  0  0
 35 36  1  0  0  0  0
 36 37  1  1  0  0  0
 37 38  1  0  0  0  0
 40 39  1  0  0  0  0
 40 38  1  0  0  0  0
M  END
>  <MODEL>
3

>  <REMARK>
 VINA RESULT:      -7.1      2.661      8.146
  Name = 
  14 active torsions:
  status: ('A' for Active; 'I' for Inactive)
    1  A    between atoms: O_1  and  C_3
    2  A    between atoms: O_1  and  C_38
    3  A    between atoms: N_2  and  C_21
    4  A    between atoms: C_3  and  C_31
    5  A    between atoms: C_5  and  C_16
    6  A    between atoms: C_5  and  C_29
    7  A    between atoms: C_6  and  C_39
    8  A    between atoms: N_8  and  C_30
    9  A    between atoms: C_9  and  C_11
   10  A    between atoms: C_9  and  C_35
   11  A    between atoms: C_14  and  C_18
   12  A    between atoms: C_14  and  C_22
   13  A    between atoms: C_18  and  N_37
   14  A    between atoms: C_21  and  C_22
                            x       y       z     vdW  Elec       q    Type
                         _______ _______ _______ _____ _____    ______ ____

>  <TORSDO>
F 14

$$$$
=
 OpenBabel10222415363D

 40 44  0  0  1  0  0  0  0  0999 V2000
  183.9300  178.3150  139.2520 N   0  0  0  0  0  0  0  0  0  0  0  0
  181.8380  177.4130  139.4860 C   0  0  2  0  0  3  0  0  0  0  0  0
  183.5630  178.5210  140.5940 C   0  0  0  0  0  0  0  0  0  0  0  0
  182.9270  177.6590  138.5210 N   0  0  0  0  0  2  0  0  0  0  0  0
  184.3120  179.0620  141.4500 O   0  0  0  0  0  0  0  0  0  0  0  0
  182.2170  177.9990  140.8600 C   0  0  1  0  0  3  0  0  0  0  0  0
  181.2710  179.1020  141.2430 C   0  0  0  0  0  0  0  0  0  0  0  0
  179.5500  181.1030  141.9200 N   0  0  0  0  0  0  0  0  0  0  0  0
  180.6660  179.8500  140.2800 N   0  0  0  0  0  0  0  0  0  0  0  0
  180.1310  180.3870  142.8830 N   0  0  0  0  0  0  0  0  0  0  0  0
  179.1750  181.6130  139.5960 N   0  0  0  0  0  1  0  0  0  0  0  0
  181.6160  178.6020  143.6980 C   0  0  0  0  0  1  0  0  0  0  0  0
  180.9950  179.3800  142.5890 C   0  0  0  0  0  0  0  0  0  0  0  0
  179.8070  180.8460  140.6130 C   0  0  0  0  0  0  0  0  0  0  0  0
  181.5250  175.9210  139.5810 C   0  0  0  0  0  2  0  0  0  0  0  0
  179.1430  175.3160  139.1450 C   0  0  2  0  0  3  0  0  0  0  0  0
  179.9990  174.0890  138.8580 C   0  0  1  0  0  0  0  0  0  0  0  0
  180.5170  175.4730  138.5270 C   0  0  2  0  0  3  0  0  0  0  0  0
  179.0690  174.1070  140.0540 C   0  0  0  0  0  2  0  0  0  0  0  0
  179.3810  173.4110  137.6490 C   0  0  0  0  0  2  0  0  0  0  0  0
  179.3270  171.0140  136.8620 N   0  0  0  0  0  1  0  0  0  0  0  0
  180.0640  172.1150  137.3810 C   0  0  0  0  0  0  0  0  0  0  0  0
  181.3010  172.0020  137.5840 O   0  0  0  0  0  0  0  0  0  0  0  0
  185.2320  178.6820  138.7030 C   0  0  0  0  0  2  0  0  0  0  0  0
  185.7720  177.6100  137.7720 C   0  0  0  0  0  2  0  0  0  0  0  0
  187.2860  177.6580  137.7630 C   0  0  0  0  0  2  0  0  0  0  0  0
  187.8020  178.1930  139.0860 C   0  0  0  0  0  2  0  0  0  0  0  0
  189.5840  177.4730  140.7140 C   0  0  0  0  0  0  0  0  0  0  0  0
  188.7690  177.8750  141.8200 N   0  0  0  0  0  2  0  0  0  0  0  0
  190.7260  176.9790  140.9100 O   0  0  0  0  0  0  0  0  0  0  0  0
  189.1090  177.6280  139.3770 N   0  0  0  0  0  2  0  0  0  0  0  0
  188.5970  175.4570  142.9610 O   0  0  0  0  0  1  0  0  0  0  0  0
  190.3570  178.6760  143.6500 C   0  0  0  0  0  1  0  0  0  0  0  0
  189.1490  176.3930  143.8380 C   0  0  1  0  0  3  0  0  0  0  0  0
  189.2060  177.7780  143.2100 C   0  0  2  0  0  0  0  0  0  0  0  0
  188.0890  177.4390  144.1860 C   0  0  2  0  0  3  0  0  0  0  0  0
  188.3410  177.9610  145.5930 C   0  0  0  0  0  2  0  0  0  0  0  0
  187.1230  178.2510  146.2110 O   0  0  0  0  0  0  0  0  0  0  0  0
  184.8660  178.7640  145.6630 C   0  0  0  0  0  1  0  0  0  0  0  0
  186.1850  178.1950  145.1790 C   0  0  0  0  0  2  0  0  0  0  0  0
  1  3  1  0  0  0  0
  2 15  1  1  0  0  0
  2  6  1  0  0  0  0
  3  6  1  0  0  0  0
  3  5  2  0  0  0  0
  4  1  1  0  0  0  0
  4  2  1  0  0  0  0
  6  7  1  6  0  0  0
  7 13  1  0  0  0  0
  8 10  1  0  0  0  0
  9 14  1  0  0  0  0
  9  7  2  0  0  0  0
 11 14  1  0  0  0  0
 13 10  2  0  0  0  0
 13 12  1  0  0  0  0
 14  8  2  0  0  0  0
 16 19  1  1  0  0  0
 17 20  1  6  0  0  0
 17 16  1  0  0  0  0
 17 19  1  0  0  0  0
 18 17  1  0  0  0  0
 18 16  1  0  0  0  0
 18 15  1  1  0  0  0
 21 22  1  0  0  0  0
 22 23  2  0  0  0  0
 22 20  1  0  0  0  0
 24  1  1  0  0  0  0
 25 24  1  0  0  0  0
 26 25  1  0  0  0  0
 26 27  1  0  0  0  0
 27 31  1  0  0  0  0
 28 30  2  0  0  0  0
 28 29  1  0  0  0  0
 29 35  1  0  0  0  0
 31 28  1  0  0  0  0
 34 32  1  6  0  0  0
 34 36  1  0  0  0  0
 35 33  1  1  0  0  0
 35 34  1  0  0  0  0
 35 36  1  0  0  0  0
 36 37  1  1  0  0  0
 37 38  1  0  0  0  0
 40 39  1  0  0  0  0
 40 38  1  0  0  0  0
M  END
>  <MODEL>
4

>  <REMARK>
 VINA RESULT:      -7.0      3.517      8.384
  Name = 
  14 active torsions:
  status: ('A' for Active; 'I' for Inactive)
    1  A    between atoms: O_1  and  C_3
    2  A    between atoms: O_1  and  C_38
    3  A    between atoms: N_2  and  C_21
    4  A    between atoms: C_3  and  C_31
    5  A    between atoms: C_5  and  C_16
    6  A    between atoms: C_5  and  C_29
    7  A    between atoms: C_6  and  C_39
    8  A    between atoms: N_8  and  C_30
    9  A    between atoms: C_9  and  C_11
   10  A    between atoms: C_9  and  C_35
   11  A    between atoms: C_14  and  C_18
   12  A    between atoms: C_14  and  C_22
   13  A    between atoms: C_18  and  N_37
   14  A    between atoms: C_21  and  C_22
                            x       y       z     vdW  Elec       q    Type
                         _______ _______ _______ _____ _____    ______ ____

>  <TORSDO>
F 14

$$$$
=
 OpenBabel10222415363D

 40 44  0  0  1  0  0  0  0  0999 V2000
  183.3910  178.3190  140.7080 N   0  0  0  0  0  0  0  0  0  0  0  0
  184.1960  178.5180  138.5730 C   0  0  2  0  0  3  0  0  0  0  0  0
  182.3360  177.9460  139.8560 C   0  0  0  0  0  0  0  0  0  0  0  0
  184.5440  178.6880  139.9970 N   0  0  0  0  0  2  0  0  0  0  0  0
  181.2130  177.5490  140.2650 O   0  0  0  0  0  0  0  0  0  0  0  0
  182.7310  178.0570  138.4470 C   0  0  1  0  0  3  0  0  0  0  0  0
  181.9100  179.0920  137.7300 C   0  0  0  0  0  0  0  0  0  0  0  0
  180.4280  180.9830  136.4450 N   0  0  0  0  0  0  0  0  0  0  0  0
  181.6230  180.2770  138.3360 N   0  0  0  0  0  0  0  0  0  0  0  0
  180.6920  179.8300  135.8300 N   0  0  0  0  0  0  0  0  0  0  0  0
  180.6040  182.4580  138.3400 N   0  0  0  0  0  1  0  0  0  0  0  0
  181.7060  177.5900  135.7060 C   0  0  0  0  0  1  0  0  0  0  0  0
  181.4290  178.8610  136.4350 C   0  0  0  0  0  0  0  0  0  0  0  0
  180.8870  181.2210  137.6990 C   0  0  0  0  0  0  0  0  0  0  0  0
  185.1520  177.5380  137.8960 C   0  0  0  0  0  2  0  0  0  0  0  0
  187.2100  177.4460  136.4870 C   0  0  2  0  0  3  0  0  0  0  0  0
  187.6110  177.1400  137.9230 C   0  0  1  0  0  0  0  0  0  0  0  0
  186.5240  178.1530  137.6370 C   0  0  2  0  0  3  0  0  0  0  0  0
  187.6590  176.0520  136.8700 C   0  0  0  0  0  2  0  0  0  0  0  0
  188.9600  177.8000  138.1410 C   0  0  0  0  0  2  0  0  0  0  0  0
  190.4240  176.2560  139.4960 N   0  0  0  0  0  1  0  0  0  0  0  0
  189.5400  177.3690  139.4430 C   0  0  0  0  0  0  0  0  0  0  0  0
  189.2730  178.0090  140.4930 O   0  0  0  0  0  0  0  0  0  0  0  0
  183.3140  178.2650  142.1650 C   0  0  0  0  0  2  0  0  0  0  0  0
  183.9960  179.4590  142.8080 C   0  0  0  0  0  2  0  0  0  0  0  0
  184.4720  179.0870  144.1980 C   0  0  0  0  0  2  0  0  0  0  0  0
  185.5210  177.9930  144.1170 C   0  0  0  0  0  2  0  0  0  0  0  0
  187.7030  177.8720  145.3700 C   0  0  0  0  0  0  0  0  0  0  0  0
  188.4360  177.8680  144.1410 N   0  0  0  0  0  2  0  0  0  0  0  0
  188.3090  177.8220  146.4730 O   0  0  0  0  0  0  0  0  0  0  0  0
  186.2770  177.9350  145.3570 N   0  0  0  0  0  2  0  0  0  0  0  0
  189.4390  175.6830  142.9570 O   0  0  0  0  0  1  0  0  0  0  0  0
  190.6780  179.0670  143.9320 C   0  0  0  0  0  1  0  0  0  0  0  0
  190.4550  176.5500  143.3670 C   0  0  1  0  0  3  0  0  0  0  0  0
  189.8910  177.7700  144.0800 C   0  0  2  0  0  0  0  0  0  0  0  0
  190.4670  176.6200  144.8950 C   0  0  2  0  0  3  0  0  0  0  0  0
  191.8880  176.8760  145.3760 C   0  0  0  0  0  2  0  0  0  0  0  0
  191.8750  177.1800  146.7380 O   0  0  0  0  0  0  0  0  0  0  0  0
  192.7440  175.5420  148.2280 C   0  0  0  0  0  1  0  0  0  0  0  0
  191.5740  175.9680  147.3640 C   0  0  0  0  0  2  0  0  0  0  0  0
  1 24  1  0  0  0  0
  2 15  1  1  0  0  0
  2  4  1  0  0  0  0
  3  5  2  0  0  0  0
  3  1  1  0  0  0  0
  4  1  1  0  0  0  0
  6  7  1  6  0  0  0
  6  2  1  0  0  0  0
  6  3  1  0  0  0  0
  7  9  2  0  0  0  0
  8 14  2  0  0  0  0
 10 13  2  0  0  0  0
 10  8  1  0  0  0  0
 12 13  1  0  0  0  0
 13  7  1  0  0  0  0
 14  9  1  0  0  0  0
 14 11  1  0  0  0  0
 16 19  1  1  0  0  0
 16 18  1  0  0  0  0
 16 17  1  0  0  0  0
 17 20  1  1  0  0  0
 18 15  1  1  0  0  0
 18 17  1  0  0  0  0
 19 17  1  0  0  0  0
 20 22  1  0  0  0  0
 22 21  1  0  0  0  0
 22 23  2  0  0  0  0
 24 25  1  0  0  0  0
 25 26  1  0  0  0  0
 27 26  1  0  0  0  0
 27 31  1  0  0  0  0
 28 30  2  0  0  0  0
 29 28  1  0  0  0  0
 31 28  1  0  0  0  0
 34 32  1  1  0  0  0
 34 35  1  0  0  0  0
 34 36  1  0  0  0  0
 35 33  1  6  0  0  0
 35 29  1  0  0  0  0
 35 36  1  0  0  0  0
 36 37  1  6  0  0  0
 37 38  1  0  0  0  0
 38 40  1  0  0  0  0
 40 39  1  0  0  0  0
M  END
>  <MODEL>
5

>  <REMARK>
 VINA RESULT:      -7.0      2.858      8.283
  Name = 
  14 active torsions:
  status: ('A' for Active; 'I' for Inactive)
    1  A    between atoms: O_1  and  C_3
    2  A    between atoms: O_1  and  C_38
    3  A    between atoms: N_2  and  C_21
    4  A    between atoms: C_3  and  C_31
    5  A    between atoms: C_5  and  C_16
    6  A    between atoms: C_5  and  C_29
    7  A    between atoms: C_6  and  C_39
    8  A    between atoms: N_8  and  C_30
    9  A    between atoms: C_9  and  C_11
   10  A    between atoms: C_9  and  C_35
   11  A    between atoms: C_14  and  C_18
   12  A    between atoms: C_14  and  C_22
   13  A    between atoms: C_18  and  N_37
   14  A    between atoms: C_21  and  C_22
                            x       y       z     vdW  Elec       q    Type
                         _______ _______ _______ _____ _____    ______ ____

>  <TORSDO>
F 14

$$$$
=
 OpenBabel10222415363D

 40 44  0  0  1  0  0  0  0  0999 V2000
  188.0090  177.3480  137.7030 N   0  0  0  0  0  0  0  0  0  0  0  0
  189.6650  175.8150  138.0990 C   0  0  2  0  0  3  0  0  0  0  0  0
  189.0540  178.0530  138.3250 C   0  0  0  0  0  0  0  0  0  0  0  0
  188.3070  175.9850  137.5440 N   0  0  0  0  0  2  0  0  0  0  0  0
  189.0280  179.2930  138.5470 O   0  0  0  0  0  0  0  0  0  0  0  0
  190.1730  177.1610  138.6510 C   0  0  1  0  0  3  0  0  0  0  0  0
  190.3890  177.0760  140.1360 C   0  0  0  0  0  0  0  0  0  0  0  0
  190.7610  176.9130  142.8300 N   0  0  0  0  0  0  0  0  0  0  0  0
  189.3530  176.7570  140.9600 N   0  0  0  0  0  0  0  0  0  0  0  0
  191.7920  177.2300  142.0460 N   0  0  0  0  0  0  0  0  0  0  0  0
  188.4460  176.3290  143.1500 N   0  0  0  0  0  1  0  0  0  0  0  0
  192.8310  177.6720  139.8590 C   0  0  0  0  0  1  0  0  0  0  0  0
  191.6490  177.3210  140.6980 C   0  0  0  0  0  0  0  0  0  0  0  0
  189.5350  176.6730  142.3020 C   0  0  0  0  0  0  0  0  0  0  0  0
  190.6130  175.2480  137.0450 C   0  0  0  0  0  2  0  0  0  0  0  0
  192.7400  175.8870  135.9050 C   0  0  2  0  0  3  0  0  0  0  0  0
  193.0190  174.6620  136.7660 C   0  0  1  0  0  0  0  0  0  0  0  0
  192.0500  175.7220  137.2430 C   0  0  2  0  0  3  0  0  0  0  0  0
  193.0330  174.5510  135.2550 C   0  0  0  0  0  2  0  0  0  0  0  0
  194.4060  174.8560  137.3500 C   0  0  0  0  0  2  0  0  0  0  0  0
  195.5870  173.4910  139.1120 N   0  0  0  0  0  1  0  0  0  0  0  0
  194.9420  173.5580  137.8460 C   0  0  0  0  0  0  0  0  0  0  0  0
  194.7990  172.5140  137.1580 O   0  0  0  0  0  0  0  0  0  0  0  0
  186.7840  177.9760  137.2180 C   0  0  0  0  0  2  0  0  0  0  0  0
  185.5540  177.1610  137.5790 C   0  0  0  0  0  2  0  0  0  0  0  0
  184.5890  178.0180  138.3730 C   0  0  0  0  0  2  0  0  0  0  0  0
  183.5500  177.1450  139.0520 C   0  0  0  0  0  2  0  0  0  0  0  0
  182.6610  178.4730  140.9990 C   0  0  0  0  0  0  0  0  0  0  0  0
  183.8260  178.1640  141.7720 N   0  0  0  0  0  2  0  0  0  0  0  0
  181.7450  179.1870  141.4860 O   0  0  0  0  0  0  0  0  0  0  0  0
  182.5280  177.9750  139.6680 N   0  0  0  0  0  2  0  0  0  0  0  0
  185.7300  180.0030  142.1870 O   0  0  0  0  0  1  0  0  0  0  0  0
  182.7760  178.6710  144.0410 C   0  0  0  0  0  1  0  0  0  0  0  0
  185.0620  179.6870  143.3730 C   0  0  1  0  0  3  0  0  0  0  0  0
  184.0110  178.6100  143.1490 C   0  0  2  0  0  0  0  0  0  0  0  0
  185.3600  178.2350  143.7440 C   0  0  2  0  0  3  0  0  0  0  0  0
  185.3300  178.0860  145.2580 C   0  0  0  0  0  2  0  0  0  0  0  0
  186.4390  177.3490  145.6800 O   0  0  0  0  0  0  0  0  0  0  0  0
  188.1510  177.3730  147.3310 C   0  0  0  0  0  1  0  0  0  0  0  0
  186.8280  177.9570  146.8750 C   0  0  0  0  0  2  0  0  0  0  0  0
  1  3  1  0  0  0  0
  2 15  1  6  0  0  0
  2  6  1  0  0  0  0
  3  5  2  0  0  0  0
  3  6  1  0  0  0  0
  4  1  1  0  0  0  0
  4  2  1  0  0  0  0
  6  7  1  1  0  0  0
  7 13  1  0  0  0  0
  7  9  2  0  0  0  0
  9 14  1  0  0  0  0
 10  8  1  0  0  0  0
 12 13  1  0  0  0  0
 13 10  2  0  0  0  0
 14  8  2  0  0  0  0
 14 11  1  0  0  0  0
 16 19  1  6  0  0  0
 16 17  1  0  0  0  0
 16 18  1  0  0  0  0
 17 18  1  0  0  0  0
 17 20  1  1  0  0  0
 18 15  1  6  0  0  0
 19 17  1  0  0  0  0
 20 22  1  0  0  0  0
 22 21  1  0  0  0  0
 23 22  2  0  0  0  0
 24 25  1  0  0  0  0
 24  1  1  0  0  0  0
 25 26  1  0  0  0  0
 26 27  1  0  0  0  0
 27 31  1  0  0  0  0
 28 30  2  0  0  0  0
 28 29  1  0  0  0  0
 29 35  1  0  0  0  0
 31 28  1  0  0  0  0
 34 32  1  6  0  0  0
 34 36  1  0  0  0  0
 35 34  1  0  0  0  0
 35 36  1  0  0  0  0
 35 33  1  1  0  0  0
 36 37  1  1  0  0  0
 37 38  1  0  0  0  0
 38 40  1  0  0  0  0
 40 39  1  0  0  0  0
M  END
>  <MODEL>
6

>  <REMARK>
 VINA RESULT:      -6.9      3.162      8.327
  Name = 
  14 active torsions:
  status: ('A' for Active; 'I' for Inactive)
    1  A    between atoms: O_1  and  C_3
    2  A    between atoms: O_1  and  C_38
    3  A    between atoms: N_2  and  C_21
    4  A    between atoms: C_3  and  C_31
    5  A    between atoms: C_5  and  C_16
    6  A    between atoms: C_5  and  C_29
    7  A    between atoms: C_6  and  C_39
    8  A    between atoms: N_8  and  C_30
    9  A    between atoms: C_9  and  C_11
   10  A    between atoms: C_9  and  C_35
   11  A    between atoms: C_14  and  C_18
   12  A    between atoms: C_14  and  C_22
   13  A    between atoms: C_18  and  N_37
   14  A    between atoms: C_21  and  C_22
                            x       y       z     vdW  Elec       q    Type
                         _______ _______ _______ _____ _____    ______ ____

>  <TORSDO>
F 14

$$$$
=
 OpenBabel10222415363D

 40 44  0  0  1  0  0  0  0  0999 V2000
  191.7410  176.9400  140.0460 N   0  0  0  0  0  0  0  0  0  0  0  0
  190.7770  176.2180  138.0990 C   0  0  2  0  0  3  0  0  0  0  0  0
  192.7280  177.0630  139.0520 C   0  0  0  0  0  0  0  0  0  0  0  0
  190.5370  176.4240  139.5410 N   0  0  0  0  0  2  0  0  0  0  0  0
  193.8790  177.5300  139.2610 O   0  0  0  0  0  0  0  0  0  0  0  0
  192.2270  176.6040  137.7510 C   0  0  1  0  0  3  0  0  0  0  0  0
  192.9910  175.4040  137.2650 C   0  0  0  0  0  0  0  0  0  0  0  0
  194.3790  173.2240  136.4030 N   0  0  0  0  0  0  0  0  0  0  0  0
  193.6900  174.6360  138.1450 N   0  0  0  0  0  0  0  0  0  0  0  0
  193.7050  173.9610  135.5200 N   0  0  0  0  0  0  0  0  0  0  0  0
  195.0980  172.7500  138.6530 N   0  0  0  0  0  1  0  0  0  0  0  0
  192.2540  175.8460  134.8870 C   0  0  0  0  0  1  0  0  0  0  0  0
  192.9990  175.0550  135.9080 C   0  0  0  0  0  0  0  0  0  0  0  0
  194.3810  173.5490  137.7200 C   0  0  0  0  0  0  0  0  0  0  0  0
  189.7720  177.0100  137.2650 C   0  0  0  0  0  2  0  0  0  0  0  0
  187.5070  176.6470  136.2800 C   0  0  2  0  0  3  0  0  0  0  0  0
  187.3970  177.7660  137.3060 C   0  0  1  0  0  0  0  0  0  0  0  0
  188.3300  176.5990  137.5500 C   0  0  2  0  0  3  0  0  0  0  0  0
  187.2480  178.0680  135.8300 C   0  0  0  0  0  2  0  0  0  0  0  0
  186.0610  177.5790  138.0010 C   0  0  0  0  0  2  0  0  0  0  0  0
  184.8880  179.6480  138.8420 N   0  0  0  0  0  1  0  0  0  0  0  0
  185.8660  178.6340  139.0350 C   0  0  0  0  0  0  0  0  0  0  0  0
  186.5470  178.6100  140.0940 O   0  0  0  0  0  0  0  0  0  0  0  0
  191.9290  177.3640  141.4310 C   0  0  0  0  0  2  0  0  0  0  0  0
  190.6500  177.2260  142.2380 C   0  0  0  0  0  2  0  0  0  0  0  0
  190.2950  178.5610  142.8620 C   0  0  0  0  0  2  0  0  0  0  0  0
  191.2830  178.9060  143.9610 C   0  0  0  0  0  2  0  0  0  0  0  0
  190.2190  177.4790  145.7430 C   0  0  0  0  0  0  0  0  0  0  0  0
  188.9850  178.1930  145.6100 N   0  0  0  0  0  2  0  0  0  0  0  0
  190.3240  176.5370  146.5730 O   0  0  0  0  0  0  0  0  0  0  0  0
  191.3420  177.8280  144.9340 N   0  0  0  0  0  2  0  0  0  0  0  0
  187.1560  176.5450  144.5520 O   0  0  0  0  0  1  0  0  0  0  0  0
  188.0000  177.8630  147.9410 C   0  0  0  0  0  1  0  0  0  0  0  0
  186.7960  176.9400  145.8420 C   0  0  1  0  0  3  0  0  0  0  0  0
  187.8090  177.9120  146.4290 C   0  0  2  0  0  0  0  0  0  0  0  0
  186.5080  178.4420  145.8440 C   0  0  2  0  0  3  0  0  0  0  0  0
  185.4550  178.7510  146.8980 C   0  0  0  0  0  2  0  0  0  0  0  0
  184.1820  178.6290  146.3400 O   0  0  0  0  0  0  0  0  0  0  0  0
  183.0000  179.0010  144.3100 C   0  0  0  0  0  1  0  0  0  0  0  0
  184.3450  179.0140  145.0080 C   0  0  0  0  0  2  0  0  0  0  0  0
  1 24  1  0  0  0  0
  2 15  1  6  0  0  0
  2  4  1  0  0  0  0
  3  5  2  0  0  0  0
  3  1  1  0  0  0  0
  4  1  1  0  0  0  0
  6  7  1  1  0  0  0
  6  2  1  0  0  0  0
  6  3  1  0  0  0  0
  7  9  2  0  0  0  0
  8 14  2  0  0  0  0
 10 13  2  0  0  0  0
 10  8  1  0  0  0  0
 12 13  1  0  0  0  0
 13  7  1  0  0  0  0
 14  9  1  0  0  0  0
 14 11  1  0  0  0  0
 16 19  1  6  0  0  0
 16 17  1  0  0  0  0
 16 18  1  0  0  0  0
 17 18  1  0  0  0  0
 17 20  1  1  0  0  0
 18 15  1  6  0  0  0
 19 17  1  0  0  0  0
 20 22  1  0  0  0  0
 21 22  1  0  0  0  0
 22 23  2  0  0  0  0
 24 25  1  0  0  0  0
 25 26  1  0  0  0  0
 26 27  1  0  0  0  0
 27 31  1  0  0  0  0
 28 30  2  0  0  0  0
 29 28  1  0  0  0  0
 29 35  1  0  0  0  0
 31 28  1  0  0  0  0
 34 32  1  6  0  0  0
 34 36  1  0  0  0  0
 34 35  1  0  0  0  0
 35 33  1  1  0  0  0
 36 35  1  0  0  0  0
 36 37  1  1  0  0  0
 38 37  1  0  0  0  0
 39 40  1  0  0  0  0
 40 38  1  0  0  0  0
M  END
>  <MODEL>
7

>  <REMARK>
 VINA RESULT:      -6.8      3.298      9.504
  Name = 
  14 active torsions:
  status: ('A' for Active; 'I' for Inactive)
    1  A    between atoms: O_1  and  C_3
    2  A    between atoms: O_1  and  C_38
    3  A    between atoms: N_2  and  C_21
    4  A    between atoms: C_3  and  C_31
    5  A    between atoms: C_5  and  C_16
    6  A    between atoms: C_5  and  C_29
    7  A    between atoms: C_6  and  C_39
    8  A    between atoms: N_8  and  C_30
    9  A    between atoms: C_9  and  C_11
   10  A    between atoms: C_9  and  C_35
   11  A    between atoms: C_14  and  C_18
   12  A    between atoms: C_14  and  C_22
   13  A    between atoms: C_18  and  N_37
   14  A    between atoms: C_21  and  C_22
                            x       y       z     vdW  Elec       q    Type
                         _______ _______ _______ _____ _____    ______ ____

>  <TORSDO>
F 14

$$$$
=
 OpenBabel10222415363D

 40 44  0  0  1  0  0  0  0  0999 V2000
  188.5320  176.7860  136.8240 N   0  0  0  0  0  0  0  0  0  0  0  0
  189.9840  175.4600  137.9980 C   0  0  2  0  0  3  0  0  0  0  0  0
  189.4440  177.6590  137.4440 C   0  0  0  0  0  0  0  0  0  0  0  0
  188.7940  175.4400  137.1250 N   0  0  0  0  0  2  0  0  0  0  0  0
  189.4270  178.9100  137.2970 O   0  0  0  0  0  0  0  0  0  0  0  0
  190.4200  176.9170  138.2510 C   0  0  1  0  0  3  0  0  0  0  0  0
  190.2950  177.2600  139.7090 C   0  0  0  0  0  0  0  0  0  0  0  0
  190.0500  177.8770  142.3510 N   0  0  0  0  0  0  0  0  0  0  0  0
  189.0660  177.3560  140.2860 N   0  0  0  0  0  0  0  0  0  0  0  0
  191.2650  177.7920  141.8100 N   0  0  0  0  0  0  0  0  0  0  0  0
  187.6490  177.7490  142.1940 N   0  0  0  0  0  1  0  0  0  0  0  0
  192.8100  177.3940  139.9360 C   0  0  0  0  0  1  0  0  0  0  0  0
  191.4320  177.4860  140.4970 C   0  0  0  0  0  0  0  0  0  0  0  0
  188.9390  177.6620  141.6020 C   0  0  0  0  0  0  0  0  0  0  0  0
  191.1150  174.6350  137.3880 C   0  0  0  0  0  2  0  0  0  0  0  0
  193.0090  175.3820  135.9430 C   0  0  2  0  0  3  0  0  0  0  0  0
  193.5740  174.4630  137.0170 C   0  0  1  0  0  0  0  0  0  0  0  0
  192.4340  175.4040  137.3440 C   0  0  2  0  0  3  0  0  0  0  0  0
  193.5360  174.0130  135.5710 C   0  0  0  0  0  2  0  0  0  0  0  0
  194.9190  175.0430  137.4130 C   0  0  0  0  0  2  0  0  0  0  0  0
  195.4300  173.0040  138.8070 N   0  0  0  0  0  1  0  0  0  0  0  0
  195.3970  174.4200  138.6780 C   0  0  0  0  0  0  0  0  0  0  0  0
  195.8000  175.1470  139.6230 O   0  0  0  0  0  0  0  0  0  0  0  0
  187.4760  177.2280  135.9180 C   0  0  0  0  0  2  0  0  0  0  0  0
  186.1460  177.3800  136.6370 C   0  0  0  0  0  2  0  0  0  0  0  0
  185.5600  176.0110  136.9180 C   0  0  0  0  0  2  0  0  0  0  0  0
  184.0810  175.9950  136.5800 C   0  0  0  0  0  2  0  0  0  0  0  0
  183.0560  176.3270  138.8570 C   0  0  0  0  0  0  0  0  0  0  0  0
  183.5490  177.6700  138.9090 N   0  0  0  0  0  2  0  0  0  0  0  0
  182.3880  175.8560  139.8160 O   0  0  0  0  0  0  0  0  0  0  0  0
  183.3150  175.5090  137.7160 N   0  0  0  0  0  2  0  0  0  0  0  0
  185.6810  179.0740  139.7240 O   0  0  0  0  0  1  0  0  0  0  0  0
  181.9820  179.2040  140.2140 C   0  0  0  0  0  1  0  0  0  0  0  0
  184.5510  179.3770  140.4870 C   0  0  1  0  0  3  0  0  0  0  0  0
  183.3500  178.5490  140.0570 C   0  0  2  0  0  0  0  0  0  0  0  0
  184.1430  178.1420  141.2900 C   0  0  2  0  0  3  0  0  0  0  0  0
  183.4950  178.5810  142.5960 C   0  0  0  0  0  2  0  0  0  0  0  0
  184.2700  178.1490  143.6730 O   0  0  0  0  0  0  0  0  0  0  0  0
  185.0580  179.0020  145.7500 C   0  0  0  0  0  1  0  0  0  0  0  0
  183.9600  179.0370  144.7050 C   0  0  0  0  0  2  0  0  0  0  0  0
  1  4  1  0  0  0  0
  1  3  1  0  0  0  0
  2 15  1  6  0  0  0
  2  6  1  0  0  0  0
  3  6  1  0  0  0  0
  4  2  1  0  0  0  0
  5  3  2  0  0  0  0
  6  7  1  1  0  0  0
  7  9  2  0  0  0  0
  7 13  1  0  0  0  0
  9 14  1  0  0  0  0
 10  8  1  0  0  0  0
 12 13  1  0  0  0  0
 13 10  2  0  0  0  0
 14 11  1  0  0  0  0
 14  8  2  0  0  0  0
 16 19  1  6  0  0  0
 16 17  1  0  0  0  0
 16 18  1  0  0  0  0
 17 18  1  0  0  0  0
 17 20  1  1  0  0  0
 18 15  1  6  0  0  0
 19 17  1  0  0  0  0
 20 22  1  0  0  0  0
 22 21  1  0  0  0  0
 22 23  2  0  0  0  0
 24 25  1  0  0  0  0
 24  1  1  0  0  0  0
 25 26  1  0  0  0  0
 27 26  1  0  0  0  0
 27 31  1  0  0  0  0
 28 29  1  0  0  0  0
 28 30  2  0  0  0  0
 29 35  1  0  0  0  0
 31 28  1  0  0  0  0
 34 32  1  6  0  0  0
 34 36  1  0  0  0  0
 35 33  1  1  0  0  0
 35 34  1  0  0  0  0
 35 36  1  0  0  0  0
 36 37  1  1  0  0  0
 37 38  1  0  0  0  0
 38 40  1  0  0  0  0
 40 39  1  0  0  0  0
M  END
>  <MODEL>
8

>  <REMARK>
 VINA RESULT:      -6.8      3.102      7.840
  Name = 
  14 active torsions:
  status: ('A' for Active; 'I' for Inactive)
    1  A    between atoms: O_1  and  C_3
    2  A    between atoms: O_1  and  C_38
    3  A    between atoms: N_2  and  C_21
    4  A    between atoms: C_3  and  C_31
    5  A    between atoms: C_5  and  C_16
    6  A    between atoms: C_5  and  C_29
    7  A    between atoms: C_6  and  C_39
    8  A    between atoms: N_8  and  C_30
    9  A    between atoms: C_9  and  C_11
   10  A    between atoms: C_9  and  C_35
   11  A    between atoms: C_14  and  C_18
   12  A    between atoms: C_14  and  C_22
   13  A    between atoms: C_18  and  N_37
   14  A    between atoms: C_21  and  C_22
                            x       y       z     vdW  Elec       q    Type
                         _______ _______ _______ _____ _____    ______ ____

>  <TORSDO>
F 14

$$$$
=
 OpenBabel10222415363D

 40 44  0  0  1  0  0  0  0  0999 V2000
  189.6030  177.2430  141.7890 N   0  0  0  0  0  0  0  0  0  0  0  0
  187.8390  177.9420  143.0720 C   0  0  2  0  0  3  0  0  0  0  0  0
  189.4760  176.3010  142.8260 C   0  0  0  0  0  0  0  0  0  0  0  0
  188.6500  178.2700  141.8830 N   0  0  0  0  0  2  0  0  0  0  0  0
  190.1990  175.2760  142.9340 O   0  0  0  0  0  0  0  0  0  0  0  0
  188.3800  176.6610  143.7350 C   0  0  1  0  0  3  0  0  0  0  0  0
  188.8930  176.9560  145.1160 C   0  0  0  0  0  0  0  0  0  0  0  0
  189.8410  177.4890  147.6150 N   0  0  0  0  0  0  0  0  0  0  0  0
  190.1990  176.7300  145.4240 N   0  0  0  0  0  0  0  0  0  0  0  0
  188.5550  177.7160  147.3410 N   0  0  0  0  0  0  0  0  0  0  0  0
  192.0460  176.7650  146.9700 N   0  0  0  0  0  1  0  0  0  0  0  0
  186.6020  177.7410  145.8440 C   0  0  0  0  0  1  0  0  0  0  0  0
  188.0430  177.4650  146.1080 C   0  0  0  0  0  0  0  0  0  0  0  0
  190.6760  176.9960  146.6660 C   0  0  0  0  0  0  0  0  0  0  0  0
  186.3650  177.8000  142.6990 C   0  0  0  0  0  2  0  0  0  0  0  0
  184.4560  179.3180  142.1690 C   0  0  2  0  0  3  0  0  0  0  0  0
  184.7390  178.4730  140.9340 C   0  0  1  0  0  0  0  0  0  0  0  0
  185.8790  178.9430  141.8120 C   0  0  2  0  0  3  0  0  0  0  0  0
  183.4670  178.2590  141.7290 C   0  0  0  0  0  2  0  0  0  0  0  0
  184.5320  179.3820  139.7370 C   0  0  0  0  0  2  0  0  0  0  0  0
  186.0170  178.3250  137.9920 N   0  0  0  0  0  1  0  0  0  0  0  0
  184.7090  178.6160  138.4720 C   0  0  0  0  0  0  0  0  0  0  0  0
  183.7020  178.2000  137.8430 O   0  0  0  0  0  0  0  0  0  0  0  0
  190.5720  177.1260  140.7040 C   0  0  0  0  0  2  0  0  0  0  0  0
  190.0640  177.7710  139.4260 C   0  0  0  0  0  2  0  0  0  0  0  0
  189.3920  176.7250  138.5590 C   0  0  0  0  0  2  0  0  0  0  0  0
  190.4370  175.8830  137.8490 C   0  0  0  0  0  2  0  0  0  0  0  0
  192.9310  176.0210  137.5220 C   0  0  0  0  0  0  0  0  0  0  0  0
  193.0360  174.5940  137.5410 N   0  0  0  0  0  2  0  0  0  0  0  0
  193.9580  176.7340  137.3720 O   0  0  0  0  0  0  0  0  0  0  0  0
  191.6580  176.6510  137.6710 N   0  0  0  0  0  2  0  0  0  0  0  0
  193.9770  174.2110  135.0620 O   0  0  0  0  0  1  0  0  0  0  0  0
  195.3320  174.1000  138.5380 C   0  0  0  0  0  1  0  0  0  0  0  0
  194.8600  173.7120  136.0220 C   0  0  1  0  0  3  0  0  0  0  0  0
  194.3080  173.8870  137.4290 C   0  0  2  0  0  0  0  0  0  0  0  0
  194.2030  172.5330  136.7410 C   0  0  2  0  0  3  0  0  0  0  0  0
  195.2790  171.5500  137.1810 C   0  0  0  0  0  2  0  0  0  0  0  0
  195.0420  170.3040  136.5980 O   0  0  0  0  0  0  0  0  0  0  0  0
  197.2280  170.3300  137.5370 C   0  0  0  0  0  1  0  0  0  0  0  0
  196.3050  169.7170  136.5010 C   0  0  0  0  0  2  0  0  0  0  0  0
  1  4  1  0  0  0  0
  1  3  1  0  0  0  0
  2 15  1  6  0  0  0
  2  6  1  0  0  0  0
  3  5  2  0  0  0  0
  3  6  1  0  0  0  0
  4  2  1  0  0  0  0
  6  7  1  1  0  0  0
  7  9  2  0  0  0  0
  7 13  1  0  0  0  0
  9 14  1  0  0  0  0
 10  8  1  0  0  0  0
 12 13  1  0  0  0  0
 13 10  2  0  0  0  0
 14 11  1  0  0  0  0
 14  8  2  0  0  0  0
 16 19  1  1  0  0  0
 17 20  1  6  0  0  0
 17 19  1  0  0  0  0
 17 18  1  0  0  0  0
 17 16  1  0  0  0  0
 18 16  1  0  0  0  0
 18 15  1  1  0  0  0
 21 22  1  0  0  0  0
 22 20  1  0  0  0  0
 23 22  2  0  0  0  0
 24  1  1  0  0  0  0
 25 24  1  0  0  0  0
 26 25  1  0  0  0  0
 27 26  1  0  0  0  0
 28 29  1  0  0  0  0
 28 31  1  0  0  0  0
 30 28  2  0  0  0  0
 31 27  1  0  0  0  0
 34 32  1  6  0  0  0
 34 36  1  0  0  0  0
 34 35  1  0  0  0  0
 35 29  1  0  0  0  0
 35 33  1  1  0  0  0
 36 37  1  1  0  0  0
 36 35  1  0  0  0  0
 38 37  1  0  0  0  0
 40 38  1  0  0  0  0
 40 39  1  0  0  0  0
M  END
>  <MODEL>
9

>  <REMARK>
 VINA RESULT:      -6.8      4.296      7.492
  Name = 
  14 active torsions:
  status: ('A' for Active; 'I' for Inactive)
    1  A    between atoms: O_1  and  C_3
    2  A    between atoms: O_1  and  C_38
    3  A    between atoms: N_2  and  C_21
    4  A    between atoms: C_3  and  C_31
    5  A    between atoms: C_5  and  C_16
    6  A    between atoms: C_5  and  C_29
    7  A    between atoms: C_6  and  C_39
    8  A    between atoms: N_8  and  C_30
    9  A    between atoms: C_9  and  C_11
   10  A    between atoms: C_9  and  C_35
   11  A    between atoms: C_14  and  C_18
   12  A    between atoms: C_14  and  C_22
   13  A    between atoms: C_18  and  N_37
   14  A    between atoms: C_21  and  C_22
                            x       y       z     vdW  Elec       q    Type
                         _______ _______ _______ _____ _____    ______ ____

>  <TORSDO>
F 14

$$$$
