=
 OpenBabel10222419063D

 50 58  0  0  1  0  0  0  0  0999 V2000
  189.8160  177.2600  146.0220 C   0  0  0  0  0  3  0  0  0  0  0  0
  186.8710  178.7420  141.2480 O   0  0  0  0  0  1  0  0  0  0  0  0
  184.6020  178.7340  142.0150 C   0  0  0  0  0  0  0  0  0  0  0  0
  185.4200  177.7790  144.6490 C   0  0  1  0  0  3  0  0  0  0  0  0
  183.5420  179.3740  142.9290 C   0  0  0  0  0  2  0  0  0  0  0  0
  186.4350  177.7640  143.4620 C   0  0  1  0  0  3  0  0  0  0  0  0
  188.4930  177.0130  146.3970 C   0  0  0  0  0  3  0  0  0  0  0  0
  189.0860  178.0340  143.8250 C   0  0  0  0  0  0  0  0  0  0  0  0
  185.4310  179.7440  146.0670 O   0  0  0  0  0  0  0  0  0  0  0  0
  184.2220  178.0290  141.0050 N   0  0  0  0  0  0  0  0  0  0  0  0
  187.4950  177.2790  145.4720 C   0  0  0  0  0  0  0  0  0  0  0  0
  186.1130  177.1420  145.7480 N   0  0  0  0  0  2  0  0  0  0  0  0
  184.0860  179.9260  144.1640 N   0  0  0  0  0  2  0  0  0  0  0  0
  184.9850  179.1910  145.0230 C   0  0  0  0  0  0  0  0  0  0  0  0
  186.0800  178.8190  142.3950 C   0  0  1  0  0  3  0  0  0  0  0  0
  190.1050  177.7890  144.7550 C   0  0  0  0  0  3  0  0  0  0  0  0
  187.7550  177.7810  144.2070 C   0  0  0  0  0  0  0  0  0  0  0  0
  181.0770  177.1610  139.2480 N   0  0  0  0  0  0  0  0  0  0  0  0
  182.0030  179.0690  140.4910 C   0  0  0  0  0  2  0  0  0  0  0  0
  182.8350  175.6180  139.7350 O   0  0  0  0  0  1  0  0  0  0  0  0
  182.7900  177.8240  140.7620 C   0  0  1  0  0  3  0  0  0  0  0  0
  182.5120  176.9780  139.5520 C   0  0  2  0  0  3  0  0  0  0  0  0
  180.7640  178.5030  139.8040 C   0  0  0  0  0  2  0  0  0  0  0  0
  180.1590  176.1650  139.8720 C   0  0  1  0  0  3  0  0  0  0  0  0
  179.1760  176.7560  140.9130 C   0  0  0  0  0  1  0  0  0  0  0  0
  179.4870  175.1990  138.8610 C   0  0  2  0  0  3  0  0  0  0  0  0
  180.4960  174.2520  136.9150 C   0  0  0  0  0  2  0  0  0  0  0  0
  179.7910  173.7850  139.1210 N   0  0  0  0  0  2  0  0  0  0  0  0
  179.9650  175.5360  137.4890 C   0  0  0  0  0  2  0  0  0  0  0  0
  179.9740  173.1860  137.8190 C   0  0  0  0  0  2  0  0  0  0  0  0
  189.5530  178.7670  142.2390 S   0  0  0  0  0  0  0  0  0  0  0  0
  190.2040  176.6420  137.4780 C   0  0  0  0  0  2  0  0  0  0  0  0
  191.6140  176.8930  137.7620 N   0  0  0  0  0  0  0  0  0  0  0  0
  190.6320  177.4210  140.0010 C   0  0  1  0  0  0  0  0  0  0  0  0
  190.6550  177.4540  141.5350 C   0  0  2  0  0  3  0  0  0  0  0  0
  189.2870  177.7000  138.1110 C   0  0  1  0  0  3  0  0  0  0  0  0
  191.8190  176.8180  139.2140 C   0  0  0  0  0  2  0  0  0  0  0  0
  189.8950  176.3520  140.7940 C   0  0  0  0  0  2  0  0  0  0  0  0
  187.8680  177.1430  138.2870 C   0  0  0  0  0  1  0  0  0  0  0  0
  189.7470  178.3000  139.3130 O   0  0  0  0  0  0  0  0  0  0  0  0
  192.2950  175.7950  137.1670 N   0  0  0  0  0  2  0  0  0  0  0  0
  193.7420  176.0140  137.0970 C   0  0  1  0  0  3  0  0  0  0  0  0
  194.5380  174.8090  137.6610 C   0  0  2  0  0  3  0  0  0  0  0  0
  195.5170  175.2230  135.6270 C   0  0  2  0  0  3  0  0  0  0  0  0
  195.8470  174.9930  137.0460 N   0  0  0  0  0  0  0  0  0  0  0  0
  194.3060  176.1680  135.6760 C   0  0  0  0  0  2  0  0  0  0  0  0
  193.8400  173.3070  135.6740 C   0  0  0  0  0  2  0  0  0  0  0  0
  195.0600  173.9110  134.9470 C   0  0  0  0  0  2  0  0  0  0  0  0
  196.7910  173.8930  137.3010 C   0  0  0  0  0  1  0  0  0  0  0  0
  193.9350  173.4370  137.2100 C   0  0  0  0  0  2  0  0  0  0  0  0
  1  7  1  0  0  0  0
  3 15  1  0  0  0  0
  3  5  1  0  0  0  0
  4 14  1  1  0  0  0
  4 12  1  0  0  0  0
  5 13  1  0  0  0  0
  6 17  1  1  0  0  0
  6  4  1  0  0  0  0
  8 17  2  0  0  0  0
  8 16  1  0  0  0  0
 10  3  2  0  0  0  0
 11 12  1  0  0  0  0
 11  7  2  0  0  0  0
 13 14  1  0  0  0  0
 14  9  2  0  0  0  0
 15  2  1  6  0  0  0
 15  6  1  0  0  0  0
 16  1  2  0  0  0  0
 17 11  1  0  0  0  0
 18 22  1  0  0  0  0
 18 23  1  0  0  0  0
 18 24  1  0  0  0  0
 19 21  1  0  0  0  0
 21 10  1  6  0  0  0
 22 20  1  1  0  0  0
 22 21  1  0  0  0  0
 23 19  1  0  0  0  0
 24 25  1  6  0  0  0
 26 28  1  0  0  0  0
 26 24  1  1  0  0  0
 27 29  1  0  0  0  0
 27 30  1  0  0  0  0
 29 26  1  0  0  0  0
 30 28  1  0  0  0  0
 31  8  1  0  0  0  0
 32 33  1  0  0  0  0
 32 36  1  0  0  0  0
 33 37  1  0  0  0  0
 34 37  1  6  0  0  0
 34 38  1  0  0  0  0
 34 35  1  0  0  0  0
 35 31  1  1  0  0  0
 36 39  1  1  0  0  0
 36 40  1  0  0  0  0
 38 35  1  0  0  0  0
 40 34  1  0  0  0  0
 41 33  1  0  0  0  0
 42 41  1  6  0  0  0
 42 43  1  0  0  0  0
 43 50  1  6  0  0  0
 44 48  1  1  0  0  0
 44 46  1  0  0  0  0
 44 45  1  0  0  0  0
 45 49  1  0  0  0  0
 45 43  1  0  0  0  0
 46 42  1  0  0  0  0
 47 50  1  0  0  0  0
 48 47  1  0  0  0  0
M  END
>  <MODEL>
1

>  <REMARK>
 VINA RESULT:      -8.8      0.000      0.000
  Name = 
  7 active torsions:
  status: ('A' for Active; 'I' for Inactive)
    1  A    between atoms: C_1  and  C_28
    2  A    between atoms: N_3  and  C_28
    3  A    between atoms: C_5  and  N_12
    4  A    between atoms: N_6  and  N_12
    5  A    between atoms: C_10  and  S_21
    6  A    between atoms: C_20  and  S_21
    7  A    between atoms: N_27  and  C_38
                            x       y       z     vdW  Elec       q    Type
                         _______ _______ _______ _____ _____    ______ ____

>  <TORSDO>
F 7

$$$$
=
 OpenBabel10222419063D

 50 58  0  0  1  0  0  0  0  0999 V2000
  188.5850  174.6420  134.6640 C   0  0  0  0  0  3  0  0  0  0  0  0
  188.2170  178.3810  139.0850 O   0  0  0  0  0  1  0  0  0  0  0  0
  190.0930  177.7660  140.4410 C   0  0  0  0  0  0  0  0  0  0  0  0
  190.7300  175.5320  138.6750 C   0  0  1  0  0  3  0  0  0  0  0  0
  191.6230  177.6840  140.5730 C   0  0  0  0  0  2  0  0  0  0  0  0
  189.3650  176.2780  138.5310 C   0  0  1  0  0  3  0  0  0  0  0  0
  189.5160  174.1280  135.5700 C   0  0  0  0  0  3  0  0  0  0  0  0
  188.0720  176.4840  136.1820 C   0  0  0  0  0  0  0  0  0  0  0  0
  192.5530  176.3170  137.2830 O   0  0  0  0  0  0  0  0  0  0  0  0
  189.3650  177.7450  141.5060 N   0  0  0  0  0  0  0  0  0  0  0  0
  189.7000  174.8030  136.7670 C   0  0  0  0  0  0  0  0  0  0  0  0
  190.6610  174.4320  137.7380 N   0  0  0  0  0  2  0  0  0  0  0  0
  192.3120  177.4620  139.3070 N   0  0  0  0  0  2  0  0  0  0  0  0
  191.9200  176.4350  138.3700 C   0  0  0  0  0  0  0  0  0  0  0  0
  189.4480  177.7250  139.0560 C   0  0  1  0  0  3  0  0  0  0  0  0
  187.8880  175.8240  134.9590 C   0  0  0  0  0  3  0  0  0  0  0  0
  189.0090  175.9600  137.0930 C   0  0  0  0  0  0  0  0  0  0  0  0
  189.8740  177.9580  145.1700 N   0  0  0  0  0  0  0  0  0  0  0  0
  191.0560  178.6380  143.1240 C   0  0  0  0  0  2  0  0  0  0  0  0
  188.1700  176.6660  144.1050 O   0  0  0  0  0  1  0  0  0  0  0  0
  190.0060  177.6130  142.8190 C   0  0  1  0  0  3  0  0  0  0  0  0
  189.0440  177.7630  143.9630 C   0  0  2  0  0  3  0  0  0  0  0  0
  191.1310  178.5520  144.6450 C   0  0  0  0  0  2  0  0  0  0  0  0
  190.2150  176.7150  145.9200 C   0  0  1  0  0  3  0  0  0  0  0  0
  191.7030  176.2940  145.8280 C   0  0  0  0  0  1  0  0  0  0  0  0
  189.6430  176.6640  147.3600 C   0  0  2  0  0  3  0  0  0  0  0  0
  188.9350  178.5280  148.6750 C   0  0  0  0  0  2  0  0  0  0  0  0
  188.1740  176.6890  147.4010 N   0  0  0  0  0  2  0  0  0  0  0  0
  190.1520  177.8420  148.1190 C   0  0  0  0  0  2  0  0  0  0  0  0
  187.8350  177.5310  148.5260 C   0  0  0  0  0  2  0  0  0  0  0  0
  187.1690  178.0280  136.4480 S   0  0  0  0  0  0  0  0  0  0  0  0
  183.2650  178.8320  139.8710 C   0  0  0  0  0  2  0  0  0  0  0  0
  182.4890  179.0450  138.6530 N   0  0  0  0  0  0  0  0  0  0  0  0
  184.6180  178.1970  137.6530 C   0  0  1  0  0  0  0  0  0  0  0  0
  185.4280  177.4150  136.6100 C   0  0  2  0  0  3  0  0  0  0  0  0
  184.7240  179.2880  139.7160 C   0  0  1  0  0  3  0  0  0  0  0  0
  183.0750  178.2340  137.5780 C   0  0  0  0  0  2  0  0  0  0  0  0
  185.1220  176.7980  137.9770 C   0  0  0  0  0  2  0  0  0  0  0  0
  185.6190  178.5730  140.7370 C   0  0  0  0  0  1  0  0  0  0  0  0
  185.2790  179.2060  138.4120 O   0  0  0  0  0  0  0  0  0  0  0  0
  181.2050  178.5100  138.9540 N   0  0  0  0  0  2  0  0  0  0  0  0
  180.7670  177.5290  137.9580 C   0  0  1  0  0  3  0  0  0  0  0  0
  181.4060  176.1370  138.1950 C   0  0  2  0  0  3  0  0  0  0  0  0
  179.1670  175.6910  137.9640 C   0  0  2  0  0  3  0  0  0  0  0  0
  180.4910  175.2560  137.4820 N   0  0  0  0  0  0  0  0  0  0  0  0
  179.2610  177.2250  137.9670 C   0  0  0  0  0  2  0  0  0  0  0  0
  180.0330  175.7790  140.3570 C   0  0  0  0  0  2  0  0  0  0  0  0
  178.9330  175.2330  139.4220 C   0  0  0  0  0  2  0  0  0  0  0  0
  180.7810  173.8220  137.6530 C   0  0  0  0  0  1  0  0  0  0  0  0
  181.4350  175.7480  139.7110 C   0  0  0  0  0  2  0  0  0  0  0  0
  1 16  2  0  0  0  0
  1  7  1  0  0  0  0
  3  5  1  0  0  0  0
  3 10  2  0  0  0  0
  4 12  1  6  0  0  0
  6 17  1  6  0  0  0
  6  4  1  0  0  0  0
  6 15  1  0  0  0  0
  7 11  2  0  0  0  0
  8 31  1  0  0  0  0
  8 17  2  0  0  0  0
  9 14  2  0  0  0  0
 11 17  1  0  0  0  0
 11 12  1  0  0  0  0
 13  5  1  0  0  0  0
 14  4  1  0  0  0  0
 14 13  1  0  0  0  0
 15  2  1  1  0  0  0
 15  3  1  0  0  0  0
 16  8  1  0  0  0  0
 18 24  1  0  0  0  0
 19 23  1  0  0  0  0
 21 10  1  6  0  0  0
 21 19  1  0  0  0  0
 21 22  1  0  0  0  0
 22 20  1  1  0  0  0
 22 18  1  0  0  0  0
 23 18  1  0  0  0  0
 24 25  1  1  0  0  0
 26 24  1  6  0  0  0
 26 28  1  0  0  0  0
 26 29  1  0  0  0  0
 28 30  1  0  0  0  0
 29 27  1  0  0  0  0
 30 27  1  0  0  0  0
 33 41  1  0  0  0  0
 33 32  1  0  0  0  0
 34 37  1  6  0  0  0
 34 38  1  0  0  0  0
 34 40  1  0  0  0  0
 35 31  1  1  0  0  0
 35 34  1  0  0  0  0
 35 38  1  0  0  0  0
 36 32  1  0  0  0  0
 36 39  1  1  0  0  0
 37 33  1  0  0  0  0
 40 36  1  0  0  0  0
 42 46  1  0  0  0  0
 42 43  1  0  0  0  0
 42 41  1  1  0  0  0
 43 50  1  1  0  0  0
 44 46  1  1  0  0  0
 44 48  1  0  0  0  0
 45 49  1  0  0  0  0
 45 44  1  0  0  0  0
 45 43  1  0  0  0  0
 48 47  1  0  0  0  0
 50 47  1  0  0  0  0
M  END
>  <MODEL>
2

>  <REMARK>
 VINA RESULT:      -7.9      2.889     10.640
  Name = 
  7 active torsions:
  status: ('A' for Active; 'I' for Inactive)
    1  A    between atoms: C_1  and  C_28
    2  A    between atoms: N_3  and  C_28
    3  A    between atoms: C_5  and  N_12
    4  A    between atoms: N_6  and  N_12
    5  A    between atoms: C_10  and  S_21
    6  A    between atoms: C_20  and  S_21
    7  A    between atoms: N_27  and  C_38
                            x       y       z     vdW  Elec       q    Type
                         _______ _______ _______ _____ _____    ______ ____

>  <TORSDO>
F 7

$$$$
=
 OpenBabel10222419063D

 50 58  0  0  1  0  0  0  0  0999 V2000
  190.0450  177.0620  146.3600 C   0  0  0  0  0  3  0  0  0  0  0  0
  186.9790  178.7310  141.7260 O   0  0  0  0  0  1  0  0  0  0  0  0
  184.7280  178.6590  142.5420 C   0  0  0  0  0  0  0  0  0  0  0  0
  185.6140  177.5900  145.1080 C   0  0  1  0  0  3  0  0  0  0  0  0
  183.6810  179.2420  143.5070 C   0  0  0  0  0  2  0  0  0  0  0  0
  186.6020  177.6440  143.9010 C   0  0  1  0  0  3  0  0  0  0  0  0
  188.7330  176.7810  146.7510 C   0  0  0  0  0  3  0  0  0  0  0  0
  189.2580  177.9290  144.2180 C   0  0  0  0  0  0  0  0  0  0  0  0
  185.6340  179.4870  146.6180 O   0  0  0  0  0  0  0  0  0  0  0  0
  184.3330  177.9970  141.5070 N   0  0  0  0  0  0  0  0  0  0  0  0
  187.7120  177.0780  145.8620 C   0  0  0  0  0  0  0  0  0  0  0  0
  186.3390  176.9120  146.1610 N   0  0  0  0  0  2  0  0  0  0  0  0
  184.2460  179.7420  144.7550 N   0  0  0  0  0  2  0  0  0  0  0  0
  185.1710  178.9780  145.5590 C   0  0  0  0  0  0  0  0  0  0  0  0
  186.2120  178.7440  142.8930 C   0  0  1  0  0  3  0  0  0  0  0  0
  190.3000  177.6530  145.1140 C   0  0  0  0  0  3  0  0  0  0  0  0
  187.9380  177.6420  144.6170 C   0  0  0  0  0  0  0  0  0  0  0  0
  181.1210  177.4890  139.7300 N   0  0  0  0  0  0  0  0  0  0  0  0
  182.0430  179.0080  141.4300 C   0  0  0  0  0  2  0  0  0  0  0  0
  182.9720  175.9790  139.6570 O   0  0  0  0  0  1  0  0  0  0  0  0
  182.8990  177.7860  141.2860 C   0  0  1  0  0  3  0  0  0  0  0  0
  182.5790  177.3120  139.8960 C   0  0  2  0  0  3  0  0  0  0  0  0
  180.7880  178.5910  140.6690 C   0  0  0  0  0  2  0  0  0  0  0  0
  180.2890  176.3020  140.0790 C   0  0  1  0  0  3  0  0  0  0  0  0
  179.3740  176.4970  141.3150 C   0  0  0  0  0  1  0  0  0  0  0  0
  179.5690  175.6520  138.8690 C   0  0  2  0  0  3  0  0  0  0  0  0
  180.4640  175.3590  136.6750 C   0  0  0  0  0  2  0  0  0  0  0  0
  179.9170  174.2360  138.6810 N   0  0  0  0  0  2  0  0  0  0  0  0
  179.9470  176.3960  137.6330 C   0  0  0  0  0  2  0  0  0  0  0  0
  180.0240  174.0540  137.2510 C   0  0  0  0  0  2  0  0  0  0  0  0
  189.6810  178.7420  142.6600 S   0  0  0  0  0  0  0  0  0  0  0  0
  189.8080  177.2380  137.6270 C   0  0  0  0  0  2  0  0  0  0  0  0
  191.2450  177.1740  137.8740 N   0  0  0  0  0  0  0  0  0  0  0  0
  190.4320  177.5510  140.2090 C   0  0  1  0  0  0  0  0  0  0  0  0
  190.4920  177.3590  141.7300 C   0  0  2  0  0  3  0  0  0  0  0  0
  189.1270  178.3490  138.4420 C   0  0  1  0  0  3  0  0  0  0  0  0
  191.4610  176.8540  139.2910 C   0  0  0  0  0  2  0  0  0  0  0  0
  189.5170  176.5390  140.8830 C   0  0  0  0  0  2  0  0  0  0  0  0
  187.6310  178.0510  138.6080 C   0  0  0  0  0  1  0  0  0  0  0  0
  189.7200  178.6720  139.6910 O   0  0  0  0  0  0  0  0  0  0  0  0
  191.6870  176.0640  137.1020 N   0  0  0  0  0  2  0  0  0  0  0  0
  191.0660  174.8090  137.5310 C   0  0  1  0  0  3  0  0  0  0  0  0
  189.5880  174.7080  137.0770 C   0  0  2  0  0  3  0  0  0  0  0  0
  190.5110  172.7130  136.4180 C   0  0  2  0  0  3  0  0  0  0  0  0
  189.3480  173.2720  137.1330 N   0  0  0  0  0  0  0  0  0  0  0  0
  191.6980  173.5390  136.9400 C   0  0  0  0  0  2  0  0  0  0  0  0
  190.2760  174.4750  134.5940 C   0  0  0  0  0  2  0  0  0  0  0  0
  190.3970  172.9670  134.8960 C   0  0  0  0  0  2  0  0  0  0  0  0
  188.0340  172.8610  136.6110 C   0  0  0  0  0  1  0  0  0  0  0  0
  189.3820  175.2180  135.6110 C   0  0  0  0  0  2  0  0  0  0  0  0
  1  7  1  0  0  0  0
  3 15  1  0  0  0  0
  3  5  1  0  0  0  0
  4 14  1  1  0  0  0
  4 12  1  0  0  0  0
  5 13  1  0  0  0  0
  6 17  1  1  0  0  0
  6  4  1  0  0  0  0
  8 17  2  0  0  0  0
  8 16  1  0  0  0  0
 10  3  2  0  0  0  0
 11 12  1  0  0  0  0
 11  7  2  0  0  0  0
 13 14  1  0  0  0  0
 14  9  2  0  0  0  0
 15  2  1  6  0  0  0
 15  6  1  0  0  0  0
 16  1  2  0  0  0  0
 17 11  1  0  0  0  0
 18 22  1  0  0  0  0
 18 24  1  0  0  0  0
 18 23  1  0  0  0  0
 21 19  1  0  0  0  0
 21 10  1  6  0  0  0
 22 20  1  1  0  0  0
 22 21  1  0  0  0  0
 23 19  1  0  0  0  0
 24 25  1  1  0  0  0
 26 24  1  1  0  0  0
 27 30  1  0  0  0  0
 27 29  1  0  0  0  0
 28 26  1  0  0  0  0
 29 26  1  0  0  0  0
 30 28  1  0  0  0  0
 31  8  1  0  0  0  0
 32 33  1  0  0  0  0
 32 36  1  0  0  0  0
 33 37  1  0  0  0  0
 34 37  1  6  0  0  0
 34 38  1  0  0  0  0
 34 35  1  0  0  0  0
 35 31  1  1  0  0  0
 36 39  1  1  0  0  0
 36 40  1  0  0  0  0
 38 35  1  0  0  0  0
 40 34  1  0  0  0  0
 41 33  1  0  0  0  0
 42 41  1  6  0  0  0
 43 50  1  6  0  0  0
 43 45  1  0  0  0  0
 43 42  1  0  0  0  0
 44 48  1  6  0  0  0
 44 46  1  0  0  0  0
 44 45  1  0  0  0  0
 46 42  1  0  0  0  0
 47 48  1  0  0  0  0
 47 50  1  0  0  0  0
 49 45  1  0  0  0  0
M  END
>  <MODEL>
3

>  <REMARK>
 VINA RESULT:      -6.5      1.668      2.383
  Name = 
  7 active torsions:
  status: ('A' for Active; 'I' for Inactive)
    1  A    between atoms: C_1  and  C_28
    2  A    between atoms: N_3  and  C_28
    3  A    between atoms: C_5  and  N_12
    4  A    between atoms: N_6  and  N_12
    5  A    between atoms: C_10  and  S_21
    6  A    between atoms: C_20  and  S_21
    7  A    between atoms: N_27  and  C_38
                            x       y       z     vdW  Elec       q    Type
                         _______ _______ _______ _____ _____    ______ ____

>  <TORSDO>
F 7

$$$$
=
 OpenBabel10222419063D

 50 58  0  0  1  0  0  0  0  0999 V2000
  191.5230  173.2510  134.6200 C   0  0  0  0  0  3  0  0  0  0  0  0
  186.9430  176.5670  135.9200 O   0  0  0  0  0  1  0  0  0  0  0  0
  185.2530  174.9440  136.4160 C   0  0  0  0  0  0  0  0  0  0  0  0
  187.0450  172.7530  135.7060 C   0  0  1  0  0  3  0  0  0  0  0  0
  184.7700  173.8220  137.3520 C   0  0  0  0  0  2  0  0  0  0  0  0
  187.4290  174.2230  135.3490 C   0  0  1  0  0  3  0  0  0  0  0  0
  190.4820  172.3200  134.6630 C   0  0  0  0  0  3  0  0  0  0  0  0
  189.9830  175.0540  135.1980 C   0  0  0  0  0  0  0  0  0  0  0  0
  187.8700  171.8920  137.8170 O   0  0  0  0  0  0  0  0  0  0  0  0
  184.4010  175.5420  135.6550 N   0  0  0  0  0  0  0  0  0  0  0  0
  189.2100  172.7810  134.9690 C   0  0  0  0  0  0  0  0  0  0  0  0
  188.0840  171.9360  135.1170 N   0  0  0  0  0  2  0  0  0  0  0  0
  185.8520  173.0610  137.9660 N   0  0  0  0  0  2  0  0  0  0  0  0
  186.9590  172.5230  137.2110 C   0  0  0  0  0  0  0  0  0  0  0  0
  186.7480  175.2360  136.2920 C   0  0  1  0  0  3  0  0  0  0  0  0
  191.2780  174.6010  134.9100 C   0  0  0  0  0  3  0  0  0  0  0  0
  188.9360  174.1130  135.2380 C   0  0  0  0  0  0  0  0  0  0  0  0
  181.1890  174.1750  136.9000 N   0  0  0  0  0  0  0  0  0  0  0  0
  182.7080  173.8150  135.0010 C   0  0  0  0  0  2  0  0  0  0  0  0
  182.2730  176.1180  137.7730 O   0  0  0  0  0  1  0  0  0  0  0  0
  182.9950  175.1230  135.6720 C   0  0  1  0  0  3  0  0  0  0  0  0
  182.4580  174.9150  137.0610 C   0  0  2  0  0  3  0  0  0  0  0  0
  181.3630  173.4440  135.6190 C   0  0  0  0  0  2  0  0  0  0  0  0
  179.9640  175.0200  136.8010 C   0  0  1  0  0  3  0  0  0  0  0  0
  179.2160  174.9140  135.4480 C   0  0  0  0  0  1  0  0  0  0  0  0
  179.0300  174.9330  138.0360 C   0  0  2  0  0  3  0  0  0  0  0  0
  179.6930  174.5210  140.2930 C   0  0  0  0  0  2  0  0  0  0  0  0
  178.9530  176.1900  138.7930 N   0  0  0  0  0  2  0  0  0  0  0  0
  179.5400  173.8680  138.9470 C   0  0  0  0  0  2  0  0  0  0  0  0
  178.9330  175.8000  140.1840 C   0  0  0  0  0  2  0  0  0  0  0  0
  189.7760  176.8020  135.6110 S   0  0  0  0  0  0  0  0  0  0  0  0
  193.0250  176.3720  139.7180 C   0  0  0  0  0  2  0  0  0  0  0  0
  192.2330  177.4870  140.2260 N   0  0  0  0  0  0  0  0  0  0  0  0
  190.8740  176.8880  138.2140 C   0  0  1  0  0  0  0  0  0  0  0  0
  189.5540  176.7240  137.4490 C   0  0  2  0  0  3  0  0  0  0  0  0
  193.1610  176.4060  138.1870 C   0  0  1  0  0  3  0  0  0  0  0  0
  190.8740  177.3830  139.6780 C   0  0  0  0  0  2  0  0  0  0  0  0
  190.2320  175.5140  138.0950 C   0  0  0  0  0  2  0  0  0  0  0  0
  193.4810  175.0060  137.6470 C   0  0  0  0  0  1  0  0  0  0  0  0
  192.0850  176.9920  137.4690 O   0  0  0  0  0  0  0  0  0  0  0  0
  192.1570  177.2570  141.6280 N   0  0  0  0  0  2  0  0  0  0  0  0
  190.9850  177.8960  142.2320 C   0  0  1  0  0  3  0  0  0  0  0  0
  190.0020  176.8570  142.8290 C   0  0  2  0  0  3  0  0  0  0  0  0
  190.2960  178.3810  144.5180 C   0  0  2  0  0  3  0  0  0  0  0  0
  189.2430  177.6630  143.7760 N   0  0  0  0  0  0  0  0  0  0  0  0
  191.2910  178.8110  143.4270 C   0  0  0  0  0  2  0  0  0  0  0  0
  191.6620  176.2410  144.7150 C   0  0  0  0  0  2  0  0  0  0  0  0
  191.0410  177.4270  145.4810 C   0  0  0  0  0  2  0  0  0  0  0  0
  188.3050  176.8910  144.6070 C   0  0  0  0  0  1  0  0  0  0  0  0
  190.7430  175.7090  143.5920 C   0  0  0  0  0  2  0  0  0  0  0  0
  1  7  2  0  0  0  0
  1 16  1  0  0  0  0
  3  5  1  0  0  0  0
  4 12  1  1  0  0  0
  4 14  1  0  0  0  0
  5 13  1  0  0  0  0
  6 17  1  1  0  0  0
  6  4  1  0  0  0  0
  6 15  1  0  0  0  0
  7 11  1  0  0  0  0
  8 17  1  0  0  0  0
  8 31  1  0  0  0  0
 10  3  2  0  0  0  0
 11 12  1  0  0  0  0
 11 17  2  0  0  0  0
 14  9  2  0  0  0  0
 14 13  1  0  0  0  0
 15  2  1  6  0  0  0
 15  3  1  0  0  0  0
 16  8  2  0  0  0  0
 18 22  1  0  0  0  0
 19 23  1  0  0  0  0
 19 21  1  0  0  0  0
 21 10  1  1  0  0  0
 21 22  1  0  0  0  0
 22 20  1  6  0  0  0
 23 18  1  0  0  0  0
 24 25  1  6  0  0  0
 24 18  1  0  0  0  0
 26 24  1  6  0  0  0
 26 28  1  0  0  0  0
 26 29  1  0  0  0  0
 28 30  1  0  0  0  0
 29 27  1  0  0  0  0
 30 27  1  0  0  0  0
 32 33  1  0  0  0  0
 33 41  1  0  0  0  0
 34 38  1  1  0  0  0
 34 37  1  0  0  0  0
 35 31  1  6  0  0  0
 35 38  1  0  0  0  0
 35 34  1  0  0  0  0
 36 39  1  6  0  0  0
 36 32  1  0  0  0  0
 37 33  1  0  0  0  0
 40 36  1  0  0  0  0
 40 34  1  0  0  0  0
 42 41  1  1  0  0  0
 42 43  1  0  0  0  0
 42 46  1  0  0  0  0
 43 50  1  1  0  0  0
 43 45  1  0  0  0  0
 44 46  1  6  0  0  0
 44 48  1  0  0  0  0
 45 44  1  0  0  0  0
 45 49  1  0  0  0  0
 47 48  1  0  0  0  0
 50 47  1  0  0  0  0
M  END
>  <MODEL>
4

>  <REMARK>
 VINA RESULT:      -6.0      3.368      7.565
  Name = 
  7 active torsions:
  status: ('A' for Active; 'I' for Inactive)
    1  A    between atoms: C_1  and  C_28
    2  A    between atoms: N_3  and  C_28
    3  A    between atoms: C_5  and  N_12
    4  A    between atoms: N_6  and  N_12
    5  A    between atoms: C_10  and  S_21
    6  A    between atoms: C_20  and  S_21
    7  A    between atoms: N_27  and  C_38
                            x       y       z     vdW  Elec       q    Type
                         _______ _______ _______ _____ _____    ______ ____

>  <TORSDO>
F 7

$$$$
