=
 OpenBabel10222420053D

 27 28  0  0  1  0  0  0  0  0999 V2000
  185.6730  179.4090  140.4050 N   0  0  0  0  0  1  0  0  0  0  0  0
  186.0610  178.3360  142.5950 C   0  0  0  0  0  0  0  0  0  0  0  0
  188.2680  177.4450  143.1090 C   0  0  0  0  0  0  0  0  0  0  0  0
  186.5410  178.7810  141.3450 C   0  0  0  0  0  0  0  0  0  0  0  0
  186.9330  177.6580  143.4600 C   0  0  0  0  0  3  0  0  0  0  0  0
  188.7390  177.9060  141.8720 C   0  0  0  0  0  3  0  0  0  0  0  0
  187.8770  178.5680  140.9960 C   0  0  0  0  0  3  0  0  0  0  0  0
  180.6650  179.0400  144.0750 F   0  0  0  0  0  0  0  0  0  0  0  0
  185.3130  179.1150  145.3170 N   0  0  0  0  0  1  0  0  0  0  0  0
  184.3130  178.9230  144.3190 C   0  0  0  0  0  0  0  0  0  0  0  0
  183.6370  178.2930  142.0740 C   0  0  0  0  0  3  0  0  0  0  0  0
  182.9690  179.0900  144.6680 C   0  0  0  0  0  3  0  0  0  0  0  0
  182.2970  178.4600  142.4280 C   0  0  0  0  0  0  0  0  0  0  0  0
  181.3020  178.2230  141.4900 O   0  0  0  0  0  1  0  0  0  0  0  0
  184.6570  178.5330  143.0080 C   0  0  0  0  0  0  0  0  0  0  0  0
  181.9640  178.8670  143.7250 C   0  0  0  0  0  0  0  0  0  0  0  0
  189.1650  176.7280  144.0720 C   0  0  1  0  0  3  0  0  0  0  0  0
  190.4040  176.1860  143.4200 C   0  0  0  0  0  0  0  0  0  0  0  0
  191.5160  176.9950  143.2260 O   0  0  0  0  0  1  0  0  0  0  0  0
  190.4380  174.9840  143.0500 O   0  0  0  0  0  0  0  0  0  0  0  0
  189.4280  177.5300  145.3520 C   0  0  1  0  0  3  0  0  0  0  0  0
  188.6150  176.9600  146.5070 C   0  0  0  0  0  2  0  0  0  0  0  0
  187.8220  178.0570  147.1890 C   0  0  0  0  0  2  0  0  0  0  0  0
  188.1370  178.0580  148.6700 C   0  0  0  0  0  1  0  0  0  0  0  0
  190.7900  177.5410  145.6740 O   0  0  0  0  0  0  0  0  0  0  0  0
  190.8950  176.7620  146.8280 C   0  0  0  0  0  2  0  0  0  0  0  0
  192.1190  175.8770  146.7290 C   0  0  0  0  0  1  0  0  0  0  0  0
  1  4  1  0  0  0  0
  2 15  1  0  0  0  0
  2  5  1  0  0  0  0
  3  5  2  0  0  0  0
  3 17  1  0  0  0  0
  4  2  2  0  0  0  0
  6  3  1  0  0  0  0
  7  4  1  0  0  0  0
  7  6  2  0  0  0  0
 10 12  1  0  0  0  0
 10  9  1  0  0  0  0
 11 13  2  0  0  0  0
 11 15  1  0  0  0  0
 13 16  1  0  0  0  0
 14 13  1  0  0  0  0
 15 10  2  0  0  0  0
 16  8  1  0  0  0  0
 16 12  2  0  0  0  0
 17 18  1  6  0  0  0
 17 21  1  0  0  0  0
 19 18  1  0  0  0  0
 20 18  2  0  0  0  0
 21 25  1  0  0  0  0
 21 22  1  1  0  0  0
 22 23  1  0  0  0  0
 23 24  1  0  0  0  0
 25 26  1  0  0  0  0
 27 26  1  0  0  0  0
M  END
>  <MODEL>
1

>  <REMARK>
 VINA RESULT:      -8.6      0.000      0.000
  Name = 
  8 active torsions:
  status: ('A' for Active; 'I' for Inactive)
    1  A    between atoms: C_2  and  C_25
    2  A    between atoms: C_4  and  C_10
    3  A    between atoms: C_6  and  O_24
    4  A    between atoms: C_8  and  C_18
    5  A    between atoms: C_10  and  C_13
    6  A    between atoms: C_10  and  C_14
    7  A    between atoms: C_13  and  C_18
    8  A    between atoms: C_13  and  O_24
                            x       y       z     vdW  Elec       q    Type
                         _______ _______ _______ _____ _____    ______ ____

>  <TORSDO>
F 8

$$$$
=
 OpenBabel10222420053D

 27 28  0  0  1  0  0  0  0  0999 V2000
  182.9400  179.5800  144.4040 N   0  0  0  0  0  1  0  0  0  0  0  0
  184.8110  178.4350  143.2710 C   0  0  0  0  0  0  0  0  0  0  0  0
  186.7280  177.7030  144.5820 C   0  0  0  0  0  0  0  0  0  0  0  0
  184.1970  178.9100  144.4480 C   0  0  0  0  0  0  0  0  0  0  0  0
  186.0820  177.8460  143.3510 C   0  0  0  0  0  3  0  0  0  0  0  0
  186.1020  178.1630  145.7480 C   0  0  0  0  0  3  0  0  0  0  0  0
  184.8440  178.7650  145.6780 C   0  0  0  0  0  3  0  0  0  0  0  0
  182.2660  178.9270  138.2630 F   0  0  0  0  0  0  0  0  0  0  0  0
  186.2280  179.4860  140.9330 N   0  0  0  0  0  1  0  0  0  0  0  0
  184.8710  179.0630  140.8260 C   0  0  0  0  0  0  0  0  0  0  0  0
  182.8180  178.2230  141.8110 C   0  0  0  0  0  3  0  0  0  0  0  0
  184.2220  179.1800  139.5930 C   0  0  0  0  0  3  0  0  0  0  0  0
  182.1740  178.3430  140.5780 C   0  0  0  0  0  0  0  0  0  0  0  0
  180.8370  177.9920  140.4610 O   0  0  0  0  0  1  0  0  0  0  0  0
  184.1710  178.5690  141.9470 C   0  0  0  0  0  0  0  0  0  0  0  0
  182.8810  178.8150  139.4660 C   0  0  0  0  0  0  0  0  0  0  0  0
  188.0790  177.0560  144.6200 C   0  0  1  0  0  3  0  0  0  0  0  0
  188.6040  176.7230  143.2540 C   0  0  0  0  0  0  0  0  0  0  0  0
  188.9660  177.7280  142.3680 O   0  0  0  0  0  0  0  0  0  0  0  0
  188.7210  175.5180  142.9090 O   0  0  0  0  0  1  0  0  0  0  0  0
  189.0760  177.8090  145.5090 C   0  0  1  0  0  3  0  0  0  0  0  0
  189.2160  177.1080  146.8540 C   0  0  0  0  0  2  0  0  0  0  0  0
  189.0980  178.1080  147.9870 C   0  0  0  0  0  2  0  0  0  0  0  0
  187.8990  177.7590  148.8440 C   0  0  0  0  0  1  0  0  0  0  0  0
  190.3250  177.9240  144.8880 O   0  0  0  0  0  0  0  0  0  0  0  0
  191.1460  177.0140  145.5550 C   0  0  0  0  0  2  0  0  0  0  0  0
  191.8040  176.0960  144.5480 C   0  0  0  0  0  1  0  0  0  0  0  0
  1  4  1  0  0  0  0
  2  5  2  0  0  0  0
  2  4  1  0  0  0  0
  3 17  1  0  0  0  0
  3  6  2  0  0  0  0
  4  7  2  0  0  0  0
  5  3  1  0  0  0  0
  7  6  1  0  0  0  0
  8 16  1  0  0  0  0
 10  9  1  0  0  0  0
 10 15  1  0  0  0  0
 11 15  2  0  0  0  0
 12 10  2  0  0  0  0
 13 11  1  0  0  0  0
 14 13  1  0  0  0  0
 15  2  1  0  0  0  0
 16 12  1  0  0  0  0
 16 13  2  0  0  0  0
 17 18  1  6  0  0  0
 17 21  1  0  0  0  0
 19 18  2  0  0  0  0
 20 18  1  0  0  0  0
 21 22  1  1  0  0  0
 22 23  1  0  0  0  0
 23 24  1  0  0  0  0
 25 21  1  0  0  0  0
 25 26  1  0  0  0  0
 27 26  1  0  0  0  0
M  END
>  <MODEL>
2

>  <REMARK>
 VINA RESULT:      -8.6      1.910      3.034
  Name = 
  8 active torsions:
  status: ('A' for Active; 'I' for Inactive)
    1  A    between atoms: C_2  and  C_25
    2  A    between atoms: C_4  and  C_10
    3  A    between atoms: C_6  and  O_24
    4  A    between atoms: C_8  and  C_18
    5  A    between atoms: C_10  and  C_13
    6  A    between atoms: C_10  and  C_14
    7  A    between atoms: C_13  and  C_18
    8  A    between atoms: C_13  and  O_24
                            x       y       z     vdW  Elec       q    Type
                         _______ _______ _______ _____ _____    ______ ____

>  <TORSDO>
F 8

$$$$
=
 OpenBabel10222420053D

 27 28  0  0  1  0  0  0  0  0999 V2000
  189.4020  178.2500  137.8600 N   0  0  0  0  0  1  0  0  0  0  0  0
  190.3740  176.9150  139.6960 C   0  0  0  0  0  0  0  0  0  0  0  0
  189.6330  177.3160  141.9810 C   0  0  0  0  0  0  0  0  0  0  0  0
  189.4670  177.8940  139.2390 C   0  0  0  0  0  0  0  0  0  0  0  0
  190.4560  176.6470  141.0710 C   0  0  0  0  0  3  0  0  0  0  0  0
  188.7220  178.2740  141.5140 C   0  0  0  0  0  3  0  0  0  0  0  0
  188.6440  178.5610  140.1500 C   0  0  0  0  0  3  0  0  0  0  0  0
  193.6970  174.0850  136.1260 F   0  0  0  0  0  0  0  0  0  0  0  0
  193.2270  177.5300  139.4510 N   0  0  0  0  0  1  0  0  0  0  0  0
  192.6440  176.4830  138.6780 C   0  0  0  0  0  0  0  0  0  0  0  0
  190.7230  175.1910  137.9480 C   0  0  0  0  0  3  0  0  0  0  0  0
  193.4510  175.7730  137.7850 C   0  0  0  0  0  3  0  0  0  0  0  0
  191.5330  174.4850  137.0580 C   0  0  0  0  0  0  0  0  0  0  0  0
  190.9780  173.5010  136.2520 O   0  0  0  0  0  1  0  0  0  0  0  0
  191.2680  176.1870  138.7740 C   0  0  0  0  0  0  0  0  0  0  0  0
  192.9010  174.7710  136.9820 C   0  0  0  0  0  0  0  0  0  0  0  0
  189.7460  176.9860  143.4380 C   0  0  1  0  0  3  0  0  0  0  0  0
  191.1650  177.0030  143.9300 C   0  0  0  0  0  0  0  0  0  0  0  0
  191.9190  178.1670  143.8820 O   0  0  0  0  0  0  0  0  0  0  0  0
  191.6730  175.9500  144.3960 O   0  0  0  0  0  1  0  0  0  0  0  0
  188.7700  177.7880  144.3080 C   0  0  1  0  0  3  0  0  0  0  0  0
  187.4970  176.9870  144.5450 C   0  0  0  0  0  2  0  0  0  0  0  0
  186.2870  177.7630  144.0640 C   0  0  0  0  0  2  0  0  0  0  0  0
  185.6150  178.4300  145.2460 C   0  0  0  0  0  1  0  0  0  0  0  0
  189.3540  178.1460  145.5290 O   0  0  0  0  0  0  0  0  0  0  0  0
  188.8620  177.2200  146.4510 C   0  0  0  0  0  2  0  0  0  0  0  0
  188.9600  177.7980  147.8460 C   0  0  0  0  0  1  0  0  0  0  0  0
  1  4  1  0  0  0  0
  2  5  1  0  0  0  0
  3 17  1  0  0  0  0
  4  2  2  0  0  0  0
  4  7  1  0  0  0  0
  5  3  2  0  0  0  0
  6  3  1  0  0  0  0
  7  6  2  0  0  0  0
  8 16  1  0  0  0  0
 10 15  1  0  0  0  0
 10  9  1  0  0  0  0
 11 15  2  0  0  0  0
 12 10  2  0  0  0  0
 13 11  1  0  0  0  0
 14 13  1  0  0  0  0
 15  2  1  0  0  0  0
 16 13  2  0  0  0  0
 16 12  1  0  0  0  0
 17 18  1  1  0  0  0
 17 21  1  0  0  0  0
 18 20  1  0  0  0  0
 19 18  2  0  0  0  0
 21 22  1  1  0  0  0
 21 25  1  0  0  0  0
 23 22  1  0  0  0  0
 23 24  1  0  0  0  0
 25 26  1  0  0  0  0
 26 27  1  0  0  0  0
M  END
>  <MODEL>
3

>  <REMARK>
 VINA RESULT:      -8.2      4.854      7.169
  Name = 
  8 active torsions:
  status: ('A' for Active; 'I' for Inactive)
    1  A    between atoms: C_2  and  C_25
    2  A    between atoms: C_4  and  C_10
    3  A    between atoms: C_6  and  O_24
    4  A    between atoms: C_8  and  C_18
    5  A    between atoms: C_10  and  C_13
    6  A    between atoms: C_10  and  C_14
    7  A    between atoms: C_13  and  C_18
    8  A    between atoms: C_13  and  O_24
                            x       y       z     vdW  Elec       q    Type
                         _______ _______ _______ _____ _____    ______ ____

>  <TORSDO>
F 8

$$$$
=
 OpenBabel10222420053D

 27 28  0  0  1  0  0  0  0  0999 V2000
  183.5170  179.3440  145.1320 N   0  0  0  0  0  1  0  0  0  0  0  0
  185.2070  178.3580  143.6260 C   0  0  0  0  0  0  0  0  0  0  0  0
  187.3330  177.6130  144.5500 C   0  0  0  0  0  0  0  0  0  0  0  0
  184.7820  178.7240  144.9200 C   0  0  0  0  0  0  0  0  0  0  0  0
  186.4900  177.8160  143.4540 C   0  0  0  0  0  3  0  0  0  0  0  0
  186.8950  177.9640  145.8340 C   0  0  0  0  0  3  0  0  0  0  0  0
  185.6270  178.5190  146.0140 C   0  0  0  0  0  3  0  0  0  0  0  0
  181.8570  179.1060  139.1520 F   0  0  0  0  0  0  0  0  0  0  0  0
  186.2420  179.4320  141.1060 N   0  0  0  0  0  1  0  0  0  0  0  0
  184.8700  179.0620  141.2260 C   0  0  0  0  0  0  0  0  0  0  0  0
  182.9840  178.2670  142.5310 C   0  0  0  0  0  3  0  0  0  0  0  0
  184.0230  179.2440  140.1280 C   0  0  0  0  0  3  0  0  0  0  0  0
  182.1430  178.4500  141.4320 C   0  0  0  0  0  0  0  0  0  0  0  0
  180.7920  178.1520  141.5410 O   0  0  0  0  0  1  0  0  0  0  0  0
  184.3540  178.5580  142.4380 C   0  0  0  0  0  0  0  0  0  0  0  0
  182.6650  178.9320  140.2270 C   0  0  0  0  0  0  0  0  0  0  0  0
  188.6900  177.0190  144.3190 C   0  0  1  0  0  3  0  0  0  0  0  0
  188.8160  176.3600  142.9760 C   0  0  0  0  0  0  0  0  0  0  0  0
  188.4530  177.0340  141.8180 O   0  0  0  0  0  0  0  0  0  0  0  0
  189.2610  175.1860  142.8990 O   0  0  0  0  0  1  0  0  0  0  0  0
  189.8300  177.9890  144.6520 C   0  0  1  0  0  3  0  0  0  0  0  0
  190.9410  177.2610  145.3970 C   0  0  0  0  0  2  0  0  0  0  0  0
  190.4580  176.8120  146.7620 C   0  0  0  0  0  2  0  0  0  0  0  0
  191.5820  176.0990  147.4830 C   0  0  0  0  0  1  0  0  0  0  0  0
  190.3350  178.5960  143.4970 O   0  0  0  0  0  0  0  0  0  0  0  0
  191.6680  178.1900  143.4280 C   0  0  0  0  0  2  0  0  0  0  0  0
  191.9470  177.6040  142.0600 C   0  0  0  0  0  1  0  0  0  0  0  0
  2  4  1  0  0  0  0
  3  6  2  0  0  0  0
  4  1  1  0  0  0  0
  4  7  2  0  0  0  0
  5  2  2  0  0  0  0
  5  3  1  0  0  0  0
  6  7  1  0  0  0  0
  8 16  1  0  0  0  0
  9 10  1  0  0  0  0
 10 15  1  0  0  0  0
 12 16  1  0  0  0  0
 12 10  2  0  0  0  0
 13 14  1  0  0  0  0
 13 11  1  0  0  0  0
 15 11  2  0  0  0  0
 15  2  1  0  0  0  0
 16 13  2  0  0  0  0
 17 18  1  6  0  0  0
 17  3  1  0  0  0  0
 17 21  1  0  0  0  0
 19 18  2  0  0  0  0
 20 18  1  0  0  0  0
 21 22  1  6  0  0  0
 22 23  1  0  0  0  0
 23 24  1  0  0  0  0
 25 21  1  0  0  0  0
 26 25  1  0  0  0  0
 27 26  1  0  0  0  0
M  END
>  <MODEL>
4

>  <REMARK>
 VINA RESULT:      -8.1      1.815      3.236
  Name = 
  8 active torsions:
  status: ('A' for Active; 'I' for Inactive)
    1  A    between atoms: C_2  and  C_25
    2  A    between atoms: C_4  and  C_10
    3  A    between atoms: C_6  and  O_24
    4  A    between atoms: C_8  and  C_18
    5  A    between atoms: C_10  and  C_13
    6  A    between atoms: C_10  and  C_14
    7  A    between atoms: C_13  and  C_18
    8  A    between atoms: C_13  and  O_24
                            x       y       z     vdW  Elec       q    Type
                         _______ _______ _______ _____ _____    ______ ____

>  <TORSDO>
F 8

$$$$
=
 OpenBabel10222420053D

 27 28  0  0  1  0  0  0  0  0999 V2000
  186.0100  178.7980  145.4350 N   0  0  0  0  0  1  0  0  0  0  0  0
  184.9720  178.3960  143.2310 C   0  0  0  0  0  0  0  0  0  0  0  0
  182.5510  178.5430  143.0120 C   0  0  0  0  0  0  0  0  0  0  0  0
  184.8610  178.7450  144.5940 C   0  0  0  0  0  0  0  0  0  0  0  0
  183.8070  178.2860  142.4560 C   0  0  0  0  0  3  0  0  0  0  0  0
  182.4540  178.9060  144.3620 C   0  0  0  0  0  3  0  0  0  0  0  0
  183.6040  179.0030  145.1460 C   0  0  0  0  0  3  0  0  0  0  0  0
  189.9730  177.2230  140.9050 F   0  0  0  0  0  0  0  0  0  0  0  0
  185.7090  179.4290  140.5920 N   0  0  0  0  0  1  0  0  0  0  0  0
  186.6230  178.6270  141.3360 C   0  0  0  0  0  0  0  0  0  0  0  0
  187.1820  177.2720  143.2710 C   0  0  0  0  0  3  0  0  0  0  0  0
  187.8670  178.3230  140.7740 C   0  0  0  0  0  3  0  0  0  0  0  0
  188.4220  176.9710  142.7060 C   0  0  0  0  0  0  0  0  0  0  0  0
  189.3070  176.1450  143.3840 O   0  0  0  0  0  1  0  0  0  0  0  0
  186.2760  178.1100  142.6010 C   0  0  0  0  0  0  0  0  0  0  0  0
  188.7670  177.5040  141.4580 C   0  0  0  0  0  0  0  0  0  0  0  0
  181.3360  178.4260  142.1420 C   0  0  1  0  0  3  0  0  0  0  0  0
  180.1630  179.1960  142.6740 C   0  0  0  0  0  0  0  0  0  0  0  0
  180.2420  180.5690  142.8630 O   0  0  0  0  0  0  0  0  0  0  0  0
  179.0930  178.5910  142.9450 O   0  0  0  0  0  1  0  0  0  0  0  0
  181.6380  178.6830  140.6600 C   0  0  1  0  0  3  0  0  0  0  0  0
  181.2000  177.4910  139.8190 C   0  0  0  0  0  2  0  0  0  0  0  0
  182.2800  176.4280  139.8060 C   0  0  0  0  0  2  0  0  0  0  0  0
  183.4300  176.8900  138.9350 C   0  0  0  0  0  1  0  0  0  0  0  0
  181.0130  179.8520  140.2110 O   0  0  0  0  0  0  0  0  0  0  0  0
  181.3480  179.9440  138.8590 C   0  0  0  0  0  2  0  0  0  0  0  0
  182.7100  180.5890  138.7190 C   0  0  0  0  0  1  0  0  0  0  0  0
  2  4  1  0  0  0  0
  3  6  2  0  0  0  0
  4  7  2  0  0  0  0
  4  1  1  0  0  0  0
  5  3  1  0  0  0  0
  5  2  2  0  0  0  0
  6  7  1  0  0  0  0
  8 16  1  0  0  0  0
  9 10  1  0  0  0  0
 10 15  1  0  0  0  0
 12 10  2  0  0  0  0
 12 16  1  0  0  0  0
 13 11  1  0  0  0  0
 13 14  1  0  0  0  0
 15  2  1  0  0  0  0
 15 11  2  0  0  0  0
 16 13  2  0  0  0  0
 17 18  1  1  0  0  0
 17  3  1  0  0  0  0
 18 19  2  0  0  0  0
 18 20  1  0  0  0  0
 21 22  1  6  0  0  0
 21 17  1  0  0  0  0
 23 22  1  0  0  0  0
 24 23  1  0  0  0  0
 25 21  1  0  0  0  0
 26 25  1  0  0  0  0
 27 26  1  0  0  0  0
M  END
>  <MODEL>
5

>  <REMARK>
 VINA RESULT:      -7.8      3.059      8.284
  Name = 
  8 active torsions:
  status: ('A' for Active; 'I' for Inactive)
    1  A    between atoms: C_2  and  C_25
    2  A    between atoms: C_4  and  C_10
    3  A    between atoms: C_6  and  O_24
    4  A    between atoms: C_8  and  C_18
    5  A    between atoms: C_10  and  C_13
    6  A    between atoms: C_10  and  C_14
    7  A    between atoms: C_13  and  C_18
    8  A    between atoms: C_13  and  O_24
                            x       y       z     vdW  Elec       q    Type
                         _______ _______ _______ _____ _____    ______ ____

>  <TORSDO>
F 8

$$$$
=
 OpenBabel10222420053D

 27 28  0  0  1  0  0  0  0  0999 V2000
  191.3340  178.1250  142.8430 N   0  0  0  0  0  1  0  0  0  0  0  0
  189.9120  177.3890  140.9640 C   0  0  0  0  0  0  0  0  0  0  0  0
  190.9490  176.8470  138.8280 C   0  0  0  0  0  0  0  0  0  0  0  0
  191.1870  177.6560  141.5060 C   0  0  0  0  0  0  0  0  0  0  0  0
  189.8070  176.9980  139.6210 C   0  0  0  0  0  3  0  0  0  0  0  0
  192.2120  177.0980  139.3810 C   0  0  0  0  0  3  0  0  0  0  0  0
  192.3260  177.5030  140.7120 C   0  0  0  0  0  3  0  0  0  0  0  0
  185.1570  178.0420  143.9250 F   0  0  0  0  0  0  0  0  0  0  0  0
  189.2570  175.6280  143.2100 N   0  0  0  0  0  1  0  0  0  0  0  0
  188.3830  176.6950  142.8490 C   0  0  0  0  0  0  0  0  0  0  0  0
  187.7580  178.5380  141.3990 C   0  0  0  0  0  3  0  0  0  0  0  0
  187.1980  176.8700  143.5700 C   0  0  0  0  0  3  0  0  0  0  0  0
  186.5760  178.7090  142.1210 C   0  0  0  0  0  0  0  0  0  0  0  0
  185.6800  179.7030  141.7530 O   0  0  0  0  0  1  0  0  0  0  0  0
  188.6770  177.5410  141.7600 C   0  0  0  0  0  0  0  0  0  0  0  0
  186.2990  177.8780  143.2130 C   0  0  0  0  0  0  0  0  0  0  0  0
  190.7880  176.4150  137.4020 C   0  0  1  0  0  3  0  0  0  0  0  0
  191.4890  175.1210  137.1040 C   0  0  0  0  0  0  0  0  0  0  0  0
  192.3410  175.0090  136.0140 O   0  0  0  0  0  0  0  0  0  0  0  0
  191.3050  174.1280  137.8550 O   0  0  0  0  0  1  0  0  0  0  0  0
  189.3320  176.4660  136.9240 C   0  0  1  0  0  3  0  0  0  0  0  0
  189.1000  177.7070  136.0730 C   0  0  0  0  0  2  0  0  0  0  0  0
  188.4190  178.7880  136.8880 C   0  0  0  0  0  2  0  0  0  0  0  0
  187.0800  178.2800  137.3800 C   0  0  0  0  0  1  0  0  0  0  0  0
  188.9920  175.3130  136.2070 O   0  0  0  0  0  0  0  0  0  0  0  0
  187.8570  174.8110  136.8460 C   0  0  0  0  0  2  0  0  0  0  0  0
  186.6810  174.8580  135.8960 C   0  0  0  0  0  1  0  0  0  0  0  0
  2  4  1  0  0  0  0
  2 15  1  0  0  0  0
  3  6  2  0  0  0  0
  3  5  1  0  0  0  0
  4  1  1  0  0  0  0
  5  2  2  0  0  0  0
  6  7  1  0  0  0  0
  7  4  2  0  0  0  0
 10  9  1  0  0  0  0
 10 12  1  0  0  0  0
 11 15  1  0  0  0  0
 11 13  2  0  0  0  0
 13 16  1  0  0  0  0
 14 13  1  0  0  0  0
 15 10  2  0  0  0  0
 16 12  2  0  0  0  0
 16  8  1  0  0  0  0
 17 18  1  1  0  0  0
 17  3  1  0  0  0  0
 18 20  1  0  0  0  0
 19 18  2  0  0  0  0
 21 22  1  6  0  0  0
 21 17  1  0  0  0  0
 22 23  1  0  0  0  0
 23 24  1  0  0  0  0
 25 26  1  0  0  0  0
 25 21  1  0  0  0  0
 27 26  1  0  0  0  0
M  END
>  <MODEL>
6

>  <REMARK>
 VINA RESULT:      -7.7      4.421      6.986
  Name = 
  8 active torsions:
  status: ('A' for Active; 'I' for Inactive)
    1  A    between atoms: C_2  and  C_25
    2  A    between atoms: C_4  and  C_10
    3  A    between atoms: C_6  and  O_24
    4  A    between atoms: C_8  and  C_18
    5  A    between atoms: C_10  and  C_13
    6  A    between atoms: C_10  and  C_14
    7  A    between atoms: C_13  and  C_18
    8  A    between atoms: C_13  and  O_24
                            x       y       z     vdW  Elec       q    Type
                         _______ _______ _______ _____ _____    ______ ____

>  <TORSDO>
F 8

$$$$
=
 OpenBabel10222420053D

 27 28  0  0  1  0  0  0  0  0999 V2000
  184.2020  178.7360  146.1390 N   0  0  0  0  0  1  0  0  0  0  0  0
  185.0850  178.3230  143.8710 C   0  0  0  0  0  0  0  0  0  0  0  0
  183.6110  178.5930  141.9520 C   0  0  0  0  0  0  0  0  0  0  0  0
  184.0340  178.7200  144.7240 C   0  0  0  0  0  0  0  0  0  0  0  0
  184.8550  178.2520  142.4880 C   0  0  0  0  0  3  0  0  0  0  0  0
  182.5790  179.0030  142.8060 C   0  0  0  0  0  3  0  0  0  0  0  0
  182.7920  179.0620  144.1850 C   0  0  0  0  0  3  0  0  0  0  0  0
  190.1160  176.8630  145.9600 F   0  0  0  0  0  0  0  0  0  0  0  0
  187.4120  177.9510  142.1320 N   0  0  0  0  0  1  0  0  0  0  0  0
  187.5300  177.7860  143.5430 C   0  0  0  0  0  0  0  0  0  0  0  0
  186.5610  177.7130  145.7670 C   0  0  0  0  0  3  0  0  0  0  0  0
  188.7690  177.4210  144.0790 C   0  0  0  0  0  3  0  0  0  0  0  0
  187.8000  177.3480  146.2980 C   0  0  0  0  0  0  0  0  0  0  0  0
  187.9280  177.1250  147.6620 O   0  0  0  0  0  1  0  0  0  0  0  0
  186.4150  177.9470  144.3910 C   0  0  0  0  0  0  0  0  0  0  0  0
  188.9070  177.2100  145.4530 C   0  0  0  0  0  0  0  0  0  0  0  0
  183.4160  178.5140  140.4680 C   0  0  1  0  0  3  0  0  0  0  0  0
  184.4660  179.2660  139.7020 C   0  0  0  0  0  0  0  0  0  0  0  0
  184.1720  180.4800  139.0990 O   0  0  0  0  0  0  0  0  0  0  0  0
  185.6280  178.7910  139.6120 O   0  0  0  0  0  1  0  0  0  0  0  0
  183.1820  177.0820  139.9730 C   0  0  1  0  0  3  0  0  0  0  0  0
  181.7340  176.6720  140.2110 C   0  0  0  0  0  2  0  0  0  0  0  0
  180.7940  177.7900  139.8070 C   0  0  0  0  0  2  0  0  0  0  0  0
  179.6570  177.8750  140.8030 C   0  0  0  0  0  1  0  0  0  0  0  0
  183.5080  176.9530  138.6180 O   0  0  0  0  0  0  0  0  0  0  0  0
  183.1790  175.6360  138.2900 C   0  0  0  0  0  2  0  0  0  0  0  0
  184.2240  175.0740  137.3520 C   0  0  0  0  0  1  0  0  0  0  0  0
  2 15  1  0  0  0  0
  2  4  1  0  0  0  0
  3  5  1  0  0  0  0
  3  6  2  0  0  0  0
  4  1  1  0  0  0  0
  5  2  2  0  0  0  0
  6  7  1  0  0  0  0
  7  4  2  0  0  0  0
  9 10  1  0  0  0  0
 10 12  2  0  0  0  0
 10 15  1  0  0  0  0
 11 13  1  0  0  0  0
 12 16  1  0  0  0  0
 13 14  1  0  0  0  0
 15 11  2  0  0  0  0
 16  8  1  0  0  0  0
 16 13  2  0  0  0  0
 17 18  1  6  0  0  0
 17  3  1  0  0  0  0
 19 18  2  0  0  0  0
 20 18  1  0  0  0  0
 21 22  1  6  0  0  0
 21 17  1  0  0  0  0
 23 22  1  0  0  0  0
 23 24  1  0  0  0  0
 25 21  1  0  0  0  0
 26 25  1  0  0  0  0
 27 26  1  0  0  0  0
M  END
>  <MODEL>
7

>  <REMARK>
 VINA RESULT:      -7.6      3.247      7.594
  Name = 
  8 active torsions:
  status: ('A' for Active; 'I' for Inactive)
    1  A    between atoms: C_2  and  C_25
    2  A    between atoms: C_4  and  C_10
    3  A    between atoms: C_6  and  O_24
    4  A    between atoms: C_8  and  C_18
    5  A    between atoms: C_10  and  C_13
    6  A    between atoms: C_10  and  C_14
    7  A    between atoms: C_13  and  C_18
    8  A    between atoms: C_13  and  O_24
                            x       y       z     vdW  Elec       q    Type
                         _______ _______ _______ _____ _____    ______ ____

>  <TORSDO>
F 8

$$$$
=
 OpenBabel10222420053D

 27 28  0  0  1  0  0  0  0  0999 V2000
  186.5360  179.3130  141.3420 N   0  0  0  0  0  1  0  0  0  0  0  0
  184.5920  178.5150  142.6380 C   0  0  0  0  0  0  0  0  0  0  0  0
  182.3890  178.5170  141.6010 C   0  0  0  0  0  0  0  0  0  0  0  0
  185.1490  179.0020  141.4370 C   0  0  0  0  0  0  0  0  0  0  0  0
  183.2090  178.2900  142.7100 C   0  0  0  0  0  3  0  0  0  0  0  0
  182.9550  178.9840  140.4070 C   0  0  0  0  0  3  0  0  0  0  0  0
  184.3270  179.2270  140.3300 C   0  0  0  0  0  3  0  0  0  0  0  0
  187.8280  177.5340  147.1510 F   0  0  0  0  0  0  0  0  0  0  0  0
  183.7800  179.3770  145.3170 N   0  0  0  0  0  1  0  0  0  0  0  0
  185.0050  178.6740  145.1240 C   0  0  0  0  0  0  0  0  0  0  0  0
  186.6600  177.6340  143.6850 C   0  0  0  0  0  3  0  0  0  0  0  0
  185.8230  178.4240  146.2310 C   0  0  0  0  0  3  0  0  0  0  0  0
  187.4730  177.3870  144.7930 C   0  0  0  0  0  0  0  0  0  0  0  0
  188.6970  176.7560  144.6230 O   0  0  0  0  0  1  0  0  0  0  0  0
  185.4170  178.2670  143.8380 C   0  0  0  0  0  0  0  0  0  0  0  0
  187.0490  177.7770  146.0680 C   0  0  0  0  0  0  0  0  0  0  0  0
  180.9190  178.2500  141.7210 C   0  0  1  0  0  3  0  0  0  0  0  0
  180.2640  179.0690  142.7950 C   0  0  0  0  0  0  0  0  0  0  0  0
  180.4490  180.4430  142.8520 O   0  0  0  0  0  0  0  0  0  0  0  0
  179.5350  178.5040  143.6510 O   0  0  0  0  0  1  0  0  0  0  0  0
  180.1940  178.2900  140.3710 C   0  0  1  0  0  3  0  0  0  0  0  0
  179.7670  176.8870  139.9600 C   0  0  0  0  0  2  0  0  0  0  0  0
  180.5950  176.4050  138.7840 C   0  0  0  0  0  2  0  0  0  0  0  0
  181.7890  175.6270  139.2960 C   0  0  0  0  0  1  0  0  0  0  0  0
  179.0850  179.1430  140.4150 O   0  0  0  0  0  0  0  0  0  0  0  0
  179.1570  179.8910  139.2380 C   0  0  0  0  0  2  0  0  0  0  0  0
  180.0520  181.0910  139.4580 C   0  0  0  0  0  1  0  0  0  0  0  0
  1  4  1  0  0  0  0
  2  5  1  0  0  0  0
  2 15  1  0  0  0  0
  3 17  1  0  0  0  0
  3  5  2  0  0  0  0
  4  2  2  0  0  0  0
  6  3  1  0  0  0  0
  7  6  2  0  0  0  0
  7  4  1  0  0  0  0
 10  9  1  0  0  0  0
 10 12  1  0  0  0  0
 11 15  1  0  0  0  0
 11 13  2  0  0  0  0
 13 16  1  0  0  0  0
 14 13  1  0  0  0  0
 15 10  2  0  0  0  0
 16 12  2  0  0  0  0
 16  8  1  0  0  0  0
 17 18  1  1  0  0  0
 18 19  2  0  0  0  0
 18 20  1  0  0  0  0
 21 22  1  1  0  0  0
 21 25  1  0  0  0  0
 21 17  1  0  0  0  0
 23 24  1  0  0  0  0
 23 22  1  0  0  0  0
 26 27  1  0  0  0  0
 26 25  1  0  0  0  0
M  END
>  <MODEL>
8

>  <REMARK>
 VINA RESULT:      -7.6      2.919      8.335
  Name = 
  8 active torsions:
  status: ('A' for Active; 'I' for Inactive)
    1  A    between atoms: C_2  and  C_25
    2  A    between atoms: C_4  and  C_10
    3  A    between atoms: C_6  and  O_24
    4  A    between atoms: C_8  and  C_18
    5  A    between atoms: C_10  and  C_13
    6  A    between atoms: C_10  and  C_14
    7  A    between atoms: C_13  and  C_18
    8  A    between atoms: C_13  and  O_24
                            x       y       z     vdW  Elec       q    Type
                         _______ _______ _______ _____ _____    ______ ____

>  <TORSDO>
F 8

$$$$
=
 OpenBabel10222420053D

 27 28  0  0  1  0  0  0  0  0999 V2000
  192.3340  177.0140  138.7170 N   0  0  0  0  0  1  0  0  0  0  0  0
  190.1020  177.2070  139.7550 C   0  0  0  0  0  0  0  0  0  0  0  0
  189.9340  177.5970  142.1520 C   0  0  0  0  0  0  0  0  0  0  0  0
  191.5080  177.2470  139.8550 C   0  0  0  0  0  0  0  0  0  0  0  0
  189.3280  177.3710  140.9140 C   0  0  0  0  0  3  0  0  0  0  0  0
  191.3320  177.6520  142.2380 C   0  0  0  0  0  3  0  0  0  0  0  0
  192.1120  177.4750  141.0940 C   0  0  0  0  0  3  0  0  0  0  0  0
  187.4790  176.1710  134.8720 F   0  0  0  0  0  0  0  0  0  0  0  0
  189.0560  179.3790  138.0910 N   0  0  0  0  0  1  0  0  0  0  0  0
  188.9310  178.0220  137.6710 C   0  0  0  0  0  0  0  0  0  0  0  0
  189.2160  175.6410  138.0490 C   0  0  0  0  0  3  0  0  0  0  0  0
  188.2810  177.7450  136.4650 C   0  0  0  0  0  3  0  0  0  0  0  0
  188.5650  175.3700  136.8440 C   0  0  0  0  0  0  0  0  0  0  0  0
  188.3800  174.0550  136.4410 O   0  0  0  0  0  1  0  0  0  0  0  0
  189.4160  176.9650  138.4700 C   0  0  0  0  0  0  0  0  0  0  0  0
  188.1040  176.4250  136.0470 C   0  0  0  0  0  0  0  0  0  0  0  0
  189.0670  177.7800  143.3610 C   0  0  1  0  0  3  0  0  0  0  0  0
  187.8750  176.8670  143.3640 C   0  0  0  0  0  0  0  0  0  0  0  0
  186.5920  177.3740  143.5190 O   0  0  0  0  0  1  0  0  0  0  0  0
  188.0400  175.6280  143.2180 O   0  0  0  0  0  0  0  0  0  0  0  0
  189.8620  177.7780  144.6720 C   0  0  1  0  0  3  0  0  0  0  0  0
  188.9900  178.2720  145.8180 C   0  0  0  0  0  2  0  0  0  0  0  0
  188.6410  177.1280  146.7490 C   0  0  0  0  0  2  0  0  0  0  0  0
  188.4950  177.6550  148.1610 C   0  0  0  0  0  1  0  0  0  0  0  0
  190.3680  176.5050  144.9580 O   0  0  0  0  0  0  0  0  0  0  0  0
  191.6800  176.7220  145.3790 C   0  0  0  0  0  2  0  0  0  0  0  0
  191.9420  175.9330  146.6440 C   0  0  0  0  0  1  0  0  0  0  0  0
  1  4  1  0  0  0  0
  2  4  2  0  0  0  0
  2  5  1  0  0  0  0
  3  6  1  0  0  0  0
  3 17  1  0  0  0  0
  4  7  1  0  0  0  0
  5  3  2  0  0  0  0
  7  6  2  0  0  0  0
  8 16  1  0  0  0  0
 10  9  1  0  0  0  0
 10 15  1  0  0  0  0
 11 15  2  0  0  0  0
 12 10  2  0  0  0  0
 13 11  1  0  0  0  0
 14 13  1  0  0  0  0
 15  2  1  0  0  0  0
 16 12  1  0  0  0  0
 16 13  2  0  0  0  0
 17 18  1  1  0  0  0
 17 21  1  0  0  0  0
 18 19  1  0  0  0  0
 20 18  2  0  0  0  0
 21 25  1  0  0  0  0
 21 22  1  1  0  0  0
 22 23  1  0  0  0  0
 23 24  1  0  0  0  0
 25 26  1  0  0  0  0
 26 27  1  0  0  0  0
M  END
>  <MODEL>
9

>  <REMARK>
 VINA RESULT:      -7.5      4.116      5.912
  Name = 
  8 active torsions:
  status: ('A' for Active; 'I' for Inactive)
    1  A    between atoms: C_2  and  C_25
    2  A    between atoms: C_4  and  C_10
    3  A    between atoms: C_6  and  O_24
    4  A    between atoms: C_8  and  C_18
    5  A    between atoms: C_10  and  C_13
    6  A    between atoms: C_10  and  C_14
    7  A    between atoms: C_13  and  C_18
    8  A    between atoms: C_13  and  O_24
                            x       y       z     vdW  Elec       q    Type
                         _______ _______ _______ _____ _____    ______ ____

>  <TORSDO>
F 8

$$$$
