=
 OpenBabel10222420273D

 31 33  0  0  1  0  0  0  0  0999 V2000
  186.3990  177.6130  144.4600 C   0  0  0  0  0  2  0  0  0  0  0  0
  186.8110  177.8250  145.9130 C   0  0  0  0  0  2  0  0  0  0  0  0
  188.3270  177.8230  146.0580 C   0  0  0  0  0  2  0  0  0  0  0  0
  189.0040  176.8510  145.0770 C   0  0  0  0  0  2  0  0  0  0  0  0
  190.2260  177.3580  144.4260 N   0  0  0  0  0  0  0  0  0  0  0  0
  191.3450  177.1900  145.3410 C   0  0  0  0  0  1  0  0  0  0  0  0
  190.0310  177.4280  141.9960 C   0  0  1  0  0  3  0  0  0  0  0  0
  189.2410  176.2380  142.4940 C   0  0  0  0  0  2  0  0  0  0  0  0
  190.5290  176.6340  143.1920 C   0  0  2  0  0  3  0  0  0  0  0  0
  189.2050  178.0440  139.2350 N   0  0  0  0  0  2  0  0  0  0  0  0
  191.1570  176.9640  138.5390 O   0  0  0  0  0  0  0  0  0  0  0  0
  190.4230  177.3370  139.4920 C   0  0  0  0  0  0  0  0  0  0  0  0
  190.8190  177.0500  140.8350 N   0  0  0  0  0  2  0  0  0  0  0  0
  187.2650  178.0300  137.7630 C   0  0  0  0  0  1  0  0  0  0  0  0
  188.7440  178.3500  137.8890 C   0  0  1  0  0  3  0  0  0  0  0  0
  188.9450  179.7040  137.6280 O   0  0  0  0  0  1  0  0  0  0  0  0
  185.7470  178.8580  143.8700 C   0  0  2  0  0  3  0  0  0  0  0  0
  183.3640  178.7940  144.6090 C   0  0  0  0  0  1  0  0  0  0  0  0
  184.7200  179.4310  144.8360 C   0  0  0  0  0  2  0  0  0  0  0  0
  185.1270  178.5480  142.5860 N   0  0  0  0  0  0  0  0  0  0  0  0
  185.0670  179.4090  141.6480 N   0  0  0  0  0  0  0  0  0  0  0  0
  184.4600  179.0970  140.3930 C   0  0  0  0  0  0  0  0  0  0  0  0
  184.5680  179.9130  139.4390 O   0  0  0  0  0  0  0  0  0  0  0  0
  182.4190  177.3330  138.3900 N   0  0  0  0  0  0  0  0  0  0  0  0
  179.9380  178.3850  139.2840 S   0  0  0  0  0  0  0  0  0  0  0  0
  180.4230  179.5840  140.5830 C   0  0  0  0  0  2  0  0  0  0  0  0
  181.5560  177.6720  139.4490 C   0  0  2  0  0  3  0  0  0  0  0  0
  181.5670  178.9800  141.4000 C   0  0  0  0  0  2  0  0  0  0  0  0
  182.2260  178.0010  140.5010 C   0  0  2  0  0  3  0  0  0  0  0  0
  183.6830  177.8220  140.2180 C   0  0  1  0  0  3  0  0  0  0  0  0
  183.7560  177.3460  138.8250 N   0  0  0  0  0  0  0  0  0  0  0  0
  1  2  1  0  0  0  0
  2  3  1  0  0  0  0
  4  3  1  0  0  0  0
  5  4  1  0  0  0  0
  5  6  1  0  0  0  0
  7 13  1  6  0  0  0
  7  8  1  0  0  0  0
  7  9  1  0  0  0  0
  8  9  1  0  0  0  0
  9  5  1  1  0  0  0
 10 12  1  0  0  0  0
 11 12  2  0  0  0  0
 12 13  1  0  0  0  0
 15 14  1  1  0  0  0
 15 10  1  0  0  0  0
 16 15  1  0  0  0  0
 17  1  1  1  0  0  0
 17 19  1  0  0  0  0
 18 19  1  0  0  0  0
 20 17  1  0  0  0  0
 21 20  2  0  0  0  0
 22 21  1  0  0  0  0
 23 22  2  0  0  0  0
 24 31  2  0  0  0  0
 25 27  1  0  0  0  0
 25 26  1  0  0  0  0
 26 28  1  0  0  0  0
 27 24  1  6  0  0  0
 27 29  1  0  0  0  0
 29 28  1  6  0  0  0
 30 22  1  6  0  0  0
 30 29  1  0  0  0  0
 31 30  1  0  0  0  0
M  END
>  <MODEL>
1

>  <REMARK>
 VINA RESULT:      -7.1      0.000      0.000
  Name = 
  12 active torsions:
  status: ('A' for Active; 'I' for Inactive)
    1  A    between atoms: C_3  and  N_28
    2  A    between atoms: C_7  and  C_13
    3  A    between atoms: C_7  and  C_29
    4  A    between atoms: N_9  and  C_25
    5  A    between atoms: C_10  and  N_12
    6  A    between atoms: C_10  and  C_26
    7  A    between atoms: C_13  and  C_15
    8  A    between atoms: N_14  and  C_24
    9  A    between atoms: C_15  and  N_16
   10  A    between atoms: N_16  and  C_27
   11  A    between atoms: C_18  and  C_25
   12  A    between atoms: C_25  and  C_29
                            x       y       z     vdW  Elec       q    Type
                         _______ _______ _______ _____ _____    ______ ____

>  <TORSDO>
F 12

$$$$
=
 OpenBabel10222420273D

 31 33  0  0  1  0  0  0  0  0999 V2000
  186.3920  177.3420  144.7920 C   0  0  0  0  0  2  0  0  0  0  0  0
  187.8210  177.3900  144.2600 C   0  0  0  0  0  2  0  0  0  0  0  0
  188.8300  177.2100  145.3880 C   0  0  0  0  0  2  0  0  0  0  0  0
  190.2810  177.3550  144.8990 C   0  0  0  0  0  2  0  0  0  0  0  0
  190.4570  178.1310  143.6590 N   0  0  0  0  0  0  0  0  0  0  0  0
  191.2530  179.3120  143.9560 C   0  0  0  0  0  1  0  0  0  0  0  0
  190.1570  176.9310  141.5570 C   0  0  1  0  0  3  0  0  0  0  0  0
  190.6200  175.9380  142.5990 C   0  0  0  0  0  2  0  0  0  0  0  0
  191.1480  177.3600  142.6250 C   0  0  2  0  0  3  0  0  0  0  0  0
  189.1670  177.8770  138.9470 N   0  0  0  0  0  2  0  0  0  0  0  0
  191.0920  176.9380  138.0120 O   0  0  0  0  0  0  0  0  0  0  0  0
  190.4080  177.1700  139.0440 C   0  0  0  0  0  0  0  0  0  0  0  0
  190.8830  176.7230  140.3150 N   0  0  0  0  0  2  0  0  0  0  0  0
  187.1210  178.1430  137.6530 C   0  0  0  0  0  1  0  0  0  0  0  0
  188.6250  178.3420  137.6780 C   0  0  1  0  0  3  0  0  0  0  0  0
  188.9120  179.6970  137.5230 O   0  0  0  0  0  1  0  0  0  0  0  0
  185.7870  178.7370  144.9150 C   0  0  2  0  0  3  0  0  0  0  0  0
  185.7780  178.6820  147.4100 C   0  0  0  0  0  1  0  0  0  0  0  0
  184.9260  178.8360  146.1660 C   0  0  0  0  0  2  0  0  0  0  0  0
  185.0050  179.0590  143.7260 N   0  0  0  0  0  0  0  0  0  0  0  0
  184.5660  178.1490  142.9490 N   0  0  0  0  0  0  0  0  0  0  0  0
  183.7990  178.4730  141.7880 C   0  0  0  0  0  0  0  0  0  0  0  0
  182.5820  178.7690  141.9200 O   0  0  0  0  0  0  0  0  0  0  0  0
  183.7770  179.7440  138.6780 N   0  0  0  0  0  0  0  0  0  0  0  0
  181.8600  177.9990  137.5210 S   0  0  0  0  0  0  0  0  0  0  0  0
  181.4070  176.8820  138.9030 C   0  0  0  0  0  2  0  0  0  0  0  0
  183.3060  178.4380  138.4550 C   0  0  2  0  0  3  0  0  0  0  0  0
  182.6740  176.5410  139.6890 C   0  0  0  0  0  2  0  0  0  0  0  0
  183.6120  177.6630  139.4400 C   0  0  2  0  0  3  0  0  0  0  0  0
  184.4290  178.4380  140.4230 C   0  0  1  0  0  3  0  0  0  0  0  0
  184.5400  179.7950  139.8580 N   0  0  0  0  0  0  0  0  0  0  0  0
  2  1  1  0  0  0  0
  2  3  1  0  0  0  0
  4  3  1  0  0  0  0
  5  6  1  0  0  0  0
  5  4  1  0  0  0  0
  7 13  1  6  0  0  0
  7  8  1  0  0  0  0
  7  9  1  0  0  0  0
  8  9  1  0  0  0  0
  9  5  1  1  0  0  0
 10 12  1  0  0  0  0
 11 12  2  0  0  0  0
 12 13  1  0  0  0  0
 15 14  1  1  0  0  0
 15 10  1  0  0  0  0
 16 15  1  0  0  0  0
 17  1  1  6  0  0  0
 17 19  1  0  0  0  0
 19 18  1  0  0  0  0
 20 17  1  0  0  0  0
 21 20  2  0  0  0  0
 22 23  2  0  0  0  0
 22 21  1  0  0  0  0
 24 31  2  0  0  0  0
 25 26  1  0  0  0  0
 26 28  1  0  0  0  0
 27 25  1  1  0  0  0
 27 24  1  0  0  0  0
 27 29  1  0  0  0  0
 29 28  1  1  0  0  0
 29 30  1  0  0  0  0
 30 22  1  1  0  0  0
 31 30  1  0  0  0  0
M  END
>  <MODEL>
2

>  <REMARK>
 VINA RESULT:      -6.9      1.559      1.868
  Name = 
  12 active torsions:
  status: ('A' for Active; 'I' for Inactive)
    1  A    between atoms: C_3  and  N_28
    2  A    between atoms: C_7  and  C_13
    3  A    between atoms: C_7  and  C_29
    4  A    between atoms: N_9  and  C_25
    5  A    between atoms: C_10  and  N_12
    6  A    between atoms: C_10  and  C_26
    7  A    between atoms: C_13  and  C_15
    8  A    between atoms: N_14  and  C_24
    9  A    between atoms: C_15  and  N_16
   10  A    between atoms: N_16  and  C_27
   11  A    between atoms: C_18  and  C_25
   12  A    between atoms: C_25  and  C_29
                            x       y       z     vdW  Elec       q    Type
                         _______ _______ _______ _____ _____    ______ ____

>  <TORSDO>
F 12

$$$$
=
 OpenBabel10222420273D

 31 33  0  0  1  0  0  0  0  0999 V2000
  186.8700  177.5490  146.5690 C   0  0  0  0  0  2  0  0  0  0  0  0
  186.4180  177.8230  145.1380 C   0  0  0  0  0  2  0  0  0  0  0  0
  185.3990  178.9540  145.0930 C   0  0  0  0  0  2  0  0  0  0  0  0
  184.9220  179.2520  143.6620 C   0  0  0  0  0  2  0  0  0  0  0  0
  183.7240  178.5130  143.2280 N   0  0  0  0  0  0  0  0  0  0  0  0
  182.6350  178.8060  144.1490 C   0  0  0  0  0  1  0  0  0  0  0  0
  183.3660  177.6930  140.9590 C   0  0  1  0  0  3  0  0  0  0  0  0
  184.4570  178.7400  140.9110 C   0  0  0  0  0  2  0  0  0  0  0  0
  183.3010  178.8980  141.8810 C   0  0  2  0  0  3  0  0  0  0  0  0
  183.1350  175.8420  138.6780 N   0  0  0  0  0  2  0  0  0  0  0  0
  181.4870  177.2720  137.8400 O   0  0  0  0  0  0  0  0  0  0  0  0
  182.3160  177.0130  138.7530 C   0  0  0  0  0  0  0  0  0  0  0  0
  182.4290  177.9010  139.8670 N   0  0  0  0  0  2  0  0  0  0  0  0
  184.2910  174.0050  137.5740 C   0  0  0  0  0  1  0  0  0  0  0  0
  183.0740  174.9110  137.5600 C   0  0  1  0  0  3  0  0  0  0  0  0
  181.9210  174.1350  137.6680 O   0  0  0  0  0  1  0  0  0  0  0  0
  188.3050  177.0360  146.6210 C   0  0  2  0  0  3  0  0  0  0  0  0
  188.1360  178.0970  148.8740 C   0  0  0  0  0  1  0  0  0  0  0  0
  189.0730  177.7150  147.7460 C   0  0  0  0  0  2  0  0  0  0  0  0
  188.9690  177.2530  145.3400 N   0  0  0  0  0  0  0  0  0  0  0  0
  189.8780  178.1360  145.2020 N   0  0  0  0  0  0  0  0  0  0  0  0
  190.5260  178.3420  143.9450 C   0  0  0  0  0  0  0  0  0  0  0  0
  190.9050  179.5020  143.6320 O   0  0  0  0  0  0  0  0  0  0  0  0
  191.6980  177.3840  140.9450 N   0  0  0  0  0  0  0  0  0  0  0  0
  189.3590  177.8590  139.4070 S   0  0  0  0  0  0  0  0  0  0  0  0
  188.1530  178.4820  140.6390 C   0  0  0  0  0  2  0  0  0  0  0  0
  190.3100  177.2330  140.7700 C   0  0  2  0  0  3  0  0  0  0  0  0
  188.3140  177.6740  141.9280 C   0  0  0  0  0  2  0  0  0  0  0  0
  189.7070  177.1640  141.9080 C   0  0  2  0  0  3  0  0  0  0  0  0
  190.7320  177.1940  142.9960 C   0  0  1  0  0  3  0  0  0  0  0  0
  192.0310  177.3040  142.3080 N   0  0  0  0  0  0  0  0  0  0  0  0
  2  1  1  0  0  0  0
  3  2  1  0  0  0  0
  4  3  1  0  0  0  0
  5  4  1  0  0  0  0
  5  6  1  0  0  0  0
  7 13  1  6  0  0  0
  7  9  1  0  0  0  0
  8  7  1  0  0  0  0
  8  9  1  0  0  0  0
  9  5  1  1  0  0  0
 10 12  1  0  0  0  0
 11 12  2  0  0  0  0
 12 13  1  0  0  0  0
 15 14  1  1  0  0  0
 15 16  1  0  0  0  0
 15 10  1  0  0  0  0
 17  1  1  6  0  0  0
 17 19  1  0  0  0  0
 19 18  1  0  0  0  0
 20 17  1  0  0  0  0
 21 20  2  0  0  0  0
 22 21  1  0  0  0  0
 23 22  2  0  0  0  0
 24 31  2  0  0  0  0
 25 26  1  0  0  0  0
 26 28  1  0  0  0  0
 27 25  1  1  0  0  0
 27 24  1  0  0  0  0
 27 29  1  0  0  0  0
 29 28  1  1  0  0  0
 29 30  1  0  0  0  0
 30 22  1  1  0  0  0
 31 30  1  0  0  0  0
M  END
>  <MODEL>
3

>  <REMARK>
 VINA RESULT:      -6.8      2.963      7.072
  Name = 
  12 active torsions:
  status: ('A' for Active; 'I' for Inactive)
    1  A    between atoms: C_3  and  N_28
    2  A    between atoms: C_7  and  C_13
    3  A    between atoms: C_7  and  C_29
    4  A    between atoms: N_9  and  C_25
    5  A    between atoms: C_10  and  N_12
    6  A    between atoms: C_10  and  C_26
    7  A    between atoms: C_13  and  C_15
    8  A    between atoms: N_14  and  C_24
    9  A    between atoms: C_15  and  N_16
   10  A    between atoms: N_16  and  C_27
   11  A    between atoms: C_18  and  C_25
   12  A    between atoms: C_25  and  C_29
                            x       y       z     vdW  Elec       q    Type
                         _______ _______ _______ _____ _____    ______ ____

>  <TORSDO>
F 12

$$$$
=
 OpenBabel10222420273D

 31 33  0  0  1  0  0  0  0  0999 V2000
  184.5710  178.7780  143.6700 C   0  0  0  0  0  2  0  0  0  0  0  0
  183.0880  179.1120  143.7930 C   0  0  0  0  0  2  0  0  0  0  0  0
  182.3550  178.8380  142.4860 C   0  0  0  0  0  2  0  0  0  0  0  0
  183.2380  178.0960  141.4680 C   0  0  0  0  0  2  0  0  0  0  0  0
  183.0370  178.4780  140.0590 N   0  0  0  0  0  0  0  0  0  0  0  0
  181.8600  179.3300  139.9700 C   0  0  0  0  0  1  0  0  0  0  0  0
  185.2070  178.2430  138.9710 C   0  0  1  0  0  3  0  0  0  0  0  0
  185.4280  178.8890  140.3220 C   0  0  0  0  0  2  0  0  0  0  0  0
  184.1800  179.2170  139.5240 C   0  0  2  0  0  3  0  0  0  0  0  0
  187.8460  177.2890  138.0740 N   0  0  0  0  0  2  0  0  0  0  0  0
  187.8960  179.1390  136.6470 O   0  0  0  0  0  0  0  0  0  0  0  0
  187.2750  178.4800  137.5220 C   0  0  0  0  0  0  0  0  0  0  0  0
  185.9910  178.9300  137.9580 N   0  0  0  0  0  2  0  0  0  0  0  0
  190.1870  177.1590  138.7310 C   0  0  0  0  0  1  0  0  0  0  0  0
  189.1570  176.7910  137.6790 C   0  0  1  0  0  3  0  0  0  0  0  0
  189.1040  175.4040  137.5520 O   0  0  0  0  0  1  0  0  0  0  0  0
  185.1280  178.1960  144.9640 C   0  0  2  0  0  3  0  0  0  0  0  0
  185.9600  178.7260  147.2570 C   0  0  0  0  0  1  0  0  0  0  0  0
  185.3710  179.3000  145.9840 C   0  0  0  0  0  2  0  0  0  0  0  0
  186.3600  177.4590  144.7020 N   0  0  0  0  0  0  0  0  0  0  0  0
  187.0920  177.7220  143.6930 N   0  0  0  0  0  0  0  0  0  0  0  0
  188.2980  176.9960  143.4440 C   0  0  0  0  0  0  0  0  0  0  0  0
  188.2280  175.7780  143.1320 O   0  0  0  0  0  0  0  0  0  0  0  0
  191.6140  176.5670  143.7750 N   0  0  0  0  0  0  0  0  0  0  0  0
  191.7390  176.4090  146.6080 S   0  0  0  0  0  0  0  0  0  0  0  0
  189.9920  176.6090  147.1260 C   0  0  0  0  0  2  0  0  0  0  0  0
  191.2670  177.0880  145.0360 C   0  0  2  0  0  3  0  0  0  0  0  0
  189.3420  177.6780  146.2450 C   0  0  0  0  0  2  0  0  0  0  0  0
  190.1270  177.6900  144.9870 C   0  0  2  0  0  3  0  0  0  0  0  0
  189.6350  177.6710  143.5750 C   0  0  1  0  0  3  0  0  0  0  0  0
  190.6680  176.9510  142.8090 N   0  0  0  0  0  0  0  0  0  0  0  0
  1  2  1  0  0  0  0
  3  2  1  0  0  0  0
  4  3  1  0  0  0  0
  5  4  1  0  0  0  0
  6  5  1  0  0  0  0
  7 13  1  6  0  0  0
  7  9  1  0  0  0  0
  7  8  1  0  0  0  0
  9  5  1  1  0  0  0
  9  8  1  0  0  0  0
 11 12  2  0  0  0  0
 12 13  1  0  0  0  0
 12 10  1  0  0  0  0
 15 10  1  0  0  0  0
 15 14  1  1  0  0  0
 16 15  1  0  0  0  0
 17  1  1  6  0  0  0
 17 19  1  0  0  0  0
 19 18  1  0  0  0  0
 20 17  1  0  0  0  0
 21 20  2  0  0  0  0
 22 21  1  0  0  0  0
 23 22  2  0  0  0  0
 25 26  1  0  0  0  0
 27 24  1  6  0  0  0
 27 25  1  0  0  0  0
 28 26  1  0  0  0  0
 29 27  1  0  0  0  0
 29 28  1  1  0  0  0
 30 22  1  1  0  0  0
 30 29  1  0  0  0  0
 31 30  1  0  0  0  0
 31 24  2  0  0  0  0
M  END
>  <MODEL>
4

>  <REMARK>
 VINA RESULT:      -6.8      3.154      6.978
  Name = 
  12 active torsions:
  status: ('A' for Active; 'I' for Inactive)
    1  A    between atoms: C_3  and  N_28
    2  A    between atoms: C_7  and  C_13
    3  A    between atoms: C_7  and  C_29
    4  A    between atoms: N_9  and  C_25
    5  A    between atoms: C_10  and  N_12
    6  A    between atoms: C_10  and  C_26
    7  A    between atoms: C_13  and  C_15
    8  A    between atoms: N_14  and  C_24
    9  A    between atoms: C_15  and  N_16
   10  A    between atoms: N_16  and  C_27
   11  A    between atoms: C_18  and  C_25
   12  A    between atoms: C_25  and  C_29
                            x       y       z     vdW  Elec       q    Type
                         _______ _______ _______ _____ _____    ______ ____

>  <TORSDO>
F 12

$$$$
=
 OpenBabel10222420273D

 31 33  0  0  1  0  0  0  0  0999 V2000
  188.0050  178.4440  141.8910 C   0  0  0  0  0  2  0  0  0  0  0  0
  186.9250  178.7000  140.8450 C   0  0  0  0  0  2  0  0  0  0  0  0
  185.6010  179.0650  141.5040 C   0  0  0  0  0  2  0  0  0  0  0  0
  185.3150  178.2100  142.7500 C   0  0  0  0  0  2  0  0  0  0  0  0
  185.2390  178.9510  144.0210 N   0  0  0  0  0  0  0  0  0  0  0  0
  183.8810  179.4450  144.1930 C   0  0  0  0  0  1  0  0  0  0  0  0
  187.0180  178.3180  145.5660 C   0  0  1  0  0  3  0  0  0  0  0  0
  186.6250  177.0890  144.7770 C   0  0  0  0  0  2  0  0  0  0  0  0
  185.5670  178.1040  145.1680 C   0  0  2  0  0  3  0  0  0  0  0  0
  189.5050  177.2140  146.6960 N   0  0  0  0  0  2  0  0  0  0  0  0
  188.4020  177.1590  148.7560 O   0  0  0  0  0  0  0  0  0  0  0  0
  188.3620  177.4370  147.5280 C   0  0  0  0  0  0  0  0  0  0  0  0
  187.1620  177.9800  146.9720 N   0  0  0  0  0  2  0  0  0  0  0  0
  191.6540  176.2710  146.0470 C   0  0  0  0  0  1  0  0  0  0  0  0
  190.7470  176.6490  147.2040 C   0  0  1  0  0  3  0  0  0  0  0  0
  191.3910  177.5920  148.0030 O   0  0  0  0  0  1  0  0  0  0  0  0
  188.8920  177.2640  141.5110 C   0  0  2  0  0  3  0  0  0  0  0  0
  190.5260  178.1910  143.1550 C   0  0  0  0  0  1  0  0  0  0  0  0
  189.8530  176.9330  142.6440 C   0  0  0  0  0  2  0  0  0  0  0  0
  189.6250  177.5520  140.2830 N   0  0  0  0  0  0  0  0  0  0  0  0
  189.3280  176.9880  139.1800 N   0  0  0  0  0  0  0  0  0  0  0  0
  190.0500  177.2780  137.9820 C   0  0  0  0  0  0  0  0  0  0  0  0
  191.2400  176.8790  137.8700 O   0  0  0  0  0  0  0  0  0  0  0  0
  187.4490  179.2070  137.0850 N   0  0  0  0  0  0  0  0  0  0  0  0
  185.6650  177.1560  136.2660 S   0  0  0  0  0  0  0  0  0  0  0  0
  186.6240  175.6180  136.5380 C   0  0  0  0  0  2  0  0  0  0  0  0
  187.2050  178.0370  136.3430 C   0  0  2  0  0  3  0  0  0  0  0  0
  188.0720  175.8660  136.1120 C   0  0  0  0  0  2  0  0  0  0  0  0
  188.2790  177.3300  136.2310 C   0  0  2  0  0  3  0  0  0  0  0  0
  189.4070  178.0680  136.8760 C   0  0  1  0  0  3  0  0  0  0  0  0
  188.8170  179.3160  137.3920 N   0  0  0  0  0  0  0  0  0  0  0  0
  2  3  1  0  0  0  0
  2  1  1  0  0  0  0
  3  4  1  0  0  0  0
  4  5  1  0  0  0  0
  5  6  1  0  0  0  0
  7 13  1  1  0  0  0
  8  9  1  0  0  0  0
  8  7  1  0  0  0  0
  9  5  1  6  0  0  0
  9  7  1  0  0  0  0
 10 15  1  0  0  0  0
 10 12  1  0  0  0  0
 12 11  2  0  0  0  0
 13 12  1  0  0  0  0
 15 14  1  6  0  0  0
 15 16  1  0  0  0  0
 17  1  1  1  0  0  0
 17 19  1  0  0  0  0
 19 18  1  0  0  0  0
 20 17  1  0  0  0  0
 21 20  2  0  0  0  0
 22 21  1  0  0  0  0
 23 22  2  0  0  0  0
 24 31  2  0  0  0  0
 25 26  1  0  0  0  0
 27 25  1  1  0  0  0
 27 24  1  0  0  0  0
 28 26  1  0  0  0  0
 29 28  1  1  0  0  0
 29 27  1  0  0  0  0
 29 30  1  0  0  0  0
 30 31  1  0  0  0  0
 30 22  1  1  0  0  0
M  END
>  <MODEL>
5

>  <REMARK>
 VINA RESULT:      -6.6      3.317      6.942
  Name = 
  12 active torsions:
  status: ('A' for Active; 'I' for Inactive)
    1  A    between atoms: C_3  and  N_28
    2  A    between atoms: C_7  and  C_13
    3  A    between atoms: C_7  and  C_29
    4  A    between atoms: N_9  and  C_25
    5  A    between atoms: C_10  and  N_12
    6  A    between atoms: C_10  and  C_26
    7  A    between atoms: C_13  and  C_15
    8  A    between atoms: N_14  and  C_24
    9  A    between atoms: C_15  and  N_16
   10  A    between atoms: N_16  and  C_27
   11  A    between atoms: C_18  and  C_25
   12  A    between atoms: C_25  and  C_29
                            x       y       z     vdW  Elec       q    Type
                         _______ _______ _______ _____ _____    ______ ____

>  <TORSDO>
F 12

$$$$
=
 OpenBabel10222420273D

 31 33  0  0  1  0  0  0  0  0999 V2000
  188.8150  177.3690  142.7220 C   0  0  0  0  0  2  0  0  0  0  0  0
  187.6880  176.7130  143.5130 C   0  0  0  0  0  2  0  0  0  0  0  0
  187.6480  177.2350  144.9430 C   0  0  0  0  0  2  0  0  0  0  0  0
  186.7540  178.4780  145.0850 C   0  0  0  0  0  2  0  0  0  0  0  0
  185.3290  178.2050  145.3450 N   0  0  0  0  0  0  0  0  0  0  0  0
  185.0720  178.3790  146.7670 C   0  0  0  0  0  1  0  0  0  0  0  0
  183.7700  178.3670  143.4750 C   0  0  1  0  0  3  0  0  0  0  0  0
  184.9500  179.2680  143.1800 C   0  0  0  0  0  2  0  0  0  0  0  0
  184.4540  179.1170  144.6060 C   0  0  2  0  0  3  0  0  0  0  0  0
  182.4230  178.1000  140.8690 N   0  0  0  0  0  2  0  0  0  0  0  0
  180.8060  179.5740  141.6890 O   0  0  0  0  0  0  0  0  0  0  0  0
  181.8730  178.9360  141.8920 C   0  0  0  0  0  0  0  0  0  0  0  0
  182.5290  179.0530  143.1560 N   0  0  0  0  0  2  0  0  0  0  0  0
  182.6100  178.7190  138.5210 C   0  0  0  0  0  1  0  0  0  0  0  0
  181.8060  177.9550  139.5570 C   0  0  1  0  0  3  0  0  0  0  0  0
  181.7720  176.6060  139.2100 O   0  0  0  0  0  1  0  0  0  0  0  0
  190.0230  176.4480  142.5890 C   0  0  2  0  0  3  0  0  0  0  0  0
  191.1210  178.4330  143.6310 C   0  0  0  0  0  1  0  0  0  0  0  0
  191.1580  176.9250  143.4850 C   0  0  0  0  0  2  0  0  0  0  0  0
  190.4600  176.3790  141.1990 N   0  0  0  0  0  0  0  0  0  0  0  0
  189.8630  177.0260  140.2790 N   0  0  0  0  0  0  0  0  0  0  0  0
  190.2990  176.9540  138.9200 C   0  0  0  0  0  0  0  0  0  0  0  0
  191.2480  176.1810  138.6190 O   0  0  0  0  0  0  0  0  0  0  0  0
  187.6150  178.7970  138.0890 N   0  0  0  0  0  0  0  0  0  0  0  0
  186.0040  176.7290  137.0000 S   0  0  0  0  0  0  0  0  0  0  0  0
  187.0500  175.2330  137.1700 C   0  0  0  0  0  2  0  0  0  0  0  0
  187.4780  177.6910  137.2300 C   0  0  2  0  0  3  0  0  0  0  0  0
  188.4950  175.6100  136.8360 C   0  0  0  0  0  2  0  0  0  0  0  0
  188.6000  177.0660  137.1020 C   0  0  2  0  0  3  0  0  0  0  0  0
  189.6510  177.8070  137.8640 C   0  0  1  0  0  3  0  0  0  0  0  0
  188.9590  178.9600  138.4680 N   0  0  0  0  0  0  0  0  0  0  0  0
  1  2  1  0  0  0  0
  2  3  1  0  0  0  0
  3  4  1  0  0  0  0
  4  5  1  0  0  0  0
  5  6  1  0  0  0  0
  7 13  1  6  0  0  0
  7  9  1  0  0  0  0
  8  7  1  0  0  0  0
  8  9  1  0  0  0  0
  9  5  1  1  0  0  0
 10 12  1  0  0  0  0
 11 12  2  0  0  0  0
 12 13  1  0  0  0  0
 15 14  1  6  0  0  0
 15 10  1  0  0  0  0
 16 15  1  0  0  0  0
 17  1  1  6  0  0  0
 17 19  1  0  0  0  0
 19 18  1  0  0  0  0
 20 17  1  0  0  0  0
 21 20  2  0  0  0  0
 22 21  1  0  0  0  0
 23 22  2  0  0  0  0
 24 31  2  0  0  0  0
 25 26  1  0  0  0  0
 27 25  1  1  0  0  0
 27 24  1  0  0  0  0
 28 26  1  0  0  0  0
 29 28  1  1  0  0  0
 29 27  1  0  0  0  0
 29 30  1  0  0  0  0
 30 31  1  0  0  0  0
 30 22  1  1  0  0  0
M  END
>  <MODEL>
6

>  <REMARK>
 VINA RESULT:      -6.4      2.273      6.659
  Name = 
  12 active torsions:
  status: ('A' for Active; 'I' for Inactive)
    1  A    between atoms: C_3  and  N_28
    2  A    between atoms: C_7  and  C_13
    3  A    between atoms: C_7  and  C_29
    4  A    between atoms: N_9  and  C_25
    5  A    between atoms: C_10  and  N_12
    6  A    between atoms: C_10  and  C_26
    7  A    between atoms: C_13  and  C_15
    8  A    between atoms: N_14  and  C_24
    9  A    between atoms: C_15  and  N_16
   10  A    between atoms: N_16  and  C_27
   11  A    between atoms: C_18  and  C_25
   12  A    between atoms: C_25  and  C_29
                            x       y       z     vdW  Elec       q    Type
                         _______ _______ _______ _____ _____    ______ ____

>  <TORSDO>
F 12

$$$$
=
 OpenBabel10222420273D

 31 33  0  0  1  0  0  0  0  0999 V2000
  184.3910  178.2810  144.2650 C   0  0  0  0  0  2  0  0  0  0  0  0
  185.4080  179.1570  144.9910 C   0  0  0  0  0  2  0  0  0  0  0  0
  185.8440  178.5170  146.3030 C   0  0  0  0  0  2  0  0  0  0  0  0
  186.8950  177.4150  146.0930 C   0  0  0  0  0  2  0  0  0  0  0  0
  188.1500  177.8510  145.4560 N   0  0  0  0  0  0  0  0  0  0  0  0
  189.1730  177.9840  146.4830 C   0  0  0  0  0  1  0  0  0  0  0  0
  188.7520  177.5700  143.1090 C   0  0  1  0  0  3  0  0  0  0  0  0
  187.5610  176.6830  143.3950 C   0  0  0  0  0  2  0  0  0  0  0  0
  188.6220  176.8880  144.4600 C   0  0  2  0  0  3  0  0  0  0  0  0
  188.9860  177.8560  140.1850 N   0  0  0  0  0  2  0  0  0  0  0  0
  190.7220  176.2940  140.2930 O   0  0  0  0  0  0  0  0  0  0  0  0
  189.8510  176.9700  140.9030 C   0  0  0  0  0  0  0  0  0  0  0  0
  189.7350  176.8440  142.3220 N   0  0  0  0  0  2  0  0  0  0  0  0
  187.9000  177.2630  138.0880 C   0  0  0  0  0  1  0  0  0  0  0  0
  189.0480  178.0130  138.7390 C   0  0  1  0  0  3  0  0  0  0  0  0
  188.9540  179.3660  138.4170 O   0  0  0  0  0  1  0  0  0  0  0  0
  183.5770  179.0800  143.2540 C   0  0  2  0  0  3  0  0  0  0  0  0
  181.2490  178.9790  142.3590 C   0  0  0  0  0  1  0  0  0  0  0  0
  182.0980  179.0430  143.6130 C   0  0  0  0  0  2  0  0  0  0  0  0
  183.7920  178.5640  141.9060 N   0  0  0  0  0  0  0  0  0  0  0  0
  184.0630  179.3380  140.9310 N   0  0  0  0  0  0  0  0  0  0  0  0
  184.2740  178.8250  139.6140 C   0  0  0  0  0  0  0  0  0  0  0  0
  185.2310  179.2720  138.9280 O   0  0  0  0  0  0  0  0  0  0  0  0
  183.2370  177.2400  136.8390 N   0  0  0  0  0  0  0  0  0  0  0  0
  181.2010  179.0560  136.0510 S   0  0  0  0  0  0  0  0  0  0  0  0
  181.2510  180.3470  137.3510 C   0  0  0  0  0  2  0  0  0  0  0  0
  182.1060  178.0110  137.1660 C   0  0  2  0  0  3  0  0  0  0  0  0
  181.4690  179.6680  138.7040 C   0  0  0  0  0  2  0  0  0  0  0  0
  182.1440  178.3820  138.4010 C   0  0  2  0  0  3  0  0  0  0  0  0
  183.3520  177.7820  139.0450 C   0  0  1  0  0  3  0  0  0  0  0  0
  184.0210  177.0100  137.9830 N   0  0  0  0  0  0  0  0  0  0  0  0
  1  2  1  0  0  0  0
  2  3  1  0  0  0  0
  4  3  1  0  0  0  0
  5  4  1  0  0  0  0
  5  6  1  0  0  0  0
  7 13  1  6  0  0  0
  7  8  1  0  0  0  0
  7  9  1  0  0  0  0
  8  9  1  0  0  0  0
  9  5  1  1  0  0  0
 10 12  1  0  0  0  0
 11 12  2  0  0  0  0
 12 13  1  0  0  0  0
 15 14  1  6  0  0  0
 15 10  1  0  0  0  0
 16 15  1  0  0  0  0
 17 19  1  1  0  0  0
 17  1  1  0  0  0  0
 18 19  1  0  0  0  0
 20 17  1  0  0  0  0
 21 20  2  0  0  0  0
 22 21  1  0  0  0  0
 23 22  2  0  0  0  0
 24 27  1  0  0  0  0
 24 31  2  0  0  0  0
 25 26  1  0  0  0  0
 26 28  1  0  0  0  0
 27 25  1  6  0  0  0
 27 29  1  0  0  0  0
 29 28  1  6  0  0  0
 29 30  1  0  0  0  0
 30 22  1  6  0  0  0
 31 30  1  0  0  0  0
M  END
>  <MODEL>
7

>  <REMARK>
 VINA RESULT:      -6.3      1.625      2.092
  Name = 
  12 active torsions:
  status: ('A' for Active; 'I' for Inactive)
    1  A    between atoms: C_3  and  N_28
    2  A    between atoms: C_7  and  C_13
    3  A    between atoms: C_7  and  C_29
    4  A    between atoms: N_9  and  C_25
    5  A    between atoms: C_10  and  N_12
    6  A    between atoms: C_10  and  C_26
    7  A    between atoms: C_13  and  C_15
    8  A    between atoms: N_14  and  C_24
    9  A    between atoms: C_15  and  N_16
   10  A    between atoms: N_16  and  C_27
   11  A    between atoms: C_18  and  C_25
   12  A    between atoms: C_25  and  C_29
                            x       y       z     vdW  Elec       q    Type
                         _______ _______ _______ _____ _____    ______ ____

>  <TORSDO>
F 12

$$$$
=
 OpenBabel10222420273D

 31 33  0  0  1  0  0  0  0  0999 V2000
  184.2050  177.9080  139.5570 C   0  0  0  0  0  2  0  0  0  0  0  0
  183.7200  177.6830  138.1280 C   0  0  0  0  0  2  0  0  0  0  0  0
  184.8190  177.0740  137.2660 C   0  0  0  0  0  2  0  0  0  0  0  0
  186.1980  177.6840  137.5650 C   0  0  0  0  0  2  0  0  0  0  0  0
  187.3120  176.7220  137.6460 N   0  0  0  0  0  0  0  0  0  0  0  0
  187.3530  175.9520  136.4110 C   0  0  0  0  0  1  0  0  0  0  0  0
  189.1570  177.0990  139.1960 C   0  0  1  0  0  3  0  0  0  0  0  0
  188.5070  178.4350  138.9100 C   0  0  0  0  0  2  0  0  0  0  0  0
  188.6020  177.3920  137.8120 C   0  0  2  0  0  3  0  0  0  0  0  0
  190.8400  177.1460  141.6140 N   0  0  0  0  0  2  0  0  0  0  0  0
  192.6740  177.3910  140.1850 O   0  0  0  0  0  0  0  0  0  0  0  0
  191.4270  177.2620  140.3130 C   0  0  0  0  0  0  0  0  0  0  0  0
  190.6030  177.2300  139.1460 N   0  0  0  0  0  2  0  0  0  0  0  0
  191.3340  178.4680  143.5980 C   0  0  0  0  0  1  0  0  0  0  0  0
  191.6280  177.1880  142.8380 C   0  0  1  0  0  3  0  0  0  0  0  0
  191.3000  176.0930  143.6350 O   0  0  0  0  0  1  0  0  0  0  0  0
  183.1070  177.6330  140.5770 C   0  0  2  0  0  3  0  0  0  0  0  0
  180.8490  178.5350  141.1410 C   0  0  0  0  0  1  0  0  0  0  0  0
  181.7500  178.0480  140.0250 C   0  0  0  0  0  2  0  0  0  0  0  0
  183.3870  178.3310  141.8270 N   0  0  0  0  0  0  0  0  0  0  0  0
  184.4750  178.1450  142.4650 N   0  0  0  0  0  0  0  0  0  0  0  0
  184.7430  178.8340  143.6880 C   0  0  0  0  0  0  0  0  0  0  0  0
  185.0310  180.0600  143.6520 O   0  0  0  0  0  0  0  0  0  0  0  0
  185.4690  178.9540  146.9670 N   0  0  0  0  0  0  0  0  0  0  0  0
  188.1420  178.0060  146.8420 S   0  0  0  0  0  0  0  0  0  0  0  0
  188.4070  177.7010  145.0540 C   0  0  0  0  0  2  0  0  0  0  0  0
  186.3990  178.0050  146.5040 C   0  0  2  0  0  3  0  0  0  0  0  0
  187.1350  177.0830  144.4720 C   0  0  0  0  0  2  0  0  0  0  0  0
  186.0340  177.5200  145.3650 C   0  0  2  0  0  3  0  0  0  0  0  0
  184.7050  178.1010  145.0010 C   0  0  1  0  0  3  0  0  0  0  0  0
  184.3590  179.0130  146.1050 N   0  0  0  0  0  0  0  0  0  0  0  0
  2  1  1  0  0  0  0
  3  4  1  0  0  0  0
  3  2  1  0  0  0  0
  4  5  1  0  0  0  0
  6  5  1  0  0  0  0
  7 13  1  6  0  0  0
  8  7  1  0  0  0  0
  9  5  1  1  0  0  0
  9  8  1  0  0  0  0
  9  7  1  0  0  0  0
 10 15  1  0  0  0  0
 11 12  2  0  0  0  0
 12 10  1  0  0  0  0
 13 12  1  0  0  0  0
 15 14  1  1  0  0  0
 15 16  1  0  0  0  0
 17  1  1  6  0  0  0
 17 20  1  0  0  0  0
 19 17  1  0  0  0  0
 19 18  1  0  0  0  0
 20 21  2  0  0  0  0
 21 22  1  0  0  0  0
 23 22  2  0  0  0  0
 26 25  1  0  0  0  0
 27 25  1  6  0  0  0
 27 24  1  0  0  0  0
 28 26  1  0  0  0  0
 29 28  1  6  0  0  0
 29 27  1  0  0  0  0
 30 22  1  6  0  0  0
 30 29  1  0  0  0  0
 30 31  1  0  0  0  0
 31 24  2  0  0  0  0
M  END
>  <MODEL>
8

>  <REMARK>
 VINA RESULT:      -6.3      2.904      6.389
  Name = 
  12 active torsions:
  status: ('A' for Active; 'I' for Inactive)
    1  A    between atoms: C_3  and  N_28
    2  A    between atoms: C_7  and  C_13
    3  A    between atoms: C_7  and  C_29
    4  A    between atoms: N_9  and  C_25
    5  A    between atoms: C_10  and  N_12
    6  A    between atoms: C_10  and  C_26
    7  A    between atoms: C_13  and  C_15
    8  A    between atoms: N_14  and  C_24
    9  A    between atoms: C_15  and  N_16
   10  A    between atoms: N_16  and  C_27
   11  A    between atoms: C_18  and  C_25
   12  A    between atoms: C_25  and  C_29
                            x       y       z     vdW  Elec       q    Type
                         _______ _______ _______ _____ _____    ______ ____

>  <TORSDO>
F 12

$$$$
=
 OpenBabel10222420273D

 31 33  0  0  1  0  0  0  0  0999 V2000
  190.1680  176.8880  141.7580 C   0  0  0  0  0  2  0  0  0  0  0  0
  191.5550  177.0420  142.3740 C   0  0  0  0  0  2  0  0  0  0  0  0
  191.6790  176.2260  143.6540 C   0  0  0  0  0  2  0  0  0  0  0  0
  191.5910  177.1020  144.9150 C   0  0  0  0  0  2  0  0  0  0  0  0
  190.6040  176.6680  145.9190 N   0  0  0  0  0  0  0  0  0  0  0  0
  191.3130  176.2390  147.1150 C   0  0  0  0  0  1  0  0  0  0  0  0
  188.2570  177.3230  146.0270 C   0  0  1  0  0  3  0  0  0  0  0  0
  188.9570  178.2530  145.0610 C   0  0  0  0  0  2  0  0  0  0  0  0
  189.6900  177.7500  146.2900 C   0  0  2  0  0  3  0  0  0  0  0  0
  185.7680  178.5960  145.0930 N   0  0  0  0  0  2  0  0  0  0  0  0
  185.4840  179.3660  147.2810 O   0  0  0  0  0  0  0  0  0  0  0  0
  186.1790  178.7120  146.4590 C   0  0  0  0  0  0  0  0  0  0  0  0
  187.3830  178.0840  146.9040 N   0  0  0  0  0  2  0  0  0  0  0  0
  184.2080  178.6420  143.2240 C   0  0  0  0  0  1  0  0  0  0  0  0
  184.5610  179.2270  144.5800 C   0  0  1  0  0  3  0  0  0  0  0  0
  183.5090  179.0000  145.4660 O   0  0  0  0  0  1  0  0  0  0  0  0
  190.0270  177.6950  140.4720 C   0  0  2  0  0  3  0  0  0  0  0  0
  187.7840  178.3210  141.3700 C   0  0  0  0  0  1  0  0  0  0  0  0
  188.5580  177.9080  140.1350 C   0  0  0  0  0  2  0  0  0  0  0  0
  190.7140  177.0250  139.3740 N   0  0  0  0  0  0  0  0  0  0  0  0
  190.2060  176.0150  138.7850 N   0  0  0  0  0  0  0  0  0  0  0  0
  190.8850  175.3660  137.7090 C   0  0  0  0  0  0  0  0  0  0  0  0
  190.8050  174.1130  137.5990 O   0  0  0  0  0  0  0  0  0  0  0  0
  192.5650  175.3260  134.7990 N   0  0  0  0  0  0  0  0  0  0  0  0
  195.0900  174.4760  135.7800 S   0  0  0  0  0  0  0  0  0  0  0  0
  194.8110  174.2960  137.5830 C   0  0  0  0  0  2  0  0  0  0  0  0
  193.6110  175.4590  135.7300 C   0  0  2  0  0  3  0  0  0  0  0  0
  193.9300  175.4530  138.0580 C   0  0  0  0  0  2  0  0  0  0  0  0
  193.1680  175.8910  136.8620 C   0  0  2  0  0  3  0  0  0  0  0  0
  191.7040  176.1630  136.7310 C   0  0  1  0  0  3  0  0  0  0  0  0
  191.3610  175.8090  135.3430 N   0  0  0  0  0  0  0  0  0  0  0  0
  1  2  1  0  0  0  0
  2  3  1  0  0  0  0
  3  4  1  0  0  0  0
  4  5  1  0  0  0  0
  5  6  1  0  0  0  0
  7  9  1  0  0  0  0
  7 13  1  1  0  0  0
  8  7  1  0  0  0  0
  8  9  1  0  0  0  0
  9  5  1  6  0  0  0
 10 12  1  0  0  0  0
 12 13  1  0  0  0  0
 12 11  2  0  0  0  0
 15 14  1  6  0  0  0
 15 10  1  0  0  0  0
 15 16  1  0  0  0  0
 17 19  1  6  0  0  0
 17  1  1  0  0  0  0
 19 18  1  0  0  0  0
 20 17  1  0  0  0  0
 21 20  2  0  0  0  0
 22 21  1  0  0  0  0
 23 22  2  0  0  0  0
 24 31  2  0  0  0  0
 25 26  1  0  0  0  0
 26 28  1  0  0  0  0
 27 24  1  1  0  0  0
 27 25  1  0  0  0  0
 27 29  1  0  0  0  0
 29 28  1  1  0  0  0
 30 29  1  0  0  0  0
 30 22  1  1  0  0  0
 31 30  1  0  0  0  0
M  END
>  <MODEL>
9

>  <REMARK>
 VINA RESULT:      -6.3      4.408      8.396
  Name = 
  12 active torsions:
  status: ('A' for Active; 'I' for Inactive)
    1  A    between atoms: C_3  and  N_28
    2  A    between atoms: C_7  and  C_13
    3  A    between atoms: C_7  and  C_29
    4  A    between atoms: N_9  and  C_25
    5  A    between atoms: C_10  and  N_12
    6  A    between atoms: C_10  and  C_26
    7  A    between atoms: C_13  and  C_15
    8  A    between atoms: N_14  and  C_24
    9  A    between atoms: C_15  and  N_16
   10  A    between atoms: N_16  and  C_27
   11  A    between atoms: C_18  and  C_25
   12  A    between atoms: C_25  and  C_29
                            x       y       z     vdW  Elec       q    Type
                         _______ _______ _______ _____ _____    ______ ____

>  <TORSDO>
F 12

$$$$
