=
 OpenBabel10222415263D

 47 51  0  0  1  0  0  0  0  0999 V2000
  189.0620  178.1730  148.0880 C   0  0  0  0  0  3  0  0  0  0  0  0
  187.7450  177.0150  143.6160 C   0  0  1  0  0  3  0  0  0  0  0  0
  186.0810  178.2070  142.1670 C   0  0  0  0  0  0  0  0  0  0  0  0
  185.0450  178.4450  143.2550 C   0  0  2  0  0  3  0  0  0  0  0  0
  183.8200  179.2820  142.8290 C   0  0  2  0  0  3  0  0  0  0  0  0
  186.8630  178.1750  146.3440 C   0  0  0  0  0  0  0  0  0  0  0  0
  181.6860  178.1080  142.0280 C   0  0  2  0  0  3  0  0  0  0  0  0
  183.0720  177.7950  139.5710 O   0  0  0  0  0  0  0  0  0  0  0  0
  181.2710  178.3410  143.4800 C   0  0  0  0  0  2  0  0  0  0  0  0
  183.6060  178.5390  140.4420 C   0  0  0  0  0  0  0  0  0  0  0  0
  182.9930  179.5700  143.9390 O   0  0  0  0  0  0  0  0  0  0  0  0
  184.8840  179.2640  140.1390 C   0  0  1  0  0  3  0  0  0  0  0  0
  188.4870  178.1140  144.3580 C   0  0  0  0  0  2  0  0  0  0  0  0
  187.2400  177.5370  142.3490 N   0  0  0  0  0  0  0  0  0  0  0  0
  186.6720  178.2260  147.7300 C   0  0  0  0  0  3  0  0  0  0  0  0
  187.9190  177.4940  141.2120 N   0  0  0  0  0  0  0  0  0  0  0  0
  183.0380  178.6350  141.7590 N   0  0  0  0  0  0  0  0  0  0  0  0
  182.4120  178.4300  144.2860 O   0  0  0  0  0  0  0  0  0  0  0  0
  187.1930  178.1040  140.2540 C   0  0  0  0  0  3  0  0  0  0  0  0
  187.7650  178.2300  148.5990 C   0  0  0  0  0  3  0  0  0  0  0  0
  185.6770  179.0690  144.4110 N   0  0  0  0  0  2  0  0  0  0  0  0
  185.6380  178.0890  145.4840 C   0  0  0  0  0  2  0  0  0  0  0  0
  188.1820  178.1000  145.8260 C   0  0  0  0  0  0  0  0  0  0  0  0
  189.2670  178.1120  146.7090 C   0  0  0  0  0  3  0  0  0  0  0  0
  186.0160  178.5600  140.8270 C   0  0  0  0  0  0  0  0  0  0  0  0
  180.6740  178.7460  141.1300 C   0  0  0  0  0  0  0  0  0  0  0  0
  180.8120  180.1220  140.7630 N   0  0  0  0  0  2  0  0  0  0  0  0
  179.6960  178.0690  140.7170 O   0  0  0  0  0  0  0  0  0  0  0  0
  179.9550  180.7680  139.7770 C   0  0  2  0  0  3  0  0  0  0  0  0
  182.1620  181.4040  139.0210 O   0  0  0  0  0  1  0  0  0  0  0  0
  180.7970  181.5580  138.7640 C   0  0  1  0  0  3  0  0  0  0  0  0
  180.4700  181.1780  137.3120 C   0  0  2  0  0  3  0  0  0  0  0  0
  179.8510  183.3880  136.5550 O   0  0  0  0  0  1  0  0  0  0  0  0
  179.4030  182.0710  136.6750 C   0  0  0  0  0  2  0  0  0  0  0  0
  180.1080  179.7010  137.1770 C   0  0  0  0  0  2  0  0  0  0  0  0
  180.9960  177.3980  136.8030 C   0  0  0  0  0  1  0  0  0  0  0  0
  181.2930  178.8810  136.6930 C   0  0  0  0  0  2  0  0  0  0  0  0
  178.9550  181.6720  140.4920 C   0  0  0  0  0  2  0  0  0  0  0  0
  179.0610  181.5280  141.8780 O   0  0  0  0  0  1  0  0  0  0  0  0
  185.2660  178.1110  137.9530 C   0  0  0  0  0  1  0  0  0  0  0  0
  185.1240  179.4560  138.6420 C   0  0  0  0  0  2  0  0  0  0  0  0
  188.6230  175.8770  143.3960 N   0  0  0  0  0  2  0  0  0  0  0  0
  189.9080  176.4150  142.9880 C   0  0  0  0  0  2  0  0  0  0  0  0
  191.0180  175.6300  143.6580 C   0  0  0  0  0  2  0  0  0  0  0  0
  191.6850  176.4780  144.6820 C   0  0  0  0  0  0  0  0  0  0  0  0
  191.9220  177.6900  144.4370 O   0  0  0  0  0  0  0  0  0  0  0  0
  192.0190  175.9430  145.9200 O   0  0  0  0  0  1  0  0  0  0  0  0
  1 20  1  0  0  0  0
  2 42  1  6  0  0  0
  2 13  1  0  0  0  0
  3 14  1  0  0  0  0
  4  3  1  6  0  0  0
  4 21  1  0  0  0  0
  5  4  1  0  0  0  0
  5 11  1  1  0  0  0
  6 15  1  0  0  0  0
  7 26  1  6  0  0  0
  7  9  1  0  0  0  0
  8 10  2  0  0  0  0
  9 18  1  0  0  0  0
 10 17  1  0  0  0  0
 11 18  1  0  0  0  0
 12 41  1  6  0  0  0
 12 10  1  0  0  0  0
 12 25  1  0  0  0  0
 13 23  1  0  0  0  0
 14  2  1  0  0  0  0
 15 20  2  0  0  0  0
 16 14  1  0  0  0  0
 17  7  1  0  0  0  0
 17  5  1  0  0  0  0
 19 25  1  0  0  0  0
 19 16  2  0  0  0  0
 21 22  1  0  0  0  0
 22  6  1  0  0  0  0
 23  6  2  0  0  0  0
 23 24  1  0  0  0  0
 24  1  2  0  0  0  0
 25  3  2  0  0  0  0
 27 26  1  0  0  0  0
 28 26  2  0  0  0  0
 29 38  1  1  0  0  0
 29 27  1  0  0  0  0
 31 30  1  1  0  0  0
 31 29  1  0  0  0  0
 32 34  1  1  0  0  0
 32 31  1  0  0  0  0
 33 34  1  0  0  0  0
 35 32  1  0  0  0  0
 37 36  1  0  0  0  0
 37 35  1  0  0  0  0
 38 39  1  0  0  0  0
 40 41  1  0  0  0  0
 43 42  1  0  0  0  0
 43 44  1  0  0  0  0
 44 45  1  0  0  0  0
 45 47  1  0  0  0  0
 46 45  2  0  0  0  0
M  END
>  <MODEL>
1

>  <REMARK>
 VINA RESULT:      -6.9      0.000      0.000
  Name = 
  13 active torsions:
  status: ('A' for Active; 'I' for Inactive)
    1  A    between atoms: C_2  and  N_17
    2  A    between atoms: C_6  and  C_39
    3  A    between atoms: CA_12  and  C_31
    4  A    between atoms: CA_12  and  N_34
    5  A    between atoms: CA_12  and  C_35
    6  A    between atoms: C_14  and  C_22
    7  A    between atoms: C_15  and  C_29
    8  A    between atoms: C_16  and  C_27
    9  A    between atoms: N_17  and  C_26
   10  A    between atoms: C_23  and  C_40
   11  A    between atoms: C_26  and  C_39
   12  A    between atoms: C_27  and  C_31
   13  A    between atoms: C_27  and  C_40
                            x       y       z     vdW  Elec       q    Type
                         _______ _______ _______ _____ _____    ______ ____

>  <TORSDO>
F 13

$$$$
=
 OpenBabel10222415263D

 47 51  0  0  1  0  0  0  0  0999 V2000
  188.5800  178.0830  147.6570 C   0  0  0  0  0  3  0  0  0  0  0  0
  188.9320  176.6220  143.0950 C   0  0  1  0  0  3  0  0  0  0  0  0
  187.9300  177.7120  141.0710 C   0  0  0  0  0  0  0  0  0  0  0  0
  186.5780  178.0230  141.6940 C   0  0  2  0  0  3  0  0  0  0  0  0
  185.6090  178.8290  140.8020 C   0  0  2  0  0  3  0  0  0  0  0  0
  187.1560  177.9650  145.2410 C   0  0  0  0  0  0  0  0  0  0  0  0
  183.8790  177.6010  139.3620 C   0  0  2  0  0  3  0  0  0  0  0  0
  186.0470  177.1230  137.5960 O   0  0  0  0  0  0  0  0  0  0  0  0
  182.9740  177.9320  140.5490 C   0  0  0  0  0  2  0  0  0  0  0  0
  186.2500  177.9240  138.5510 C   0  0  0  0  0  0  0  0  0  0  0  0
  184.4450  179.1910  141.5190 O   0  0  0  0  0  0  0  0  0  0  0  0
  187.5690  178.6270  138.6840 C   0  0  1  0  0  3  0  0  0  0  0  0
  189.3840  177.7700  143.9830 C   0  0  0  0  0  2  0  0  0  0  0  0
  188.9300  177.0560  141.7000 N   0  0  0  0  0  0  0  0  0  0  0  0
  186.4810  178.1100  146.4580 C   0  0  0  0  0  3  0  0  0  0  0  0
  189.9700  176.9370  140.8900 N   0  0  0  0  0  0  0  0  0  0  0  0
  185.2480  178.1090  139.5660 N   0  0  0  0  0  0  0  0  0  0  0  0
  183.7510  178.0770  141.7050 O   0  0  0  0  0  0  0  0  0  0  0  0
  189.6530  177.4800  139.6970 C   0  0  0  0  0  3  0  0  0  0  0  0
  187.1880  178.1740  147.6610 C   0  0  0  0  0  3  0  0  0  0  0  0
  186.7670  178.7250  142.9570 N   0  0  0  0  0  2  0  0  0  0  0  0
  186.3210  177.8190  144.0050 C   0  0  0  0  0  2  0  0  0  0  0  0
  188.5700  177.8560  145.2390 C   0  0  0  0  0  0  0  0  0  0  0  0
  189.2660  177.9290  146.4520 C   0  0  0  0  0  3  0  0  0  0  0  0
  188.3600  177.9730  139.7780 C   0  0  0  0  0  0  0  0  0  0  0  0
  183.2730  178.1760  138.1210 C   0  0  0  0  0  0  0  0  0  0  0  0
  182.5920  177.3230  137.1970 N   0  0  0  0  0  2  0  0  0  0  0  0
  183.3830  179.4090  137.8910 O   0  0  0  0  0  0  0  0  0  0  0  0
  181.8500  177.8300  136.0490 C   0  0  2  0  0  3  0  0  0  0  0  0
  180.0370  177.6530  137.6390 O   0  0  0  0  0  1  0  0  0  0  0  0
  180.4540  178.3060  136.4770 C   0  0  1  0  0  3  0  0  0  0  0  0
  180.3880  179.8310  136.6560 C   0  0  2  0  0  3  0  0  0  0  0  0
  180.6060  181.2110  138.6280 O   0  0  0  0  0  1  0  0  0  0  0  0
  179.7990  180.2600  138.0010 C   0  0  0  0  0  2  0  0  0  0  0  0
  179.6690  180.5110  135.4940 C   0  0  0  0  0  2  0  0  0  0  0  0
  180.6700  182.7580  135.0690 C   0  0  0  0  0  1  0  0  0  0  0  0
  180.6350  181.3070  134.6320 C   0  0  0  0  0  2  0  0  0  0  0  0
  181.7630  176.7400  134.9840 C   0  0  0  0  0  2  0  0  0  0  0  0
  181.5450  175.4910  135.5700 O   0  0  0  0  0  1  0  0  0  0  0  0
  187.5550  179.5410  136.3570 C   0  0  0  0  0  1  0  0  0  0  0  0
  188.3350  178.7180  137.3650 C   0  0  0  0  0  2  0  0  0  0  0  0
  189.8030  175.4730  143.2780 N   0  0  0  0  0  2  0  0  0  0  0  0
  191.1370  175.9940  143.5150 C   0  0  0  0  0  2  0  0  0  0  0  0
  191.8450  175.1240  144.5340 C   0  0  0  0  0  2  0  0  0  0  0  0
  192.0400  175.8860  145.7960 C   0  0  0  0  0  0  0  0  0  0  0  0
  192.2300  175.2720  146.8790 O   0  0  0  0  0  1  0  0  0  0  0  0
  192.0440  177.2760  145.7780 O   0  0  0  0  0  0  0  0  0  0  0  0
  1 20  1  0  0  0  0
  2 42  1  6  0  0  0
  2 13  1  0  0  0  0
  3 14  1  0  0  0  0
  4  3  1  6  0  0  0
  4 21  1  0  0  0  0
  5 11  1  1  0  0  0
  5  4  1  0  0  0  0
  6 15  1  0  0  0  0
  7 26  1  6  0  0  0
  7 17  1  0  0  0  0
  7  9  1  0  0  0  0
  8 10  2  0  0  0  0
  9 18  1  0  0  0  0
 10 12  1  0  0  0  0
 10 17  1  0  0  0  0
 11 18  1  0  0  0  0
 12 41  1  6  0  0  0
 12 25  1  0  0  0  0
 13 23  1  0  0  0  0
 14  2  1  0  0  0  0
 15 20  2  0  0  0  0
 16 14  1  0  0  0  0
 17  5  1  0  0  0  0
 19 25  1  0  0  0  0
 19 16  2  0  0  0  0
 21 22  1  0  0  0  0
 22  6  1  0  0  0  0
 23  6  2  0  0  0  0
 23 24  1  0  0  0  0
 24  1  2  0  0  0  0
 25  3  2  0  0  0  0
 27 26  1  0  0  0  0
 28 26  2  0  0  0  0
 29 38  1  6  0  0  0
 29 31  1  0  0  0  0
 29 27  1  0  0  0  0
 31 32  1  0  0  0  0
 31 30  1  1  0  0  0
 32 35  1  6  0  0  0
 32 34  1  0  0  0  0
 34 33  1  0  0  0  0
 37 36  1  0  0  0  0
 37 35  1  0  0  0  0
 38 39  1  0  0  0  0
 40 41  1  0  0  0  0
 42 43  1  0  0  0  0
 43 44  1  0  0  0  0
 44 45  1  0  0  0  0
 45 46  1  0  0  0  0
 47 45  2  0  0  0  0
M  END
>  <MODEL>
2

>  <REMARK>
 VINA RESULT:      -6.9      2.003      3.309
  Name = 
  13 active torsions:
  status: ('A' for Active; 'I' for Inactive)
    1  A    between atoms: C_2  and  N_17
    2  A    between atoms: C_6  and  C_39
    3  A    between atoms: CA_12  and  C_31
    4  A    between atoms: CA_12  and  N_34
    5  A    between atoms: CA_12  and  C_35
    6  A    between atoms: C_14  and  C_22
    7  A    between atoms: C_15  and  C_29
    8  A    between atoms: C_16  and  C_27
    9  A    between atoms: N_17  and  C_26
   10  A    between atoms: C_23  and  C_40
   11  A    between atoms: C_26  and  C_39
   12  A    between atoms: C_27  and  C_31
   13  A    between atoms: C_27  and  C_40
                            x       y       z     vdW  Elec       q    Type
                         _______ _______ _______ _____ _____    ______ ____

>  <TORSDO>
F 13

$$$$
=
 OpenBabel10222415263D

 47 51  0  0  1  0  0  0  0  0999 V2000
  188.4830  178.1420  147.5840 C   0  0  0  0  0  3  0  0  0  0  0  0
  188.7040  176.6490  143.0240 C   0  0  1  0  0  3  0  0  0  0  0  0
  187.6420  177.7230  141.0220 C   0  0  0  0  0  0  0  0  0  0  0  0
  186.3080  178.0370  141.6820 C   0  0  2  0  0  3  0  0  0  0  0  0
  185.3130  178.8360  140.8140 C   0  0  2  0  0  3  0  0  0  0  0  0
  186.9900  178.0050  145.2120 C   0  0  0  0  0  0  0  0  0  0  0  0
  183.5420  177.5960  139.4340 C   0  0  2  0  0  3  0  0  0  0  0  0
  185.6590  177.1070  137.6080 O   0  0  0  0  0  0  0  0  0  0  0  0
  182.6730  177.9350  140.6440 C   0  0  0  0  0  2  0  0  0  0  0  0
  185.8890  177.9150  138.5510 C   0  0  0  0  0  0  0  0  0  0  0  0
  184.1700  179.2020  141.5610 O   0  0  0  0  0  0  0  0  0  0  0  0
  187.2100  178.6200  138.6410 C   0  0  1  0  0  3  0  0  0  0  0  0
  189.1800  177.8020  143.8900 C   0  0  0  0  0  2  0  0  0  0  0  0
  188.6600  177.0720  141.6270 N   0  0  0  0  0  0  0  0  0  0  0  0
  186.3500  178.1590  146.4470 C   0  0  0  0  0  3  0  0  0  0  0  0
  189.6770  176.9480  140.7870 N   0  0  0  0  0  0  0  0  0  0  0  0
  184.9170  178.1070  139.5930 N   0  0  0  0  0  0  0  0  0  0  0  0
  183.4820  178.0890  141.7760 O   0  0  0  0  0  0  0  0  0  0  0  0
  189.3240  177.4820  139.6000 C   0  0  0  0  0  3  0  0  0  0  0  0
  187.0920  178.2320  147.6280 C   0  0  0  0  0  3  0  0  0  0  0  0
  186.5340  178.7480  142.9350 N   0  0  0  0  0  2  0  0  0  0  0  0
  186.1190  177.8500  144.0010 C   0  0  0  0  0  2  0  0  0  0  0  0
  188.4040  177.8970  145.1690 C   0  0  0  0  0  0  0  0  0  0  0  0
  189.1340  177.9790  146.3600 C   0  0  0  0  0  3  0  0  0  0  0  0
  188.0330  177.9750  139.7150 C   0  0  0  0  0  0  0  0  0  0  0  0
  182.9000  178.1620  138.2070 C   0  0  0  0  0  0  0  0  0  0  0  0
  182.4990  177.2920  137.1440 N   0  0  0  0  0  2  0  0  0  0  0  0
  182.7320  179.4060  138.1120 O   0  0  0  0  0  0  0  0  0  0  0  0
  181.7350  177.7500  135.9910 C   0  0  2  0  0  3  0  0  0  0  0  0
  180.1870  176.5150  134.6030 O   0  0  0  0  0  1  0  0  0  0  0  0
  180.3980  177.0000  135.8970 C   0  0  1  0  0  3  0  0  0  0  0  0
  180.2930  175.8650  136.9280 C   0  0  2  0  0  3  0  0  0  0  0  0
  181.5770  174.0050  136.0700 O   0  0  0  0  0  1  0  0  0  0  0  0
  180.2800  174.4710  136.2970 C   0  0  0  0  0  2  0  0  0  0  0  0
  179.1070  176.0580  137.8690 C   0  0  0  0  0  2  0  0  0  0  0  0
  180.1030  175.1490  139.9700 C   0  0  0  0  0  1  0  0  0  0  0  0
  179.5660  176.3880  139.2800 C   0  0  0  0  0  2  0  0  0  0  0  0
  182.5680  177.5610  134.7260 C   0  0  0  0  0  2  0  0  0  0  0  0
  183.5820  176.6230  134.9370 O   0  0  0  0  0  1  0  0  0  0  0  0
  188.9280  179.8520  137.3050 C   0  0  0  0  0  1  0  0  0  0  0  0
  187.9380  178.7020  137.2990 C   0  0  0  0  0  2  0  0  0  0  0  0
  189.5810  175.5010  143.1900 N   0  0  0  0  0  2  0  0  0  0  0  0
  190.9320  176.0200  143.2970 C   0  0  0  0  0  2  0  0  0  0  0  0
  191.7140  175.1900  144.2950 C   0  0  0  0  0  2  0  0  0  0  0  0
  191.9500  175.9810  145.5320 C   0  0  0  0  0  0  0  0  0  0  0  0
  192.0110  177.2370  145.4730 O   0  0  0  0  0  0  0  0  0  0  0  0
  192.0720  175.3380  146.7580 O   0  0  0  0  0  1  0  0  0  0  0  0
  1 20  1  0  0  0  0
  2 42  1  6  0  0  0
  2 13  1  0  0  0  0
  3 14  1  0  0  0  0
  4  3  1  6  0  0  0
  4 21  1  0  0  0  0
  5 11  1  1  0  0  0
  5  4  1  0  0  0  0
  6 15  1  0  0  0  0
  7 26  1  6  0  0  0
  7 17  1  0  0  0  0
  7  9  1  0  0  0  0
  8 10  2  0  0  0  0
  9 18  1  0  0  0  0
 10 12  1  0  0  0  0
 10 17  1  0  0  0  0
 11 18  1  0  0  0  0
 12 41  1  6  0  0  0
 12 25  1  0  0  0  0
 13 23  1  0  0  0  0
 14  2  1  0  0  0  0
 15 20  2  0  0  0  0
 16 14  1  0  0  0  0
 17  5  1  0  0  0  0
 19 25  1  0  0  0  0
 19 16  2  0  0  0  0
 21 22  1  0  0  0  0
 22  6  1  0  0  0  0
 23  6  2  0  0  0  0
 23 24  1  0  0  0  0
 24  1  2  0  0  0  0
 25  3  2  0  0  0  0
 27 26  1  0  0  0  0
 28 26  2  0  0  0  0
 29 38  1  6  0  0  0
 29 27  1  0  0  0  0
 31 30  1  6  0  0  0
 31 29  1  0  0  0  0
 31 32  1  0  0  0  0
 32 34  1  6  0  0  0
 32 35  1  0  0  0  0
 33 34  1  0  0  0  0
 35 37  1  0  0  0  0
 37 36  1  0  0  0  0
 38 39  1  0  0  0  0
 41 40  1  0  0  0  0
 42 43  1  0  0  0  0
 43 44  1  0  0  0  0
 44 45  1  0  0  0  0
 45 47  1  0  0  0  0
 46 45  2  0  0  0  0
M  END
>  <MODEL>
3

>  <REMARK>
 VINA RESULT:      -6.9      2.497      3.835
  Name = 
  13 active torsions:
  status: ('A' for Active; 'I' for Inactive)
    1  A    between atoms: C_2  and  N_17
    2  A    between atoms: C_6  and  C_39
    3  A    between atoms: CA_12  and  C_31
    4  A    between atoms: CA_12  and  N_34
    5  A    between atoms: CA_12  and  C_35
    6  A    between atoms: C_14  and  C_22
    7  A    between atoms: C_15  and  C_29
    8  A    between atoms: C_16  and  C_27
    9  A    between atoms: N_17  and  C_26
   10  A    between atoms: C_23  and  C_40
   11  A    between atoms: C_26  and  C_39
   12  A    between atoms: C_27  and  C_31
   13  A    between atoms: C_27  and  C_40
                            x       y       z     vdW  Elec       q    Type
                         _______ _______ _______ _____ _____    ______ ____

>  <TORSDO>
F 13

$$$$
=
 OpenBabel10222415263D

 47 51  0  0  1  0  0  0  0  0999 V2000
  187.3120  177.5640  146.5730 C   0  0  0  0  0  3  0  0  0  0  0  0
  187.0320  178.7420  141.9240 C   0  0  1  0  0  3  0  0  0  0  0  0
  188.0260  177.5050  139.9830 C   0  0  0  0  0  0  0  0  0  0  0  0
  189.3650  177.2030  140.6370 C   0  0  2  0  0  3  0  0  0  0  0  0
  190.3230  176.3210  139.8080 C   0  0  2  0  0  3  0  0  0  0  0  0
  188.7580  177.4980  144.1690 C   0  0  0  0  0  0  0  0  0  0  0  0
  192.0930  177.4160  138.3110 C   0  0  2  0  0  3  0  0  0  0  0  0
  189.9510  177.8310  136.4970 O   0  0  0  0  0  0  0  0  0  0  0  0
  192.9800  177.1390  139.5250 C   0  0  0  0  0  2  0  0  0  0  0  0
  189.7220  177.0960  137.4980 C   0  0  0  0  0  0  0  0  0  0  0  0
  191.4720  175.9780  140.5570 O   0  0  0  0  0  0  0  0  0  0  0  0
  188.3860  176.4330  137.6620 C   0  0  1  0  0  3  0  0  0  0  0  0
  186.5470  177.6640  142.8780 C   0  0  0  0  0  2  0  0  0  0  0  0
  187.0360  178.2210  140.5600 N   0  0  0  0  0  0  0  0  0  0  0  0
  189.4200  177.4140  145.3990 C   0  0  0  0  0  3  0  0  0  0  0  0
  186.0060  178.3130  139.7330 N   0  0  0  0  0  0  0  0  0  0  0  0
  190.7100  176.9520  138.5320 N   0  0  0  0  0  0  0  0  0  0  0  0
  192.1900  177.0850  140.6800 O   0  0  0  0  0  0  0  0  0  0  0  0
  186.3210  177.6890  138.5800 C   0  0  0  0  0  3  0  0  0  0  0  0
  188.7020  177.4420  146.5960 C   0  0  0  0  0  3  0  0  0  0  0  0
  189.1490  176.5870  141.9410 N   0  0  0  0  0  2  0  0  0  0  0  0
  189.6070  177.5460  142.9340 C   0  0  0  0  0  2  0  0  0  0  0  0
  187.3470  177.6390  144.1460 C   0  0  0  0  0  0  0  0  0  0  0  0
  186.6400  177.6580  145.3530 C   0  0  0  0  0  3  0  0  0  0  0  0
  187.6010  177.1720  138.7040 C   0  0  0  0  0  0  0  0  0  0  0  0
  192.6960  176.7500  137.1140 C   0  0  0  0  0  0  0  0  0  0  0  0
  194.0870  176.9170  136.8290 N   0  0  0  0  0  2  0  0  0  0  0  0
  191.9660  176.0580  136.3560 O   0  0  0  0  0  0  0  0  0  0  0  0
  194.7740  176.1820  135.7740 C   0  0  2  0  0  3  0  0  0  0  0  0
  196.9420  175.4430  136.5490 O   0  0  0  0  0  1  0  0  0  0  0  0
  195.6140  175.0430  136.3690 C   0  0  1  0  0  3  0  0  0  0  0  0
  195.0240  174.5090  137.6840 C   0  0  2  0  0  3  0  0  0  0  0  0
  195.9630  175.1100  139.8280 O   0  0  0  0  0  1  0  0  0  0  0  0
  196.0810  174.2260  138.7540 C   0  0  0  0  0  2  0  0  0  0  0  0
  194.1300  173.2930  137.4550 C   0  0  0  0  0  2  0  0  0  0  0  0
  193.6750  171.5190  135.7590 C   0  0  0  0  0  1  0  0  0  0  0  0
  194.7500  172.3270  136.4590 C   0  0  0  0  0  2  0  0  0  0  0  0
  195.6380  177.1470  134.9670 C   0  0  0  0  0  2  0  0  0  0  0  0
  195.4310  178.4640  135.3830 O   0  0  0  0  0  1  0  0  0  0  0  0
  187.1700  174.8410  136.1650 C   0  0  0  0  0  1  0  0  0  0  0  0
  187.6280  176.2770  136.3440 C   0  0  0  0  0  2  0  0  0  0  0  0
  186.1870  179.9210  142.0270 N   0  0  0  0  0  2  0  0  0  0  0  0
  184.8710  179.4570  142.4270 C   0  0  0  0  0  2  0  0  0  0  0  0
  184.5160  180.0510  143.7760 C   0  0  0  0  0  2  0  0  0  0  0  0
  183.4150  179.2670  144.3960 C   0  0  0  0  0  0  0  0  0  0  0  0
  183.4450  179.0060  145.6270 O   0  0  0  0  0  1  0  0  0  0  0  0
  182.3370  178.8470  143.6250 O   0  0  0  0  0  0  0  0  0  0  0  0
  1 20  1  0  0  0  0
  2 42  1  6  0  0  0
  2 13  1  0  0  0  0
  3 14  1  0  0  0  0
  4  3  1  6  0  0  0
  4 21  1  0  0  0  0
  5 11  1  1  0  0  0
  5  4  1  0  0  0  0
  6 15  1  0  0  0  0
  7 26  1  6  0  0  0
  7 17  1  0  0  0  0
  7  9  1  0  0  0  0
  8 10  2  0  0  0  0
  9 18  1  0  0  0  0
 10 12  1  0  0  0  0
 10 17  1  0  0  0  0
 11 18  1  0  0  0  0
 12 41  1  6  0  0  0
 12 25  1  0  0  0  0
 13 23  1  0  0  0  0
 14  2  1  0  0  0  0
 15 20  2  0  0  0  0
 16 14  1  0  0  0  0
 17  5  1  0  0  0  0
 19 25  1  0  0  0  0
 19 16  2  0  0  0  0
 21 22  1  0  0  0  0
 22  6  1  0  0  0  0
 23  6  2  0  0  0  0
 23 24  1  0  0  0  0
 24  1  2  0  0  0  0
 25  3  2  0  0  0  0
 27 26  1  0  0  0  0
 28 26  2  0  0  0  0
 29 38  1  1  0  0  0
 29 31  1  0  0  0  0
 29 27  1  0  0  0  0
 31 30  1  1  0  0  0
 31 32  1  0  0  0  0
 32 35  1  6  0  0  0
 32 34  1  0  0  0  0
 34 33  1  0  0  0  0
 36 37  1  0  0  0  0
 37 35  1  0  0  0  0
 38 39  1  0  0  0  0
 40 41  1  0  0  0  0
 42 43  1  0  0  0  0
 43 44  1  0  0  0  0
 44 45  1  0  0  0  0
 45 46  1  0  0  0  0
 47 45  2  0  0  0  0
M  END
>  <MODEL>
4

>  <REMARK>
 VINA RESULT:      -6.7      5.131     10.212
  Name = 
  13 active torsions:
  status: ('A' for Active; 'I' for Inactive)
    1  A    between atoms: C_2  and  N_17
    2  A    between atoms: C_6  and  C_39
    3  A    between atoms: CA_12  and  C_31
    4  A    between atoms: CA_12  and  N_34
    5  A    between atoms: CA_12  and  C_35
    6  A    between atoms: C_14  and  C_22
    7  A    between atoms: C_15  and  C_29
    8  A    between atoms: C_16  and  C_27
    9  A    between atoms: N_17  and  C_26
   10  A    between atoms: C_23  and  C_40
   11  A    between atoms: C_26  and  C_39
   12  A    between atoms: C_27  and  C_31
   13  A    between atoms: C_27  and  C_40
                            x       y       z     vdW  Elec       q    Type
                         _______ _______ _______ _____ _____    ______ ____

>  <TORSDO>
F 13

$$$$
=
 OpenBabel10222415263D

 47 51  0  0  1  0  0  0  0  0999 V2000
  194.5360  171.0300  135.4440 C   0  0  0  0  0  3  0  0  0  0  0  0
  193.3690  175.3790  137.1190 C   0  0  1  0  0  3  0  0  0  0  0  0
  191.2070  176.0630  138.1890 C   0  0  0  0  0  0  0  0  0  0  0  0
  190.2950  175.3220  137.2240 C   0  0  2  0  0  3  0  0  0  0  0  0
  188.7900  175.3730  137.5660 C   0  0  2  0  0  3  0  0  0  0  0  0
  192.3760  172.7990  135.7320 C   0  0  0  0  0  0  0  0  0  0  0  0
  187.2990  177.1660  136.5010 C   0  0  2  0  0  3  0  0  0  0  0  0
  188.4070  178.9010  138.4530 O   0  0  0  0  0  0  0  0  0  0  0  0
  186.9840  176.0230  135.5350 C   0  0  0  0  0  2  0  0  0  0  0  0
  188.6590  177.6690  138.5700 C   0  0  0  0  0  0  0  0  0  0  0  0
  188.0460  174.5390  136.7000 O   0  0  0  0  0  0  0  0  0  0  0  0
  189.4590  177.1660  139.7360 C   0  0  1  0  0  3  0  0  0  0  0  0
  193.6410  173.9740  137.6300 C   0  0  0  0  0  2  0  0  0  0  0  0
  192.5540  176.1030  138.0900 N   0  0  0  0  0  0  0  0  0  0  0  0
  192.3330  171.7730  134.7810 C   0  0  0  0  0  3  0  0  0  0  0  0
  193.0570  176.8340  139.0740 N   0  0  0  0  0  0  0  0  0  0  0  0
  188.2520  176.7460  137.5450 N   0  0  0  0  0  0  0  0  0  0  0  0
  188.0550  175.1220  135.5090 O   0  0  0  0  0  0  0  0  0  0  0  0
  192.0390  177.3190  139.8140 C   0  0  0  0  0  3  0  0  0  0  0  0
  193.4050  170.8890  134.6390 C   0  0  0  0  0  3  0  0  0  0  0  0
  190.7180  173.9310  137.1150 N   0  0  0  0  0  2  0  0  0  0  0  0
  191.2230  173.7560  135.7630 C   0  0  0  0  0  2  0  0  0  0  0  0
  193.5330  172.9520  136.5380 C   0  0  0  0  0  0  0  0  0  0  0  0
  194.5960  172.0540  136.3910 C   0  0  0  0  0  3  0  0  0  0  0  0
  190.8510  176.8540  139.2720 C   0  0  0  0  0  0  0  0  0  0  0  0
  186.0190  177.6490  137.1070 C   0  0  0  0  0  0  0  0  0  0  0  0
  184.7850  177.0060  136.7770 N   0  0  0  0  0  2  0  0  0  0  0  0
  186.0370  178.6330  137.8930 O   0  0  0  0  0  0  0  0  0  0  0  0
  183.5260  177.3210  137.4400 C   0  0  2  0  0  3  0  0  0  0  0  0
  183.8770  175.0180  138.0890 O   0  0  0  0  0  1  0  0  0  0  0  0
  182.9940  176.0960  138.1990 C   0  0  1  0  0  3  0  0  0  0  0  0
  182.6980  176.4090  139.6740 C   0  0  2  0  0  3  0  0  0  0  0  0
  180.5480  175.3260  139.8860 O   0  0  0  0  0  1  0  0  0  0  0  0
  181.2060  176.5550  139.9770 C   0  0  0  0  0  2  0  0  0  0  0  0
  183.4840  177.6200  140.1690 C   0  0  0  0  0  2  0  0  0  0  0  0
  183.7810  178.6910  142.4040 C   0  0  0  0  0  1  0  0  0  0  0  0
  182.7810  178.3010  141.3330 C   0  0  0  0  0  2  0  0  0  0  0  0
  182.5190  177.8110  136.4030 C   0  0  0  0  0  2  0  0  0  0  0  0
  181.4690  178.4980  137.0180 O   0  0  0  0  0  1  0  0  0  0  0  0
  188.0870  178.0220  141.6430 C   0  0  0  0  0  1  0  0  0  0  0  0
  189.4280  178.1100  140.9360 C   0  0  0  0  0  2  0  0  0  0  0  0
  194.6220  176.0740  136.8720 N   0  0  0  0  0  2  0  0  0  0  0  0
  194.8330  176.0570  135.4360 C   0  0  0  0  0  2  0  0  0  0  0  0
  196.1740  176.6870  135.1160 C   0  0  0  0  0  2  0  0  0  0  0  0
  197.2690  175.7430  135.4640 C   0  0  0  0  0  0  0  0  0  0  0  0
  197.6970  174.9320  134.6020 O   0  0  0  0  0  0  0  0  0  0  0  0
  197.8410  175.7750  136.7300 O   0  0  0  0  0  1  0  0  0  0  0  0
  1 24  1  0  0  0  0
  2 42  1  1  0  0  0
  2 13  1  0  0  0  0
  2 14  1  0  0  0  0
  3 25  2  0  0  0  0
  4 21  1  1  0  0  0
  4  5  1  0  0  0  0
  4  3  1  0  0  0  0
  5 11  1  6  0  0  0
  6 22  1  0  0  0  0
  6 23  1  0  0  0  0
  7 26  1  1  0  0  0
  7 17  1  0  0  0  0
  8 10  2  0  0  0  0
  9  7  1  0  0  0  0
 10 12  1  0  0  0  0
 12 41  1  1  0  0  0
 14  3  1  0  0  0  0
 14 16  1  0  0  0  0
 15  6  2  0  0  0  0
 16 19  2  0  0  0  0
 17  5  1  0  0  0  0
 17 10  1  0  0  0  0
 18  9  1  0  0  0  0
 18 11  1  0  0  0  0
 20 15  1  0  0  0  0
 20  1  2  0  0  0  0
 22 21  1  0  0  0  0
 23 13  1  0  0  0  0
 24 23  2  0  0  0  0
 25 12  1  0  0  0  0
 25 19  1  0  0  0  0
 26 28  2  0  0  0  0
 27 26  1  0  0  0  0
 27 29  1  0  0  0  0
 29 38  1  6  0  0  0
 29 31  1  0  0  0  0
 31 30  1  1  0  0  0
 31 32  1  0  0  0  0
 32 34  1  6  0  0  0
 32 35  1  0  0  0  0
 33 34  1  0  0  0  0
 35 37  1  0  0  0  0
 37 36  1  0  0  0  0
 38 39  1  0  0  0  0
 41 40  1  0  0  0  0
 43 42  1  0  0  0  0
 44 43  1  0  0  0  0
 44 45  1  0  0  0  0
 45 47  1  0  0  0  0
 46 45  2  0  0  0  0
M  END
>  <MODEL>
5

>  <REMARK>
 VINA RESULT:      -6.7      6.081      8.943
  Name = 
  13 active torsions:
  status: ('A' for Active; 'I' for Inactive)
    1  A    between atoms: C_2  and  N_17
    2  A    between atoms: C_6  and  C_39
    3  A    between atoms: CA_12  and  C_31
    4  A    between atoms: CA_12  and  N_34
    5  A    between atoms: CA_12  and  C_35
    6  A    between atoms: C_14  and  C_22
    7  A    between atoms: C_15  and  C_29
    8  A    between atoms: C_16  and  C_27
    9  A    between atoms: N_17  and  C_26
   10  A    between atoms: C_23  and  C_40
   11  A    between atoms: C_26  and  C_39
   12  A    between atoms: C_27  and  C_31
   13  A    between atoms: C_27  and  C_40
                            x       y       z     vdW  Elec       q    Type
                         _______ _______ _______ _____ _____    ______ ____

>  <TORSDO>
F 13

$$$$
=
 OpenBabel10222415263D

 47 51  0  0  1  0  0  0  0  0999 V2000
  194.6070  171.2850  135.3830 C   0  0  0  0  0  3  0  0  0  0  0  0
  193.4060  175.5550  137.2260 C   0  0  1  0  0  3  0  0  0  0  0  0
  191.2540  176.1680  138.3580 C   0  0  0  0  0  0  0  0  0  0  0  0
  190.3350  175.4460  137.3850 C   0  0  2  0  0  3  0  0  0  0  0  0
  188.8360  175.4610  137.7560 C   0  0  2  0  0  3  0  0  0  0  0  0
  192.4260  173.0080  135.7700 C   0  0  0  0  0  0  0  0  0  0  0  0
  187.2980  177.2660  136.7800 C   0  0  2  0  0  3  0  0  0  0  0  0
  188.4170  178.9510  138.7700 O   0  0  0  0  0  0  0  0  0  0  0  0
  186.9830  176.1510  135.7820 C   0  0  0  0  0  2  0  0  0  0  0  0
  188.6900  177.7200  138.8400 C   0  0  0  0  0  0  0  0  0  0  0  0
  188.0890  174.6450  136.8760 O   0  0  0  0  0  0  0  0  0  0  0  0
  189.5190  177.1900  139.9730 C   0  0  1  0  0  3  0  0  0  0  0  0
  193.7080  174.1380  137.6840 C   0  0  0  0  0  2  0  0  0  0  0  0
  192.5980  176.2330  138.2360 N   0  0  0  0  0  0  0  0  0  0  0  0
  192.3810  172.0150  134.7850 C   0  0  0  0  0  3  0  0  0  0  0  0
  193.1080  176.9380  139.2350 N   0  0  0  0  0  0  0  0  0  0  0  0
  188.2780  176.8260  137.7920 N   0  0  0  0  0  0  0  0  0  0  0  0
  188.0670  175.2690  135.7060 O   0  0  0  0  0  0  0  0  0  0  0  0
  192.0970  177.3820  140.0090 C   0  0  0  0  0  3  0  0  0  0  0  0
  193.4630  171.1530  134.5940 C   0  0  0  0  0  3  0  0  0  0  0  0
  190.7770  174.0660  137.2210 N   0  0  0  0  0  2  0  0  0  0  0  0
  191.2590  173.9460  135.8540 C   0  0  0  0  0  2  0  0  0  0  0  0
  193.5950  173.1520  136.5600 C   0  0  0  0  0  0  0  0  0  0  0  0
  194.6690  172.2770  136.3620 C   0  0  0  0  0  3  0  0  0  0  0  0
  190.9060  176.9170  139.4730 C   0  0  0  0  0  0  0  0  0  0  0  0
  186.0230  177.7080  137.4260 C   0  0  0  0  0  0  0  0  0  0  0  0
  184.8910  176.8340  137.4430 N   0  0  0  0  0  2  0  0  0  0  0  0
  185.9520  178.8570  137.9360 O   0  0  0  0  0  0  0  0  0  0  0  0
  183.6710  177.1330  138.1820 C   0  0  2  0  0  3  0  0  0  0  0  0
  182.2980  176.0820  139.8720 O   0  0  0  0  0  1  0  0  0  0  0  0
  183.0240  175.8410  138.7030 C   0  0  1  0  0  3  0  0  0  0  0  0
  182.1400  175.1630  137.6430 C   0  0  2  0  0  3  0  0  0  0  0  0
  180.0150  174.0520  137.3450 O   0  0  0  0  0  1  0  0  0  0  0  0
  180.6700  175.0620  138.0530 C   0  0  0  0  0  2  0  0  0  0  0  0
  182.6930  173.8030  137.2240 C   0  0  0  0  0  2  0  0  0  0  0  0
  184.8250  172.5960  136.7460 C   0  0  0  0  0  1  0  0  0  0  0  0
  184.1610  173.6630  137.5950 C   0  0  0  0  0  2  0  0  0  0  0  0
  182.7130  177.9080  137.2810 C   0  0  0  0  0  2  0  0  0  0  0  0
  182.2840  179.0810  137.9080 O   0  0  0  0  0  1  0  0  0  0  0  0
  188.5820  177.5120  142.2690 C   0  0  0  0  0  1  0  0  0  0  0  0
  189.4960  178.0930  141.2060 C   0  0  0  0  0  2  0  0  0  0  0  0
  194.6430  176.2780  136.9800 N   0  0  0  0  0  2  0  0  0  0  0  0
  194.9120  176.1740  135.5580 C   0  0  0  0  0  2  0  0  0  0  0  0
  196.3650  176.5110  135.2930 C   0  0  0  0  0  2  0  0  0  0  0  0
  197.2380  175.4430  135.8490 C   0  0  0  0  0  0  0  0  0  0  0  0
  197.9050  175.6560  136.8950 O   0  0  0  0  0  1  0  0  0  0  0  0
  197.2950  174.1980  135.2340 O   0  0  0  0  0  0  0  0  0  0  0  0
  1 24  1  0  0  0  0
  2 42  1  1  0  0  0
  2 13  1  0  0  0  0
  2 14  1  0  0  0  0
  3 25  2  0  0  0  0
  4 21  1  1  0  0  0
  4  5  1  0  0  0  0
  4  3  1  0  0  0  0
  5 11  1  6  0  0  0
  5 17  1  0  0  0  0
  6 22  1  0  0  0  0
  6 23  1  0  0  0  0
  7 26  1  1  0  0  0
  7 17  1  0  0  0  0
  8 10  2  0  0  0  0
  9  7  1  0  0  0  0
 10 12  1  0  0  0  0
 12 41  1  1  0  0  0
 14  3  1  0  0  0  0
 14 16  1  0  0  0  0
 15  6  2  0  0  0  0
 16 19  2  0  0  0  0
 17 10  1  0  0  0  0
 18  9  1  0  0  0  0
 18 11  1  0  0  0  0
 20 15  1  0  0  0  0
 20  1  2  0  0  0  0
 22 21  1  0  0  0  0
 23 13  1  0  0  0  0
 24 23  2  0  0  0  0
 25 12  1  0  0  0  0
 25 19  1  0  0  0  0
 26 27  1  0  0  0  0
 26 28  2  0  0  0  0
 27 29  1  0  0  0  0
 29 38  1  6  0  0  0
 29 31  1  0  0  0  0
 31 30  1  1  0  0  0
 32 35  1  1  0  0  0
 32 34  1  0  0  0  0
 32 31  1  0  0  0  0
 33 34  1  0  0  0  0
 35 37  1  0  0  0  0
 36 37  1  0  0  0  0
 38 39  1  0  0  0  0
 41 40  1  0  0  0  0
 43 42  1  0  0  0  0
 44 43  1  0  0  0  0
 44 45  1  0  0  0  0
 45 46  1  0  0  0  0
 47 45  2  0  0  0  0
M  END
>  <MODEL>
6

>  <REMARK>
 VINA RESULT:      -6.6      6.115      8.896
  Name = 
  13 active torsions:
  status: ('A' for Active; 'I' for Inactive)
    1  A    between atoms: C_2  and  N_17
    2  A    between atoms: C_6  and  C_39
    3  A    between atoms: CA_12  and  C_31
    4  A    between atoms: CA_12  and  N_34
    5  A    between atoms: CA_12  and  C_35
    6  A    between atoms: C_14  and  C_22
    7  A    between atoms: C_15  and  C_29
    8  A    between atoms: C_16  and  C_27
    9  A    between atoms: N_17  and  C_26
   10  A    between atoms: C_23  and  C_40
   11  A    between atoms: C_26  and  C_39
   12  A    between atoms: C_27  and  C_31
   13  A    between atoms: C_27  and  C_40
                            x       y       z     vdW  Elec       q    Type
                         _______ _______ _______ _____ _____    ______ ____

>  <TORSDO>
F 13

$$$$
=
 OpenBabel10222415263D

 47 51  0  0  1  0  0  0  0  0999 V2000
  189.7300  176.9410  144.3380 C   0  0  0  0  0  3  0  0  0  0  0  0
  185.3660  178.9360  144.5540 C   0  0  1  0  0  3  0  0  0  0  0  0
  183.4890  178.6620  142.9140 C   0  0  0  0  0  0  0  0  0  0  0  0
  184.3410  178.7690  141.6580 C   0  0  2  0  0  3  0  0  0  0  0  0
  183.5880  178.5460  140.3280 C   0  0  2  0  0  3  0  0  0  0  0  0
  187.6820  177.9930  142.7340 C   0  0  0  0  0  0  0  0  0  0  0  0
  182.6660  180.5550  139.0300 C   0  0  2  0  0  3  0  0  0  0  0  0
  180.5520  180.4980  140.9220 O   0  0  0  0  0  0  0  0  0  0  0  0
  183.9730  180.3810  138.2560 C   0  0  0  0  0  2  0  0  0  0  0  0
  181.3580  179.5260  140.9310 C   0  0  0  0  0  0  0  0  0  0  0  0
  184.4870  178.5200  139.2370 O   0  0  0  0  0  0  0  0  0  0  0  0
  181.1460  178.3740  141.8690 C   0  0  1  0  0  3  0  0  0  0  0  0
  186.0210  177.5680  144.6430 C   0  0  0  0  0  2  0  0  0  0  0  0
  183.9640  178.7830  144.1730 N   0  0  0  0  0  0  0  0  0  0  0  0
  188.9900  177.8980  142.2450 C   0  0  0  0  0  3  0  0  0  0  0  0
  182.9750  178.6480  145.0420 N   0  0  0  0  0  0  0  0  0  0  0  0
  182.5320  179.5500  140.1010 N   0  0  0  0  0  0  0  0  0  0  0  0
  184.9250  179.7610  139.0750 O   0  0  0  0  0  0  0  0  0  0  0  0
  181.8230  178.4770  144.3620 C   0  0  0  0  0  3  0  0  0  0  0  0
  190.0090  177.3710  143.0400 C   0  0  0  0  0  3  0  0  0  0  0  0
  185.4600  177.8390  141.7410 N   0  0  0  0  0  2  0  0  0  0  0  0
  186.6640  178.6490  141.8500 C   0  0  0  0  0  2  0  0  0  0  0  0
  187.4020  177.5710  144.0590 C   0  0  0  0  0  0  0  0  0  0  0  0
  188.4320  177.0380  144.8410 C   0  0  0  0  0  3  0  0  0  0  0  0
  182.1160  178.4900  143.0070 C   0  0  0  0  0  0  0  0  0  0  0  0
  181.5230  180.4690  138.0690 C   0  0  0  0  0  0  0  0  0  0  0  0
  181.4060  179.3410  137.1980 N   0  0  0  0  0  2  0  0  0  0  0  0
  180.6790  181.4030  138.0220 O   0  0  0  0  0  0  0  0  0  0  0  0
  180.2450  179.1140  136.3460 C   0  0  2  0  0  3  0  0  0  0  0  0
  179.2540  177.3390  135.0370 O   0  0  0  0  0  1  0  0  0  0  0  0
  179.9570  177.6120  136.2140 C   0  0  1  0  0  3  0  0  0  0  0  0
  181.2370  176.7640  136.2920 C   0  0  2  0  0  3  0  0  0  0  0  0
  182.6100  175.2640  134.9870 O   0  0  0  0  0  1  0  0  0  0  0  0
  181.8150  176.4090  134.9200 C   0  0  0  0  0  2  0  0  0  0  0  0
  181.0430  175.5170  137.1500 C   0  0  0  0  0  2  0  0  0  0  0  0
  181.9480  175.6370  139.4740 C   0  0  0  0  0  1  0  0  0  0  0  0
  180.7370  175.8790  138.5950 C   0  0  0  0  0  2  0  0  0  0  0  0
  180.4870  179.7550  134.9820 C   0  0  0  0  0  2  0  0  0  0  0  0
  179.7970  180.9650  134.8740 O   0  0  0  0  0  1  0  0  0  0  0  0
  178.9310  177.3130  141.4030 C   0  0  0  0  0  1  0  0  0  0  0  0
  179.6960  178.2370  142.3320 C   0  0  0  0  0  2  0  0  0  0  0  0
  185.4840  179.6320  145.8250 N   0  0  0  0  0  2  0  0  0  0  0  0
  185.8360  178.6330  146.8170 C   0  0  0  0  0  2  0  0  0  0  0  0
  186.8040  179.2340  147.8160 C   0  0  0  0  0  2  0  0  0  0  0  0
  187.8770  178.2530  148.1300 C   0  0  0  0  0  0  0  0  0  0  0  0
  189.0790  178.6260  148.1700 O   0  0  0  0  0  0  0  0  0  0  0  0
  187.5520  176.9310  148.4100 O   0  0  0  0  0  1  0  0  0  0  0  0
  1 24  1  0  0  0  0
  2 13  1  0  0  0  0
  2 42  1  1  0  0  0
  3 25  2  0  0  0  0
  3 14  1  0  0  0  0
  4 21  1  1  0  0  0
  4  3  1  0  0  0  0
  5 11  1  6  0  0  0
  5  4  1  0  0  0  0
  6 23  1  0  0  0  0
  7 26  1  6  0  0  0
  7 17  1  0  0  0  0
  8 10  2  0  0  0  0
  9  7  1  0  0  0  0
  9 18  1  0  0  0  0
 10 12  1  0  0  0  0
 12 41  1  1  0  0  0
 12 25  1  0  0  0  0
 14  2  1  0  0  0  0
 14 16  1  0  0  0  0
 15  6  2  0  0  0  0
 15 20  1  0  0  0  0
 17  5  1  0  0  0  0
 17 10  1  0  0  0  0
 18 11  1  0  0  0  0
 19 16  2  0  0  0  0
 20  1  2  0  0  0  0
 21 22  1  0  0  0  0
 22  6  1  0  0  0  0
 23 13  1  0  0  0  0
 23 24  2  0  0  0  0
 25 19  1  0  0  0  0
 27 26  1  0  0  0  0
 28 26  2  0  0  0  0
 29 38  1  6  0  0  0
 29 27  1  0  0  0  0
 31 30  1  6  0  0  0
 31 32  1  0  0  0  0
 31 29  1  0  0  0  0
 32 34  1  6  0  0  0
 32 35  1  0  0  0  0
 34 33  1  0  0  0  0
 35 37  1  0  0  0  0
 37 36  1  0  0  0  0
 39 38  1  0  0  0  0
 40 41  1  0  0  0  0
 42 43  1  0  0  0  0
 43 44  1  0  0  0  0
 44 45  1  0  0  0  0
 45 46  2  0  0  0  0
 45 47  1  0  0  0  0
M  END
>  <MODEL>
7

>  <REMARK>
 VINA RESULT:      -6.5      2.269      4.906
  Name = 
  13 active torsions:
  status: ('A' for Active; 'I' for Inactive)
    1  A    between atoms: C_2  and  N_17
    2  A    between atoms: C_6  and  C_39
    3  A    between atoms: CA_12  and  C_31
    4  A    between atoms: CA_12  and  N_34
    5  A    between atoms: CA_12  and  C_35
    6  A    between atoms: C_14  and  C_22
    7  A    between atoms: C_15  and  C_29
    8  A    between atoms: C_16  and  C_27
    9  A    between atoms: N_17  and  C_26
   10  A    between atoms: C_23  and  C_40
   11  A    between atoms: C_26  and  C_39
   12  A    between atoms: C_27  and  C_31
   13  A    between atoms: C_27  and  C_40
                            x       y       z     vdW  Elec       q    Type
                         _______ _______ _______ _____ _____    ______ ____

>  <TORSDO>
F 13

$$$$
=
 OpenBabel10222415263D

 47 51  0  0  1  0  0  0  0  0999 V2000
  189.2920  177.9480  148.2100 C   0  0  0  0  0  3  0  0  0  0  0  0
  187.7240  176.9670  143.7760 C   0  0  1  0  0  3  0  0  0  0  0  0
  186.0340  178.2550  142.4450 C   0  0  0  0  0  0  0  0  0  0  0  0
  185.0590  178.4940  143.5880 C   0  0  2  0  0  3  0  0  0  0  0  0
  183.8450  179.3830  143.2460 C   0  0  2  0  0  3  0  0  0  0  0  0
  187.0140  178.0730  146.5760 C   0  0  0  0  0  0  0  0  0  0  0  0
  181.6370  178.3030  142.5170 C   0  0  2  0  0  3  0  0  0  0  0  0
  182.8920  178.0190  139.9880 O   0  0  0  0  0  0  0  0  0  0  0  0
  181.2990  178.5060  143.9940 C   0  0  0  0  0  2  0  0  0  0  0  0
  183.4910  178.7180  140.8520 C   0  0  0  0  0  0  0  0  0  0  0  0
  183.0820  179.6650  144.4030 O   0  0  0  0  0  0  0  0  0  0  0  0
  184.7780  179.4100  140.5080 C   0  0  1  0  0  3  0  0  0  0  0  0
  188.5380  178.0180  144.5120 C   0  0  0  0  0  2  0  0  0  0  0  0
  187.1770  177.5420  142.5500 N   0  0  0  0  0  0  0  0  0  0  0  0
  186.8910  178.0890  147.9700 C   0  0  0  0  0  3  0  0  0  0  0  0
  187.7980  177.5120  141.3810 N   0  0  0  0  0  0  0  0  0  0  0  0
  182.9910  178.7940  142.1980 N   0  0  0  0  0  0  0  0  0  0  0  0
  182.4800  178.5340  144.7460 O   0  0  0  0  0  0  0  0  0  0  0  0
  187.0480  178.1730  140.4770 C   0  0  0  0  0  3  0  0  0  0  0  0
  188.0240  178.0320  148.7840 C   0  0  0  0  0  3  0  0  0  0  0  0
  185.7680  179.0630  144.7280 N   0  0  0  0  0  2  0  0  0  0  0  0
  185.7470  178.0520  145.7740 C   0  0  0  0  0  2  0  0  0  0  0  0
  188.3020  177.9710  145.9920 C   0  0  0  0  0  0  0  0  0  0  0  0
  189.4290  177.9210  146.8210 C   0  0  0  0  0  3  0  0  0  0  0  0
  185.9160  178.6500  141.1200 C   0  0  0  0  0  0  0  0  0  0  0  0
  180.6050  179.0000  141.6880 C   0  0  0  0  0  0  0  0  0  0  0  0
  180.5290  178.7500  140.2820 N   0  0  0  0  0  2  0  0  0  0  0  0
  179.8190  179.8180  142.2350 O   0  0  0  0  0  0  0  0  0  0  0  0
  179.4600  179.2720  139.4400 C   0  0  2  0  0  3  0  0  0  0  0  0
  178.9860  178.6720  137.1470 O   0  0  0  0  0  1  0  0  0  0  0  0
  178.9690  178.1970  138.4610 C   0  0  1  0  0  3  0  0  0  0  0  0
  179.7720  176.8910  138.5780 C   0  0  2  0  0  3  0  0  0  0  0  0
  181.6930  175.9050  137.4950 O   0  0  0  0  0  1  0  0  0  0  0  0
  180.4360  176.4670  137.2670 C   0  0  0  0  0  2  0  0  0  0  0  0
  178.9350  175.7580  139.1670 C   0  0  0  0  0  2  0  0  0  0  0  0
  179.6310  174.0530  140.8520 C   0  0  0  0  0  1  0  0  0  0  0  0
  179.2840  175.5120  140.6260 C   0  0  0  0  0  2  0  0  0  0  0  0
  179.9610  180.5100  138.7000 C   0  0  0  0  0  2  0  0  0  0  0  0
  181.2500  180.8500  139.1190 O   0  0  0  0  0  1  0  0  0  0  0  0
  184.6080  178.3770  138.2370 C   0  0  0  0  0  1  0  0  0  0  0  0
  184.9520  179.6390  139.0070 C   0  0  0  0  0  2  0  0  0  0  0  0
  188.5510  175.8080  143.4810 N   0  0  0  0  0  2  0  0  0  0  0  0
  189.9320  176.2420  143.5940 C   0  0  0  0  0  2  0  0  0  0  0  0
  190.5770  176.2340  142.2220 C   0  0  0  0  0  2  0  0  0  0  0  0
  191.6610  177.2500  142.1710 C   0  0  0  0  0  0  0  0  0  0  0  0
  192.1800  177.5610  141.0670 O   0  0  0  0  0  0  0  0  0  0  0  0
  192.0830  177.8800  143.3360 O   0  0  0  0  0  1  0  0  0  0  0  0
  1 20  1  0  0  0  0
  2 42  1  6  0  0  0
  2 13  1  0  0  0  0
  3 14  1  0  0  0  0
  4  3  1  6  0  0  0
  4 21  1  0  0  0  0
  5  4  1  0  0  0  0
  5 11  1  1  0  0  0
  6 15  1  0  0  0  0
  7 26  1  6  0  0  0
  7  9  1  0  0  0  0
  8 10  2  0  0  0  0
  9 18  1  0  0  0  0
 10 17  1  0  0  0  0
 11 18  1  0  0  0  0
 12 41  1  6  0  0  0
 12 10  1  0  0  0  0
 12 25  1  0  0  0  0
 13 23  1  0  0  0  0
 14  2  1  0  0  0  0
 15 20  2  0  0  0  0
 16 14  1  0  0  0  0
 17  7  1  0  0  0  0
 17  5  1  0  0  0  0
 19 25  1  0  0  0  0
 19 16  2  0  0  0  0
 21 22  1  0  0  0  0
 22  6  1  0  0  0  0
 23  6  2  0  0  0  0
 23 24  1  0  0  0  0
 24  1  2  0  0  0  0
 25  3  2  0  0  0  0
 26 28  2  0  0  0  0
 27 26  1  0  0  0  0
 29 38  1  6  0  0  0
 29 27  1  0  0  0  0
 31 30  1  6  0  0  0
 31 32  1  0  0  0  0
 31 29  1  0  0  0  0
 32 34  1  6  0  0  0
 32 35  1  0  0  0  0
 34 33  1  0  0  0  0
 35 37  1  0  0  0  0
 37 36  1  0  0  0  0
 38 39  1  0  0  0  0
 40 41  1  0  0  0  0
 42 43  1  0  0  0  0
 44 43  1  0  0  0  0
 45 44  1  0  0  0  0
 45 47  1  0  0  0  0
 46 45  2  0  0  0  0
M  END
>  <MODEL>
8

>  <REMARK>
 VINA RESULT:      -6.3      1.572      2.508
  Name = 
  13 active torsions:
  status: ('A' for Active; 'I' for Inactive)
    1  A    between atoms: C_2  and  N_17
    2  A    between atoms: C_6  and  C_39
    3  A    between atoms: CA_12  and  C_31
    4  A    between atoms: CA_12  and  N_34
    5  A    between atoms: CA_12  and  C_35
    6  A    between atoms: C_14  and  C_22
    7  A    between atoms: C_15  and  C_29
    8  A    between atoms: C_16  and  C_27
    9  A    between atoms: N_17  and  C_26
   10  A    between atoms: C_23  and  C_40
   11  A    between atoms: C_26  and  C_39
   12  A    between atoms: C_27  and  C_31
   13  A    between atoms: C_27  and  C_40
                            x       y       z     vdW  Elec       q    Type
                         _______ _______ _______ _____ _____    ______ ____

>  <TORSDO>
F 13

$$$$
=
 OpenBabel10222415263D

 47 51  0  0  1  0  0  0  0  0999 V2000
  198.1860  174.1040  136.9720 C   0  0  0  0  0  3  0  0  0  0  0  0
  193.4250  174.0740  136.3320 C   0  0  1  0  0  3  0  0  0  0  0  0
  191.7890  175.8420  137.0260 C   0  0  0  0  0  0  0  0  0  0  0  0
  192.3960  176.1110  138.3950 C   0  0  2  0  0  3  0  0  0  0  0  0
  191.7460  177.2620  139.1920 C   0  0  2  0  0  3  0  0  0  0  0  0
  195.7740  174.9030  138.1640 C   0  0  0  0  0  0  0  0  0  0  0  0
  189.8920  176.7520  140.8890 C   0  0  2  0  0  3  0  0  0  0  0  0
  188.1990  176.5750  138.6190 O   0  0  0  0  0  0  0  0  0  0  0  0
  191.0670  176.8130  141.8660 C   0  0  0  0  0  2  0  0  0  0  0  0
  189.3670  177.0160  138.4310 C   0  0  0  0  0  0  0  0  0  0  0  0
  192.4690  177.5270  140.3780 O   0  0  0  0  0  0  0  0  0  0  0  0
  189.7930  177.4790  137.0690 C   0  0  1  0  0  3  0  0  0  0  0  0
  194.6540  174.8310  135.8570 C   0  0  0  0  0  2  0  0  0  0  0  0
  192.2400  174.9090  136.1590 N   0  0  0  0  0  0  0  0  0  0  0  0
  196.9330  174.7510  138.9350 C   0  0  0  0  0  3  0  0  0  0  0  0
  191.4970  174.9170  135.0630 N   0  0  0  0  0  0  0  0  0  0  0  0
  190.3270  177.0040  139.5020 N   0  0  0  0  0  0  0  0  0  0  0  0
  192.2540  176.5030  141.1920 O   0  0  0  0  0  0  0  0  0  0  0  0
  190.5180  175.8320  135.2120 C   0  0  0  0  0  3  0  0  0  0  0  0
  198.1350  174.3590  138.3430 C   0  0  0  0  0  3  0  0  0  0  0  0
  193.8250  176.3650  138.2590 N   0  0  0  0  0  2  0  0  0  0  0  0
  194.5070  175.2450  138.8880 C   0  0  0  0  0  2  0  0  0  0  0  0
  195.8230  174.6280  136.7740 C   0  0  0  0  0  0  0  0  0  0  0  0
  197.0360  174.2420  136.1930 C   0  0  0  0  0  3  0  0  0  0  0  0
  190.6710  176.4310  136.4530 C   0  0  0  0  0  0  0  0  0  0  0  0
  188.8600  177.7480  141.3160 C   0  0  0  0  0  0  0  0  0  0  0  0
  187.6950  177.3120  142.0200 N   0  0  0  0  0  2  0  0  0  0  0  0
  189.0190  178.9650  141.0340 O   0  0  0  0  0  0  0  0  0  0  0  0
  186.7260  178.2350  142.5980 C   0  0  2  0  0  3  0  0  0  0  0  0
  187.1070  176.8260  144.5260 O   0  0  0  0  0  1  0  0  0  0  0  0
  186.1840  177.6880  143.9260 C   0  0  1  0  0  3  0  0  0  0  0  0
  185.7770  178.8090  144.8960 C   0  0  2  0  0  3  0  0  0  0  0  0
  185.4800  179.1260  147.2730 O   0  0  0  0  0  1  0  0  0  0  0  0
  186.3560  178.6370  146.3020 C   0  0  0  0  0  2  0  0  0  0  0  0
  184.2640  179.0030  144.9400 C   0  0  0  0  0  2  0  0  0  0  0  0
  182.1370  179.0040  143.6340 C   0  0  0  0  0  1  0  0  0  0  0  0
  183.6350  178.7790  143.5740 C   0  0  0  0  0  2  0  0  0  0  0  0
  185.6000  178.4770  141.5960 C   0  0  0  0  0  2  0  0  0  0  0  0
  186.0590  179.2210  140.5060 O   0  0  0  0  0  1  0  0  0  0  0  0
  187.8910  179.0720  136.7580 C   0  0  0  0  0  1  0  0  0  0  0  0
  188.6180  177.8730  136.1760 C   0  0  0  0  0  2  0  0  0  0  0  0
  193.2910  172.8250  135.5980 N   0  0  0  0  0  2  0  0  0  0  0  0
  193.5820  171.7570  136.5360 C   0  0  0  0  0  2  0  0  0  0  0  0
  194.8950  171.1000  136.1600 C   0  0  0  0  0  2  0  0  0  0  0  0
  195.6270  170.7000  137.3910 C   0  0  0  0  0  0  0  0  0  0  0  0
  196.3800  169.6910  137.3760 O   0  0  0  0  0  0  0  0  0  0  0  0
  195.5080  171.4580  138.5500 O   0  0  0  0  0  1  0  0  0  0  0  0
  1 20  1  0  0  0  0
  2 42  1  6  0  0  0
  4  3  1  6  0  0  0
  4  5  1  0  0  0  0
  5 17  1  0  0  0  0
  5 11  1  1  0  0  0
  6 22  1  0  0  0  0
  6 15  1  0  0  0  0
  7 26  1  1  0  0  0
  7  9  1  0  0  0  0
 10  8  2  0  0  0  0
 10 17  1  0  0  0  0
 11 18  1  0  0  0  0
 12 41  1  6  0  0  0
 12 10  1  0  0  0  0
 13  2  1  0  0  0  0
 13 23  1  0  0  0  0
 14  2  1  0  0  0  0
 14  3  1  0  0  0  0
 16 19  2  0  0  0  0
 16 14  1  0  0  0  0
 17  7  1  0  0  0  0
 18  9  1  0  0  0  0
 19 25  1  0  0  0  0
 20 15  2  0  0  0  0
 21  4  1  0  0  0  0
 21 22  1  0  0  0  0
 23  6  2  0  0  0  0
 24 23  1  0  0  0  0
 24  1  2  0  0  0  0
 25  3  2  0  0  0  0
 25 12  1  0  0  0  0
 26 27  1  0  0  0  0
 27 29  1  0  0  0  0
 28 26  2  0  0  0  0
 29 38  1  6  0  0  0
 29 31  1  0  0  0  0
 31 30  1  1  0  0  0
 31 32  1  0  0  0  0
 32 35  1  1  0  0  0
 32 34  1  0  0  0  0
 34 33  1  0  0  0  0
 37 36  1  0  0  0  0
 37 35  1  0  0  0  0
 39 38  1  0  0  0  0
 41 40  1  0  0  0  0
 42 43  1  0  0  0  0
 44 43  1  0  0  0  0
 44 45  1  0  0  0  0
 45 47  1  0  0  0  0
 46 45  2  0  0  0  0
M  END
>  <MODEL>
9

>  <REMARK>
 VINA RESULT:      -6.3      6.004      9.597
  Name = 
  13 active torsions:
  status: ('A' for Active; 'I' for Inactive)
    1  A    between atoms: C_2  and  N_17
    2  A    between atoms: C_6  and  C_39
    3  A    between atoms: CA_12  and  C_31
    4  A    between atoms: CA_12  and  N_34
    5  A    between atoms: CA_12  and  C_35
    6  A    between atoms: C_14  and  C_22
    7  A    between atoms: C_15  and  C_29
    8  A    between atoms: C_16  and  C_27
    9  A    between atoms: N_17  and  C_26
   10  A    between atoms: C_23  and  C_40
   11  A    between atoms: C_26  and  C_39
   12  A    between atoms: C_27  and  C_31
   13  A    between atoms: C_27  and  C_40
                            x       y       z     vdW  Elec       q    Type
                         _______ _______ _______ _____ _____    ______ ____

>  <TORSDO>
F 13

$$$$
