=
 OpenBabel10222415233D

 47 53  0  0  1  0  0  0  0  0999 V2000
  185.4910  179.4250  142.8600 C   0  0  1  0  0  3  0  0  0  0  0  0
  184.2020  178.7420  142.7360 C   0  0  2  0  0  0  0  0  0  0  0  0
  185.3390  178.0470  143.3790 N   0  0  0  0  0  0  0  0  0  0  0  0
  186.0630  179.4440  141.4340 C   0  0  2  0  0  3  0  0  0  0  0  0
  184.0330  178.4770  141.2840 C   0  0  0  0  0  0  0  0  0  0  0  0
  183.1180  179.4170  143.5730 C   0  0  0  0  0  1  0  0  0  0  0  0
  185.0490  178.8460  140.5850 N   0  0  0  0  0  0  0  0  0  0  0  0
  180.6880  176.4780  139.5800 C   0  0  0  0  0  3  0  0  0  0  0  0
  183.0720  176.6840  139.8360 C   0  0  0  0  0  3  0  0  0  0  0  0
  182.8790  177.7800  140.6860 C   0  0  0  0  0  0  0  0  0  0  0  0
  181.9780  176.0250  139.2730 C   0  0  0  0  0  0  0  0  0  0  0  0
  181.5720  178.1940  140.9600 C   0  0  0  0  0  3  0  0  0  0  0  0
  180.5140  177.5410  140.4080 N   0  0  0  0  0  0  0  0  0  0  0  0
  182.2040  174.9370  138.4190 O   0  0  0  0  0  0  0  0  0  0  0  0
  183.2740  174.8690  137.4780 C   0  0  0  0  0  0  0  0  0  0  0  0
  184.3980  174.3290  138.0770 F   0  0  0  0  0  0  0  0  0  0  0  0
  183.5630  176.1350  136.9970 F   0  0  0  0  0  0  0  0  0  0  0  0
  182.8960  174.0620  136.4220 F   0  0  0  0  0  0  0  0  0  0  0  0
  185.2320  178.1560  144.7720 N   0  0  0  0  0  2  0  0  0  0  0  0
  186.1500  177.2450  145.3250 N   0  0  0  0  0  2  0  0  0  0  0  0
  189.2710  176.8430  146.1210 C   0  0  2  0  0  3  0  0  0  0  0  0
  188.1650  177.7160  146.7050 C   0  0  0  0  0  2  0  0  0  0  0  0
  190.5820  177.6360  146.2280 C   0  0  0  0  0  2  0  0  0  0  0  0
  188.5430  176.8710  144.7620 C   0  0  1  0  0  3  0  0  0  0  0  0
  191.3190  177.7810  144.9080 C   0  0  0  0  0  2  0  0  0  0  0  0
  187.5030  177.8190  145.3360 C   0  0  1  0  0  3  0  0  0  0  0  0
  189.2940  177.4510  143.5530 C   0  0  0  0  0  2  0  0  0  0  0  0
  190.3870  178.4400  143.9150 C   0  0  0  0  0  2  0  0  0  0  0  0
  187.3700  178.6690  141.3430 C   0  0  0  0  0  2  0  0  0  0  0  0
  188.7390  177.1860  139.9180 C   0  0  0  0  0  2  0  0  0  0  0  0
  188.9290  178.6070  139.4320 C   0  0  2  0  0  3  0  0  0  0  0  0
  187.5710  178.1490  139.9350 C   0  0  2  0  0  3  0  0  0  0  0  0
  188.8650  177.4540  137.1770 N   0  0  0  0  0  2  0  0  0  0  0  0
  188.9110  178.6630  137.9400 C   0  0  0  0  0  0  0  0  0  0  0  0
  188.9690  179.7790  137.3600 O   0  0  0  0  0  0  0  0  0  0  0  0
  186.8400  172.7630  136.1460 C   0  0  0  0  0  2  0  0  0  0  0  0
  189.8910  176.3650  135.1630 C   0  0  0  0  0  2  0  0  0  0  0  0
  188.9490  177.4530  135.7200 C   0  0  1  0  0  3  0  0  0  0  0  0
  191.2840  173.5900  134.5970 O   0  0  0  0  0  1  0  0  0  0  0  0
  187.0410  175.1500  135.7450 C   0  0  0  0  0  3  0  0  0  0  0  0
  190.0930  175.1840  136.1150 C   0  0  0  0  0  2  0  0  0  0  0  0
  190.1690  173.8950  135.3660 C   0  0  0  0  0  0  0  0  0  0  0  0
  187.5730  177.4430  135.0980 C   0  0  0  0  0  3  0  0  0  0  0  0
  188.1210  172.2780  135.5210 C   0  0  0  0  0  3  0  0  0  0  0  0
  186.7180  176.4180  135.1020 C   0  0  0  0  0  3  0  0  0  0  0  0
  186.3620  174.0380  135.5150 C   0  0  0  0  0  3  0  0  0  0  0  0
  189.1720  173.0540  135.4430 C   0  0  0  0  0  0  0  0  0  0  0  0
  1  3  1  1  0  0  0
  2  1  1  0  0  0  0
  2  3  1  0  0  0  0
  2  6  1  1  0  0  0
  3 19  1  0  0  0  0
  4 29  1  1  0  0  0
  4  1  1  0  0  0  0
  5  2  1  0  0  0  0
  7  5  2  0  0  0  0
  7  4  1  0  0  0  0
  8 13  1  0  0  0  0
  9 10  2  0  0  0  0
 10 12  1  0  0  0  0
 10  5  1  0  0  0  0
 11  8  2  0  0  0  0
 11  9  1  0  0  0  0
 13 12  2  0  0  0  0
 14 11  1  0  0  0  0
 15 16  1  0  0  0  0
 15 14  1  0  0  0  0
 17 15  1  0  0  0  0
 18 15  1  0  0  0  0
 19 20  1  0  0  0  0
 21 23  1  6  0  0  0
 21 22  1  0  0  0  0
 24 27  1  6  0  0  0
 24 26  1  0  0  0  0
 24 21  1  0  0  0  0
 25 23  1  0  0  0  0
 26 20  1  1  0  0  0
 26 22  1  0  0  0  0
 27 28  1  0  0  0  0
 28 25  1  0  0  0  0
 30 32  1  0  0  0  0
 31 34  1  6  0  0  0
 31 30  1  0  0  0  0
 31 32  1  0  0  0  0
 32 29  1  1  0  0  0
 33 34  1  0  0  0  0
 35 34  2  0  0  0  0
 37 38  1  0  0  0  0
 37 41  1  0  0  0  0
 38 33  1  1  0  0  0
 39 42  1  0  0  0  0
 42 47  2  0  0  0  0
 42 41  1  0  0  0  0
 43 45  2  0  0  0  0
 43 38  1  0  0  0  0
 44 36  1  0  0  0  0
 45 40  1  0  0  0  0
 46 40  2  0  0  0  0
 46 36  1  0  0  0  0
 47 44  2  0  0  0  0
M  END
>  <MODEL>
1

>  <REMARK>
 VINA RESULT:      -8.5      0.000      0.000
  Name = 
  10 active torsions:
  status: ('A' for Active; 'I' for Inactive)
    1  A    between atoms: N_3  and  C_5
    2  A    between atoms: C_6  and  C_38
    3  A    between atoms: C_12  and  O_18
    4  A    between atoms: N_16  and  N_24
    5  A    between atoms: N_16  and  N_32
    6  A    between atoms: O_18  and  C_41
    7  A    between atoms: C_21  and  C_26
    8  A    between atoms: C_21  and  C_45
    9  A    between atoms: C_27  and  N_32
   10  A    between atoms: C_29  and  C_39
                            x       y       z     vdW  Elec       q    Type
                         _______ _______ _______ _____ _____    ______ ____

>  <TORSDO>
F 10

$$$$
=
 OpenBabel10222415233D

 47 53  0  0  1  0  0  0  0  0999 V2000
  186.9580  177.4670  142.2740 C   0  0  1  0  0  3  0  0  0  0  0  0
  186.8240  177.8850  143.6710 C   0  0  2  0  0  0  0  0  0  0  0  0
  187.0300  178.9050  142.6190 N   0  0  0  0  0  0  0  0  0  0  0  0
  188.3510  176.8240  142.1900 C   0  0  2  0  0  3  0  0  0  0  0  0
  188.0590  177.4100  144.3460 C   0  0  0  0  0  0  0  0  0  0  0  0
  185.4300  177.5930  144.2210 C   0  0  0  0  0  1  0  0  0  0  0  0
  188.8880  176.8490  143.5380 N   0  0  0  0  0  0  0  0  0  0  0  0
  188.9460  178.0550  148.4560 C   0  0  0  0  0  3  0  0  0  0  0  0
  189.6510  177.3390  146.2690 C   0  0  0  0  0  3  0  0  0  0  0  0
  188.3740  177.6270  145.7700 C   0  0  0  0  0  0  0  0  0  0  0  0
  189.9480  177.5470  147.6170 C   0  0  0  0  0  0  0  0  0  0  0  0
  187.4100  178.1310  146.6490 C   0  0  0  0  0  3  0  0  0  0  0  0
  187.7120  178.3330  147.9590 N   0  0  0  0  0  0  0  0  0  0  0  0
  191.2310  177.2410  148.0870 O   0  0  0  0  0  0  0  0  0  0  0  0
  191.9900  176.1120  147.6580 C   0  0  0  0  0  0  0  0  0  0  0  0
  192.3860  176.2800  146.3430 F   0  0  0  0  0  0  0  0  0  0  0  0
  191.2330  174.9590  147.7760 F   0  0  0  0  0  0  0  0  0  0  0  0
  193.1150  175.9950  148.4530 F   0  0  0  0  0  0  0  0  0  0  0  0
  185.7970  179.4640  142.2550 N   0  0  0  0  0  2  0  0  0  0  0  0
  185.7290  179.4250  140.8510 N   0  0  0  0  0  2  0  0  0  0  0  0
  183.3940  177.3950  139.8680 C   0  0  2  0  0  3  0  0  0  0  0  0
  184.2230  178.4420  139.1310 C   0  0  0  0  0  2  0  0  0  0  0  0
  181.9870  177.4110  139.2510 C   0  0  0  0  0  2  0  0  0  0  0  0
  183.5950  178.1890  141.1750 C   0  0  1  0  0  3  0  0  0  0  0  0
  180.8750  177.6120  140.2670 C   0  0  0  0  0  2  0  0  0  0  0  0
  184.3370  179.2710  140.4070 C   0  0  1  0  0  3  0  0  0  0  0  0
  182.3460  178.7080  141.9040 C   0  0  0  0  0  2  0  0  0  0  0  0
  181.1390  178.9050  141.0070 C   0  0  0  0  0  2  0  0  0  0  0  0
  189.2620  177.5800  141.2310 C   0  0  0  0  0  2  0  0  0  0  0  0
  190.3140  176.6230  139.2130 C   0  0  0  0  0  2  0  0  0  0  0  0
  189.8120  178.0080  138.8660 C   0  0  2  0  0  3  0  0  0  0  0  0
  189.0160  177.1230  139.8090 C   0  0  2  0  0  3  0  0  0  0  0  0
  188.7060  176.7880  136.9390 N   0  0  0  0  0  2  0  0  0  0  0  0
  189.1590  178.0130  137.5230 C   0  0  0  0  0  0  0  0  0  0  0  0
  189.0400  179.0980  136.8950 O   0  0  0  0  0  0  0  0  0  0  0  0
  184.5460  173.7610  137.7770 C   0  0  0  0  0  2  0  0  0  0  0  0
  188.1640  175.3070  134.9890 C   0  0  0  0  0  2  0  0  0  0  0  0
  188.1570  176.7280  135.5900 C   0  0  1  0  0  3  0  0  0  0  0  0
  187.7520  172.2020  134.5940 O   0  0  0  0  0  1  0  0  0  0  0  0
  185.6220  175.7120  136.8090 C   0  0  0  0  0  3  0  0  0  0  0  0
  188.1860  174.1970  136.0430 C   0  0  0  0  0  2  0  0  0  0  0  0
  187.3420  173.0390  135.6230 C   0  0  0  0  0  0  0  0  0  0  0  0
  186.8110  177.4100  135.5210 C   0  0  0  0  0  3  0  0  0  0  0  0
  185.0650  172.6860  136.8590 C   0  0  0  0  0  3  0  0  0  0  0  0
  185.6760  176.9610  136.0610 C   0  0  0  0  0  3  0  0  0  0  0  0
  184.4870  175.0950  137.0920 C   0  0  0  0  0  3  0  0  0  0  0  0
  186.2100  172.8210  136.2380 C   0  0  0  0  0  0  0  0  0  0  0  0
  1  3  1  6  0  0  0
  1  2  1  0  0  0  0
  2  6  1  1  0  0  0
  2  5  1  0  0  0  0
  3  2  1  0  0  0  0
  4 29  1  6  0  0  0
  4  1  1  0  0  0  0
  4  7  1  0  0  0  0
  5 10  1  0  0  0  0
  7  5  2  0  0  0  0
  9 11  1  0  0  0  0
 10  9  2  0  0  0  0
 10 12  1  0  0  0  0
 11 14  1  0  0  0  0
 11  8  2  0  0  0  0
 12 13  2  0  0  0  0
 13  8  1  0  0  0  0
 15 17  1  0  0  0  0
 15 14  1  0  0  0  0
 15 18  1  0  0  0  0
 16 15  1  0  0  0  0
 19  3  1  0  0  0  0
 20 19  1  0  0  0  0
 21 22  1  6  0  0  0
 21 24  1  0  0  0  0
 22 26  1  0  0  0  0
 23 21  1  0  0  0  0
 23 25  1  0  0  0  0
 24 27  1  6  0  0  0
 25 28  1  0  0  0  0
 26 20  1  1  0  0  0
 26 24  1  0  0  0  0
 28 27  1  0  0  0  0
 30 32  1  0  0  0  0
 31 34  1  6  0  0  0
 31 30  1  0  0  0  0
 31 32  1  0  0  0  0
 32 29  1  1  0  0  0
 33 34  1  0  0  0  0
 35 34  2  0  0  0  0
 37 38  1  0  0  0  0
 37 41  1  0  0  0  0
 38 33  1  1  0  0  0
 39 42  1  0  0  0  0
 40 46  2  0  0  0  0
 42 41  1  0  0  0  0
 42 47  2  0  0  0  0
 43 38  1  0  0  0  0
 43 45  2  0  0  0  0
 44 36  1  0  0  0  0
 45 40  1  0  0  0  0
 46 36  1  0  0  0  0
 47 44  2  0  0  0  0
M  END
>  <MODEL>
2

>  <REMARK>
 VINA RESULT:      -8.4      3.877      7.102
  Name = 
  10 active torsions:
  status: ('A' for Active; 'I' for Inactive)
    1  A    between atoms: N_3  and  C_5
    2  A    between atoms: C_6  and  C_38
    3  A    between atoms: C_12  and  O_18
    4  A    between atoms: N_16  and  N_24
    5  A    between atoms: N_16  and  N_32
    6  A    between atoms: O_18  and  C_41
    7  A    between atoms: C_21  and  C_26
    8  A    between atoms: C_21  and  C_45
    9  A    between atoms: C_27  and  N_32
   10  A    between atoms: C_29  and  C_39
                            x       y       z     vdW  Elec       q    Type
                         _______ _______ _______ _____ _____    ______ ____

>  <TORSDO>
F 10

$$$$
=
 OpenBabel10222415233D

 47 53  0  0  1  0  0  0  0  0999 V2000
  190.2360  177.6940  138.4040 C   0  0  1  0  0  3  0  0  0  0  0  0
  189.8600  177.4150  139.7910 C   0  0  2  0  0  0  0  0  0  0  0  0
  189.8560  176.3190  138.7980 N   0  0  0  0  0  0  0  0  0  0  0  0
  189.0480  178.4770  137.8250 C   0  0  2  0  0  3  0  0  0  0  0  0
  188.5550  178.0970  139.9910 C   0  0  0  0  0  0  0  0  0  0  0  0
  191.0350  177.6050  140.7480 C   0  0  0  0  0  1  0  0  0  0  0  0
  188.1130  178.6580  138.9210 N   0  0  0  0  0  0  0  0  0  0  0  0
  186.2950  178.0420  143.5940 C   0  0  0  0  0  3  0  0  0  0  0  0
  188.2940  177.4550  142.3900 C   0  0  0  0  0  3  0  0  0  0  0  0
  187.7770  178.0700  141.2430 C   0  0  0  0  0  0  0  0  0  0  0  0
  187.5570  177.4320  143.5750 C   0  0  0  0  0  0  0  0  0  0  0  0
  186.5120  178.6630  141.3140 C   0  0  0  0  0  3  0  0  0  0  0  0
  185.8050  178.6380  142.4750 N   0  0  0  0  0  0  0  0  0  0  0  0
  188.0990  176.8010  144.7030 O   0  0  0  0  0  0  0  0  0  0  0  0
  188.7730  177.4880  145.7550 C   0  0  0  0  0  0  0  0  0  0  0  0
  187.8510  178.0540  146.6180 F   0  0  0  0  0  0  0  0  0  0  0  0
  189.5910  178.4740  145.2300 F   0  0  0  0  0  0  0  0  0  0  0  0
  189.5500  176.5860  146.4580 F   0  0  0  0  0  0  0  0  0  0  0  0
  191.0490  175.5880  138.8960 N   0  0  0  0  0  2  0  0  0  0  0  0
  190.9370  174.5020  138.0090 N   0  0  0  0  0  2  0  0  0  0  0  0
  193.3200  176.1240  136.5150 C   0  0  2  0  0  3  0  0  0  0  0  0
  192.0520  175.4520  135.9980 C   0  0  0  0  0  2  0  0  0  0  0  0
  194.4090  175.9230  135.4510 C   0  0  0  0  0  2  0  0  0  0  0  0
  193.3200  175.1500  137.7120 C   0  0  1  0  0  3  0  0  0  0  0  0
  195.6790  175.2850  135.9870 C   0  0  0  0  0  2  0  0  0  0  0  0
  192.1130  174.4320  137.1300 C   0  0  1  0  0  3  0  0  0  0  0  0
  194.5410  174.2360  137.8980 C   0  0  0  0  0  2  0  0  0  0  0  0
  195.3130  173.9600  136.6210 C   0  0  0  0  0  2  0  0  0  0  0  0
  188.3910  177.7300  136.6720 C   0  0  0  0  0  2  0  0  0  0  0  0
  187.7750  175.3580  136.3630 C   0  0  0  0  0  2  0  0  0  0  0  0
  186.5350  176.1970  136.1360 C   0  0  2  0  0  3  0  0  0  0  0  0
  187.5400  176.5960  137.2030 C   0  0  2  0  0  3  0  0  0  0  0  0
  184.2410  176.3800  137.1970 N   0  0  0  0  0  2  0  0  0  0  0  0
  185.3460  175.5700  136.7860 C   0  0  0  0  0  0  0  0  0  0  0  0
  185.3380  174.3280  136.9990 O   0  0  0  0  0  0  0  0  0  0  0  0
  181.1520  180.5740  137.3840 C   0  0  0  0  0  2  0  0  0  0  0  0
  182.8760  176.4980  139.2980 C   0  0  0  0  0  2  0  0  0  0  0  0
  183.1040  175.8290  137.9270 C   0  0  1  0  0  3  0  0  0  0  0  0
  182.4530  178.6550  141.5630 O   0  0  0  0  0  1  0  0  0  0  0  0
  181.5350  178.2050  137.0120 C   0  0  0  0  0  3  0  0  0  0  0  0
  183.4570  177.9110  139.3940 C   0  0  0  0  0  2  0  0  0  0  0  0
  182.5640  178.8070  140.1870 C   0  0  0  0  0  0  0  0  0  0  0  0
  181.8700  175.7870  137.0570 C   0  0  0  0  0  3  0  0  0  0  0  0
  181.2000  180.6200  138.8890 C   0  0  0  0  0  3  0  0  0  0  0  0
  181.1640  176.8440  136.6480 C   0  0  0  0  0  3  0  0  0  0  0  0
  180.7100  179.2310  136.8830 C   0  0  0  0  0  3  0  0  0  0  0  0
  181.8880  179.7390  139.5710 C   0  0  0  0  0  0  0  0  0  0  0  0
  1  3  1  6  0  0  0
  1  2  1  0  0  0  0
  2  5  1  0  0  0  0
  2  6  1  1  0  0  0
  3 19  1  0  0  0  0
  3  2  1  0  0  0  0
  4 29  1  6  0  0  0
  4  1  1  0  0  0  0
  4  7  1  0  0  0  0
  5 10  1  0  0  0  0
  7  5  2  0  0  0  0
  9 11  2  0  0  0  0
 10 12  2  0  0  0  0
 10  9  1  0  0  0  0
 11  8  1  0  0  0  0
 11 14  1  0  0  0  0
 12 13  1  0  0  0  0
 13  8  2  0  0  0  0
 14 15  1  0  0  0  0
 15 18  1  0  0  0  0
 15 16  1  0  0  0  0
 17 15  1  0  0  0  0
 20 19  1  0  0  0  0
 21 23  1  6  0  0  0
 21 24  1  0  0  0  0
 22 21  1  0  0  0  0
 22 26  1  0  0  0  0
 23 25  1  0  0  0  0
 24 27  1  6  0  0  0
 25 28  1  0  0  0  0
 26 24  1  0  0  0  0
 26 20  1  1  0  0  0
 28 27  1  0  0  0  0
 30 32  1  0  0  0  0
 31 30  1  0  0  0  0
 31 34  1  1  0  0  0
 31 32  1  0  0  0  0
 32 29  1  6  0  0  0
 34 35  2  0  0  0  0
 34 33  1  0  0  0  0
 36 44  1  0  0  0  0
 37 41  1  0  0  0  0
 38 33  1  6  0  0  0
 38 37  1  0  0  0  0
 41 42  1  0  0  0  0
 42 39  1  0  0  0  0
 43 38  1  0  0  0  0
 44 47  2  0  0  0  0
 45 40  1  0  0  0  0
 45 43  2  0  0  0  0
 46 40  2  0  0  0  0
 46 36  1  0  0  0  0
 47 42  2  0  0  0  0
M  END
>  <MODEL>
3

>  <REMARK>
 VINA RESULT:      -8.0      3.844      8.138
  Name = 
  10 active torsions:
  status: ('A' for Active; 'I' for Inactive)
    1  A    between atoms: N_3  and  C_5
    2  A    between atoms: C_6  and  C_38
    3  A    between atoms: C_12  and  O_18
    4  A    between atoms: N_16  and  N_24
    5  A    between atoms: N_16  and  N_32
    6  A    between atoms: O_18  and  C_41
    7  A    between atoms: C_21  and  C_26
    8  A    between atoms: C_21  and  C_45
    9  A    between atoms: C_27  and  N_32
   10  A    between atoms: C_29  and  C_39
                            x       y       z     vdW  Elec       q    Type
                         _______ _______ _______ _____ _____    ______ ____

>  <TORSDO>
F 10

$$$$
=
 OpenBabel10222415233D

 47 53  0  0  1  0  0  0  0  0999 V2000
  185.7050  179.3350  142.4520 C   0  0  1  0  0  3  0  0  0  0  0  0
  184.4200  178.7210  142.1100 C   0  0  2  0  0  0  0  0  0  0  0  0
  185.4340  177.9350  142.8480 N   0  0  0  0  0  0  0  0  0  0  0  0
  186.4650  179.4210  141.1200 C   0  0  2  0  0  3  0  0  0  0  0  0
  184.4400  178.5590  140.6340 C   0  0  0  0  0  0  0  0  0  0  0  0
  183.2580  179.3880  142.8430 C   0  0  0  0  0  1  0  0  0  0  0  0
  185.5540  178.9260  140.1040 N   0  0  0  0  0  0  0  0  0  0  0  0
  181.3000  176.8430  138.3340 C   0  0  0  0  0  3  0  0  0  0  0  0
  182.7520  176.7590  140.2510 C   0  0  0  0  0  3  0  0  0  0  0  0
  183.3540  177.9550  139.8410 C   0  0  0  0  0  0  0  0  0  0  0  0
  181.7220  176.1910  139.5000 C   0  0  0  0  0  0  0  0  0  0  0  0
  182.8970  178.5670  138.6680 C   0  0  0  0  0  3  0  0  0  0  0  0
  181.8900  178.0050  137.9470 N   0  0  0  0  0  0  0  0  0  0  0  0
  181.1470  174.9880  139.9330 O   0  0  0  0  0  0  0  0  0  0  0  0
  179.8360  174.8830  140.4830 C   0  0  0  0  0  0  0  0  0  0  0  0
  179.8170  173.9280  141.4830 F   0  0  0  0  0  0  0  0  0  0  0  0
  178.9310  174.5430  139.4920 F   0  0  0  0  0  0  0  0  0  0  0  0
  179.4740  176.1040  141.0230 F   0  0  0  0  0  0  0  0  0  0  0  0
  185.1440  177.9570  144.2190 N   0  0  0  0  0  2  0  0  0  0  0  0
  186.0620  177.0960  144.8450 N   0  0  0  0  0  2  0  0  0  0  0  0
  189.0830  176.9450  146.0230 C   0  0  2  0  0  3  0  0  0  0  0  0
  187.8980  177.8490  146.3450 C   0  0  0  0  0  2  0  0  0  0  0  0
  190.3550  177.7980  146.1480 C   0  0  0  0  0  2  0  0  0  0  0  0
  188.5110  176.7400  144.6050 C   0  0  1  0  0  3  0  0  0  0  0  0
  191.2310  177.7740  144.9070 C   0  0  0  0  0  2  0  0  0  0  0  0
  187.3910  177.7200  144.9130 C   0  0  1  0  0  3  0  0  0  0  0  0
  189.3790  177.1640  143.4100 C   0  0  0  0  0  2  0  0  0  0  0  0
  190.4000  178.2400  143.7310 C   0  0  0  0  0  2  0  0  0  0  0  0
  187.7440  178.5950  141.1480 C   0  0  0  0  0  2  0  0  0  0  0  0
  189.3480  177.3680  139.7270 C   0  0  0  0  0  2  0  0  0  0  0  0
  188.9360  178.6240  138.9890 C   0  0  2  0  0  3  0  0  0  0  0  0
  187.9230  177.8680  139.8320 C   0  0  2  0  0  3  0  0  0  0  0  0
  187.5020  177.6520  137.1390 N   0  0  0  0  0  2  0  0  0  0  0  0
  188.6930  178.3330  137.5450 C   0  0  0  0  0  0  0  0  0  0  0  0
  189.5580  178.6630  136.6910 O   0  0  0  0  0  0  0  0  0  0  0  0
  184.2210  173.6680  137.8700 C   0  0  0  0  0  2  0  0  0  0  0  0
  187.7730  175.8330  135.4330 C   0  0  0  0  0  2  0  0  0  0  0  0
  187.2680  177.2550  135.7550 C   0  0  1  0  0  3  0  0  0  0  0  0
  188.2920  172.7220  135.5540 O   0  0  0  0  0  1  0  0  0  0  0  0
  184.9070  175.7050  136.7380 C   0  0  0  0  0  3  0  0  0  0  0  0
  187.8810  174.9280  136.6630 C   0  0  0  0  0  2  0  0  0  0  0  0
  187.4770  173.5280  136.3380 C   0  0  0  0  0  0  0  0  0  0  0  0
  185.8300  177.4940  135.3580 C   0  0  0  0  0  3  0  0  0  0  0  0
  185.1790  172.6830  137.2550 C   0  0  0  0  0  3  0  0  0  0  0  0
  184.7720  176.8040  135.7910 C   0  0  0  0  0  3  0  0  0  0  0  0
  183.9450  174.8230  136.9530 C   0  0  0  0  0  3  0  0  0  0  0  0
  186.3470  173.0680  136.8020 C   0  0  0  0  0  0  0  0  0  0  0  0
  1  3  1  1  0  0  0
  2  1  1  0  0  0  0
  2  6  1  1  0  0  0
  2  3  1  0  0  0  0
  3 19  1  0  0  0  0
  4 29  1  1  0  0  0
  4  1  1  0  0  0  0
  5  2  1  0  0  0  0
  7  5  2  0  0  0  0
  7  4  1  0  0  0  0
  8 11  1  0  0  0  0
 10  9  1  0  0  0  0
 10  5  1  0  0  0  0
 11 14  1  0  0  0  0
 11  9  2  0  0  0  0
 12 10  2  0  0  0  0
 13  8  2  0  0  0  0
 13 12  1  0  0  0  0
 14 15  1  0  0  0  0
 15 18  1  0  0  0  0
 15 16  1  0  0  0  0
 17 15  1  0  0  0  0
 19 20  1  0  0  0  0
 21 23  1  6  0  0  0
 21 22  1  0  0  0  0
 24 27  1  6  0  0  0
 24 26  1  0  0  0  0
 24 21  1  0  0  0  0
 25 23  1  0  0  0  0
 26 20  1  1  0  0  0
 26 22  1  0  0  0  0
 27 28  1  0  0  0  0
 28 25  1  0  0  0  0
 30 32  1  0  0  0  0
 31 34  1  6  0  0  0
 31 30  1  0  0  0  0
 31 32  1  0  0  0  0
 32 29  1  1  0  0  0
 33 34  1  0  0  0  0
 35 34  2  0  0  0  0
 37 38  1  0  0  0  0
 37 41  1  0  0  0  0
 38 33  1  1  0  0  0
 39 42  1  0  0  0  0
 40 46  2  0  0  0  0
 42 41  1  0  0  0  0
 42 47  2  0  0  0  0
 43 38  1  0  0  0  0
 43 45  2  0  0  0  0
 44 36  1  0  0  0  0
 45 40  1  0  0  0  0
 46 36  1  0  0  0  0
 47 44  2  0  0  0  0
M  END
>  <MODEL>
4

>  <REMARK>
 VINA RESULT:      -7.9      1.845      2.254
  Name = 
  10 active torsions:
  status: ('A' for Active; 'I' for Inactive)
    1  A    between atoms: N_3  and  C_5
    2  A    between atoms: C_6  and  C_38
    3  A    between atoms: C_12  and  O_18
    4  A    between atoms: N_16  and  N_24
    5  A    between atoms: N_16  and  N_32
    6  A    between atoms: O_18  and  C_41
    7  A    between atoms: C_21  and  C_26
    8  A    between atoms: C_21  and  C_45
    9  A    between atoms: C_27  and  N_32
   10  A    between atoms: C_29  and  C_39
                            x       y       z     vdW  Elec       q    Type
                         _______ _______ _______ _____ _____    ______ ____

>  <TORSDO>
F 10

$$$$
=
 OpenBabel10222415233D

 47 53  0  0  1  0  0  0  0  0999 V2000
  185.6520  179.3450  142.6730 C   0  0  1  0  0  3  0  0  0  0  0  0
  184.3640  178.7190  142.3650 C   0  0  2  0  0  0  0  0  0  0  0  0
  185.4030  177.9440  143.0800 N   0  0  0  0  0  0  0  0  0  0  0  0
  186.3780  179.4320  141.3220 C   0  0  2  0  0  3  0  0  0  0  0  0
  184.3490  178.5510  140.8890 C   0  0  0  0  0  0  0  0  0  0  0  0
  183.2150  179.3790  143.1240 C   0  0  0  0  0  1  0  0  0  0  0  0
  185.4460  178.9260  140.3300 N   0  0  0  0  0  0  0  0  0  0  0  0
  181.1860  176.7490  138.6900 C   0  0  0  0  0  3  0  0  0  0  0  0
  182.4580  178.7090  139.2670 C   0  0  0  0  0  3  0  0  0  0  0  0
  183.2480  177.9350  140.1260 C   0  0  0  0  0  0  0  0  0  0  0  0
  181.4170  178.1230  138.5430 C   0  0  0  0  0  0  0  0  0  0  0  0
  182.9760  176.5680  140.2370 C   0  0  0  0  0  3  0  0  0  0  0  0
  181.9620  176.0090  139.5240 N   0  0  0  0  0  0  0  0  0  0  0  0
  180.6390  178.9260  137.6990 O   0  0  0  0  0  0  0  0  0  0  0  0
  180.9860  179.2400  136.3520 C   0  0  0  0  0  0  0  0  0  0  0  0
  181.1790  180.6030  136.2180 F   0  0  0  0  0  0  0  0  0  0  0  0
  179.9840  178.8220  135.4930 F   0  0  0  0  0  0  0  0  0  0  0  0
  182.1600  178.5880  136.0250 F   0  0  0  0  0  0  0  0  0  0  0  0
  185.1460  177.9690  144.4580 N   0  0  0  0  0  2  0  0  0  0  0  0
  186.0770  177.1060  145.0630 N   0  0  0  0  0  2  0  0  0  0  0  0
  189.1080  176.9680  146.2160 C   0  0  2  0  0  3  0  0  0  0  0  0
  187.9210  177.8660  146.5500 C   0  0  0  0  0  2  0  0  0  0  0  0
  190.3770  177.8270  146.3320 C   0  0  0  0  0  2  0  0  0  0  0  0
  188.5260  176.7630  144.8030 C   0  0  1  0  0  3  0  0  0  0  0  0
  191.2430  177.8100  145.0840 C   0  0  0  0  0  2  0  0  0  0  0  0
  187.4030  177.7360  145.1210 C   0  0  1  0  0  3  0  0  0  0  0  0
  189.3820  177.1930  143.6010 C   0  0  0  0  0  2  0  0  0  0  0  0
  190.4000  178.2730  143.9160 C   0  0  0  0  0  2  0  0  0  0  0  0
  187.6640  178.6170  141.3210 C   0  0  0  0  0  2  0  0  0  0  0  0
  189.2240  177.3160  139.9170 C   0  0  0  0  0  2  0  0  0  0  0  0
  188.9330  178.6210  139.2070 C   0  0  2  0  0  3  0  0  0  0  0  0
  187.8370  177.9180  139.9900 C   0  0  2  0  0  3  0  0  0  0  0  0
  187.7480  177.4440  137.3000 N   0  0  0  0  0  2  0  0  0  0  0  0
  188.7220  178.3920  137.7460 C   0  0  0  0  0  0  0  0  0  0  0  0
  189.4290  179.0170  136.9120 O   0  0  0  0  0  0  0  0  0  0  0  0
  184.1660  173.6760  137.6740 C   0  0  0  0  0  2  0  0  0  0  0  0
  188.0050  175.6700  135.5460 C   0  0  0  0  0  2  0  0  0  0  0  0
  187.5770  177.1120  135.8900 C   0  0  1  0  0  3  0  0  0  0  0  0
  188.3050  172.5280  135.5790 O   0  0  0  0  0  1  0  0  0  0  0  0
  185.0590  175.6980  136.6650 C   0  0  0  0  0  3  0  0  0  0  0  0
  187.9720  174.7190  136.7440 C   0  0  0  0  0  2  0  0  0  0  0  0
  187.4970  173.3620  136.3420 C   0  0  0  0  0  0  0  0  0  0  0  0
  186.1870  177.4640  135.4150 C   0  0  0  0  0  3  0  0  0  0  0  0
  185.0930  172.6490  137.0810 C   0  0  0  0  0  3  0  0  0  0  0  0
  185.0600  176.8350  135.7550 C   0  0  0  0  0  3  0  0  0  0  0  0
  184.0280  174.8780  136.7860 C   0  0  0  0  0  3  0  0  0  0  0  0
  186.3100  172.9670  136.7160 C   0  0  0  0  0  0  0  0  0  0  0  0
  1  3  1  1  0  0  0
  2  1  1  0  0  0  0
  2  3  1  0  0  0  0
  2  6  1  1  0  0  0
  3 19  1  0  0  0  0
  4 29  1  1  0  0  0
  4  1  1  0  0  0  0
  5  2  1  0  0  0  0
  7  5  2  0  0  0  0
  7  4  1  0  0  0  0
  8 13  1  0  0  0  0
  9 10  2  0  0  0  0
 10 12  1  0  0  0  0
 10  5  1  0  0  0  0
 11  8  2  0  0  0  0
 11  9  1  0  0  0  0
 13 12  2  0  0  0  0
 14 11  1  0  0  0  0
 15 14  1  0  0  0  0
 16 15  1  0  0  0  0
 17 15  1  0  0  0  0
 18 15  1  0  0  0  0
 19 20  1  0  0  0  0
 21 23  1  6  0  0  0
 21 22  1  0  0  0  0
 24 27  1  6  0  0  0
 24 26  1  0  0  0  0
 24 21  1  0  0  0  0
 25 23  1  0  0  0  0
 26 20  1  1  0  0  0
 26 22  1  0  0  0  0
 27 28  1  0  0  0  0
 28 25  1  0  0  0  0
 30 32  1  0  0  0  0
 31 34  1  6  0  0  0
 31 30  1  0  0  0  0
 31 32  1  0  0  0  0
 32 29  1  1  0  0  0
 33 34  1  0  0  0  0
 35 34  2  0  0  0  0
 37 38  1  0  0  0  0
 37 41  1  0  0  0  0
 38 33  1  1  0  0  0
 39 42  1  0  0  0  0
 40 46  2  0  0  0  0
 42 47  2  0  0  0  0
 42 41  1  0  0  0  0
 43 45  2  0  0  0  0
 43 38  1  0  0  0  0
 44 36  1  0  0  0  0
 45 40  1  0  0  0  0
 46 36  1  0  0  0  0
 47 44  2  0  0  0  0
M  END
>  <MODEL>
5

>  <REMARK>
 VINA RESULT:      -7.7      1.767      2.300
  Name = 
  10 active torsions:
  status: ('A' for Active; 'I' for Inactive)
    1  A    between atoms: N_3  and  C_5
    2  A    between atoms: C_6  and  C_38
    3  A    between atoms: C_12  and  O_18
    4  A    between atoms: N_16  and  N_24
    5  A    between atoms: N_16  and  N_32
    6  A    between atoms: O_18  and  C_41
    7  A    between atoms: C_21  and  C_26
    8  A    between atoms: C_21  and  C_45
    9  A    between atoms: C_27  and  N_32
   10  A    between atoms: C_29  and  C_39
                            x       y       z     vdW  Elec       q    Type
                         _______ _______ _______ _____ _____    ______ ____

>  <TORSDO>
F 10

$$$$
=
 OpenBabel10222415233D

 47 53  0  0  1  0  0  0  0  0999 V2000
  183.8230  178.0780  139.7360 C   0  0  1  0  0  3  0  0  0  0  0  0
  183.2860  178.6940  138.5210 C   0  0  2  0  0  0  0  0  0  0  0  0
  184.5450  179.2050  139.1050 N   0  0  0  0  0  0  0  0  0  0  0  0
  182.8890  178.5490  140.8600 C   0  0  2  0  0  3  0  0  0  0  0  0
  182.0520  179.4030  138.9500 C   0  0  0  0  0  0  0  0  0  0  0  0
  183.3020  177.7280  137.3380 C   0  0  0  0  0  1  0  0  0  0  0  0
  181.8490  179.3330  140.2190 N   0  0  0  0  0  0  0  0  0  0  0  0
  179.5470  181.6570  136.3550 C   0  0  0  0  0  3  0  0  0  0  0  0
  181.1260  181.5860  138.1700 C   0  0  0  0  0  3  0  0  0  0  0  0
  181.1840  180.1920  138.0570 C   0  0  0  0  0  0  0  0  0  0  0  0
  180.3050  182.3320  137.3220 C   0  0  0  0  0  0  0  0  0  0  0  0
  180.4070  179.5670  137.0770 C   0  0  0  0  0  3  0  0  0  0  0  0
  179.6140  180.3040  136.2540 N   0  0  0  0  0  0  0  0  0  0  0  0
  180.2630  183.7250  137.4670 O   0  0  0  0  0  0  0  0  0  0  0  0
  181.1800  184.6200  136.8410 C   0  0  0  0  0  0  0  0  0  0  0  0
  182.3320  184.7240  137.5990 F   0  0  0  0  0  0  0  0  0  0  0  0
  180.5990  185.8700  136.6970 F   0  0  0  0  0  0  0  0  0  0  0  0
  181.5080  184.1300  135.5910 F   0  0  0  0  0  0  0  0  0  0  0  0
  185.6400  178.6480  138.4280 N   0  0  0  0  0  2  0  0  0  0  0  0
  186.7140  178.6280  139.3350 N   0  0  0  0  0  2  0  0  0  0  0  0
  189.1680  178.0770  137.2830 C   0  0  2  0  0  3  0  0  0  0  0  0
  187.7520  177.5160  137.3660 C   0  0  0  0  0  2  0  0  0  0  0  0
  190.0800  176.9400  136.7980 C   0  0  0  0  0  2  0  0  0  0  0  0
  189.1260  178.3450  138.8010 C   0  0  1  0  0  3  0  0  0  0  0  0
  191.2680  176.6790  137.7080 C   0  0  0  0  0  2  0  0  0  0  0  0
  187.7550  177.6950  138.8810 C   0  0  1  0  0  3  0  0  0  0  0  0
  190.1790  177.6560  139.6840 C   0  0  0  0  0  2  0  0  0  0  0  0
  190.7440  176.3770  139.0960 C   0  0  0  0  0  2  0  0  0  0  0  0
  183.6320  179.3820  141.8960 C   0  0  0  0  0  2  0  0  0  0  0  0
  183.0560  179.2230  144.2930 C   0  0  0  0  0  2  0  0  0  0  0  0
  184.5490  179.4460  144.1850 C   0  0  2  0  0  3  0  0  0  0  0  0
  183.8320  178.5790  143.1640 C   0  0  2  0  0  3  0  0  0  0  0  0
  186.5350  177.9850  144.7730 N   0  0  0  0  0  2  0  0  0  0  0  0
  185.2850  178.5720  145.1470 C   0  0  0  0  0  0  0  0  0  0  0  0
  184.7820  178.3310  146.2760 O   0  0  0  0  0  0  0  0  0  0  0  0
  191.4700  179.1750  143.5910 C   0  0  0  0  0  2  0  0  0  0  0  0
  188.0680  176.0020  144.8590 C   0  0  0  0  0  2  0  0  0  0  0  0
  187.2390  177.0440  145.6370 C   0  0  1  0  0  3  0  0  0  0  0  0
  190.0930  174.6600  142.8430 O   0  0  0  0  0  1  0  0  0  0  0  0
  189.7030  178.6770  145.1820 C   0  0  0  0  0  3  0  0  0  0  0  0
  188.4620  176.4590  143.4520 C   0  0  0  0  0  2  0  0  0  0  0  0
  189.8390  176.0010  143.1030 C   0  0  0  0  0  0  0  0  0  0  0  0
  188.0240  177.7710  146.7040 C   0  0  0  0  0  3  0  0  0  0  0  0
  191.7390  177.7960  143.0500 C   0  0  0  0  0  3  0  0  0  0  0  0
  189.1250  178.4990  146.5080 C   0  0  0  0  0  3  0  0  0  0  0  0
  190.9330  179.1270  144.9910 C   0  0  0  0  0  3  0  0  0  0  0  0
  190.8060  176.8770  143.0440 C   0  0  0  0  0  0  0  0  0  0  0  0
  1  3  1  1  0  0  0
  1  4  1  0  0  0  0
  2  6  1  6  0  0  0
  2  5  1  0  0  0  0
  2  3  1  0  0  0  0
  2  1  1  0  0  0  0
  4 29  1  1  0  0  0
  5  7  2  0  0  0  0
  7  4  1  0  0  0  0
  8 11  1  0  0  0  0
 10  9  1  0  0  0  0
 10  5  1  0  0  0  0
 11 14  1  0  0  0  0
 11  9  2  0  0  0  0
 12 10  2  0  0  0  0
 13  8  2  0  0  0  0
 13 12  1  0  0  0  0
 15 14  1  0  0  0  0
 15 16  1  0  0  0  0
 17 15  1  0  0  0  0
 18 15  1  0  0  0  0
 19  3  1  0  0  0  0
 19 20  1  0  0  0  0
 21 23  1  1  0  0  0
 21 22  1  0  0  0  0
 21 24  1  0  0  0  0
 22 26  1  0  0  0  0
 23 25  1  0  0  0  0
 24 26  1  0  0  0  0
 24 27  1  1  0  0  0
 25 28  1  0  0  0  0
 26 20  1  6  0  0  0
 28 27  1  0  0  0  0
 31 30  1  0  0  0  0
 31 34  1  1  0  0  0
 32 29  1  6  0  0  0
 32 31  1  0  0  0  0
 32 30  1  0  0  0  0
 33 34  1  0  0  0  0
 34 35  2  0  0  0  0
 36 46  1  0  0  0  0
 37 38  1  0  0  0  0
 38 33  1  6  0  0  0
 38 43  1  0  0  0  0
 39 42  1  0  0  0  0
 40 45  1  0  0  0  0
 41 37  1  0  0  0  0
 42 41  1  0  0  0  0
 44 36  1  0  0  0  0
 45 43  2  0  0  0  0
 46 40  2  0  0  0  0
 47 44  2  0  0  0  0
 47 42  2  0  0  0  0
M  END
>  <MODEL>
6

>  <REMARK>
 VINA RESULT:      -7.7      4.024      7.837
  Name = 
  10 active torsions:
  status: ('A' for Active; 'I' for Inactive)
    1  A    between atoms: N_3  and  C_5
    2  A    between atoms: C_6  and  C_38
    3  A    between atoms: C_12  and  O_18
    4  A    between atoms: N_16  and  N_24
    5  A    between atoms: N_16  and  N_32
    6  A    between atoms: O_18  and  C_41
    7  A    between atoms: C_21  and  C_26
    8  A    between atoms: C_21  and  C_45
    9  A    between atoms: C_27  and  N_32
   10  A    between atoms: C_29  and  C_39
                            x       y       z     vdW  Elec       q    Type
                         _______ _______ _______ _____ _____    ______ ____

>  <TORSDO>
F 10

$$$$
=
 OpenBabel10222415233D

 47 53  0  0  1  0  0  0  0  0999 V2000
  187.1430  177.7000  141.6140 C   0  0  1  0  0  3  0  0  0  0  0  0
  187.0880  177.9190  143.0610 C   0  0  2  0  0  0  0  0  0  0  0  0
  187.2020  179.0780  142.1490 N   0  0  0  0  0  0  0  0  0  0  0  0
  188.5430  177.1210  141.3580 C   0  0  2  0  0  3  0  0  0  0  0  0
  188.3750  177.3960  143.5890 C   0  0  0  0  0  0  0  0  0  0  0  0
  185.7390  177.5080  143.6460 C   0  0  0  0  0  1  0  0  0  0  0  0
  189.1650  176.9790  142.6630 N   0  0  0  0  0  0  0  0  0  0  0  0
  189.5050  177.5030  147.6880 C   0  0  0  0  0  3  0  0  0  0  0  0
  190.0910  177.1330  145.3830 C   0  0  0  0  0  3  0  0  0  0  0  0
  188.7750  177.4270  145.0070 C   0  0  0  0  0  0  0  0  0  0  0  0
  190.4680  177.1660  146.7270 C   0  0  0  0  0  0  0  0  0  0  0  0
  187.8510  177.7560  146.0050 C   0  0  0  0  0  3  0  0  0  0  0  0
  188.2310  177.7880  147.3100 N   0  0  0  0  0  0  0  0  0  0  0  0
  191.7910  176.8580  147.0710 O   0  0  0  0  0  0  0  0  0  0  0  0
  192.2450  175.5480  147.4030 C   0  0  0  0  0  0  0  0  0  0  0  0
  193.3550  175.6260  148.2250 F   0  0  0  0  0  0  0  0  0  0  0  0
  192.5640  174.8500  146.2500 F   0  0  0  0  0  0  0  0  0  0  0  0
  191.2380  174.8770  148.0710 F   0  0  0  0  0  0  0  0  0  0  0  0
  185.9350  179.6410  141.9400 N   0  0  0  0  0  2  0  0  0  0  0  0
  185.5790  179.3640  140.6080 N   0  0  0  0  0  2  0  0  0  0  0  0
  182.9770  177.4860  140.1160 C   0  0  2  0  0  3  0  0  0  0  0  0
  183.6890  178.5080  139.2350 C   0  0  0  0  0  2  0  0  0  0  0  0
  181.4740  177.5920  139.8130 C   0  0  0  0  0  2  0  0  0  0  0  0
  183.4960  178.2330  141.3620 C   0  0  1  0  0  3  0  0  0  0  0  0
  180.6170  177.8220  141.0460 C   0  0  0  0  0  2  0  0  0  0  0  0
  184.1170  179.2950  140.4690 C   0  0  1  0  0  3  0  0  0  0  0  0
  182.4610  178.7950  142.3490 C   0  0  0  0  0  2  0  0  0  0  0  0
  181.1040  179.0800  141.7330 C   0  0  0  0  0  2  0  0  0  0  0  0
  189.3720  178.0310  140.4610 C   0  0  0  0  0  2  0  0  0  0  0  0
  189.1030  178.7440  138.1120 C   0  0  0  0  0  2  0  0  0  0  0  0
  187.9210  177.8700  138.4740 C   0  0  2  0  0  3  0  0  0  0  0  0
  189.3000  177.5540  139.0260 C   0  0  2  0  0  3  0  0  0  0  0  0
  186.3650  176.2070  137.3620 N   0  0  0  0  0  2  0  0  0  0  0  0
  187.6030  176.9240  137.3630 C   0  0  0  0  0  0  0  0  0  0  0  0
  188.4460  176.7380  136.4460 O   0  0  0  0  0  0  0  0  0  0  0  0
  181.5460  177.6880  136.0370 C   0  0  0  0  0  2  0  0  0  0  0  0
  184.8800  174.2790  136.7540 C   0  0  0  0  0  2  0  0  0  0  0  0
  186.0540  175.1980  136.3560 C   0  0  1  0  0  3  0  0  0  0  0  0
  182.0600  173.2450  137.7230 O   0  0  0  0  0  1  0  0  0  0  0  0
  183.7940  176.9530  135.4850 C   0  0  0  0  0  3  0  0  0  0  0  0
  183.9300  174.9070  137.7770 C   0  0  0  0  0  2  0  0  0  0  0  0
  182.5120  174.5380  137.4930 C   0  0  0  0  0  0  0  0  0  0  0  0
  185.9010  175.8230  134.9900 C   0  0  0  0  0  3  0  0  0  0  0  0
  180.9490  176.3890  136.5120 C   0  0  0  0  0  3  0  0  0  0  0  0
  184.8940  176.6050  134.5940 C   0  0  0  0  0  3  0  0  0  0  0  0
  182.6530  177.4620  135.0500 C   0  0  0  0  0  3  0  0  0  0  0  0
  181.6990  175.4470  137.0250 C   0  0  0  0  0  0  0  0  0  0  0  0
  1  3  1  6  0  0  0
  1  2  1  0  0  0  0
  2  5  1  0  0  0  0
  2  6  1  1  0  0  0
  3  2  1  0  0  0  0
  4 29  1  6  0  0  0
  4  1  1  0  0  0  0
  4  7  1  0  0  0  0
  5 10  1  0  0  0  0
  7  5  2  0  0  0  0
  9 11  1  0  0  0  0
 10  9  2  0  0  0  0
 10 12  1  0  0  0  0
 11 14  1  0  0  0  0
 11  8  2  0  0  0  0
 12 13  2  0  0  0  0
 13  8  1  0  0  0  0
 14 15  1  0  0  0  0
 15 18  1  0  0  0  0
 15 16  1  0  0  0  0
 17 15  1  0  0  0  0
 19  3  1  0  0  0  0
 20 19  1  0  0  0  0
 21 22  1  6  0  0  0
 21 24  1  0  0  0  0
 22 26  1  0  0  0  0
 23 21  1  0  0  0  0
 23 25  1  0  0  0  0
 24 27  1  1  0  0  0
 25 28  1  0  0  0  0
 26 20  1  1  0  0  0
 26 24  1  0  0  0  0
 28 27  1  0  0  0  0
 30 31  1  0  0  0  0
 30 32  1  0  0  0  0
 31 34  1  6  0  0  0
 31 32  1  0  0  0  0
 32 29  1  1  0  0  0
 33 34  1  0  0  0  0
 35 34  2  0  0  0  0
 36 44  1  0  0  0  0
 37 41  1  0  0  0  0
 38 37  1  0  0  0  0
 38 33  1  1  0  0  0
 42 39  1  0  0  0  0
 42 41  1  0  0  0  0
 43 38  1  0  0  0  0
 44 47  2  0  0  0  0
 45 43  2  0  0  0  0
 45 40  1  0  0  0  0
 46 40  2  0  0  0  0
 46 36  1  0  0  0  0
 47 42  2  0  0  0  0
M  END
>  <MODEL>
7

>  <REMARK>
 VINA RESULT:      -7.5      3.960      7.670
  Name = 
  10 active torsions:
  status: ('A' for Active; 'I' for Inactive)
    1  A    between atoms: N_3  and  C_5
    2  A    between atoms: C_6  and  C_38
    3  A    between atoms: C_12  and  O_18
    4  A    between atoms: N_16  and  N_24
    5  A    between atoms: N_16  and  N_32
    6  A    between atoms: O_18  and  C_41
    7  A    between atoms: C_21  and  C_26
    8  A    between atoms: C_21  and  C_45
    9  A    between atoms: C_27  and  N_32
   10  A    between atoms: C_29  and  C_39
                            x       y       z     vdW  Elec       q    Type
                         _______ _______ _______ _____ _____    ______ ____

>  <TORSDO>
F 10

$$$$
=
 OpenBabel10222415233D

 47 53  0  0  1  0  0  0  0  0999 V2000
  185.0410  175.3560  135.4010 C   0  0  1  0  0  3  0  0  0  0  0  0
  183.6640  175.2640  135.8900 C   0  0  2  0  0  0  0  0  0  0  0  0
  184.7050  175.8750  136.7450 N   0  0  0  0  0  0  0  0  0  0  0  0
  185.5730  173.9160  135.4550 C   0  0  2  0  0  3  0  0  0  0  0  0
  183.4220  173.8160  136.1190 C   0  0  0  0  0  0  0  0  0  0  0  0
  182.7100  176.1310  135.0720 C   0  0  0  0  0  1  0  0  0  0  0  0
  184.4620  173.0920  135.8950 N   0  0  0  0  0  0  0  0  0  0  0  0
  179.7950  172.1550  137.5960 C   0  0  0  0  0  3  0  0  0  0  0  0
  181.3570  173.9840  137.5130 C   0  0  0  0  0  3  0  0  0  0  0  0
  182.1650  173.2470  136.6380 C   0  0  0  0  0  0  0  0  0  0  0  0
  180.1670  173.4440  138.0020 C   0  0  0  0  0  0  0  0  0  0  0  0
  181.7500  171.9640  136.2640 C   0  0  0  0  0  3  0  0  0  0  0  0
  180.5870  171.4500  136.7440 N   0  0  0  0  0  0  0  0  0  0  0  0
  179.3850  174.2030  138.8830 O   0  0  0  0  0  0  0  0  0  0  0  0
  179.7600  174.5040  140.2250 C   0  0  0  0  0  0  0  0  0  0  0  0
  179.6780  173.3660  141.0060 F   0  0  0  0  0  0  0  0  0  0  0  0
  178.9310  175.4860  140.7410 F   0  0  0  0  0  0  0  0  0  0  0  0
  181.0630  174.9640  140.2380 F   0  0  0  0  0  0  0  0  0  0  0  0
  184.6510  177.2710  136.6320 N   0  0  0  0  0  2  0  0  0  0  0  0
  185.1260  177.7990  137.8460 N   0  0  0  0  0  2  0  0  0  0  0  0
  182.0230  177.5200  138.7550 C   0  0  2  0  0  3  0  0  0  0  0  0
  182.7360  178.4890  137.8190 C   0  0  0  0  0  2  0  0  0  0  0  0
  180.9180  178.3110  139.4740 C   0  0  0  0  0  2  0  0  0  0  0  0
  183.3480  177.3160  139.5170 C   0  0  1  0  0  3  0  0  0  0  0  0
  180.9870  178.2180  140.9890 C   0  0  0  0  0  2  0  0  0  0  0  0
  184.0180  178.3560  138.6340 C   0  0  1  0  0  3  0  0  0  0  0  0
  183.3840  177.6720  141.0110 C   0  0  0  0  0  2  0  0  0  0  0  0
  182.3520  178.7010  141.4310 C   0  0  0  0  0  2  0  0  0  0  0  0
  186.7530  173.7880  136.4100 C   0  0  0  0  0  2  0  0  0  0  0  0
  188.8780  174.6740  135.5170 C   0  0  0  0  0  2  0  0  0  0  0  0
  188.9460  174.7300  137.0280 C   0  0  2  0  0  3  0  0  0  0  0  0
  187.6360  175.0130  136.3130 C   0  0  2  0  0  3  0  0  0  0  0  0
  189.4880  176.3930  138.8620 N   0  0  0  0  0  2  0  0  0  0  0  0
  189.5510  176.0170  137.4830 C   0  0  0  0  0  0  0  0  0  0  0  0
  190.0860  176.7840  136.6390 O   0  0  0  0  0  0  0  0  0  0  0  0
  188.0690  176.1190  143.8700 C   0  0  0  0  0  2  0  0  0  0  0  0
  188.8440  178.6200  139.8210 C   0  0  0  0  0  2  0  0  0  0  0  0
  189.9720  177.6850  139.3360 C   0  0  1  0  0  3  0  0  0  0  0  0
  186.3060  179.7530  141.3160 O   0  0  0  0  0  1  0  0  0  0  0  0
  189.6730  176.6260  142.1170 C   0  0  0  0  0  3  0  0  0  0  0  0
  187.5760  177.8780  140.2500 C   0  0  0  0  0  2  0  0  0  0  0  0
  186.9480  178.5270  141.4380 C   0  0  0  0  0  0  0  0  0  0  0  0
  191.0900  177.5110  140.3370 C   0  0  0  0  0  3  0  0  0  0  0  0
  187.1460  177.3020  143.7380 C   0  0  0  0  0  3  0  0  0  0  0  0
  190.9630  177.0410  141.5810 C   0  0  0  0  0  3  0  0  0  0  0  0
  189.4600  176.4460  143.4100 C   0  0  0  0  0  3  0  0  0  0  0  0
  187.0080  177.9280  142.5970 C   0  0  0  0  0  0  0  0  0  0  0  0
  1  4  1  0  0  0  0
  1  2  1  0  0  0  0
  1  3  1  1  0  0  0
  2  6  1  6  0  0  0
  2  5  1  0  0  0  0
  2  3  1  0  0  0  0
  4  7  1  0  0  0  0
  4 29  1  1  0  0  0
  5 10  1  0  0  0  0
  7  5  2  0  0  0  0
  8 11  1  0  0  0  0
  9 11  2  0  0  0  0
 10  9  1  0  0  0  0
 11 14  1  0  0  0  0
 12 10  2  0  0  0  0
 12 13  1  0  0  0  0
 13  8  2  0  0  0  0
 14 15  1  0  0  0  0
 15 18  1  0  0  0  0
 15 17  1  0  0  0  0
 15 16  1  0  0  0  0
 19  3  1  0  0  0  0
 19 20  1  0  0  0  0
 21 22  1  6  0  0  0
 21 23  1  0  0  0  0
 21 24  1  0  0  0  0
 22 26  1  0  0  0  0
 23 25  1  0  0  0  0
 24 27  1  1  0  0  0
 25 28  1  0  0  0  0
 26 20  1  6  0  0  0
 26 24  1  0  0  0  0
 27 28  1  0  0  0  0
 30 32  1  0  0  0  0
 30 31  1  0  0  0  0
 31 34  1  6  0  0  0
 32 29  1  1  0  0  0
 32 31  1  0  0  0  0
 34 33  1  0  0  0  0
 35 34  2  0  0  0  0
 37 41  1  0  0  0  0
 38 33  1  1  0  0  0
 38 37  1  0  0  0  0
 38 43  1  0  0  0  0
 39 42  1  0  0  0  0
 40 46  2  0  0  0  0
 41 42  1  0  0  0  0
 42 47  2  0  0  0  0
 43 45  2  0  0  0  0
 44 36  1  0  0  0  0
 45 40  1  0  0  0  0
 46 36  1  0  0  0  0
 47 44  2  0  0  0  0
M  END
>  <MODEL>
8

>  <REMARK>
 VINA RESULT:      -7.3      2.909      7.205
  Name = 
  10 active torsions:
  status: ('A' for Active; 'I' for Inactive)
    1  A    between atoms: N_3  and  C_5
    2  A    between atoms: C_6  and  C_38
    3  A    between atoms: C_12  and  O_18
    4  A    between atoms: N_16  and  N_24
    5  A    between atoms: N_16  and  N_32
    6  A    between atoms: O_18  and  C_41
    7  A    between atoms: C_21  and  C_26
    8  A    between atoms: C_21  and  C_45
    9  A    between atoms: C_27  and  N_32
   10  A    between atoms: C_29  and  C_39
                            x       y       z     vdW  Elec       q    Type
                         _______ _______ _______ _____ _____    ______ ____

>  <TORSDO>
F 10

$$$$
=
 OpenBabel10222415233D

 47 53  0  0  1  0  0  0  0  0999 V2000
  185.6440  179.3410  143.8250 C   0  0  1  0  0  3  0  0  0  0  0  0
  184.2220  179.1500  143.5310 C   0  0  2  0  0  0  0  0  0  0  0  0
  184.8760  178.3130  144.5610 N   0  0  0  0  0  0  0  0  0  0  0  0
  186.3760  178.7520  142.6090 C   0  0  2  0  0  3  0  0  0  0  0  0
  184.1750  178.5620  142.1680 C   0  0  0  0  0  0  0  0  0  0  0  0
  183.3930  180.3710  143.9220 C   0  0  0  0  0  1  0  0  0  0  0  0
  185.3430  178.3350  141.6790 N   0  0  0  0  0  0  0  0  0  0  0  0
  180.5940  177.4530  140.1580 C   0  0  0  0  0  3  0  0  0  0  0  0
  182.9990  177.4940  140.2420 C   0  0  0  0  0  3  0  0  0  0  0  0
  182.9390  178.1770  141.4630 C   0  0  0  0  0  0  0  0  0  0  0  0
  181.8280  177.1280  139.5760 C   0  0  0  0  0  0  0  0  0  0  0  0
  181.6830  178.4780  142.0000 C   0  0  0  0  0  3  0  0  0  0  0  0
  180.5490  178.1140  141.3440 N   0  0  0  0  0  0  0  0  0  0  0  0
  181.9220  176.4540  138.3520 O   0  0  0  0  0  0  0  0  0  0  0  0
  181.7180  177.0710  137.0830 C   0  0  0  0  0  0  0  0  0  0  0  0
  182.1150  176.2160  136.0710 F   0  0  0  0  0  0  0  0  0  0  0  0
  182.4370  178.2520  137.0080 F   0  0  0  0  0  0  0  0  0  0  0  0
  180.3730  177.3540  136.9290 F   0  0  0  0  0  0  0  0  0  0  0  0
  184.6200  178.8420  145.8340 N   0  0  0  0  0  2  0  0  0  0  0  0
  185.2630  178.0040  146.7620 N   0  0  0  0  0  2  0  0  0  0  0  0
  188.0960  177.4690  148.2540 C   0  0  2  0  0  3  0  0  0  0  0  0
  187.1460  178.6620  148.2490 C   0  0  0  0  0  2  0  0  0  0  0  0
  189.5260  178.0260  148.3240 C   0  0  0  0  0  2  0  0  0  0  0  0
  187.5660  177.0710  146.8610 C   0  0  1  0  0  3  0  0  0  0  0  0
  190.4350  177.5210  147.2160 C   0  0  0  0  0  2  0  0  0  0  0  0
  186.6970  178.3180  146.8330 C   0  0  1  0  0  3  0  0  0  0  0  0
  188.5700  177.0020  145.7000 C   0  0  0  0  0  2  0  0  0  0  0  0
  189.8000  177.8710  145.8870 C   0  0  0  0  0  2  0  0  0  0  0  0
  187.2590  177.5740  143.0010 C   0  0  0  0  0  2  0  0  0  0  0  0
  189.2360  176.2720  142.3000 C   0  0  0  0  0  2  0  0  0  0  0  0
  189.4770  177.7200  141.9330 C   0  0  2  0  0  3  0  0  0  0  0  0
  188.0850  177.1250  141.8140 C   0  0  2  0  0  3  0  0  0  0  0  0
  189.2810  178.1970  139.4520 N   0  0  0  0  0  2  0  0  0  0  0  0
  190.0870  177.8270  140.5740 C   0  0  0  0  0  0  0  0  0  0  0  0
  191.3080  177.5590  140.4200 O   0  0  0  0  0  0  0  0  0  0  0  0
  185.2390  176.1470  136.8780 C   0  0  0  0  0  2  0  0  0  0  0  0
  189.9770  176.8080  137.4830 C   0  0  0  0  0  2  0  0  0  0  0  0
  189.8080  178.2150  138.0910 C   0  0  1  0  0  3  0  0  0  0  0  0
  189.4160  173.8510  136.5310 O   0  0  0  0  0  1  0  0  0  0  0  0
  187.0030  177.7960  137.1430 C   0  0  0  0  0  3  0  0  0  0  0  0
  189.0770  175.7500  138.1260 C   0  0  0  0  0  2  0  0  0  0  0  0
  188.5660  174.7860  137.1080 C   0  0  0  0  0  0  0  0  0  0  0  0
  189.0220  179.1650  137.2190 C   0  0  0  0  0  3  0  0  0  0  0  0
  186.0480  174.9600  136.4270 C   0  0  0  0  0  3  0  0  0  0  0  0
  187.7710  178.9830  136.7900 C   0  0  0  0  0  3  0  0  0  0  0  0
  185.8990  177.4420  136.5060 C   0  0  0  0  0  3  0  0  0  0  0  0
  187.3070  174.8310  136.7640 C   0  0  0  0  0  0  0  0  0  0  0  0
  1  3  1  1  0  0  0
  2  1  1  0  0  0  0
  2  6  1  1  0  0  0
  2  3  1  0  0  0  0
  3 19  1  0  0  0  0
  4 29  1  1  0  0  0
  4  1  1  0  0  0  0
  5  2  1  0  0  0  0
  7  5  2  0  0  0  0
  7  4  1  0  0  0  0
  8 13  1  0  0  0  0
  9 10  2  0  0  0  0
 10 12  1  0  0  0  0
 10  5  1  0  0  0  0
 11  8  2  0  0  0  0
 11  9  1  0  0  0  0
 13 12  2  0  0  0  0
 14 11  1  0  0  0  0
 15 14  1  0  0  0  0
 16 15  1  0  0  0  0
 17 15  1  0  0  0  0
 18 15  1  0  0  0  0
 19 20  1  0  0  0  0
 21 22  1  6  0  0  0
 21 23  1  0  0  0  0
 24 27  1  6  0  0  0
 24 21  1  0  0  0  0
 25 23  1  0  0  0  0
 26 20  1  1  0  0  0
 26 24  1  0  0  0  0
 26 22  1  0  0  0  0
 27 28  1  0  0  0  0
 28 25  1  0  0  0  0
 31 34  1  6  0  0  0
 31 30  1  0  0  0  0
 32 31  1  0  0  0  0
 32 30  1  0  0  0  0
 32 29  1  1  0  0  0
 33 34  1  0  0  0  0
 35 34  2  0  0  0  0
 37 38  1  0  0  0  0
 37 41  1  0  0  0  0
 38 33  1  1  0  0  0
 39 42  1  0  0  0  0
 42 41  1  0  0  0  0
 43 38  1  0  0  0  0
 44 47  2  0  0  0  0
 44 36  1  0  0  0  0
 45 40  1  0  0  0  0
 45 43  2  0  0  0  0
 46 36  1  0  0  0  0
 46 40  2  0  0  0  0
 47 42  2  0  0  0  0
M  END
>  <MODEL>
9

>  <REMARK>
 VINA RESULT:      -7.1      1.850      2.414
  Name = 
  10 active torsions:
  status: ('A' for Active; 'I' for Inactive)
    1  A    between atoms: N_3  and  C_5
    2  A    between atoms: C_6  and  C_38
    3  A    between atoms: C_12  and  O_18
    4  A    between atoms: N_16  and  N_24
    5  A    between atoms: N_16  and  N_32
    6  A    between atoms: O_18  and  C_41
    7  A    between atoms: C_21  and  C_26
    8  A    between atoms: C_21  and  C_45
    9  A    between atoms: C_27  and  N_32
   10  A    between atoms: C_29  and  C_39
                            x       y       z     vdW  Elec       q    Type
                         _______ _______ _______ _____ _____    ______ ____

>  <TORSDO>
F 10

$$$$
