=
 OpenBabel10222417403D

 30 32  0  0  1  0  0  0  0  0999 V2000
  189.7080  177.5540  142.5580 C   0  0  0  0  0  0  0  0  0  0  0  0
  191.1770  177.3170  145.5930 C   0  0  0  0  0  3  0  0  0  0  0  0
  189.0010  177.9490  144.6370 C   0  0  2  0  0  3  0  0  0  0  0  0
  190.8060  177.8040  143.2030 N   0  0  0  0  0  0  0  0  0  0  0  0
  188.3410  177.6580  145.9140 C   0  0  0  0  0  3  0  0  0  0  0  0
  190.5510  176.9190  146.7190 C   0  0  0  0  0  0  0  0  0  0  0  0
  189.1000  177.1910  146.9120 C   0  0  0  0  0  3  0  0  0  0  0  0
  188.5450  177.6350  143.4370 C   0  0  2  0  0  3  0  0  0  0  0  0
  190.4720  178.1720  144.5730 C   0  0  2  0  0  3  0  0  0  0  0  0
  188.8600  177.7870  140.2860 C   0  0  0  0  0  3  0  0  0  0  0  0
  190.5200  176.1570  140.6760 O   0  0  0  0  0  1  0  0  0  0  0  0
  189.6840  177.1710  141.1340 C   0  0  0  0  0  0  0  0  0  0  0  0
  188.7910  177.4220  138.8420 C   0  0  0  0  0  2  0  0  0  0  0  0
  187.6850  179.2930  137.2670 O   0  0  0  0  0  0  0  0  0  0  0  0
  187.3190  178.1020  138.1080 S   0  0  0  0  0  0  0  0  0  0  0  0
  186.3650  178.5230  139.1900 O   0  0  0  0  0  0  0  0  0  0  0  0
  186.5810  176.8910  137.1160 N   0  0  0  0  0  2  0  0  0  0  0  0
  187.4830  175.7530  137.0630 C   0  0  0  0  0  2  0  0  0  0  0  0
  186.6820  174.4700  137.1460 C   0  0  0  0  0  1  0  0  0  0  0  0
  191.2300  176.2130  147.7170 O   0  0  0  0  0  0  0  0  0  0  0  0
  192.5340  175.6760  147.5360 C   0  0  0  0  0  1  0  0  0  0  0  0
  187.1700  177.1370  143.1340 C   0  0  0  0  0  2  0  0  0  0  0  0
  186.3280  178.2470  142.7270 N   0  0  0  0  0  2  0  0  0  0  0  0
  185.5230  178.5650  143.8290 N   0  0  0  0  0  2  0  0  0  0  0  0
  183.9730  178.5300  141.9580 C   0  0  0  0  0  3  0  0  0  0  0  0
  181.9380  178.8080  143.8270 N   0  0  0  0  0  0  0  0  0  0  0  0
  184.2900  179.1260  143.3070 C   0  0  1  0  0  3  0  0  0  0  0  0
  182.7010  178.4900  141.5380 C   0  0  0  0  0  3  0  0  0  0  0  0
  183.1550  178.8480  144.2610 C   0  0  0  0  0  3  0  0  0  0  0  0
  181.6200  179.0480  142.4290 C   0  0  0  0  0  2  0  0  0  0  0  0
  1  4  2  0  0  0  0
  1  8  1  0  0  0  0
  2  6  2  0  0  0  0
  3  5  1  1  0  0  0
  4  9  1  0  0  0  0
  5  7  2  0  0  0  0
  6  7  1  0  0  0  0
  6 20  1  0  0  0  0
  8 22  1  1  0  0  0
  8  3  1  0  0  0  0
  9  3  1  0  0  0  0
  9  2  1  1  0  0  0
 10 12  2  0  0  0  0
 11 12  1  0  0  0  0
 12  1  1  0  0  0  0
 13 10  1  0  0  0  0
 14 15  2  0  0  0  0
 15 13  1  0  0  0  0
 15 16  2  0  0  0  0
 17 15  1  0  0  0  0
 18 17  1  0  0  0  0
 18 19  1  0  0  0  0
 21 20  1  0  0  0  0
 23 22  1  0  0  0  0
 23 24  1  0  0  0  0
 25 27  1  0  0  0  0
 26 29  2  0  0  0  0
 27 24  1  1  0  0  0
 27 29  1  0  0  0  0
 28 25  2  0  0  0  0
 28 30  1  0  0  0  0
 30 26  1  0  0  0  0
M  END
>  <MODEL>
1

>  <REMARK>
 VINA RESULT:      -7.8      0.000      0.000
  Name = 
  10 active torsions:
  status: ('A' for Active; 'I' for Inactive)
    1  A    between atoms: C_1  and  C_25
    2  A    between atoms: N_4  and  C_5
    3  A    between atoms: N_4  and  S_22
    4  A    between atoms: O_6  and  C_19
    5  A    between atoms: C_7  and  C_17
    6  A    between atoms: N_8  and  N_10
    7  A    between atoms: N_8  and  C_15
    8  A    between atoms: N_10  and  C_13
    9  A    between atoms: C_15  and  C_27
   10  A    between atoms: C_17  and  S_22
                            x       y       z     vdW  Elec       q    Type
                         _______ _______ _______ _____ _____    ______ ____

>  <TORSDO>
F 10

$$$$
=
 OpenBabel10222417403D

 30 32  0  0  1  0  0  0  0  0999 V2000
  185.8900  178.5110  144.8540 C   0  0  0  0  0  0  0  0  0  0  0  0
  182.5880  179.0220  144.3420 C   0  0  0  0  0  3  0  0  0  0  0  0
  184.6860  179.0610  143.0570 C   0  0  2  0  0  3  0  0  0  0  0  0
  184.8340  179.0670  145.3630 N   0  0  0  0  0  0  0  0  0  0  0  0
  183.9430  178.8380  141.8130 C   0  0  0  0  0  3  0  0  0  0  0  0
  181.9240  178.6790  143.2190 C   0  0  0  0  0  0  0  0  0  0  0  0
  182.6170  178.6830  141.9010 C   0  0  0  0  0  3  0  0  0  0  0  0
  185.8280  178.4880  143.3950 C   0  0  2  0  0  3  0  0  0  0  0  0
  183.9940  179.5600  144.2790 C   0  0  2  0  0  3  0  0  0  0  0  0
  188.2190  177.9030  145.2300 C   0  0  0  0  0  3  0  0  0  0  0  0
  186.6620  177.3840  146.9240 O   0  0  0  0  0  1  0  0  0  0  0  0
  186.9640  177.9240  145.6770 C   0  0  0  0  0  0  0  0  0  0  0  0
  189.3330  177.3070  146.0220 C   0  0  0  0  0  2  0  0  0  0  0  0
  191.2800  178.3390  144.4900 O   0  0  0  0  0  0  0  0  0  0  0  0
  190.7440  177.0210  144.9740 S   0  0  0  0  0  0  0  0  0  0  0  0
  190.3350  176.1790  143.7980 O   0  0  0  0  0  0  0  0  0  0  0  0
  191.9590  176.1960  145.8900 N   0  0  0  0  0  2  0  0  0  0  0  0
  191.5650  176.2410  147.2890 C   0  0  0  0  0  2  0  0  0  0  0  0
  192.6960  175.7150  148.1480 C   0  0  0  0  0  1  0  0  0  0  0  0
  180.5850  178.2770  143.2610 O   0  0  0  0  0  0  0  0  0  0  0  0
  179.6600  178.7630  144.2250 C   0  0  0  0  0  1  0  0  0  0  0  0
  186.7000  177.6880  142.4840 C   0  0  0  0  0  2  0  0  0  0  0  0
  187.4280  178.5790  141.5990 N   0  0  0  0  0  2  0  0  0  0  0  0
  188.7690  178.1740  141.6360 N   0  0  0  0  0  2  0  0  0  0  0  0
  188.7180  178.3830  139.2160 C   0  0  0  0  0  3  0  0  0  0  0  0
  191.0720  176.9100  139.1840 N   0  0  0  0  0  0  0  0  0  0  0  0
  189.0410  177.4870  140.3860 C   0  0  1  0  0  3  0  0  0  0  0  0
  189.3420  178.1880  138.0460 C   0  0  0  0  0  3  0  0  0  0  0  0
  190.4930  177.0840  140.3270 C   0  0  0  0  0  3  0  0  0  0  0  0
  190.3510  177.0740  137.9330 C   0  0  0  0  0  2  0  0  0  0  0  0
  1  4  2  0  0  0  0
  1 12  1  0  0  0  0
  3  5  1  1  0  0  0
  3  8  1  0  0  0  0
  3  9  1  0  0  0  0
  5  7  2  0  0  0  0
  6 20  1  0  0  0  0
  6  2  2  0  0  0  0
  7  6  1  0  0  0  0
  8 22  1  1  0  0  0
  8  1  1  0  0  0  0
  9  2  1  1  0  0  0
  9  4  1  0  0  0  0
 10 12  2  0  0  0  0
 10 13  1  0  0  0  0
 12 11  1  0  0  0  0
 14 15  2  0  0  0  0
 15 17  1  0  0  0  0
 15 13  1  0  0  0  0
 16 15  2  0  0  0  0
 17 18  1  0  0  0  0
 18 19  1  0  0  0  0
 20 21  1  0  0  0  0
 23 24  1  0  0  0  0
 23 22  1  0  0  0  0
 25 27  1  0  0  0  0
 26 29  2  0  0  0  0
 27 24  1  1  0  0  0
 28 25  2  0  0  0  0
 29 27  1  0  0  0  0
 30 28  1  0  0  0  0
 30 26  1  0  0  0  0
M  END
>  <MODEL>
2

>  <REMARK>
 VINA RESULT:      -7.5      3.112      7.900
  Name = 
  10 active torsions:
  status: ('A' for Active; 'I' for Inactive)
    1  A    between atoms: C_1  and  C_25
    2  A    between atoms: N_4  and  C_5
    3  A    between atoms: N_4  and  S_22
    4  A    between atoms: O_6  and  C_19
    5  A    between atoms: C_7  and  C_17
    6  A    between atoms: N_8  and  N_10
    7  A    between atoms: N_8  and  C_15
    8  A    between atoms: N_10  and  C_13
    9  A    between atoms: C_15  and  C_27
   10  A    between atoms: C_17  and  S_22
                            x       y       z     vdW  Elec       q    Type
                         _______ _______ _______ _____ _____    ______ ____

>  <TORSDO>
F 10

$$$$
=
 OpenBabel10222417403D

 30 32  0  0  1  0  0  0  0  0999 V2000
  189.1330  178.1100  142.8410 C   0  0  0  0  0  0  0  0  0  0  0  0
  191.5820  177.3280  145.0340 C   0  0  0  0  0  3  0  0  0  0  0  0
  189.1840  177.8740  145.0590 C   0  0  2  0  0  3  0  0  0  0  0  0
  190.3750  178.3400  143.1350 N   0  0  0  0  0  0  0  0  0  0  0  0
  189.0270  177.1860  146.3450 C   0  0  0  0  0  3  0  0  0  0  0  0
  191.4090  176.5790  146.1430 C   0  0  0  0  0  0  0  0  0  0  0  0
  190.1080  176.5930  146.8660 C   0  0  0  0  0  3  0  0  0  0  0  0
  188.3500  177.8090  144.0350 C   0  0  2  0  0  3  0  0  0  0  0  0
  190.5290  178.3050  144.5840 C   0  0  2  0  0  3  0  0  0  0  0  0
  189.0390  177.1610  140.5990 C   0  0  0  0  0  3  0  0  0  0  0  0
  187.7190  179.0660  141.0400 O   0  0  0  0  0  1  0  0  0  0  0  0
  188.6260  178.0950  141.4550 C   0  0  0  0  0  0  0  0  0  0  0  0
  188.5660  177.1160  139.1860 C   0  0  0  0  0  2  0  0  0  0  0  0
  190.2240  177.4210  137.0980 O   0  0  0  0  0  0  0  0  0  0  0  0
  189.8240  176.4140  138.1400 S   0  0  0  0  0  0  0  0  0  0  0  0
  189.2910  175.1790  137.4700 O   0  0  0  0  0  0  0  0  0  0  0  0
  191.1940  176.0060  139.1160 N   0  0  0  0  0  2  0  0  0  0  0  0
  192.3360  176.7470  138.6070 C   0  0  0  0  0  2  0  0  0  0  0  0
  193.2920  175.7930  137.9230 C   0  0  0  0  0  1  0  0  0  0  0  0
  192.4240  175.7460  146.6230 O   0  0  0  0  0  0  0  0  0  0  0  0
  192.7430  175.6300  148.0050 C   0  0  0  0  0  1  0  0  0  0  0  0
  186.9780  177.2190  144.0700 C   0  0  0  0  0  2  0  0  0  0  0  0
  185.9920  178.2630  143.8590 N   0  0  0  0  0  2  0  0  0  0  0  0
  185.2300  177.8770  142.7490 N   0  0  0  0  0  2  0  0  0  0  0  0
  183.1580  178.3510  141.5710 C   0  0  0  0  0  3  0  0  0  0  0  0
  182.0440  178.9060  144.0540 N   0  0  0  0  0  0  0  0  0  0  0  0
  184.0630  178.7410  142.7130 C   0  0  1  0  0  3  0  0  0  0  0  0
  181.8490  178.6300  141.6430 C   0  0  0  0  0  3  0  0  0  0  0  0
  183.3070  178.6380  144.0140 C   0  0  0  0  0  3  0  0  0  0  0  0
  181.3190  179.3320  142.8680 C   0  0  0  0  0  2  0  0  0  0  0  0
  1  4  2  0  0  0  0
  1  8  1  0  0  0  0
  2  6  2  0  0  0  0
  3  5  1  6  0  0  0
  4  9  1  0  0  0  0
  5  7  2  0  0  0  0
  6 20  1  0  0  0  0
  6  7  1  0  0  0  0
  8 22  1  6  0  0  0
  8  3  1  0  0  0  0
  9  2  1  6  0  0  0
  9  3  1  0  0  0  0
 10 12  2  0  0  0  0
 11 12  1  0  0  0  0
 12  1  1  0  0  0  0
 13 10  1  0  0  0  0
 14 15  2  0  0  0  0
 15 17  1  0  0  0  0
 15 13  1  0  0  0  0
 16 15  2  0  0  0  0
 18 17  1  0  0  0  0
 19 18  1  0  0  0  0
 20 21  1  0  0  0  0
 23 22  1  0  0  0  0
 24 23  1  0  0  0  0
 25 28  2  0  0  0  0
 25 27  1  0  0  0  0
 27 24  1  1  0  0  0
 27 29  1  0  0  0  0
 28 30  1  0  0  0  0
 29 26  2  0  0  0  0
 30 26  1  0  0  0  0
M  END
>  <MODEL>
3

>  <REMARK>
 VINA RESULT:      -7.3      1.900      2.421
  Name = 
  10 active torsions:
  status: ('A' for Active; 'I' for Inactive)
    1  A    between atoms: C_1  and  C_25
    2  A    between atoms: N_4  and  C_5
    3  A    between atoms: N_4  and  S_22
    4  A    between atoms: O_6  and  C_19
    5  A    between atoms: C_7  and  C_17
    6  A    between atoms: N_8  and  N_10
    7  A    between atoms: N_8  and  C_15
    8  A    between atoms: N_10  and  C_13
    9  A    between atoms: C_15  and  C_27
   10  A    between atoms: C_17  and  S_22
                            x       y       z     vdW  Elec       q    Type
                         _______ _______ _______ _____ _____    ______ ____

>  <TORSDO>
F 10

$$$$
=
 OpenBabel10222417403D

 30 32  0  0  1  0  0  0  0  0999 V2000
  187.2750  178.4390  140.1210 C   0  0  0  0  0  0  0  0  0  0  0  0
  189.1080  177.2760  137.5310 C   0  0  0  0  0  3  0  0  0  0  0  0
  189.3780  177.7150  139.9360 C   0  0  2  0  0  3  0  0  0  0  0  0
  187.5490  178.6420  138.8690 N   0  0  0  0  0  0  0  0  0  0  0  0
  190.4830  176.7540  140.0010 C   0  0  0  0  0  3  0  0  0  0  0  0
  190.0290  176.2940  137.6220 C   0  0  0  0  0  0  0  0  0  0  0  0
  190.8010  176.0990  138.8790 C   0  0  0  0  0  3  0  0  0  0  0  0
  188.4100  177.8510  140.8260 C   0  0  2  0  0  3  0  0  0  0  0  0
  188.9440  178.2900  138.6320 C   0  0  2  0  0  3  0  0  0  0  0  0
  185.5910  178.1450  141.8570 C   0  0  0  0  0  3  0  0  0  0  0  0
  185.0670  179.5670  140.0490 O   0  0  0  0  0  1  0  0  0  0  0  0
  185.9490  178.7140  140.7060 C   0  0  0  0  0  0  0  0  0  0  0  0
  184.2550  178.3830  142.4770 C   0  0  0  0  0  2  0  0  0  0  0  0
  183.2020  178.6770  144.9280 O   0  0  0  0  0  0  0  0  0  0  0  0
  184.4520  178.9720  144.1450 S   0  0  0  0  0  0  0  0  0  0  0  0
  184.7000  180.4540  144.1310 O   0  0  0  0  0  0  0  0  0  0  0  0
  185.7990  178.1600  144.8670 N   0  0  0  0  0  2  0  0  0  0  0  0
  185.4930  177.9610  146.2740 C   0  0  0  0  0  2  0  0  0  0  0  0
  186.0720  179.1030  147.0830 C   0  0  0  0  0  1  0  0  0  0  0  0
  190.2570  175.4120  136.5610 O   0  0  0  0  0  0  0  0  0  0  0  0
  190.6660  174.0630  136.7490 C   0  0  0  0  0  1  0  0  0  0  0  0
  188.3810  177.2180  142.1790 C   0  0  0  0  0  2  0  0  0  0  0  0
  189.0930  178.0580  143.1250 N   0  0  0  0  0  2  0  0  0  0  0  0
  190.2050  177.3230  143.5560 N   0  0  0  0  0  2  0  0  0  0  0  0
  189.2230  177.2510  145.7770 C   0  0  0  0  0  3  0  0  0  0  0  0
  191.7720  176.6960  146.7280 N   0  0  0  0  0  0  0  0  0  0  0  0
  190.4200  177.6560  144.9530 C   0  0  1  0  0  3  0  0  0  0  0  0
  189.3810  176.9830  147.0810 C   0  0  0  0  0  3  0  0  0  0  0  0
  191.6480  176.9480  145.4670 C   0  0  0  0  0  3  0  0  0  0  0  0
  190.7570  177.0970  147.6880 C   0  0  0  0  0  2  0  0  0  0  0  0
  1 12  1  0  0  0  0
  1  8  1  0  0  0  0
  2  6  2  0  0  0  0
  3  5  1  6  0  0  0
  3  8  1  0  0  0  0
  4  1  2  0  0  0  0
  6  7  1  0  0  0  0
  7  5  2  0  0  0  0
  8 22  1  6  0  0  0
  9  2  1  6  0  0  0
  9  4  1  0  0  0  0
  9  3  1  0  0  0  0
 10 13  1  0  0  0  0
 11 12  1  0  0  0  0
 12 10  2  0  0  0  0
 13 15  1  0  0  0  0
 15 17  1  0  0  0  0
 15 14  2  0  0  0  0
 16 15  2  0  0  0  0
 17 18  1  0  0  0  0
 18 19  1  0  0  0  0
 20 21  1  0  0  0  0
 20  6  1  0  0  0  0
 22 23  1  0  0  0  0
 23 24  1  0  0  0  0
 25 28  2  0  0  0  0
 26 30  1  0  0  0  0
 27 24  1  6  0  0  0
 27 29  1  0  0  0  0
 27 25  1  0  0  0  0
 28 30  1  0  0  0  0
 29 26  2  0  0  0  0
M  END
>  <MODEL>
4

>  <REMARK>
 VINA RESULT:      -7.3      2.830      7.433
  Name = 
  10 active torsions:
  status: ('A' for Active; 'I' for Inactive)
    1  A    between atoms: C_1  and  C_25
    2  A    between atoms: N_4  and  C_5
    3  A    between atoms: N_4  and  S_22
    4  A    between atoms: O_6  and  C_19
    5  A    between atoms: C_7  and  C_17
    6  A    between atoms: N_8  and  N_10
    7  A    between atoms: N_8  and  C_15
    8  A    between atoms: N_10  and  C_13
    9  A    between atoms: C_15  and  C_27
   10  A    between atoms: C_17  and  S_22
                            x       y       z     vdW  Elec       q    Type
                         _______ _______ _______ _____ _____    ______ ____

>  <TORSDO>
F 10

$$$$
=
 OpenBabel10222417403D

 30 32  0  0  1  0  0  0  0  0999 V2000
  186.3200  177.9900  142.9840 C   0  0  0  0  0  0  0  0  0  0  0  0
  187.8470  177.3480  145.9300 C   0  0  0  0  0  3  0  0  0  0  0  0
  188.3220  177.1640  143.5240 C   0  0  2  0  0  3  0  0  0  0  0  0
  186.1270  177.4930  144.1670 N   0  0  0  0  0  0  0  0  0  0  0  0
  189.7630  177.1930  143.7930 C   0  0  0  0  0  3  0  0  0  0  0  0
  189.1650  177.5140  146.1640 C   0  0  0  0  0  0  0  0  0  0  0  0
  190.1540  177.3340  145.0650 C   0  0  0  0  0  3  0  0  0  0  0  0
  187.7000  177.8010  142.5470 C   0  0  2  0  0  3  0  0  0  0  0  0
  187.3510  176.8340  144.6050 C   0  0  2  0  0  3  0  0  0  0  0  0
  184.3810  178.0340  141.5110 C   0  0  0  0  0  3  0  0  0  0  0  0
  185.2200  180.0990  142.2810 O   0  0  0  0  0  1  0  0  0  0  0  0
  185.2720  178.7090  142.2350 C   0  0  0  0  0  0  0  0  0  0  0  0
  183.3140  178.7190  140.7260 C   0  0  0  0  0  2  0  0  0  0  0  0
  184.3720  180.4980  139.0170 O   0  0  0  0  0  0  0  0  0  0  0  0
  183.8950  179.0730  139.0810 S   0  0  0  0  0  0  0  0  0  0  0  0
  182.7770  178.8710  138.0970 O   0  0  0  0  0  0  0  0  0  0  0  0
  185.2020  178.0010  138.7100 N   0  0  0  0  0  2  0  0  0  0  0  0
  185.0640  177.6010  137.3200 C   0  0  0  0  0  2  0  0  0  0  0  0
  184.7870  176.1140  137.2480 C   0  0  0  0  0  1  0  0  0  0  0  0
  189.6380  177.8930  147.4240 O   0  0  0  0  0  0  0  0  0  0  0  0
  188.7780  178.2340  148.5040 C   0  0  0  0  0  1  0  0  0  0  0  0
  188.3640  178.4780  141.3930 C   0  0  0  0  0  2  0  0  0  0  0  0
  188.5980  177.5160  140.3310 N   0  0  0  0  0  2  0  0  0  0  0  0
  189.8840  177.7690  139.8370 N   0  0  0  0  0  2  0  0  0  0  0  0
  189.1420  176.3320  138.0230 C   0  0  0  0  0  3  0  0  0  0  0  0
  188.4650  178.6530  136.6560 N   0  0  0  0  0  0  0  0  0  0  0  0
  189.8200  177.6280  138.3930 C   0  0  1  0  0  3  0  0  0  0  0  0
  188.5250  176.2260  136.8380 C   0  0  0  0  0  3  0  0  0  0  0  0
  189.0570  178.7840  137.7970 C   0  0  0  0  0  3  0  0  0  0  0  0
  188.5300  177.4100  135.9040 C   0  0  0  0  0  2  0  0  0  0  0  0
  1  4  2  0  0  0  0
  2  6  2  0  0  0  0
  3  5  1  1  0  0  0
  3  9  1  0  0  0  0
  4  9  1  0  0  0  0
  5  7  2  0  0  0  0
  6 20  1  0  0  0  0
  7  6  1  0  0  0  0
  8 22  1  1  0  0  0
  8  1  1  0  0  0  0
  8  3  1  0  0  0  0
  9  2  1  1  0  0  0
 10 12  2  0  0  0  0
 12 11  1  0  0  0  0
 12  1  1  0  0  0  0
 13 10  1  0  0  0  0
 14 15  2  0  0  0  0
 15 13  1  0  0  0  0
 16 15  2  0  0  0  0
 17 15  1  0  0  0  0
 18 17  1  0  0  0  0
 19 18  1  0  0  0  0
 20 21  1  0  0  0  0
 23 22  1  0  0  0  0
 24 23  1  0  0  0  0
 25 27  1  0  0  0  0
 26 29  2  0  0  0  0
 27 24  1  1  0  0  0
 28 25  2  0  0  0  0
 29 27  1  0  0  0  0
 30 26  1  0  0  0  0
 30 28  1  0  0  0  0
M  END
>  <MODEL>
5

>  <REMARK>
 VINA RESULT:      -7.2      2.507      5.083
  Name = 
  10 active torsions:
  status: ('A' for Active; 'I' for Inactive)
    1  A    between atoms: C_1  and  C_25
    2  A    between atoms: N_4  and  C_5
    3  A    between atoms: N_4  and  S_22
    4  A    between atoms: O_6  and  C_19
    5  A    between atoms: C_7  and  C_17
    6  A    between atoms: N_8  and  N_10
    7  A    between atoms: N_8  and  C_15
    8  A    between atoms: N_10  and  C_13
    9  A    between atoms: C_15  and  C_27
   10  A    between atoms: C_17  and  S_22
                            x       y       z     vdW  Elec       q    Type
                         _______ _______ _______ _____ _____    ______ ____

>  <TORSDO>
F 10

$$$$
=
 OpenBabel10222417403D

 30 32  0  0  1  0  0  0  0  0999 V2000
  186.1810  178.0160  142.8250 C   0  0  0  0  0  0  0  0  0  0  0  0
  187.3100  177.6350  145.9880 C   0  0  0  0  0  3  0  0  0  0  0  0
  188.0780  177.2180  143.6890 C   0  0  2  0  0  3  0  0  0  0  0  0
  185.8290  177.6360  144.0150 N   0  0  0  0  0  0  0  0  0  0  0  0
  189.4750  177.2510  144.1350 C   0  0  0  0  0  3  0  0  0  0  0  0
  188.5930  177.8040  146.3700 C   0  0  0  0  0  0  0  0  0  0  0  0
  189.7060  177.5070  145.4280 C   0  0  0  0  0  3  0  0  0  0  0  0
  187.6000  177.7680  142.5860 C   0  0  2  0  0  3  0  0  0  0  0  0
  186.9720  177.0040  144.6630 C   0  0  2  0  0  3  0  0  0  0  0  0
  184.0150  178.2110  141.7290 C   0  0  0  0  0  3  0  0  0  0  0  0
  185.6790  179.7820  141.1570 O   0  0  0  0  0  1  0  0  0  0  0  0
  185.2540  178.6750  141.8860 C   0  0  0  0  0  0  0  0  0  0  0  0
  183.0490  178.8370  140.7800 C   0  0  0  0  0  2  0  0  0  0  0  0
  180.7400  177.5320  141.1930 O   0  0  0  0  0  0  0  0  0  0  0  0
  181.4150  178.8430  141.4860 S   0  0  0  0  0  0  0  0  0  0  0  0
  180.6130  179.9670  140.8910 O   0  0  0  0  0  0  0  0  0  0  0  0
  181.5490  179.0630  143.1980 N   0  0  0  0  0  2  0  0  0  0  0  0
  180.4830  178.3000  143.8260 C   0  0  0  0  0  2  0  0  0  0  0  0
  179.2970  179.2060  144.0820 C   0  0  0  0  0  1  0  0  0  0  0  0
  188.9140  178.2940  147.6400 O   0  0  0  0  0  0  0  0  0  0  0  0
  188.1530  177.9910  148.8030 C   0  0  0  0  0  1  0  0  0  0  0  0
  188.4200  178.3230  141.4680 C   0  0  0  0  0  2  0  0  0  0  0  0
  188.6540  177.2910  140.4750 N   0  0  0  0  0  2  0  0  0  0  0  0
  189.8140  177.6580  139.7790 N   0  0  0  0  0  2  0  0  0  0  0  0
  188.4090  176.6370  138.0800 C   0  0  0  0  0  3  0  0  0  0  0  0
  188.2120  179.1580  136.9340 N   0  0  0  0  0  0  0  0  0  0  0  0
  189.4800  177.6600  138.3660 C   0  0  1  0  0  3  0  0  0  0  0  0
  187.6050  176.8030  137.0210 C   0  0  0  0  0  3  0  0  0  0  0  0
  188.9930  179.0270  137.9550 C   0  0  0  0  0  3  0  0  0  0  0  0
  187.7970  178.0120  136.1410 C   0  0  0  0  0  2  0  0  0  0  0  0
  1  4  2  0  0  0  0
  2  6  2  0  0  0  0
  3  5  1  1  0  0  0
  3  9  1  0  0  0  0
  4  9  1  0  0  0  0
  5  7  2  0  0  0  0
  6 20  1  0  0  0  0
  7  6  1  0  0  0  0
  8 22  1  1  0  0  0
  8  1  1  0  0  0  0
  8  3  1  0  0  0  0
  9  2  1  1  0  0  0
 10 12  2  0  0  0  0
 11 12  1  0  0  0  0
 12  1  1  0  0  0  0
 13 15  1  0  0  0  0
 13 10  1  0  0  0  0
 14 15  2  0  0  0  0
 15 17  1  0  0  0  0
 16 15  2  0  0  0  0
 17 18  1  0  0  0  0
 18 19  1  0  0  0  0
 20 21  1  0  0  0  0
 23 22  1  0  0  0  0
 24 23  1  0  0  0  0
 25 27  1  0  0  0  0
 26 29  2  0  0  0  0
 27 24  1  1  0  0  0
 28 25  2  0  0  0  0
 29 27  1  0  0  0  0
 30 26  1  0  0  0  0
 30 28  1  0  0  0  0
M  END
>  <MODEL>
6

>  <REMARK>
 VINA RESULT:      -7.2      2.672      6.108
  Name = 
  10 active torsions:
  status: ('A' for Active; 'I' for Inactive)
    1  A    between atoms: C_1  and  C_25
    2  A    between atoms: N_4  and  C_5
    3  A    between atoms: N_4  and  S_22
    4  A    between atoms: O_6  and  C_19
    5  A    between atoms: C_7  and  C_17
    6  A    between atoms: N_8  and  N_10
    7  A    between atoms: N_8  and  C_15
    8  A    between atoms: N_10  and  C_13
    9  A    between atoms: C_15  and  C_27
   10  A    between atoms: C_17  and  S_22
                            x       y       z     vdW  Elec       q    Type
                         _______ _______ _______ _____ _____    ______ ____

>  <TORSDO>
F 10

$$$$
=
 OpenBabel10222417403D

 30 32  0  0  1  0  0  0  0  0999 V2000
  186.4020  177.9780  143.1680 C   0  0  0  0  0  0  0  0  0  0  0  0
  187.8420  177.3310  146.1560 C   0  0  0  0  0  3  0  0  0  0  0  0
  188.4140  177.2200  143.7670 C   0  0  2  0  0  3  0  0  0  0  0  0
  186.1850  177.4480  144.3320 N   0  0  0  0  0  0  0  0  0  0  0  0
  189.8420  177.2990  144.0910 C   0  0  0  0  0  3  0  0  0  0  0  0
  189.1440  177.5430  146.4430 C   0  0  0  0  0  0  0  0  0  0  0  0
  190.1790  177.4270  145.3800 C   0  0  0  0  0  3  0  0  0  0  0  0
  187.8040  177.8540  142.7800 C   0  0  2  0  0  3  0  0  0  0  0  0
  187.4180  176.8280  144.8020 C   0  0  2  0  0  3  0  0  0  0  0  0
  184.4670  177.9730  141.6880 C   0  0  0  0  0  3  0  0  0  0  0  0
  185.2990  180.0630  142.3990 O   0  0  0  0  0  1  0  0  0  0  0  0
  185.3550  178.6720  142.3950 C   0  0  0  0  0  0  0  0  0  0  0  0
  183.4010  178.6330  140.8800 C   0  0  0  0  0  2  0  0  0  0  0  0
  185.3410  178.3360  139.0490 O   0  0  0  0  0  0  0  0  0  0  0  0
  184.0130  179.0120  139.2520 S   0  0  0  0  0  0  0  0  0  0  0  0
  184.1770  180.4990  139.1090 O   0  0  0  0  0  0  0  0  0  0  0  0
  182.8770  178.4340  138.0820 N   0  0  0  0  0  2  0  0  0  0  0  0
  181.6240  179.1390  138.2950 C   0  0  0  0  0  2  0  0  0  0  0  0
  181.1380  179.7130  136.9800 C   0  0  0  0  0  1  0  0  0  0  0  0
  189.5540  177.9120  147.7280 O   0  0  0  0  0  0  0  0  0  0  0  0
  188.6410  178.2540  148.7650 C   0  0  0  0  0  1  0  0  0  0  0  0
  188.4830  178.5820  141.6660 C   0  0  0  0  0  2  0  0  0  0  0  0
  188.4070  177.7930  140.4500 N   0  0  0  0  0  2  0  0  0  0  0  0
  188.7500  178.6490  139.3950 N   0  0  0  0  0  2  0  0  0  0  0  0
  190.6010  177.1330  138.9710 C   0  0  0  0  0  3  0  0  0  0  0  0
  188.8740  175.7170  137.3210 N   0  0  0  0  0  0  0  0  0  0  0  0
  189.4030  177.8370  138.3830 C   0  0  1  0  0  3  0  0  0  0  0  0
  191.0290  175.9880  138.4200 C   0  0  0  0  0  3  0  0  0  0  0  0
  188.4350  176.8160  137.8410 C   0  0  0  0  0  3  0  0  0  0  0  0
  190.2970  175.4370  137.2220 C   0  0  0  0  0  2  0  0  0  0  0  0
  1  4  2  0  0  0  0
  2  6  2  0  0  0  0
  3  5  1  1  0  0  0
  3  9  1  0  0  0  0
  4  9  1  0  0  0  0
  5  7  2  0  0  0  0
  6 20  1  0  0  0  0
  7  6  1  0  0  0  0
  8 22  1  1  0  0  0
  8  1  1  0  0  0  0
  8  3  1  0  0  0  0
  9  2  1  1  0  0  0
 10 12  2  0  0  0  0
 12 11  1  0  0  0  0
 12  1  1  0  0  0  0
 13 10  1  0  0  0  0
 14 15  2  0  0  0  0
 15 13  1  0  0  0  0
 16 15  2  0  0  0  0
 17 18  1  0  0  0  0
 17 15  1  0  0  0  0
 19 18  1  0  0  0  0
 20 21  1  0  0  0  0
 23 22  1  0  0  0  0
 24 23  1  0  0  0  0
 26 29  2  0  0  0  0
 27 25  1  0  0  0  0
 27 24  1  1  0  0  0
 28 25  2  0  0  0  0
 29 27  1  0  0  0  0
 30 26  1  0  0  0  0
 30 28  1  0  0  0  0
M  END
>  <MODEL>
7

>  <REMARK>
 VINA RESULT:      -7.1      2.377      5.492
  Name = 
  10 active torsions:
  status: ('A' for Active; 'I' for Inactive)
    1  A    between atoms: C_1  and  C_25
    2  A    between atoms: N_4  and  C_5
    3  A    between atoms: N_4  and  S_22
    4  A    between atoms: O_6  and  C_19
    5  A    between atoms: C_7  and  C_17
    6  A    between atoms: N_8  and  N_10
    7  A    between atoms: N_8  and  C_15
    8  A    between atoms: N_10  and  C_13
    9  A    between atoms: C_15  and  C_27
   10  A    between atoms: C_17  and  S_22
                            x       y       z     vdW  Elec       q    Type
                         _______ _______ _______ _____ _____    ______ ____

>  <TORSDO>
F 10

$$$$
=
 OpenBabel10222417403D

 30 32  0  0  1  0  0  0  0  0999 V2000
  185.3860  178.7050  145.1650 C   0  0  0  0  0  0  0  0  0  0  0  0
  182.3480  179.1430  143.7510 C   0  0  0  0  0  3  0  0  0  0  0  0
  184.7000  178.9650  143.0570 C   0  0  2  0  0  3  0  0  0  0  0  0
  184.2630  179.3400  145.2940 N   0  0  0  0  0  0  0  0  0  0  0  0
  184.2860  178.5480  141.7140 C   0  0  0  0  0  3  0  0  0  0  0  0
  181.9730  178.6270  142.5620 C   0  0  0  0  0  0  0  0  0  0  0  0
  182.9750  178.4160  141.4820 C   0  0  0  0  0  3  0  0  0  0  0  0
  185.6930  178.4480  143.7610 C   0  0  2  0  0  3  0  0  0  0  0  0
  183.7460  179.6570  143.9690 C   0  0  2  0  0  3  0  0  0  0  0  0
  187.1100  177.3020  146.1620 C   0  0  0  0  0  3  0  0  0  0  0  0
  185.9790  178.8180  147.5710 O   0  0  0  0  0  1  0  0  0  0  0  0
  186.1890  178.2530  146.3160 C   0  0  0  0  0  0  0  0  0  0  0  0
  187.9340  176.8040  147.3010 C   0  0  0  0  0  2  0  0  0  0  0  0
  190.5810  176.3600  147.3390 O   0  0  0  0  0  0  0  0  0  0  0  0
  189.5800  177.4740  147.2040 S   0  0  0  0  0  0  0  0  0  0  0  0
  189.7840  178.4720  148.3100 O   0  0  0  0  0  0  0  0  0  0  0  0
  189.7750  178.2530  145.6710 N   0  0  0  0  0  2  0  0  0  0  0  0
  190.7970  177.5290  144.9340 C   0  0  0  0  0  2  0  0  0  0  0  0
  191.5250  178.4840  144.0100 C   0  0  0  0  0  1  0  0  0  0  0  0
  180.6500  178.2440  142.3210 O   0  0  0  0  0  0  0  0  0  0  0  0
  179.5330  178.8940  142.9170 C   0  0  0  0  0  1  0  0  0  0  0  0
  186.7290  177.5080  143.2380 C   0  0  0  0  0  2  0  0  0  0  0  0
  187.7310  178.2490  142.4940 N   0  0  0  0  0  2  0  0  0  0  0  0
  188.5880  177.3010  141.9200 N   0  0  0  0  0  2  0  0  0  0  0  0
  190.0000  176.8970  139.9840 C   0  0  0  0  0  3  0  0  0  0  0  0
  188.1320  178.3250  138.5050 N   0  0  0  0  0  0  0  0  0  0  0  0
  189.0980  177.8800  140.6900 C   0  0  1  0  0  3  0  0  0  0  0  0
  190.1590  176.9860  138.6560 C   0  0  0  0  0  3  0  0  0  0  0  0
  187.9520  178.2540  139.7830 C   0  0  0  0  0  3  0  0  0  0  0  0
  189.4310  178.0720  137.9040 C   0  0  0  0  0  2  0  0  0  0  0  0
  1  4  2  0  0  0  0
  1 12  1  0  0  0  0
  3  5  1  1  0  0  0
  3  8  1  0  0  0  0
  3  9  1  0  0  0  0
  6  2  2  0  0  0  0
  7  5  2  0  0  0  0
  7  6  1  0  0  0  0
  8 22  1  1  0  0  0
  8  1  1  0  0  0  0
  9  2  1  1  0  0  0
  9  4  1  0  0  0  0
 10 12  2  0  0  0  0
 10 13  1  0  0  0  0
 12 11  1  0  0  0  0
 15 13  1  0  0  0  0
 15 14  2  0  0  0  0
 15 16  2  0  0  0  0
 17 15  1  0  0  0  0
 18 17  1  0  0  0  0
 19 18  1  0  0  0  0
 20  6  1  0  0  0  0
 20 21  1  0  0  0  0
 23 22  1  0  0  0  0
 24 23  1  0  0  0  0
 25 27  1  0  0  0  0
 26 29  2  0  0  0  0
 27 24  1  1  0  0  0
 28 25  2  0  0  0  0
 29 27  1  0  0  0  0
 30 26  1  0  0  0  0
 30 28  1  0  0  0  0
M  END
>  <MODEL>
8

>  <REMARK>
 VINA RESULT:      -7.1      3.403      7.977
  Name = 
  10 active torsions:
  status: ('A' for Active; 'I' for Inactive)
    1  A    between atoms: C_1  and  C_25
    2  A    between atoms: N_4  and  C_5
    3  A    between atoms: N_4  and  S_22
    4  A    between atoms: O_6  and  C_19
    5  A    between atoms: C_7  and  C_17
    6  A    between atoms: N_8  and  N_10
    7  A    between atoms: N_8  and  C_15
    8  A    between atoms: N_10  and  C_13
    9  A    between atoms: C_15  and  C_27
   10  A    between atoms: C_17  and  S_22
                            x       y       z     vdW  Elec       q    Type
                         _______ _______ _______ _____ _____    ______ ____

>  <TORSDO>
F 10

$$$$
=
 OpenBabel10222417403D

 30 32  0  0  1  0  0  0  0  0999 V2000
  185.2050  178.8650  145.0510 C   0  0  0  0  0  0  0  0  0  0  0  0
  182.2540  179.1970  143.4380 C   0  0  0  0  0  3  0  0  0  0  0  0
  184.6340  178.8980  142.8940 C   0  0  2  0  0  3  0  0  0  0  0  0
  184.0920  179.5310  145.0490 N   0  0  0  0  0  0  0  0  0  0  0  0
  184.2790  178.3400  141.5860 C   0  0  0  0  0  3  0  0  0  0  0  0
  181.9270  178.5570  142.2950 C   0  0  0  0  0  0  0  0  0  0  0  0
  182.9780  178.2070  141.3010 C   0  0  0  0  0  3  0  0  0  0  0  0
  185.5770  178.4460  143.7030 C   0  0  2  0  0  3  0  0  0  0  0  0
  183.6520  179.7060  143.6710 C   0  0  2  0  0  3  0  0  0  0  0  0
  186.8220  177.5340  146.2960 C   0  0  0  0  0  3  0  0  0  0  0  0
  185.6970  179.2560  147.4510 O   0  0  0  0  0  1  0  0  0  0  0  0
  185.9370  178.5310  146.2870 C   0  0  0  0  0  0  0  0  0  0  0  0
  187.5740  177.1520  147.5260 C   0  0  0  0  0  2  0  0  0  0  0  0
  189.7380  178.4020  148.5050 O   0  0  0  0  0  0  0  0  0  0  0  0
  189.2970  177.5580  147.3410 S   0  0  0  0  0  0  0  0  0  0  0  0
  189.5010  178.3180  146.0610 O   0  0  0  0  0  0  0  0  0  0  0  0
  190.2140  176.0910  147.3020 N   0  0  0  0  0  2  0  0  0  0  0  0
  191.5750  176.4300  146.9230 C   0  0  0  0  0  2  0  0  0  0  0  0
  192.5470  175.7240  147.8460 C   0  0  0  0  0  1  0  0  0  0  0  0
  180.6090  178.1740  142.0290 O   0  0  0  0  0  0  0  0  0  0  0  0
  179.7790  178.8510  141.0930 C   0  0  0  0  0  1  0  0  0  0  0  0
  186.6150  177.4340  143.3450 C   0  0  0  0  0  2  0  0  0  0  0  0
  187.5860  178.0280  142.4450 N   0  0  0  0  0  2  0  0  0  0  0  0
  188.8520  177.6760  142.9310 N   0  0  0  0  0  2  0  0  0  0  0  0
  189.0720  177.6420  140.5110 C   0  0  0  0  0  3  0  0  0  0  0  0
  191.8140  177.4450  140.9090 N   0  0  0  0  0  0  0  0  0  0  0  0
  189.5880  177.0980  141.8200 C   0  0  1  0  0  3  0  0  0  0  0  0
  189.8830  177.6690  139.4440 C   0  0  0  0  0  3  0  0  0  0  0  0
  191.0560  177.4180  141.9560 C   0  0  0  0  0  3  0  0  0  0  0  0
  191.2920  177.1510  139.5840 C   0  0  0  0  0  2  0  0  0  0  0  0
  1 12  1  0  0  0  0
  3  5  1  1  0  0  0
  3  9  1  0  0  0  0
  3  8  1  0  0  0  0
  4  1  2  0  0  0  0
  6  2  2  0  0  0  0
  7  5  2  0  0  0  0
  7  6  1  0  0  0  0
  8 22  1  1  0  0  0
  8  1  1  0  0  0  0
  9  2  1  1  0  0  0
  9  4  1  0  0  0  0
 10 13  1  0  0  0  0
 12 10  2  0  0  0  0
 12 11  1  0  0  0  0
 15 13  1  0  0  0  0
 15 14  2  0  0  0  0
 16 15  2  0  0  0  0
 17 15  1  0  0  0  0
 18 17  1  0  0  0  0
 18 19  1  0  0  0  0
 20  6  1  0  0  0  0
 21 20  1  0  0  0  0
 23 24  1  0  0  0  0
 23 22  1  0  0  0  0
 25 27  1  0  0  0  0
 26 29  2  0  0  0  0
 27 29  1  0  0  0  0
 27 24  1  1  0  0  0
 28 30  1  0  0  0  0
 28 25  2  0  0  0  0
 30 26  1  0  0  0  0
M  END
>  <MODEL>
9

>  <REMARK>
 VINA RESULT:      -7.1      3.511      8.430
  Name = 
  10 active torsions:
  status: ('A' for Active; 'I' for Inactive)
    1  A    between atoms: C_1  and  C_25
    2  A    between atoms: N_4  and  C_5
    3  A    between atoms: N_4  and  S_22
    4  A    between atoms: O_6  and  C_19
    5  A    between atoms: C_7  and  C_17
    6  A    between atoms: N_8  and  N_10
    7  A    between atoms: N_8  and  C_15
    8  A    between atoms: N_10  and  C_13
    9  A    between atoms: C_15  and  C_27
   10  A    between atoms: C_17  and  S_22
                            x       y       z     vdW  Elec       q    Type
                         _______ _______ _______ _____ _____    ______ ____

>  <TORSDO>
F 10

$$$$
