=
 OpenBabel10222420493D

 68 74  0  0  1  0  0  0  0  0999 V2000
  186.9330  175.6200  136.3930 C   0  0  0  0  0  0  0  0  0  0  0  0
  183.7430  178.2610  137.6180 C   0  0  0  0  0  2  0  0  0  0  0  0
  180.7050  177.4800  137.8540 C   0  0  0  0  0  0  0  0  0  0  0  0
  182.8730  174.4920  135.7820 O   0  0  0  0  0  0  0  0  0  0  0  0
  184.9350  177.8740  138.4760 C   0  0  0  0  0  2  0  0  0  0  0  0
  182.7120  173.3510  136.2940 C   0  0  0  0  0  0  0  0  0  0  0  0
  180.5320  176.4030  138.6230 C   0  0  0  0  0  3  0  0  0  0  0  0
  181.3570  175.1600  138.5290 C   0  0  0  0  0  2  0  0  0  0  0  0
  180.6900  174.1680  137.5750 C   0  0  1  0  0  3  0  0  0  0  0  0
  185.5040  173.8030  135.7240 N   0  0  0  0  0  2  0  0  0  0  0  0
  183.6270  172.2420  135.9590 C   0  0  0  0  0  0  0  0  0  0  0  0
  185.8030  171.3570  135.3380 C   0  0  0  0  0  0  0  0  0  0  0  0
  181.6250  173.1200  137.1910 N   0  0  0  0  0  2  0  0  0  0  0  0
  183.9250  169.8940  135.7160 C   0  0  0  0  0  3  0  0  0  0  0  0
  181.7930  177.5920  136.9240 N   0  0  0  0  0  2  0  0  0  0  0  0
  186.8520  174.1490  136.1450 C   0  0  0  0  0  2  0  0  0  0  0  0
  186.1400  176.1350  137.2790 N   0  0  0  0  0  0  0  0  0  0  0  0
  186.1340  177.5520  137.6050 C   0  0  0  0  0  2  0  0  0  0  0  0
  184.9870  172.4680  135.6520 C   0  0  0  0  0  0  0  0  0  0  0  0
  187.2270  171.5000  134.9180 C   0  0  0  0  0  1  0  0  0  0  0  0
  185.2640  170.0720  135.3720 C   0  0  0  0  0  3  0  0  0  0  0  0
  183.1480  170.9680  135.9990 N   0  0  0  0  0  0  0  0  0  0  0  0
  183.0370  177.1290  137.2030 O   0  0  0  0  0  0  0  0  0  0  0  0
  179.4530  179.1730  139.3220 C   0  0  0  0  0  2  0  0  0  0  0  0
  180.6800  179.8310  139.9700 C   0  0  2  0  0  3  0  0  0  0  0  0
  180.8650  180.5740  136.9220 C   0  0  0  0  0  2  0  0  0  0  0  0
  180.2710  180.5840  141.0690 O   0  0  0  0  0  1  0  0  0  0  0  0
  181.5080  180.7120  139.0300 C   0  0  0  0  0  2  0  0  0  0  0  0
  180.7010  181.3450  138.0780 O   0  0  0  0  0  0  0  0  0  0  0  0
  179.7190  179.5780  136.7870 C   0  0  0  0  0  2  0  0  0  0  0  0
  179.6690  178.5600  137.9320 C   0  0  1  0  0  3  0  0  0  0  0  0
  178.9470  174.0860  139.4140 N   0  0  0  0  0  1  0  0  0  0  0  0
  179.4830  173.5530  138.2080 C   0  0  0  0  0  0  0  0  0  0  0  0
  178.9310  172.5630  137.6620 O   0  0  0  0  0  0  0  0  0  0  0  0
  187.8150  176.4440  135.6710 O   0  0  0  0  0  0  0  0  0  0  0  0
  189.1930  176.4090  135.8060 N   0  0  0  0  0  0  0  0  0  0  0  0
  191.2440  176.4240  135.2920 C   0  0  0  0  0  0  0  0  0  0  0  0
  190.0110  176.5310  134.7710 N   0  0  0  0  0  2  0  0  0  0  0  0
  189.8360  176.2410  136.9560 N   0  0  0  0  0  0  0  0  0  0  0  0
  191.1480  176.2650  136.6590 C   0  0  0  0  0  0  0  0  0  0  0  0
  192.3010  176.4420  134.6090 O   0  0  0  0  0  0  0  0  0  0  0  0
  192.0400  174.7300  138.2600 O   0  0  0  0  0  1  0  0  0  0  0  0
  192.2400  175.9730  137.6520 C   0  0  2  0  0  3  0  0  0  0  0  0
  192.3850  177.0200  138.6620 N   0  0  0  0  0  2  0  0  0  0  0  0
  191.1090  177.4150  139.1000 N   0  0  0  0  0  2  0  0  0  0  0  0
  191.0200  177.0800  140.5180 C   0  0  2  0  0  3  0  0  0  0  0  0
  189.5670  176.9810  140.9710 C   0  0  2  0  0  3  0  0  0  0  0  0
  188.7820  178.1350  140.3850 C   0  0  0  0  0  2  0  0  0  0  0  0
  189.2070  178.1790  141.8400 C   0  0  1  0  0  3  0  0  0  0  0  0
  184.0470  177.8220  145.5510 C   0  0  0  0  0  1  0  0  0  0  0  0
  189.6350  176.2130  143.9910 C   0  0  0  0  0  2  0  0  0  0  0  0
  188.2850  176.9020  143.8620 C   0  0  0  0  0  0  0  0  0  0  0  0
  186.8370  177.5440  142.0320 O   0  0  0  0  0  0  0  0  0  0  0  0
  183.8040  179.6000  143.4640 S   0  0  0  0  0  0  0  0  0  0  0  0
  186.7010  178.7640  146.3010 C   0  0  0  0  0  2  0  0  0  0  0  0
  188.4730  175.4940  143.3290 C   0  0  0  0  0  2  0  0  0  0  0  0
  187.8910  177.9390  145.8340 C   0  0  2  0  0  3  0  0  0  0  0  0
  185.9840  178.6480  142.1050 C   0  0  0  0  0  2  0  0  0  0  0  0
  184.4900  179.2140  145.1170 C   0  0  2  0  0  3  0  0  0  0  0  0
  184.6200  178.2130  142.6020 C   0  0  0  0  0  2  0  0  0  0  0  0
  187.9850  177.9250  142.7460 C   0  0  2  0  0  3  0  0  0  0  0  0
  186.0090  179.3830  145.0970 C   0  0  0  0  0  2  0  0  0  0  0  0
  187.4590  176.8920  145.0000 O   0  0  0  0  0  0  0  0  0  0  0  0
  188.6110  177.3910  147.0260 C   0  0  0  0  0  0  0  0  0  0  0  0
  189.9890  177.5230  147.1170 O   0  0  0  0  0  0  0  0  0  0  0  0
  187.9700  176.8430  147.9620 O   0  0  0  0  0  1  0  0  0  0  0  0
  192.2860  177.2990  142.2950 O   0  0  0  0  0  1  0  0  0  0  0  0
  191.7450  177.9940  141.3100 O   0  0  0  0  0  0  0  0  0  0  0  0
  1 17  2  0  0  0  0
  2  5  1  0  0  0  0
  3  7  2  0  0  0  0
  4  6  2  0  0  0  0
  6 13  1  0  0  0  0
  8  7  1  0  0  0  0
  9 33  1  1  0  0  0
  9  8  1  0  0  0  0
 10 16  1  0  0  0  0
 11 22  1  0  0  0  0
 11  6  1  0  0  0  0
 12 21  2  0  0  0  0
 12 19  1  0  0  0  0
 13  9  1  0  0  0  0
 14 22  2  0  0  0  0
 15 23  1  0  0  0  0
 15  3  1  0  0  0  0
 16  1  1  0  0  0  0
 17 18  1  0  0  0  0
 18  5  1  0  0  0  0
 19 10  1  0  0  0  0
 19 11  2  0  0  0  0
 20 12  1  0  0  0  0
 21 14  1  0  0  0  0
 23  2  1  0  0  0  0
 24 25  1  0  0  0  0
 25 27  1  1  0  0  0
 26 29  1  0  0  0  0
 28 25  1  0  0  0  0
 29 28  1  0  0  0  0
 30 26  1  0  0  0  0
 30 31  1  0  0  0  0
 31  3  1  1  0  0  0
 31 24  1  0  0  0  0
 33 32  1  0  0  0  0
 34 33  2  0  0  0  0
 35 36  1  0  0  0  0
 35  1  1  0  0  0  0
 36 39  1  0  0  0  0
 37 40  1  0  0  0  0
 38 37  1  0  0  0  0
 38 36  1  0  0  0  0
 40 39  2  0  0  0  0
 40 43  1  0  0  0  0
 41 37  2  0  0  0  0
 43 42  1  1  0  0  0
 43 44  1  0  0  0  0
 44 45  1  0  0  0  0
 46 45  1  6  0  0  0
 46 68  1  0  0  0  0
 47 46  1  6  0  0  0
 47 49  1  0  0  0  0
 48 47  1  0  0  0  0
 49 48  1  6  0  0  0
 49 61  1  0  0  0  0
 52 51  1  0  0  0  0
 52 63  1  0  0  0  0
 53 58  1  0  0  0  0
 54 59  1  0  0  0  0
 56 52  1  0  0  0  0
 56 51  1  0  0  0  0
 57 55  1  0  0  0  0
 57 64  1  1  0  0  0
 58 60  1  0  0  0  0
 59 50  1  6  0  0  0
 60 54  1  0  0  0  0
 61 53  1  6  0  0  0
 61 52  1  0  0  0  0
 62 59  1  0  0  0  0
 62 55  1  0  0  0  0
 63 57  1  0  0  0  0
 64 65  2  0  0  0  0
 64 66  1  0  0  0  0
 68 67  1  0  0  0  0
M  END
>  <MODEL>
1

>  <REMARK>
 VINA RESULT:      -7.4      0.000      0.000
  Name = 
  12 active torsions:
  status: ('A' for Active; 'I' for Inactive)
    1  A    between atoms: N_2  and  C_56
    2  A    between atoms: N_2  and  N_68
    3  A    between atoms: C_3  and  C_30
    4  A    between atoms: N_5  and  O_53
    5  A    between atoms: C_6  and  O_53
    6  A    between atoms: C_9  and  C_66
    7  A    between atoms: C_11  and  C_60
    8  A    between atoms: C_25  and  C_34
    9  A    between atoms: C_48  and  C_56
   10  A    between atoms: C_51  and  C_61
   11  A    between atoms: O_63  and  C_66
   12  A    between atoms: C_66  and  N_68
                            x       y       z     vdW  Elec       q    Type
                         _______ _______ _______ _____ _____    ______ ____

>  <TORSDO>
F 12

$$$$
=
 OpenBabel10222420493D

 68 74  0  0  1  0  0  0  0  0999 V2000
  185.3110  178.8320  138.9220 C   0  0  0  0  0  0  0  0  0  0  0  0
  185.3130  178.3870  143.2170 C   0  0  0  0  0  2  0  0  0  0  0  0
  187.6460  177.1570  144.9320 C   0  0  0  0  0  0  0  0  0  0  0  0
  188.2280  176.3740  140.8120 O   0  0  0  0  0  0  0  0  0  0  0  0
  185.2180  179.7090  142.4760 C   0  0  0  0  0  2  0  0  0  0  0  0
  189.3630  176.7530  140.4150 C   0  0  0  0  0  0  0  0  0  0  0  0
  188.8110  177.7560  144.6780 C   0  0  0  0  0  3  0  0  0  0  0  0
  189.3170  178.0710  143.3070 C   0  0  0  0  0  2  0  0  0  0  0  0
  190.1850  176.9190  142.8010 C   0  0  1  0  0  3  0  0  0  0  0  0
  187.3260  177.5730  138.5430 N   0  0  0  0  0  2  0  0  0  0  0  0
  189.6440  176.8960  138.9730 C   0  0  0  0  0  0  0  0  0  0  0  0
  188.9820  177.3860  136.6870 C   0  0  0  0  0  0  0  0  0  0  0  0
  190.3940  177.0280  141.3640 N   0  0  0  0  0  2  0  0  0  0  0  0
  191.2640  176.8340  137.2310 C   0  0  0  0  0  3  0  0  0  0  0  0
  186.6980  176.8540  143.8960 N   0  0  0  0  0  2  0  0  0  0  0  0
  186.4430  178.5820  137.9800 C   0  0  0  0  0  2  0  0  0  0  0  0
  185.5910  179.2340  140.1210 N   0  0  0  0  0  0  0  0  0  0  0  0
  184.5710  179.5120  141.1190 C   0  0  0  0  0  2  0  0  0  0  0  0
  188.6390  177.2700  138.0530 C   0  0  0  0  0  0  0  0  0  0  0  0
  187.9750  177.6910  135.6300 C   0  0  0  0  0  1  0  0  0  0  0  0
  190.2980  177.1650  136.2840 C   0  0  0  0  0  3  0  0  0  0  0  0
  190.9200  176.7100  138.5370 N   0  0  0  0  0  0  0  0  0  0  0  0
  186.4690  177.6910  142.8540 O   0  0  0  0  0  0  0  0  0  0  0  0
  188.6060  176.6710  147.2630 C   0  0  0  0  0  2  0  0  0  0  0  0
  189.3770  177.9870  147.4450 C   0  0  2  0  0  3  0  0  0  0  0  0
  186.3470  178.8160  147.3870 C   0  0  0  0  0  2  0  0  0  0  0  0
  190.2670  177.8530  148.5100 O   0  0  0  0  0  1  0  0  0  0  0  0
  188.4990  179.2210  147.6670 C   0  0  0  0  0  2  0  0  0  0  0  0
  187.3350  178.9010  148.3740 O   0  0  0  0  0  0  0  0  0  0  0  0
  186.1350  177.3630  146.9780 C   0  0  0  0  0  2  0  0  0  0  0  0
  187.3790  176.7300  146.3430 C   0  0  1  0  0  3  0  0  0  0  0  0
  192.1490  175.6740  143.8100 N   0  0  0  0  0  1  0  0  0  0  0  0
  191.5080  176.9060  143.4980 C   0  0  0  0  0  0  0  0  0  0  0  0
  192.0630  177.9940  143.7990 O   0  0  0  0  0  0  0  0  0  0  0  0
  183.9730  178.6120  138.5450 O   0  0  0  0  0  0  0  0  0  0  0  0
  182.9650  179.5500  138.6850 N   0  0  0  0  0  0  0  0  0  0  0  0
  181.9400  181.3980  138.6000 C   0  0  0  0  0  0  0  0  0  0  0  0
  183.0990  180.8030  138.2750 N   0  0  0  0  0  2  0  0  0  0  0  0
  181.7830  179.3130  139.2410 N   0  0  0  0  0  0  0  0  0  0  0  0
  181.1020  180.4720  139.1840 C   0  0  0  0  0  0  0  0  0  0  0  0
  181.6990  182.6190  138.4120 O   0  0  0  0  0  0  0  0  0  0  0  0
  179.7060  181.9400  140.4520 O   0  0  0  0  0  1  0  0  0  0  0  0
  179.7600  180.6910  139.8280 C   0  0  2  0  0  3  0  0  0  0  0  0
  179.4010  179.6310  140.7700 N   0  0  0  0  0  2  0  0  0  0  0  0
  178.9320  178.5170  140.0520 N   0  0  0  0  0  2  0  0  0  0  0  0
  179.8950  177.4390  140.2540 C   0  0  2  0  0  3  0  0  0  0  0  0
  179.7510  176.3630  139.1830 C   0  0  2  0  0  3  0  0  0  0  0  0
  179.2980  175.0730  139.8310 C   0  0  0  0  0  2  0  0  0  0  0  0
  180.7510  175.2420  139.4320 C   0  0  1  0  0  3  0  0  0  0  0  0
  181.7630  171.2170  134.6040 C   0  0  0  0  0  1  0  0  0  0  0  0
  183.1760  176.0180  137.9510 C   0  0  0  0  0  2  0  0  0  0  0  0
  182.3370  174.8490  137.4570 C   0  0  0  0  0  0  0  0  0  0  0  0
  179.9730  174.3730  137.2640 O   0  0  0  0  0  0  0  0  0  0  0  0
  179.5110  170.6500  136.0810 S   0  0  0  0  0  0  0  0  0  0  0  0
  183.4400  171.6150  136.9540 C   0  0  0  0  0  2  0  0  0  0  0  0
  182.2030  176.2100  136.8010 C   0  0  0  0  0  2  0  0  0  0  0  0
  183.7080  173.0500  137.3840 C   0  0  2  0  0  3  0  0  0  0  0  0
  179.4600  173.0760  137.3520 C   0  0  0  0  0  2  0  0  0  0  0  0
  181.3340  170.6060  135.9340 C   0  0  2  0  0  3  0  0  0  0  0  0
  179.3630  172.4660  135.9680 C   0  0  0  0  0  2  0  0  0  0  0  0
  181.0450  174.4020  138.1720 C   0  0  2  0  0  3  0  0  0  0  0  0
  181.9660  171.2950  137.1430 C   0  0  0  0  0  2  0  0  0  0  0  0
  182.9680  173.9420  136.5870 O   0  0  0  0  0  0  0  0  0  0  0  0
  185.1720  173.3370  137.2640 C   0  0  0  0  0  0  0  0  0  0  0  0
  186.0660  172.7180  138.1270 O   0  0  0  0  0  1  0  0  0  0  0  0
  185.6000  174.1060  136.3630 O   0  0  0  0  0  0  0  0  0  0  0  0
  180.3050  177.7820  142.3800 O   0  0  0  0  0  1  0  0  0  0  0  0
  179.7920  176.8930  141.5500 O   0  0  0  0  0  0  0  0  0  0  0  0
  1 17  2  0  0  0  0
  5  2  1  0  0  0  0
  6  4  2  0  0  0  0
  6 13  1  0  0  0  0
  7  3  2  0  0  0  0
  8  7  1  0  0  0  0
  9  8  1  0  0  0  0
  9 33  1  1  0  0  0
 11  6  1  0  0  0  0
 12 19  1  0  0  0  0
 13  9  1  0  0  0  0
 14 22  2  0  0  0  0
 15  3  1  0  0  0  0
 16 10  1  0  0  0  0
 16  1  1  0  0  0  0
 17 18  1  0  0  0  0
 18  5  1  0  0  0  0
 19 10  1  0  0  0  0
 19 11  2  0  0  0  0
 20 12  1  0  0  0  0
 21 12  2  0  0  0  0
 21 14  1  0  0  0  0
 22 11  1  0  0  0  0
 23  2  1  0  0  0  0
 23 15  1  0  0  0  0
 24 25  1  0  0  0  0
 25 28  1  0  0  0  0
 25 27  1  1  0  0  0
 26 29  1  0  0  0  0
 28 29  1  0  0  0  0
 30 26  1  0  0  0  0
 31  3  1  6  0  0  0
 31 30  1  0  0  0  0
 31 24  1  0  0  0  0
 33 34  2  0  0  0  0
 33 32  1  0  0  0  0
 35 36  1  0  0  0  0
 35  1  1  0  0  0  0
 36 39  1  0  0  0  0
 37 40  1  0  0  0  0
 38 37  1  0  0  0  0
 38 36  1  0  0  0  0
 40 39  2  0  0  0  0
 40 43  1  0  0  0  0
 41 37  2  0  0  0  0
 43 42  1  1  0  0  0
 43 44  1  0  0  0  0
 45 44  1  0  0  0  0
 46 45  1  6  0  0  0
 46 68  1  0  0  0  0
 47 49  1  0  0  0  0
 47 48  1  0  0  0  0
 47 46  1  1  0  0  0
 49 48  1  1  0  0  0
 52 51  1  0  0  0  0
 52 61  1  0  0  0  0
 53 58  1  0  0  0  0
 55 62  1  0  0  0  0
 55 57  1  0  0  0  0
 56 52  1  0  0  0  0
 56 51  1  0  0  0  0
 57 64  1  6  0  0  0
 59 50  1  6  0  0  0
 59 54  1  0  0  0  0
 59 62  1  0  0  0  0
 60 54  1  0  0  0  0
 60 58  1  0  0  0  0
 61 53  1  6  0  0  0
 61 49  1  0  0  0  0
 63 57  1  0  0  0  0
 63 52  1  0  0  0  0
 64 65  1  0  0  0  0
 66 64  2  0  0  0  0
 68 67  1  0  0  0  0
M  END
>  <MODEL>
2

>  <REMARK>
 VINA RESULT:      -5.6      3.013     10.333
  Name = 
  12 active torsions:
  status: ('A' for Active; 'I' for Inactive)
    1  A    between atoms: N_2  and  C_56
    2  A    between atoms: N_2  and  N_68
    3  A    between atoms: C_3  and  C_30
    4  A    between atoms: N_5  and  O_53
    5  A    between atoms: C_6  and  O_53
    6  A    between atoms: C_9  and  C_66
    7  A    between atoms: C_11  and  C_60
    8  A    between atoms: C_25  and  C_34
    9  A    between atoms: C_48  and  C_56
   10  A    between atoms: C_51  and  C_61
   11  A    between atoms: O_63  and  C_66
   12  A    between atoms: C_66  and  N_68
                            x       y       z     vdW  Elec       q    Type
                         _______ _______ _______ _____ _____    ______ ____

>  <TORSDO>
F 12

$$$$
