=
 OpenBabel10222421043D

 55 61  0  0  1  0  0  0  0  0999 V2000
  189.8640  176.7640  146.1910 C   0  0  0  0  0  2  0  0  0  0  0  0
  185.9670  178.0630  143.5740 C   0  0  0  0  0  0  0  0  0  0  0  0
  187.1580  177.4000  143.6090 N   0  0  0  0  0  0  0  0  0  0  0  0
  185.6040  178.5450  144.8380 C   0  0  0  0  0  0  0  0  0  0  0  0
  186.6350  178.2200  145.7040 C   0  0  0  0  0  0  0  0  0  0  0  0
  187.5570  177.5350  144.8930 C   0  0  0  0  0  0  0  0  0  0  0  0
  185.7950  179.2380  147.9080 C   0  0  0  0  0  1  0  0  0  0  0  0
  188.3050  178.3180  149.1510 O   0  0  0  0  0  1  0  0  0  0  0  0
  188.6820  177.1670  145.5560 C   0  0  0  0  0  0  0  0  0  0  0  0
  188.9140  177.4370  146.9720 C   0  0  0  0  0  0  0  0  0  0  0  0
  186.8350  178.5060  147.1300 C   0  0  0  0  0  0  0  0  0  0  0  0
  188.0430  178.0860  147.8060 C   0  0  0  0  0  0  0  0  0  0  0  0
  184.3860  179.3520  145.1530 C   0  0  0  0  0  2  0  0  0  0  0  0
  183.1420  178.6200  144.6920 C   0  0  0  0  0  1  0  0  0  0  0  0
  187.9310  176.9090  142.4500 C   0  0  2  0  0  3  0  0  0  0  0  0
  188.8780  175.7690  142.8160 C   0  0  0  0  0  1  0  0  0  0  0  0
  188.6680  178.0110  141.6730 C   0  0  0  0  0  2  0  0  0  0  0  0
  192.4320  177.6400  142.0550 C   0  0  0  0  0  3  0  0  0  0  0  0
  190.1160  177.7230  141.3720 C   0  0  0  0  0  0  0  0  0  0  0  0
  192.7950  177.3550  140.7750 N   0  0  0  0  0  0  0  0  0  0  0  0
  191.0880  177.8310  142.3740 C   0  0  0  0  0  3  0  0  0  0  0  0
  190.5120  177.4180  140.0590 C   0  0  0  0  0  0  0  0  0  0  0  0
  191.8730  177.2390  139.7830 C   0  0  0  0  0  3  0  0  0  0  0  0
  189.5360  177.2590  139.0250 N   0  0  0  0  0  2  0  0  0  0  0  0
  189.8660  176.8140  137.7870 O   0  0  0  0  0  0  0  0  0  0  0  0
  189.7810  175.4210  137.8710 C   0  0  1  0  0  3  0  0  0  0  0  0
  189.5240  173.8480  136.1250 C   0  0  2  0  0  0  0  0  0  0  0  0
  188.7370  172.7190  135.8880 O   0  0  0  0  0  1  0  0  0  0  0  0
  190.8240  173.6900  136.8750 C   0  0  2  0  0  3  0  0  0  0  0  0
  188.7590  174.8880  136.8770 C   0  0  2  0  0  3  0  0  0  0  0  0
  191.0450  174.8500  137.6310 O   0  0  0  0  0  0  0  0  0  0  0  0
  189.1720  175.1540  135.4320 C   0  0  2  0  0  3  0  0  0  0  0  0
  188.0700  174.9790  134.5940 O   0  0  0  0  0  1  0  0  0  0  0  0
  191.9780  173.4980  135.9080 C   0  0  0  0  0  2  0  0  0  0  0  0
  192.9930  172.7230  136.5020 O   0  0  0  0  0  0  0  0  0  0  0  0
  194.1970  173.4700  136.5710 C   0  0  0  0  0  0  0  0  0  0  0  0
  194.5170  173.7130  138.0340 C   0  0  0  0  0  1  0  0  0  0  0  0
  195.3640  172.6870  135.9810 C   0  0  0  0  0  1  0  0  0  0  0  0
  194.5680  175.8580  136.7070 O   0  0  0  0  0  1  0  0  0  0  0  0
  194.0960  174.8360  135.8760 C   0  0  0  0  0  2  0  0  0  0  0  0
  185.1630  178.2930  142.3340 C   0  0  0  0  0  2  0  0  0  0  0  0
  185.4900  179.5340  141.7870 O   0  0  0  0  0  0  0  0  0  0  0  0
  185.4910  179.3280  140.4490 N   0  0  0  0  0  2  0  0  0  0  0  0
  184.2420  178.6610  140.1260 C   0  0  0  0  0  2  0  0  0  0  0  0
  183.8100  179.0310  138.7060 C   0  0  0  0  0  2  0  0  0  0  0  0
  183.3640  177.8770  137.9040 N   0  0  0  0  0  0  0  0  0  0  0  0
  183.4050  175.1740  138.0290 S   0  0  0  0  0  0  0  0  0  0  0  0
  183.9840  176.0100  136.5390 C   0  0  0  0  0  2  0  0  0  0  0  0
  184.3940  177.3930  136.9770 C   0  0  2  0  0  3  0  0  0  0  0  0
  182.8490  176.7730  138.7350 C   0  0  2  0  0  3  0  0  0  0  0  0
  180.8950  175.4700  138.4660 C   0  0  0  0  0  1  0  0  0  0  0  0
  181.3790  176.8010  138.7940 N   0  0  0  0  0  0  0  0  0  0  0  0
  180.9420  177.0350  140.1610 C   0  0  0  0  0  1  0  0  0  0  0  0
  185.6560  177.3210  137.5830 O   0  0  0  0  0  0  0  0  0  0  0  0
  186.5400  177.8430  136.6360 C   0  0  0  0  0  1  0  0  0  0  0  0
  1 10  1  0  0  0  0
  2  3  1  0  0  0  0
  2  4  2  0  0  0  0
  3  6  1  0  0  0  0
  4 13  1  0  0  0  0
  4  5  1  0  0  0  0
  5 11  1  0  0  0  0
  6  9  1  0  0  0  0
  6  5  2  0  0  0  0
  9  1  1  0  0  0  0
  9 10  2  0  0  0  0
 10 12  1  0  0  0  0
 11 12  2  0  0  0  0
 11  7  1  0  0  0  0
 12  8  1  0  0  0  0
 14 13  1  0  0  0  0
 15 16  1  1  0  0  0
 15  3  1  0  0  0  0
 17 15  1  0  0  0  0
 18 21  1  0  0  0  0
 19 17  1  0  0  0  0
 19 21  2  0  0  0  0
 20 18  2  0  0  0  0
 22 19  1  0  0  0  0
 23 22  2  0  0  0  0
 23 20  1  0  0  0  0
 24 22  1  0  0  0  0
 25 24  1  0  0  0  0
 26 25  1  6  0  0  0
 27 28  1  6  0  0  0
 27 29  1  0  0  0  0
 27 30  1  0  0  0  0
 29 34  1  6  0  0  0
 29 31  1  0  0  0  0
 30 26  1  0  0  0  0
 31 26  1  0  0  0  0
 32 27  1  0  0  0  0
 32 30  1  0  0  0  0
 33 32  1  0  0  0  0
 34 35  1  0  0  0  0
 35 36  1  0  0  0  0
 36 37  1  0  0  0  0
 38 36  1  0  0  0  0
 40 36  1  0  0  0  0
 40 39  1  0  0  0  0
 41  2  1  0  0  0  0
 42 41  1  0  0  0  0
 43 42  1  0  0  0  0
 44 43  1  0  0  0  0
 45 44  1  0  0  0  0
 46 45  1  0  0  0  0
 46 50  1  0  0  0  0
 47 50  1  0  0  0  0
 48 49  1  0  0  0  0
 48 47  1  0  0  0  0
 49 54  1  0  0  0  0
 49 46  1  0  0  0  0
 50 52  1  0  0  0  0
 51 52  1  0  0  0  0
 52 53  1  0  0  0  0
 55 54  1  0  0  0  0
M  END
>  <MODEL>
1

>  <REMARK>
 VINA RESULT:      -7.4      0.000      0.000
  Name = 
  19 active torsions:
  status: ('A' for Active; 'I' for Inactive)
    1  A    between atoms: C_2  and  O_46
    2  A    between atoms: O_4  and  C_23
    3  A    between atoms: C_5  and  N_10
    4  A    between atoms: C_5  and  C_50
    5  A    between atoms: C_7  and  O_35
    6  A    between atoms: C_7  and  C_49
    7  A    between atoms: C_9  and  C_54
    8  A    between atoms: N_11  and  C_32
    9  A    between atoms: C_13  and  C_50
   10  A    between atoms: C_15  and  C_21
   11  A    between atoms: N_18  and  C_39
   12  A    between atoms: N_18  and  O_46
   13  A    between atoms: O_20  and  N_48
   14  A    between atoms: O_20  and  C_54
   15  A    between atoms: C_26  and  C_51
   16  A    between atoms: C_32  and  C_34
   17  A    between atoms: N_33  and  C_45
   18  A    between atoms: C_34  and  N_48
   19  A    between atoms: O_35  and  C_51
                            x       y       z     vdW  Elec       q    Type
                         _______ _______ _______ _____ _____    ______ ____

>  <TORSDO>
F 19

$$$$
=
 OpenBabel10222421043D

 55 61  0  0  1  0  0  0  0  0999 V2000
  185.3630  178.6430  146.6200 C   0  0  0  0  0  2  0  0  0  0  0  0
  188.3300  177.7390  142.8640 C   0  0  0  0  0  0  0  0  0  0  0  0
  187.1390  178.2490  143.2900 N   0  0  0  0  0  0  0  0  0  0  0  0
  189.1440  177.3570  143.9370 C   0  0  0  0  0  0  0  0  0  0  0  0
  188.4190  177.5840  145.0940 C   0  0  0  0  0  0  0  0  0  0  0  0
  187.2010  178.1150  144.6330 C   0  0  0  0  0  0  0  0  0  0  0  0
  190.0560  176.7670  146.8970 C   0  0  0  0  0  1  0  0  0  0  0  0
  187.9900  177.4130  148.8980 O   0  0  0  0  0  1  0  0  0  0  0  0
  186.3150  178.3660  145.6300 C   0  0  0  0  0  0  0  0  0  0  0  0
  186.5950  178.1250  147.0420 C   0  0  0  0  0  0  0  0  0  0  0  0
  188.7330  177.3320  146.5060 C   0  0  0  0  0  0  0  0  0  0  0  0
  187.7670  177.6230  147.5420 C   0  0  0  0  0  0  0  0  0  0  0  0
  190.4930  176.7210  143.8320 C   0  0  0  0  0  2  0  0  0  0  0  0
  191.5580  177.7850  143.6540 C   0  0  0  0  0  1  0  0  0  0  0  0
  185.9730  178.5930  142.4500 C   0  0  2  0  0  3  0  0  0  0  0  0
  185.5240  180.0410  142.6350 C   0  0  0  0  0  1  0  0  0  0  0  0
  184.7890  177.6250  142.5910 C   0  0  0  0  0  2  0  0  0  0  0  0
  181.6820  179.1690  144.1470 C   0  0  0  0  0  3  0  0  0  0  0  0
  183.4410  178.2820  142.7490 C   0  0  0  0  0  0  0  0  0  0  0  0
  180.8970  179.3330  143.0480 N   0  0  0  0  0  0  0  0  0  0  0  0
  182.9650  178.6380  144.0170 C   0  0  0  0  0  3  0  0  0  0  0  0
  182.6170  178.4690  141.6260 C   0  0  0  0  0  0  0  0  0  0  0  0
  181.3340  179.0000  141.8050 C   0  0  0  0  0  3  0  0  0  0  0  0
  183.0950  178.1530  140.3150 N   0  0  0  0  0  2  0  0  0  0  0  0
  182.2570  177.7840  139.3140 O   0  0  0  0  0  0  0  0  0  0  0  0
  182.5050  178.6950  138.2830 C   0  0  1  0  0  3  0  0  0  0  0  0
  181.0880  179.3300  136.5000 C   0  0  2  0  0  0  0  0  0  0  0  0
  181.2160  179.5120  135.1210 O   0  0  0  0  0  1  0  0  0  0  0  0
  181.4230  180.4750  137.4240 C   0  0  2  0  0  3  0  0  0  0  0  0
  181.9240  178.1850  136.9710 C   0  0  2  0  0  3  0  0  0  0  0  0
  181.9550  179.9490  138.6100 O   0  0  0  0  0  0  0  0  0  0  0  0
  180.4030  178.0770  137.0210 C   0  0  2  0  0  3  0  0  0  0  0  0
  179.9580  177.2890  135.9590 O   0  0  0  0  0  1  0  0  0  0  0  0
  180.1800  181.2800  137.7490 C   0  0  0  0  0  2  0  0  0  0  0  0
  180.5330  182.5430  138.2640 O   0  0  0  0  0  0  0  0  0  0  0  0
  180.1060  183.5660  137.3770 C   0  0  0  0  0  0  0  0  0  0  0  0
  179.2420  184.5360  138.1600 C   0  0  0  0  0  1  0  0  0  0  0  0
  181.2930  184.3570  136.8390 C   0  0  0  0  0  1  0  0  0  0  0  0
  179.9620  183.1760  134.9930 O   0  0  0  0  0  1  0  0  0  0  0  0
  179.2740  183.0320  136.2020 C   0  0  0  0  0  2  0  0  0  0  0  0
  188.7090  177.5630  141.4280 C   0  0  0  0  0  2  0  0  0  0  0  0
  188.4820  178.7520  140.7340 O   0  0  0  0  0  0  0  0  0  0  0  0
  188.3570  178.3730  139.4400 N   0  0  0  0  0  2  0  0  0  0  0  0
  189.6110  177.7450  139.0630 C   0  0  0  0  0  2  0  0  0  0  0  0
  189.3340  176.3920  138.4050 C   0  0  0  0  0  2  0  0  0  0  0  0
  189.8020  176.3080  137.0090 N   0  0  0  0  0  0  0  0  0  0  0  0
  189.9330  174.4850  135.0130 S   0  0  0  0  0  0  0  0  0  0  0  0
  191.4070  175.4200  135.4700 C   0  0  0  0  0  2  0  0  0  0  0  0
  191.1930  175.8520  136.8980 C   0  0  2  0  0  3  0  0  0  0  0  0
  188.9140  175.4890  136.1620 C   0  0  2  0  0  3  0  0  0  0  0  0
  187.0990  175.4660  134.6470 C   0  0  0  0  0  1  0  0  0  0  0  0
  187.9940  176.3390  135.3900 N   0  0  0  0  0  0  0  0  0  0  0  0
  187.1310  177.0830  136.2940 C   0  0  0  0  0  1  0  0  0  0  0  0
  191.4600  174.7680  137.7460 O   0  0  0  0  0  0  0  0  0  0  0  0
  192.8120  174.4790  137.5440 C   0  0  0  0  0  1  0  0  0  0  0  0
  1 10  1  0  0  0  0
  2  3  1  0  0  0  0
  2  4  2  0  0  0  0
  3  6  1  0  0  0  0
  4  5  1  0  0  0  0
  5 11  1  0  0  0  0
  6  5  2  0  0  0  0
  6  9  1  0  0  0  0
  9  1  1  0  0  0  0
  9 10  2  0  0  0  0
 10 12  1  0  0  0  0
 11  7  1  0  0  0  0
 11 12  2  0  0  0  0
 12  8  1  0  0  0  0
 13  4  1  0  0  0  0
 14 13  1  0  0  0  0
 15 17  1  0  0  0  0
 15 16  1  1  0  0  0
 15  3  1  0  0  0  0
 17 19  1  0  0  0  0
 19 21  2  0  0  0  0
 20 18  2  0  0  0  0
 21 18  1  0  0  0  0
 22 23  2  0  0  0  0
 22 19  1  0  0  0  0
 23 20  1  0  0  0  0
 24 22  1  0  0  0  0
 25 24  1  0  0  0  0
 26 31  1  0  0  0  0
 26 25  1  1  0  0  0
 27 28  1  6  0  0  0
 27 30  1  0  0  0  0
 27 32  1  0  0  0  0
 27 29  1  0  0  0  0
 29 34  1  1  0  0  0
 29 31  1  0  0  0  0
 30 32  1  0  0  0  0
 30 26  1  0  0  0  0
 33 32  1  0  0  0  0
 34 35  1  0  0  0  0
 36 37  1  0  0  0  0
 36 35  1  0  0  0  0
 38 36  1  0  0  0  0
 39 40  1  0  0  0  0
 40 36  1  0  0  0  0
 41  2  1  0  0  0  0
 42 41  1  0  0  0  0
 43 42  1  0  0  0  0
 44 43  1  0  0  0  0
 45 44  1  0  0  0  0
 46 45  1  0  0  0  0
 47 48  1  0  0  0  0
 47 50  1  0  0  0  0
 48 49  1  0  0  0  0
 49 46  1  0  0  0  0
 49 54  1  0  0  0  0
 50 46  1  0  0  0  0
 51 52  1  0  0  0  0
 52 50  1  0  0  0  0
 52 53  1  0  0  0  0
 55 54  1  0  0  0  0
M  END
>  <MODEL>
2

>  <REMARK>
 VINA RESULT:      -7.2      3.374      8.822
  Name = 
  19 active torsions:
  status: ('A' for Active; 'I' for Inactive)
    1  A    between atoms: C_2  and  O_46
    2  A    between atoms: O_4  and  C_23
    3  A    between atoms: C_5  and  N_10
    4  A    between atoms: C_5  and  C_50
    5  A    between atoms: C_7  and  O_35
    6  A    between atoms: C_7  and  C_49
    7  A    between atoms: C_9  and  C_54
    8  A    between atoms: N_11  and  C_32
    9  A    between atoms: C_13  and  C_50
   10  A    between atoms: C_15  and  C_21
   11  A    between atoms: N_18  and  C_39
   12  A    between atoms: N_18  and  O_46
   13  A    between atoms: O_20  and  N_48
   14  A    between atoms: O_20  and  C_54
   15  A    between atoms: C_26  and  C_51
   16  A    between atoms: C_32  and  C_34
   17  A    between atoms: N_33  and  C_45
   18  A    between atoms: C_34  and  N_48
   19  A    between atoms: O_35  and  C_51
                            x       y       z     vdW  Elec       q    Type
                         _______ _______ _______ _____ _____    ______ ____

>  <TORSDO>
F 19

$$$$
=
 OpenBabel10222421043D

 55 61  0  0  1  0  0  0  0  0999 V2000
  183.8550  178.7090  145.2100 C   0  0  0  0  0  2  0  0  0  0  0  0
  184.9830  178.5470  140.4740 C   0  0  0  0  0  0  0  0  0  0  0  0
  185.4210  178.4640  141.7620 N   0  0  0  0  0  0  0  0  0  0  0  0
  183.5880  178.6480  140.4060 C   0  0  0  0  0  0  0  0  0  0  0  0
  183.1230  178.6830  141.7100 C   0  0  0  0  0  0  0  0  0  0  0  0
  184.2890  178.5810  142.4900 C   0  0  0  0  0  0  0  0  0  0  0  0
  180.5920  178.9290  141.3460 C   0  0  0  0  0  1  0  0  0  0  0  0
  180.2990  179.0200  144.2780 O   0  0  0  0  0  1  0  0  0  0  0  0
  184.0480  178.6460  143.8230 C   0  0  0  0  0  0  0  0  0  0  0  0
  182.7140  178.7930  144.3990 C   0  0  0  0  0  0  0  0  0  0  0  0
  181.7690  178.8300  142.2560 C   0  0  0  0  0  0  0  0  0  0  0  0
  181.5490  178.8840  143.6850 C   0  0  0  0  0  0  0  0  0  0  0  0
  182.7790  178.8000  139.1580 C   0  0  0  0  0  2  0  0  0  0  0  0
  182.7020  180.2620  138.7630 C   0  0  0  0  0  1  0  0  0  0  0  0
  186.8240  178.5170  142.2250 C   0  0  2  0  0  3  0  0  0  0  0  0
  187.7670  179.0940  141.1720 C   0  0  0  0  0  1  0  0  0  0  0  0
  187.3560  177.1830  142.7710 C   0  0  0  0  0  2  0  0  0  0  0  0
  189.9650  177.9370  145.4320 C   0  0  0  0  0  3  0  0  0  0  0  0
  188.6710  177.2720  143.5040 C   0  0  0  0  0  0  0  0  0  0  0  0
  191.1070  177.5870  144.7800 N   0  0  0  0  0  0  0  0  0  0  0  0
  188.7290  177.7890  144.8040 C   0  0  0  0  0  3  0  0  0  0  0  0
  189.8620  176.9070  142.8530 C   0  0  0  0  0  0  0  0  0  0  0  0
  191.0810  177.0790  143.5200 C   0  0  0  0  0  3  0  0  0  0  0  0
  189.8260  176.3370  141.5420 N   0  0  0  0  0  2  0  0  0  0  0  0
  190.6710  176.7410  140.5600 O   0  0  0  0  0  0  0  0  0  0  0  0
  190.2140  176.0990  139.4050 C   0  0  1  0  0  3  0  0  0  0  0  0
  189.8500  177.0090  137.2540 C   0  0  2  0  0  0  0  0  0  0  0  0
  188.8480  176.9450  136.2840 O   0  0  0  0  0  1  0  0  0  0  0  0
  190.9210  175.9460  137.2720 C   0  0  2  0  0  3  0  0  0  0  0  0
  189.2690  177.0060  138.6300 C   0  0  2  0  0  3  0  0  0  0  0  0
  191.3080  175.7260  138.6010 O   0  0  0  0  0  0  0  0  0  0  0  0
  189.9710  178.2570  138.1120 C   0  0  2  0  0  3  0  0  0  0  0  0
  189.0180  179.2030  137.7330 O   0  0  0  0  0  1  0  0  0  0  0  0
  192.1290  176.3910  136.4690 C   0  0  0  0  0  2  0  0  0  0  0  0
  193.3180  175.9730  137.0980 O   0  0  0  0  0  0  0  0  0  0  0  0
  194.2650  175.5630  136.1240 C   0  0  0  0  0  0  0  0  0  0  0  0
  193.5670  174.6260  135.1550 C   0  0  0  0  0  1  0  0  0  0  0  0
  194.7680  176.7510  135.3120 C   0  0  0  0  0  1  0  0  0  0  0  0
  195.8580  173.7540  135.9050 O   0  0  0  0  0  1  0  0  0  0  0  0
  195.4610  174.8130  136.7280 C   0  0  0  0  0  2  0  0  0  0  0  0
  185.8780  178.5750  139.2760 C   0  0  0  0  0  2  0  0  0  0  0  0
  185.7680  177.3710  138.5800 O   0  0  0  0  0  0  0  0  0  0  0  0
  185.7710  177.7300  137.2740 N   0  0  0  0  0  2  0  0  0  0  0  0
  184.7640  176.9180  136.6140 C   0  0  0  0  0  2  0  0  0  0  0  0
  185.4200  176.0590  135.5320 C   0  0  0  0  0  2  0  0  0  0  0  0
  185.1210  174.6210  135.6560 N   0  0  0  0  0  0  0  0  0  0  0  0
  184.6010  172.8110  137.5990 S   0  0  0  0  0  0  0  0  0  0  0  0
  185.8680  172.4580  136.3650 C   0  0  0  0  0  2  0  0  0  0  0  0
  186.3220  173.8000  135.8490 C   0  0  2  0  0  3  0  0  0  0  0  0
  184.1210  174.3380  136.7030 C   0  0  2  0  0  3  0  0  0  0  0  0
  182.4450  172.7530  136.1840 C   0  0  0  0  0  1  0  0  0  0  0  0
  182.7820  174.1660  136.1180 N   0  0  0  0  0  0  0  0  0  0  0  0
  181.7900  174.8290  136.9500 C   0  0  0  0  0  1  0  0  0  0  0  0
  187.2040  174.3690  136.7800 O   0  0  0  0  0  0  0  0  0  0  0  0
  188.2770  173.4770  136.8500 C   0  0  0  0  0  1  0  0  0  0  0  0
  2  3  1  0  0  0  0
  3 15  1  0  0  0  0
  3  6  1  0  0  0  0
  4  2  2  0  0  0  0
  4  5  1  0  0  0  0
  5 11  2  0  0  0  0
  5  6  1  0  0  0  0
  6  9  2  0  0  0  0
  7 11  1  0  0  0  0
  9 10  1  0  0  0  0
  9  1  1  0  0  0  0
 10  1  1  0  0  0  0
 11 12  1  0  0  0  0
 12  8  1  0  0  0  0
 12 10  2  0  0  0  0
 13  4  1  0  0  0  0
 14 13  1  0  0  0  0
 15 16  1  6  0  0  0
 15 17  1  0  0  0  0
 17 19  1  0  0  0  0
 19 21  2  0  0  0  0
 20 18  2  0  0  0  0
 21 18  1  0  0  0  0
 22 19  1  0  0  0  0
 22 23  2  0  0  0  0
 23 20  1  0  0  0  0
 24 22  1  0  0  0  0
 25 24  1  0  0  0  0
 26 25  1  1  0  0  0
 27 28  1  6  0  0  0
 27 29  1  0  0  0  0
 27 32  1  0  0  0  0
 27 30  1  0  0  0  0
 29 34  1  6  0  0  0
 29 31  1  0  0  0  0
 30 26  1  0  0  0  0
 31 26  1  0  0  0  0
 32 30  1  0  0  0  0
 33 32  1  0  0  0  0
 34 35  1  0  0  0  0
 36 40  1  0  0  0  0
 36 35  1  0  0  0  0
 37 36  1  0  0  0  0
 38 36  1  0  0  0  0
 39 40  1  0  0  0  0
 41  2  1  0  0  0  0
 42 41  1  0  0  0  0
 43 42  1  0  0  0  0
 44 43  1  0  0  0  0
 45 46  1  0  0  0  0
 45 44  1  0  0  0  0
 46 49  1  0  0  0  0
 46 50  1  0  0  0  0
 48 47  1  0  0  0  0
 49 48  1  0  0  0  0
 49 54  1  0  0  0  0
 50 47  1  0  0  0  0
 52 51  1  0  0  0  0
 52 50  1  0  0  0  0
 52 53  1  0  0  0  0
 54 55  1  0  0  0  0
M  END
>  <MODEL>
3

>  <REMARK>
 VINA RESULT:      -7.0      2.377      4.359
  Name = 
  19 active torsions:
  status: ('A' for Active; 'I' for Inactive)
    1  A    between atoms: C_2  and  O_46
    2  A    between atoms: O_4  and  C_23
    3  A    between atoms: C_5  and  N_10
    4  A    between atoms: C_5  and  C_50
    5  A    between atoms: C_7  and  O_35
    6  A    between atoms: C_7  and  C_49
    7  A    between atoms: C_9  and  C_54
    8  A    between atoms: N_11  and  C_32
    9  A    between atoms: C_13  and  C_50
   10  A    between atoms: C_15  and  C_21
   11  A    between atoms: N_18  and  C_39
   12  A    between atoms: N_18  and  O_46
   13  A    between atoms: O_20  and  N_48
   14  A    between atoms: O_20  and  C_54
   15  A    between atoms: C_26  and  C_51
   16  A    between atoms: C_32  and  C_34
   17  A    between atoms: N_33  and  C_45
   18  A    between atoms: C_34  and  N_48
   19  A    between atoms: O_35  and  C_51
                            x       y       z     vdW  Elec       q    Type
                         _______ _______ _______ _____ _____    ______ ____

>  <TORSDO>
F 19

$$$$
=
 OpenBabel10222421043D

 55 61  0  0  1  0  0  0  0  0999 V2000
  185.0020  178.4020  146.5990 C   0  0  0  0  0  2  0  0  0  0  0  0
  187.8330  177.7020  142.6970 C   0  0  0  0  0  0  0  0  0  0  0  0
  186.6100  178.0650  143.1790 N   0  0  0  0  0  0  0  0  0  0  0  0
  188.7580  177.5020  143.7290 C   0  0  0  0  0  0  0  0  0  0  0  0
  188.0790  177.6930  144.9210 C   0  0  0  0  0  0  0  0  0  0  0  0
  186.7720  178.0210  144.5190 C   0  0  0  0  0  0  0  0  0  0  0  0
  189.9240  177.2200  146.6450 C   0  0  0  0  0  1  0  0  0  0  0  0
  187.9130  177.6880  148.7490 O   0  0  0  0  0  1  0  0  0  0  0  0
  185.9220  178.2040  145.5610 C   0  0  0  0  0  0  0  0  0  0  0  0
  186.3200  178.0870  146.9610 C   0  0  0  0  0  0  0  0  0  0  0  0
  188.5120  177.5700  146.3180 C   0  0  0  0  0  0  0  0  0  0  0  0
  187.5800  177.7840  147.4030 C   0  0  0  0  0  0  0  0  0  0  0  0
  190.1750  177.0550  143.5630 C   0  0  0  0  0  2  0  0  0  0  0  0
  191.1010  178.2560  143.5460 C   0  0  0  0  0  1  0  0  0  0  0  0
  185.3580  178.1930  142.4050 C   0  0  2  0  0  3  0  0  0  0  0  0
  185.6000  178.2270  140.8980 C   0  0  0  0  0  1  0  0  0  0  0  0
  184.4630  179.3610  142.8470 C   0  0  0  0  0  2  0  0  0  0  0  0
  181.0340  178.5580  144.2790 C   0  0  0  0  0  3  0  0  0  0  0  0
  182.9940  179.0380  142.9510 C   0  0  0  0  0  0  0  0  0  0  0  0
  180.3380  178.2810  143.1440 N   0  0  0  0  0  0  0  0  0  0  0  0
  182.3740  178.9380  144.2030 C   0  0  0  0  0  3  0  0  0  0  0  0
  182.2540  178.7570  141.7910 C   0  0  0  0  0  0  0  0  0  0  0  0
  180.9130  178.3740  141.9150 C   0  0  0  0  0  3  0  0  0  0  0  0
  182.8510  178.8940  140.4980 N   0  0  0  0  0  2  0  0  0  0  0  0
  182.1770  178.5980  139.3590 O   0  0  0  0  0  0  0  0  0  0  0  0
  181.8770  177.2360  139.4610 C   0  0  1  0  0  3  0  0  0  0  0  0
  181.4370  175.6870  137.7310 C   0  0  2  0  0  0  0  0  0  0  0  0
  180.4950  174.6860  137.4840 O   0  0  0  0  0  1  0  0  0  0  0  0
  182.6740  175.3470  138.5270 C   0  0  2  0  0  3  0  0  0  0  0  0
  180.8180  176.8460  138.4410 C   0  0  2  0  0  3  0  0  0  0  0  0
  183.0460  176.4750  139.2720 O   0  0  0  0  0  0  0  0  0  0  0  0
  181.3110  177.0170  137.0070 C   0  0  2  0  0  3  0  0  0  0  0  0
  180.2230  176.9950  136.1340 O   0  0  0  0  0  1  0  0  0  0  0  0
  183.8140  174.9630  137.6030 C   0  0  0  0  0  2  0  0  0  0  0  0
  183.3730  174.0350  136.6390 O   0  0  0  0  0  0  0  0  0  0  0  0
  184.1710  172.8630  136.6920 C   0  0  0  0  0  0  0  0  0  0  0  0
  185.1750  173.0280  137.8180 C   0  0  0  0  0  1  0  0  0  0  0  0
  183.3260  171.6380  137.0210 C   0  0  0  0  0  1  0  0  0  0  0  0
  185.9710  171.6720  135.5970 O   0  0  0  0  0  1  0  0  0  0  0  0
  184.9530  172.6100  135.3940 C   0  0  0  0  0  2  0  0  0  0  0  0
  188.1450  177.4970  141.2490 C   0  0  0  0  0  2  0  0  0  0  0  0
  189.0010  178.5050  140.8060 O   0  0  0  0  0  0  0  0  0  0  0  0
  188.6820  178.6750  139.5000 N   0  0  0  0  0  2  0  0  0  0  0  0
  188.5240  177.3480  138.9320 C   0  0  0  0  0  2  0  0  0  0  0  0
  189.5260  177.1490  137.7940 C   0  0  0  0  0  2  0  0  0  0  0  0
  189.8690  175.7370  137.5480 N   0  0  0  0  0  0  0  0  0  0  0  0
  191.1160  174.2430  135.6680 S   0  0  0  0  0  0  0  0  0  0  0  0
  189.4780  173.7620  136.2520 C   0  0  0  0  0  2  0  0  0  0  0  0
  188.8440  175.0230  136.7780 C   0  0  2  0  0  3  0  0  0  0  0  0
  191.1970  175.5760  136.9250 C   0  0  2  0  0  3  0  0  0  0  0  0
  193.0760  174.2130  137.3730 C   0  0  0  0  0  1  0  0  0  0  0  0
  192.2140  175.2410  137.9340 N   0  0  0  0  0  0  0  0  0  0  0  0
  193.0860  176.3840  138.1560 C   0  0  0  0  0  1  0  0  0  0  0  0
  188.3760  175.7820  135.6960 O   0  0  0  0  0  0  0  0  0  0  0  0
  186.9840  175.7480  135.8080 C   0  0  0  0  0  1  0  0  0  0  0  0
  1 10  1  0  0  0  0
  2  3  1  0  0  0  0
  2  4  2  0  0  0  0
  3  6  1  0  0  0  0
  4  5  1  0  0  0  0
  5 11  1  0  0  0  0
  6  5  2  0  0  0  0
  6  9  1  0  0  0  0
  9  1  1  0  0  0  0
  9 10  2  0  0  0  0
 10 12  1  0  0  0  0
 11  7  1  0  0  0  0
 11 12  2  0  0  0  0
 12  8  1  0  0  0  0
 13  4  1  0  0  0  0
 14 13  1  0  0  0  0
 15 16  1  6  0  0  0
 15 17  1  0  0  0  0
 15  3  1  0  0  0  0
 17 19  1  0  0  0  0
 19 21  2  0  0  0  0
 20 18  2  0  0  0  0
 21 18  1  0  0  0  0
 22 23  2  0  0  0  0
 22 19  1  0  0  0  0
 23 20  1  0  0  0  0
 24 22  1  0  0  0  0
 25 24  1  0  0  0  0
 26 25  1  6  0  0  0
 27 28  1  6  0  0  0
 27 30  1  0  0  0  0
 27 29  1  0  0  0  0
 29 34  1  6  0  0  0
 29 31  1  0  0  0  0
 30 26  1  0  0  0  0
 31 26  1  0  0  0  0
 32 27  1  0  0  0  0
 32 30  1  0  0  0  0
 33 32  1  0  0  0  0
 35 36  1  0  0  0  0
 35 34  1  0  0  0  0
 36 38  1  0  0  0  0
 36 37  1  0  0  0  0
 40 39  1  0  0  0  0
 40 36  1  0  0  0  0
 41  2  1  0  0  0  0
 42 41  1  0  0  0  0
 43 42  1  0  0  0  0
 44 43  1  0  0  0  0
 45 44  1  0  0  0  0
 46 45  1  0  0  0  0
 47 48  1  0  0  0  0
 47 50  1  0  0  0  0
 48 49  1  0  0  0  0
 49 46  1  0  0  0  0
 50 46  1  0  0  0  0
 50 52  1  0  0  0  0
 51 52  1  0  0  0  0
 52 53  1  0  0  0  0
 54 55  1  0  0  0  0
 54 49  1  0  0  0  0
M  END
>  <MODEL>
4

>  <REMARK>
 VINA RESULT:      -6.9      2.636      7.413
  Name = 
  19 active torsions:
  status: ('A' for Active; 'I' for Inactive)
    1  A    between atoms: C_2  and  O_46
    2  A    between atoms: O_4  and  C_23
    3  A    between atoms: C_5  and  N_10
    4  A    between atoms: C_5  and  C_50
    5  A    between atoms: C_7  and  O_35
    6  A    between atoms: C_7  and  C_49
    7  A    between atoms: C_9  and  C_54
    8  A    between atoms: N_11  and  C_32
    9  A    between atoms: C_13  and  C_50
   10  A    between atoms: C_15  and  C_21
   11  A    between atoms: N_18  and  C_39
   12  A    between atoms: N_18  and  O_46
   13  A    between atoms: O_20  and  N_48
   14  A    between atoms: O_20  and  C_54
   15  A    between atoms: C_26  and  C_51
   16  A    between atoms: C_32  and  C_34
   17  A    between atoms: N_33  and  C_45
   18  A    between atoms: C_34  and  N_48
   19  A    between atoms: O_35  and  C_51
                            x       y       z     vdW  Elec       q    Type
                         _______ _______ _______ _____ _____    ______ ____

>  <TORSDO>
F 19

$$$$
=
 OpenBabel10222421043D

 55 61  0  0  1  0  0  0  0  0999 V2000
  191.9440  177.4310  144.1200 C   0  0  0  0  0  2  0  0  0  0  0  0
  187.2000  177.7090  143.0490 C   0  0  0  0  0  0  0  0  0  0  0  0
  188.4800  177.6340  142.5840 N   0  0  0  0  0  0  0  0  0  0  0  0
  187.1450  177.5760  144.4410 C   0  0  0  0  0  0  0  0  0  0  0  0
  188.4510  177.4640  144.8870 C   0  0  0  0  0  0  0  0  0  0  0  0
  189.2180  177.5200  143.7100 C   0  0  0  0  0  0  0  0  0  0  0  0
  188.1150  177.2970  147.4280 C   0  0  0  0  0  1  0  0  0  0  0  0
  191.0490  177.1840  147.6900 O   0  0  0  0  0  1  0  0  0  0  0  0
  190.5550  177.4740  143.9390 C   0  0  0  0  0  0  0  0  0  0  0  0
  191.1450  177.3630  145.2700 C   0  0  0  0  0  0  0  0  0  0  0  0
  189.0120  177.3510  146.2390 C   0  0  0  0  0  0  0  0  0  0  0  0
  190.4430  177.2920  146.4440 C   0  0  0  0  0  0  0  0  0  0  0  0
  185.9120  177.6540  145.2820 C   0  0  0  0  0  2  0  0  0  0  0  0
  185.8220  179.0130  145.9500 C   0  0  0  0  0  1  0  0  0  0  0  0
  188.9370  177.8990  141.2040 C   0  0  2  0  0  3  0  0  0  0  0  0
  187.8840  178.6200  140.3660 C   0  0  0  0  0  1  0  0  0  0  0  0
  189.4740  176.6600  140.4710 C   0  0  0  0  0  2  0  0  0  0  0  0
  193.1290  177.6520  140.1340 C   0  0  0  0  0  3  0  0  0  0  0  0
  190.8800  176.7880  139.9440 C   0  0  0  0  0  0  0  0  0  0  0  0
  193.4150  177.1650  138.8970 N   0  0  0  0  0  0  0  0  0  0  0  0
  191.8560  177.4740  140.6770 C   0  0  0  0  0  3  0  0  0  0  0  0
  191.2010  176.2860  138.6720 C   0  0  0  0  0  0  0  0  0  0  0  0
  192.4890  176.4920  138.1640 C   0  0  0  0  0  3  0  0  0  0  0  0
  190.2350  175.5450  137.9200 N   0  0  0  0  0  2  0  0  0  0  0  0
  190.4040  174.2300  137.6320 O   0  0  0  0  0  0  0  0  0  0  0  0
  189.9250  174.0830  136.3270 C   0  0  1  0  0  3  0  0  0  0  0  0
  187.9010  173.1030  135.5980 C   0  0  2  0  0  0  0  0  0  0  0  0
  187.5120  172.2060  134.6000 O   0  0  0  0  0  1  0  0  0  0  0  0
  187.9990  174.5720  135.2640 C   0  0  2  0  0  3  0  0  0  0  0  0
  189.2340  172.7370  136.1620 C   0  0  2  0  0  3  0  0  0  0  0  0
  189.0350  175.1320  136.0240 O   0  0  0  0  0  0  0  0  0  0  0  0
  187.9900  172.6190  137.0350 C   0  0  2  0  0  3  0  0  0  0  0  0
  187.6070  171.2790  137.1220 O   0  0  0  0  0  1  0  0  0  0  0  0
  186.7000  175.2830  135.5930 C   0  0  0  0  0  2  0  0  0  0  0  0
  186.8810  176.1590  136.6800 O   0  0  0  0  0  0  0  0  0  0  0  0
  186.3690  177.4430  136.3600 C   0  0  0  0  0  0  0  0  0  0  0  0
  186.5590  177.6660  134.8710 C   0  0  0  0  0  1  0  0  0  0  0  0
  184.8730  177.5230  136.6380 C   0  0  0  0  0  1  0  0  0  0  0  0
  188.4240  178.6770  136.6990 O   0  0  0  0  0  1  0  0  0  0  0  0
  187.0880  178.5780  137.1040 C   0  0  0  0  0  2  0  0  0  0  0  0
  186.0010  177.9500  142.1880 C   0  0  0  0  0  2  0  0  0  0  0  0
  185.2340  178.9810  142.7320 O   0  0  0  0  0  0  0  0  0  0  0  0
  184.6860  179.6020  141.6600 N   0  0  0  0  0  2  0  0  0  0  0  0
  183.8060  178.6390  141.0210 C   0  0  0  0  0  2  0  0  0  0  0  0
  183.0900  179.2970  139.8410 C   0  0  0  0  0  2  0  0  0  0  0  0
  181.6260  179.1230  139.8660 N   0  0  0  0  0  0  0  0  0  0  0  0
  179.6550  178.2210  138.2460 S   0  0  0  0  0  0  0  0  0  0  0  0
  179.4960  179.8350  139.0350 C   0  0  0  0  0  2  0  0  0  0  0  0
  180.9020  180.2850  139.3360 C   0  0  2  0  0  3  0  0  0  0  0  0
  181.1900  177.8850  139.1930 C   0  0  2  0  0  3  0  0  0  0  0  0
  179.6280  177.0420  140.7550 C   0  0  0  0  0  1  0  0  0  0  0  0
  180.9410  176.8150  140.1720 N   0  0  0  0  0  0  0  0  0  0  0  0
  180.8330  175.5350  139.4890 C   0  0  0  0  0  1  0  0  0  0  0  0
  181.4840  180.7750  138.1580 O   0  0  0  0  0  0  0  0  0  0  0  0
  181.6260  182.1480  138.3720 C   0  0  0  0  0  1  0  0  0  0  0  0
  1 10  1  0  0  0  0
  2  4  2  0  0  0  0
  3  2  1  0  0  0  0
  3  6  1  0  0  0  0
  4  5  1  0  0  0  0
  4 13  1  0  0  0  0
  5 11  1  0  0  0  0
  6  9  1  0  0  0  0
  6  5  2  0  0  0  0
  9  1  1  0  0  0  0
  9 10  2  0  0  0  0
 10 12  1  0  0  0  0
 11 12  2  0  0  0  0
 11  7  1  0  0  0  0
 12  8  1  0  0  0  0
 13 14  1  0  0  0  0
 15 16  1  6  0  0  0
 15  3  1  0  0  0  0
 17 15  1  0  0  0  0
 18 21  1  0  0  0  0
 19 17  1  0  0  0  0
 19 21  2  0  0  0  0
 20 18  2  0  0  0  0
 22 19  1  0  0  0  0
 23 22  2  0  0  0  0
 23 20  1  0  0  0  0
 24 22  1  0  0  0  0
 25 24  1  0  0  0  0
 26 25  1  1  0  0  0
 27 28  1  6  0  0  0
 27 30  1  0  0  0  0
 27 32  1  0  0  0  0
 29 34  1  1  0  0  0
 29 27  1  0  0  0  0
 29 31  1  0  0  0  0
 30 26  1  0  0  0  0
 30 32  1  0  0  0  0
 31 26  1  0  0  0  0
 32 33  1  0  0  0  0
 34 35  1  0  0  0  0
 36 38  1  0  0  0  0
 36 35  1  0  0  0  0
 36 40  1  0  0  0  0
 37 36  1  0  0  0  0
 39 40  1  0  0  0  0
 41 42  1  0  0  0  0
 41  2  1  0  0  0  0
 43 42  1  0  0  0  0
 44 43  1  0  0  0  0
 45 46  1  0  0  0  0
 45 44  1  0  0  0  0
 47 48  1  0  0  0  0
 47 50  1  0  0  0  0
 48 49  1  0  0  0  0
 49 46  1  0  0  0  0
 50 46  1  0  0  0  0
 50 52  1  0  0  0  0
 52 51  1  0  0  0  0
 53 52  1  0  0  0  0
 54 55  1  0  0  0  0
 54 49  1  0  0  0  0
M  END
>  <MODEL>
5

>  <REMARK>
 VINA RESULT:      -6.8      2.089      4.050
  Name = 
  19 active torsions:
  status: ('A' for Active; 'I' for Inactive)
    1  A    between atoms: C_2  and  O_46
    2  A    between atoms: O_4  and  C_23
    3  A    between atoms: C_5  and  N_10
    4  A    between atoms: C_5  and  C_50
    5  A    between atoms: C_7  and  O_35
    6  A    between atoms: C_7  and  C_49
    7  A    between atoms: C_9  and  C_54
    8  A    between atoms: N_11  and  C_32
    9  A    between atoms: C_13  and  C_50
   10  A    between atoms: C_15  and  C_21
   11  A    between atoms: N_18  and  C_39
   12  A    between atoms: N_18  and  O_46
   13  A    between atoms: O_20  and  N_48
   14  A    between atoms: O_20  and  C_54
   15  A    between atoms: C_26  and  C_51
   16  A    between atoms: C_32  and  C_34
   17  A    between atoms: N_33  and  C_45
   18  A    between atoms: C_34  and  N_48
   19  A    between atoms: O_35  and  C_51
                            x       y       z     vdW  Elec       q    Type
                         _______ _______ _______ _____ _____    ______ ____

>  <TORSDO>
F 19

$$$$
=
 OpenBabel10222421043D

 55 61  0  0  1  0  0  0  0  0999 V2000
  190.1550  177.4260  145.5610 C   0  0  0  0  0  2  0  0  0  0  0  0
  186.4100  178.0510  142.5100 C   0  0  0  0  0  0  0  0  0  0  0  0
  187.7410  177.7940  142.6580 N   0  0  0  0  0  0  0  0  0  0  0  0
  185.7500  178.0890  143.7440 C   0  0  0  0  0  0  0  0  0  0  0  0
  186.7120  177.9010  144.7220 C   0  0  0  0  0  0  0  0  0  0  0  0
  187.9060  177.7400  143.9970 C   0  0  0  0  0  0  0  0  0  0  0  0
  185.3060  178.0690  146.8650 C   0  0  0  0  0  1  0  0  0  0  0  0
  187.8020  177.6940  148.3900 O   0  0  0  0  0  1  0  0  0  0  0  0
  188.9960  177.5870  144.7900 C   0  0  0  0  0  0  0  0  0  0  0  0
  188.9420  177.5760  146.2490 C   0  0  0  0  0  0  0  0  0  0  0  0
  186.6220  177.8920  146.1870 C   0  0  0  0  0  0  0  0  0  0  0  0
  187.8050  177.7150  147.0000 C   0  0  0  0  0  0  0  0  0  0  0  0
  184.3010  178.3900  143.9550 C   0  0  0  0  0  2  0  0  0  0  0  0
  184.1270  179.8270  144.4070 C   0  0  0  0  0  1  0  0  0  0  0  0
  188.7740  177.8470  141.6020 C   0  0  2  0  0  3  0  0  0  0  0  0
  188.9190  179.2390  140.9930 C   0  0  0  0  0  1  0  0  0  0  0  0
  188.6110  176.7800  140.5090 C   0  0  0  0  0  2  0  0  0  0  0  0
  187.6490  178.4290  137.2210 C   0  0  0  0  0  3  0  0  0  0  0  0
  188.6730  177.2990  139.0950 C   0  0  0  0  0  0  0  0  0  0  0  0
  188.7190  178.1040  136.4460 N   0  0  0  0  0  0  0  0  0  0  0  0
  187.6060  178.0300  138.5560 C   0  0  0  0  0  3  0  0  0  0  0  0
  189.7720  176.9820  138.2790 C   0  0  0  0  0  0  0  0  0  0  0  0
  189.7700  177.3990  136.9430 C   0  0  0  0  0  3  0  0  0  0  0  0
  190.8930  176.2740  138.8160 N   0  0  0  0  0  2  0  0  0  0  0  0
  191.3330  175.1090  138.2760 O   0  0  0  0  0  0  0  0  0  0  0  0
  192.1420  175.4930  137.2030 C   0  0  1  0  0  3  0  0  0  0  0  0
  194.4370  175.0480  136.8500 C   0  0  2  0  0  0  0  0  0  0  0  0
  195.5590  175.7750  136.4470 O   0  0  0  0  0  1  0  0  0  0  0  0
  193.5480  174.4310  135.7980 C   0  0  2  0  0  3  0  0  0  0  0  0
  193.5300  175.8810  137.6940 C   0  0  2  0  0  3  0  0  0  0  0  0
  192.2280  174.4420  136.2690 O   0  0  0  0  0  0  0  0  0  0  0  0
  194.2680  174.7020  138.3200 C   0  0  2  0  0  3  0  0  0  0  0  0
  195.3540  175.1720  139.0590 O   0  0  0  0  0  1  0  0  0  0  0  0
  193.9650  173.0000  135.5180 C   0  0  0  0  0  2  0  0  0  0  0  0
  195.2970  172.7880  135.9240 O   0  0  0  0  0  0  0  0  0  0  0  0
  195.5320  171.4020  136.1170 C   0  0  0  0  0  0  0  0  0  0  0  0
  194.3060  170.6470  135.6380 C   0  0  0  0  0  1  0  0  0  0  0  0
  196.7100  170.9220  135.2780 C   0  0  0  0  0  1  0  0  0  0  0  0
  196.3160  172.1110  138.2940 O   0  0  0  0  0  1  0  0  0  0  0  0
  195.7690  171.0340  137.5890 C   0  0  0  0  0  2  0  0  0  0  0  0
  185.7380  178.3090  141.1990 C   0  0  0  0  0  2  0  0  0  0  0  0
  185.4530  179.6690  141.0770 O   0  0  0  0  0  0  0  0  0  0  0  0
  184.8000  179.7770  139.8950 N   0  0  0  0  0  2  0  0  0  0  0  0
  183.4480  179.2960  140.1170 C   0  0  0  0  0  2  0  0  0  0  0  0
  182.8970  178.6880  138.8270 C   0  0  0  0  0  2  0  0  0  0  0  0
  182.8010  177.2170  138.8610 N   0  0  0  0  0  0  0  0  0  0  0  0
  181.4790  175.2340  137.5800 S   0  0  0  0  0  0  0  0  0  0  0  0
  181.4720  175.2940  139.3820 C   0  0  0  0  0  2  0  0  0  0  0  0
  181.7340  176.7330  139.7450 C   0  0  2  0  0  3  0  0  0  0  0  0
  182.6720  176.6250  137.5160 C   0  0  2  0  0  3  0  0  0  0  0  0
  183.7750  174.8000  136.4960 C   0  0  0  0  0  1  0  0  0  0  0  0
  183.9730  176.1380  137.0300 N   0  0  0  0  0  0  0  0  0  0  0  0
  184.4080  176.9360  135.8950 C   0  0  0  0  0  1  0  0  0  0  0  0
  180.5480  177.4650  139.5870 O   0  0  0  0  0  0  0  0  0  0  0  0
  179.7880  177.1670  140.7210 C   0  0  0  0  0  1  0  0  0  0  0  0
  1 10  1  0  0  0  0
  2  3  1  0  0  0  0
  2  4  2  0  0  0  0
  3  6  1  0  0  0  0
  4 13  1  0  0  0  0
  4  5  1  0  0  0  0
  5 11  1  0  0  0  0
  6  5  2  0  0  0  0
  6  9  1  0  0  0  0
  9  1  1  0  0  0  0
  9 10  2  0  0  0  0
 10 12  1  0  0  0  0
 11  7  1  0  0  0  0
 11 12  2  0  0  0  0
 12  8  1  0  0  0  0
 13 14  1  0  0  0  0
 15 16  1  6  0  0  0
 15  3  1  0  0  0  0
 17 15  1  0  0  0  0
 18 21  1  0  0  0  0
 19 17  1  0  0  0  0
 20 23  1  0  0  0  0
 20 18  2  0  0  0  0
 21 19  2  0  0  0  0
 22 24  1  0  0  0  0
 22 19  1  0  0  0  0
 23 22  2  0  0  0  0
 25 24  1  0  0  0  0
 26 30  1  0  0  0  0
 26 25  1  1  0  0  0
 27 28  1  6  0  0  0
 27 30  1  0  0  0  0
 27 32  1  0  0  0  0
 29 34  1  1  0  0  0
 29 31  1  0  0  0  0
 29 27  1  0  0  0  0
 30 32  1  0  0  0  0
 31 26  1  0  0  0  0
 32 33  1  0  0  0  0
 34 35  1  0  0  0  0
 35 36  1  0  0  0  0
 36 40  1  0  0  0  0
 37 36  1  0  0  0  0
 38 36  1  0  0  0  0
 40 39  1  0  0  0  0
 41  2  1  0  0  0  0
 42 41  1  0  0  0  0
 43 44  1  0  0  0  0
 43 42  1  0  0  0  0
 45 46  1  0  0  0  0
 45 44  1  0  0  0  0
 46 49  1  0  0  0  0
 47 48  1  0  0  0  0
 48 49  1  0  0  0  0
 50 47  1  0  0  0  0
 50 46  1  0  0  0  0
 51 52  1  0  0  0  0
 52 50  1  0  0  0  0
 53 52  1  0  0  0  0
 54 49  1  0  0  0  0
 54 55  1  0  0  0  0
M  END
>  <MODEL>
6

>  <REMARK>
 VINA RESULT:      -6.7      1.876      3.515
  Name = 
  19 active torsions:
  status: ('A' for Active; 'I' for Inactive)
    1  A    between atoms: C_2  and  O_46
    2  A    between atoms: O_4  and  C_23
    3  A    between atoms: C_5  and  N_10
    4  A    between atoms: C_5  and  C_50
    5  A    between atoms: C_7  and  O_35
    6  A    between atoms: C_7  and  C_49
    7  A    between atoms: C_9  and  C_54
    8  A    between atoms: N_11  and  C_32
    9  A    between atoms: C_13  and  C_50
   10  A    between atoms: C_15  and  C_21
   11  A    between atoms: N_18  and  C_39
   12  A    between atoms: N_18  and  O_46
   13  A    between atoms: O_20  and  N_48
   14  A    between atoms: O_20  and  C_54
   15  A    between atoms: C_26  and  C_51
   16  A    between atoms: C_32  and  C_34
   17  A    between atoms: N_33  and  C_45
   18  A    between atoms: C_34  and  N_48
   19  A    between atoms: O_35  and  C_51
                            x       y       z     vdW  Elec       q    Type
                         _______ _______ _______ _____ _____    ______ ____

>  <TORSDO>
F 19

$$$$
=
 OpenBabel10222421043D

 55 61  0  0  1  0  0  0  0  0999 V2000
  190.3970  177.5330  145.2800 C   0  0  0  0  0  2  0  0  0  0  0  0
  186.5120  178.0090  142.3800 C   0  0  0  0  0  0  0  0  0  0  0  0
  187.8550  177.7930  142.4750 N   0  0  0  0  0  0  0  0  0  0  0  0
  185.9020  178.0410  143.6400 C   0  0  0  0  0  0  0  0  0  0  0  0
  186.9090  177.8930  144.5790 C   0  0  0  0  0  0  0  0  0  0  0  0
  188.0770  177.7600  143.8070 C   0  0  0  0  0  0  0  0  0  0  0  0
  185.5880  178.0440  146.7770 C   0  0  0  0  0  1  0  0  0  0  0  0
  188.1540  177.7620  148.2000 O   0  0  0  0  0  1  0  0  0  0  0  0
  189.2030  177.6490  144.5560 C   0  0  0  0  0  0  0  0  0  0  0  0
  189.2090  177.6530  146.0160 C   0  0  0  0  0  0  0  0  0  0  0  0
  186.8790  177.8990  146.0470 C   0  0  0  0  0  0  0  0  0  0  0  0
  188.1000  177.7670  146.8110 C   0  0  0  0  0  0  0  0  0  0  0  0
  184.4540  178.3000  143.9070 C   0  0  0  0  0  2  0  0  0  0  0  0
  184.2140  179.7870  144.0790 C   0  0  0  0  0  1  0  0  0  0  0  0
  188.8420  177.8660  141.3770 C   0  0  2  0  0  3  0  0  0  0  0  0
  188.8510  179.2270  140.6850 C   0  0  0  0  0  1  0  0  0  0  0  0
  188.7280  176.7260  140.3530 C   0  0  0  0  0  2  0  0  0  0  0  0
  187.4790  177.9230  136.9680 C   0  0  0  0  0  3  0  0  0  0  0  0
  188.6970  177.1630  138.9110 C   0  0  0  0  0  0  0  0  0  0  0  0
  188.6090  177.8040  136.2190 N   0  0  0  0  0  0  0  0  0  0  0  0
  187.5030  177.6020  138.3250 C   0  0  0  0  0  3  0  0  0  0  0  0
  189.8540  177.0560  138.1210 C   0  0  0  0  0  0  0  0  0  0  0  0
  189.7820  177.3840  136.7620 C   0  0  0  0  0  3  0  0  0  0  0  0
  191.0950  176.6510  138.7050 N   0  0  0  0  0  2  0  0  0  0  0  0
  192.2850  176.8770  138.0930 O   0  0  0  0  0  0  0  0  0  0  0  0
  192.9970  175.6820  138.2360 C   0  0  1  0  0  3  0  0  0  0  0  0
  193.4680  174.0380  136.6040 C   0  0  2  0  0  0  0  0  0  0  0  0
  193.4200  172.6450  136.5270 O   0  0  0  0  0  1  0  0  0  0  0  0
  194.7100  174.6990  137.1520 C   0  0  2  0  0  3  0  0  0  0  0  0
  192.3420  174.5720  137.4270 C   0  0  2  0  0  3  0  0  0  0  0  0
  194.3310  175.8690  137.8250 O   0  0  0  0  0  0  0  0  0  0  0  0
  192.3790  174.8550  135.9290 C   0  0  2  0  0  3  0  0  0  0  0  0
  191.4770  174.0160  135.2740 O   0  0  0  0  0  1  0  0  0  0  0  0
  195.6640  175.0590  136.0280 C   0  0  0  0  0  2  0  0  0  0  0  0
  196.8950  175.5000  136.5510 O   0  0  0  0  0  0  0  0  0  0  0  0
  197.7880  174.4050  136.6800 C   0  0  0  0  0  0  0  0  0  0  0  0
  198.9470  174.6300  135.7270 C   0  0  0  0  0  1  0  0  0  0  0  0
  198.3730  174.3350  138.0860 C   0  0  0  0  0  1  0  0  0  0  0  0
  197.8560  172.4060  135.3180 O   0  0  0  0  0  1  0  0  0  0  0  0
  197.1410  173.0580  136.3280 C   0  0  0  0  0  2  0  0  0  0  0  0
  185.7790  178.2300  141.0950 C   0  0  0  0  0  2  0  0  0  0  0  0
  185.4380  179.5780  140.9770 O   0  0  0  0  0  0  0  0  0  0  0  0
  184.9800  179.7040  139.7080 N   0  0  0  0  0  2  0  0  0  0  0  0
  183.5700  179.3560  139.7350 C   0  0  0  0  0  2  0  0  0  0  0  0
  183.0910  179.0290  138.3200 C   0  0  0  0  0  2  0  0  0  0  0  0
  182.0630  177.9740  138.2740 N   0  0  0  0  0  0  0  0  0  0  0  0
  181.3770  175.7380  139.6350 S   0  0  0  0  0  0  0  0  0  0  0  0
  181.5490  175.6750  137.8410 C   0  0  0  0  0  2  0  0  0  0  0  0
  182.4710  176.8100  137.4770 C   0  0  2  0  0  3  0  0  0  0  0  0
  181.6160  177.5570  139.6160 C   0  0  2  0  0  3  0  0  0  0  0  0
  179.2650  177.4770  139.3750 C   0  0  0  0  0  1  0  0  0  0  0  0
  180.3560  178.2240  139.9820 N   0  0  0  0  0  0  0  0  0  0  0  0
  180.1360  178.1140  141.4150 C   0  0  0  0  0  1  0  0  0  0  0  0
  183.7930  176.4270  137.7470 O   0  0  0  0  0  0  0  0  0  0  0  0
  184.3090  176.0250  136.5120 C   0  0  0  0  0  1  0  0  0  0  0  0
  1 10  1  0  0  0  0
  2  3  1  0  0  0  0
  2  4  2  0  0  0  0
  3  6  1  0  0  0  0
  4 13  1  0  0  0  0
  4  5  1  0  0  0  0
  5 11  1  0  0  0  0
  6  9  1  0  0  0  0
  6  5  2  0  0  0  0
  9  1  1  0  0  0  0
  9 10  2  0  0  0  0
 10 12  1  0  0  0  0
 11  7  1  0  0  0  0
 11 12  2  0  0  0  0
 12  8  1  0  0  0  0
 13 14  1  0  0  0  0
 15 16  1  6  0  0  0
 15  3  1  0  0  0  0
 17 15  1  0  0  0  0
 18 21  1  0  0  0  0
 19 17  1  0  0  0  0
 20 23  1  0  0  0  0
 20 18  2  0  0  0  0
 21 19  2  0  0  0  0
 22 24  1  0  0  0  0
 22 19  1  0  0  0  0
 23 22  2  0  0  0  0
 25 24  1  0  0  0  0
 26 25  1  6  0  0  0
 27 28  1  6  0  0  0
 27 29  1  0  0  0  0
 27 30  1  0  0  0  0
 29 34  1  6  0  0  0
 29 31  1  0  0  0  0
 30 26  1  0  0  0  0
 31 26  1  0  0  0  0
 32 27  1  0  0  0  0
 32 30  1  0  0  0  0
 33 32  1  0  0  0  0
 34 35  1  0  0  0  0
 35 36  1  0  0  0  0
 36 38  1  0  0  0  0
 37 36  1  0  0  0  0
 39 40  1  0  0  0  0
 40 36  1  0  0  0  0
 41  2  1  0  0  0  0
 42 41  1  0  0  0  0
 43 44  1  0  0  0  0
 43 42  1  0  0  0  0
 45 44  1  0  0  0  0
 46 45  1  0  0  0  0
 46 50  1  0  0  0  0
 48 47  1  0  0  0  0
 49 54  1  0  0  0  0
 49 48  1  0  0  0  0
 49 46  1  0  0  0  0
 50 47  1  0  0  0  0
 50 52  1  0  0  0  0
 51 52  1  0  0  0  0
 52 53  1  0  0  0  0
 55 54  1  0  0  0  0
M  END
>  <MODEL>
7

>  <REMARK>
 VINA RESULT:      -6.7      1.863      3.026
  Name = 
  19 active torsions:
  status: ('A' for Active; 'I' for Inactive)
    1  A    between atoms: C_2  and  O_46
    2  A    between atoms: O_4  and  C_23
    3  A    between atoms: C_5  and  N_10
    4  A    between atoms: C_5  and  C_50
    5  A    between atoms: C_7  and  O_35
    6  A    between atoms: C_7  and  C_49
    7  A    between atoms: C_9  and  C_54
    8  A    between atoms: N_11  and  C_32
    9  A    between atoms: C_13  and  C_50
   10  A    between atoms: C_15  and  C_21
   11  A    between atoms: N_18  and  C_39
   12  A    between atoms: N_18  and  O_46
   13  A    between atoms: O_20  and  N_48
   14  A    between atoms: O_20  and  C_54
   15  A    between atoms: C_26  and  C_51
   16  A    between atoms: C_32  and  C_34
   17  A    between atoms: N_33  and  C_45
   18  A    between atoms: C_34  and  N_48
   19  A    between atoms: O_35  and  C_51
                            x       y       z     vdW  Elec       q    Type
                         _______ _______ _______ _____ _____    ______ ____

>  <TORSDO>
F 19

$$$$
=
 OpenBabel10222421043D

 55 61  0  0  1  0  0  0  0  0999 V2000
  187.6160  178.6220  140.9340 C   0  0  0  0  0  2  0  0  0  0  0  0
  185.5650  177.3870  136.6920 C   0  0  0  0  0  0  0  0  0  0  0  0
  185.4100  177.9630  137.9180 N   0  0  0  0  0  0  0  0  0  0  0  0
  186.8990  177.0440  136.4450 C   0  0  0  0  0  0  0  0  0  0  0  0
  187.6160  177.3670  137.5860 C   0  0  0  0  0  0  0  0  0  0  0  0
  186.6500  177.9100  138.4510 C   0  0  0  0  0  0  0  0  0  0  0  0
  189.9820  176.6050  136.9390 C   0  0  0  0  0  1  0  0  0  0  0  0
  190.8580  177.4440  139.6260 O   0  0  0  0  0  1  0  0  0  0  0  0
  187.1510  178.2520  139.6650 C   0  0  0  0  0  0  0  0  0  0  0  0
  188.5530  178.0890  140.0370 C   0  0  0  0  0  0  0  0  0  0  0  0
  189.0320  177.1910  137.9270 C   0  0  0  0  0  0  0  0  0  0  0  0
  189.5330  177.5780  139.2280 C   0  0  0  0  0  0  0  0  0  0  0  0
  187.4170  176.3570  135.2230 C   0  0  0  0  0  2  0  0  0  0  0  0
  187.4710  174.8590  135.4510 C   0  0  0  0  0  1  0  0  0  0  0  0
  184.1330  178.2950  138.5840 C   0  0  2  0  0  3  0  0  0  0  0  0
  183.9720  179.7940  138.8310 C   0  0  0  0  0  1  0  0  0  0  0  0
  183.8650  177.4930  139.8670 C   0  0  0  0  0  2  0  0  0  0  0  0
  180.2020  178.0240  140.7340 C   0  0  0  0  0  3  0  0  0  0  0  0
  182.6100  177.8730  140.6090 C   0  0  0  0  0  0  0  0  0  0  0  0
  180.3110  178.7240  141.8960 N   0  0  0  0  0  0  0  0  0  0  0  0
  181.3490  177.5910  140.0700 C   0  0  0  0  0  3  0  0  0  0  0  0
  182.6990  178.5880  141.8160 C   0  0  0  0  0  0  0  0  0  0  0  0
  181.5220  179.0090  142.4450 C   0  0  0  0  0  3  0  0  0  0  0  0
  183.9730  178.8530  142.4100 N   0  0  0  0  0  2  0  0  0  0  0  0
  184.5360  178.0080  143.3090 O   0  0  0  0  0  0  0  0  0  0  0  0
  185.4920  178.7780  143.9780 C   0  0  1  0  0  3  0  0  0  0  0  0
  186.2070  178.6220  146.2260 C   0  0  2  0  0  0  0  0  0  0  0  0
  186.4520  179.5120  147.2740 O   0  0  0  0  0  1  0  0  0  0  0  0
  187.3090  178.3370  145.2350 C   0  0  2  0  0  3  0  0  0  0  0  0
  185.0420  179.0670  145.4030 C   0  0  2  0  0  3  0  0  0  0  0  0
  186.7300  178.1070  143.9790 O   0  0  0  0  0  0  0  0  0  0  0  0
  184.9320  177.7960  146.2390 C   0  0  2  0  0  3  0  0  0  0  0  0
  184.1920  178.0600  147.3920 O   0  0  0  0  0  1  0  0  0  0  0  0
  188.0980  177.1100  145.6520 C   0  0  0  0  0  2  0  0  0  0  0  0
  189.0210  176.7550  144.6490 O   0  0  0  0  0  0  0  0  0  0  0  0
  190.3430  177.0330  145.0840 C   0  0  0  0  0  0  0  0  0  0  0  0
  191.2900  176.1350  144.3100 C   0  0  0  0  0  1  0  0  0  0  0  0
  190.7330  178.4730  144.7700 C   0  0  0  0  0  1  0  0  0  0  0  0
  191.8820  176.9820  146.9510 O   0  0  0  0  0  1  0  0  0  0  0  0
  190.5510  176.7620  146.5810 C   0  0  0  0  0  2  0  0  0  0  0  0
  184.4450  177.1100  135.7400 C   0  0  0  0  0  2  0  0  0  0  0  0
  183.7110  176.0110  136.1870 O   0  0  0  0  0  0  0  0  0  0  0  0
  183.8750  175.0750  135.2210 N   0  0  0  0  0  2  0  0  0  0  0  0
  184.2580  173.8450  135.8910 C   0  0  0  0  0  2  0  0  0  0  0  0
  183.1630  173.4290  136.8740 C   0  0  0  0  0  2  0  0  0  0  0  0
  181.9540  172.8950  136.2210 N   0  0  0  0  0  0  0  0  0  0  0  0
  179.7590  171.4510  136.8700 S   0  0  0  0  0  0  0  0  0  0  0  0
  180.7620  170.9660  135.4510 C   0  0  0  0  0  2  0  0  0  0  0  0
  182.1350  171.5330  135.7070 C   0  0  2  0  0  3  0  0  0  0  0  0
  180.7610  172.9730  137.0850 C   0  0  2  0  0  3  0  0  0  0  0  0
  180.3560  175.2390  137.6250 C   0  0  0  0  0  1  0  0  0  0  0  0
  179.9450  174.1510  136.7510 N   0  0  0  0  0  0  0  0  0  0  0  0
  180.2630  174.6070  135.4070 C   0  0  0  0  0  1  0  0  0  0  0  0
  182.8030  170.7090  136.6240 O   0  0  0  0  0  0  0  0  0  0  0  0
  183.7330  169.9990  135.8600 C   0  0  0  0  0  1  0  0  0  0  0  0
  2  3  1  0  0  0  0
  3  6  1  0  0  0  0
  3 15  1  0  0  0  0
  4  2  2  0  0  0  0
  4  5  1  0  0  0  0
  5 11  2  0  0  0  0
  5  6  1  0  0  0  0
  6  9  2  0  0  0  0
  7 11  1  0  0  0  0
  9 10  1  0  0  0  0
  9  1  1  0  0  0  0
 10  1  1  0  0  0  0
 11 12  1  0  0  0  0
 12  8  1  0  0  0  0
 12 10  2  0  0  0  0
 13 14  1  0  0  0  0
 13  4  1  0  0  0  0
 15 16  1  1  0  0  0
 15 17  1  0  0  0  0
 17 19  1  0  0  0  0
 18 20  1  0  0  0  0
 19 22  2  0  0  0  0
 20 23  2  0  0  0  0
 21 19  1  0  0  0  0
 21 18  2  0  0  0  0
 22 24  1  0  0  0  0
 22 23  1  0  0  0  0
 24 25  1  0  0  0  0
 26 25  1  1  0  0  0
 26 31  1  0  0  0  0
 26 30  1  0  0  0  0
 27 32  1  0  0  0  0
 27 28  1  1  0  0  0
 29 34  1  1  0  0  0
 29 27  1  0  0  0  0
 30 27  1  0  0  0  0
 30 32  1  0  0  0  0
 31 29  1  0  0  0  0
 32 33  1  0  0  0  0
 35 36  1  0  0  0  0
 35 34  1  0  0  0  0
 36 40  1  0  0  0  0
 37 36  1  0  0  0  0
 38 36  1  0  0  0  0
 40 39  1  0  0  0  0
 41 42  1  0  0  0  0
 41  2  1  0  0  0  0
 43 44  1  0  0  0  0
 43 42  1  0  0  0  0
 44 45  1  0  0  0  0
 46 45  1  0  0  0  0
 46 50  1  0  0  0  0
 47 50  1  0  0  0  0
 48 49  1  0  0  0  0
 48 47  1  0  0  0  0
 49 46  1  0  0  0  0
 49 54  1  0  0  0  0
 52 50  1  0  0  0  0
 52 51  1  0  0  0  0
 53 52  1  0  0  0  0
 55 54  1  0  0  0  0
M  END
>  <MODEL>
8

>  <REMARK>
 VINA RESULT:      -6.7      3.150      8.730
  Name = 
  19 active torsions:
  status: ('A' for Active; 'I' for Inactive)
    1  A    between atoms: C_2  and  O_46
    2  A    between atoms: O_4  and  C_23
    3  A    between atoms: C_5  and  N_10
    4  A    between atoms: C_5  and  C_50
    5  A    between atoms: C_7  and  O_35
    6  A    between atoms: C_7  and  C_49
    7  A    between atoms: C_9  and  C_54
    8  A    between atoms: N_11  and  C_32
    9  A    between atoms: C_13  and  C_50
   10  A    between atoms: C_15  and  C_21
   11  A    between atoms: N_18  and  C_39
   12  A    between atoms: N_18  and  O_46
   13  A    between atoms: O_20  and  N_48
   14  A    between atoms: O_20  and  C_54
   15  A    between atoms: C_26  and  C_51
   16  A    between atoms: C_32  and  C_34
   17  A    between atoms: N_33  and  C_45
   18  A    between atoms: C_34  and  N_48
   19  A    between atoms: O_35  and  C_51
                            x       y       z     vdW  Elec       q    Type
                         _______ _______ _______ _____ _____    ______ ____

>  <TORSDO>
F 19

$$$$
=
 OpenBabel10222421043D

 55 61  0  0  1  0  0  0  0  0999 V2000
  191.1380  177.1520  143.9680 C   0  0  0  0  0  2  0  0  0  0  0  0
  186.8270  177.9190  141.8330 C   0  0  0  0  0  0  0  0  0  0  0  0
  188.1530  177.6400  141.6770 N   0  0  0  0  0  0  0  0  0  0  0  0
  186.4550  177.9270  143.1830 C   0  0  0  0  0  0  0  0  0  0  0  0
  187.6040  177.6960  143.9190 C   0  0  0  0  0  0  0  0  0  0  0  0
  188.6070  177.5420  142.9460 C   0  0  0  0  0  0  0  0  0  0  0  0
  186.7060  177.8150  146.3230 C   0  0  0  0  0  1  0  0  0  0  0  0
  189.4680  177.3610  147.2510 O   0  0  0  0  0  1  0  0  0  0  0  0
  189.8420  177.3510  143.4750 C   0  0  0  0  0  0  0  0  0  0  0  0
  190.1080  177.2950  144.9090 C   0  0  0  0  0  0  0  0  0  0  0  0
  187.8380  177.6430  145.3680 C   0  0  0  0  0  0  0  0  0  0  0  0
  189.1670  177.4250  145.8950 C   0  0  0  0  0  0  0  0  0  0  0  0
  185.0930  178.2390  143.7150 C   0  0  0  0  0  2  0  0  0  0  0  0
  184.9340  179.7360  143.8940 C   0  0  0  0  0  1  0  0  0  0  0  0
  188.9310  177.7130  140.4220 C   0  0  2  0  0  3  0  0  0  0  0  0
  188.9030  179.1050  139.7950 C   0  0  0  0  0  1  0  0  0  0  0  0
  188.5630  176.6350  139.3910 C   0  0  0  0  0  2  0  0  0  0  0  0
  186.8140  177.9160  136.2680 C   0  0  0  0  0  3  0  0  0  0  0  0
  188.3180  177.1440  137.9940 C   0  0  0  0  0  0  0  0  0  0  0  0
  187.8430  177.9180  135.3780 N   0  0  0  0  0  0  0  0  0  0  0  0
  187.0330  177.5270  137.5890 C   0  0  0  0  0  3  0  0  0  0  0  0
  189.3680  177.1620  137.0600 C   0  0  0  0  0  0  0  0  0  0  0  0
  189.1020  177.5550  135.7440 C   0  0  0  0  0  3  0  0  0  0  0  0
  190.6980  176.8170  137.4580 N   0  0  0  0  0  2  0  0  0  0  0  0
  191.2040  175.5720  137.2730 O   0  0  0  0  0  0  0  0  0  0  0  0
  192.2450  175.7390  136.3560 C   0  0  1  0  0  3  0  0  0  0  0  0
  194.4910  175.0190  136.5230 C   0  0  2  0  0  0  0  0  0  0  0  0
  195.7520  175.5720  136.2900 O   0  0  0  0  0  1  0  0  0  0  0  0
  193.7490  174.3770  135.3760 C   0  0  2  0  0  3  0  0  0  0  0  0
  193.5510  176.0370  137.0810 C   0  0  2  0  0  3  0  0  0  0  0  0
  192.3750  174.5820  135.5650 O   0  0  0  0  0  0  0  0  0  0  0  0
  194.0010  174.8700  137.9540 C   0  0  2  0  0  3  0  0  0  0  0  0
  194.9760  175.3090  138.8510 O   0  0  0  0  0  1  0  0  0  0  0  0
  194.0290  172.8870  135.3260 C   0  0  0  0  0  2  0  0  0  0  0  0
  195.3740  172.6280  135.6530 O   0  0  0  0  0  0  0  0  0  0  0  0
  195.5020  171.3180  136.1830 C   0  0  0  0  0  0  0  0  0  0  0  0
  194.1140  170.7120  136.2770 C   0  0  0  0  0  1  0  0  0  0  0  0
  196.3180  170.4270  135.2540 C   0  0  0  0  0  1  0  0  0  0  0  0
  196.7180  172.5260  137.8920 O   0  0  0  0  0  1  0  0  0  0  0  0
  196.1240  171.2970  137.5870 C   0  0  0  0  0  2  0  0  0  0  0  0
  185.8900  178.2250  140.7090 C   0  0  0  0  0  2  0  0  0  0  0  0
  185.6090  179.5920  140.6930 O   0  0  0  0  0  0  0  0  0  0  0  0
  184.7750  179.7570  139.6380 N   0  0  0  0  0  2  0  0  0  0  0  0
  183.9320  178.5750  139.5810 C   0  0  0  0  0  2  0  0  0  0  0  0
  183.0320  178.6400  138.3460 C   0  0  0  0  0  2  0  0  0  0  0  0
  181.9070  177.6890  138.3830 N   0  0  0  0  0  0  0  0  0  0  0  0
  181.0860  175.5640  139.8440 S   0  0  0  0  0  0  0  0  0  0  0  0
  181.1560  175.4400  138.0460 C   0  0  0  0  0  2  0  0  0  0  0  0
  182.1610  176.4720  137.6020 C   0  0  2  0  0  3  0  0  0  0  0  0
  181.4950  177.3500  139.7580 C   0  0  2  0  0  3  0  0  0  0  0  0
  179.4600  178.2900  139.0070 C   0  0  0  0  0  1  0  0  0  0  0  0
  180.3260  178.1440  140.1670 N   0  0  0  0  0  0  0  0  0  0  0  0
  179.5360  177.4000  141.1360 C   0  0  0  0  0  1  0  0  0  0  0  0
  183.4520  175.9690  137.8160 O   0  0  0  0  0  0  0  0  0  0  0  0
  183.7890  175.3240  136.6240 C   0  0  0  0  0  1  0  0  0  0  0  0
  1 10  1  0  0  0  0
  2  4  2  0  0  0  0
  3  2  1  0  0  0  0
  3  6  1  0  0  0  0
  4 13  1  0  0  0  0
  4  5  1  0  0  0  0
  5 11  1  0  0  0  0
  6  9  1  0  0  0  0
  6  5  2  0  0  0  0
  9  1  1  0  0  0  0
  9 10  2  0  0  0  0
 10 12  1  0  0  0  0
 11 12  2  0  0  0  0
 11  7  1  0  0  0  0
 12  8  1  0  0  0  0
 13 14  1  0  0  0  0
 15 16  1  6  0  0  0
 15  3  1  0  0  0  0
 17 15  1  0  0  0  0
 18 21  1  0  0  0  0
 19 17  1  0  0  0  0
 20 23  1  0  0  0  0
 20 18  2  0  0  0  0
 21 19  2  0  0  0  0
 22 24  1  0  0  0  0
 22 19  1  0  0  0  0
 23 22  2  0  0  0  0
 25 24  1  0  0  0  0
 26 30  1  0  0  0  0
 26 25  1  1  0  0  0
 27 28  1  6  0  0  0
 27 30  1  0  0  0  0
 27 32  1  0  0  0  0
 29 34  1  1  0  0  0
 29 31  1  0  0  0  0
 29 27  1  0  0  0  0
 30 32  1  0  0  0  0
 31 26  1  0  0  0  0
 32 33  1  0  0  0  0
 34 35  1  0  0  0  0
 35 36  1  0  0  0  0
 36 37  1  0  0  0  0
 36 40  1  0  0  0  0
 38 36  1  0  0  0  0
 40 39  1  0  0  0  0
 41  2  1  0  0  0  0
 42 41  1  0  0  0  0
 43 42  1  0  0  0  0
 44 43  1  0  0  0  0
 45 46  1  0  0  0  0
 45 44  1  0  0  0  0
 46 50  1  0  0  0  0
 48 47  1  0  0  0  0
 49 54  1  0  0  0  0
 49 48  1  0  0  0  0
 49 46  1  0  0  0  0
 50 47  1  0  0  0  0
 50 52  1  0  0  0  0
 51 52  1  0  0  0  0
 52 53  1  0  0  0  0
 55 54  1  0  0  0  0
M  END
>  <MODEL>
9

>  <REMARK>
 VINA RESULT:      -6.6      1.920      3.565
  Name = 
  19 active torsions:
  status: ('A' for Active; 'I' for Inactive)
    1  A    between atoms: C_2  and  O_46
    2  A    between atoms: O_4  and  C_23
    3  A    between atoms: C_5  and  N_10
    4  A    between atoms: C_5  and  C_50
    5  A    between atoms: C_7  and  O_35
    6  A    between atoms: C_7  and  C_49
    7  A    between atoms: C_9  and  C_54
    8  A    between atoms: N_11  and  C_32
    9  A    between atoms: C_13  and  C_50
   10  A    between atoms: C_15  and  C_21
   11  A    between atoms: N_18  and  C_39
   12  A    between atoms: N_18  and  O_46
   13  A    between atoms: O_20  and  N_48
   14  A    between atoms: O_20  and  C_54
   15  A    between atoms: C_26  and  C_51
   16  A    between atoms: C_32  and  C_34
   17  A    between atoms: N_33  and  C_45
   18  A    between atoms: C_34  and  N_48
   19  A    between atoms: O_35  and  C_51
                            x       y       z     vdW  Elec       q    Type
                         _______ _______ _______ _____ _____    ______ ____

>  <TORSDO>
F 19

$$$$
