=
 OpenBabel10222416053D

 61 69  0  0  1  0  0  0  0  0999 V2000
  189.9560  176.1240  137.7070 C   0  0  1  0  0  3  0  0  0  0  0  0
  188.5920  178.4020  137.7520 C   0  0  0  0  0  1  0  0  0  0  0  0
  188.6190  176.8750  137.7700 C   0  0  1  0  0  0  0  0  0  0  0  0
  187.4150  176.0810  137.4090 C   0  0  1  0  0  3  0  0  0  0  0  0
  187.7580  176.3510  138.7520 O   0  0  0  0  0  0  0  0  0  0  0  0
  186.2150  176.9310  137.0040 C   0  0  0  0  0  2  0  0  0  0  0  0
  180.9880  174.9060  138.7260 C   0  0  0  0  0  1  0  0  0  0  0  0
  181.6160  176.0930  138.1580 N   0  0  0  0  0  0  0  0  0  0  0  0
  183.7900  174.5280  137.8300 C   0  0  1  0  0  3  0  0  0  0  0  0
  183.3390  177.7410  136.3810 O   0  0  0  0  0  0  0  0  0  0  0  0
  185.0950  174.8250  137.3260 O   0  0  0  0  0  0  0  0  0  0  0  0
  185.0500  176.0470  136.5860 C   0  0  1  0  0  3  0  0  0  0  0  0
  182.7610  176.4070  139.0350 C   0  0  0  0  0  2  0  0  0  0  0  0
  183.0040  175.8110  137.7290 C   0  0  2  0  0  0  0  0  0  0  0  0
  183.7480  176.7010  136.8710 C   0  0  0  0  0  0  0  0  0  0  0  0
  183.5090  171.0890  136.0800 C   0  0  0  0  0  0  0  0  0  0  0  0
  184.0820  169.8630  136.1410 F   0  0  0  0  0  0  0  0  0  0  0  0
  183.1150  173.4100  137.0180 C   0  0  2  0  0  3  0  0  0  0  0  0
  184.0200  172.1740  137.0010 C   0  0  0  0  0  2  0  0  0  0  0  0
  182.6350  171.3450  135.0930 C   0  0  0  0  0  3  0  0  0  0  0  0
  182.7650  173.7990  135.5810 C   0  0  0  0  0  2  0  0  0  0  0  0
  181.9470  172.6770  134.9480 C   0  0  0  0  0  2  0  0  0  0  0  0
  190.3630  176.8290  135.4690 C   0  0  0  0  0  2  0  0  0  0  0  0
  190.9190  176.8090  136.8330 N   0  0  0  0  0  0  0  0  0  0  0  0
  191.4780  175.9370  135.7610 C   0  0  1  0  0  3  0  0  0  0  0  0
  190.9860  174.4870  135.7670 C   0  0  0  0  0  2  0  0  0  0  0  0
  192.0070  173.5950  135.0910 C   0  0  0  0  0  2  0  0  0  0  0  0
  192.3730  172.4520  136.0280 C   0  0  2  0  0  3  0  0  0  0  0  0
  193.8310  172.4230  136.5160 C   0  0  1  0  0  3  0  0  0  0  0  0
  193.3870  171.5570  135.3440 C   0  0  0  0  0  2  0  0  0  0  0  0
  195.9230  173.2040  135.5500 O   0  0  0  0  0  1  0  0  0  0  0  0
  194.7260  173.6300  136.1350 C   0  0  2  0  0  3  0  0  0  0  0  0
  194.9950  174.6510  137.2460 C   0  0  0  0  0  2  0  0  0  0  0  0
  196.1600  174.2070  138.1200 C   0  0  0  0  0  2  0  0  0  0  0  0
  195.6870  173.5150  139.2310 O   0  0  0  0  0  1  0  0  0  0  0  0
  190.6920  176.8870  139.9590 C   0  0  0  0  0  3  0  0  0  0  0  0
  190.5520  175.9000  139.0700 C   0  0  0  0  0  3  0  0  0  0  0  0
  191.2800  176.6430  141.3150 C   0  0  0  0  0  2  0  0  0  0  0  0
  190.2700  178.9820  144.1220 C   0  0  0  0  0  3  0  0  0  0  0  0
  189.5870  178.1890  145.1910 C   0  0  1  0  0  3  0  0  0  0  0  0
  188.2800  176.6580  143.7130 C   0  0  0  0  0  3  0  0  0  0  0  0
  189.3430  176.3810  142.7350 C   0  0  0  0  0  3  0  0  0  0  0  0
  188.3310  177.5000  144.7480 C   0  0  0  0  0  0  0  0  0  0  0  0
  190.3920  177.1480  142.4080 C   0  0  0  0  0  0  0  0  0  0  0  0
  190.6440  178.5070  142.9340 C   0  0  0  0  0  3  0  0  0  0  0  0
  190.5150  177.2870  145.9490 C   0  0  0  0  0  0  0  0  0  0  0  0
  191.4910  175.8940  147.4400 N   0  0  0  0  0  0  0  0  0  0  0  0
  190.2090  176.5340  147.2000 C   0  0  0  0  0  2  0  0  0  0  0  0
  192.3130  176.2280  146.5310 N   0  0  0  0  0  0  0  0  0  0  0  0
  191.7390  177.0930  145.5990 N   0  0  0  0  0  0  0  0  0  0  0  0
  187.1360  177.6070  145.6420 C   0  0  0  0  0  2  0  0  0  0  0  0
  185.8160  177.7840  144.8860 C   0  0  1  0  0  3  0  0  0  0  0  0
  184.8690  178.7440  142.6940 C   0  0  1  0  0  3  0  0  0  0  0  0
  183.5350  178.4390  143.3890 C   0  0  1  0  0  3  0  0  0  0  0  0
  184.9180  178.8560  145.5120 C   0  0  0  0  0  2  0  0  0  0  0  0
  185.1240  180.1070  142.6990 F   0  0  0  0  0  0  0  0  0  0  0  0
  183.5200  178.8520  144.8700 C   0  0  0  0  0  2  0  0  0  0  0  0
  186.0270  178.0040  143.3780 C   0  0  0  0  0  2  0  0  0  0  0  0
  182.3740  179.0210  142.6480 C   0  0  0  0  0  0  0  0  0  0  0  0
  181.3810  179.4850  143.2740 O   0  0  0  0  0  1  0  0  0  0  0  0
  182.4040  179.0740  141.2600 O   0  0  0  0  0  0  0  0  0  0  0  0
  1  3  1  0  0  0  0
  1 37  1  1  0  0  0
  3  2  1  6  0  0  0
  3  5  1  0  0  0  0
  4  6  1  6  0  0  0
  4  3  1  0  0  0  0
  4  5  1  0  0  0  0
  8  7  1  0  0  0  0
  8 13  1  0  0  0  0
  9 11  1  6  0  0  0
 10 15  2  0  0  0  0
 12 15  1  0  0  0  0
 12  6  1  1  0  0  0
 12 11  1  0  0  0  0
 14  9  1  0  0  0  0
 14  8  1  0  0  0  0
 14 13  1  1  0  0  0
 15 14  1  0  0  0  0
 16 17  1  0  0  0  0
 16 19  1  0  0  0  0
 18 21  1  6  0  0  0
 18  9  1  0  0  0  0
 19 18  1  0  0  0  0
 20 16  2  0  0  0  0
 22 20  1  0  0  0  0
 22 21  1  0  0  0  0
 23 25  1  0  0  0  0
 23 24  1  0  0  0  0
 24  1  1  0  0  0  0
 25 26  1  1  0  0  0
 25 24  1  0  0  0  0
 27 26  1  0  0  0  0
 28 27  1  6  0  0  0
 28 29  1  0  0  0  0
 29 32  1  6  0  0  0
 30 28  1  0  0  0  0
 30 29  1  0  0  0  0
 32 31  1  1  0  0  0
 32 33  1  0  0  0  0
 33 34  1  0  0  0  0
 34 35  1  0  0  0  0
 36 38  1  0  0  0  0
 37 36  2  0  0  0  0
 38 44  1  0  0  0  0
 39 40  1  0  0  0  0
 40 46  1  6  0  0  0
 41 43  2  0  0  0  0
 42 41  1  0  0  0  0
 43 40  1  0  0  0  0
 43 51  1  0  0  0  0
 44 42  2  0  0  0  0
 44 45  1  0  0  0  0
 45 39  2  0  0  0  0
 46 48  1  0  0  0  0
 48 47  1  0  0  0  0
 49 47  2  0  0  0  0
 50 46  2  0  0  0  0
 50 49  1  0  0  0  0
 52 55  1  0  0  0  0
 52 51  1  1  0  0  0
 53 56  1  1  0  0  0
 53 58  1  0  0  0  0
 53 54  1  0  0  0  0
 54 59  1  6  0  0  0
 54 57  1  0  0  0  0
 57 55  1  0  0  0  0
 58 52  1  0  0  0  0
 59 60  1  0  0  0  0
 61 59  2  0  0  0  0
M  END
>  <MODEL>
1

>  <REMARK>
 VINA RESULT:      -8.6      0.000      0.000
  Name = 
  18 active torsions:
  status: ('A' for Active; 'I' for Inactive)
    1  A    between atoms: C_1  and  C_6
    2  A    between atoms: C_1  and  C_45
    3  A    between atoms: C_7  and  C_23
    4  A    between atoms: C_8  and  C_19
    5  A    between atoms: C_8  and  C_42
    6  A    between atoms: C_10  and  C_20
    7  A    between atoms: C_11  and  C_12
    8  A    between atoms: C_14  and  C_15
    9  A    between atoms: C_23  and  C_43
   10  A    between atoms: C_24  and  C_51
   11  A    between atoms: C_25  and  C_32
   12  A    between atoms: N_30  and  C_32
   13  A    between atoms: C_32  and  C_33
   14  A    between atoms: C_41  and  C_59
   15  A    between atoms: C_42  and  C_46
   16  A    between atoms: C_51  and  C_52
   17  A    between atoms: C_52  and  C_54
   18  A    between atoms: C_53  and  C_59
                            x       y       z     vdW  Elec       q    Type
                         _______ _______ _______ _____ _____    ______ ____

>  <TORSDO>
F 18

$$$$
=
 OpenBabel10222416053D

 61 69  0  0  1  0  0  0  0  0999 V2000
  188.5700  176.5470  137.6620 C   0  0  1  0  0  3  0  0  0  0  0  0
  189.5180  176.5680  135.1820 C   0  0  0  0  0  1  0  0  0  0  0  0
  189.2300  175.8210  136.4830 C   0  0  1  0  0  0  0  0  0  0  0  0
  189.9420  174.5600  136.8190 C   0  0  1  0  0  3  0  0  0  0  0  0
  188.6540  174.5600  136.2420 O   0  0  0  0  0  0  0  0  0  0  0  0
  190.9720  174.1370  135.7760 C   0  0  0  0  0  2  0  0  0  0  0  0
  196.7560  174.9050  136.3530 C   0  0  0  0  0  1  0  0  0  0  0  0
  195.4870  175.4260  136.8440 N   0  0  0  0  0  0  0  0  0  0  0  0
  194.3770  173.2930  135.6150 C   0  0  1  0  0  3  0  0  0  0  0  0
  192.7160  175.4230  137.9260 O   0  0  0  0  0  0  0  0  0  0  0  0
  193.0110  172.8950  135.4750 O   0  0  0  0  0  0  0  0  0  0  0  0
  192.2160  173.5780  136.4480 C   0  0  1  0  0  3  0  0  0  0  0  0
  194.6820  175.7330  135.6440 C   0  0  0  0  0  2  0  0  0  0  0  0
  194.3590  174.5560  136.4400 C   0  0  2  0  0  0  0  0  0  0  0  0
  193.0470  174.6610  137.0310 C   0  0  0  0  0  0  0  0  0  0  0  0
  196.9520  170.4160  135.8550 C   0  0  0  0  0  0  0  0  0  0  0  0
  198.0180  169.9400  135.1670 F   0  0  0  0  0  0  0  0  0  0  0  0
  195.2130  172.2040  136.3070 C   0  0  2  0  0  3  0  0  0  0  0  0
  196.2100  171.6130  135.3040 C   0  0  0  0  0  2  0  0  0  0  0  0
  196.4900  169.7090  136.8990 C   0  0  0  0  0  3  0  0  0  0  0  0
  194.3880  171.0740  136.9230 C   0  0  0  0  0  2  0  0  0  0  0  0
  195.3130  170.1620  137.7240 C   0  0  0  0  0  2  0  0  0  0  0  0
  190.2910  177.9050  138.5940 C   0  0  0  0  0  2  0  0  0  0  0  0
  189.0570  177.9280  137.7880 N   0  0  0  0  0  0  0  0  0  0  0  0
  189.0700  178.4320  139.1900 C   0  0  1  0  0  3  0  0  0  0  0  0
  188.5530  177.4540  140.2470 C   0  0  0  0  0  2  0  0  0  0  0  0
  189.1630  177.7820  141.5950 C   0  0  0  0  0  2  0  0  0  0  0  0
  188.8200  176.6770  142.5840 C   0  0  2  0  0  3  0  0  0  0  0  0
  189.8320  176.4510  143.7190 C   0  0  1  0  0  3  0  0  0  0  0  0
  189.8540  175.5750  142.4740 C   0  0  0  0  0  2  0  0  0  0  0  0
  192.1050  177.0360  143.0790 O   0  0  0  0  0  1  0  0  0  0  0  0
  191.0040  177.4610  143.8290 C   0  0  2  0  0  3  0  0  0  0  0  0
  191.4290  177.8540  145.2480 C   0  0  0  0  0  2  0  0  0  0  0  0
  191.7660  176.6190  146.0750 C   0  0  0  0  0  2  0  0  0  0  0  0
  191.9450  176.9730  147.4090 O   0  0  0  0  0  1  0  0  0  0  0  0
  186.3740  177.4940  136.9720 C   0  0  0  0  0  3  0  0  0  0  0  0
  187.0680  176.5270  137.5790 C   0  0  0  0  0  3  0  0  0  0  0  0
  184.8780  177.4530  136.8910 C   0  0  0  0  0  2  0  0  0  0  0  0
  182.5340  176.3630  139.6630 C   0  0  0  0  0  3  0  0  0  0  0  0
  182.0070  177.5790  140.3590 C   0  0  1  0  0  3  0  0  0  0  0  0
  184.1100  178.9260  140.3550 C   0  0  0  0  0  3  0  0  0  0  0  0
  184.5330  178.6180  138.9800 C   0  0  0  0  0  3  0  0  0  0  0  0
  183.0580  178.4270  141.0090 C   0  0  0  0  0  0  0  0  0  0  0  0
  184.2440  177.5360  138.2440 C   0  0  0  0  0  0  0  0  0  0  0  0
  183.4800  176.3650  138.7230 C   0  0  0  0  0  3  0  0  0  0  0  0
  181.0450  178.3720  139.5250 C   0  0  0  0  0  0  0  0  0  0  0  0
  179.8490  179.9960  138.5000 N   0  0  0  0  0  0  0  0  0  0  0  0
  180.9800  179.8570  139.4020 C   0  0  0  0  0  2  0  0  0  0  0  0
  179.3930  178.8470  138.2060 N   0  0  0  0  0  0  0  0  0  0  0  0
  180.1100  177.8250  138.8290 N   0  0  0  0  0  0  0  0  0  0  0  0
  182.7920  178.9030  142.4030 C   0  0  0  0  0  2  0  0  0  0  0  0
  183.8270  178.4240  143.4250 C   0  0  1  0  0  3  0  0  0  0  0  0
  184.7720  179.0010  145.7480 C   0  0  1  0  0  3  0  0  0  0  0  0
  185.7840  177.9110  145.3690 C   0  0  1  0  0  3  0  0  0  0  0  0
  185.2660  178.7150  142.9850 C   0  0  0  0  0  2  0  0  0  0  0  0
  185.3490  180.2590  145.6560 F   0  0  0  0  0  0  0  0  0  0  0  0
  186.2790  178.0280  143.9180 C   0  0  0  0  0  2  0  0  0  0  0  0
  183.5320  178.9390  144.8450 C   0  0  0  0  0  2  0  0  0  0  0  0
  186.9250  177.8500  146.3320 C   0  0  0  0  0  0  0  0  0  0  0  0
  188.1180  177.8530  145.9160 O   0  0  0  0  0  0  0  0  0  0  0  0
  186.6700  177.8180  147.6970 O   0  0  0  0  0  1  0  0  0  0  0  0
  1 37  1  6  0  0  0
  1 24  1  0  0  0  0
  3  2  1  6  0  0  0
  3  4  1  0  0  0  0
  3  1  1  0  0  0  0
  4  6  1  6  0  0  0
  5  3  1  0  0  0  0
  5  4  1  0  0  0  0
  7  8  1  0  0  0  0
  9 11  1  1  0  0  0
  9 18  1  0  0  0  0
  9 14  1  0  0  0  0
 11 12  1  0  0  0  0
 12  6  1  6  0  0  0
 12 15  1  0  0  0  0
 13  8  1  0  0  0  0
 14 13  1  6  0  0  0
 14  8  1  0  0  0  0
 14 15  1  0  0  0  0
 15 10  2  0  0  0  0
 16 20  2  0  0  0  0
 17 16  1  0  0  0  0
 18 19  1  6  0  0  0
 18 21  1  0  0  0  0
 19 16  1  0  0  0  0
 20 22  1  0  0  0  0
 21 22  1  0  0  0  0
 23 25  1  0  0  0  0
 24 23  1  0  0  0  0
 24 25  1  0  0  0  0
 25 26  1  1  0  0  0
 26 27  1  0  0  0  0
 28 27  1  6  0  0  0
 28 29  1  0  0  0  0
 29 32  1  6  0  0  0
 30 28  1  0  0  0  0
 30 29  1  0  0  0  0
 32 31  1  1  0  0  0
 32 33  1  0  0  0  0
 33 34  1  0  0  0  0
 34 35  1  0  0  0  0
 36 37  2  0  0  0  0
 38 36  1  0  0  0  0
 38 44  1  0  0  0  0
 39 40  1  0  0  0  0
 40 46  1  6  0  0  0
 40 43  1  0  0  0  0
 41 43  2  0  0  0  0
 42 41  1  0  0  0  0
 43 51  1  0  0  0  0
 44 45  1  0  0  0  0
 44 42  2  0  0  0  0
 45 39  2  0  0  0  0
 47 48  1  0  0  0  0
 48 46  1  0  0  0  0
 49 47  2  0  0  0  0
 49 50  1  0  0  0  0
 50 46  2  0  0  0  0
 52 51  1  6  0  0  0
 52 58  1  0  0  0  0
 53 56  1  6  0  0  0
 54 53  1  0  0  0  0
 54 59  1  1  0  0  0
 55 52  1  0  0  0  0
 55 57  1  0  0  0  0
 57 54  1  0  0  0  0
 58 53  1  0  0  0  0
 59 61  1  0  0  0  0
 60 59  2  0  0  0  0
M  END
>  <MODEL>
2

>  <REMARK>
 VINA RESULT:      -8.3      3.838      9.031
  Name = 
  18 active torsions:
  status: ('A' for Active; 'I' for Inactive)
    1  A    between atoms: C_1  and  C_6
    2  A    between atoms: C_1  and  C_45
    3  A    between atoms: C_7  and  C_23
    4  A    between atoms: C_8  and  C_19
    5  A    between atoms: C_8  and  C_42
    6  A    between atoms: C_10  and  C_20
    7  A    between atoms: C_11  and  C_12
    8  A    between atoms: C_14  and  C_15
    9  A    between atoms: C_23  and  C_43
   10  A    between atoms: C_24  and  C_51
   11  A    between atoms: C_25  and  C_32
   12  A    between atoms: N_30  and  C_32
   13  A    between atoms: C_32  and  C_33
   14  A    between atoms: C_41  and  C_59
   15  A    between atoms: C_42  and  C_46
   16  A    between atoms: C_51  and  C_52
   17  A    between atoms: C_52  and  C_54
   18  A    between atoms: C_53  and  C_59
                            x       y       z     vdW  Elec       q    Type
                         _______ _______ _______ _____ _____    ______ ____

>  <TORSDO>
F 18

$$$$
=
 OpenBabel10222416053D

 61 69  0  0  1  0  0  0  0  0999 V2000
  185.7490  178.8930  142.4960 C   0  0  1  0  0  3  0  0  0  0  0  0
  184.3650  180.2800  144.2880 C   0  0  0  0  0  1  0  0  0  0  0  0
  184.4450  179.1500  143.2630 C   0  0  1  0  0  0  0  0  0  0  0  0
  183.2160  178.5730  142.6580 C   0  0  1  0  0  3  0  0  0  0  0  0
  183.8690  177.9630  143.7510 O   0  0  0  0  0  0  0  0  0  0  0  0
  181.9260  179.2330  143.1340 C   0  0  0  0  0  2  0  0  0  0  0  0
  179.6510  176.8680  138.2740 C   0  0  0  0  0  1  0  0  0  0  0  0
  179.4810  176.8750  139.7220 N   0  0  0  0  0  0  0  0  0  0  0  0
  181.2170  178.9410  139.7070 C   0  0  1  0  0  3  0  0  0  0  0  0
  179.2340  177.9490  142.4840 O   0  0  0  0  0  0  0  0  0  0  0  0
  181.7840  179.7010  140.7770 O   0  0  0  0  0  0  0  0  0  0  0  0
  181.0020  179.5110  141.9590 C   0  0  1  0  0  3  0  0  0  0  0  0
  180.8130  176.5880  140.2900 C   0  0  0  0  0  2  0  0  0  0  0  0
  180.2870  177.9440  140.3520 C   0  0  2  0  0  0  0  0  0  0  0  0
  180.0830  178.3710  141.7150 C   0  0  0  0  0  0  0  0  0  0  0  0
  180.6440  180.9540  136.4530 C   0  0  0  0  0  0  0  0  0  0  0  0
  181.1010  180.9860  135.1780 F   0  0  0  0  0  0  0  0  0  0  0  0
  180.4520  179.8410  138.7220 C   0  0  2  0  0  3  0  0  0  0  0  0
  181.2400  179.9490  137.4130 C   0  0  0  0  0  2  0  0  0  0  0  0
  179.8100  181.9240  136.8640 C   0  0  0  0  0  3  0  0  0  0  0  0
  180.1580  181.2450  139.2510 C   0  0  0  0  0  2  0  0  0  0  0  0
  179.2490  181.9690  138.2610 C   0  0  0  0  0  2  0  0  0  0  0  0
  186.8600  177.4280  144.0100 C   0  0  0  0  0  2  0  0  0  0  0  0
  186.2240  177.5150  142.6840 N   0  0  0  0  0  0  0  0  0  0  0  0
  187.7040  177.4060  142.8220 C   0  0  1  0  0  3  0  0  0  0  0  0
  188.4740  178.7240  142.7170 C   0  0  0  0  0  2  0  0  0  0  0  0
  189.8910  178.5330  143.2190 C   0  0  0  0  0  2  0  0  0  0  0  0
  190.2770  177.0660  143.0870 C   0  0  2  0  0  3  0  0  0  0  0  0
  190.7510  176.3760  144.3770 C   0  0  1  0  0  3  0  0  0  0  0  0
  191.7580  176.9170  143.3710 C   0  0  0  0  0  2  0  0  0  0  0  0
  191.8360  177.1400  146.4160 O   0  0  0  0  0  1  0  0  0  0  0  0
  190.6410  177.1890  145.6920 C   0  0  2  0  0  3  0  0  0  0  0  0
  189.4440  176.8620  146.5920 C   0  0  0  0  0  2  0  0  0  0  0  0
  189.3960  177.7980  147.7930 C   0  0  0  0  0  2  0  0  0  0  0  0
  188.1370  177.7500  148.3840 O   0  0  0  0  0  1  0  0  0  0  0  0
  185.8490  178.2960  140.0820 C   0  0  0  0  0  3  0  0  0  0  0  0
  185.6240  179.2090  141.0310 C   0  0  0  0  0  3  0  0  0  0  0  0
  185.7110  178.6270  138.6270 C   0  0  0  0  0  2  0  0  0  0  0  0
  186.4350  176.5890  135.5140 C   0  0  0  0  0  3  0  0  0  0  0  0
  187.1130  175.3160  135.9150 C   0  0  1  0  0  3  0  0  0  0  0  0
  188.5840  176.2490  137.7050 C   0  0  0  0  0  3  0  0  0  0  0  0
  187.5890  177.1360  138.3290 C   0  0  0  0  0  3  0  0  0  0  0  0
  188.4290  175.5040  136.6080 C   0  0  0  0  0  0  0  0  0  0  0  0
  186.5110  177.7020  137.7660 C   0  0  0  0  0  0  0  0  0  0  0  0
  186.1500  177.5990  136.3360 C   0  0  0  0  0  3  0  0  0  0  0  0
  186.2070  174.3570  136.6280 C   0  0  0  0  0  0  0  0  0  0  0  0
  184.4550  173.1460  137.3910 N   0  0  0  0  0  0  0  0  0  0  0  0
  184.7480  174.1580  136.3910 C   0  0  0  0  0  3  0  0  0  0  0  0
  185.5120  172.8630  138.0360 N   0  0  0  0  0  0  0  0  0  0  0  0
  186.6100  173.6000  137.5890 N   0  0  0  0  0  2  0  0  0  0  0  0
  189.5700  174.6450  136.1620 C   0  0  0  0  0  2  0  0  0  0  0  0
  190.8990  175.3970  136.0440 C   0  0  1  0  0  3  0  0  0  0  0  0
  193.1000  175.3910  134.7100 C   0  0  1  0  0  3  0  0  0  0  0  0
  193.4880  176.4400  135.7620 C   0  0  1  0  0  3  0  0  0  0  0  0
  191.8400  175.1150  137.2200 C   0  0  0  0  0  2  0  0  0  0  0  0
  193.7310  174.1840  134.9660 F   0  0  0  0  0  0  0  0  0  0  0  0
  193.0620  176.0500  137.1870 C   0  0  0  0  0  2  0  0  0  0  0  0
  191.5800  175.1780  134.6820 C   0  0  0  0  0  2  0  0  0  0  0  0
  194.9420  176.7790  135.7010 C   0  0  0  0  0  0  0  0  0  0  0  0
  195.3180  177.9450  135.3930 O   0  0  0  0  0  0  0  0  0  0  0  0
  195.8860  175.8080  136.0130 O   0  0  0  0  0  1  0  0  0  0  0  0
  1 37  1  6  0  0  0
  1 24  1  0  0  0  0
  1  3  1  0  0  0  0
  3  5  1  0  0  0  0
  3  2  1  1  0  0  0
  4  6  1  1  0  0  0
  4  3  1  0  0  0  0
  4  5  1  0  0  0  0
  7  8  1  0  0  0  0
  8 13  1  0  0  0  0
  8 14  1  0  0  0  0
  9 14  1  0  0  0  0
  9 11  1  1  0  0  0
 11 12  1  0  0  0  0
 12  6  1  1  0  0  0
 14 13  1  1  0  0  0
 14 15  1  0  0  0  0
 15 12  1  0  0  0  0
 15 10  2  0  0  0  0
 16 20  2  0  0  0  0
 16 19  1  0  0  0  0
 17 16  1  0  0  0  0
 18 19  1  6  0  0  0
 18 21  1  0  0  0  0
 18  9  1  0  0  0  0
 20 22  1  0  0  0  0
 22 21  1  0  0  0  0
 24 25  1  0  0  0  0
 24 23  1  0  0  0  0
 25 26  1  1  0  0  0
 25 23  1  0  0  0  0
 26 27  1  0  0  0  0
 28 27  1  1  0  0  0
 28 30  1  0  0  0  0
 28 29  1  0  0  0  0
 29 32  1  1  0  0  0
 30 29  1  0  0  0  0
 32 31  1  1  0  0  0
 32 33  1  0  0  0  0
 33 34  1  0  0  0  0
 34 35  1  0  0  0  0
 36 37  2  0  0  0  0
 38 36  1  0  0  0  0
 39 40  1  0  0  0  0
 39 45  2  0  0  0  0
 40 43  1  0  0  0  0
 40 46  1  1  0  0  0
 41 42  1  0  0  0  0
 43 41  2  0  0  0  0
 44 42  2  0  0  0  0
 44 38  1  0  0  0  0
 45 44  1  0  0  0  0
 46 50  1  0  0  0  0
 47 49  2  0  0  0  0
 48 46  2  0  0  0  0
 48 47  1  0  0  0  0
 50 49  1  0  0  0  0
 51 43  1  0  0  0  0
 52 51  1  1  0  0  0
 52 55  1  0  0  0  0
 53 56  1  1  0  0  0
 53 54  1  0  0  0  0
 54 59  1  1  0  0  0
 54 57  1  0  0  0  0
 57 55  1  0  0  0  0
 58 53  1  0  0  0  0
 58 52  1  0  0  0  0
 59 61  1  0  0  0  0
 60 59  2  0  0  0  0
M  END
>  <MODEL>
3

>  <REMARK>
 VINA RESULT:      -7.4      3.612      9.544
  Name = 
  18 active torsions:
  status: ('A' for Active; 'I' for Inactive)
    1  A    between atoms: C_1  and  C_6
    2  A    between atoms: C_1  and  C_45
    3  A    between atoms: C_7  and  C_23
    4  A    between atoms: C_8  and  C_19
    5  A    between atoms: C_8  and  C_42
    6  A    between atoms: C_10  and  C_20
    7  A    between atoms: C_11  and  C_12
    8  A    between atoms: C_14  and  C_15
    9  A    between atoms: C_23  and  C_43
   10  A    between atoms: C_24  and  C_51
   11  A    between atoms: C_25  and  C_32
   12  A    between atoms: N_30  and  C_32
   13  A    between atoms: C_32  and  C_33
   14  A    between atoms: C_41  and  C_59
   15  A    between atoms: C_42  and  C_46
   16  A    between atoms: C_51  and  C_52
   17  A    between atoms: C_52  and  C_54
   18  A    between atoms: C_53  and  C_59
                            x       y       z     vdW  Elec       q    Type
                         _______ _______ _______ _____ _____    ______ ____

>  <TORSDO>
F 18

$$$$
=
 OpenBabel10222416053D

 61 69  0  0  1  0  0  0  0  0999 V2000
  188.8580  176.6780  137.7540 C   0  0  1  0  0  3  0  0  0  0  0  0
  186.8870  178.0590  138.8760 C   0  0  0  0  0  1  0  0  0  0  0  0
  187.3690  177.0330  137.8530 C   0  0  1  0  0  0  0  0  0  0  0  0
  186.5430  176.6860  136.6650 C   0  0  1  0  0  3  0  0  0  0  0  0
  186.5460  175.8920  137.8330 O   0  0  0  0  0  0  0  0  0  0  0  0
  185.2350  177.4640  136.5770 C   0  0  0  0  0  2  0  0  0  0  0  0
  179.3950  177.3700  137.1040 C   0  0  0  0  0  1  0  0  0  0  0  0
  180.4450  177.3450  136.0940 N   0  0  0  0  0  0  0  0  0  0  0  0
  182.1390  176.9820  138.1640 C   0  0  1  0  0  3  0  0  0  0  0  0
  182.9720  176.5650  134.7340 O   0  0  0  0  0  0  0  0  0  0  0  0
  183.5640  176.8710  138.2040 O   0  0  0  0  0  0  0  0  0  0  0  0
  184.0520  176.5630  136.8960 C   0  0  1  0  0  3  0  0  0  0  0  0
  181.3300  178.4880  136.3970 C   0  0  0  0  0  2  0  0  0  0  0  0
  181.7760  177.1370  136.7080 C   0  0  2  0  0  0  0  0  0  0  0  0
  182.9390  176.7730  135.9370 C   0  0  0  0  0  0  0  0  0  0  0  0
  180.2290  173.6180  138.1290 C   0  0  0  0  0  0  0  0  0  0  0  0
  179.9990  172.5830  137.2860 F   0  0  0  0  0  0  0  0  0  0  0  0
  181.4600  175.7410  138.7650 C   0  0  2  0  0  3  0  0  0  0  0  0
  181.0570  174.7840  137.6380 C   0  0  0  0  0  2  0  0  0  0  0  0
  179.5730  173.6540  139.3010 C   0  0  0  0  0  3  0  0  0  0  0  0
  180.2350  176.0490  139.6270 C   0  0  0  0  0  2  0  0  0  0  0  0
  179.7670  174.7630  140.3020 C   0  0  0  0  0  2  0  0  0  0  0  0
  189.2390  178.0420  135.8390 C   0  0  0  0  0  2  0  0  0  0  0  0
  189.6480  177.8030  137.2340 N   0  0  0  0  0  0  0  0  0  0  0  0
  190.5380  177.4330  136.0970 C   0  0  1  0  0  3  0  0  0  0  0  0
  190.5040  175.9590  135.6860 C   0  0  0  0  0  2  0  0  0  0  0  0
  191.9180  175.4290  135.5580 C   0  0  0  0  0  2  0  0  0  0  0  0
  192.7650  175.9760  136.6980 C   0  0  2  0  0  3  0  0  0  0  0  0
  194.0130  175.1560  137.0630 C   0  0  1  0  0  3  0  0  0  0  0  0
  192.7230  175.0020  137.8570 C   0  0  0  0  0  2  0  0  0  0  0  0
  193.6860  172.8010  136.5470 O   0  0  0  0  0  1  0  0  0  0  0  0
  194.3620  173.9570  136.1440 C   0  0  2  0  0  3  0  0  0  0  0  0
  195.8540  173.6730  135.9380 C   0  0  0  0  0  2  0  0  0  0  0  0
  196.6870  174.3310  137.0310 C   0  0  0  0  0  2  0  0  0  0  0  0
  197.7930  174.9630  136.4710 O   0  0  0  0  0  1  0  0  0  0  0  0
  190.2820  176.9360  139.7790 C   0  0  0  0  0  3  0  0  0  0  0  0
  189.4220  176.2040  139.0660 C   0  0  0  0  0  3  0  0  0  0  0  0
  190.8270  176.4520  141.0880 C   0  0  0  0  0  2  0  0  0  0  0  0
  190.2690  178.8780  143.9460 C   0  0  0  0  0  3  0  0  0  0  0  0
  189.6260  178.1480  145.0830 C   0  0  1  0  0  3  0  0  0  0  0  0
  188.0710  176.7190  143.7500 C   0  0  0  0  0  3  0  0  0  0  0  0
  189.0140  176.3520  142.6820 C   0  0  0  0  0  3  0  0  0  0  0  0
  188.2840  177.5600  144.7650 C   0  0  0  0  0  0  0  0  0  0  0  0
  190.0870  177.0320  142.2510 C   0  0  0  0  0  0  0  0  0  0  0  0
  190.4930  178.3690  142.7340 C   0  0  0  0  0  3  0  0  0  0  0  0
  190.5450  177.1780  145.7650 C   0  0  0  0  0  0  0  0  0  0  0  0
  192.1750  175.7040  146.3010 N   0  0  0  0  0  0  0  0  0  0  0  0
  191.7580  176.5340  145.1840 C   0  0  0  0  0  3  0  0  0  0  0  0
  191.3670  175.8540  147.2700 N   0  0  0  0  0  0  0  0  0  0  0  0
  190.3460  176.7550  146.9650 N   0  0  0  0  0  2  0  0  0  0  0  0
  187.1890  177.7680  145.7630 C   0  0  0  0  0  2  0  0  0  0  0  0
  185.7980  177.8900  145.1340 C   0  0  1  0  0  3  0  0  0  0  0  0
  184.5850  178.9660  143.1360 C   0  0  1  0  0  3  0  0  0  0  0  0
  183.3470  178.4660  143.8940 C   0  0  1  0  0  3  0  0  0  0  0  0
  184.8670  178.8030  145.9380 C   0  0  0  0  0  2  0  0  0  0  0  0
  184.7180  180.3400  143.2660 F   0  0  0  0  0  0  0  0  0  0  0  0
  183.4240  178.7270  145.4080 C   0  0  0  0  0  2  0  0  0  0  0  0
  185.8580  178.2780  143.6460 C   0  0  0  0  0  2  0  0  0  0  0  0
  182.0800  179.0030  143.3110 C   0  0  0  0  0  0  0  0  0  0  0  0
  182.0240  179.3380  142.0950 O   0  0  0  0  0  0  0  0  0  0  0  0
  180.9490  179.1090  144.1110 O   0  0  0  0  0  1  0  0  0  0  0  0
  1  3  1  0  0  0  0
  1 37  1  1  0  0  0
  3  2  1  1  0  0  0
  4  6  1  1  0  0  0
  4  5  1  0  0  0  0
  4  3  1  0  0  0  0
  5  3  1  0  0  0  0
  8 13  1  0  0  0  0
  8 14  1  0  0  0  0
  8  7  1  0  0  0  0
  9 11  1  6  0  0  0
  9 18  1  0  0  0  0
 10 15  2  0  0  0  0
 12  6  1  6  0  0  0
 12 11  1  0  0  0  0
 14 13  1  6  0  0  0
 14  9  1  0  0  0  0
 15 14  1  0  0  0  0
 15 12  1  0  0  0  0
 16 20  2  0  0  0  0
 17 16  1  0  0  0  0
 18 19  1  6  0  0  0
 18 21  1  0  0  0  0
 19 16  1  0  0  0  0
 20 22  1  0  0  0  0
 21 22  1  0  0  0  0
 23 25  1  0  0  0  0
 23 24  1  0  0  0  0
 24  1  1  0  0  0  0
 25 26  1  6  0  0  0
 25 24  1  0  0  0  0
 27 26  1  0  0  0  0
 28 27  1  6  0  0  0
 28 29  1  0  0  0  0
 28 30  1  0  0  0  0
 29 32  1  6  0  0  0
 29 30  1  0  0  0  0
 32 31  1  1  0  0  0
 33 32  1  0  0  0  0
 33 34  1  0  0  0  0
 35 34  1  0  0  0  0
 36 38  1  0  0  0  0
 37 36  2  0  0  0  0
 38 44  1  0  0  0  0
 39 40  1  0  0  0  0
 40 46  1  6  0  0  0
 41 43  2  0  0  0  0
 42 41  1  0  0  0  0
 43 40  1  0  0  0  0
 43 51  1  0  0  0  0
 44 42  2  0  0  0  0
 44 45  1  0  0  0  0
 45 39  2  0  0  0  0
 46 50  1  0  0  0  0
 47 49  2  0  0  0  0
 48 46  2  0  0  0  0
 48 47  1  0  0  0  0
 50 49  1  0  0  0  0
 52 51  1  1  0  0  0
 52 55  1  0  0  0  0
 53 56  1  1  0  0  0
 53 58  1  0  0  0  0
 53 54  1  0  0  0  0
 54 59  1  6  0  0  0
 54 57  1  0  0  0  0
 57 55  1  0  0  0  0
 58 52  1  0  0  0  0
 59 61  1  0  0  0  0
 60 59  2  0  0  0  0
M  END
>  <MODEL>
4

>  <REMARK>
 VINA RESULT:      -7.3      1.827      2.412
  Name = 
  18 active torsions:
  status: ('A' for Active; 'I' for Inactive)
    1  A    between atoms: C_1  and  C_6
    2  A    between atoms: C_1  and  C_45
    3  A    between atoms: C_7  and  C_23
    4  A    between atoms: C_8  and  C_19
    5  A    between atoms: C_8  and  C_42
    6  A    between atoms: C_10  and  C_20
    7  A    between atoms: C_11  and  C_12
    8  A    between atoms: C_14  and  C_15
    9  A    between atoms: C_23  and  C_43
   10  A    between atoms: C_24  and  C_51
   11  A    between atoms: C_25  and  C_32
   12  A    between atoms: N_30  and  C_32
   13  A    between atoms: C_32  and  C_33
   14  A    between atoms: C_41  and  C_59
   15  A    between atoms: C_42  and  C_46
   16  A    between atoms: C_51  and  C_52
   17  A    between atoms: C_52  and  C_54
   18  A    between atoms: C_53  and  C_59
                            x       y       z     vdW  Elec       q    Type
                         _______ _______ _______ _____ _____    ______ ____

>  <TORSDO>
F 18

$$$$
=
 OpenBabel10222416053D

 61 69  0  0  1  0  0  0  0  0999 V2000
  184.6250  178.5670  143.1820 C   0  0  1  0  0  3  0  0  0  0  0  0
  182.4050  179.3600  141.9590 C   0  0  0  0  0  1  0  0  0  0  0  0
  183.8100  178.7650  141.8960 C   0  0  1  0  0  0  0  0  0  0  0  0
  184.5920  178.7720  140.6320 C   0  0  1  0  0  3  0  0  0  0  0  0
  183.8620  177.6400  141.0530 O   0  0  0  0  0  0  0  0  0  0  0  0
  183.8730  179.4440  139.4670 C   0  0  0  0  0  2  0  0  0  0  0  0
  180.2050  175.0240  138.2860 C   0  0  0  0  0  1  0  0  0  0  0  0
  180.2570  176.4800  138.3150 N   0  0  0  0  0  0  0  0  0  0  0  0
  182.9200  176.1700  138.6270 C   0  0  1  0  0  3  0  0  0  0  0  0
  181.2890  179.2310  137.8560 O   0  0  0  0  0  0  0  0  0  0  0  0
  183.9630  177.1300  138.8110 O   0  0  0  0  0  0  0  0  0  0  0  0
  183.4970  178.4190  138.4070 C   0  0  1  0  0  3  0  0  0  0  0  0
  180.7860  176.8420  139.6450 C   0  0  0  0  0  2  0  0  0  0  0  0
  181.6470  176.9640  138.4760 C   0  0  2  0  0  0  0  0  0  0  0  0
  182.0240  178.3350  138.2380 C   0  0  0  0  0  0  0  0  0  0  0  0
  184.3520  173.1970  136.6080 C   0  0  0  0  0  0  0  0  0  0  0  0
  184.8150  171.9430  136.8260 F   0  0  0  0  0  0  0  0  0  0  0  0
  183.1690  175.3000  137.3840 C   0  0  2  0  0  3  0  0  0  0  0  0
  183.9150  174.0260  137.7940 C   0  0  0  0  0  2  0  0  0  0  0  0
  184.4600  173.7190  135.3750 C   0  0  0  0  0  3  0  0  0  0  0  0
  183.9470  176.0020  136.2700 C   0  0  0  0  0  2  0  0  0  0  0  0
  183.9710  175.1030  135.0370 C   0  0  0  0  0  2  0  0  0  0  0  0
  183.5770  179.4020  145.1510 C   0  0  0  0  0  2  0  0  0  0  0  0
  183.7640  178.2020  144.3160 N   0  0  0  0  0  0  0  0  0  0  0  0
  184.4350  178.3310  145.6410 C   0  0  1  0  0  3  0  0  0  0  0  0
  185.8960  178.7860  145.5990 C   0  0  0  0  0  2  0  0  0  0  0  0
  186.7610  177.8100  146.3690 C   0  0  0  0  0  2  0  0  0  0  0  0
  187.4760  178.5490  147.4910 C   0  0  2  0  0  3  0  0  0  0  0  0
  188.9580  178.1930  147.6940 C   0  0  1  0  0  3  0  0  0  0  0  0
  187.8810  177.5540  148.5600 C   0  0  0  0  0  2  0  0  0  0  0  0
  190.5180  176.3780  147.2570 O   0  0  0  0  0  1  0  0  0  0  0  0
  189.6050  177.2470  146.6500 C   0  0  2  0  0  3  0  0  0  0  0  0
  190.2250  177.9190  145.4200 C   0  0  0  0  0  2  0  0  0  0  0  0
  191.3000  177.0340  144.8030 C   0  0  0  0  0  2  0  0  0  0  0  0
  191.8900  177.6840  143.7230 O   0  0  0  0  0  1  0  0  0  0  0  0
  186.9830  177.9090  142.7350 C   0  0  0  0  0  3  0  0  0  0  0  0
  185.7250  177.5550  143.0130 C   0  0  0  0  0  3  0  0  0  0  0  0
  188.0690  176.8880  142.5780 C   0  0  0  0  0  2  0  0  0  0  0  0
  189.0160  178.6110  139.3370 C   0  0  0  0  0  3  0  0  0  0  0  0
  189.7480  177.6380  138.4670 C   0  0  1  0  0  3  0  0  0  0  0  0
  191.1000  176.5230  140.2460 C   0  0  0  0  0  3  0  0  0  0  0  0
  190.0360  176.4150  141.2570 C   0  0  0  0  0  3  0  0  0  0  0  0
  191.0260  177.1190  139.0540 C   0  0  0  0  0  0  0  0  0  0  0  0
  188.9500  177.1860  141.4060 C   0  0  0  0  0  0  0  0  0  0  0  0
  188.6460  178.3860  140.5980 C   0  0  0  0  0  3  0  0  0  0  0  0
  188.8710  176.5520  137.9180 C   0  0  0  0  0  0  0  0  0  0  0  0
  187.1550  175.2900  137.1560 N   0  0  0  0  0  0  0  0  0  0  0  0
  187.4140  176.6430  137.6180 C   0  0  0  0  0  3  0  0  0  0  0  0
  188.2280  174.6100  137.2020 N   0  0  0  0  0  0  0  0  0  0  0  0
  189.3040  175.3630  137.6740 N   0  0  0  0  0  2  0  0  0  0  0  0
  192.2280  177.0860  138.1630 C   0  0  0  0  0  2  0  0  0  0  0  0
  192.6530  175.6720  137.7540 C   0  0  1  0  0  3  0  0  0  0  0  0
  194.7560  174.2400  137.3680 C   0  0  1  0  0  3  0  0  0  0  0  0
  193.7180  173.2480  136.8250 C   0  0  1  0  0  3  0  0  0  0  0  0
  192.4340  175.4010  136.2630 C   0  0  0  0  0  2  0  0  0  0  0  0
  195.4650  174.8240  136.3290 F   0  0  0  0  0  0  0  0  0  0  0  0
  192.6590  173.9150  135.9310 C   0  0  0  0  0  2  0  0  0  0  0  0
  194.0850  175.3350  138.2080 C   0  0  0  0  0  2  0  0  0  0  0  0
  194.3610  172.0880  136.1370 C   0  0  0  0  0  0  0  0  0  0  0  0
  193.6720  171.2940  135.4370 O   0  0  0  0  0  0  0  0  0  0  0  0
  195.7330  171.9000  136.2470 O   0  0  0  0  0  1  0  0  0  0  0  0
  1 37  1  6  0  0  0
  1 24  1  0  0  0  0
  3  2  1  1  0  0  0
  3  1  1  0  0  0  0
  4  6  1  6  0  0  0
  4  5  1  0  0  0  0
  4  3  1  0  0  0  0
  5  3  1  0  0  0  0
  7  8  1  0  0  0  0
  8 14  1  0  0  0  0
  8 13  1  0  0  0  0
  9 11  1  6  0  0  0
 10 15  2  0  0  0  0
 12 11  1  0  0  0  0
 12  6  1  1  0  0  0
 14  9  1  0  0  0  0
 14 13  1  1  0  0  0
 15 12  1  0  0  0  0
 15 14  1  0  0  0  0
 16 17  1  0  0  0  0
 16 19  1  0  0  0  0
 18 21  1  6  0  0  0
 18 19  1  0  0  0  0
 18  9  1  0  0  0  0
 20 16  2  0  0  0  0
 22 20  1  0  0  0  0
 22 21  1  0  0  0  0
 23 25  1  0  0  0  0
 24 23  1  0  0  0  0
 24 25  1  0  0  0  0
 25 26  1  6  0  0  0
 26 27  1  0  0  0  0
 28 27  1  6  0  0  0
 28 29  1  0  0  0  0
 28 30  1  0  0  0  0
 29 32  1  6  0  0  0
 29 30  1  0  0  0  0
 32 31  1  1  0  0  0
 33 32  1  0  0  0  0
 34 33  1  0  0  0  0
 35 34  1  0  0  0  0
 36 37  2  0  0  0  0
 38 36  1  0  0  0  0
 39 45  2  0  0  0  0
 40 46  1  1  0  0  0
 40 43  1  0  0  0  0
 40 39  1  0  0  0  0
 41 42  1  0  0  0  0
 42 44  2  0  0  0  0
 43 41  2  0  0  0  0
 44 38  1  0  0  0  0
 45 44  1  0  0  0  0
 47 49  2  0  0  0  0
 47 48  1  0  0  0  0
 48 46  2  0  0  0  0
 49 50  1  0  0  0  0
 50 46  1  0  0  0  0
 51 43  1  0  0  0  0
 52 51  1  6  0  0  0
 52 58  1  0  0  0  0
 53 56  1  6  0  0  0
 53 58  1  0  0  0  0
 54 59  1  6  0  0  0
 54 53  1  0  0  0  0
 55 52  1  0  0  0  0
 57 55  1  0  0  0  0
 57 54  1  0  0  0  0
 59 61  1  0  0  0  0
 60 59  2  0  0  0  0
M  END
>  <MODEL>
5

>  <REMARK>
 VINA RESULT:      -7.0      2.870      8.869
  Name = 
  18 active torsions:
  status: ('A' for Active; 'I' for Inactive)
    1  A    between atoms: C_1  and  C_6
    2  A    between atoms: C_1  and  C_45
    3  A    between atoms: C_7  and  C_23
    4  A    between atoms: C_8  and  C_19
    5  A    between atoms: C_8  and  C_42
    6  A    between atoms: C_10  and  C_20
    7  A    between atoms: C_11  and  C_12
    8  A    between atoms: C_14  and  C_15
    9  A    between atoms: C_23  and  C_43
   10  A    between atoms: C_24  and  C_51
   11  A    between atoms: C_25  and  C_32
   12  A    between atoms: N_30  and  C_32
   13  A    between atoms: C_32  and  C_33
   14  A    between atoms: C_41  and  C_59
   15  A    between atoms: C_42  and  C_46
   16  A    between atoms: C_51  and  C_52
   17  A    between atoms: C_52  and  C_54
   18  A    between atoms: C_53  and  C_59
                            x       y       z     vdW  Elec       q    Type
                         _______ _______ _______ _____ _____    ______ ____

>  <TORSDO>
F 18

$$$$
=
 OpenBabel10222416053D

 61 69  0  0  1  0  0  0  0  0999 V2000
  189.4700  176.4330  138.3160 C   0  0  1  0  0  3  0  0  0  0  0  0
  189.7340  175.2230  135.9670 C   0  0  0  0  0  1  0  0  0  0  0  0
  190.3160  175.6290  137.3190 C   0  0  1  0  0  0  0  0  0  0  0  0
  191.7860  175.6660  137.5430 C   0  0  1  0  0  3  0  0  0  0  0  0
  190.9970  174.5630  137.9350 O   0  0  0  0  0  0  0  0  0  0  0  0
  192.6060  175.3000  136.3110 C   0  0  0  0  0  2  0  0  0  0  0  0
  196.5300  171.0280  137.1700 C   0  0  0  0  0  1  0  0  0  0  0  0
  195.8860  171.7800  136.1010 N   0  0  0  0  0  0  0  0  0  0  0  0
  194.9660  173.3830  138.0690 C   0  0  1  0  0  3  0  0  0  0  0  0
  194.8390  174.1210  134.5940 O   0  0  0  0  0  0  0  0  0  0  0  0
  194.1040  174.5230  138.0270 O   0  0  0  0  0  0  0  0  0  0  0  0
  194.0540  175.0300  136.6910 C   0  0  1  0  0  3  0  0  0  0  0  0
  194.4350  171.6970  136.3610 C   0  0  0  0  0  2  0  0  0  0  0  0
  195.1400  172.9410  136.6370 C   0  0  2  0  0  0  0  0  0  0  0  0
  194.6660  174.0140  135.7980 C   0  0  0  0  0  0  0  0  0  0  0  0
  197.4120  175.2190  140.4380 C   0  0  0  0  0  0  0  0  0  0  0  0
  197.3830  175.8940  141.6120 F   0  0  0  0  0  0  0  0  0  0  0  0
  196.3250  173.7290  138.7000 C   0  0  2  0  0  3  0  0  0  0  0  0
  196.1130  174.6930  139.8710 C   0  0  0  0  0  2  0  0  0  0  0  0
  198.5580  175.1920  139.7380 C   0  0  0  0  0  3  0  0  0  0  0  0
  197.3360  174.3350  137.7250 C   0  0  0  0  0  2  0  0  0  0  0  0
  198.6860  174.4640  138.4250 C   0  0  0  0  0  2  0  0  0  0  0  0
  191.3140  177.1960  139.6170 C   0  0  0  0  0  2  0  0  0  0  0  0
  190.1800  177.6320  138.7830 N   0  0  0  0  0  0  0  0  0  0  0  0
  190.1570  177.8020  140.2640 C   0  0  1  0  0  3  0  0  0  0  0  0
  189.3840  176.7300  141.0380 C   0  0  0  0  0  2  0  0  0  0  0  0
  189.6570  176.8710  142.5210 C   0  0  0  0  0  2  0  0  0  0  0  0
  190.8240  175.9720  142.9050 C   0  0  2  0  0  3  0  0  0  0  0  0
  191.4240  176.2080  144.3020 C   0  0  1  0  0  3  0  0  0  0  0  0
  192.0690  176.8210  143.0660 C   0  0  0  0  0  2  0  0  0  0  0  0
  191.5580  177.7480  146.1790 O   0  0  0  0  0  1  0  0  0  0  0  0
  190.6890  177.2140  145.2230 C   0  0  2  0  0  3  0  0  0  0  0  0
  189.3970  176.7140  145.8790 C   0  0  0  0  0  2  0  0  0  0  0  0
  189.4100  176.9830  147.3790 C   0  0  0  0  0  2  0  0  0  0  0  0
  188.1910  177.5230  147.7760 O   0  0  0  0  0  1  0  0  0  0  0  0
  187.9290  177.9250  137.0540 C   0  0  0  0  0  3  0  0  0  0  0  0
  188.1250  176.8050  137.7550 C   0  0  0  0  0  3  0  0  0  0  0  0
  186.5830  178.2760  136.4960 C   0  0  0  0  0  2  0  0  0  0  0  0
  183.6290  176.4150  137.9710 C   0  0  0  0  0  3  0  0  0  0  0  0
  182.6600  177.4100  138.5310 C   0  0  1  0  0  3  0  0  0  0  0  0
  184.3170  179.0010  139.5110 C   0  0  0  0  0  3  0  0  0  0  0  0
  185.2720  178.9990  138.3910 C   0  0  0  0  0  3  0  0  0  0  0  0
  183.2120  178.2610  139.6340 C   0  0  0  0  0  0  0  0  0  0  0  0
  185.4880  178.0340  137.4860 C   0  0  0  0  0  0  0  0  0  0  0  0
  184.8370  176.7070  137.4890 C   0  0  0  0  0  3  0  0  0  0  0  0
  181.9460  178.2040  137.4780 C   0  0  0  0  0  0  0  0  0  0  0  0
  180.8640  178.9220  135.6250 N   0  0  0  0  0  0  0  0  0  0  0  0
  181.3790  177.6900  136.1980 C   0  0  0  0  0  3  0  0  0  0  0  0
  181.1040  179.8910  136.4100 N   0  0  0  0  0  0  0  0  0  0  0  0
  181.7760  179.4780  137.5610 N   0  0  0  0  0  2  0  0  0  0  0  0
  182.3610  178.4450  140.8520 C   0  0  0  0  0  2  0  0  0  0  0  0
  183.1180  178.2410  142.1680 C   0  0  1  0  0  3  0  0  0  0  0  0
  183.3300  179.2270  144.5360 C   0  0  1  0  0  3  0  0  0  0  0  0
  184.5070  178.2430  144.6060 C   0  0  1  0  0  3  0  0  0  0  0  0
  184.5870  178.6640  142.0730 C   0  0  0  0  0  2  0  0  0  0  0  0
  183.7870  180.5290  144.3990 F   0  0  0  0  0  0  0  0  0  0  0  0
  185.3670  178.2420  143.3310 C   0  0  0  0  0  2  0  0  0  0  0  0
  182.3980  178.8860  143.3650 C   0  0  0  0  0  2  0  0  0  0  0  0
  185.3410  178.4570  145.8270 C   0  0  0  0  0  0  0  0  0  0  0  0
  184.8260  178.3890  146.9780 O   0  0  0  0  0  1  0  0  0  0  0  0
  186.7010  178.7070  145.6920 O   0  0  0  0  0  0  0  0  0  0  0  0
  1 37  1  6  0  0  0
  1 24  1  0  0  0  0
  3  2  1  6  0  0  0
  3  4  1  0  0  0  0
  3  5  1  0  0  0  0
  3  1  1  0  0  0  0
  4  6  1  6  0  0  0
  4  5  1  0  0  0  0
  8 13  1  0  0  0  0
  8 14  1  0  0  0  0
  8  7  1  0  0  0  0
  9 11  1  6  0  0  0
  9 18  1  0  0  0  0
 10 15  2  0  0  0  0
 12  6  1  6  0  0  0
 12 11  1  0  0  0  0
 14 13  1  6  0  0  0
 14  9  1  0  0  0  0
 15 14  1  0  0  0  0
 15 12  1  0  0  0  0
 16 17  1  0  0  0  0
 18 21  1  6  0  0  0
 18 19  1  0  0  0  0
 19 16  1  0  0  0  0
 20 16  2  0  0  0  0
 21 22  1  0  0  0  0
 22 20  1  0  0  0  0
 23 25  1  0  0  0  0
 24 23  1  0  0  0  0
 24 25  1  0  0  0  0
 25 26  1  1  0  0  0
 26 27  1  0  0  0  0
 28 27  1  1  0  0  0
 28 30  1  0  0  0  0
 28 29  1  0  0  0  0
 29 32  1  1  0  0  0
 30 29  1  0  0  0  0
 32 33  1  0  0  0  0
 32 31  1  1  0  0  0
 33 34  1  0  0  0  0
 34 35  1  0  0  0  0
 36 37  2  0  0  0  0
 38 36  1  0  0  0  0
 38 44  1  0  0  0  0
 39 40  1  0  0  0  0
 40 46  1  6  0  0  0
 40 43  1  0  0  0  0
 41 43  2  0  0  0  0
 42 41  1  0  0  0  0
 43 51  1  0  0  0  0
 44 45  1  0  0  0  0
 44 42  2  0  0  0  0
 45 39  2  0  0  0  0
 46 50  1  0  0  0  0
 47 48  1  0  0  0  0
 47 49  2  0  0  0  0
 48 46  2  0  0  0  0
 49 50  1  0  0  0  0
 52 51  1  6  0  0  0
 52 58  1  0  0  0  0
 53 56  1  6  0  0  0
 53 54  1  0  0  0  0
 54 59  1  1  0  0  0
 55 52  1  0  0  0  0
 55 57  1  0  0  0  0
 57 54  1  0  0  0  0
 58 53  1  0  0  0  0
 59 60  1  0  0  0  0
 61 59  2  0  0  0  0
M  END
>  <MODEL>
6

>  <REMARK>
 VINA RESULT:      -6.9      3.639      9.790
  Name = 
  18 active torsions:
  status: ('A' for Active; 'I' for Inactive)
    1  A    between atoms: C_1  and  C_6
    2  A    between atoms: C_1  and  C_45
    3  A    between atoms: C_7  and  C_23
    4  A    between atoms: C_8  and  C_19
    5  A    between atoms: C_8  and  C_42
    6  A    between atoms: C_10  and  C_20
    7  A    between atoms: C_11  and  C_12
    8  A    between atoms: C_14  and  C_15
    9  A    between atoms: C_23  and  C_43
   10  A    between atoms: C_24  and  C_51
   11  A    between atoms: C_25  and  C_32
   12  A    between atoms: N_30  and  C_32
   13  A    between atoms: C_32  and  C_33
   14  A    between atoms: C_41  and  C_59
   15  A    between atoms: C_42  and  C_46
   16  A    between atoms: C_51  and  C_52
   17  A    between atoms: C_52  and  C_54
   18  A    between atoms: C_53  and  C_59
                            x       y       z     vdW  Elec       q    Type
                         _______ _______ _______ _____ _____    ______ ____

>  <TORSDO>
F 18

$$$$
=
 OpenBabel10222416053D

 61 69  0  0  1  0  0  0  0  0999 V2000
  183.8970  177.7710  138.3460 C   0  0  1  0  0  3  0  0  0  0  0  0
  182.4740  176.5840  140.2470 C   0  0  0  0  0  1  0  0  0  0  0  0
  183.4470  177.6770  139.8100 C   0  0  1  0  0  0  0  0  0  0  0  0
  184.3110  178.3770  140.7970 C   0  0  1  0  0  3  0  0  0  0  0  0
  183.0950  178.9310  140.3420 O   0  0  0  0  0  0  0  0  0  0  0  0
  184.1440  177.8740  142.2270 C   0  0  0  0  0  2  0  0  0  0  0  0
  189.9650  177.6150  142.8830 C   0  0  0  0  0  1  0  0  0  0  0  0
  188.9390  178.2940  142.1020 N   0  0  0  0  0  0  0  0  0  0  0  0
  187.1880  177.2050  143.8450 C   0  0  1  0  0  3  0  0  0  0  0  0
  186.4260  179.7680  141.5030 O   0  0  0  0  0  0  0  0  0  0  0  0
  185.7610  177.2590  143.9000 O   0  0  0  0  0  0  0  0  0  0  0  0
  185.2960  178.3480  143.0990 C   0  0  1  0  0  3  0  0  0  0  0  0
  188.0750  177.2300  141.5520 C   0  0  0  0  0  2  0  0  0  0  0  0
  187.5900  178.0450  142.6580 C   0  0  2  0  0  0  0  0  0  0  0  0
  186.4370  178.8220  142.2750 C   0  0  0  0  0  0  0  0  0  0  0  0
  189.5670  177.2170  146.8950 C   0  0  0  0  0  0  0  0  0  0  0  0
  190.7430  176.6620  147.2760 F   0  0  0  0  0  0  0  0  0  0  0  0
  187.8230  177.7500  145.1350 C   0  0  2  0  0  3  0  0  0  0  0  0
  188.9970  176.8530  145.5430 C   0  0  0  0  0  2  0  0  0  0  0  0
  188.8690  177.9300  147.7950 C   0  0  0  0  0  3  0  0  0  0  0  0
  186.8520  177.8750  146.3100 C   0  0  0  0  0  2  0  0  0  0  0  0
  187.5550  178.5860  147.4620 C   0  0  0  0  0  2  0  0  0  0  0  0
  181.6150  177.9140  137.6770 C   0  0  0  0  0  2  0  0  0  0  0  0
  182.9420  178.5410  137.5350 N   0  0  0  0  0  0  0  0  0  0  0  0
  182.3380  177.7570  136.4200 C   0  0  1  0  0  3  0  0  0  0  0  0
  182.8270  176.3130  136.2890 C   0  0  0  0  0  2  0  0  0  0  0  0
  181.7380  175.4550  135.6760 C   0  0  0  0  0  2  0  0  0  0  0  0
  180.9120  174.8220  136.7880 C   0  0  2  0  0  3  0  0  0  0  0  0
  181.0450  173.2980  136.9410 C   0  0  1  0  0  3  0  0  0  0  0  0
  179.8770  173.9020  136.1730 C   0  0  0  0  0  2  0  0  0  0  0  0
  181.5180  171.6540  135.2120 O   0  0  0  0  0  1  0  0  0  0  0  0
  182.1100  172.5920  136.0620 C   0  0  2  0  0  3  0  0  0  0  0  0
  183.3030  171.9800  136.8050 C   0  0  0  0  0  2  0  0  0  0  0  0
  183.4420  170.4980  136.4800 C   0  0  0  0  0  2  0  0  0  0  0  0
  184.4500  170.3090  135.5400 O   0  0  0  0  0  1  0  0  0  0  0  0
  186.0930  178.0110  137.2000 C   0  0  0  0  0  3  0  0  0  0  0  0
  185.2810  178.3430  138.2080 C   0  0  0  0  0  3  0  0  0  0  0  0
  187.4670  178.5970  137.0740 C   0  0  0  0  0  2  0  0  0  0  0  0
  189.6280  176.3630  134.9050 C   0  0  0  0  0  3  0  0  0  0  0  0
  189.7770  175.0340  135.5760 C   0  0  1  0  0  3  0  0  0  0  0  0
  190.0130  175.8490  137.9250 C   0  0  0  0  0  3  0  0  0  0  0  0
  188.9590  176.8760  137.8780 C   0  0  0  0  0  3  0  0  0  0  0  0
  190.4430  175.0860  136.9180 C   0  0  0  0  0  0  0  0  0  0  0  0
  188.4990  177.5470  136.8130 C   0  0  0  0  0  0  0  0  0  0  0  0
  189.0400  177.4330  135.4410 C   0  0  0  0  0  3  0  0  0  0  0  0
  188.5160  174.2220  135.5790 C   0  0  0  0  0  0  0  0  0  0  0  0
  186.8770  172.7120  135.9690 N   0  0  0  0  0  0  0  0  0  0  0  0
  188.1910  173.0730  136.4730 C   0  0  0  0  0  2  0  0  0  0  0  0
  186.5600  173.4820  135.0100 N   0  0  0  0  0  0  0  0  0  0  0  0
  187.5560  174.4230  134.7440 N   0  0  0  0  0  0  0  0  0  0  0  0
  191.5130  174.0760  137.1940 C   0  0  0  0  0  2  0  0  0  0  0  0
  192.8910  174.4760  136.6600 C   0  0  1  0  0  3  0  0  0  0  0  0
  195.3960  174.2770  137.2160 C   0  0  1  0  0  3  0  0  0  0  0  0
  195.5140  175.2580  136.0400 C   0  0  1  0  0  3  0  0  0  0  0  0
  193.1750  175.9720  136.8260 C   0  0  0  0  0  2  0  0  0  0  0  0
  195.6020  174.9300  138.4220 F   0  0  0  0  0  0  0  0  0  0  0  0
  194.4610  176.3780  136.0840 C   0  0  0  0  0  2  0  0  0  0  0  0
  194.0200  173.5980  137.2300 C   0  0  0  0  0  2  0  0  0  0  0  0
  196.8950  175.8130  135.9130 C   0  0  0  0  0  0  0  0  0  0  0  0
  197.8960  175.1390  136.2850 O   0  0  0  0  0  1  0  0  0  0  0  0
  197.0790  177.0730  135.3560 O   0  0  0  0  0  0  0  0  0  0  0  0
  1 37  1  1  0  0  0
  1  3  1  0  0  0  0
  3  2  1  1  0  0  0
  3  5  1  0  0  0  0
  3  4  1  0  0  0  0
  4  6  1  1  0  0  0
  5  4  1  0  0  0  0
  8 14  1  0  0  0  0
  8  7  1  0  0  0  0
  9 11  1  1  0  0  0
  9 18  1  0  0  0  0
 10 15  2  0  0  0  0
 12  6  1  6  0  0  0
 12 11  1  0  0  0  0
 13  8  1  0  0  0  0
 14 13  1  6  0  0  0
 14  9  1  0  0  0  0
 15 14  1  0  0  0  0
 15 12  1  0  0  0  0
 16 17  1  0  0  0  0
 16 20  2  0  0  0  0
 18 19  1  1  0  0  0
 18 21  1  0  0  0  0
 19 16  1  0  0  0  0
 21 22  1  0  0  0  0
 22 20  1  0  0  0  0
 24 23  1  0  0  0  0
 24  1  1  0  0  0  0
 25 26  1  1  0  0  0
 25 24  1  0  0  0  0
 25 23  1  0  0  0  0
 27 26  1  0  0  0  0
 28 27  1  6  0  0  0
 28 29  1  0  0  0  0
 29 32  1  6  0  0  0
 30 28  1  0  0  0  0
 30 29  1  0  0  0  0
 32 31  1  1  0  0  0
 32 33  1  0  0  0  0
 34 33  1  0  0  0  0
 35 34  1  0  0  0  0
 36 37  2  0  0  0  0
 38 36  1  0  0  0  0
 39 45  2  0  0  0  0
 39 40  1  0  0  0  0
 40 46  1  1  0  0  0
 40 43  1  0  0  0  0
 42 41  1  0  0  0  0
 43 51  1  0  0  0  0
 43 41  2  0  0  0  0
 44 38  1  0  0  0  0
 44 42  2  0  0  0  0
 45 44  1  0  0  0  0
 46 48  1  0  0  0  0
 47 48  1  0  0  0  0
 49 47  2  0  0  0  0
 50 49  1  0  0  0  0
 50 46  2  0  0  0  0
 52 55  1  0  0  0  0
 52 51  1  1  0  0  0
 52 58  1  0  0  0  0
 53 58  1  0  0  0  0
 53 56  1  1  0  0  0
 54 59  1  1  0  0  0
 54 57  1  0  0  0  0
 54 53  1  0  0  0  0
 57 55  1  0  0  0  0
 59 60  1  0  0  0  0
 61 59  2  0  0  0  0
M  END
>  <MODEL>
7

>  <REMARK>
 VINA RESULT:      -6.9      3.082     10.750
  Name = 
  18 active torsions:
  status: ('A' for Active; 'I' for Inactive)
    1  A    between atoms: C_1  and  C_6
    2  A    between atoms: C_1  and  C_45
    3  A    between atoms: C_7  and  C_23
    4  A    between atoms: C_8  and  C_19
    5  A    between atoms: C_8  and  C_42
    6  A    between atoms: C_10  and  C_20
    7  A    between atoms: C_11  and  C_12
    8  A    between atoms: C_14  and  C_15
    9  A    between atoms: C_23  and  C_43
   10  A    between atoms: C_24  and  C_51
   11  A    between atoms: C_25  and  C_32
   12  A    between atoms: N_30  and  C_32
   13  A    between atoms: C_32  and  C_33
   14  A    between atoms: C_41  and  C_59
   15  A    between atoms: C_42  and  C_46
   16  A    between atoms: C_51  and  C_52
   17  A    between atoms: C_52  and  C_54
   18  A    between atoms: C_53  and  C_59
                            x       y       z     vdW  Elec       q    Type
                         _______ _______ _______ _____ _____    ______ ____

>  <TORSDO>
F 18

$$$$
=
 OpenBabel10222416053D

 61 69  0  0  1  0  0  0  0  0999 V2000
  190.3220  175.9670  138.0420 C   0  0  1  0  0  3  0  0  0  0  0  0
  189.6780  178.5430  138.0420 C   0  0  0  0  0  1  0  0  0  0  0  0
  189.9950  177.2580  138.8040 C   0  0  1  0  0  0  0  0  0  0  0  0
  189.5810  177.0830  140.2220 C   0  0  1  0  0  3  0  0  0  0  0  0
  190.8860  177.4900  139.8680 O   0  0  0  0  0  0  0  0  0  0  0  0
  188.8090  178.2700  140.7890 C   0  0  0  0  0  2  0  0  0  0  0  0
  191.3340  175.6720  145.4000 C   0  0  0  0  0  1  0  0  0  0  0  0
  191.6000  176.6710  144.3720 N   0  0  0  0  0  0  0  0  0  0  0  0
  188.9650  176.4940  143.8150 C   0  0  1  0  0  3  0  0  0  0  0  0
  191.1540  179.0140  142.5950 O   0  0  0  0  0  0  0  0  0  0  0  0
  188.1710  177.1340  142.8120 O   0  0  0  0  0  0  0  0  0  0  0  0
  188.8720  178.2730  142.3080 C   0  0  1  0  0  3  0  0  0  0  0  0
  191.2660  176.0290  143.0840 C   0  0  0  0  0  2  0  0  0  0  0  0
  190.3640  177.0290  143.6400 C   0  0  2  0  0  0  0  0  0  0  0  0
  190.2740  178.1910  142.7890 C   0  0  0  0  0  0  0  0  0  0  0  0
  186.4170  177.6870  146.4700 C   0  0  0  0  0  0  0  0  0  0  0  0
  185.0790  177.8600  146.5960 F   0  0  0  0  0  0  0  0  0  0  0  0
  188.4390  176.7970  145.2270 C   0  0  2  0  0  3  0  0  0  0  0  0
  186.9640  177.2050  145.1460 C   0  0  0  0  0  2  0  0  0  0  0  0
  187.2190  178.1120  147.4600 C   0  0  0  0  0  3  0  0  0  0  0  0
  189.2210  177.8810  145.9710 C   0  0  0  0  0  2  0  0  0  0  0  0
  188.7170  177.9590  147.4090 C   0  0  0  0  0  2  0  0  0  0  0  0
  192.6820  176.0960  138.3330 C   0  0  0  0  0  2  0  0  0  0  0  0
  191.4880  175.2800  138.6150 N   0  0  0  0  0  0  0  0  0  0  0  0
  192.4890  174.8520  137.5980 C   0  0  1  0  0  3  0  0  0  0  0  0
  192.1280  175.1670  136.1440 C   0  0  0  0  0  2  0  0  0  0  0  0
  192.8690  174.2270  135.2150 C   0  0  0  0  0  2  0  0  0  0  0  0
  192.4770  172.7910  135.5360 C   0  0  2  0  0  3  0  0  0  0  0  0
  193.5980  171.8950  136.0870 C   0  0  1  0  0  3  0  0  0  0  0  0
  193.2280  171.8550  134.6110 C   0  0  0  0  0  2  0  0  0  0  0  0
  195.9910  171.9980  135.6660 O   0  0  0  0  0  1  0  0  0  0  0  0
  194.9540  172.5760  136.4030 C   0  0  2  0  0  3  0  0  0  0  0  0
  195.3300  172.6800  137.8860 C   0  0  0  0  0  2  0  0  0  0  0  0
  196.5160  173.6170  138.0800 C   0  0  0  0  0  2  0  0  0  0  0  0
  196.1730  174.9070  137.6870 O   0  0  0  0  0  1  0  0  0  0  0  0
  188.9360  174.2280  136.9230 C   0  0  0  0  0  3  0  0  0  0  0  0
  189.1460  175.0310  137.9690 C   0  0  0  0  0  3  0  0  0  0  0  0
  187.7640  173.2960  136.8710 C   0  0  0  0  0  2  0  0  0  0  0  0
  185.5020  175.6230  134.9130 C   0  0  0  0  0  3  0  0  0  0  0  0
  184.6260  176.3680  135.8710 C   0  0  1  0  0  3  0  0  0  0  0  0
  184.1600  174.4930  137.4530 C   0  0  0  0  0  3  0  0  0  0  0  0
  185.5240  173.9420  137.5060 C   0  0  0  0  0  3  0  0  0  0  0  0
  183.7230  175.4990  136.6920 C   0  0  0  0  0  0  0  0  0  0  0  0
  186.4880  174.0200  136.5780 C   0  0  0  0  0  0  0  0  0  0  0  0
  186.3300  174.6300  135.2400 C   0  0  0  0  0  3  0  0  0  0  0  0
  185.3680  177.3820  136.6900 C   0  0  0  0  0  0  0  0  0  0  0  0
  186.7980  178.9490  137.4760 N   0  0  0  0  0  0  0  0  0  0  0  0
  186.5230  178.2160  136.2520 C   0  0  0  0  0  3  0  0  0  0  0  0
  185.9820  178.5890  138.3820 N   0  0  0  0  0  0  0  0  0  0  0  0
  185.0900  177.6180  137.9250 N   0  0  0  0  0  2  0  0  0  0  0  0
  182.2920  175.9200  136.8190 C   0  0  0  0  0  2  0  0  0  0  0  0
  181.9350  176.4810  138.1980 C   0  0  1  0  0  3  0  0  0  0  0  0
  180.0320  176.4920  139.9310 C   0  0  1  0  0  3  0  0  0  0  0  0
  180.9320  177.5460  140.5930 C   0  0  1  0  0  3  0  0  0  0  0  0
  181.6480  177.9850  138.1660 C   0  0  0  0  0  2  0  0  0  0  0  0
  178.9350  177.0910  139.3320 F   0  0  0  0  0  0  0  0  0  0  0  0
  181.5140  178.5550  139.5890 C   0  0  0  0  0  2  0  0  0  0  0  0
  180.8110  175.6840  138.8840 C   0  0  0  0  0  2  0  0  0  0  0  0
  180.2420  178.2370  141.7240 C   0  0  0  0  0  0  0  0  0  0  0  0
  179.6780  177.5710  142.6370 O   0  0  0  0  0  1  0  0  0  0  0  0
  180.2460  179.6250  141.7830 O   0  0  0  0  0  0  0  0  0  0  0  0
  1 37  1  1  0  0  0
  1 24  1  0  0  0  0
  1  3  1  0  0  0  0
  3  2  1  6  0  0  0
  3  5  1  0  0  0  0
  3  4  1  0  0  0  0
  4  6  1  1  0  0  0
  5  4  1  0  0  0  0
  8  7  1  0  0  0  0
  9 11  1  6  0  0  0
  9 18  1  0  0  0  0
 10 15  2  0  0  0  0
 12  6  1  6  0  0  0
 12 15  1  0  0  0  0
 12 11  1  0  0  0  0
 13  8  1  0  0  0  0
 14 13  1  6  0  0  0
 14  9  1  0  0  0  0
 14  8  1  0  0  0  0
 15 14  1  0  0  0  0
 16 17  1  0  0  0  0
 16 20  2  0  0  0  0
 18 19  1  6  0  0  0
 18 21  1  0  0  0  0
 19 16  1  0  0  0  0
 21 22  1  0  0  0  0
 22 20  1  0  0  0  0
 23 24  1  0  0  0  0
 25 26  1  6  0  0  0
 25 23  1  0  0  0  0
 25 24  1  0  0  0  0
 27 26  1  0  0  0  0
 28 27  1  6  0  0  0
 28 29  1  0  0  0  0
 29 32  1  6  0  0  0
 30 28  1  0  0  0  0
 30 29  1  0  0  0  0
 32 31  1  6  0  0  0
 32 33  1  0  0  0  0
 33 34  1  0  0  0  0
 35 34  1  0  0  0  0
 36 37  2  0  0  0  0
 38 36  1  0  0  0  0
 39 45  2  0  0  0  0
 39 40  1  0  0  0  0
 40 46  1  1  0  0  0
 40 43  1  0  0  0  0
 41 42  1  0  0  0  0
 43 51  1  0  0  0  0
 43 41  2  0  0  0  0
 44 38  1  0  0  0  0
 44 42  2  0  0  0  0
 45 44  1  0  0  0  0
 46 50  1  0  0  0  0
 47 49  2  0  0  0  0
 48 46  2  0  0  0  0
 48 47  1  0  0  0  0
 50 49  1  0  0  0  0
 52 51  1  6  0  0  0
 52 58  1  0  0  0  0
 53 56  1  6  0  0  0
 53 54  1  0  0  0  0
 54 59  1  1  0  0  0
 55 52  1  0  0  0  0
 55 57  1  0  0  0  0
 57 54  1  0  0  0  0
 58 53  1  0  0  0  0
 59 61  2  0  0  0  0
 59 60  1  0  0  0  0
M  END
>  <MODEL>
8

>  <REMARK>
 VINA RESULT:      -6.8      2.653      7.848
  Name = 
  18 active torsions:
  status: ('A' for Active; 'I' for Inactive)
    1  A    between atoms: C_1  and  C_6
    2  A    between atoms: C_1  and  C_45
    3  A    between atoms: C_7  and  C_23
    4  A    between atoms: C_8  and  C_19
    5  A    between atoms: C_8  and  C_42
    6  A    between atoms: C_10  and  C_20
    7  A    between atoms: C_11  and  C_12
    8  A    between atoms: C_14  and  C_15
    9  A    between atoms: C_23  and  C_43
   10  A    between atoms: C_24  and  C_51
   11  A    between atoms: C_25  and  C_32
   12  A    between atoms: N_30  and  C_32
   13  A    between atoms: C_32  and  C_33
   14  A    between atoms: C_41  and  C_59
   15  A    between atoms: C_42  and  C_46
   16  A    between atoms: C_51  and  C_52
   17  A    between atoms: C_52  and  C_54
   18  A    between atoms: C_53  and  C_59
                            x       y       z     vdW  Elec       q    Type
                         _______ _______ _______ _____ _____    ______ ____

>  <TORSDO>
F 18

$$$$
=
 OpenBabel10222416053D

 61 69  0  0  1  0  0  0  0  0999 V2000
  189.5490  176.3890  137.8820 C   0  0  1  0  0  3  0  0  0  0  0  0
  187.3550  177.8820  137.9540 C   0  0  0  0  0  1  0  0  0  0  0  0
  188.6710  177.4330  138.5850 C   0  0  1  0  0  0  0  0  0  0  0  0
  188.9320  177.6230  140.0370 C   0  0  1  0  0  3  0  0  0  0  0  0
  189.4180  178.5240  139.0640 O   0  0  0  0  0  0  0  0  0  0  0  0
  187.7710  178.2610  140.7930 C   0  0  0  0  0  2  0  0  0  0  0  0
  190.9510  175.7400  145.0260 C   0  0  0  0  0  1  0  0  0  0  0  0
  191.0610  176.7210  143.9540 N   0  0  0  0  0  0  0  0  0  0  0  0
  188.3730  176.5360  143.7920 C   0  0  1  0  0  3  0  0  0  0  0  0
  190.3550  179.0340  142.2240 O   0  0  0  0  0  0  0  0  0  0  0  0
  187.4400  177.1590  142.9070 O   0  0  0  0  0  0  0  0  0  0  0  0
  188.0570  178.2890  142.2870 C   0  0  1  0  0  3  0  0  0  0  0  0
  190.5430  176.0580  142.7400 C   0  0  0  0  0  2  0  0  0  0  0  0
  189.7300  177.0670  143.4050 C   0  0  2  0  0  0  0  0  0  0  0  0
  189.5140  178.2140  142.5580 C   0  0  0  0  0  0  0  0  0  0  0  0
  186.3140  177.9400  146.7510 C   0  0  0  0  0  0  0  0  0  0  0  0
  185.0290  178.2560  147.0420 F   0  0  0  0  0  0  0  0  0  0  0  0
  188.0590  176.8630  145.2620 C   0  0  2  0  0  3  0  0  0  0  0  0
  186.6400  177.4310  145.3650 C   0  0  0  0  0  2  0  0  0  0  0  0
  187.2730  178.2520  147.6390 C   0  0  0  0  0  3  0  0  0  0  0  0
  189.0410  177.8370  145.9130 C   0  0  0  0  0  2  0  0  0  0  0  0
  188.7270  177.9370  147.4030 C   0  0  0  0  0  2  0  0  0  0  0  0
  191.6890  176.7710  138.8560 C   0  0  0  0  0  2  0  0  0  0  0  0
  190.5580  175.8290  138.7930 N   0  0  0  0  0  0  0  0  0  0  0  0
  191.8560  175.5190  138.1290 C   0  0  1  0  0  3  0  0  0  0  0  0
  191.9120  175.8030  136.6260 C   0  0  0  0  0  2  0  0  0  0  0  0
  192.5490  174.6320  135.9050 C   0  0  0  0  0  2  0  0  0  0  0  0
  193.6940  175.1390  135.0390 C   0  0  2  0  0  3  0  0  0  0  0  0
  195.1090  174.9340  135.6050 C   0  0  1  0  0  3  0  0  0  0  0  0
  194.3970  176.2710  135.7600 C   0  0  0  0  0  2  0  0  0  0  0  0
  195.5990  174.9140  137.9880 O   0  0  0  0  0  1  0  0  0  0  0  0
  195.2320  174.1040  136.9090 C   0  0  2  0  0  3  0  0  0  0  0  0
  196.1200  172.8570  136.8360 C   0  0  0  0  0  2  0  0  0  0  0  0
  196.9920  172.8840  135.5880 C   0  0  0  0  0  2  0  0  0  0  0  0
  197.6880  171.6850  135.4660 O   0  0  0  0  0  1  0  0  0  0  0  0
  188.4770  175.2500  135.9460 C   0  0  0  0  0  3  0  0  0  0  0  0
  188.7390  175.2870  137.2550 C   0  0  0  0  0  3  0  0  0  0  0  0
  187.6750  174.1400  135.3370 C   0  0  0  0  0  2  0  0  0  0  0  0
  185.1360  172.7550  137.7870 C   0  0  0  0  0  3  0  0  0  0  0  0
  183.8090  172.6520  137.1030 C   0  0  1  0  0  3  0  0  0  0  0  0
  183.9170  174.7820  135.8040 C   0  0  0  0  0  3  0  0  0  0  0  0
  185.3190  174.6730  135.3700 C   0  0  0  0  0  3  0  0  0  0  0  0
  183.2560  173.9590  136.6210 C   0  0  0  0  0  0  0  0  0  0  0  0
  186.3250  174.0170  135.9670 C   0  0  0  0  0  0  0  0  0  0  0  0
  186.2270  173.3180  137.2670 C   0  0  0  0  0  3  0  0  0  0  0  0
  183.7560  171.5730  136.0620 C   0  0  0  0  0  0  0  0  0  0  0  0
  183.1380  169.9680  134.5940 N   0  0  0  0  0  0  0  0  0  0  0  0
  182.5350  170.9200  135.5110 C   0  0  0  0  0  3  0  0  0  0  0  0
  184.4030  170.0710  134.6410 N   0  0  0  0  0  0  0  0  0  0  0  0
  184.8140  171.0530  135.5440 N   0  0  0  0  0  2  0  0  0  0  0  0
  181.8140  174.2430  136.9080 C   0  0  0  0  0  2  0  0  0  0  0  0
  181.5990  175.3350  137.9600 C   0  0  1  0  0  3  0  0  0  0  0  0
  181.2710  177.8780  138.1780 C   0  0  1  0  0  3  0  0  0  0  0  0
  181.4220  177.5520  139.6710 C   0  0  1  0  0  3  0  0  0  0  0  0
  182.8660  175.6280  138.7710 C   0  0  0  0  0  2  0  0  0  0  0  0
  182.4190  178.4840  137.6900 F   0  0  0  0  0  0  0  0  0  0  0  0
  182.5610  176.5590  139.9570 C   0  0  0  0  0  2  0  0  0  0  0  0
  180.9760  176.6100  137.3650 C   0  0  0  0  0  2  0  0  0  0  0  0
  181.5530  178.7880  140.5010 C   0  0  0  0  0  0  0  0  0  0  0  0
  180.9560  179.8510  140.1710 O   0  0  0  0  0  0  0  0  0  0  0  0
  182.3170  178.7560  141.6610 O   0  0  0  0  0  1  0  0  0  0  0  0
  1 37  1  1  0  0  0
  1  3  1  0  0  0  0
  1 24  1  0  0  0  0
  3  2  1  6  0  0  0
  3  5  1  0  0  0  0
  3  4  1  0  0  0  0
  4  6  1  1  0  0  0
  5  4  1  0  0  0  0
  8  7  1  0  0  0  0
  9 11  1  6  0  0  0
  9 18  1  0  0  0  0
 10 15  2  0  0  0  0
 12  6  1  6  0  0  0
 12 15  1  0  0  0  0
 12 11  1  0  0  0  0
 13  8  1  0  0  0  0
 14 13  1  6  0  0  0
 14  9  1  0  0  0  0
 14  8  1  0  0  0  0
 15 14  1  0  0  0  0
 16 17  1  0  0  0  0
 16 20  2  0  0  0  0
 18 19  1  6  0  0  0
 18 21  1  0  0  0  0
 19 16  1  0  0  0  0
 21 22  1  0  0  0  0
 22 20  1  0  0  0  0
 24 23  1  0  0  0  0
 25 26  1  6  0  0  0
 25 24  1  0  0  0  0
 25 23  1  0  0  0  0
 27 26  1  0  0  0  0
 28 29  1  0  0  0  0
 28 30  1  0  0  0  0
 28 27  1  1  0  0  0
 29 30  1  0  0  0  0
 29 32  1  1  0  0  0
 32 31  1  1  0  0  0
 33 32  1  0  0  0  0
 34 33  1  0  0  0  0
 35 34  1  0  0  0  0
 36 37  2  0  0  0  0
 38 36  1  0  0  0  0
 38 44  1  0  0  0  0
 40 46  1  6  0  0  0
 40 39  1  0  0  0  0
 41 43  2  0  0  0  0
 42 41  1  0  0  0  0
 42 44  2  0  0  0  0
 43 51  1  0  0  0  0
 43 40  1  0  0  0  0
 44 45  1  0  0  0  0
 45 39  2  0  0  0  0
 47 49  2  0  0  0  0
 47 48  1  0  0  0  0
 48 46  2  0  0  0  0
 49 50  1  0  0  0  0
 50 46  1  0  0  0  0
 52 51  1  6  0  0  0
 52 55  1  0  0  0  0
 53 56  1  6  0  0  0
 53 54  1  0  0  0  0
 54 57  1  0  0  0  0
 54 59  1  1  0  0  0
 55 57  1  0  0  0  0
 58 52  1  0  0  0  0
 58 53  1  0  0  0  0
 59 61  1  0  0  0  0
 60 59  2  0  0  0  0
M  END
>  <MODEL>
9

>  <REMARK>
 VINA RESULT:      -6.6      2.600      8.432
  Name = 
  18 active torsions:
  status: ('A' for Active; 'I' for Inactive)
    1  A    between atoms: C_1  and  C_6
    2  A    between atoms: C_1  and  C_45
    3  A    between atoms: C_7  and  C_23
    4  A    between atoms: C_8  and  C_19
    5  A    between atoms: C_8  and  C_42
    6  A    between atoms: C_10  and  C_20
    7  A    between atoms: C_11  and  C_12
    8  A    between atoms: C_14  and  C_15
    9  A    between atoms: C_23  and  C_43
   10  A    between atoms: C_24  and  C_51
   11  A    between atoms: C_25  and  C_32
   12  A    between atoms: N_30  and  C_32
   13  A    between atoms: C_32  and  C_33
   14  A    between atoms: C_41  and  C_59
   15  A    between atoms: C_42  and  C_46
   16  A    between atoms: C_51  and  C_52
   17  A    between atoms: C_52  and  C_54
   18  A    between atoms: C_53  and  C_59
                            x       y       z     vdW  Elec       q    Type
                         _______ _______ _______ _____ _____    ______ ____

>  <TORSDO>
F 18

$$$$
