=
 OpenBabel10222417443D

 52 61  0  0  1  0  0  0  0  0999 V2000
  185.7920  178.2600  146.5280 N   0  0  0  0  0  0  0  0  0  0  0  0
  188.9970  177.5490  144.2760 C   0  0  1  0  0  3  0  0  0  0  0  0
  187.0840  177.9090  146.8280 C   0  0  0  0  0  0  0  0  0  0  0  0
  189.9000  177.2080  146.8880 C   0  0  0  0  0  0  0  0  0  0  0  0
  186.3680  178.2410  144.1100 C   0  0  0  0  0  0  0  0  0  0  0  0
  189.1250  177.3490  148.0980 C   0  0  0  0  0  3  0  0  0  0  0  0
  189.2140  177.4300  145.6950 C   0  0  0  0  0  0  0  0  0  0  0  0
  184.0790  178.7700  144.8770 C   0  0  0  0  0  3  0  0  0  0  0  0
  187.8800  177.7520  145.7840 C   0  0  1  0  0  0  0  0  0  0  0  0
  185.4070  178.4260  145.1930 C   0  0  0  0  0  0  0  0  0  0  0  0
  187.6290  177.8940  144.4700 N   0  0  0  0  0  0  0  0  0  0  0  0
  186.0780  178.5850  139.2390 C   0  0  0  0  0  2  0  0  0  0  0  0
  187.7160  177.7000  148.0770 C   0  0  0  0  0  3  0  0  0  0  0  0
  185.9390  178.4200  142.7950 C   0  0  0  0  0  0  0  0  0  0  0  0
  188.3520  178.0380  139.9620 C   0  0  0  0  0  0  0  0  0  0  0  0
  184.4550  178.8590  141.1560 C   0  0  0  0  0  0  0  0  0  0  0  0
  185.6950  178.5960  140.5780 C   0  0  0  0  0  0  0  0  0  0  0  0
  187.4200  178.3000  138.9380 C   0  0  0  0  0  3  0  0  0  0  0  0
  183.6780  178.9320  143.5390 C   0  0  0  0  0  3  0  0  0  0  0  0
  191.3440  176.8630  146.9140 C   0  0  0  0  0  1  0  0  0  0  0  0
  186.6050  178.3290  141.5870 C   0  0  0  0  0  0  0  0  0  0  0  0
  184.6230  178.7530  142.5260 C   0  0  0  0  0  0  0  0  0  0  0  0
  187.9400  178.0470  141.3100 C   0  0  0  0  0  3  0  0  0  0  0  0
  183.2500  179.1740  140.5170 O   0  0  0  0  0  0  0  0  0  0  0  0
  182.3560  178.7070  138.3220 C   0  0  0  0  0  2  0  0  0  0  0  0
  180.3430  177.6740  138.9700 C   0  0  0  0  0  2  0  0  0  0  0  0
  181.0500  178.2670  137.8340 N   0  0  2  0  0  0  0  0  0  0  0  0
  182.5130  178.2320  139.7470 C   0  0  2  0  0  3  0  0  0  0  0  0
  181.0920  178.0170  140.2430 C   0  0  1  0  0  3  0  0  0  0  0  0
  179.0760  179.0720  140.9730 F   0  0  0  0  0  0  0  0  0  0  0  0
  180.9090  179.3380  142.2320 F   0  0  0  0  0  0  0  0  0  0  0  0
  180.7430  180.4050  140.2510 F   0  0  0  0  0  0  0  0  0  0  0  0
  180.4490  179.2350  140.9330 C   0  0  0  0  0  0  0  0  0  0  0  0
  182.0930  177.7410  135.7020 C   0  0  0  0  0  2  0  0  0  0  0  0
  180.6020  177.5540  135.5520 C   0  0  0  0  0  2  0  0  0  0  0  0
  181.2810  177.2040  136.8650 C   0  0  0  0  0  3  0  0  0  0  0  0
  189.7110  177.7650  139.6080 N   0  0  0  0  0  2  0  0  0  0  0  0
  190.2320  176.4290  139.3570 C   0  0  0  0  0  2  0  0  0  0  0  0
  190.4110  176.2120  137.8630 C   0  0  1  0  0  3  0  0  0  0  0  0
  191.8830  176.0210  137.5420 C   0  0  0  0  0  2  0  0  0  0  0  0
  192.1740  174.5610  137.2670 C   0  0  0  0  0  1  0  0  0  0  0  0
  189.6260  174.9830  137.4300 C   0  0  0  0  0  2  0  0  0  0  0  0
  188.4650  175.4030  136.1410 S   0  0  0  0  0  0  0  0  0  0  0  0
  188.4890  176.8900  135.9230 O   0  0  0  0  0  0  0  0  0  0  0  0
  188.8450  174.7040  134.8670 O   0  0  0  0  0  0  0  0  0  0  0  0
  186.6570  173.5530  137.0160 C   0  0  0  0  0  2  0  0  0  0  0  0
  186.8730  174.9130  136.6140 N   0  0  0  0  0  0  0  0  0  0  0  0
  184.4170  174.1710  137.7140 C   0  0  0  0  0  3  0  0  0  0  0  0
  185.3760  175.9820  135.0000 C   0  0  0  0  0  1  0  0  0  0  0  0
  184.5440  175.4160  137.2490 C   0  0  0  0  0  3  0  0  0  0  0  0
  185.4890  173.1830  137.5340 C   0  0  0  0  0  3  0  0  0  0  0  0
  185.7530  175.8520  136.4660 C   0  0  0  0  0  0  0  0  0  0  0  0
  1  3  2  0  0  0  0
  2 11  1  0  0  0  0
  2  7  1  1  0  0  0
  2  9  1  0  0  0  0
  3 13  1  0  0  0  0
  4 20  1  0  0  0  0
  4  6  1  0  0  0  0
  5 11  1  0  0  0  0
  5 10  1  0  0  0  0
  7  4  2  0  0  0  0
  8 10  2  0  0  0  0
  9  7  1  1  0  0  0
  9  3  1  0  0  0  0
 10  1  1  0  0  0  0
 11  9  1  0  0  0  0
 12 17  1  0  0  0  0
 13  6  2  0  0  0  0
 14  5  2  0  0  0  0
 15 23  1  0  0  0  0
 16 22  1  0  0  0  0
 17 16  2  0  0  0  0
 17 21  1  0  0  0  0
 18 12  1  0  0  0  0
 18 15  2  0  0  0  0
 19  8  1  0  0  0  0
 21 14  1  0  0  0  0
 22 14  1  0  0  0  0
 22 19  2  0  0  0  0
 23 21  2  0  0  0  0
 24 16  1  0  0  0  0
 25 28  1  0  0  0  0
 26 29  1  0  0  0  0
 27 36  1  6  0  0  0
 27 25  1  0  0  0  0
 27 26  1  0  0  0  0
 28 29  1  0  0  0  0
 28 24  1  1  0  0  0
 29 33  1  6  0  0  0
 32 33  1  0  0  0  0
 33 30  1  0  0  0  0
 33 31  1  0  0  0  0
 34 36  1  0  0  0  0
 35 34  1  0  0  0  0
 35 36  1  0  0  0  0
 37 15  1  0  0  0  0
 38 37  1  0  0  0  0
 39 42  1  1  0  0  0
 39 38  1  0  0  0  0
 40 39  1  0  0  0  0
 41 40  1  0  0  0  0
 43 47  1  0  0  0  0
 43 42  1  0  0  0  0
 44 43  2  0  0  0  0
 45 43  2  0  0  0  0
 46 51  1  0  0  0  0
 47 46  1  0  0  0  0
 49 52  1  0  0  0  0
 50 48  1  0  0  0  0
 51 48  2  0  0  0  0
 52 47  1  0  0  0  0
 52 50  2  0  0  0  0
M  END
>  <MODEL>
1

>  <REMARK>
 VINA RESULT:      -9.7      0.000      0.000
  Name = 
  11 active torsions:
  status: ('A' for Active; 'I' for Inactive)
    1  A    between atoms: C_2  and  C_49
    2  A    between atoms: N_8  and  S_23
    3  A    between atoms: O_13  and  C_32
    4  A    between atoms: O_13  and  C_37
    5  A    between atoms: C_20  and  C_49
    6  A    between atoms: C_20  and  N_51
    7  A    between atoms: S_23  and  C_50
    8  A    between atoms: N_27  and  C_30
    9  A    between atoms: C_34  and  C_46
   10  A    between atoms: C_36  and  N_51
   11  A    between atoms: C_49  and  C_50
                            x       y       z     vdW  Elec       q    Type
                         _______ _______ _______ _____ _____    ______ ____

>  <TORSDO>
F 11

$$$$
=
 OpenBabel10222417443D

 52 61  0  0  1  0  0  0  0  0999 V2000
  186.1400  178.0780  146.7980 N   0  0  0  0  0  0  0  0  0  0  0  0
  188.9030  177.5420  143.9800 C   0  0  1  0  0  3  0  0  0  0  0  0
  187.4700  177.7400  146.8460 C   0  0  0  0  0  0  0  0  0  0  0  0
  190.2600  177.0990  146.3700 C   0  0  0  0  0  0  0  0  0  0  0  0
  186.2770  178.1850  144.3180 C   0  0  0  0  0  0  0  0  0  0  0  0
  189.7120  177.1660  147.7040 C   0  0  0  0  0  3  0  0  0  0  0  0
  189.3700  177.3610  145.3300 C   0  0  0  0  0  0  0  0  0  0  0  0
  184.1550  178.6280  145.5040 C   0  0  0  0  0  3  0  0  0  0  0  0
  188.0690  177.6500  145.6710 C   0  0  1  0  0  0  0  0  0  0  0  0
  185.5220  178.2980  145.5630 C   0  0  0  0  0  0  0  0  0  0  0  0
  187.5860  177.8480  144.4310 N   0  0  0  0  0  0  0  0  0  0  0  0
  185.1190  178.7500  139.5990 C   0  0  0  0  0  2  0  0  0  0  0  0
  188.3170  177.4870  147.9510 C   0  0  0  0  0  3  0  0  0  0  0  0
  185.6180  178.4160  143.1110 C   0  0  0  0  0  0  0  0  0  0  0  0
  187.4930  178.2190  139.8790 C   0  0  0  0  0  0  0  0  0  0  0  0
  183.8610  178.9000  141.7850 C   0  0  0  0  0  0  0  0  0  0  0  0
  184.9810  178.6910  140.9840 C   0  0  0  0  0  0  0  0  0  0  0  0
  186.3900  178.5090  139.0510 C   0  0  0  0  0  3  0  0  0  0  0  0
  183.5200  178.8440  144.2680 C   0  0  0  0  0  3  0  0  0  0  0  0
  191.6910  176.7830  146.1230 C   0  0  0  0  0  1  0  0  0  0  0  0
  186.0590  178.3960  141.8010 C   0  0  0  0  0  0  0  0  0  0  0  0
  184.2710  178.7330  143.0960 C   0  0  0  0  0  0  0  0  0  0  0  0
  187.3270  178.1560  141.2770 C   0  0  0  0  0  3  0  0  0  0  0  0
  182.5570  179.2180  141.3860 O   0  0  0  0  0  0  0  0  0  0  0  0
  181.4100  178.9400  139.2780 C   0  0  0  0  0  2  0  0  0  0  0  0
  179.5020  177.8030  140.0580 C   0  0  0  0  0  2  0  0  0  0  0  0
  180.0600  178.5180  138.9090 N   0  0  2  0  0  0  0  0  0  0  0  0
  181.7440  178.3370  140.6220 C   0  0  2  0  0  3  0  0  0  0  0  0
  180.3960  178.0420  141.2600 C   0  0  1  0  0  3  0  0  0  0  0  0
  178.9310  178.6450  143.0490 F   0  0  0  0  0  0  0  0  0  0  0  0
  180.8470  179.7850  142.8390 F   0  0  0  0  0  0  0  0  0  0  0  0
  179.1740  180.1210  141.3630 F   0  0  0  0  0  0  0  0  0  0  0  0
  179.8270  179.1730  142.1360 C   0  0  0  0  0  0  0  0  0  0  0  0
  181.0780  178.1270  136.7360 C   0  0  0  0  0  2  0  0  0  0  0  0
  179.5780  178.1370  136.5560 C   0  0  0  0  0  2  0  0  0  0  0  0
  180.1850  177.5570  137.8210 C   0  0  0  0  0  3  0  0  0  0  0  0
  188.7700  177.9920  139.2760 N   0  0  0  0  0  2  0  0  0  0  0  0
  189.5710  176.7960  139.4960 C   0  0  0  0  0  2  0  0  0  0  0  0
  190.5490  176.6070  138.3480 C   0  0  1  0  0  3  0  0  0  0  0  0
  191.9740  176.6880  138.8660 C   0  0  0  0  0  2  0  0  0  0  0  0
  192.0040  177.3880  140.2090 C   0  0  0  0  0  1  0  0  0  0  0  0
  190.3140  175.2510  137.6980 C   0  0  0  0  0  2  0  0  0  0  0  0
  189.9330  175.4450  135.9660 S   0  0  0  0  0  0  0  0  0  0  0  0
  190.9790  176.3140  135.3260 O   0  0  0  0  0  0  0  0  0  0  0  0
  189.9200  174.1010  135.2950 O   0  0  0  0  0  0  0  0  0  0  0  0
  188.2930  177.6210  135.7890 C   0  0  0  0  0  2  0  0  0  0  0  0
  188.3790  176.1890  135.7930 N   0  0  0  0  0  0  0  0  0  0  0  0
  185.9550  177.4250  135.1680 C   0  0  0  0  0  3  0  0  0  0  0  0
  186.8810  174.8600  137.2000 C   0  0  0  0  0  1  0  0  0  0  0  0
  185.9710  176.0950  135.2710 C   0  0  0  0  0  3  0  0  0  0  0  0
  187.1430  178.2240  135.5010 C   0  0  0  0  0  3  0  0  0  0  0  0
  187.1720  175.3520  135.7920 C   0  0  0  0  0  0  0  0  0  0  0  0
  1  3  2  0  0  0  0
  2 11  1  0  0  0  0
  2  7  1  1  0  0  0
  2  9  1  0  0  0  0
  3 13  1  0  0  0  0
  4  6  1  0  0  0  0
  5 11  1  0  0  0  0
  5 10  1  0  0  0  0
  6 13  2  0  0  0  0
  7  4  2  0  0  0  0
  8 10  2  0  0  0  0
  9  7  1  1  0  0  0
  9  3  1  0  0  0  0
 10  1  1  0  0  0  0
 11  9  1  0  0  0  0
 12 17  1  0  0  0  0
 14  5  2  0  0  0  0
 15 23  1  0  0  0  0
 16 22  1  0  0  0  0
 17 16  2  0  0  0  0
 17 21  1  0  0  0  0
 18 12  1  0  0  0  0
 18 15  2  0  0  0  0
 19  8  1  0  0  0  0
 20  4  1  0  0  0  0
 21 14  1  0  0  0  0
 22 14  1  0  0  0  0
 22 19  2  0  0  0  0
 23 21  2  0  0  0  0
 24 16  1  0  0  0  0
 25 28  1  0  0  0  0
 26 29  1  0  0  0  0
 27 36  1  6  0  0  0
 27 25  1  0  0  0  0
 27 26  1  0  0  0  0
 28 29  1  0  0  0  0
 28 24  1  1  0  0  0
 29 33  1  6  0  0  0
 32 33  1  0  0  0  0
 33 31  1  0  0  0  0
 33 30  1  0  0  0  0
 34 36  1  0  0  0  0
 35 34  1  0  0  0  0
 35 36  1  0  0  0  0
 37 38  1  0  0  0  0
 37 15  1  0  0  0  0
 39 42  1  1  0  0  0
 39 40  1  0  0  0  0
 39 38  1  0  0  0  0
 40 41  1  0  0  0  0
 43 42  1  0  0  0  0
 44 43  2  0  0  0  0
 45 43  2  0  0  0  0
 46 47  1  0  0  0  0
 47 43  1  0  0  0  0
 48 50  1  0  0  0  0
 48 51  2  0  0  0  0
 50 52  2  0  0  0  0
 51 46  1  0  0  0  0
 52 47  1  0  0  0  0
 52 49  1  0  0  0  0
M  END
>  <MODEL>
2

>  <REMARK>
 VINA RESULT:      -9.2      1.253      1.778
  Name = 
  11 active torsions:
  status: ('A' for Active; 'I' for Inactive)
    1  A    between atoms: C_2  and  C_49
    2  A    between atoms: N_8  and  S_23
    3  A    between atoms: O_13  and  C_32
    4  A    between atoms: O_13  and  C_37
    5  A    between atoms: C_20  and  C_49
    6  A    between atoms: C_20  and  N_51
    7  A    between atoms: S_23  and  C_50
    8  A    between atoms: N_27  and  C_30
    9  A    between atoms: C_34  and  C_46
   10  A    between atoms: C_36  and  N_51
   11  A    between atoms: C_49  and  C_50
                            x       y       z     vdW  Elec       q    Type
                         _______ _______ _______ _____ _____    ______ ____

>  <TORSDO>
F 11

$$$$
=
 OpenBabel10222417443D

 52 61  0  0  1  0  0  0  0  0999 V2000
  185.6340  178.3190  146.6650 N   0  0  0  0  0  0  0  0  0  0  0  0
  188.7280  177.6910  144.2380 C   0  0  1  0  0  3  0  0  0  0  0  0
  186.9500  177.9990  146.8930 C   0  0  0  0  0  0  0  0  0  0  0  0
  189.7810  177.3710  146.7950 C   0  0  0  0  0  0  0  0  0  0  0  0
  186.0760  178.3170  144.2190 C   0  0  0  0  0  0  0  0  0  0  0  0
  189.0710  177.4910  148.0470 C   0  0  0  0  0  3  0  0  0  0  0  0
  189.0250  177.5760  145.6420 C   0  0  0  0  0  0  0  0  0  0  0  0
  183.8210  178.7860  145.1120 C   0  0  0  0  0  3  0  0  0  0  0  0
  187.6900  177.8650  145.8060 C   0  0  1  0  0  0  0  0  0  0  0  0
  185.1720  178.4760  145.3540 C   0  0  0  0  0  0  0  0  0  0  0  0
  187.3640  178.0010  144.5080 N   0  0  0  0  0  0  0  0  0  0  0  0
  185.5100  178.6590  139.3720 C   0  0  0  0  0  2  0  0  0  0  0  0
  187.6550  177.8060  148.1040 C   0  0  0  0  0  3  0  0  0  0  0  0
  185.5710  178.4860  142.9300 C   0  0  0  0  0  0  0  0  0  0  0  0
  187.8340  178.1690  139.9670 C   0  0  0  0  0  0  0  0  0  0  0  0
  183.9890  178.8900  141.3760 C   0  0  0  0  0  0  0  0  0  0  0  0
  185.2010  178.6590  140.7310 C   0  0  0  0  0  0  0  0  0  0  0  0
  186.8400  178.4080  138.9970 C   0  0  0  0  0  3  0  0  0  0  0  0
  183.3430  178.9400  143.7990 C   0  0  0  0  0  3  0  0  0  0  0  0
  191.2330  177.0620  146.7410 C   0  0  0  0  0  1  0  0  0  0  0  0
  186.1710  178.4130  141.6870 C   0  0  0  0  0  0  0  0  0  0  0  0
  184.2340  178.7860  142.7340 C   0  0  0  0  0  0  0  0  0  0  0  0
  187.4960  178.1660  141.3360 C   0  0  0  0  0  3  0  0  0  0  0  0
  182.7420  179.1740  140.8060 O   0  0  0  0  0  0  0  0  0  0  0  0
  181.3610  180.2200  139.1220 C   0  0  0  0  0  2  0  0  0  0  0  0
  181.3710  178.4890  137.5280 C   0  0  0  0  0  2  0  0  0  0  0  0
  180.7090  179.7380  137.9060 N   0  0  2  0  0  0  0  0  0  0  0  0
  182.5490  179.3320  139.4060 C   0  0  2  0  0  3  0  0  0  0  0  0
  182.2430  178.0310  138.6810 C   0  0  1  0  0  3  0  0  0  0  0  0
  180.6070  176.2890  138.7240 F   0  0  0  0  0  0  0  0  0  0  0  0
  182.4120  176.0600  140.0310 F   0  0  0  0  0  0  0  0  0  0  0  0
  180.8180  177.5610  140.5720 F   0  0  0  0  0  0  0  0  0  0  0  0
  181.5060  176.9720  139.5230 C   0  0  0  0  0  0  0  0  0  0  0  0
  180.1260  181.9430  137.0660 C   0  0  0  0  0  2  0  0  0  0  0  0
  179.7210  180.9240  136.0270 C   0  0  0  0  0  2  0  0  0  0  0  0
  180.9780  180.7070  136.8520 C   0  0  0  0  0  3  0  0  0  0  0  0
  189.1770  177.9310  139.5380 N   0  0  0  0  0  2  0  0  0  0  0  0
  189.6410  178.1320  138.1730 C   0  0  0  0  0  2  0  0  0  0  0  0
  190.2220  176.8380  137.6250 C   0  0  1  0  0  3  0  0  0  0  0  0
  191.4090  176.4080  138.4690 C   0  0  0  0  0  2  0  0  0  0  0  0
  192.6450  176.2700  137.6050 C   0  0  0  0  0  1  0  0  0  0  0  0
  189.1560  175.7530  137.6450 C   0  0  0  0  0  2  0  0  0  0  0  0
  188.6600  175.3310  135.9840 S   0  0  0  0  0  0  0  0  0  0  0  0
  188.2280  176.5800  135.2680 O   0  0  0  0  0  0  0  0  0  0  0  0
  189.8140  174.7070  135.2520 O   0  0  0  0  0  0  0  0  0  0  0  0
  187.1570  173.3020  134.9450 C   0  0  0  0  0  2  0  0  0  0  0  0
  187.3410  174.2110  136.0400 N   0  0  0  0  0  0  0  0  0  0  0  0
  185.4540  172.1640  136.2460 C   0  0  0  0  0  3  0  0  0  0  0  0
  185.4530  175.4990  136.9130 C   0  0  0  0  0  1  0  0  0  0  0  0
  185.5200  173.0570  137.2360 C   0  0  0  0  0  3  0  0  0  0  0  0
  186.2560  172.3270  135.0260 C   0  0  0  0  0  3  0  0  0  0  0  0
  186.3610  174.3010  137.1300 C   0  0  0  0  0  0  0  0  0  0  0  0
  1  3  2  0  0  0  0
  2 11  1  0  0  0  0
  2  7  1  1  0  0  0
  2  9  1  0  0  0  0
  3 13  1  0  0  0  0
  4  6  1  0  0  0  0
  5 11  1  0  0  0  0
  5 10  1  0  0  0  0
  6 13  2  0  0  0  0
  7  4  2  0  0  0  0
  8 10  2  0  0  0  0
  9  7  1  1  0  0  0
  9  3  1  0  0  0  0
 10  1  1  0  0  0  0
 11  9  1  0  0  0  0
 12 17  1  0  0  0  0
 14  5  2  0  0  0  0
 15 23  1  0  0  0  0
 16 22  1  0  0  0  0
 17 16  2  0  0  0  0
 17 21  1  0  0  0  0
 18 12  1  0  0  0  0
 18 15  2  0  0  0  0
 19  8  1  0  0  0  0
 20  4  1  0  0  0  0
 21 14  1  0  0  0  0
 22 14  1  0  0  0  0
 22 19  2  0  0  0  0
 23 21  2  0  0  0  0
 24 16  1  0  0  0  0
 25 28  1  0  0  0  0
 26 27  1  0  0  0  0
 26 29  1  0  0  0  0
 27 36  1  6  0  0  0
 27 25  1  0  0  0  0
 28 24  1  1  0  0  0
 29 28  1  0  0  0  0
 29 33  1  1  0  0  0
 30 33  1  0  0  0  0
 33 31  1  0  0  0  0
 33 32  1  0  0  0  0
 35 36  1  0  0  0  0
 35 34  1  0  0  0  0
 36 34  1  0  0  0  0
 37 15  1  0  0  0  0
 38 37  1  0  0  0  0
 39 42  1  1  0  0  0
 39 38  1  0  0  0  0
 39 40  1  0  0  0  0
 41 40  1  0  0  0  0
 43 47  1  0  0  0  0
 43 42  1  0  0  0  0
 44 43  2  0  0  0  0
 45 43  2  0  0  0  0
 46 51  1  0  0  0  0
 46 47  1  0  0  0  0
 47 52  1  0  0  0  0
 48 50  1  0  0  0  0
 49 52  1  0  0  0  0
 51 48  2  0  0  0  0
 52 50  2  0  0  0  0
M  END
>  <MODEL>
3

>  <REMARK>
 VINA RESULT:      -9.2      1.493      1.770
  Name = 
  11 active torsions:
  status: ('A' for Active; 'I' for Inactive)
    1  A    between atoms: C_2  and  C_49
    2  A    between atoms: N_8  and  S_23
    3  A    between atoms: O_13  and  C_32
    4  A    between atoms: O_13  and  C_37
    5  A    between atoms: C_20  and  C_49
    6  A    between atoms: C_20  and  N_51
    7  A    between atoms: S_23  and  C_50
    8  A    between atoms: N_27  and  C_30
    9  A    between atoms: C_34  and  C_46
   10  A    between atoms: C_36  and  N_51
   11  A    between atoms: C_49  and  C_50
                            x       y       z     vdW  Elec       q    Type
                         _______ _______ _______ _____ _____    ______ ____

>  <TORSDO>
F 11

$$$$
=
 OpenBabel10222417443D

 52 61  0  0  1  0  0  0  0  0999 V2000
  189.4710  177.1500  144.6160 N   0  0  0  0  0  0  0  0  0  0  0  0
  186.2170  178.3420  142.6540 C   0  0  1  0  0  3  0  0  0  0  0  0
  188.2200  177.5350  145.0290 C   0  0  0  0  0  0  0  0  0  0  0  0
  185.4610  178.3840  145.3330 C   0  0  0  0  0  0  0  0  0  0  0  0
  188.7850  177.5240  142.2560 C   0  0  0  0  0  0  0  0  0  0  0  0
  186.2800  178.0390  146.4700 C   0  0  0  0  0  3  0  0  0  0  0  0
  186.0750  178.2830  144.0850 C   0  0  0  0  0  0  0  0  0  0  0  0
  191.0680  176.7650  142.8220 C   0  0  0  0  0  3  0  0  0  0  0  0
  187.3880  177.8740  144.0600 C   0  0  1  0  0  0  0  0  0  0  0  0
  189.7820  177.1410  143.2520 C   0  0  0  0  0  0  0  0  0  0  0  0
  187.5680  177.8940  142.7270 N   0  0  0  0  0  0  0  0  0  0  0  0
  188.8260  177.8140  137.3730 C   0  0  0  0  0  2  0  0  0  0  0  0
  187.6610  177.6120  146.3270 C   0  0  0  0  0  3  0  0  0  0  0  0
  189.1400  177.4970  140.9070 C   0  0  0  0  0  0  0  0  0  0  0  0
  186.6280  178.3920  138.2840 C   0  0  0  0  0  0  0  0  0  0  0  0
  190.5140  177.1920  139.1460 C   0  0  0  0  0  0  0  0  0  0  0  0
  189.2690  177.6020  138.6770 C   0  0  0  0  0  0  0  0  0  0  0  0
  187.4930  178.2140  137.1850 C   0  0  0  0  0  3  0  0  0  0  0  0
  191.3950  176.7580  141.4540 C   0  0  0  0  0  3  0  0  0  0  0  0
  184.0450  178.8080  145.4830 C   0  0  0  0  0  1  0  0  0  0  0  0
  188.4260  177.7860  139.7600 C   0  0  0  0  0  0  0  0  0  0  0  0
  190.4180  177.1260  140.5260 C   0  0  0  0  0  0  0  0  0  0  0  0
  187.1010  178.1800  139.5940 C   0  0  0  0  0  3  0  0  0  0  0  0
  191.6660  176.8950  138.4070 O   0  0  0  0  0  0  0  0  0  0  0  0
  193.7680  175.7250  138.1940 C   0  0  0  0  0  2  0  0  0  0  0  0
  193.0050  173.8350  137.0170 C   0  0  0  0  0  2  0  0  0  0  0  0
  194.2080  174.5690  137.4160 N   0  0  2  0  0  0  0  0  0  0  0  0
  192.2780  175.6120  138.4090 C   0  0  2  0  0  3  0  0  0  0  0  0
  191.7930  174.7030  137.2920 C   0  0  1  0  0  3  0  0  0  0  0  0
  191.7810  176.7400  136.0430 F   0  0  0  0  0  0  0  0  0  0  0  0
  191.9110  174.8160  134.9030 F   0  0  0  0  0  0  0  0  0  0  0  0
  189.9670  175.4130  135.8810 F   0  0  0  0  0  0  0  0  0  0  0  0
  191.3480  175.4270  136.0070 C   0  0  0  0  0  0  0  0  0  0  0  0
  195.9570  174.5320  139.1040 C   0  0  0  0  0  2  0  0  0  0  0  0
  196.4340  173.7270  137.9180 C   0  0  0  0  0  2  0  0  0  0  0  0
  194.9660  173.7030  138.3090 C   0  0  0  0  0  3  0  0  0  0  0  0
  185.2750  178.7890  138.0430 N   0  0  0  0  0  2  0  0  0  0  0  0
  184.3780  179.2850  139.0760 C   0  0  0  0  0  2  0  0  0  0  0  0
  183.2700  178.2760  139.3320 C   0  0  1  0  0  3  0  0  0  0  0  0
  182.1640  178.9200  140.1500 C   0  0  0  0  0  2  0  0  0  0  0  0
  182.2930  178.5280  141.6070 C   0  0  0  0  0  1  0  0  0  0  0  0
  182.7100  177.7880  138.0040 C   0  0  0  0  0  2  0  0  0  0  0  0
  182.7270  176.0050  137.9350 S   0  0  0  0  0  0  0  0  0  0  0  0
  182.7440  175.4590  139.3350 O   0  0  0  0  0  0  0  0  0  0  0  0
  181.5000  175.5120  137.2210 O   0  0  0  0  0  0  0  0  0  0  0  0
  184.4990  176.1220  135.8610 C   0  0  0  0  0  2  0  0  0  0  0  0
  184.1390  175.4710  137.0880 N   0  0  0  0  0  0  0  0  0  0  0  0
  186.5860  174.8850  135.8790 C   0  0  0  0  0  3  0  0  0  0  0  0
  184.0740  173.0290  137.2240 C   0  0  0  0  0  1  0  0  0  0  0  0
  186.2360  174.1800  136.9570 C   0  0  0  0  0  3  0  0  0  0  0  0
  185.6580  175.8460  135.2690 C   0  0  0  0  0  3  0  0  0  0  0  0
  184.8620  174.2830  137.5620 C   0  0  0  0  0  0  0  0  0  0  0  0
  1  3  2  0  0  0  0
  2 11  1  0  0  0  0
  2  9  1  0  0  0  0
  2  7  1  6  0  0  0
  3 13  1  0  0  0  0
  4 20  1  0  0  0  0
  4  6  1  0  0  0  0
  5 11  1  0  0  0  0
  5 10  1  0  0  0  0
  7  4  2  0  0  0  0
  8 10  2  0  0  0  0
  9  7  1  6  0  0  0
  9  3  1  0  0  0  0
 10  1  1  0  0  0  0
 11  9  1  0  0  0  0
 12 17  1  0  0  0  0
 13  6  2  0  0  0  0
 14  5  2  0  0  0  0
 15 23  1  0  0  0  0
 16 22  1  0  0  0  0
 17 16  2  0  0  0  0
 17 21  1  0  0  0  0
 18 12  1  0  0  0  0
 18 15  2  0  0  0  0
 19  8  1  0  0  0  0
 21 14  1  0  0  0  0
 22 14  1  0  0  0  0
 22 19  2  0  0  0  0
 23 21  2  0  0  0  0
 24 16  1  0  0  0  0
 25 28  1  0  0  0  0
 26 29  1  0  0  0  0
 26 27  1  0  0  0  0
 27 25  1  0  0  0  0
 27 36  1  1  0  0  0
 28 24  1  6  0  0  0
 29 33  1  6  0  0  0
 29 28  1  0  0  0  0
 31 33  1  0  0  0  0
 32 33  1  0  0  0  0
 33 30  1  0  0  0  0
 35 36  1  0  0  0  0
 35 34  1  0  0  0  0
 36 34  1  0  0  0  0
 37 15  1  0  0  0  0
 37 38  1  0  0  0  0
 38 39  1  0  0  0  0
 39 42  1  6  0  0  0
 39 40  1  0  0  0  0
 40 41  1  0  0  0  0
 43 42  1  0  0  0  0
 43 44  2  0  0  0  0
 45 43  2  0  0  0  0
 46 47  1  0  0  0  0
 47 52  1  0  0  0  0
 47 43  1  0  0  0  0
 48 50  1  0  0  0  0
 49 52  1  0  0  0  0
 50 52  2  0  0  0  0
 51 46  1  0  0  0  0
 51 48  2  0  0  0  0
M  END
>  <MODEL>
4

>  <REMARK>
 VINA RESULT:      -9.0      3.771      7.931
  Name = 
  11 active torsions:
  status: ('A' for Active; 'I' for Inactive)
    1  A    between atoms: C_2  and  C_49
    2  A    between atoms: N_8  and  S_23
    3  A    between atoms: O_13  and  C_32
    4  A    between atoms: O_13  and  C_37
    5  A    between atoms: C_20  and  C_49
    6  A    between atoms: C_20  and  N_51
    7  A    between atoms: S_23  and  C_50
    8  A    between atoms: N_27  and  C_30
    9  A    between atoms: C_34  and  C_46
   10  A    between atoms: C_36  and  N_51
   11  A    between atoms: C_49  and  C_50
                            x       y       z     vdW  Elec       q    Type
                         _______ _______ _______ _____ _____    ______ ____

>  <TORSDO>
F 11

$$$$
=
 OpenBabel10222417443D

 52 61  0  0  1  0  0  0  0  0999 V2000
  191.6770  176.7800  144.1010 N   0  0  0  0  0  0  0  0  0  0  0  0
  187.9330  177.9090  144.8560 C   0  0  1  0  0  3  0  0  0  0  0  0
  190.9660  176.9380  145.2640 C   0  0  0  0  0  0  0  0  0  0  0  0
  189.0190  177.3940  147.3680 C   0  0  0  0  0  0  0  0  0  0  0  0
  189.6730  177.4780  142.8050 C   0  0  0  0  0  0  0  0  0  0  0  0
  190.3630  176.9530  147.6580 C   0  0  0  0  0  3  0  0  0  0  0  0
  188.7160  177.5850  146.0210 C   0  0  0  0  0  0  0  0  0  0  0  0
  191.7940  176.9040  141.6740 C   0  0  0  0  0  3  0  0  0  0  0  0
  189.7170  177.3420  145.1090 C   0  0  1  0  0  0  0  0  0  0  0  0
  191.0660  177.0460  142.8700 C   0  0  0  0  0  0  0  0  0  0  0  0
  189.0250  177.6160  143.9880 N   0  0  0  0  0  0  0  0  0  0  0  0
  186.6580  178.6200  139.1260 C   0  0  0  0  0  2  0  0  0  0  0  0
  191.3430  176.7220  146.6110 C   0  0  0  0  0  3  0  0  0  0  0  0
  189.1070  177.7290  141.5550 C   0  0  0  0  0  0  0  0  0  0  0  0
  185.5230  178.7700  141.2900 C   0  0  0  0  0  0  0  0  0  0  0  0
  189.0730  177.8990  139.3080 C   0  0  0  0  0  0  0  0  0  0  0  0
  187.8150  178.2370  139.8010 C   0  0  0  0  0  0  0  0  0  0  0  0
  185.5080  178.8890  139.8860 C   0  0  0  0  0  3  0  0  0  0  0  0
  191.1940  177.1740  140.4310 C   0  0  0  0  0  3  0  0  0  0  0  0
  188.0160  177.6160  148.4400 C   0  0  0  0  0  1  0  0  0  0  0  0
  187.8380  178.1290  141.1810 C   0  0  0  0  0  0  0  0  0  0  0  0
  189.8580  177.5820  140.4020 C   0  0  0  0  0  0  0  0  0  0  0  0
  186.7080  178.3880  141.9520 C   0  0  0  0  0  3  0  0  0  0  0  0
  189.5040  177.8730  137.9760 O   0  0  0  0  0  0  0  0  0  0  0  0
  187.8850  176.1230  137.5840 C   0  0  0  0  0  2  0  0  0  0  0  0
  188.9670  175.0290  135.8040 C   0  0  0  0  0  2  0  0  0  0  0  0
  187.8930  174.8970  136.7900 N   0  0  2  0  0  0  0  0  0  0  0  0
  188.8690  177.0910  136.9720 C   0  0  2  0  0  3  0  0  0  0  0  0
  189.8300  176.2170  136.1810 C   0  0  1  0  0  3  0  0  0  0  0  0
  191.8460  174.9350  136.1440 F   0  0  0  0  0  0  0  0  0  0  0  0
  191.8430  176.8440  137.3170 F   0  0  0  0  0  0  0  0  0  0  0  0
  190.7220  175.0460  138.0940 F   0  0  0  0  0  0  0  0  0  0  0  0
  191.0780  175.7510  136.9550 C   0  0  0  0  0  0  0  0  0  0  0  0
  185.5160  175.3910  136.9190 C   0  0  0  0  0  2  0  0  0  0  0  0
  185.6760  173.8970  136.7560 C   0  0  0  0  0  2  0  0  0  0  0  0
  186.6360  174.8430  136.0550 C   0  0  0  0  0  3  0  0  0  0  0  0
  184.3240  179.0420  142.0210 N   0  0  0  0  0  2  0  0  0  0  0  0
  183.4000  178.0140  142.4770 C   0  0  0  0  0  2  0  0  0  0  0  0
  182.3900  178.6130  143.4430 C   0  0  1  0  0  3  0  0  0  0  0  0
  183.1090  179.4500  144.4860 C   0  0  0  0  0  2  0  0  0  0  0  0
  184.0800  178.5910  145.2690 C   0  0  0  0  0  1  0  0  0  0  0  0
  181.4060  179.4820  142.6740 C   0  0  0  0  0  2  0  0  0  0  0  0
  180.1580  178.4750  141.8930 S   0  0  0  0  0  0  0  0  0  0  0  0
  179.7010  177.4200  142.8610 O   0  0  0  0  0  0  0  0  0  0  0  0
  178.9880  179.3310  141.4970 O   0  0  0  0  0  0  0  0  0  0  0  0
  181.5280  178.5270  139.5320 C   0  0  0  0  0  2  0  0  0  0  0  0
  180.8210  177.7190  140.4840 N   0  0  0  0  0  0  0  0  0  0  0  0
  182.2030  176.4960  138.3890 C   0  0  0  0  0  3  0  0  0  0  0  0
  179.1020  176.1450  139.7400 C   0  0  0  0  0  1  0  0  0  0  0  0
  181.4660  175.7220  139.1880 C   0  0  0  0  0  3  0  0  0  0  0  0
  182.1840  177.9590  138.5240 C   0  0  0  0  0  3  0  0  0  0  0  0
  180.5350  176.3030  140.2190 C   0  0  0  0  0  0  0  0  0  0  0  0
  1  3  2  0  0  0  0
  2  9  1  0  0  0  0
  2  7  1  6  0  0  0
  3 13  1  0  0  0  0
  4  6  1  0  0  0  0
  4 20  1  0  0  0  0
  5 10  1  0  0  0  0
  5 11  1  0  0  0  0
  7  4  2  0  0  0  0
  8 10  2  0  0  0  0
  9  3  1  1  0  0  0
  9  7  1  0  0  0  0
 10  1  1  0  0  0  0
 11  2  1  0  0  0  0
 11  9  1  0  0  0  0
 12 17  1  0  0  0  0
 12 18  1  0  0  0  0
 13  6  2  0  0  0  0
 14  5  2  0  0  0  0
 15 23  1  0  0  0  0
 15 37  1  0  0  0  0
 16 17  2  0  0  0  0
 16 22  1  0  0  0  0
 17 21  1  0  0  0  0
 18 15  2  0  0  0  0
 19  8  1  0  0  0  0
 21 14  1  0  0  0  0
 21 23  2  0  0  0  0
 22 19  2  0  0  0  0
 22 14  1  0  0  0  0
 24 16  1  0  0  0  0
 26 29  1  0  0  0  0
 26 27  1  0  0  0  0
 27 36  1  6  0  0  0
 27 25  1  0  0  0  0
 28 25  1  0  0  0  0
 28 24  1  1  0  0  0
 29 33  1  1  0  0  0
 29 28  1  0  0  0  0
 30 33  1  0  0  0  0
 33 31  1  0  0  0  0
 33 32  1  0  0  0  0
 35 34  1  0  0  0  0
 36 35  1  0  0  0  0
 36 34  1  0  0  0  0
 37 38  1  0  0  0  0
 39 38  1  6  0  0  0
 39 40  1  0  0  0  0
 40 41  1  0  0  0  0
 42 39  1  0  0  0  0
 43 42  1  0  0  0  0
 43 44  2  0  0  0  0
 45 43  2  0  0  0  0
 46 47  1  0  0  0  0
 47 43  1  0  0  0  0
 48 51  2  0  0  0  0
 48 50  1  0  0  0  0
 49 52  1  0  0  0  0
 50 52  2  0  0  0  0
 51 46  1  0  0  0  0
 52 47  1  0  0  0  0
M  END
>  <MODEL>
5

>  <REMARK>
 VINA RESULT:      -8.9      3.750      7.298
  Name = 
  11 active torsions:
  status: ('A' for Active; 'I' for Inactive)
    1  A    between atoms: C_2  and  C_49
    2  A    between atoms: N_8  and  S_23
    3  A    between atoms: O_13  and  C_32
    4  A    between atoms: O_13  and  C_37
    5  A    between atoms: C_20  and  C_49
    6  A    between atoms: C_20  and  N_51
    7  A    between atoms: S_23  and  C_50
    8  A    between atoms: N_27  and  C_30
    9  A    between atoms: C_34  and  C_46
   10  A    between atoms: C_36  and  N_51
   11  A    between atoms: C_49  and  C_50
                            x       y       z     vdW  Elec       q    Type
                         _______ _______ _______ _____ _____    ______ ____

>  <TORSDO>
F 11

$$$$
=
 OpenBabel10222417443D

 52 61  0  0  1  0  0  0  0  0999 V2000
  185.8870  178.1430  146.6280 N   0  0  0  0  0  0  0  0  0  0  0  0
  188.8370  177.6460  144.0000 C   0  0  1  0  0  3  0  0  0  0  0  0
  187.2170  177.8360  146.7650 C   0  0  0  0  0  0  0  0  0  0  0  0
  190.0460  177.2550  146.4770 C   0  0  0  0  0  0  0  0  0  0  0  0
  186.1810  178.2320  144.1610 C   0  0  0  0  0  0  0  0  0  0  0  0
  189.4110  177.3200  147.7720 C   0  0  0  0  0  3  0  0  0  0  0  0
  189.2200  177.4880  145.3790 C   0  0  0  0  0  0  0  0  0  0  0  0
  183.9780  178.6360  145.2030 C   0  0  0  0  0  3  0  0  0  0  0  0
  187.8930  177.7500  145.6320 C   0  0  1  0  0  0  0  0  0  0  0  0
  185.3440  178.3390  145.3530 C   0  0  0  0  0  0  0  0  0  0  0  0
  187.4870  177.9260  144.3620 N   0  0  0  0  0  0  0  0  0  0  0  0
  185.3190  178.7300  139.3710 C   0  0  0  0  0  2  0  0  0  0  0  0
  187.9970  177.6120  147.9250 C   0  0  0  0  0  3  0  0  0  0  0  0
  185.5970  178.4370  142.9110 C   0  0  0  0  0  0  0  0  0  0  0  0
  187.6810  178.2560  139.8090 C   0  0  0  0  0  0  0  0  0  0  0  0
  183.9190  178.8700  141.4700 C   0  0  0  0  0  0  0  0  0  0  0  0
  185.0930  178.6790  140.7450 C   0  0  0  0  0  0  0  0  0  0  0  0
  186.6280  178.5130  138.9090 C   0  0  0  0  0  3  0  0  0  0  0  0
  183.4190  178.8280  143.9260 C   0  0  0  0  0  3  0  0  0  0  0  0
  191.4960  176.9700  146.3260 C   0  0  0  0  0  1  0  0  0  0  0  0
  186.1220  178.4160  141.6330 C   0  0  0  0  0  0  0  0  0  0  0  0
  184.2470  178.7230  142.8060 C   0  0  0  0  0  0  0  0  0  0  0  0
  187.4260  178.2010  141.1950 C   0  0  0  0  0  3  0  0  0  0  0  0
  182.6370  179.1550  140.9850 O   0  0  0  0  0  0  0  0  0  0  0  0
  181.6970  177.5810  139.4110 C   0  0  0  0  0  2  0  0  0  0  0  0
  179.4320  177.7780  140.0200 C   0  0  0  0  0  2  0  0  0  0  0  0
  180.3340  177.2660  138.9870 N   0  0  2  0  0  0  0  0  0  0  0  0
  181.6370  178.1590  140.8050 C   0  0  2  0  0  3  0  0  0  0  0  0
  180.2190  178.6850  140.9460 C   0  0  1  0  0  3  0  0  0  0  0  0
  179.8160  180.9240  141.6800 F   0  0  0  0  0  0  0  0  0  0  0  0
  181.1620  180.6290  139.9140 F   0  0  0  0  0  0  0  0  0  0  0  0
  178.9390  180.3070  139.6980 F   0  0  0  0  0  0  0  0  0  0  0  0
  180.0260  180.1600  140.5460 C   0  0  0  0  0  0  0  0  0  0  0  0
  181.4290  175.1950  138.3380 C   0  0  0  0  0  2  0  0  0  0  0  0
  180.1480  175.3150  137.5470 C   0  0  0  0  0  2  0  0  0  0  0  0
  180.2030  175.8150  138.9800 C   0  0  0  0  0  3  0  0  0  0  0  0
  188.9990  178.0530  139.2930 N   0  0  0  0  0  2  0  0  0  0  0  0
  189.6580  176.7560  139.2350 C   0  0  0  0  0  2  0  0  0  0  0  0
  190.0720  176.4450  137.8060 C   0  0  1  0  0  3  0  0  0  0  0  0
  189.5180  177.5030  136.8680 C   0  0  0  0  0  2  0  0  0  0  0  0
  188.7310  176.8530  135.7490 C   0  0  0  0  0  1  0  0  0  0  0  0
  191.5900  176.4160  137.7100 C   0  0  0  0  0  2  0  0  0  0  0  0
  192.1380  174.9210  136.9040 S   0  0  0  0  0  0  0  0  0  0  0  0
  191.4940  173.7390  137.5700 O   0  0  0  0  0  0  0  0  0  0  0  0
  191.7470  174.9540  135.4530 O   0  0  0  0  0  0  0  0  0  0  0  0
  194.4390  174.5170  138.3170 C   0  0  0  0  0  2  0  0  0  0  0  0
  193.8600  174.7910  137.0330 N   0  0  0  0  0  0  0  0  0  0  0  0
  196.5870  174.2260  137.2250 C   0  0  0  0  0  3  0  0  0  0  0  0
  194.7380  176.5960  135.6340 C   0  0  0  0  0  1  0  0  0  0  0  0
  196.1040  174.5840  136.0330 C   0  0  0  0  0  3  0  0  0  0  0  0
  195.7390  174.2550  138.4250 C   0  0  0  0  0  3  0  0  0  0  0  0
  194.6980  175.0950  135.8660 C   0  0  0  0  0  0  0  0  0  0  0  0
  1  3  2  0  0  0  0
  2 11  1  0  0  0  0
  2  7  1  1  0  0  0
  2  9  1  0  0  0  0
  3 13  1  0  0  0  0
  4  6  1  0  0  0  0
  5 11  1  0  0  0  0
  5 10  1  0  0  0  0
  6 13  2  0  0  0  0
  7  4  2  0  0  0  0
  8 10  2  0  0  0  0
  9  7  1  1  0  0  0
  9  3  1  0  0  0  0
 10  1  1  0  0  0  0
 11  9  1  0  0  0  0
 12 17  1  0  0  0  0
 14  5  2  0  0  0  0
 15 23  1  0  0  0  0
 16 22  1  0  0  0  0
 17 16  2  0  0  0  0
 17 21  1  0  0  0  0
 18 12  1  0  0  0  0
 18 15  2  0  0  0  0
 19  8  1  0  0  0  0
 20  4  1  0  0  0  0
 21 14  1  0  0  0  0
 22 14  1  0  0  0  0
 22 19  2  0  0  0  0
 23 21  2  0  0  0  0
 24 16  1  0  0  0  0
 25 28  1  0  0  0  0
 26 29  1  0  0  0  0
 27 36  1  1  0  0  0
 27 25  1  0  0  0  0
 27 26  1  0  0  0  0
 28 29  1  0  0  0  0
 28 24  1  6  0  0  0
 29 33  1  6  0  0  0
 31 33  1  0  0  0  0
 32 33  1  0  0  0  0
 33 30  1  0  0  0  0
 34 36  1  0  0  0  0
 35 34  1  0  0  0  0
 35 36  1  0  0  0  0
 37 15  1  0  0  0  0
 38 37  1  0  0  0  0
 39 40  1  6  0  0  0
 39 38  1  0  0  0  0
 41 40  1  0  0  0  0
 42 39  1  0  0  0  0
 43 47  1  0  0  0  0
 43 44  2  0  0  0  0
 43 42  1  0  0  0  0
 45 43  2  0  0  0  0
 46 51  1  0  0  0  0
 47 46  1  0  0  0  0
 48 51  2  0  0  0  0
 49 52  1  0  0  0  0
 50 48  1  0  0  0  0
 52 50  2  0  0  0  0
 52 47  1  0  0  0  0
M  END
>  <MODEL>
6

>  <REMARK>
 VINA RESULT:      -8.8      1.962      3.963
  Name = 
  11 active torsions:
  status: ('A' for Active; 'I' for Inactive)
    1  A    between atoms: C_2  and  C_49
    2  A    between atoms: N_8  and  S_23
    3  A    between atoms: O_13  and  C_32
    4  A    between atoms: O_13  and  C_37
    5  A    between atoms: C_20  and  C_49
    6  A    between atoms: C_20  and  N_51
    7  A    between atoms: S_23  and  C_50
    8  A    between atoms: N_27  and  C_30
    9  A    between atoms: C_34  and  C_46
   10  A    between atoms: C_36  and  N_51
   11  A    between atoms: C_49  and  C_50
                            x       y       z     vdW  Elec       q    Type
                         _______ _______ _______ _____ _____    ______ ____

>  <TORSDO>
F 11

$$$$
=
 OpenBabel10222417443D

 52 61  0  0  1  0  0  0  0  0999 V2000
  190.0960  177.0180  144.3490 N   0  0  0  0  0  0  0  0  0  0  0  0
  186.3780  178.1630  143.4950 C   0  0  1  0  0  3  0  0  0  0  0  0
  188.9970  177.2820  145.1290 C   0  0  0  0  0  0  0  0  0  0  0  0
  186.4060  177.9210  146.2680 C   0  0  0  0  0  0  0  0  0  0  0  0
  188.7600  177.5520  142.3210 C   0  0  0  0  0  0  0  0  0  0  0  0
  187.5240  177.5320  147.0940 C   0  0  0  0  0  3  0  0  0  0  0  0
  186.6470  177.9700  144.8960 C   0  0  0  0  0  0  0  0  0  0  0  0
  191.1360  176.8960  142.1530 C   0  0  0  0  0  3  0  0  0  0  0  0
  187.9140  177.6510  144.4670 C   0  0  1  0  0  0  0  0  0  0  0  0
  190.0100  177.1480  142.9580 C   0  0  0  0  0  0  0  0  0  0  0  0
  187.7110  177.7990  143.1450 N   0  0  0  0  0  0  0  0  0  0  0  0
  187.4130  178.2700  137.6730 C   0  0  0  0  0  2  0  0  0  0  0  0
  188.8240  177.2100  146.5310 C   0  0  0  0  0  3  0  0  0  0  0  0
  188.7220  177.6660  140.9310 C   0  0  0  0  0  0  0  0  0  0  0  0
  185.5400  178.6220  139.2100 C   0  0  0  0  0  0  0  0  0  0  0  0
  189.5550  177.6060  138.8380 C   0  0  0  0  0  0  0  0  0  0  0  0
  188.2130  177.9740  138.7750 C   0  0  0  0  0  0  0  0  0  0  0  0
  186.0670  178.5980  137.9030 C   0  0  0  0  0  3  0  0  0  0  0  0
  191.0650  177.0300  140.7550 C   0  0  0  0  0  3  0  0  0  0  0  0
  185.0740  178.2370  146.8460 C   0  0  0  0  0  1  0  0  0  0  0  0
  187.7030  178.0070  140.0620 C   0  0  0  0  0  0  0  0  0  0  0  0
  189.8530  177.4140  140.1760 C   0  0  0  0  0  0  0  0  0  0  0  0
  186.3710  178.3270  140.3100 C   0  0  0  0  0  3  0  0  0  0  0  0
  190.4620  177.4510  137.7830 O   0  0  0  0  0  0  0  0  0  0  0  0
  189.5070  175.3010  137.2340 C   0  0  0  0  0  2  0  0  0  0  0  0
  191.1830  174.5310  135.7710 C   0  0  0  0  0  2  0  0  0  0  0  0
  190.0150  174.1140  136.5490 N   0  0  2  0  0  0  0  0  0  0  0  0
  190.2830  176.4990  136.7410 C   0  0  2  0  0  3  0  0  0  0  0  0
  191.5860  175.9250  136.2090 C   0  0  1  0  0  3  0  0  0  0  0  0
  193.8130  175.1920  136.6720 F   0  0  0  0  0  0  0  0  0  0  0  0
  193.1440  177.1310  137.5720 F   0  0  0  0  0  0  0  0  0  0  0  0
  192.3410  175.1830  138.3780 F   0  0  0  0  0  0  0  0  0  0  0  0
  192.7360  175.8550  137.2320 C   0  0  0  0  0  0  0  0  0  0  0  0
  187.7800  173.1780  136.3550 C   0  0  0  0  0  2  0  0  0  0  0  0
  188.7540  172.1930  135.7530 C   0  0  0  0  0  2  0  0  0  0  0  0
  188.9940  173.6850  135.6020 C   0  0  0  0  0  3  0  0  0  0  0  0
  184.1600  178.9500  139.3950 N   0  0  0  0  0  2  0  0  0  0  0  0
  183.5110  179.0300  140.6950 C   0  0  0  0  0  2  0  0  0  0  0  0
  182.2280  178.2150  140.6880 C   0  0  1  0  0  3  0  0  0  0  0  0
  181.2200  178.8320  141.6410 C   0  0  0  0  0  2  0  0  0  0  0  0
  181.8390  179.0180  143.0110 C   0  0  0  0  0  1  0  0  0  0  0  0
  181.6530  178.1850  139.2800 C   0  0  0  0  0  2  0  0  0  0  0  0
  181.5490  176.5070  138.6820 S   0  0  0  0  0  0  0  0  0  0  0  0
  181.8130  175.5620  139.8200 O   0  0  0  0  0  0  0  0  0  0  0  0
  180.1770  176.2490  138.1260 O   0  0  0  0  0  0  0  0  0  0  0  0
  182.7650  177.1680  136.3290 C   0  0  0  0  0  2  0  0  0  0  0  0
  182.7290  176.2600  137.4390 N   0  0  0  0  0  0  0  0  0  0  0  0
  184.8260  176.1120  135.6030 C   0  0  0  0  0  3  0  0  0  0  0  0
  182.7600  173.8420  137.0660 C   0  0  0  0  0  1  0  0  0  0  0  0
  184.7640  175.1830  136.5580 C   0  0  0  0  0  3  0  0  0  0  0  0
  183.7540  177.1040  135.4410 C   0  0  0  0  0  3  0  0  0  0  0  0
  183.5740  175.0590  137.4710 C   0  0  0  0  0  0  0  0  0  0  0  0
  1  3  2  0  0  0  0
  2  9  1  0  0  0  0
  2  7  1  6  0  0  0
  3 13  1  0  0  0  0
  4 20  1  0  0  0  0
  4  6  1  0  0  0  0
  5 10  1  0  0  0  0
  5 11  1  0  0  0  0
  7  4  2  0  0  0  0
  8 10  2  0  0  0  0
  9  7  1  6  0  0  0
  9  3  1  0  0  0  0
 10  1  1  0  0  0  0
 11  2  1  0  0  0  0
 11  9  1  0  0  0  0
 12 18  1  0  0  0  0
 12 17  1  0  0  0  0
 13  6  2  0  0  0  0
 14  5  2  0  0  0  0
 15 37  1  0  0  0  0
 15 23  1  0  0  0  0
 16 22  1  0  0  0  0
 17 16  2  0  0  0  0
 17 21  1  0  0  0  0
 18 15  2  0  0  0  0
 19  8  1  0  0  0  0
 21 23  2  0  0  0  0
 21 14  1  0  0  0  0
 22 19  2  0  0  0  0
 22 14  1  0  0  0  0
 24 16  1  0  0  0  0
 26 29  1  0  0  0  0
 26 27  1  0  0  0  0
 27 36  1  6  0  0  0
 27 25  1  0  0  0  0
 28 25  1  0  0  0  0
 28 24  1  1  0  0  0
 29 28  1  0  0  0  0
 29 33  1  1  0  0  0
 30 33  1  0  0  0  0
 33 31  1  0  0  0  0
 33 32  1  0  0  0  0
 35 34  1  0  0  0  0
 36 35  1  0  0  0  0
 36 34  1  0  0  0  0
 37 38  1  0  0  0  0
 39 42  1  6  0  0  0
 39 38  1  0  0  0  0
 39 40  1  0  0  0  0
 40 41  1  0  0  0  0
 43 42  1  0  0  0  0
 43 44  2  0  0  0  0
 45 43  2  0  0  0  0
 46 47  1  0  0  0  0
 47 52  1  0  0  0  0
 47 43  1  0  0  0  0
 48 50  1  0  0  0  0
 49 52  1  0  0  0  0
 50 52  2  0  0  0  0
 51 48  2  0  0  0  0
 51 46  1  0  0  0  0
M  END
>  <MODEL>
7

>  <REMARK>
 VINA RESULT:      -8.8      3.828      7.330
  Name = 
  11 active torsions:
  status: ('A' for Active; 'I' for Inactive)
    1  A    between atoms: C_2  and  C_49
    2  A    between atoms: N_8  and  S_23
    3  A    between atoms: O_13  and  C_32
    4  A    between atoms: O_13  and  C_37
    5  A    between atoms: C_20  and  C_49
    6  A    between atoms: C_20  and  N_51
    7  A    between atoms: S_23  and  C_50
    8  A    between atoms: N_27  and  C_30
    9  A    between atoms: C_34  and  C_46
   10  A    between atoms: C_36  and  N_51
   11  A    between atoms: C_49  and  C_50
                            x       y       z     vdW  Elec       q    Type
                         _______ _______ _______ _____ _____    ______ ____

>  <TORSDO>
F 11

$$$$
=
 OpenBabel10222417443D

 52 61  0  0  1  0  0  0  0  0999 V2000
  190.1610  177.1290  144.7090 N   0  0  0  0  0  0  0  0  0  0  0  0
  186.7030  178.1520  143.0200 C   0  0  1  0  0  3  0  0  0  0  0  0
  188.9320  177.4560  145.2240 C   0  0  0  0  0  0  0  0  0  0  0  0
  186.1700  178.1760  145.7530 C   0  0  0  0  0  0  0  0  0  0  0  0
  189.2660  177.4550  142.4130 C   0  0  0  0  0  0  0  0  0  0  0  0
  187.0960  177.8770  146.8190 C   0  0  0  0  0  3  0  0  0  0  0  0
  186.6830  178.0960  144.4590 C   0  0  0  0  0  0  0  0  0  0  0  0
  191.6210  176.8080  142.7900 C   0  0  0  0  0  3  0  0  0  0  0  0
  188.0070  177.7500  144.3260 C   0  0  1  0  0  0  0  0  0  0  0  0
  190.3590  177.1250  143.3240 C   0  0  0  0  0  0  0  0  0  0  0  0
  188.0750  177.7690  142.9820 N   0  0  0  0  0  0  0  0  0  0  0  0
  188.8890  177.7150  137.5430 C   0  0  0  0  0  2  0  0  0  0  0  0
  188.4790  177.5150  146.5630 C   0  0  0  0  0  3  0  0  0  0  0  0
  189.5090  177.4360  141.0400 C   0  0  0  0  0  0  0  0  0  0  0  0
  186.7490  178.1950  138.6310 C   0  0  0  0  0  0  0  0  0  0  0  0
  190.7460  177.1860  139.1720 C   0  0  0  0  0  0  0  0  0  0  0  0
  189.4480  177.5330  138.8060 C   0  0  0  0  0  0  0  0  0  0  0  0
  187.5270  178.0510  137.4650 C   0  0  0  0  0  3  0  0  0  0  0  0
  191.8340  176.8080  141.3990 C   0  0  0  0  0  3  0  0  0  0  0  0
  184.7530  178.5320  146.0190 C   0  0  0  0  0  1  0  0  0  0  0  0
  188.6900  177.6840  139.9550 C   0  0  0  0  0  0  0  0  0  0  0  0
  190.7670  177.1240  140.5540 C   0  0  0  0  0  0  0  0  0  0  0  0
  187.3380  178.0130  139.8990 C   0  0  0  0  0  3  0  0  0  0  0  0
  191.8450  176.9390  138.3410 O   0  0  0  0  0  0  0  0  0  0  0  0
  194.0550  175.9950  138.5910 C   0  0  0  0  0  2  0  0  0  0  0  0
  193.8600  174.2220  137.0550 C   0  0  0  0  0  2  0  0  0  0  0  0
  194.8190  174.9970  137.8450 N   0  0  2  0  0  0  0  0  0  0  0  0
  192.5850  175.7250  138.3740 C   0  0  2  0  0  3  0  0  0  0  0  0
  192.5220  174.9360  137.0760 C   0  0  1  0  0  3  0  0  0  0  0  0
  192.4270  174.9700  134.6880 F   0  0  0  0  0  0  0  0  0  0  0  0
  191.1040  176.3900  135.8070 F   0  0  0  0  0  0  0  0  0  0  0  0
  193.3270  176.7620  135.7180 F   0  0  0  0  0  0  0  0  0  0  0  0
  192.3470  175.7860  135.8030 C   0  0  0  0  0  0  0  0  0  0  0  0
  196.2140  174.8780  139.8320 C   0  0  0  0  0  2  0  0  0  0  0  0
  196.9280  174.1540  138.7140 C   0  0  0  0  0  2  0  0  0  0  0  0
  195.4140  174.0870  138.8150 C   0  0  0  0  0  3  0  0  0  0  0  0
  185.3630  178.5250  138.5020 N   0  0  0  0  0  2  0  0  0  0  0  0
  184.3020  177.5380  138.3660 C   0  0  0  0  0  2  0  0  0  0  0  0
  183.1660  178.1060  137.5300 C   0  0  1  0  0  3  0  0  0  0  0  0
  183.0910  177.3780  136.2000 C   0  0  0  0  0  2  0  0  0  0  0  0
  184.2700  176.4400  136.0490 C   0  0  0  0  0  1  0  0  0  0  0  0
  181.8530  177.9450  138.2800 C   0  0  0  0  0  2  0  0  0  0  0  0
  181.4630  179.4300  139.1890 S   0  0  0  0  0  0  0  0  0  0  0  0
  182.4110  180.5210  138.7770 O   0  0  0  0  0  0  0  0  0  0  0  0
  180.0530  179.8540  138.8910 O   0  0  0  0  0  0  0  0  0  0  0  0
  182.9050  178.7210  141.3970 C   0  0  0  0  0  2  0  0  0  0  0  0
  181.6280  179.1310  140.8860 N   0  0  0  0  0  0  0  0  0  0  0  0
  182.0290  178.9810  143.6450 C   0  0  0  0  0  3  0  0  0  0  0  0
  179.5940  177.9270  141.5180 C   0  0  0  0  0  1  0  0  0  0  0  0
  180.8000  179.2580  143.2050 C   0  0  0  0  0  3  0  0  0  0  0  0
  183.1080  178.6370  142.7090 C   0  0  0  0  0  3  0  0  0  0  0  0
  180.4380  179.1690  141.7470 C   0  0  0  0  0  0  0  0  0  0  0  0
  1  3  2  0  0  0  0
  2  9  1  0  0  0  0
  2  7  1  6  0  0  0
  3 13  1  0  0  0  0
  4 20  1  0  0  0  0
  4  6  1  0  0  0  0
  5 11  1  0  0  0  0
  5 10  1  0  0  0  0
  7  4  2  0  0  0  0
  8 10  2  0  0  0  0
  9  7  1  6  0  0  0
  9  3  1  0  0  0  0
 10  1  1  0  0  0  0
 11  2  1  0  0  0  0
 11  9  1  0  0  0  0
 12 17  1  0  0  0  0
 13  6  2  0  0  0  0
 14  5  2  0  0  0  0
 15 23  1  0  0  0  0
 16 22  1  0  0  0  0
 17 16  2  0  0  0  0
 17 21  1  0  0  0  0
 18 12  1  0  0  0  0
 18 15  2  0  0  0  0
 19  8  1  0  0  0  0
 21 14  1  0  0  0  0
 22 14  1  0  0  0  0
 22 19  2  0  0  0  0
 23 21  2  0  0  0  0
 24 16  1  0  0  0  0
 26 29  1  0  0  0  0
 26 27  1  0  0  0  0
 27 25  1  0  0  0  0
 27 36  1  1  0  0  0
 28 24  1  6  0  0  0
 28 25  1  0  0  0  0
 29 33  1  6  0  0  0
 29 28  1  0  0  0  0
 30 33  1  0  0  0  0
 32 33  1  0  0  0  0
 33 31  1  0  0  0  0
 35 36  1  0  0  0  0
 35 34  1  0  0  0  0
 36 34  1  0  0  0  0
 37 15  1  0  0  0  0
 38 37  1  0  0  0  0
 39 40  1  6  0  0  0
 39 42  1  0  0  0  0
 39 38  1  0  0  0  0
 41 40  1  0  0  0  0
 42 43  1  0  0  0  0
 43 47  1  0  0  0  0
 44 43  2  0  0  0  0
 45 43  2  0  0  0  0
 46 51  1  0  0  0  0
 47 46  1  0  0  0  0
 47 52  1  0  0  0  0
 49 52  1  0  0  0  0
 50 48  1  0  0  0  0
 51 48  2  0  0  0  0
 52 50  2  0  0  0  0
M  END
>  <MODEL>
8

>  <REMARK>
 VINA RESULT:      -8.8      4.077      8.635
  Name = 
  11 active torsions:
  status: ('A' for Active; 'I' for Inactive)
    1  A    between atoms: C_2  and  C_49
    2  A    between atoms: N_8  and  S_23
    3  A    between atoms: O_13  and  C_32
    4  A    between atoms: O_13  and  C_37
    5  A    between atoms: C_20  and  C_49
    6  A    between atoms: C_20  and  N_51
    7  A    between atoms: S_23  and  C_50
    8  A    between atoms: N_27  and  C_30
    9  A    between atoms: C_34  and  C_46
   10  A    between atoms: C_36  and  N_51
   11  A    between atoms: C_49  and  C_50
                            x       y       z     vdW  Elec       q    Type
                         _______ _______ _______ _____ _____    ______ ____

>  <TORSDO>
F 11

$$$$
=
 OpenBabel10222417443D

 52 61  0  0  1  0  0  0  0  0999 V2000
  191.2440  177.1610  144.1820 N   0  0  0  0  0  0  0  0  0  0  0  0
  187.5080  177.8550  145.3730 C   0  0  1  0  0  3  0  0  0  0  0  0
  190.6540  177.2170  145.4190 C   0  0  0  0  0  0  0  0  0  0  0  0
  188.9150  177.4170  147.7350 C   0  0  0  0  0  0  0  0  0  0  0  0
  189.0450  177.6570  143.1320 C   0  0  0  0  0  0  0  0  0  0  0  0
  190.3220  177.1210  147.8640 C   0  0  0  0  0  3  0  0  0  0  0  0
  188.4460  177.5980  146.4350 C   0  0  0  0  0  0  0  0  0  0  0  0
  191.0770  177.3410  141.7610 C   0  0  0  0  0  3  0  0  0  0  0  0
  189.3590  177.4840  145.4130 C   0  0  1  0  0  0  0  0  0  0  0  0
  190.4750  177.3800  143.0330 C   0  0  0  0  0  0  0  0  0  0  0  0
  188.5210  177.7000  144.3830 N   0  0  0  0  0  0  0  0  0  0  0  0
  185.5350  178.5270  139.8380 C   0  0  0  0  0  2  0  0  0  0  0  0
  191.1990  177.0190  146.7100 C   0  0  0  0  0  3  0  0  0  0  0  0
  188.3200  177.8670  141.9600 C   0  0  0  0  0  0  0  0  0  0  0  0
  184.6380  178.5110  142.1170 C   0  0  0  0  0  0  0  0  0  0  0  0
  188.0180  178.0740  139.7350 C   0  0  0  0  0  0  0  0  0  0  0  0
  186.7940  178.2620  140.3720 C   0  0  0  0  0  0  0  0  0  0  0  0
  184.4540  178.6540  140.7270 C   0  0  0  0  0  3  0  0  0  0  0  0
  190.3170  177.5670  140.6000 C   0  0  0  0  0  3  0  0  0  0  0  0
  188.0190  177.5070  148.9160 C   0  0  0  0  0  1  0  0  0  0  0  0
  186.9820  178.1320  141.7380 C   0  0  0  0  0  0  0  0  0  0  0  0
  188.9500  177.8250  140.7280 C   0  0  0  0  0  0  0  0  0  0  0  0
  185.9230  178.2500  142.6340 C   0  0  0  0  0  3  0  0  0  0  0  0
  188.2990  178.1200  138.3650 O   0  0  0  0  0  0  0  0  0  0  0  0
  189.8690  177.1380  136.8140 C   0  0  0  0  0  2  0  0  0  0  0  0
  188.3420  175.9740  135.4510 C   0  0  0  0  0  2  0  0  0  0  0  0
  189.7280  176.4390  135.5370 N   0  0  2  0  0  0  0  0  0  0  0  0
  188.5880  176.9600  137.5940 C   0  0  2  0  0  3  0  0  0  0  0  0
  187.5350  176.6460  136.5450 C   0  0  1  0  0  3  0  0  0  0  0  0
  187.3350  179.0270  136.5060 F   0  0  0  0  0  0  0  0  0  0  0  0
  186.9150  177.9120  134.6090 F   0  0  0  0  0  0  0  0  0  0  0  0
  185.4400  177.8230  136.3140 F   0  0  0  0  0  0  0  0  0  0  0  0
  186.7850  177.8690  135.9840 C   0  0  0  0  0  0  0  0  0  0  0  0
  191.7270  175.4980  136.5490 C   0  0  0  0  0  2  0  0  0  0  0  0
  191.9610  175.6020  135.0610 C   0  0  0  0  0  2  0  0  0  0  0  0
  190.5790  175.2580  135.5890 C   0  0  0  0  0  3  0  0  0  0  0  0
  183.5050  178.6360  142.9810 N   0  0  0  0  0  2  0  0  0  0  0  0
  182.4570  179.6310  142.8080 C   0  0  0  0  0  2  0  0  0  0  0  0
  181.1560  178.9530  142.4090 C   0  0  1  0  0  3  0  0  0  0  0  0
  180.0490  179.3600  143.3650 C   0  0  0  0  0  2  0  0  0  0  0  0
  179.7430  178.2300  144.3260 C   0  0  0  0  0  1  0  0  0  0  0  0
  180.7860  179.3570  140.9910 C   0  0  0  0  0  2  0  0  0  0  0  0
  180.1090  177.9670  140.1000 S   0  0  0  0  0  0  0  0  0  0  0  0
  179.6410  176.9330  141.0840 O   0  0  0  0  0  0  0  0  0  0  0  0
  178.9490  178.4190  139.2580 O   0  0  0  0  0  0  0  0  0  0  0  0
  182.1490  176.2240  139.5930 C   0  0  0  0  0  2  0  0  0  0  0  0
  181.3280  177.2830  139.0790 N   0  0  0  0  0  0  0  0  0  0  0  0
  183.0580  175.9190  137.3640 C   0  0  0  0  0  3  0  0  0  0  0  0
  182.3420  179.1940  137.9350 C   0  0  0  0  0  1  0  0  0  0  0  0
  182.3940  176.9690  136.8770 C   0  0  0  0  0  3  0  0  0  0  0  0
  182.9840  175.5710  138.7900 C   0  0  0  0  0  3  0  0  0  0  0  0
  181.5930  177.8840  137.7640 C   0  0  0  0  0  0  0  0  0  0  0  0
  1  3  2  0  0  0  0
  2  9  1  0  0  0  0
  2  7  1  6  0  0  0
  3 13  1  0  0  0  0
  4  6  1  0  0  0  0
  4 20  1  0  0  0  0
  5 11  1  0  0  0  0
  7  4  2  0  0  0  0
  8 10  2  0  0  0  0
  9  3  1  1  0  0  0
  9  7  1  0  0  0  0
 10  5  1  0  0  0  0
 10  1  1  0  0  0  0
 11  2  1  0  0  0  0
 11  9  1  0  0  0  0
 12 17  1  0  0  0  0
 12 18  1  0  0  0  0
 13  6  2  0  0  0  0
 14  5  2  0  0  0  0
 15 23  1  0  0  0  0
 15 37  1  0  0  0  0
 16 17  2  0  0  0  0
 16 22  1  0  0  0  0
 17 21  1  0  0  0  0
 18 15  2  0  0  0  0
 19 22  2  0  0  0  0
 19  8  1  0  0  0  0
 21 14  1  0  0  0  0
 21 23  2  0  0  0  0
 22 14  1  0  0  0  0
 24 16  1  0  0  0  0
 25 28  1  0  0  0  0
 26 27  1  0  0  0  0
 26 29  1  0  0  0  0
 27 36  1  1  0  0  0
 27 25  1  0  0  0  0
 28 24  1  6  0  0  0
 29 33  1  6  0  0  0
 29 28  1  0  0  0  0
 31 33  1  0  0  0  0
 33 32  1  0  0  0  0
 33 30  1  0  0  0  0
 35 36  1  0  0  0  0
 35 34  1  0  0  0  0
 36 34  1  0  0  0  0
 38 37  1  0  0  0  0
 39 42  1  6  0  0  0
 39 38  1  0  0  0  0
 39 40  1  0  0  0  0
 40 41  1  0  0  0  0
 43 42  1  0  0  0  0
 43 44  2  0  0  0  0
 45 43  2  0  0  0  0
 47 46  1  0  0  0  0
 47 43  1  0  0  0  0
 48 51  2  0  0  0  0
 50 48  1  0  0  0  0
 50 52  2  0  0  0  0
 51 46  1  0  0  0  0
 52 49  1  0  0  0  0
 52 47  1  0  0  0  0
M  END
>  <MODEL>
9

>  <REMARK>
 VINA RESULT:      -8.8      2.984      6.999
  Name = 
  11 active torsions:
  status: ('A' for Active; 'I' for Inactive)
    1  A    between atoms: C_2  and  C_49
    2  A    between atoms: N_8  and  S_23
    3  A    between atoms: O_13  and  C_32
    4  A    between atoms: O_13  and  C_37
    5  A    between atoms: C_20  and  C_49
    6  A    between atoms: C_20  and  N_51
    7  A    between atoms: S_23  and  C_50
    8  A    between atoms: N_27  and  C_30
    9  A    between atoms: C_34  and  C_46
   10  A    between atoms: C_36  and  N_51
   11  A    between atoms: C_49  and  C_50
                            x       y       z     vdW  Elec       q    Type
                         _______ _______ _______ _____ _____    ______ ____

>  <TORSDO>
F 11

$$$$
