=
 OpenBabel10222420243D

 47 53  0  0  1  0  0  0  0  0999 V2000
  186.1490  177.7520  144.4240 S   0  0  0  0  0  0  0  0  0  0  0  0
  186.4650  178.5940  146.7580 C   0  0  0  0  0  0  0  0  0  0  0  0
  191.3720  176.0110  144.0960 C   0  0  0  0  0  2  0  0  0  0  0  0
  187.1540  177.9000  145.7650 C   0  0  0  0  0  0  0  0  0  0  0  0
  190.5310  176.1940  145.3300 C   0  0  1  0  0  3  0  0  0  0  0  0
  187.0670  178.8910  148.1080 C   0  0  0  0  0  2  0  0  0  0  0  0
  188.2960  178.0170  148.4080 C   0  0  0  0  0  2  0  0  0  0  0  0
  189.1770  177.9230  147.1680 C   0  0  1  0  0  3  0  0  0  0  0  0
  191.1970  176.6700  146.5910 C   0  0  0  0  0  0  0  0  0  0  0  0
  185.1930  179.0320  146.3710 C   0  0  0  0  0  3  0  0  0  0  0  0
  190.3400  176.0270  142.9620 C   0  0  1  0  0  3  0  0  0  0  0  0
  189.0210  176.5070  143.5760 C   0  0  0  0  0  2  0  0  0  0  0  0
  184.8810  178.6480  145.0710 C   0  0  0  0  0  0  0  0  0  0  0  0
  190.5130  177.3750  147.4540 N   0  0  0  0  0  0  0  0  0  0  0  0
  188.4430  177.1780  146.0360 C   0  0  2  0  0  3  0  0  0  0  0  0
  189.4400  177.1220  144.8900 C   0  0  1  0  0  3  0  0  0  0  0  0
  190.7630  176.9590  141.9280 N   0  0  0  0  0  2  0  0  0  0  0  0
  189.3870  176.0590  140.2670 O   0  0  0  0  0  0  0  0  0  0  0  0
  190.2680  176.9000  140.5890 C   0  0  0  0  0  0  0  0  0  0  0  0
  190.8330  177.8080  139.5570 C   0  0  0  0  0  2  0  0  0  0  0  0
  190.6070  177.2140  138.1780 C   0  0  0  0  0  2  0  0  0  0  0  0
  191.2270  174.8510  137.2920 C   0  0  0  0  0  0  0  0  0  0  0  0
  193.6050  174.5320  136.6670 C   0  0  0  0  0  2  0  0  0  0  0  0
  193.9580  175.3590  137.9060 C   0  0  0  0  0  2  0  0  0  0  0  0
  191.6220  176.1580  137.8900 C   0  0  0  0  0  0  0  0  0  0  0  0
  192.9140  176.4140  138.1400 C   0  0  0  0  0  3  0  0  0  0  0  0
  192.1720  174.0800  136.7280 C   0  0  0  0  0  3  0  0  0  0  0  0
  189.1760  174.7390  135.8690 C   0  0  0  0  0  2  0  0  0  0  0  0
  189.7840  174.4280  137.2300 C   0  0  0  0  0  3  0  0  0  0  0  0
  189.6050  173.3290  136.1970 C   0  0  0  0  0  2  0  0  0  0  0  0
  192.8340  175.6480  148.1280 C   0  0  0  0  0  1  0  0  0  0  0  0
  192.4950  176.2480  146.8870 O   0  0  0  0  0  0  0  0  0  0  0  0
  183.5780  178.8840  144.3810 C   0  0  0  0  0  2  0  0  0  0  0  0
  183.7680  179.1880  142.8990 C   0  0  0  0  0  2  0  0  0  0  0  0
  183.3040  178.0290  142.0330 C   0  0  0  0  0  2  0  0  0  0  0  0
  182.7710  178.5390  140.7030 C   0  0  0  0  0  2  0  0  0  0  0  0
  183.5520  177.9420  139.5720 C   0  0  0  0  0  0  0  0  0  0  0  0
  184.6930  178.6310  139.1120 C   0  0  0  0  0  0  0  0  0  0  0  0
  185.0700  179.8130  139.7450 O   0  0  0  0  0  1  0  0  0  0  0  0
  185.4390  178.1240  138.0230 C   0  0  0  0  0  0  0  0  0  0  0  0
  183.8990  176.2600  137.8590 C   0  0  0  0  0  3  0  0  0  0  0  0
  185.0250  176.9430  137.4080 C   0  0  0  0  0  3  0  0  0  0  0  0
  183.1540  176.7350  138.9380 C   0  0  0  0  0  0  0  0  0  0  0  0
  181.9920  175.9100  139.3270 C   0  0  0  0  0  3  0  0  0  0  0  0
  180.8800  175.7680  138.6180 C   0  0  0  0  0  2  0  0  0  0  0  0
  187.3290  178.2810  136.3900 C   0  0  0  0  0  1  0  0  0  0  0  0
  186.5870  178.7440  137.5070 O   0  0  0  0  0  0  0  0  0  0  0  0
  1 13  1  0  0  0  0
  1  4  1  0  0  0  0
  2  6  1  0  0  0  0
  4  2  2  0  0  0  0
  5  3  1  6  0  0  0
  5  9  1  0  0  0  0
  6  7  1  0  0  0  0
  8 14  1  0  0  0  0
  8  7  1  1  0  0  0
  9 32  1  0  0  0  0
  9 14  2  0  0  0  0
 10  2  1  0  0  0  0
 11 17  1  6  0  0  0
 11 12  1  0  0  0  0
 11  3  1  0  0  0  0
 13 10  2  0  0  0  0
 15  4  1  6  0  0  0
 15  8  1  0  0  0  0
 16 12  1  6  0  0  0
 16  5  1  0  0  0  0
 16 15  1  0  0  0  0
 18 19  2  0  0  0  0
 19 17  1  0  0  0  0
 20 19  1  0  0  0  0
 21 20  1  0  0  0  0
 22 25  1  0  0  0  0
 23 27  1  0  0  0  0
 23 24  1  0  0  0  0
 24 26  1  0  0  0  0
 25 26  2  0  0  0  0
 25 21  1  0  0  0  0
 27 22  2  0  0  0  0
 28 30  1  0  0  0  0
 28 29  1  0  0  0  0
 29 22  1  0  0  0  0
 30 29  1  0  0  0  0
 32 31  1  0  0  0  0
 33 13  1  0  0  0  0
 34 33  1  0  0  0  0
 35 34  1  0  0  0  0
 36 35  1  0  0  0  0
 37 36  1  0  0  0  0
 38 37  1  0  0  0  0
 38 39  1  0  0  0  0
 40 38  2  0  0  0  0
 41 43  1  0  0  0  0
 42 41  2  0  0  0  0
 42 40  1  0  0  0  0
 43 44  1  0  0  0  0
 43 37  2  0  0  0  0
 45 44  2  0  0  0  0
 46 47  1  0  0  0  0
 47 40  1  0  0  0  0
M  END
>  <MODEL>
1

>  <REMARK>
 VINA RESULT:      -9.2      0.000      0.000
  Name = 
  13 active torsions:
  status: ('A' for Active; 'I' for Inactive)
    1  A    between atoms: C_2  and  C_46
    2  A    between atoms: N_4  and  C_34
    3  A    between atoms: C_5  and  C_24
    4  A    between atoms: C_6  and  C_20
    5  A    between atoms: C_7  and  C_39
    6  A    between atoms: C_7  and  C_43
    7  A    between atoms: C_11  and  C_14
    8  A    between atoms: C_11  and  C_32
    9  A    between atoms: C_14  and  C_29
   10  A    between atoms: C_24  and  C_41
   11  A    between atoms: C_25  and  O_44
   12  A    between atoms: O_27  and  C_30
   13  A    between atoms: C_41  and  C_43
                            x       y       z     vdW  Elec       q    Type
                         _______ _______ _______ _____ _____    ______ ____

>  <TORSDO>
F 13

$$$$
=
 OpenBabel10222420243D

 47 53  0  0  1  0  0  0  0  0999 V2000
  187.3550  175.9150  137.1490 S   0  0  0  0  0  0  0  0  0  0  0  0
  188.5210  174.3720  135.5630 C   0  0  0  0  0  0  0  0  0  0  0  0
  192.0130  176.9830  139.9020 C   0  0  0  0  0  2  0  0  0  0  0  0
  188.8010  175.2390  136.6170 C   0  0  0  0  0  0  0  0  0  0  0  0
  191.8610  176.5440  138.4710 C   0  0  1  0  0  3  0  0  0  0  0  0
  189.5960  173.6050  134.8360 C   0  0  0  0  0  2  0  0  0  0  0  0
  191.0000  174.1800  135.0860 C   0  0  0  0  0  2  0  0  0  0  0  0
  191.1580  174.5310  136.5600 C   0  0  1  0  0  3  0  0  0  0  0  0
  192.8980  175.6270  137.8850 C   0  0  0  0  0  0  0  0  0  0  0  0
  187.1580  174.2400  135.2780 C   0  0  0  0  0  3  0  0  0  0  0  0
  190.6000  177.4450  140.2800 C   0  0  1  0  0  3  0  0  0  0  0  0
  189.6700  176.9750  139.1560 C   0  0  0  0  0  2  0  0  0  0  0  0
  186.3710  175.0370  136.1050 C   0  0  0  0  0  0  0  0  0  0  0  0
  192.5560  174.7890  136.9410 N   0  0  0  0  0  0  0  0  0  0  0  0
  190.2000  175.6710  136.9530 C   0  0  2  0  0  3  0  0  0  0  0  0
  190.4890  175.9430  138.4210 C   0  0  1  0  0  3  0  0  0  0  0  0
  190.2010  176.8230  141.5340 N   0  0  0  0  0  2  0  0  0  0  0  0
  191.1070  178.4980  142.8890 O   0  0  0  0  0  0  0  0  0  0  0  0
  190.5130  177.3900  142.8080 C   0  0  0  0  0  0  0  0  0  0  0  0
  190.1770  176.6400  144.0470 C   0  0  0  0  0  2  0  0  0  0  0  0
  188.7000  176.8070  144.3560 C   0  0  0  0  0  2  0  0  0  0  0  0
  187.1540  177.6900  146.2490 C   0  0  0  0  0  0  0  0  0  0  0  0
  188.1290  177.6650  148.5270 C   0  0  0  0  0  2  0  0  0  0  0  0
  189.4390  178.1290  147.8840 C   0  0  0  0  0  2  0  0  0  0  0  0
  188.5120  177.3630  145.7280 C   0  0  0  0  0  0  0  0  0  0  0  0
  189.5850  177.5290  146.5140 C   0  0  0  0  0  3  0  0  0  0  0  0
  186.9820  177.8470  147.5710 C   0  0  0  0  0  3  0  0  0  0  0  0
  184.8100  178.5140  145.9740 C   0  0  0  0  0  2  0  0  0  0  0  0
  185.9640  177.7580  145.3290 C   0  0  0  0  0  3  0  0  0  0  0  0
  185.6800  179.2010  144.9490 C   0  0  0  0  0  2  0  0  0  0  0  0
  195.0650  174.6530  138.5480 C   0  0  0  0  0  1  0  0  0  0  0  0
  194.2360  175.7690  138.2620 O   0  0  0  0  0  0  0  0  0  0  0  0
  184.8880  175.1920  136.0140 C   0  0  0  0  0  2  0  0  0  0  0  0
  184.4500  176.6210  136.3080 C   0  0  0  0  0  2  0  0  0  0  0  0
  183.3660  176.6590  137.3730 C   0  0  0  0  0  2  0  0  0  0  0  0
  183.0040  178.0950  137.7130 C   0  0  0  0  0  2  0  0  0  0  0  0
  183.2610  178.3610  139.1660 C   0  0  0  0  0  0  0  0  0  0  0  0
  184.5350  178.8320  139.5420 C   0  0  0  0  0  0  0  0  0  0  0  0
  185.4890  179.0650  138.5550 O   0  0  0  0  0  1  0  0  0  0  0  0
  184.8350  179.0610  140.9050 C   0  0  0  0  0  0  0  0  0  0  0  0
  182.5990  178.3400  141.4990 C   0  0  0  0  0  3  0  0  0  0  0  0
  183.8570  178.8060  141.8670 C   0  0  0  0  0  3  0  0  0  0  0  0
  182.2770  178.1170  140.1600 C   0  0  0  0  0  0  0  0  0  0  0  0
  180.9030  177.6390  139.9020 C   0  0  0  0  0  3  0  0  0  0  0  0
  180.5360  176.3660  139.8260 C   0  0  0  0  0  2  0  0  0  0  0  0
  187.2370  178.7370  141.5290 C   0  0  0  0  0  1  0  0  0  0  0  0
  186.0740  179.5320  141.3640 O   0  0  0  0  0  0  0  0  0  0  0  0
  2  4  2  0  0  0  0
  3 11  1  0  0  0  0
  4  1  1  0  0  0  0
  5  3  1  1  0  0  0
  6  7  1  0  0  0  0
  6  2  1  0  0  0  0
  8  7  1  6  0  0  0
  8 14  1  0  0  0  0
  8 15  1  0  0  0  0
  9 32  1  0  0  0  0
  9  5  1  0  0  0  0
 10  2  1  0  0  0  0
 10 13  2  0  0  0  0
 11 17  1  1  0  0  0
 12 11  1  0  0  0  0
 13  1  1  0  0  0  0
 14  9  2  0  0  0  0
 15  4  1  1  0  0  0
 15 16  1  0  0  0  0
 16  5  1  0  0  0  0
 16 12  1  6  0  0  0
 17 19  1  0  0  0  0
 19 18  2  0  0  0  0
 19 20  1  0  0  0  0
 20 21  1  0  0  0  0
 21 25  1  0  0  0  0
 22 27  2  0  0  0  0
 24 23  1  0  0  0  0
 25 22  1  0  0  0  0
 25 26  2  0  0  0  0
 26 24  1  0  0  0  0
 27 23  1  0  0  0  0
 29 28  1  0  0  0  0
 29 22  1  0  0  0  0
 30 29  1  0  0  0  0
 30 28  1  0  0  0  0
 32 31  1  0  0  0  0
 33 13  1  0  0  0  0
 33 34  1  0  0  0  0
 34 35  1  0  0  0  0
 35 36  1  0  0  0  0
 36 37  1  0  0  0  0
 37 38  2  0  0  0  0
 37 43  1  0  0  0  0
 38 40  1  0  0  0  0
 39 38  1  0  0  0  0
 40 47  1  0  0  0  0
 40 42  2  0  0  0  0
 41 42  1  0  0  0  0
 43 41  2  0  0  0  0
 44 43  1  0  0  0  0
 45 44  2  0  0  0  0
 47 46  1  0  0  0  0
M  END
>  <MODEL>
2

>  <REMARK>
 VINA RESULT:      -9.1      2.155      8.163
  Name = 
  13 active torsions:
  status: ('A' for Active; 'I' for Inactive)
    1  A    between atoms: C_2  and  C_46
    2  A    between atoms: N_4  and  C_34
    3  A    between atoms: C_5  and  C_24
    4  A    between atoms: C_6  and  C_20
    5  A    between atoms: C_7  and  C_39
    6  A    between atoms: C_7  and  C_43
    7  A    between atoms: C_11  and  C_14
    8  A    between atoms: C_11  and  C_32
    9  A    between atoms: C_14  and  C_29
   10  A    between atoms: C_24  and  C_41
   11  A    between atoms: C_25  and  O_44
   12  A    between atoms: O_27  and  C_30
   13  A    between atoms: C_41  and  C_43
                            x       y       z     vdW  Elec       q    Type
                         _______ _______ _______ _____ _____    ______ ____

>  <TORSDO>
F 13

$$$$
=
 OpenBabel10222420243D

 47 53  0  0  1  0  0  0  0  0999 V2000
  185.0620  177.8980  143.4540 S   0  0  0  0  0  0  0  0  0  0  0  0
  185.3910  178.7300  145.7900 C   0  0  0  0  0  0  0  0  0  0  0  0
  190.3880  176.5630  142.9310 C   0  0  0  0  0  2  0  0  0  0  0  0
  186.0970  178.1040  144.7650 C   0  0  0  0  0  0  0  0  0  0  0  0
  189.5770  176.6660  144.1940 C   0  0  1  0  0  3  0  0  0  0  0  0
  186.0140  179.0550  147.1240 C   0  0  0  0  0  2  0  0  0  0  0  0
  187.3140  178.2720  147.3710 C   0  0  0  0  0  2  0  0  0  0  0  0
  188.1580  178.2620  146.1010 C   0  0  1  0  0  3  0  0  0  0  0  0
  190.2470  177.1740  145.4400 C   0  0  0  0  0  0  0  0  0  0  0  0
  184.0780  179.0760  145.4510 C   0  0  0  0  0  3  0  0  0  0  0  0
  189.3200  176.5160  141.8310 C   0  0  1  0  0  3  0  0  0  0  0  0
  187.9890  176.8870  142.4950 C   0  0  0  0  0  2  0  0  0  0  0  0
  183.7520  178.6860  144.1560 C   0  0  0  0  0  0  0  0  0  0  0  0
  189.5400  177.8140  146.3360 N   0  0  0  0  0  0  0  0  0  0  0  0
  187.4450  177.4790  144.9830 C   0  0  2  0  0  3  0  0  0  0  0  0
  188.4040  177.5140  143.8030 C   0  0  1  0  0  3  0  0  0  0  0  0
  189.6370  177.4910  140.7980 N   0  0  0  0  0  2  0  0  0  0  0  0
  189.4610  175.9770  139.0270 O   0  0  0  0  0  0  0  0  0  0  0  0
  189.7210  177.1470  139.4140 C   0  0  0  0  0  0  0  0  0  0  0  0
  190.1650  178.1680  138.4290 C   0  0  0  0  0  2  0  0  0  0  0  0
  188.9810  179.0240  138.0160 C   0  0  0  0  0  2  0  0  0  0  0  0
  186.6300  178.0260  137.5340 C   0  0  0  0  0  0  0  0  0  0  0  0
  186.1700  177.4680  135.1630 C   0  0  0  0  0  2  0  0  0  0  0  0
  187.6100  176.9520  135.0880 C   0  0  0  0  0  2  0  0  0  0  0  0
  188.0520  178.2470  137.1440 C   0  0  0  0  0  0  0  0  0  0  0  0
  188.5020  177.7780  135.9710 C   0  0  0  0  0  3  0  0  0  0  0  0
  185.7490  177.6430  136.5960 C   0  0  0  0  0  3  0  0  0  0  0  0
  184.9700  179.2660  138.9300 C   0  0  0  0  0  2  0  0  0  0  0  0
  186.1550  178.3100  138.9330 C   0  0  0  0  0  3  0  0  0  0  0  0
  184.7420  177.7860  139.1220 C   0  0  0  0  0  2  0  0  0  0  0  0
  191.9620  175.9100  146.6820 C   0  0  0  0  0  1  0  0  0  0  0  0
  191.5820  176.8480  145.6870 O   0  0  0  0  0  0  0  0  0  0  0  0
  182.4120  178.8320  143.5120 C   0  0  0  0  0  2  0  0  0  0  0  0
  182.4530  178.4690  142.0320 C   0  0  0  0  0  2  0  0  0  0  0  0
  181.4170  179.2520  141.2420 C   0  0  0  0  0  2  0  0  0  0  0  0
  180.4660  178.3040  140.5290 C   0  0  0  0  0  2  0  0  0  0  0  0
  180.9890  177.9800  139.1630 C   0  0  0  0  0  0  0  0  0  0  0  0
  181.3410  176.6440  138.8830 C   0  0  0  0  0  0  0  0  0  0  0  0
  181.1570  175.6760  139.8680 O   0  0  0  0  0  1  0  0  0  0  0  0
  181.8740  176.2980  137.6200 C   0  0  0  0  0  0  0  0  0  0  0  0
  181.7090  178.6160  136.9350 C   0  0  0  0  0  3  0  0  0  0  0  0
  182.0540  177.2960  136.6630 C   0  0  0  0  0  3  0  0  0  0  0  0
  181.1720  178.9790  138.1700 C   0  0  0  0  0  0  0  0  0  0  0  0
  180.8320  180.4090  138.3260 C   0  0  0  0  0  3  0  0  0  0  0  0
  181.7040  181.4100  138.3100 C   0  0  0  0  0  2  0  0  0  0  0  0
  183.5250  174.4220  137.4760 C   0  0  0  0  0  1  0  0  0  0  0  0
  182.2450  174.9940  137.2600 O   0  0  0  0  0  0  0  0  0  0  0  0
  1 13  1  0  0  0  0
  1  4  1  0  0  0  0
  2  6  1  0  0  0  0
  4  2  2  0  0  0  0
  5  3  1  6  0  0  0
  5  9  1  0  0  0  0
  6  7  1  0  0  0  0
  8 14  1  0  0  0  0
  8  7  1  1  0  0  0
  9 32  1  0  0  0  0
  9 14  2  0  0  0  0
 10  2  1  0  0  0  0
 11 17  1  6  0  0  0
 11 12  1  0  0  0  0
 11  3  1  0  0  0  0
 13 10  2  0  0  0  0
 15  4  1  6  0  0  0
 15  8  1  0  0  0  0
 16 12  1  6  0  0  0
 16  5  1  0  0  0  0
 16 15  1  0  0  0  0
 18 19  2  0  0  0  0
 19 17  1  0  0  0  0
 20 19  1  0  0  0  0
 21 20  1  0  0  0  0
 22 29  1  0  0  0  0
 23 27  1  0  0  0  0
 24 23  1  0  0  0  0
 24 26  1  0  0  0  0
 25 22  1  0  0  0  0
 25 21  1  0  0  0  0
 26 25  2  0  0  0  0
 27 22  2  0  0  0  0
 28 29  1  0  0  0  0
 28 30  1  0  0  0  0
 29 30  1  0  0  0  0
 32 31  1  0  0  0  0
 33 13  1  0  0  0  0
 34 33  1  0  0  0  0
 35 34  1  0  0  0  0
 36 35  1  0  0  0  0
 37 36  1  0  0  0  0
 38 37  1  0  0  0  0
 38 39  1  0  0  0  0
 40 38  2  0  0  0  0
 41 43  1  0  0  0  0
 42 41  2  0  0  0  0
 42 40  1  0  0  0  0
 43 44  1  0  0  0  0
 43 37  2  0  0  0  0
 45 44  2  0  0  0  0
 47 46  1  0  0  0  0
 47 40  1  0  0  0  0
M  END
>  <MODEL>
3

>  <REMARK>
 VINA RESULT:      -8.7      2.292      3.771
  Name = 
  13 active torsions:
  status: ('A' for Active; 'I' for Inactive)
    1  A    between atoms: C_2  and  C_46
    2  A    between atoms: N_4  and  C_34
    3  A    between atoms: C_5  and  C_24
    4  A    between atoms: C_6  and  C_20
    5  A    between atoms: C_7  and  C_39
    6  A    between atoms: C_7  and  C_43
    7  A    between atoms: C_11  and  C_14
    8  A    between atoms: C_11  and  C_32
    9  A    between atoms: C_14  and  C_29
   10  A    between atoms: C_24  and  C_41
   11  A    between atoms: C_25  and  O_44
   12  A    between atoms: O_27  and  C_30
   13  A    between atoms: C_41  and  C_43
                            x       y       z     vdW  Elec       q    Type
                         _______ _______ _______ _____ _____    ______ ____

>  <TORSDO>
F 13

$$$$
=
 OpenBabel10222420243D

 47 53  0  0  1  0  0  0  0  0999 V2000
  188.2350  178.2080  140.0600 S   0  0  0  0  0  0  0  0  0  0  0  0
  189.7460  176.8830  141.5500 C   0  0  0  0  0  0  0  0  0  0  0  0
  184.4910  178.8690  144.0550 C   0  0  0  0  0  2  0  0  0  0  0  0
  188.5520  177.6000  141.5960 C   0  0  0  0  0  0  0  0  0  0  0  0
  185.9680  178.6260  144.1990 C   0  0  1  0  0  3  0  0  0  0  0  0
  190.3380  176.2130  142.7630 C   0  0  0  0  0  2  0  0  0  0  0  0
  189.7400  176.7420  144.0770 C   0  0  0  0  0  2  0  0  0  0  0  0
  188.2300  176.8910  143.9320 C   0  0  1  0  0  3  0  0  0  0  0  0
  186.4510  177.7890  145.3510 C   0  0  0  0  0  0  0  0  0  0  0  0
  190.3120  176.7990  140.2730 C   0  0  0  0  0  3  0  0  0  0  0  0
  184.3440  179.2850  142.5860 C   0  0  1  0  0  3  0  0  0  0  0  0
  185.6840  178.9760  141.9070 C   0  0  0  0  0  2  0  0  0  0  0  0
  189.5610  177.4830  139.3220 C   0  0  0  0  0  0  0  0  0  0  0  0
  187.5470  177.0860  145.2210 N   0  0  0  0  0  0  0  0  0  0  0  0
  187.8900  177.9750  142.8910 C   0  0  2  0  0  3  0  0  0  0  0  0
  186.3710  178.0460  142.8780 C   0  0  1  0  0  3  0  0  0  0  0  0
  183.2890  178.5040  141.9580 N   0  0  0  0  0  2  0  0  0  0  0  0
  181.5400  179.7670  142.8550 O   0  0  0  0  0  0  0  0  0  0  0  0
  181.9030  178.7820  142.1600 C   0  0  0  0  0  0  0  0  0  0  0  0
  180.8800  177.8710  141.5820 C   0  0  0  0  0  2  0  0  0  0  0  0
  180.8030  178.0810  140.0800 C   0  0  0  0  0  2  0  0  0  0  0  0
  180.0950  176.7860  137.9410 C   0  0  0  0  0  0  0  0  0  0  0  0
  180.5070  174.3420  137.9820 C   0  0  0  0  0  2  0  0  0  0  0  0
  180.0470  174.3700  139.4420 C   0  0  0  0  0  2  0  0  0  0  0  0
  180.4350  176.8080  139.3920 C   0  0  0  0  0  0  0  0  0  0  0  0
  180.4550  175.6640  140.0890 C   0  0  0  0  0  3  0  0  0  0  0  0
  180.1150  175.6150  137.2830 C   0  0  0  0  0  3  0  0  0  0  0  0
  181.0530  178.5370  136.4370 C   0  0  0  0  0  2  0  0  0  0  0  0
  179.8170  178.0590  137.1880 C   0  0  0  0  0  3  0  0  0  0  0  0
  179.9500  177.8230  135.6940 C   0  0  0  0  0  2  0  0  0  0  0  0
  185.9910  178.9610  147.4720 C   0  0  0  0  0  1  0  0  0  0  0  0
  185.8000  177.8710  146.5840 O   0  0  0  0  0  0  0  0  0  0  0  0
  189.9260  177.6580  137.8840 C   0  0  0  0  0  2  0  0  0  0  0  0
  189.7800  176.3590  137.1010 C   0  0  0  0  0  2  0  0  0  0  0  0
  188.3940  175.7600  137.2770 C   0  0  0  0  0  2  0  0  0  0  0  0
  187.4110  176.4020  136.3110 C   0  0  0  0  0  2  0  0  0  0  0  0
  186.1330  176.7340  137.0200 C   0  0  0  0  0  0  0  0  0  0  0  0
  185.9550  178.0500  137.4930 C   0  0  0  0  0  0  0  0  0  0  0  0
  186.9500  178.9950  137.2530 O   0  0  0  0  0  1  0  0  0  0  0  0
  184.7820  178.3990  138.2000 C   0  0  0  0  0  0  0  0  0  0  0  0
  183.9850  176.1230  137.9660 C   0  0  0  0  0  3  0  0  0  0  0  0
  183.8130  177.4230  138.4300 C   0  0  0  0  0  3  0  0  0  0  0  0
  185.1290  175.7580  137.2570 C   0  0  0  0  0  0  0  0  0  0  0  0
  185.1820  174.3520  136.8050 C   0  0  0  0  0  3  0  0  0  0  0  0
  185.1030  173.2890  137.5970 C   0  0  0  0  0  2  0  0  0  0  0  0
  183.2440  180.2950  138.7550 C   0  0  0  0  0  1  0  0  0  0  0  0
  184.5240  179.6850  138.6990 O   0  0  0  0  0  0  0  0  0  0  0  0
  1  4  1  0  0  0  0
  2  4  2  0  0  0  0
  2  6  1  0  0  0  0
  5  3  1  6  0  0  0
  5  9  1  0  0  0  0
  6  7  1  0  0  0  0
  8  7  1  1  0  0  0
  8 14  1  0  0  0  0
  9 32  1  0  0  0  0
 10  2  1  0  0  0  0
 11 17  1  6  0  0  0
 11  3  1  0  0  0  0
 12 11  1  0  0  0  0
 13  1  1  0  0  0  0
 13 10  2  0  0  0  0
 14  9  2  0  0  0  0
 15  4  1  6  0  0  0
 15  8  1  0  0  0  0
 16 12  1  6  0  0  0
 16 15  1  0  0  0  0
 16  5  1  0  0  0  0
 17 19  1  0  0  0  0
 19 18  2  0  0  0  0
 20 19  1  0  0  0  0
 21 20  1  0  0  0  0
 22 25  1  0  0  0  0
 23 24  1  0  0  0  0
 24 26  1  0  0  0  0
 25 21  1  0  0  0  0
 25 26  2  0  0  0  0
 27 22  2  0  0  0  0
 27 23  1  0  0  0  0
 28 29  1  0  0  0  0
 29 22  1  0  0  0  0
 30 28  1  0  0  0  0
 30 29  1  0  0  0  0
 32 31  1  0  0  0  0
 33 13  1  0  0  0  0
 34 35  1  0  0  0  0
 34 33  1  0  0  0  0
 36 37  1  0  0  0  0
 36 35  1  0  0  0  0
 37 43  2  0  0  0  0
 37 38  1  0  0  0  0
 38 40  2  0  0  0  0
 39 38  1  0  0  0  0
 40 42  1  0  0  0  0
 40 47  1  0  0  0  0
 41 42  2  0  0  0  0
 43 41  1  0  0  0  0
 44 43  1  0  0  0  0
 44 45  2  0  0  0  0
 47 46  1  0  0  0  0
M  END
>  <MODEL>
4

>  <REMARK>
 VINA RESULT:      -8.7      2.566      7.508
  Name = 
  13 active torsions:
  status: ('A' for Active; 'I' for Inactive)
    1  A    between atoms: C_2  and  C_46
    2  A    between atoms: N_4  and  C_34
    3  A    between atoms: C_5  and  C_24
    4  A    between atoms: C_6  and  C_20
    5  A    between atoms: C_7  and  C_39
    6  A    between atoms: C_7  and  C_43
    7  A    between atoms: C_11  and  C_14
    8  A    between atoms: C_11  and  C_32
    9  A    between atoms: C_14  and  C_29
   10  A    between atoms: C_24  and  C_41
   11  A    between atoms: C_25  and  O_44
   12  A    between atoms: O_27  and  C_30
   13  A    between atoms: C_41  and  C_43
                            x       y       z     vdW  Elec       q    Type
                         _______ _______ _______ _____ _____    ______ ____

>  <TORSDO>
F 13

$$$$
=
 OpenBabel10222420243D

 47 53  0  0  1  0  0  0  0  0999 V2000
  185.4990  177.8790  144.1770 S   0  0  0  0  0  0  0  0  0  0  0  0
  186.0010  178.6680  146.4970 C   0  0  0  0  0  0  0  0  0  0  0  0
  190.7020  176.2400  143.3600 C   0  0  0  0  0  2  0  0  0  0  0  0
  186.6120  178.0110  145.4320 C   0  0  0  0  0  0  0  0  0  0  0  0
  189.9670  176.3780  144.6650 C   0  0  1  0  0  3  0  0  0  0  0  0
  186.7110  178.9420  147.7980 C   0  0  0  0  0  2  0  0  0  0  0  0
  187.9740  178.0830  147.9700 C   0  0  0  0  0  2  0  0  0  0  0  0
  188.7470  178.0350  146.6570 C   0  0  1  0  0  3  0  0  0  0  0  0
  190.7310  176.8340  145.8780 C   0  0  0  0  0  0  0  0  0  0  0  0
  184.6940  179.0930  146.2320 C   0  0  0  0  0  3  0  0  0  0  0  0
  189.5760  176.2660  142.3190 C   0  0  1  0  0  3  0  0  0  0  0  0
  188.3070  176.7080  143.0550 C   0  0  0  0  0  2  0  0  0  0  0  0
  184.2780  178.7360  144.9530 C   0  0  0  0  0  0  0  0  0  0  0  0
  190.1110  177.5050  146.8140 N   0  0  0  0  0  0  0  0  0  0  0  0
  187.9310  177.3070  145.5730 C   0  0  2  0  0  3  0  0  0  0  0  0
  188.8270  177.2960  144.3440 C   0  0  1  0  0  3  0  0  0  0  0  0
  189.8950  177.2310  141.2770 N   0  0  0  0  0  2  0  0  0  0  0  0
  190.1940  175.6300  139.6010 O   0  0  0  0  0  0  0  0  0  0  0  0
  190.2250  176.8420  139.9430 C   0  0  0  0  0  0  0  0  0  0  0  0
  190.6550  177.8740  138.9630 C   0  0  0  0  0  2  0  0  0  0  0  0
  190.6170  177.2910  137.5610 C   0  0  0  0  0  2  0  0  0  0  0  0
  188.5980  176.3460  136.2260 C   0  0  0  0  0  0  0  0  0  0  0  0
  186.4540  177.5540  136.5260 C   0  0  0  0  0  2  0  0  0  0  0  0
  187.2720  178.8480  136.4950 C   0  0  0  0  0  2  0  0  0  0  0  0
  189.2610  177.4600  136.9600 C   0  0  0  0  0  0  0  0  0  0  0  0
  188.6190  178.6250  137.1250 C   0  0  0  0  0  3  0  0  0  0  0  0
  187.2740  176.4030  136.0100 C   0  0  0  0  0  3  0  0  0  0  0  0
  189.1370  173.9650  136.7630 C   0  0  0  0  0  2  0  0  0  0  0  0
  189.3700  175.1250  135.8040 C   0  0  0  0  0  3  0  0  0  0  0  0
  188.4150  174.0030  135.4380 C   0  0  0  0  0  2  0  0  0  0  0  0
  192.4320  175.4590  147.0180 C   0  0  0  0  0  1  0  0  0  0  0  0
  192.0560  176.4270  146.0500 O   0  0  0  0  0  0  0  0  0  0  0  0
  182.9160  178.9660  144.3830 C   0  0  0  0  0  2  0  0  0  0  0  0
  182.9330  178.9600  142.8590 C   0  0  0  0  0  2  0  0  0  0  0  0
  181.5620  178.6270  142.2920 C   0  0  0  0  0  2  0  0  0  0  0  0
  181.4860  179.0130  140.8240 C   0  0  0  0  0  2  0  0  0  0  0  0
  181.9110  177.8600  139.9650 C   0  0  0  0  0  0  0  0  0  0  0  0
  181.0000  176.8010  139.7730 C   0  0  0  0  0  0  0  0  0  0  0  0
  179.7360  176.8820  140.3530 O   0  0  0  0  0  1  0  0  0  0  0  0
  181.3710  175.6760  139.0010 C   0  0  0  0  0  0  0  0  0  0  0  0
  183.5500  176.6680  138.6330 C   0  0  0  0  0  3  0  0  0  0  0  0
  182.6480  175.6260  138.4450 C   0  0  0  0  0  3  0  0  0  0  0  0
  183.2030  177.7930  139.3810 C   0  0  0  0  0  0  0  0  0  0  0  0
  184.2450  178.8350  139.4910 C   0  0  0  0  0  3  0  0  0  0  0  0
  185.5030  178.6260  139.8590 C   0  0  0  0  0  2  0  0  0  0  0  0
  179.8450  174.3380  137.5360 C   0  0  0  0  0  1  0  0  0  0  0  0
  180.5240  174.5830  138.7570 O   0  0  0  0  0  0  0  0  0  0  0  0
  1 13  1  0  0  0  0
  1  4  1  0  0  0  0
  2  6  1  0  0  0  0
  4  2  2  0  0  0  0
  5  3  1  6  0  0  0
  5  9  1  0  0  0  0
  6  7  1  0  0  0  0
  8 14  1  0  0  0  0
  8  7  1  1  0  0  0
  9 32  1  0  0  0  0
  9 14  2  0  0  0  0
 10  2  1  0  0  0  0
 11 17  1  6  0  0  0
 11 12  1  0  0  0  0
 11  3  1  0  0  0  0
 13 10  2  0  0  0  0
 15  4  1  6  0  0  0
 15  8  1  0  0  0  0
 16 12  1  6  0  0  0
 16  5  1  0  0  0  0
 16 15  1  0  0  0  0
 18 19  2  0  0  0  0
 19 17  1  0  0  0  0
 20 19  1  0  0  0  0
 21 20  1  0  0  0  0
 22 25  1  0  0  0  0
 24 23  1  0  0  0  0
 24 26  1  0  0  0  0
 25 26  2  0  0  0  0
 25 21  1  0  0  0  0
 27 22  2  0  0  0  0
 27 23  1  0  0  0  0
 29 22  1  0  0  0  0
 29 28  1  0  0  0  0
 30 29  1  0  0  0  0
 30 28  1  0  0  0  0
 32 31  1  0  0  0  0
 33 13  1  0  0  0  0
 34 33  1  0  0  0  0
 35 34  1  0  0  0  0
 36 35  1  0  0  0  0
 37 36  1  0  0  0  0
 38 37  1  0  0  0  0
 38 39  1  0  0  0  0
 40 38  2  0  0  0  0
 41 43  1  0  0  0  0
 42 41  2  0  0  0  0
 42 40  1  0  0  0  0
 43 44  1  0  0  0  0
 43 37  2  0  0  0  0
 44 45  2  0  0  0  0
 46 47  1  0  0  0  0
 47 40  1  0  0  0  0
M  END
>  <MODEL>
5

>  <REMARK>
 VINA RESULT:      -8.6      1.793      3.213
  Name = 
  13 active torsions:
  status: ('A' for Active; 'I' for Inactive)
    1  A    between atoms: C_2  and  C_46
    2  A    between atoms: N_4  and  C_34
    3  A    between atoms: C_5  and  C_24
    4  A    between atoms: C_6  and  C_20
    5  A    between atoms: C_7  and  C_39
    6  A    between atoms: C_7  and  C_43
    7  A    between atoms: C_11  and  C_14
    8  A    between atoms: C_11  and  C_32
    9  A    between atoms: C_14  and  C_29
   10  A    between atoms: C_24  and  C_41
   11  A    between atoms: C_25  and  O_44
   12  A    between atoms: O_27  and  C_30
   13  A    between atoms: C_41  and  C_43
                            x       y       z     vdW  Elec       q    Type
                         _______ _______ _______ _____ _____    ______ ____

>  <TORSDO>
F 13

$$$$
=
 OpenBabel10222420243D

 47 53  0  0  1  0  0  0  0  0999 V2000
  187.5960  177.5870  142.7880 S   0  0  0  0  0  0  0  0  0  0  0  0
  186.9200  177.6990  145.1940 C   0  0  0  0  0  0  0  0  0  0  0  0
  182.4630  178.6200  141.0560 C   0  0  0  0  0  2  0  0  0  0  0  0
  186.3890  177.8900  143.9200 C   0  0  0  0  0  0  0  0  0  0  0  0
  183.0940  179.0030  142.3660 C   0  0  1  0  0  3  0  0  0  0  0  0
  186.1110  177.9020  146.4490 C   0  0  0  0  0  2  0  0  0  0  0  0
  184.8330  178.7190  146.1990 C   0  0  0  0  0  2  0  0  0  0  0  0
  184.1650  178.2480  144.9120 C   0  0  1  0  0  3  0  0  0  0  0  0
  182.2410  179.0030  143.6040 C   0  0  0  0  0  0  0  0  0  0  0  0
  188.2460  177.2520  145.1980 C   0  0  0  0  0  3  0  0  0  0  0  0
  183.6670  178.2480  140.1810 C   0  0  1  0  0  3  0  0  0  0  0  0
  184.8770  178.1570  141.1160 C   0  0  0  0  0  2  0  0  0  0  0  0
  188.7590  177.1230  143.9110 C   0  0  0  0  0  0  0  0  0  0  0  0
  182.7890  178.7500  144.7640 N   0  0  0  0  0  0  0  0  0  0  0  0
  185.0590  178.5500  143.6950 C   0  0  2  0  0  3  0  0  0  0  0  0
  184.2620  178.0710  142.4910 C   0  0  1  0  0  3  0  0  0  0  0  0
  183.4370  176.9550  139.5550 N   0  0  0  0  0  2  0  0  0  0  0  0
  182.4790  177.8350  137.6140 O   0  0  0  0  0  0  0  0  0  0  0  0
  182.8090  176.8180  138.2790 C   0  0  0  0  0  0  0  0  0  0  0  0
  182.5000  175.4620  137.7550 C   0  0  0  0  0  2  0  0  0  0  0  0
  183.7700  174.6290  137.7190 C   0  0  0  0  0  2  0  0  0  0  0  0
  184.6610  172.5790  136.3940 C   0  0  0  0  0  0  0  0  0  0  0  0
  183.1640  170.6040  136.3410 C   0  0  0  0  0  2  0  0  0  0  0  0
  182.0030  171.5890  136.1750 C   0  0  0  0  0  2  0  0  0  0  0  0
  183.5330  173.3440  136.9980 C   0  0  0  0  0  0  0  0  0  0  0  0
  182.2860  172.8560  136.9330 C   0  0  0  0  0  3  0  0  0  0  0  0
  184.4760  171.2890  136.0710 C   0  0  0  0  0  3  0  0  0  0  0  0
  187.0140  172.6430  137.2330 C   0  0  0  0  0  2  0  0  0  0  0  0
  186.0200  173.2030  136.2240 C   0  0  0  0  0  3  0  0  0  0  0  0
  187.0300  172.1480  135.8060 C   0  0  0  0  0  2  0  0  0  0  0  0
  179.8400  178.5690  143.9600 C   0  0  0  0  0  1  0  0  0  0  0  0
  180.9040  179.3970  143.5190 O   0  0  0  0  0  0  0  0  0  0  0  0
  190.1630  176.7460  143.5650 C   0  0  0  0  0  2  0  0  0  0  0  0
  190.6920  177.5560  142.3880 C   0  0  0  0  0  2  0  0  0  0  0  0
  190.9830  176.6670  141.1910 C   0  0  0  0  0  2  0  0  0  0  0  0
  191.1310  177.5030  139.9300 C   0  0  0  0  0  2  0  0  0  0  0  0
  190.1900  177.0100  138.8720 C   0  0  0  0  0  0  0  0  0  0  0  0
  188.9170  177.6080  138.7810 C   0  0  0  0  0  0  0  0  0  0  0  0
  188.5950  178.6490  139.6480 O   0  0  0  0  0  1  0  0  0  0  0  0
  187.9830  177.1500  137.8230 C   0  0  0  0  0  0  0  0  0  0  0  0
  189.5930  175.5050  137.0660 C   0  0  0  0  0  3  0  0  0  0  0  0
  188.3370  176.0980  136.9790 C   0  0  0  0  0  3  0  0  0  0  0  0
  190.5340  175.9470  137.9960 C   0  0  0  0  0  0  0  0  0  0  0  0
  191.8340  175.2450  137.9750 C   0  0  0  0  0  3  0  0  0  0  0  0
  192.9820  175.7700  137.5630 C   0  0  0  0  0  2  0  0  0  0  0  0
  185.8620  177.4840  136.5370 C   0  0  0  0  0  1  0  0  0  0  0  0
  186.6980  177.6920  137.6640 O   0  0  0  0  0  0  0  0  0  0  0  0
  1 13  1  0  0  0  0
  1  4  1  0  0  0  0
  2 10  1  0  0  0  0
  2  6  1  0  0  0  0
  4  2  2  0  0  0  0
  5  3  1  6  0  0  0
  5 16  1  0  0  0  0
  5  9  1  0  0  0  0
  7  6  1  0  0  0  0
  8  7  1  1  0  0  0
  9 14  2  0  0  0  0
 11 17  1  1  0  0  0
 11  3  1  0  0  0  0
 11 12  1  0  0  0  0
 13 10  2  0  0  0  0
 14  8  1  0  0  0  0
 15  4  1  1  0  0  0
 15  8  1  0  0  0  0
 16 12  1  6  0  0  0
 16 15  1  0  0  0  0
 18 19  2  0  0  0  0
 19 17  1  0  0  0  0
 20 19  1  0  0  0  0
 21 20  1  0  0  0  0
 22 25  1  0  0  0  0
 24 23  1  0  0  0  0
 24 26  1  0  0  0  0
 25 21  1  0  0  0  0
 26 25  2  0  0  0  0
 27 23  1  0  0  0  0
 27 22  2  0  0  0  0
 29 22  1  0  0  0  0
 29 28  1  0  0  0  0
 30 29  1  0  0  0  0
 30 28  1  0  0  0  0
 32  9  1  0  0  0  0
 32 31  1  0  0  0  0
 33 13  1  0  0  0  0
 34 33  1  0  0  0  0
 35 34  1  0  0  0  0
 36 35  1  0  0  0  0
 37 36  1  0  0  0  0
 38 37  1  0  0  0  0
 38 39  1  0  0  0  0
 40 38  2  0  0  0  0
 41 43  1  0  0  0  0
 42 41  2  0  0  0  0
 42 40  1  0  0  0  0
 43 37  2  0  0  0  0
 44 43  1  0  0  0  0
 45 44  2  0  0  0  0
 46 47  1  0  0  0  0
 47 40  1  0  0  0  0
M  END
>  <MODEL>
6

>  <REMARK>
 VINA RESULT:      -8.6      2.933      7.340
  Name = 
  13 active torsions:
  status: ('A' for Active; 'I' for Inactive)
    1  A    between atoms: C_2  and  C_46
    2  A    between atoms: N_4  and  C_34
    3  A    between atoms: C_5  and  C_24
    4  A    between atoms: C_6  and  C_20
    5  A    between atoms: C_7  and  C_39
    6  A    between atoms: C_7  and  C_43
    7  A    between atoms: C_11  and  C_14
    8  A    between atoms: C_11  and  C_32
    9  A    between atoms: C_14  and  C_29
   10  A    between atoms: C_24  and  C_41
   11  A    between atoms: C_25  and  O_44
   12  A    between atoms: O_27  and  C_30
   13  A    between atoms: C_41  and  C_43
                            x       y       z     vdW  Elec       q    Type
                         _______ _______ _______ _____ _____    ______ ____

>  <TORSDO>
F 13

$$$$
=
 OpenBabel10222420243D

 47 53  0  0  1  0  0  0  0  0999 V2000
  186.4220  177.6370  144.3790 S   0  0  0  0  0  0  0  0  0  0  0  0
  186.5590  178.5180  146.7160 C   0  0  0  0  0  0  0  0  0  0  0  0
  191.6790  175.9720  144.4480 C   0  0  0  0  0  2  0  0  0  0  0  0
  187.3260  177.8200  145.7860 C   0  0  0  0  0  0  0  0  0  0  0  0
  190.7510  176.1610  145.6170 C   0  0  1  0  0  3  0  0  0  0  0  0
  187.0600  178.8440  148.1000 C   0  0  0  0  0  2  0  0  0  0  0  0
  188.2760  177.9930  148.5000 C   0  0  0  0  0  2  0  0  0  0  0  0
  189.2440  177.8940  147.3270 C   0  0  1  0  0  3  0  0  0  0  0  0
  191.3190  176.6650  146.9140 C   0  0  0  0  0  0  0  0  0  0  0  0
  185.3120  178.9310  146.2340 C   0  0  0  0  0  3  0  0  0  0  0  0
  190.7300  175.9560  143.2440 C   0  0  1  0  0  3  0  0  0  0  0  0
  189.3640  176.4250  143.7560 C   0  0  0  0  0  2  0  0  0  0  0  0
  185.0990  178.5230  144.9210 C   0  0  0  0  0  0  0  0  0  0  0  0
  190.5640  177.3710  147.7160 N   0  0  0  0  0  0  0  0  0  0  0  0
  188.6030  177.1230  146.1580 C   0  0  2  0  0  3  0  0  0  0  0  0
  189.6800  177.0650  145.0860 C   0  0  1  0  0  3  0  0  0  0  0  0
  191.2120  176.8800  142.2280 N   0  0  0  0  0  2  0  0  0  0  0  0
  189.8720  176.0190  140.5180 O   0  0  0  0  0  0  0  0  0  0  0  0
  190.7620  176.8360  140.8730 C   0  0  0  0  0  0  0  0  0  0  0  0
  191.3850  177.7330  139.8630 C   0  0  0  0  0  2  0  0  0  0  0  0
  190.9300  177.3260  138.4730 C   0  0  0  0  0  2  0  0  0  0  0  0
  191.2280  175.1070  137.1530 C   0  0  0  0  0  0  0  0  0  0  0  0
  193.5150  174.6640  136.3060 C   0  0  0  0  0  2  0  0  0  0  0  0
  194.0290  175.2170  137.6380 C   0  0  0  0  0  2  0  0  0  0  0  0
  191.8010  176.2400  137.9340 C   0  0  0  0  0  0  0  0  0  0  0  0
  193.1260  176.3150  138.1250 C   0  0  0  0  0  3  0  0  0  0  0  0
  192.0450  174.3560  136.3970 C   0  0  0  0  0  3  0  0  0  0  0  0
  189.0540  175.7080  136.0780 C   0  0  0  0  0  2  0  0  0  0  0  0
  189.7450  174.8510  137.1300 C   0  0  0  0  0  3  0  0  0  0  0  0
  189.3400  174.2530  135.7940 C   0  0  0  0  0  2  0  0  0  0  0  0
  192.8800  175.8080  148.6200 C   0  0  0  0  0  1  0  0  0  0  0  0
  192.5980  176.2660  147.3070 O   0  0  0  0  0  0  0  0  0  0  0  0
  183.8440  178.7290  144.1370 C   0  0  0  0  0  2  0  0  0  0  0  0
  184.1360  179.1640  142.7050 C   0  0  0  0  0  2  0  0  0  0  0  0
  183.6280  178.1410  141.7020 C   0  0  0  0  0  2  0  0  0  0  0  0
  182.6710  178.7930  140.7170 C   0  0  0  0  0  2  0  0  0  0  0  0
  181.4790  177.9120  140.4970 C   0  0  0  0  0  0  0  0  0  0  0  0
  181.4780  177.0590  139.3750 C   0  0  0  0  0  0  0  0  0  0  0  0
  182.5910  177.0400  138.5390 O   0  0  0  0  0  1  0  0  0  0  0  0
  180.3590  176.2370  139.1070 C   0  0  0  0  0  0  0  0  0  0  0  0
  179.2540  177.1330  141.0700 C   0  0  0  0  0  3  0  0  0  0  0  0
  179.2580  176.2910  139.9620 C   0  0  0  0  0  3  0  0  0  0  0  0
  180.3510  177.9440  141.3600 C   0  0  0  0  0  0  0  0  0  0  0  0
  180.2280  178.7780  142.5730 C   0  0  0  0  0  3  0  0  0  0  0  0
  180.2190  178.3220  143.8190 C   0  0  0  0  0  2  0  0  0  0  0  0
  180.7160  174.0080  138.0270 C   0  0  0  0  0  1  0  0  0  0  0  0
  180.2780  175.3570  138.0170 O   0  0  0  0  0  0  0  0  0  0  0  0
  1 13  1  0  0  0  0
  1  4  1  0  0  0  0
  2  6  1  0  0  0  0
  4  2  2  0  0  0  0
  5  3  1  6  0  0  0
  5  9  1  0  0  0  0
  6  7  1  0  0  0  0
  8 14  1  0  0  0  0
  8  7  1  1  0  0  0
  9 32  1  0  0  0  0
  9 14  2  0  0  0  0
 10  2  1  0  0  0  0
 11 17  1  6  0  0  0
 11 12  1  0  0  0  0
 11  3  1  0  0  0  0
 13 10  2  0  0  0  0
 15  4  1  6  0  0  0
 15  8  1  0  0  0  0
 16 12  1  6  0  0  0
 16  5  1  0  0  0  0
 16 15  1  0  0  0  0
 18 19  2  0  0  0  0
 19 17  1  0  0  0  0
 20 19  1  0  0  0  0
 21 20  1  0  0  0  0
 22 25  1  0  0  0  0
 23 27  1  0  0  0  0
 23 24  1  0  0  0  0
 24 26  1  0  0  0  0
 25 26  2  0  0  0  0
 25 21  1  0  0  0  0
 27 22  2  0  0  0  0
 28 29  1  0  0  0  0
 29 22  1  0  0  0  0
 30 28  1  0  0  0  0
 30 29  1  0  0  0  0
 32 31  1  0  0  0  0
 33 13  1  0  0  0  0
 34 33  1  0  0  0  0
 35 34  1  0  0  0  0
 36 35  1  0  0  0  0
 37 36  1  0  0  0  0
 37 43  1  0  0  0  0
 38 37  2  0  0  0  0
 39 38  1  0  0  0  0
 40 38  1  0  0  0  0
 40 42  2  0  0  0  0
 41 43  2  0  0  0  0
 42 41  1  0  0  0  0
 43 44  1  0  0  0  0
 44 45  2  0  0  0  0
 47 46  1  0  0  0  0
 47 40  1  0  0  0  0
M  END
>  <MODEL>
7

>  <REMARK>
 VINA RESULT:      -8.5      1.590      2.653
  Name = 
  13 active torsions:
  status: ('A' for Active; 'I' for Inactive)
    1  A    between atoms: C_2  and  C_46
    2  A    between atoms: N_4  and  C_34
    3  A    between atoms: C_5  and  C_24
    4  A    between atoms: C_6  and  C_20
    5  A    between atoms: C_7  and  C_39
    6  A    between atoms: C_7  and  C_43
    7  A    between atoms: C_11  and  C_14
    8  A    between atoms: C_11  and  C_32
    9  A    between atoms: C_14  and  C_29
   10  A    between atoms: C_24  and  C_41
   11  A    between atoms: C_25  and  O_44
   12  A    between atoms: O_27  and  C_30
   13  A    between atoms: C_41  and  C_43
                            x       y       z     vdW  Elec       q    Type
                         _______ _______ _______ _____ _____    ______ ____

>  <TORSDO>
F 13

$$$$
=
 OpenBabel10222420243D

 47 53  0  0  1  0  0  0  0  0999 V2000
  188.3640  178.0370  139.8760 S   0  0  0  0  0  0  0  0  0  0  0  0
  189.8770  176.9140  141.5210 C   0  0  0  0  0  0  0  0  0  0  0  0
  184.3480  178.6170  143.6120 C   0  0  0  0  0  2  0  0  0  0  0  0
  188.6320  177.5380  141.4600 C   0  0  0  0  0  0  0  0  0  0  0  0
  185.8280  178.4980  143.8520 C   0  0  1  0  0  3  0  0  0  0  0  0
  190.4440  176.3570  142.8020 C   0  0  0  0  0  2  0  0  0  0  0  0
  189.7300  176.9070  144.0480 C   0  0  0  0  0  2  0  0  0  0  0  0
  188.2250  176.9310  143.8100 C   0  0  1  0  0  3  0  0  0  0  0  0
  186.3020  177.7620  145.0750 C   0  0  0  0  0  0  0  0  0  0  0  0
  190.5230  176.8070  140.2850 C   0  0  0  0  0  3  0  0  0  0  0  0
  184.2600  178.9420  142.1150 C   0  0  1  0  0  3  0  0  0  0  0  0
  185.6560  178.7020  141.5310 C   0  0  0  0  0  2  0  0  0  0  0  0
  189.7820  177.3790  139.2550 C   0  0  0  0  0  0  0  0  0  0  0  0
  187.4530  177.1410  145.0460 N   0  0  0  0  0  0  0  0  0  0  0  0
  187.8680  177.9280  142.6920 C   0  0  2  0  0  3  0  0  0  0  0  0
  186.3510  177.8810  142.5900 C   0  0  1  0  0  3  0  0  0  0  0  0
  183.3050  178.0490  141.4750 N   0  0  0  0  0  2  0  0  0  0  0  0
  181.5820  179.6260  141.3850 O   0  0  0  0  0  0  0  0  0  0  0  0
  181.9690  178.4470  141.1640 C   0  0  0  0  0  0  0  0  0  0  0  0
  181.0130  177.4470  140.6190 C   0  0  0  0  0  2  0  0  0  0  0  0
  179.9620  178.1530  139.7820 C   0  0  0  0  0  2  0  0  0  0  0  0
  180.6020  179.2830  137.5310 C   0  0  0  0  0  0  0  0  0  0  0  0
  181.6670  177.8000  135.8530 C   0  0  0  0  0  2  0  0  0  0  0  0
  180.6670  176.7250  136.2870 C   0  0  0  0  0  2  0  0  0  0  0  0
  180.3010  178.0620  138.3310 C   0  0  0  0  0  0  0  0  0  0  0  0
  180.3740  176.8530  137.7560 C   0  0  0  0  0  3  0  0  0  0  0  0
  181.2340  179.1520  136.3530 C   0  0  0  0  0  3  0  0  0  0  0  0
  181.5650  181.4370  138.3530 C   0  0  0  0  0  2  0  0  0  0  0  0
  180.2910  180.6560  138.0610 C   0  0  0  0  0  3  0  0  0  0  0  0
  180.7840  181.7150  137.0910 C   0  0  0  0  0  2  0  0  0  0  0  0
  185.7720  178.9140  147.1900 C   0  0  0  0  0  1  0  0  0  0  0  0
  185.5740  177.8580  146.2620 O   0  0  0  0  0  0  0  0  0  0  0  0
  190.2180  177.5050  137.8320 C   0  0  0  0  0  2  0  0  0  0  0  0
  189.0290  177.5840  136.8820 C   0  0  0  0  0  2  0  0  0  0  0  0
  188.3480  176.2340  136.7350 C   0  0  0  0  0  2  0  0  0  0  0  0
  187.1320  176.3470  135.8290 C   0  0  0  0  0  2  0  0  0  0  0  0
  185.9390  175.7230  136.4870 C   0  0  0  0  0  0  0  0  0  0  0  0
  185.6730  174.3620  136.2310 C   0  0  0  0  0  0  0  0  0  0  0  0
  186.5410  173.6450  135.4110 O   0  0  0  0  0  1  0  0  0  0  0  0
  184.5380  173.7400  136.8010 C   0  0  0  0  0  0  0  0  0  0  0  0
  183.9440  175.8360  137.8620 C   0  0  0  0  0  3  0  0  0  0  0  0
  183.6850  174.4930  137.6080 C   0  0  0  0  0  3  0  0  0  0  0  0
  185.0640  176.4680  137.3200 C   0  0  0  0  0  0  0  0  0  0  0  0
  185.2330  177.8910  137.6810 C   0  0  0  0  0  3  0  0  0  0  0  0
  184.3020  178.6580  138.2330 C   0  0  0  0  0  2  0  0  0  0  0  0
  182.9210  171.8290  136.8310 C   0  0  0  0  0  1  0  0  0  0  0  0
  184.2030  172.3920  136.6010 O   0  0  0  0  0  0  0  0  0  0  0  0
  1  4  1  0  0  0  0
  2  6  1  0  0  0  0
  4  2  2  0  0  0  0
  5  3  1  6  0  0  0
  5  9  1  0  0  0  0
  6  7  1  0  0  0  0
  8  7  1  1  0  0  0
  8 14  1  0  0  0  0
  9 32  1  0  0  0  0
 10  2  1  0  0  0  0
 11 17  1  6  0  0  0
 11  3  1  0  0  0  0
 12 11  1  0  0  0  0
 13  1  1  0  0  0  0
 13 10  2  0  0  0  0
 14  9  2  0  0  0  0
 15  4  1  6  0  0  0
 15  8  1  0  0  0  0
 16 12  1  6  0  0  0
 16 15  1  0  0  0  0
 16  5  1  0  0  0  0
 19 18  2  0  0  0  0
 19 17  1  0  0  0  0
 20 19  1  0  0  0  0
 21 20  1  0  0  0  0
 22 29  1  0  0  0  0
 22 25  1  0  0  0  0
 23 24  1  0  0  0  0
 23 27  1  0  0  0  0
 24 26  1  0  0  0  0
 25 21  1  0  0  0  0
 26 25  2  0  0  0  0
 27 22  2  0  0  0  0
 29 28  1  0  0  0  0
 30 29  1  0  0  0  0
 30 28  1  0  0  0  0
 32 31  1  0  0  0  0
 33 13  1  0  0  0  0
 34 33  1  0  0  0  0
 35 34  1  0  0  0  0
 36 37  1  0  0  0  0
 36 35  1  0  0  0  0
 37 43  1  0  0  0  0
 38 37  2  0  0  0  0
 38 40  1  0  0  0  0
 39 38  1  0  0  0  0
 40 42  2  0  0  0  0
 42 41  1  0  0  0  0
 43 44  1  0  0  0  0
 43 41  2  0  0  0  0
 44 45  2  0  0  0  0
 47 40  1  0  0  0  0
 47 46  1  0  0  0  0
M  END
>  <MODEL>
8

>  <REMARK>
 VINA RESULT:      -8.5      3.114      7.842
  Name = 
  13 active torsions:
  status: ('A' for Active; 'I' for Inactive)
    1  A    between atoms: C_2  and  C_46
    2  A    between atoms: N_4  and  C_34
    3  A    between atoms: C_5  and  C_24
    4  A    between atoms: C_6  and  C_20
    5  A    between atoms: C_7  and  C_39
    6  A    between atoms: C_7  and  C_43
    7  A    between atoms: C_11  and  C_14
    8  A    between atoms: C_11  and  C_32
    9  A    between atoms: C_14  and  C_29
   10  A    between atoms: C_24  and  C_41
   11  A    between atoms: C_25  and  O_44
   12  A    between atoms: O_27  and  C_30
   13  A    between atoms: C_41  and  C_43
                            x       y       z     vdW  Elec       q    Type
                         _______ _______ _______ _____ _____    ______ ____

>  <TORSDO>
F 13

$$$$
=
 OpenBabel10222420243D

 47 53  0  0  1  0  0  0  0  0999 V2000
  186.4100  177.4880  143.7490 S   0  0  0  0  0  0  0  0  0  0  0  0
  186.0830  178.5070  146.0100 C   0  0  0  0  0  0  0  0  0  0  0  0
  191.6810  176.2570  144.8090 C   0  0  0  0  0  2  0  0  0  0  0  0
  187.0450  177.8220  145.2710 C   0  0  0  0  0  0  0  0  0  0  0  0
  190.5540  176.4360  145.7900 C   0  0  1  0  0  3  0  0  0  0  0  0
  186.3150  178.9490  147.4320 C   0  0  0  0  0  2  0  0  0  0  0  0
  187.5010  178.2220  148.0880 C   0  0  0  0  0  2  0  0  0  0  0  0
  188.6600  178.1360  147.1020 C   0  0  1  0  0  3  0  0  0  0  0  0
  190.8550  177.0560  147.1270 C   0  0  0  0  0  0  0  0  0  0  0  0
  184.9110  178.7900  145.2990 C   0  0  0  0  0  3  0  0  0  0  0  0
  190.9560  176.0980  143.4670 C   0  0  1  0  0  3  0  0  0  0  0  0
  189.4930  176.4830  143.7100 C   0  0  0  0  0  2  0  0  0  0  0  0
  184.9550  178.2940  144.0000 C   0  0  0  0  0  0  0  0  0  0  0  0
  189.9270  177.7440  147.7410 N   0  0  0  0  0  0  0  0  0  0  0  0
  188.2840  177.2510  145.8980 C   0  0  2  0  0  3  0  0  0  0  0  0
  189.5300  177.2200  145.0270 C   0  0  1  0  0  3  0  0  0  0  0  0
  191.5400  176.9980  142.4850 N   0  0  0  0  0  2  0  0  0  0  0  0
  190.1830  176.2830  140.7210 O   0  0  0  0  0  0  0  0  0  0  0  0
  191.1260  177.0180  141.1170 C   0  0  0  0  0  0  0  0  0  0  0  0
  191.8480  177.8800  140.1450 C   0  0  0  0  0  2  0  0  0  0  0  0
  193.0510  177.1320  139.5980 C   0  0  0  0  0  2  0  0  0  0  0  0
  193.4440  175.1540  137.9590 C   0  0  0  0  0  0  0  0  0  0  0  0
  191.5010  174.5250  136.5530 C   0  0  0  0  0  2  0  0  0  0  0  0
  191.2250  176.0250  136.4060 C   0  0  0  0  0  2  0  0  0  0  0  0
  192.6760  176.3620  138.3750 C   0  0  0  0  0  0  0  0  0  0  0  0
  191.6040  176.7470  137.6680 C   0  0  0  0  0  3  0  0  0  0  0  0
  192.8890  174.2980  137.0860 C   0  0  0  0  0  3  0  0  0  0  0  0
  195.1570  173.3770  138.3470 C   0  0  0  0  0  2  0  0  0  0  0  0
  194.7830  174.8370  138.5670 C   0  0  0  0  0  3  0  0  0  0  0  0
  195.7710  174.4490  137.4810 C   0  0  0  0  0  2  0  0  0  0  0  0
  192.4730  175.4660  148.0940 C   0  0  0  0  0  1  0  0  0  0  0  0
  192.0730  176.7840  147.7540 O   0  0  0  0  0  0  0  0  0  0  0  0
  183.8420  178.3540  143.0050 C   0  0  0  0  0  2  0  0  0  0  0  0
  184.3330  178.8020  141.6330 C   0  0  0  0  0  2  0  0  0  0  0  0
  183.2250  178.7250  140.5970 C   0  0  0  0  0  2  0  0  0  0  0  0
  183.6520  179.4090  139.3080 C   0  0  0  0  0  2  0  0  0  0  0  0
  183.9260  178.3860  138.2480 C   0  0  0  0  0  0  0  0  0  0  0  0
  185.2670  178.0360  137.9900 C   0  0  0  0  0  0  0  0  0  0  0  0
  186.2770  178.6230  138.7480 O   0  0  0  0  0  1  0  0  0  0  0  0
  185.5750  177.1030  136.9730 C   0  0  0  0  0  0  0  0  0  0  0  0
  183.2130  176.8880  136.4780 C   0  0  0  0  0  3  0  0  0  0  0  0
  184.5380  176.5440  136.2270 C   0  0  0  0  0  3  0  0  0  0  0  0
  182.8840  177.7980  137.4840 C   0  0  0  0  0  0  0  0  0  0  0  0
  181.4410  178.0640  137.6600 C   0  0  0  0  0  3  0  0  0  0  0  0
  180.5900  177.2770  138.3060 C   0  0  0  0  0  2  0  0  0  0  0  0
  187.5440  175.5780  137.2200 C   0  0  0  0  0  1  0  0  0  0  0  0
  186.8800  176.6970  136.6550 O   0  0  0  0  0  0  0  0  0  0  0  0
  1 13  1  0  0  0  0
  1  4  1  0  0  0  0
  2  6  1  0  0  0  0
  4  2  2  0  0  0  0
  5  3  1  6  0  0  0
  5  9  1  0  0  0  0
  6  7  1  0  0  0  0
  8 14  1  0  0  0  0
  8  7  1  1  0  0  0
  9 14  2  0  0  0  0
  9 32  1  0  0  0  0
 10  2  1  0  0  0  0
 11 17  1  6  0  0  0
 11 12  1  0  0  0  0
 11  3  1  0  0  0  0
 13 10  2  0  0  0  0
 15  4  1  6  0  0  0
 15  8  1  0  0  0  0
 16 12  1  6  0  0  0
 16  5  1  0  0  0  0
 16 15  1  0  0  0  0
 18 19  2  0  0  0  0
 19 17  1  0  0  0  0
 20 19  1  0  0  0  0
 21 20  1  0  0  0  0
 22 25  1  0  0  0  0
 22 29  1  0  0  0  0
 23 27  1  0  0  0  0
 24 23  1  0  0  0  0
 24 26  1  0  0  0  0
 25 21  1  0  0  0  0
 26 25  2  0  0  0  0
 27 22  2  0  0  0  0
 28 29  1  0  0  0  0
 30 28  1  0  0  0  0
 30 29  1  0  0  0  0
 32 31  1  0  0  0  0
 33 13  1  0  0  0  0
 34 33  1  0  0  0  0
 35 34  1  0  0  0  0
 36 35  1  0  0  0  0
 37 36  1  0  0  0  0
 38 37  1  0  0  0  0
 38 39  1  0  0  0  0
 40 38  2  0  0  0  0
 41 43  1  0  0  0  0
 42 41  2  0  0  0  0
 42 40  1  0  0  0  0
 43 44  1  0  0  0  0
 43 37  2  0  0  0  0
 44 45  2  0  0  0  0
 47 40  1  0  0  0  0
 47 46  1  0  0  0  0
M  END
>  <MODEL>
9

>  <REMARK>
 VINA RESULT:      -8.5      1.187      2.115
  Name = 
  13 active torsions:
  status: ('A' for Active; 'I' for Inactive)
    1  A    between atoms: C_2  and  C_46
    2  A    between atoms: N_4  and  C_34
    3  A    between atoms: C_5  and  C_24
    4  A    between atoms: C_6  and  C_20
    5  A    between atoms: C_7  and  C_39
    6  A    between atoms: C_7  and  C_43
    7  A    between atoms: C_11  and  C_14
    8  A    between atoms: C_11  and  C_32
    9  A    between atoms: C_14  and  C_29
   10  A    between atoms: C_24  and  C_41
   11  A    between atoms: C_25  and  O_44
   12  A    between atoms: O_27  and  C_30
   13  A    between atoms: C_41  and  C_43
                            x       y       z     vdW  Elec       q    Type
                         _______ _______ _______ _____ _____    ______ ____

>  <TORSDO>
F 13

$$$$
