=
 OpenBabel10222416373D

 32 36  0  0  1  0  0  0  0  0999 V2000
  190.8710  176.6530  141.4540 C   0  0  0  0  0  0  0  0  0  0  0  0
  186.6270  177.9890  144.5130 C   0  0  0  0  0  0  0  0  0  0  0  0
  187.5830  177.8950  137.7880 C   0  0  0  0  0  0  0  0  0  0  0  0
  187.6520  177.9690  139.2550 C   0  0  0  0  0  0  0  0  0  0  0  0
  187.8700  177.4520  144.0300 N   0  0  0  0  0  2  0  0  0  0  0  0
  185.6250  178.2020  142.2410 O   0  0  0  0  0  0  0  0  0  0  0  0
  192.0050  175.8960  137.5900 O   0  0  0  0  0  0  0  0  0  0  0  0
  190.9770  177.9760  143.5800 C   0  0  2  0  0  3  0  0  0  0  0  0
  190.2440  175.5820  143.4660 N   0  0  0  0  0  2  0  0  0  0  0  0
  184.3450  178.7650  144.1720 C   0  0  0  0  0  3  0  0  0  0  0  0
  191.1110  176.5840  139.9780 C   0  0  1  0  0  3  0  0  0  0  0  0
  184.1770  178.9150  145.5480 C   0  0  0  0  0  3  0  0  0  0  0  0
  192.9570  176.6950  138.2460 C   0  0  0  0  0  2  0  0  0  0  0  0
  186.3940  178.2740  137.0940 N   0  0  0  0  0  1  0  0  0  0  0  0
  189.9430  177.1090  139.1750 C   0  0  0  0  0  0  0  0  0  0  0  0
  190.2700  176.7970  144.2790 C   0  0  2  0  0  3  0  0  0  0  0  0
  188.8320  177.5810  139.8850 O   0  0  0  0  0  0  0  0  0  0  0  0
  187.7200  179.1370  141.9300 O   0  0  0  0  0  0  0  0  0  0  0  0
  190.5640  175.5700  142.0970 N   0  0  0  0  0  0  0  0  0  0  0  0
  190.5670  179.3470  144.0940 C   0  0  0  0  0  1  0  0  0  0  0  0
  188.6330  177.4610  135.7170 O   0  0  0  0  0  1  0  0  0  0  0  0
  191.1270  176.7910  136.9690 C   0  0  0  0  0  2  0  0  0  0  0  0
  190.8570  177.9130  142.1310 N   0  0  0  0  0  2  0  0  0  0  0  0
  192.4360  177.2300  139.5870 C   0  0  0  0  0  2  0  0  0  0  0  0
  185.5610  178.3230  143.6360 C   0  0  0  0  0  0  0  0  0  0  0  0
  186.7070  178.5690  141.4380 C   0  0  0  0  0  0  0  0  0  0  0  0
  188.9280  177.0690  144.9610 C   0  0  0  0  0  2  0  0  0  0  0  0
  188.6690  177.5000  137.1080 C   0  0  0  0  0  0  0  0  0  0  0  0
  185.2280  178.6140  146.4120 C   0  0  0  0  0  3  0  0  0  0  0  0
  186.6130  178.3690  139.9860 C   0  0  0  0  0  3  0  0  0  0  0  0
  189.9110  177.0890  137.8170 C   0  0  0  0  0  0  0  0  0  0  0  0
  186.4390  178.1510  145.8980 C   0  0  0  0  0  3  0  0  0  0  0  0
  1 19  2  0  0  0  0
  1 23  1  0  0  0  0
  2 32  1  0  0  0  0
  3  4  1  0  0  0  0
  4 17  1  0  0  0  0
  4 30  2  0  0  0  0
  5  2  1  0  0  0  0
  5 27  1  0  0  0  0
  6 25  1  0  0  0  0
  7 13  1  0  0  0  0
  8 20  1  1  0  0  0
  8 16  1  0  0  0  0
  9 16  1  0  0  0  0
 10 12  2  0  0  0  0
 11 24  1  1  0  0  0
 11  1  1  0  0  0  0
 12 29  1  0  0  0  0
 13 24  1  0  0  0  0
 14  3  1  0  0  0  0
 15 17  1  0  0  0  0
 15 11  1  0  0  0  0
 16 27  1  6  0  0  0
 19  9  1  0  0  0  0
 21 28  1  0  0  0  0
 22  7  1  0  0  0  0
 22 31  1  0  0  0  0
 23  8  1  0  0  0  0
 25 10  1  0  0  0  0
 25  2  2  0  0  0  0
 26 18  2  0  0  0  0
 26  6  1  0  0  0  0
 28  3  2  0  0  0  0
 28 31  1  0  0  0  0
 30 26  1  0  0  0  0
 31 15  2  0  0  0  0
 32 29  2  0  0  0  0
M  END
>  <MODEL>
1

>  <REMARK>
 VINA RESULT:     -10.2      0.000      0.000
  Name = 
  0 active torsions:
  status: ('A' for Active; 'I' for Inactive)
                            x       y       z     vdW  Elec       q    Type
                         _______ _______ _______ _____ _____    ______ ____

>  <TORSDO>
F 0

$$$$
=
 OpenBabel10222416373D

 32 36  0  0  1  0  0  0  0  0999 V2000
  189.7800  177.9250  145.3410 C   0  0  0  0  0  0  0  0  0  0  0  0
  190.2860  177.4490  139.9860 C   0  0  0  0  0  0  0  0  0  0  0  0
  184.9280  178.6020  143.9990 C   0  0  0  0  0  0  0  0  0  0  0  0
  186.1890  178.2110  143.3510 C   0  0  0  0  0  0  0  0  0  0  0  0
  190.5400  177.6390  141.3890 N   0  0  0  0  0  2  0  0  0  0  0  0
  187.8730  178.0450  140.1560 O   0  0  0  0  0  0  0  0  0  0  0  0
  187.1630  179.0460  148.2890 O   0  0  0  0  0  0  0  0  0  0  0  0
  191.2080  176.2340  144.1650 C   0  0  2  0  0  3  0  0  0  0  0  0
  191.6100  178.7050  144.0660 N   0  0  0  0  0  2  0  0  0  0  0  0
  188.8380  177.5470  138.0330 C   0  0  0  0  0  3  0  0  0  0  0  0
  188.6300  178.2140  146.2570 C   0  0  1  0  0  3  0  0  0  0  0  0
  189.9020  177.1810  137.2100 C   0  0  0  0  0  3  0  0  0  0  0  0
  187.8370  177.8640  148.6380 C   0  0  0  0  0  2  0  0  0  0  0  0
  183.7390  178.7830  143.2300 N   0  0  0  0  0  1  0  0  0  0  0  0
  187.3080  178.2740  145.5280 C   0  0  0  0  0  0  0  0  0  0  0  0
  191.9170  177.4090  143.4630 C   0  0  2  0  0  3  0  0  0  0  0  0
  187.3230  178.0550  144.1450 O   0  0  0  0  0  0  0  0  0  0  0  0
  188.1240  176.5630  141.9160 O   0  0  0  0  0  0  0  0  0  0  0  0
  190.5660  178.8930  144.9890 N   0  0  0  0  0  0  0  0  0  0  0  0
  191.0340  174.9970  143.2990 C   0  0  0  0  0  1  0  0  0  0  0  0
  183.7090  179.0850  145.9640 O   0  0  0  0  0  1  0  0  0  0  0  0
  185.9880  178.6330  147.6490 C   0  0  0  0  0  2  0  0  0  0  0  0
  189.9380  176.6280  144.7590 N   0  0  0  0  0  2  0  0  0  0  0  0
  188.6060  177.2640  147.4510 C   0  0  0  0  0  2  0  0  0  0  0  0
  189.0030  177.6690  139.4180 C   0  0  0  0  0  0  0  0  0  0  0  0
  187.4900  177.5180  141.3900 C   0  0  0  0  0  0  0  0  0  0  0  0
  191.8830  177.4560  141.9340 C   0  0  0  0  0  2  0  0  0  0  0  0
  184.9040  178.7530  145.3320 C   0  0  0  0  0  0  0  0  0  0  0  0
  191.1560  176.9390  137.7640 C   0  0  0  0  0  3  0  0  0  0  0  0
  186.2740  178.0310  142.0340 C   0  0  0  0  0  3  0  0  0  0  0  0
  186.1380  178.5810  146.1450 C   0  0  0  0  0  0  0  0  0  0  0  0
  191.3460  177.0770  139.1390 C   0  0  0  0  0  3  0  0  0  0  0  0
  1 11  1  0  0  0  0
  2  5  1  0  0  0  0
  3 28  2  0  0  0  0
  4  3  1  0  0  0  0
  4 17  1  0  0  0  0
  5 27  1  0  0  0  0
  6 26  1  0  0  0  0
  7 13  1  0  0  0  0
  8 20  1  6  0  0  0
  8 23  1  0  0  0  0
  9 19  1  0  0  0  0
 10 25  2  0  0  0  0
 11 24  1  1  0  0  0
 12 29  2  0  0  0  0
 12 10  1  0  0  0  0
 14  3  1  0  0  0  0
 15 31  2  0  0  0  0
 15 11  1  0  0  0  0
 16 27  1  6  0  0  0
 16  9  1  0  0  0  0
 16  8  1  0  0  0  0
 17 15  1  0  0  0  0
 19  1  2  0  0  0  0
 22  7  1  0  0  0  0
 23  1  1  0  0  0  0
 24 13  1  0  0  0  0
 25  2  1  0  0  0  0
 25  6  1  0  0  0  0
 26 18  2  0  0  0  0
 26 30  1  0  0  0  0
 28 21  1  0  0  0  0
 28 31  1  0  0  0  0
 29 32  1  0  0  0  0
 30  4  2  0  0  0  0
 31 22  1  0  0  0  0
 32  2  2  0  0  0  0
M  END
>  <MODEL>
2

>  <REMARK>
 VINA RESULT:      -9.6      2.168      7.038
  Name = 
  0 active torsions:
  status: ('A' for Active; 'I' for Inactive)
                            x       y       z     vdW  Elec       q    Type
                         _______ _______ _______ _____ _____    ______ ____

>  <TORSDO>
F 0

$$$$
=
 OpenBabel10222416373D

 32 36  0  0  1  0  0  0  0  0999 V2000
  190.3950  176.7460  140.9310 C   0  0  0  0  0  0  0  0  0  0  0  0
  187.2860  177.8740  145.1990 C   0  0  0  0  0  0  0  0  0  0  0  0
  186.1950  178.2530  138.5040 C   0  0  0  0  0  0  0  0  0  0  0  0
  186.6990  178.2230  139.8860 C   0  0  0  0  0  0  0  0  0  0  0  0
  188.3160  177.3690  144.3320 N   0  0  0  0  0  2  0  0  0  0  0  0
  185.6590  178.2500  143.3490 O   0  0  0  0  0  0  0  0  0  0  0  0
  190.3100  176.2610  136.8630 O   0  0  0  0  0  0  0  0  0  0  0  0
  191.1590  177.9160  143.0120 C   0  0  2  0  0  3  0  0  0  0  0  0
  190.3700  175.5380  142.9620 N   0  0  0  0  0  2  0  0  0  0  0  0
  185.0250  178.6780  145.6070 C   0  0  0  0  0  3  0  0  0  0  0  0
  190.1830  176.7810  139.4490 C   0  0  1  0  0  3  0  0  0  0  0  0
  185.2780  178.7320  146.9770 C   0  0  0  0  0  3  0  0  0  0  0  0
  191.4320  177.0090  137.2560 C   0  0  0  0  0  2  0  0  0  0  0  0
  184.8630  178.6820  138.2230 N   0  0  0  0  0  1  0  0  0  0  0  0
  188.8410  177.3640  139.0690 C   0  0  0  0  0  0  0  0  0  0  0  0
  190.6650  176.6930  143.8090 C   0  0  2  0  0  3  0  0  0  0  0  0
  188.0040  177.7880  140.1070 O   0  0  0  0  0  0  0  0  0  0  0  0
  187.5880  179.1990  142.4890 O   0  0  0  0  0  0  0  0  0  0  0  0
  190.2670  175.6220  141.5620 N   0  0  0  0  0  0  0  0  0  0  0  0
  190.9540  179.2480  143.7140 C   0  0  0  0  0  1  0  0  0  0  0  0
  186.5710  177.9630  136.1900 O   0  0  0  0  0  1  0  0  0  0  0  0
  189.3080  177.2000  136.5930 C   0  0  0  0  0  2  0  0  0  0  0  0
  190.6120  177.9550  141.6630 N   0  0  0  0  0  2  0  0  0  0  0  0
  191.3470  177.4500  138.7250 C   0  0  0  0  0  2  0  0  0  0  0  0
  186.0150  178.2720  144.7040 C   0  0  0  0  0  0  0  0  0  0  0  0
  186.4610  178.6700  142.2860 C   0  0  0  0  0  0  0  0  0  0  0  0
  189.5930  176.9190  144.8780 C   0  0  0  0  0  2  0  0  0  0  0  0
  187.0200  177.9030  137.5060 C   0  0  0  0  0  0  0  0  0  0  0  0
  186.5300  178.3680  147.4660 C   0  0  0  0  0  3  0  0  0  0  0  0
  185.9340  178.5730  140.9190 C   0  0  0  0  0  3  0  0  0  0  0  0
  188.4070  177.4400  137.7840 C   0  0  0  0  0  0  0  0  0  0  0  0
  187.5220  177.9390  146.5840 C   0  0  0  0  0  3  0  0  0  0  0  0
  1 19  2  0  0  0  0
  1 23  1  0  0  0  0
  2 32  1  0  0  0  0
  3  4  1  0  0  0  0
  4 17  1  0  0  0  0
  4 30  2  0  0  0  0
  5 27  1  0  0  0  0
  5  2  1  0  0  0  0
  6 25  1  0  0  0  0
  7 13  1  0  0  0  0
  8 20  1  1  0  0  0
  8 16  1  0  0  0  0
  9 16  1  0  0  0  0
 10 12  2  0  0  0  0
 11 24  1  6  0  0  0
 11  1  1  0  0  0  0
 12 29  1  0  0  0  0
 13 24  1  0  0  0  0
 14  3  1  0  0  0  0
 15 11  1  0  0  0  0
 15 17  1  0  0  0  0
 16 27  1  6  0  0  0
 19  9  1  0  0  0  0
 21 28  1  0  0  0  0
 22  7  1  0  0  0  0
 22 31  1  0  0  0  0
 23  8  1  0  0  0  0
 25  2  2  0  0  0  0
 25 10  1  0  0  0  0
 26 18  2  0  0  0  0
 26  6  1  0  0  0  0
 28 31  1  0  0  0  0
 28  3  2  0  0  0  0
 30 26  1  0  0  0  0
 31 15  2  0  0  0  0
 32 29  2  0  0  0  0
M  END
>  <MODEL>
3

>  <REMARK>
 VINA RESULT:      -8.7      1.067      1.291
  Name = 
  0 active torsions:
  status: ('A' for Active; 'I' for Inactive)
                            x       y       z     vdW  Elec       q    Type
                         _______ _______ _______ _____ _____    ______ ____

>  <TORSDO>
F 0

$$$$
=
 OpenBabel10222416373D

 32 36  0  0  1  0  0  0  0  0999 V2000
  183.9910  178.2030  141.7290 C   0  0  0  0  0  0  0  0  0  0  0  0
  186.4230  177.3450  136.9860 C   0  0  0  0  0  0  0  0  0  0  0  0
  188.7600  177.5760  143.3600 C   0  0  0  0  0  0  0  0  0  0  0  0
  188.0620  177.7090  142.0720 C   0  0  0  0  0  0  0  0  0  0  0  0
  185.4550  177.4790  138.0400 N   0  0  0  0  0  2  0  0  0  0  0  0
  188.3360  176.9830  138.5410 O   0  0  0  0  0  0  0  0  0  0  0  0
  184.5720  178.0120  145.7810 O   0  0  0  0  0  0  0  0  0  0  0  0
  183.5170  179.4550  139.6110 C   0  0  2  0  0  3  0  0  0  0  0  0
  183.0620  177.0100  139.9120 N   0  0  0  0  0  2  0  0  0  0  0  0
  188.6750  176.8870  136.1830 C   0  0  0  0  0  3  0  0  0  0  0  0
  184.4600  178.2250  143.1510 C   0  0  1  0  0  3  0  0  0  0  0  0
  188.2330  176.9670  134.8620 C   0  0  0  0  0  3  0  0  0  0  0  0
  183.8970  179.1920  145.4250 C   0  0  0  0  0  2  0  0  0  0  0  0
  190.1610  177.3030  143.4050 N   0  0  0  0  0  1  0  0  0  0  0  0
  185.9600  178.0880  143.2700 C   0  0  0  0  0  0  0  0  0  0  0  0
  183.2090  178.0980  138.9480 C   0  0  2  0  0  3  0  0  0  0  0  0
  186.6930  177.9680  142.0830 O   0  0  0  0  0  0  0  0  0  0  0  0
  187.2930  178.8210  139.4850 O   0  0  0  0  0  0  0  0  0  0  0  0
  183.4460  177.1240  141.2600 N   0  0  0  0  0  0  0  0  0  0  0  0
  184.2050  180.4580  138.6990 C   0  0  0  0  0  1  0  0  0  0  0  0
  188.7210  177.6670  145.7200 O   0  0  0  0  0  1  0  0  0  0  0  0
  185.9320  178.3430  145.7810 C   0  0  0  0  0  2  0  0  0  0  0  0
  184.2510  179.3070  140.8590 N   0  0  0  0  0  2  0  0  0  0  0  0
  183.9140  179.4320  143.9090 C   0  0  0  0  0  2  0  0  0  0  0  0
  187.7940  177.0880  137.2520 C   0  0  0  0  0  0  0  0  0  0  0  0
  188.0430  177.8170  139.6210 C   0  0  0  0  0  0  0  0  0  0  0  0
  184.0420  177.6890  137.7320 C   0  0  0  0  0  2  0  0  0  0  0  0
  188.0660  177.7510  144.4940 C   0  0  0  0  0  0  0  0  0  0  0  0
  186.8950  177.2430  134.5940 C   0  0  0  0  0  3  0  0  0  0  0  0
  188.6980  177.5620  140.9110 C   0  0  0  0  0  3  0  0  0  0  0  0
  186.6040  178.0230  144.4640 C   0  0  0  0  0  0  0  0  0  0  0  0
  185.9980  177.4250  135.6470 C   0  0  0  0  0  3  0  0  0  0  0  0
  1 11  1  0  0  0  0
  2 25  1  0  0  0  0
  2  5  1  0  0  0  0
  3 14  1  0  0  0  0
  3 28  2  0  0  0  0
  4 17  1  0  0  0  0
  4  3  1  0  0  0  0
  6 26  1  0  0  0  0
  8 20  1  6  0  0  0
  8 23  1  0  0  0  0
  9 19  1  0  0  0  0
 10 25  2  0  0  0  0
 11 15  1  0  0  0  0
 11 24  1  6  0  0  0
 12 10  1  0  0  0  0
 13  7  1  0  0  0  0
 15 31  2  0  0  0  0
 16 27  1  6  0  0  0
 16  8  1  0  0  0  0
 16  9  1  0  0  0  0
 17 15  1  0  0  0  0
 18 26  2  0  0  0  0
 19  1  2  0  0  0  0
 22  7  1  0  0  0  0
 23  1  1  0  0  0  0
 24 13  1  0  0  0  0
 25  6  1  0  0  0  0
 26 30  1  0  0  0  0
 27  5  1  0  0  0  0
 28 21  1  0  0  0  0
 29 12  2  0  0  0  0
 29 32  1  0  0  0  0
 30  4  2  0  0  0  0
 31 28  1  0  0  0  0
 31 22  1  0  0  0  0
 32  2  2  0  0  0  0
M  END
>  <MODEL>
4

>  <REMARK>
 VINA RESULT:      -8.1      2.541      8.007
  Name = 
  0 active torsions:
  status: ('A' for Active; 'I' for Inactive)
                            x       y       z     vdW  Elec       q    Type
                         _______ _______ _______ _____ _____    ______ ____

>  <TORSDO>
F 0

$$$$
=
 OpenBabel10222416373D

 32 36  0  0  1  0  0  0  0  0999 V2000
  184.6660  177.1650  137.6440 C   0  0  0  0  0  0  0  0  0  0  0  0
  189.4770  177.2220  140.0950 C   0  0  0  0  0  0  0  0  0  0  0  0
  183.2070  178.6730  142.2700 C   0  0  0  0  0  0  0  0  0  0  0  0
  184.4700  178.4470  141.5500 C   0  0  0  0  0  0  0  0  0  0  0  0
  188.3900  176.9770  139.1870 N   0  0  0  0  0  2  0  0  0  0  0  0
  187.9890  177.7630  142.0190 O   0  0  0  0  0  0  0  0  0  0  0  0
  180.6370  177.4010  138.3510 O   0  0  0  0  0  0  0  0  0  0  0  0
  186.7970  178.0150  136.6340 C   0  0  2  0  0  3  0  0  0  0  0  0
  186.4140  175.6200  137.2630 N   0  0  0  0  0  2  0  0  0  0  0  0
  190.3560  177.7240  142.3090 C   0  0  0  0  0  3  0  0  0  0  0  0
  183.2650  177.4410  138.0940 C   0  0  1  0  0  3  0  0  0  0  0  0
  191.6600  177.5580  141.8430 C   0  0  0  0  0  3  0  0  0  0  0  0
  180.9970  178.1700  137.2310 C   0  0  0  0  0  2  0  0  0  0  0  0
  183.2110  179.0180  143.6550 N   0  0  0  0  0  1  0  0  0  0  0  0
  183.2020  177.9530  139.5150 C   0  0  0  0  0  0  0  0  0  0  0  0
  187.4120  176.6290  136.9120 C   0  0  2  0  0  3  0  0  0  0  0  0
  184.4120  178.1050  140.2000 O   0  0  0  0  0  0  0  0  0  0  0  0
  187.0540  179.0270  140.3200 O   0  0  0  0  0  0  0  0  0  0  0  0
  185.0850  175.9390  137.5950 N   0  0  0  0  0  0  0  0  0  0  0  0
  187.7610  179.1760  136.8120 C   0  0  0  0  0  1  0  0  0  0  0  0
  180.8510  178.8340  142.2530 O   0  0  0  0  0  1  0  0  0  0  0  0
  180.6990  178.2740  139.4420 C   0  0  0  0  0  2  0  0  0  0  0  0
  185.5750  178.2400  137.3920 N   0  0  0  0  0  2  0  0  0  0  0  0
  182.5180  178.3340  137.1080 C   0  0  0  0  0  2  0  0  0  0  0  0
  189.2580  177.5780  141.4520 C   0  0  0  0  0  0  0  0  0  0  0  0
  186.9200  178.4380  141.4270 C   0  0  0  0  0  0  0  0  0  0  0  0
  188.6480  176.5600  137.8110 C   0  0  0  0  0  2  0  0  0  0  0  0
  182.0520  178.5850  141.5950 C   0  0  0  0  0  0  0  0  0  0  0  0
  191.8830  177.2330  140.5070 C   0  0  0  0  0  3  0  0  0  0  0  0
  185.6510  178.5350  142.1600 C   0  0  0  0  0  3  0  0  0  0  0  0
  182.0320  178.2140  140.1540 C   0  0  0  0  0  0  0  0  0  0  0  0
  190.8000  177.0620  139.6430 C   0  0  0  0  0  3  0  0  0  0  0  0
  1 11  1  0  0  0  0
  2 25  1  0  0  0  0
  3 14  1  0  0  0  0
  4 30  2  0  0  0  0
  4  3  1  0  0  0  0
  5  2  1  0  0  0  0
  7 22  1  0  0  0  0
  8 20  1  1  0  0  0
  8 16  1  0  0  0  0
  8 23  1  0  0  0  0
  9 19  1  0  0  0  0
 11 24  1  6  0  0  0
 11 15  1  0  0  0  0
 12 10  1  0  0  0  0
 13  7  1  0  0  0  0
 15 31  2  0  0  0  0
 15 17  1  0  0  0  0
 16  9  1  0  0  0  0
 16 27  1  1  0  0  0
 17  4  1  0  0  0  0
 18 26  2  0  0  0  0
 19  1  2  0  0  0  0
 22 31  1  0  0  0  0
 23  1  1  0  0  0  0
 24 13  1  0  0  0  0
 25  6  1  0  0  0  0
 25 10  2  0  0  0  0
 26  6  1  0  0  0  0
 26 30  1  0  0  0  0
 27  5  1  0  0  0  0
 28 21  1  0  0  0  0
 28  3  2  0  0  0  0
 29 12  2  0  0  0  0
 31 28  1  0  0  0  0
 32  2  2  0  0  0  0
 32 29  1  0  0  0  0
M  END
>  <MODEL>
5

>  <REMARK>
 VINA RESULT:      -8.0      3.177      7.433
  Name = 
  0 active torsions:
  status: ('A' for Active; 'I' for Inactive)
                            x       y       z     vdW  Elec       q    Type
                         _______ _______ _______ _____ _____    ______ ____

>  <TORSDO>
F 0

$$$$
=
 OpenBabel10222416373D

 32 36  0  0  1  0  0  0  0  0999 V2000
  184.5750  177.1840  137.8930 C   0  0  0  0  0  0  0  0  0  0  0  0
  189.8720  176.8830  138.8950 C   0  0  0  0  0  0  0  0  0  0  0  0
  184.5900  178.8220  142.7010 C   0  0  0  0  0  0  0  0  0  0  0  0
  185.5790  178.4960  141.6620 C   0  0  0  0  0  0  0  0  0  0  0  0
  188.5590  176.7190  138.3350 N   0  0  0  0  0  2  0  0  0  0  0  0
  189.0290  177.5460  141.1440 O   0  0  0  0  0  0  0  0  0  0  0  0
  180.9350  177.7320  139.6930 O   0  0  0  0  0  0  0  0  0  0  0  0
  186.3910  177.8630  136.3050 C   0  0  2  0  0  3  0  0  0  0  0  0
  186.0290  175.5070  137.0780 N   0  0  0  0  0  2  0  0  0  0  0  0
  191.3720  177.3270  140.7610 C   0  0  0  0  0  3  0  0  0  0  0  0
  183.3810  177.5680  138.7100 C   0  0  1  0  0  3  0  0  0  0  0  0
  192.4760  177.0590  139.9530 C   0  0  0  0  0  3  0  0  0  0  0  0
  181.0200  178.4660  138.4980 C   0  0  0  0  0  2  0  0  0  0  0  0
  185.0070  179.1720  144.0200 N   0  0  0  0  0  1  0  0  0  0  0  0
  183.7570  178.0910  140.0770 C   0  0  0  0  0  0  0  0  0  0  0  0
  186.9580  176.4350  136.4350 C   0  0  2  0  0  3  0  0  0  0  0  0
  185.1190  178.1530  140.3920 O   0  0  0  0  0  0  0  0  0  0  0  0
  187.7470  178.8700  139.7430 O   0  0  0  0  0  0  0  0  0  0  0  0
  184.8740  175.9290  137.7600 N   0  0  0  0  0  0  0  0  0  0  0  0
  187.4480  178.9480  136.1750 C   0  0  0  0  0  1  0  0  0  0  0  0
  182.3420  179.1630  143.3400 O   0  0  0  0  0  1  0  0  0  0  0  0
  181.3650  178.6030  140.7010 C   0  0  0  0  0  2  0  0  0  0  0  0
  185.4520  178.1850  137.3690 N   0  0  0  0  0  2  0  0  0  0  0  0
  182.4540  178.5120  137.9500 C   0  0  0  0  0  2  0  0  0  0  0  0
  190.0700  177.2620  140.2500 C   0  0  0  0  0  0  0  0  0  0  0  0
  187.8890  178.2990  140.8580 C   0  0  0  0  0  0  0  0  0  0  0  0
  188.3890  176.2760  136.9530 C   0  0  0  0  0  2  0  0  0  0  0  0
  183.2880  178.8200  142.3790 C   0  0  0  0  0  0  0  0  0  0  0  0
  192.2910  176.7120  138.6170 C   0  0  0  0  0  3  0  0  0  0  0  0
  186.8870  178.4970  141.9140 C   0  0  0  0  0  3  0  0  0  0  0  0
  182.8360  178.4440  141.0120 C   0  0  0  0  0  0  0  0  0  0  0  0
  191.0000  176.6200  138.0960 C   0  0  0  0  0  3  0  0  0  0  0  0
  1 11  1  0  0  0  0
  2 25  1  0  0  0  0
  3 14  1  0  0  0  0
  4 30  2  0  0  0  0
  4  3  1  0  0  0  0
  5  2  1  0  0  0  0
  7 22  1  0  0  0  0
  8 20  1  1  0  0  0
  8 16  1  0  0  0  0
  8 23  1  0  0  0  0
  9 19  1  0  0  0  0
 11 24  1  6  0  0  0
 11 15  1  0  0  0  0
 12 10  1  0  0  0  0
 13  7  1  0  0  0  0
 15 17  1  0  0  0  0
 15 31  2  0  0  0  0
 16 27  1  1  0  0  0
 16  9  1  0  0  0  0
 17  4  1  0  0  0  0
 18 26  2  0  0  0  0
 19  1  2  0  0  0  0
 22 31  1  0  0  0  0
 23  1  1  0  0  0  0
 24 13  1  0  0  0  0
 25 10  2  0  0  0  0
 25  6  1  0  0  0  0
 26  6  1  0  0  0  0
 26 30  1  0  0  0  0
 27  5  1  0  0  0  0
 28  3  2  0  0  0  0
 28 21  1  0  0  0  0
 29 12  2  0  0  0  0
 31 28  1  0  0  0  0
 32 29  1  0  0  0  0
 32  2  2  0  0  0  0
M  END
>  <MODEL>
6

>  <REMARK>
 VINA RESULT:      -7.9      2.821      7.751
  Name = 
  0 active torsions:
  status: ('A' for Active; 'I' for Inactive)
                            x       y       z     vdW  Elec       q    Type
                         _______ _______ _______ _____ _____    ______ ____

>  <TORSDO>
F 0

$$$$
