=
 OpenBabel10222417443D

 52 56  0  0  1  0  0  0  0  0999 V2000
  186.9160  177.0410  136.7680 C   0  0  0  0  0  3  0  0  0  0  0  0
  185.7070  177.0290  136.2250 C   0  0  0  0  0  3  0  0  0  0  0  0
  182.8070  172.5200  136.3660 C   0  0  0  0  0  1  0  0  0  0  0  0
  181.8030  176.7580  138.5680 C   0  0  0  0  0  3  0  0  0  0  0  0
  183.7300  175.8630  137.1900 C   0  0  0  0  0  0  0  0  0  0  0  0
  184.5570  177.0180  137.0650 N   0  0  0  0  0  2  0  0  0  0  0  0
  180.8020  174.1390  138.0760 C   0  0  0  0  0  3  0  0  0  0  0  0
  183.9700  174.6720  136.5880 N   0  0  0  0  0  0  0  0  0  0  0  0
  182.0430  174.5590  137.6000 C   0  0  0  0  0  0  0  0  0  0  0  0
  180.5410  176.3730  139.0620 C   0  0  0  0  0  0  0  0  0  0  0  0
  182.9360  173.8820  136.8550 N   0  0  0  0  0  0  0  0  0  0  0  0
  180.0480  175.0680  138.8210 C   0  0  0  0  0  3  0  0  0  0  0  0
  182.5180  175.8160  137.8380 C   0  0  0  0  0  0  0  0  0  0  0  0
  179.7260  177.3230  139.8760 C   0  0  0  0  0  2  0  0  0  0  0  0
  180.5190  178.4830  140.2670 N   0  0  0  0  0  2  0  0  0  0  0  0
  184.6780  178.9930  144.7360 C   0  0  0  0  0  0  0  0  0  0  0  0
  185.3390  179.1300  147.0350 N   0  0  0  0  0  1  0  0  0  0  0  0
  185.6410  179.0840  145.6440 C   0  0  0  0  0  3  0  0  0  0  0  0
  183.2530  178.7860  142.7630 C   0  0  0  0  0  0  0  0  0  0  0  0
  182.5400  178.8320  143.9490 C   0  0  0  0  0  0  0  0  0  0  0  0
  181.1470  178.7660  143.9600 C   0  0  0  0  0  3  0  0  0  0  0  0
  181.1930  178.6000  141.5220 C   0  0  0  0  0  0  0  0  0  0  0  0
  183.3290  178.9430  145.0770 O   0  0  0  0  0  0  0  0  0  0  0  0
  182.5950  178.6660  141.5400 C   0  0  0  0  0  3  0  0  0  0  0  0
  185.0250  178.9160  142.9700 S   0  0  0  0  0  0  0  0  0  0  0  0
  180.4730  178.6490  142.7360 C   0  0  0  0  0  3  0  0  0  0  0  0
  188.3770  177.1000  135.7390 S   0  0  0  0  0  0  0  0  0  0  0  0
  189.3160  176.0210  136.8820 C   0  0  1  0  0  3  0  0  0  0  0  0
  189.5350  173.4810  136.4660 C   0  0  0  0  0  1  0  0  0  0  0  0
  190.1060  174.8700  136.2150 C   0  0  2  0  0  3  0  0  0  0  0  0
  192.2000  173.4870  136.6750 C   0  0  0  0  0  1  0  0  0  0  0  0
  191.6020  174.8800  136.5710 C   0  0  1  0  0  3  0  0  0  0  0  0
  192.4630  175.8390  135.7380 C   0  0  0  0  0  2  0  0  0  0  0  0
  193.9470  175.7280  136.0450 C   0  0  0  0  0  2  0  0  0  0  0  0
  194.5000  177.0060  136.1430 O   0  0  0  0  0  1  0  0  0  0  0  0
  190.2250  176.8680  137.7670 C   0  0  0  0  0  2  0  0  0  0  0  0
  189.7950  176.8000  139.1570 N   0  0  0  0  0  2  0  0  0  0  0  0
  188.7710  178.9000  139.1310 O   0  0  0  0  0  0  0  0  0  0  0  0
  189.0320  177.8440  139.7670 C   0  0  0  0  0  0  0  0  0  0  0  0
  188.5290  177.6890  141.1610 C   0  0  2  0  0  3  0  0  0  0  0  0
  188.5340  178.9270  141.8080 O   0  0  0  0  0  1  0  0  0  0  0  0
  189.4040  176.7020  141.9200 C   0  0  0  0  0  2  0  0  0  0  0  0
  188.4830  177.0290  145.4380 O   0  0  0  0  0  1  0  0  0  0  0  0
  188.3810  176.8280  144.1990 C   0  0  0  0  0  0  0  0  0  0  0  0
  189.4990  177.0710  143.3280 N   0  0  0  0  0  0  0  0  0  0  0  0
  187.1760  176.3620  143.6810 O   0  0  0  0  0  0  0  0  0  0  0  0
  190.8120  177.4150  143.8740 C   0  0  0  0  0  0  0  0  0  0  0  0
  191.6550  178.3120  142.9900 C   0  0  0  0  0  2  0  0  0  0  0  0
  191.0050  178.8690  144.2490 C   0  0  0  0  0  2  0  0  0  0  0  0
  191.5490  176.3810  144.6660 C   0  0  0  0  0  0  0  0  0  0  0  0
  191.9350  175.3570  144.1270 O   0  0  0  0  0  0  0  0  0  0  0  0
  191.7640  176.5640  146.1270 C   0  0  0  0  0  1  0  0  0  0  0  0
  2  1  2  0  0  0  0
  2  6  1  0  0  0  0
  3 11  1  0  0  0  0
  4 10  1  0  0  0  0
  5 13  1  0  0  0  0
  6  5  1  0  0  0  0
  7 12  1  0  0  0  0
  8 11  1  0  0  0  0
  8  5  2  0  0  0  0
  9 13  1  0  0  0  0
  9  7  2  0  0  0  0
 10 14  1  0  0  0  0
 11  9  1  0  0  0  0
 12 10  2  0  0  0  0
 13  4  2  0  0  0  0
 14 15  1  0  0  0  0
 15 22  1  0  0  0  0
 16 23  1  0  0  0  0
 16 18  2  0  0  0  0
 18 17  1  0  0  0  0
 19 25  1  0  0  0  0
 19 20  1  0  0  0  0
 20 21  2  0  0  0  0
 20 23  1  0  0  0  0
 22 24  1  0  0  0  0
 22 26  2  0  0  0  0
 24 19  2  0  0  0  0
 25 16  1  0  0  0  0
 26 21  1  0  0  0  0
 27  1  1  0  0  0  0
 27 28  1  0  0  0  0
 28 36  1  6  0  0  0
 30 29  1  1  0  0  0
 30 32  1  0  0  0  0
 30 28  1  0  0  0  0
 32 31  1  6  0  0  0
 33 34  1  0  0  0  0
 33 32  1  0  0  0  0
 34 35  1  0  0  0  0
 36 37  1  0  0  0  0
 37 39  1  0  0  0  0
 38 39  2  0  0  0  0
 39 40  1  0  0  0  0
 40 41  1  1  0  0  0
 40 42  1  0  0  0  0
 42 45  1  0  0  0  0
 44 43  1  0  0  0  0
 45 47  1  0  0  0  0
 45 44  1  0  0  0  0
 46 44  2  0  0  0  0
 47 49  1  0  0  0  0
 47 50  1  0  0  0  0
 48 47  1  0  0  0  0
 48 49  1  0  0  0  0
 50 52  1  0  0  0  0
 51 50  2  0  0  0  0
M  END
>  <MODEL>
1

>  <REMARK>
 VINA RESULT:      -7.9      0.000      0.000
  Name = 
  17 active torsions:
  status: ('A' for Active; 'I' for Inactive)
    1  A    between atoms: C_1  and  C_3
    2  A    between atoms: C_1  and  C_12
    3  A    between atoms: C_1  and  S_40
    4  A    between atoms: C_2  and  C_10
    5  A    between atoms: C_2  and  N_37
    6  A    between atoms: C_3  and  N_4
    7  A    between atoms: C_5  and  S_40
    8  A    between atoms: C_7  and  C_16
    9  A    between atoms: C_9  and  N_20
   10  A    between atoms: C_9  and  C_34
   11  A    between atoms: C_12  and  C_49
   12  A    between atoms: C_13  and  C_27
   13  A    between atoms: C_13  and  C_36
   14  A    between atoms: C_16  and  C_49
   15  A    between atoms: N_18  and  C_19
   16  A    between atoms: N_20  and  C_39
   17  A    between atoms: C_27  and  N_37
                            x       y       z     vdW  Elec       q    Type
                         _______ _______ _______ _____ _____    ______ ____

>  <TORSDO>
F 17

$$$$
=
 OpenBabel10222417443D

 52 56  0  0  1  0  0  0  0  0999 V2000
  185.7510  178.8690  141.9350 C   0  0  0  0  0  3  0  0  0  0  0  0
  186.8980  179.0290  141.2910 C   0  0  0  0  0  3  0  0  0  0  0  0
  191.9510  177.4580  140.4170 C   0  0  0  0  0  1  0  0  0  0  0  0
  188.1130  176.8780  137.4580 C   0  0  0  0  0  3  0  0  0  0  0  0
  188.4570  177.7960  139.7920 C   0  0  0  0  0  0  0  0  0  0  0  0
  187.1530  178.2790  140.1080 N   0  0  0  0  0  2  0  0  0  0  0  0
  190.9250  176.4790  137.6690 C   0  0  0  0  0  3  0  0  0  0  0  0
  189.5490  177.9440  140.5840 N   0  0  0  0  0  0  0  0  0  0  0  0
  190.1740  177.0250  138.7090 C   0  0  0  0  0  0  0  0  0  0  0  0
  188.8390  176.3270  136.3810 C   0  0  0  0  0  0  0  0  0  0  0  0
  190.5880  177.4610  139.9130 N   0  0  0  0  0  0  0  0  0  0  0  0
  190.2350  176.1250  136.4910 C   0  0  0  0  0  3  0  0  0  0  0  0
  188.8270  177.2150  138.6020 C   0  0  0  0  0  0  0  0  0  0  0  0
  188.1370  175.9180  135.1280 C   0  0  0  0  0  2  0  0  0  0  0  0
  187.6630  174.5420  135.2270 N   0  0  0  0  0  2  0  0  0  0  0  0
  181.7220  173.7770  136.5140 C   0  0  0  0  0  0  0  0  0  0  0  0
  179.9150  172.9590  137.8570 N   0  0  0  0  0  1  0  0  0  0  0  0
  180.4180  173.6750  136.7330 C   0  0  0  0  0  3  0  0  0  0  0  0
  184.0000  174.2460  135.7650 C   0  0  0  0  0  0  0  0  0  0  0  0
  183.9510  173.4680  136.9080 C   0  0  0  0  0  0  0  0  0  0  0  0
  185.1160  173.0190  137.5290 C   0  0  0  0  0  3  0  0  0  0  0  0
  186.4100  174.1720  135.8080 C   0  0  0  0  0  0  0  0  0  0  0  0
  182.6720  173.1950  137.3510 O   0  0  0  0  0  0  0  0  0  0  0  0
  185.2220  174.6120  135.2040 C   0  0  0  0  0  3  0  0  0  0  0  0
  182.3940  174.6890  135.1130 S   0  0  0  0  0  0  0  0  0  0  0  0
  186.3520  173.3750  136.9720 C   0  0  0  0  0  3  0  0  0  0  0  0
  185.3860  179.8310  143.3980 S   0  0  0  0  0  0  0  0  0  0  0  0
  184.6540  178.3870  144.2540 C   0  0  1  0  0  3  0  0  0  0  0  0
  185.1000  178.6530  146.7850 C   0  0  0  0  0  1  0  0  0  0  0  0
  185.4210  177.8940  145.5040 C   0  0  2  0  0  3  0  0  0  0  0  0
  187.7200  177.8190  146.6080 C   0  0  0  0  0  1  0  0  0  0  0  0
  186.9450  177.8550  145.3010 C   0  0  1  0  0  3  0  0  0  0  0  0
  187.4400  176.8200  144.2830 C   0  0  0  0  0  2  0  0  0  0  0  0
  188.9420  176.8760  144.0570 C   0  0  0  0  0  2  0  0  0  0  0  0
  189.3270  178.1950  143.8120 O   0  0  0  0  0  1  0  0  0  0  0  0
  183.1910  178.6650  144.5830 C   0  0  0  0  0  2  0  0  0  0  0  0
  182.5090  179.2490  143.4370 N   0  0  0  0  0  2  0  0  0  0  0  0
  180.4380  178.3000  143.9580 O   0  0  0  0  0  0  0  0  0  0  0  0
  181.1110  179.0540  143.2050 C   0  0  0  0  0  0  0  0  0  0  0  0
  180.4340  179.7510  142.0750 C   0  0  2  0  0  3  0  0  0  0  0  0
  179.8040  180.9070  142.5390 O   0  0  0  0  0  1  0  0  0  0  0  0
  179.4130  178.8240  141.4330 C   0  0  0  0  0  2  0  0  0  0  0  0
  180.3340  175.6700  139.8410 O   0  0  0  0  0  0  0  0  0  0  0  0
  179.8810  176.4820  140.6900 C   0  0  0  0  0  0  0  0  0  0  0  0
  180.0620  177.8970  140.5120 N   0  0  0  0  0  0  0  0  0  0  0  0
  179.1990  175.9960  141.8020 O   0  0  0  0  0  1  0  0  0  0  0  0
  180.6410  178.4280  139.2780 C   0  0  0  0  0  0  0  0  0  0  0  0
  179.7740  178.2650  138.0450 C   0  0  0  0  0  2  0  0  0  0  0  0
  179.9400  179.6340  138.6910 C   0  0  0  0  0  2  0  0  0  0  0  0
  182.1180  178.3030  139.0710 C   0  0  0  0  0  0  0  0  0  0  0  0
  182.8910  178.8920  139.8070 O   0  0  0  0  0  0  0  0  0  0  0  0
  182.6530  177.5120  137.9300 C   0  0  0  0  0  1  0  0  0  0  0  0
  1 27  1  0  0  0  0
  2  1  2  0  0  0  0
  4 13  1  0  0  0  0
  5  6  1  0  0  0  0
  5  8  2  0  0  0  0
  6  2  1  0  0  0  0
  7  9  1  0  0  0  0
  9 11  1  0  0  0  0
 10 12  1  0  0  0  0
 10  4  2  0  0  0  0
 11  3  1  0  0  0  0
 11  8  1  0  0  0  0
 12  7  2  0  0  0  0
 13  9  2  0  0  0  0
 13  5  1  0  0  0  0
 14 15  1  0  0  0  0
 14 10  1  0  0  0  0
 15 22  1  0  0  0  0
 16 18  2  0  0  0  0
 16 23  1  0  0  0  0
 18 17  1  0  0  0  0
 19 20  1  0  0  0  0
 20 23  1  0  0  0  0
 20 21  2  0  0  0  0
 22 26  2  0  0  0  0
 24 19  2  0  0  0  0
 24 22  1  0  0  0  0
 25 19  1  0  0  0  0
 25 16  1  0  0  0  0
 26 21  1  0  0  0  0
 27 28  1  0  0  0  0
 28 36  1  1  0  0  0
 28 30  1  0  0  0  0
 30 29  1  1  0  0  0
 32 30  1  0  0  0  0
 32 31  1  1  0  0  0
 33 32  1  0  0  0  0
 34 33  1  0  0  0  0
 35 34  1  0  0  0  0
 37 36  1  0  0  0  0
 39 37  1  0  0  0  0
 39 38  2  0  0  0  0
 40 41  1  1  0  0  0
 40 39  1  0  0  0  0
 42 40  1  0  0  0  0
 43 44  2  0  0  0  0
 44 46  1  0  0  0  0
 45 44  1  0  0  0  0
 45 42  1  0  0  0  0
 47 45  1  0  0  0  0
 48 49  1  0  0  0  0
 48 47  1  0  0  0  0
 49 47  1  0  0  0  0
 50 47  1  0  0  0  0
 50 51  2  0  0  0  0
 52 50  1  0  0  0  0
M  END
>  <MODEL>
2

>  <REMARK>
 VINA RESULT:      -7.5      2.892      9.604
  Name = 
  17 active torsions:
  status: ('A' for Active; 'I' for Inactive)
    1  A    between atoms: C_1  and  C_3
    2  A    between atoms: C_1  and  C_12
    3  A    between atoms: C_1  and  S_40
    4  A    between atoms: C_2  and  C_10
    5  A    between atoms: C_2  and  N_37
    6  A    between atoms: C_3  and  N_4
    7  A    between atoms: C_5  and  S_40
    8  A    between atoms: C_7  and  C_16
    9  A    between atoms: C_9  and  N_20
   10  A    between atoms: C_9  and  C_34
   11  A    between atoms: C_12  and  C_49
   12  A    between atoms: C_13  and  C_27
   13  A    between atoms: C_13  and  C_36
   14  A    between atoms: C_16  and  C_49
   15  A    between atoms: N_18  and  C_19
   16  A    between atoms: N_20  and  C_39
   17  A    between atoms: C_27  and  N_37
                            x       y       z     vdW  Elec       q    Type
                         _______ _______ _______ _____ _____    ______ ____

>  <TORSDO>
F 17

$$$$
=
 OpenBabel10222417443D

 52 56  0  0  1  0  0  0  0  0999 V2000
  184.3000  177.5650  138.0950 C   0  0  0  0  0  3  0  0  0  0  0  0
  185.0570  178.6160  138.3710 C   0  0  0  0  0  3  0  0  0  0  0  0
  188.6540  177.0200  134.7280 C   0  0  0  0  0  1  0  0  0  0  0  0
  189.3550  177.6150  139.5220 C   0  0  0  0  0  3  0  0  0  0  0  0
  187.4330  178.0210  137.9240 C   0  0  0  0  0  0  0  0  0  0  0  0
  186.3950  178.4240  138.8170 N   0  0  0  0  0  2  0  0  0  0  0  0
  190.6040  176.7490  137.1140 C   0  0  0  0  0  3  0  0  0  0  0  0
  187.2750  177.8370  136.5900 N   0  0  0  0  0  0  0  0  0  0  0  0
  189.2980  177.2370  137.1370 C   0  0  0  0  0  0  0  0  0  0  0  0
  190.6760  177.1220  139.5400 C   0  0  0  0  0  0  0  0  0  0  0  0
  188.4260  177.3670  136.1210 N   0  0  0  0  0  0  0  0  0  0  0  0
  191.2960  176.6980  138.3410 C   0  0  0  0  0  3  0  0  0  0  0  0
  188.7040  177.6500  138.2940 C   0  0  0  0  0  0  0  0  0  0  0  0
  191.4470  177.0770  140.8180 C   0  0  0  0  0  2  0  0  0  0  0  0
  190.8040  176.1900  141.7800 N   0  0  0  0  0  2  0  0  0  0  0  0
  186.1900  178.2400  145.2510 C   0  0  0  0  0  0  0  0  0  0  0  0
  185.2390  178.9810  147.3210 N   0  0  0  0  0  1  0  0  0  0  0  0
  185.1470  178.7020  145.9280 C   0  0  0  0  0  3  0  0  0  0  0  0
  187.8380  177.4370  143.6360 C   0  0  0  0  0  0  0  0  0  0  0  0
  188.3390  177.5370  144.9220 C   0  0  0  0  0  0  0  0  0  0  0  0
  189.6590  177.1970  145.2140 C   0  0  0  0  0  3  0  0  0  0  0  0
  189.9780  176.6470  142.8550 C   0  0  0  0  0  0  0  0  0  0  0  0
  187.4240  177.9950  145.8500 O   0  0  0  0  0  0  0  0  0  0  0  0
  188.6460  176.9970  142.5880 C   0  0  0  0  0  3  0  0  0  0  0  0
  186.1140  177.8930  143.4860 S   0  0  0  0  0  0  0  0  0  0  0  0
  190.4810  176.7490  144.1700 C   0  0  0  0  0  3  0  0  0  0  0  0
  182.6300  177.7770  137.4920 S   0  0  0  0  0  0  0  0  0  0  0  0
  182.5790  176.0770  136.8150 C   0  0  1  0  0  3  0  0  0  0  0  0
  184.3540  175.5990  135.0010 C   0  0  0  0  0  1  0  0  0  0  0  0
  183.9520  175.4580  136.4620 C   0  0  2  0  0  3  0  0  0  0  0  0
  183.7510  173.0110  135.7660 C   0  0  0  0  0  1  0  0  0  0  0  0
  184.0770  173.9850  136.8860 C   0  0  1  0  0  3  0  0  0  0  0  0
  185.3710  173.6300  137.6300 C   0  0  0  0  0  2  0  0  0  0  0  0
  186.6130  174.2240  136.9860 C   0  0  0  0  0  2  0  0  0  0  0  0
  187.3330  173.2150  136.3450 O   0  0  0  0  0  1  0  0  0  0  0  0
  181.7930  175.1670  137.7540 C   0  0  0  0  0  2  0  0  0  0  0  0
  181.2100  175.9360  138.8440 N   0  0  0  0  0  2  0  0  0  0  0  0
  179.8780  174.1760  139.6120 O   0  0  0  0  0  0  0  0  0  0  0  0
  180.2800  175.3610  139.7660 C   0  0  0  0  0  0  0  0  0  0  0  0
  179.7840  176.1550  140.9250 C   0  0  2  0  0  3  0  0  0  0  0  0
  178.9410  175.3690  141.7140 O   0  0  0  0  0  1  0  0  0  0  0  0
  179.0360  177.3830  140.4290 C   0  0  0  0  0  2  0  0  0  0  0  0
  180.5090  180.6280  139.6360 O   0  0  0  0  0  1  0  0  0  0  0  0
  179.9030  179.5340  139.4920 C   0  0  0  0  0  0  0  0  0  0  0  0
  179.8560  178.5810  140.5680 N   0  0  0  0  0  0  0  0  0  0  0  0
  179.2740  179.2570  138.2820 O   0  0  0  0  0  0  0  0  0  0  0  0
  180.3810  178.9200  141.8910 C   0  0  0  0  0  0  0  0  0  0  0  0
  179.7020  180.0970  142.5630 C   0  0  0  0  0  2  0  0  0  0  0  0
  179.4380  178.6790  143.0500 C   0  0  0  0  0  2  0  0  0  0  0  0
  181.8490  178.7720  142.1370 C   0  0  0  0  0  0  0  0  0  0  0  0
  182.5820  178.3760  141.2460 O   0  0  0  0  0  0  0  0  0  0  0  0
  182.4180  179.0480  143.4840 C   0  0  0  0  0  1  0  0  0  0  0  0
  1  2  2  0  0  0  0
  2  6  1  0  0  0  0
  3 11  1  0  0  0  0
  4 10  1  0  0  0  0
  5 13  1  0  0  0  0
  5  6  1  0  0  0  0
  7  9  2  0  0  0  0
  7 12  1  0  0  0  0
  8  5  2  0  0  0  0
  9 13  1  0  0  0  0
 10 14  1  0  0  0  0
 11  8  1  0  0  0  0
 11  9  1  0  0  0  0
 12 10  2  0  0  0  0
 13  4  2  0  0  0  0
 14 15  1  0  0  0  0
 15 22  1  0  0  0  0
 16 23  1  0  0  0  0
 16 18  2  0  0  0  0
 18 17  1  0  0  0  0
 19 20  1  0  0  0  0
 20 21  2  0  0  0  0
 20 23  1  0  0  0  0
 22 26  2  0  0  0  0
 24 22  1  0  0  0  0
 24 19  2  0  0  0  0
 25 19  1  0  0  0  0
 25 16  1  0  0  0  0
 26 21  1  0  0  0  0
 27  1  1  0  0  0  0
 28 27  1  0  0  0  0
 28 36  1  1  0  0  0
 30 29  1  6  0  0  0
 30 28  1  0  0  0  0
 30 32  1  0  0  0  0
 32 31  1  6  0  0  0
 32 33  1  0  0  0  0
 34 33  1  0  0  0  0
 35 34  1  0  0  0  0
 36 37  1  0  0  0  0
 37 39  1  0  0  0  0
 38 39  2  0  0  0  0
 39 40  1  0  0  0  0
 40 41  1  6  0  0  0
 42 45  1  0  0  0  0
 42 40  1  0  0  0  0
 44 43  1  0  0  0  0
 44 45  1  0  0  0  0
 45 47  1  0  0  0  0
 46 44  2  0  0  0  0
 47 50  1  0  0  0  0
 47 48  1  0  0  0  0
 47 49  1  0  0  0  0
 48 49  1  0  0  0  0
 50 52  1  0  0  0  0
 51 50  2  0  0  0  0
M  END
>  <MODEL>
3

>  <REMARK>
 VINA RESULT:      -7.4      2.912      8.225
  Name = 
  17 active torsions:
  status: ('A' for Active; 'I' for Inactive)
    1  A    between atoms: C_1  and  C_3
    2  A    between atoms: C_1  and  C_12
    3  A    between atoms: C_1  and  S_40
    4  A    between atoms: C_2  and  C_10
    5  A    between atoms: C_2  and  N_37
    6  A    between atoms: C_3  and  N_4
    7  A    between atoms: C_5  and  S_40
    8  A    between atoms: C_7  and  C_16
    9  A    between atoms: C_9  and  N_20
   10  A    between atoms: C_9  and  C_34
   11  A    between atoms: C_12  and  C_49
   12  A    between atoms: C_13  and  C_27
   13  A    between atoms: C_13  and  C_36
   14  A    between atoms: C_16  and  C_49
   15  A    between atoms: N_18  and  C_19
   16  A    between atoms: N_20  and  C_39
   17  A    between atoms: C_27  and  N_37
                            x       y       z     vdW  Elec       q    Type
                         _______ _______ _______ _____ _____    ______ ____

>  <TORSDO>
F 17

$$$$
=
 OpenBabel10222417443D

 52 56  0  0  1  0  0  0  0  0999 V2000
  188.6040  177.8140  140.7250 C   0  0  0  0  0  3  0  0  0  0  0  0
  188.8860  178.3030  139.5270 C   0  0  0  0  0  3  0  0  0  0  0  0
  184.7400  176.3410  136.7490 C   0  0  0  0  0  1  0  0  0  0  0  0
  189.4570  175.2020  136.2320 C   0  0  0  0  0  3  0  0  0  0  0  0
  188.1530  176.8540  137.6400 C   0  0  0  0  0  0  0  0  0  0  0  0
  189.1810  177.4150  138.4540 N   0  0  0  0  0  2  0  0  0  0  0  0
  186.8350  174.5730  135.3180 C   0  0  0  0  0  3  0  0  0  0  0  0
  186.8320  177.1380  137.7580 N   0  0  0  0  0  0  0  0  0  0  0  0
  187.0710  175.5680  136.2650 C   0  0  0  0  0  0  0  0  0  0  0  0
  189.2600  174.1850  135.2760 C   0  0  0  0  0  0  0  0  0  0  0  0
  186.1850  176.3520  136.9060 N   0  0  0  0  0  0  0  0  0  0  0  0
  187.9560  173.8780  134.8180 C   0  0  0  0  0  3  0  0  0  0  0  0
  188.3290  175.8650  136.7010 C   0  0  0  0  0  0  0  0  0  0  0  0
  190.4260  173.4460  134.7070 C   0  0  0  0  0  2  0  0  0  0  0  0
  191.1960  172.8000  135.7650 N   0  0  0  0  0  2  0  0  0  0  0  0
  196.9120  174.2590  137.4190 C   0  0  0  0  0  0  0  0  0  0  0  0
  198.5160  175.4740  138.7190 N   0  0  0  0  0  1  0  0  0  0  0  0
  198.1770  174.5030  137.7340 C   0  0  0  0  0  3  0  0  0  0  0  0
  194.7570  173.4750  136.5750 C   0  0  0  0  0  0  0  0  0  0  0  0
  194.6400  174.4780  137.5210 C   0  0  0  0  0  0  0  0  0  0  0  0
  193.3920  174.9590  137.9160 C   0  0  0  0  0  3  0  0  0  0  0  0
  192.3560  173.3770  136.3690 C   0  0  0  0  0  0  0  0  0  0  0  0
  195.8470  174.9320  138.0150 O   0  0  0  0  0  0  0  0  0  0  0  0
  193.6240  172.9090  135.9920 C   0  0  0  0  0  3  0  0  0  0  0  0
  196.4460  173.0260  136.1910 S   0  0  0  0  0  0  0  0  0  0  0  0
  192.2450  174.4020  137.3330 C   0  0  0  0  0  3  0  0  0  0  0  0
  188.1870  178.9040  142.0790 S   0  0  0  0  0  0  0  0  0  0  0  0
  188.5570  177.6170  143.3270 C   0  0  1  0  0  3  0  0  0  0  0  0
  190.6640  179.0350  143.8040 C   0  0  0  0  0  1  0  0  0  0  0  0
  189.7260  177.9370  144.2890 C   0  0  2  0  0  3  0  0  0  0  0  0
  191.0170  175.8930  143.4710 C   0  0  0  0  0  1  0  0  0  0  0  0
  190.5480  176.6960  144.6730 C   0  0  1  0  0  3  0  0  0  0  0  0
  191.6640  176.9450  145.6970 C   0  0  0  0  0  2  0  0  0  0  0  0
  191.2350  176.6600  147.1270 C   0  0  0  0  0  2  0  0  0  0  0  0
  191.6030  175.3600  147.4740 O   0  0  0  0  0  1  0  0  0  0  0  0
  187.2910  177.2650  144.1030 C   0  0  0  0  0  2  0  0  0  0  0  0
  186.1060  177.5620  143.3110 N   0  0  0  0  0  2  0  0  0  0  0  0
  185.1620  178.9660  144.9220 O   0  0  0  0  0  0  0  0  0  0  0  0
  185.0910  178.4590  143.7700 C   0  0  0  0  0  0  0  0  0  0  0  0
  183.9450  178.8100  142.8860 C   0  0  2  0  0  3  0  0  0  0  0  0
  182.7530  178.7600  143.6130 O   0  0  0  0  0  1  0  0  0  0  0  0
  183.8790  177.8430  141.7140 C   0  0  0  0  0  2  0  0  0  0  0  0
  183.3090  179.7800  138.6720 O   0  0  0  0  0  0  0  0  0  0  0  0
  183.8660  179.3460  139.7140 C   0  0  0  0  0  0  0  0  0  0  0  0
  183.1700  178.4410  140.5890 N   0  0  0  0  0  0  0  0  0  0  0  0
  185.1660  179.7460  140.0100 O   0  0  0  0  0  1  0  0  0  0  0  0
  181.8650  177.8950  140.2140 C   0  0  0  0  0  0  0  0  0  0  0  0
  181.7590  177.4250  138.7770 C   0  0  0  0  0  2  0  0  0  0  0  0
  181.8390  176.4120  139.9110 C   0  0  0  0  0  2  0  0  0  0  0  0
  180.6360  178.5140  140.8020 C   0  0  0  0  0  0  0  0  0  0  0  0
  180.6440  179.6840  141.1440 O   0  0  0  0  0  0  0  0  0  0  0  0
  179.4160  177.6940  141.0290 C   0  0  0  0  0  1  0  0  0  0  0  0
  1 27  1  0  0  0  0
  2  1  2  0  0  0  0
  3 11  1  0  0  0  0
  4 13  1  0  0  0  0
  5  8  2  0  0  0  0
  5  6  1  0  0  0  0
  6  2  1  0  0  0  0
  7  9  1  0  0  0  0
  9 13  2  0  0  0  0
  9 11  1  0  0  0  0
 10  4  2  0  0  0  0
 11  8  1  0  0  0  0
 12 10  1  0  0  0  0
 12  7  2  0  0  0  0
 13  5  1  0  0  0  0
 14 10  1  0  0  0  0
 14 15  1  0  0  0  0
 15 22  1  0  0  0  0
 16 18  2  0  0  0  0
 16 23  1  0  0  0  0
 18 17  1  0  0  0  0
 19 20  1  0  0  0  0
 20 21  2  0  0  0  0
 20 23  1  0  0  0  0
 22 26  2  0  0  0  0
 24 22  1  0  0  0  0
 24 19  2  0  0  0  0
 25 19  1  0  0  0  0
 25 16  1  0  0  0  0
 26 21  1  0  0  0  0
 27 28  1  0  0  0  0
 28 36  1  1  0  0  0
 28 30  1  0  0  0  0
 30 29  1  6  0  0  0
 30 32  1  0  0  0  0
 32 31  1  6  0  0  0
 32 33  1  0  0  0  0
 33 34  1  0  0  0  0
 34 35  1  0  0  0  0
 37 39  1  0  0  0  0
 37 36  1  0  0  0  0
 39 38  2  0  0  0  0
 40 41  1  1  0  0  0
 40 39  1  0  0  0  0
 42 40  1  0  0  0  0
 43 44  2  0  0  0  0
 44 46  1  0  0  0  0
 44 45  1  0  0  0  0
 45 42  1  0  0  0  0
 47 45  1  0  0  0  0
 47 50  1  0  0  0  0
 48 49  1  0  0  0  0
 48 47  1  0  0  0  0
 49 47  1  0  0  0  0
 50 52  1  0  0  0  0
 50 51  2  0  0  0  0
M  END
>  <MODEL>
4

>  <REMARK>
 VINA RESULT:      -7.2      2.884      9.918
  Name = 
  17 active torsions:
  status: ('A' for Active; 'I' for Inactive)
    1  A    between atoms: C_1  and  C_3
    2  A    between atoms: C_1  and  C_12
    3  A    between atoms: C_1  and  S_40
    4  A    between atoms: C_2  and  C_10
    5  A    between atoms: C_2  and  N_37
    6  A    between atoms: C_3  and  N_4
    7  A    between atoms: C_5  and  S_40
    8  A    between atoms: C_7  and  C_16
    9  A    between atoms: C_9  and  N_20
   10  A    between atoms: C_9  and  C_34
   11  A    between atoms: C_12  and  C_49
   12  A    between atoms: C_13  and  C_27
   13  A    between atoms: C_13  and  C_36
   14  A    between atoms: C_16  and  C_49
   15  A    between atoms: N_18  and  C_19
   16  A    between atoms: N_20  and  C_39
   17  A    between atoms: C_27  and  N_37
                            x       y       z     vdW  Elec       q    Type
                         _______ _______ _______ _____ _____    ______ ____

>  <TORSDO>
F 17

$$$$
=
 OpenBabel10222417443D

 52 56  0  0  1  0  0  0  0  0999 V2000
  187.6560  178.0180  140.8500 C   0  0  0  0  0  3  0  0  0  0  0  0
  188.2960  178.4740  139.7830 C   0  0  0  0  0  3  0  0  0  0  0  0
  184.2510  177.0790  136.5490 C   0  0  0  0  0  1  0  0  0  0  0  0
  188.8410  175.4250  136.4360 C   0  0  0  0  0  3  0  0  0  0  0  0
  187.5950  177.1730  137.7790 C   0  0  0  0  0  0  0  0  0  0  0  0
  188.5940  177.5890  138.7090 N   0  0  0  0  0  2  0  0  0  0  0  0
  186.2680  175.1260  135.2540 C   0  0  0  0  0  3  0  0  0  0  0  0
  186.3090  177.6030  137.7830 N   0  0  0  0  0  0  0  0  0  0  0  0
  186.5180  176.0600  136.2580 C   0  0  0  0  0  0  0  0  0  0  0  0
  188.6270  174.4650  135.4260 C   0  0  0  0  0  0  0  0  0  0  0  0
  185.6660  176.9210  136.8430 N   0  0  0  0  0  0  0  0  0  0  0  0
  187.3480  174.3220  134.8350 C   0  0  0  0  0  3  0  0  0  0  0  0
  187.7530  176.1980  136.8220 C   0  0  0  0  0  0  0  0  0  0  0  0
  189.7550  173.6140  134.9410 C   0  0  0  0  0  2  0  0  0  0  0  0
  190.5030  173.0580  136.0630 N   0  0  0  0  0  2  0  0  0  0  0  0
  196.4140  174.1630  137.2350 C   0  0  0  0  0  0  0  0  0  0  0  0
  198.1940  175.3650  138.2960 N   0  0  0  0  0  1  0  0  0  0  0  0
  197.7120  174.3220  137.4530 C   0  0  0  0  0  3  0  0  0  0  0  0
  194.1520  173.4890  136.6030 C   0  0  0  0  0  0  0  0  0  0  0  0
  194.1800  174.6000  137.4270 C   0  0  0  0  0  0  0  0  0  0  0  0
  193.0050  175.2360  137.8250 C   0  0  0  0  0  3  0  0  0  0  0  0
  191.7430  173.5900  136.5340 C   0  0  0  0  0  0  0  0  0  0  0  0
  195.4500  174.9940  137.8000 O   0  0  0  0  0  0  0  0  0  0  0  0
  192.9410  172.9670  136.1500 C   0  0  0  0  0  3  0  0  0  0  0  0
  195.7700  172.8450  136.1890 S   0  0  0  0  0  0  0  0  0  0  0  0
  191.7800  174.7250  137.3730 C   0  0  0  0  0  3  0  0  0  0  0  0
  187.2280  179.1170  142.1950 S   0  0  0  0  0  0  0  0  0  0  0  0
  186.6590  177.7300  143.2450 C   0  0  1  0  0  3  0  0  0  0  0  0
  187.5140  177.3840  145.6580 C   0  0  0  0  0  1  0  0  0  0  0  0
  187.7300  177.1140  144.1750 C   0  0  2  0  0  3  0  0  0  0  0  0
  189.8860  178.2830  144.8790 C   0  0  0  0  0  1  0  0  0  0  0  0
  189.1650  177.5090  143.7880 C   0  0  1  0  0  3  0  0  0  0  0  0
  190.0150  176.3770  143.1960 C   0  0  0  0  0  2  0  0  0  0  0  0
  191.5000  176.5360  143.4780 C   0  0  0  0  0  2  0  0  0  0  0  0
  192.1140  177.1710  142.3970 O   0  0  0  0  0  1  0  0  0  0  0  0
  185.4230  178.1480  144.0350 C   0  0  0  0  0  2  0  0  0  0  0  0
  184.2790  178.3110  143.1490 N   0  0  0  0  0  2  0  0  0  0  0  0
  182.8400  179.0280  144.8450 O   0  0  0  0  0  0  0  0  0  0  0  0
  183.0180  178.7960  143.6190 C   0  0  0  0  0  0  0  0  0  0  0  0
  181.9040  179.0410  142.6600 C   0  0  2  0  0  3  0  0  0  0  0  0
  180.7070  178.5520  143.1880 O   0  0  0  0  0  1  0  0  0  0  0  0
  182.2040  178.3600  141.3330 C   0  0  0  0  0  2  0  0  0  0  0  0
  182.8090  180.4840  138.4260 O   0  0  0  0  0  0  0  0  0  0  0  0
  183.0250  179.8040  139.4630 C   0  0  0  0  0  0  0  0  0  0  0  0
  181.9290  179.2570  140.2170 N   0  0  0  0  0  0  0  0  0  0  0  0
  184.3370  179.5820  139.8720 O   0  0  0  0  0  1  0  0  0  0  0  0
  180.5570  179.3530  139.7180 C   0  0  0  0  0  0  0  0  0  0  0  0
  180.2760  178.5480  138.4640 C   0  0  0  0  0  2  0  0  0  0  0  0
  179.7360  178.0850  139.8110 C   0  0  0  0  0  2  0  0  0  0  0  0
  179.8430  180.6630  139.8390 C   0  0  0  0  0  0  0  0  0  0  0  0
  179.7130  181.3810  138.8620 O   0  0  0  0  0  0  0  0  0  0  0  0
  179.3400  181.1260  141.1600 C   0  0  0  0  0  1  0  0  0  0  0  0
  1 27  1  0  0  0  0
  2  1  2  0  0  0  0
  3 11  1  0  0  0  0
  4 13  1  0  0  0  0
  5  8  2  0  0  0  0
  5  6  1  0  0  0  0
  6  2  1  0  0  0  0
  7  9  1  0  0  0  0
  9 13  2  0  0  0  0
  9 11  1  0  0  0  0
 10  4  2  0  0  0  0
 11  8  1  0  0  0  0
 12  7  2  0  0  0  0
 12 10  1  0  0  0  0
 13  5  1  0  0  0  0
 14 10  1  0  0  0  0
 14 15  1  0  0  0  0
 15 22  1  0  0  0  0
 16 18  2  0  0  0  0
 16 23  1  0  0  0  0
 18 17  1  0  0  0  0
 19 20  1  0  0  0  0
 20 23  1  0  0  0  0
 20 21  2  0  0  0  0
 22 26  2  0  0  0  0
 24 22  1  0  0  0  0
 24 19  2  0  0  0  0
 25 19  1  0  0  0  0
 25 16  1  0  0  0  0
 26 21  1  0  0  0  0
 27 28  1  0  0  0  0
 28 36  1  1  0  0  0
 28 30  1  0  0  0  0
 30 29  1  1  0  0  0
 32 30  1  0  0  0  0
 32 31  1  1  0  0  0
 33 34  1  0  0  0  0
 33 32  1  0  0  0  0
 35 34  1  0  0  0  0
 37 39  1  0  0  0  0
 37 36  1  0  0  0  0
 39 38  2  0  0  0  0
 40 41  1  1  0  0  0
 40 39  1  0  0  0  0
 42 40  1  0  0  0  0
 43 44  2  0  0  0  0
 44 46  1  0  0  0  0
 44 45  1  0  0  0  0
 45 42  1  0  0  0  0
 47 49  1  0  0  0  0
 47 50  1  0  0  0  0
 47 45  1  0  0  0  0
 48 47  1  0  0  0  0
 48 49  1  0  0  0  0
 50 52  1  0  0  0  0
 51 50  2  0  0  0  0
M  END
>  <MODEL>
5

>  <REMARK>
 VINA RESULT:      -6.9      2.992      9.989
  Name = 
  17 active torsions:
  status: ('A' for Active; 'I' for Inactive)
    1  A    between atoms: C_1  and  C_3
    2  A    between atoms: C_1  and  C_12
    3  A    between atoms: C_1  and  S_40
    4  A    between atoms: C_2  and  C_10
    5  A    between atoms: C_2  and  N_37
    6  A    between atoms: C_3  and  N_4
    7  A    between atoms: C_5  and  S_40
    8  A    between atoms: C_7  and  C_16
    9  A    between atoms: C_9  and  N_20
   10  A    between atoms: C_9  and  C_34
   11  A    between atoms: C_12  and  C_49
   12  A    between atoms: C_13  and  C_27
   13  A    between atoms: C_13  and  C_36
   14  A    between atoms: C_16  and  C_49
   15  A    between atoms: N_18  and  C_19
   16  A    between atoms: N_20  and  C_39
   17  A    between atoms: C_27  and  N_37
                            x       y       z     vdW  Elec       q    Type
                         _______ _______ _______ _____ _____    ______ ____

>  <TORSDO>
F 17

$$$$
=
 OpenBabel10222417443D

 52 56  0  0  1  0  0  0  0  0999 V2000
  190.6710  176.4340  140.4390 C   0  0  0  0  0  3  0  0  0  0  0  0
  191.1890  176.4420  139.2200 C   0  0  0  0  0  3  0  0  0  0  0  0
  187.2470  178.8430  136.4890 C   0  0  0  0  0  1  0  0  0  0  0  0
  188.7750  174.2290  136.0460 C   0  0  0  0  0  3  0  0  0  0  0  0
  189.5190  176.2460  137.3830 C   0  0  0  0  0  0  0  0  0  0  0  0
  190.5630  175.6940  138.1820 N   0  0  0  0  0  2  0  0  0  0  0  0
  186.8230  176.0930  135.1380 C   0  0  0  0  0  3  0  0  0  0  0  0
  189.0620  177.5190  137.4820 N   0  0  0  0  0  0  0  0  0  0  0  0
  187.8170  176.4460  136.0490 C   0  0  0  0  0  0  0  0  0  0  0  0
  187.7830  173.8320  135.1260 C   0  0  0  0  0  0  0  0  0  0  0  0
  188.0280  177.6290  136.6550 N   0  0  0  0  0  0  0  0  0  0  0  0
  186.8170  174.7620  134.6720 C   0  0  0  0  0  3  0  0  0  0  0  0
  188.7500  175.5480  136.4820 C   0  0  0  0  0  0  0  0  0  0  0  0
  187.7610  172.4370  134.5940 C   0  0  0  0  0  2  0  0  0  0  0  0
  187.1690  171.5220  135.5630 N   0  0  0  0  0  2  0  0  0  0  0  0
  181.1790  171.9600  136.7740 C   0  0  0  0  0  0  0  0  0  0  0  0
  178.9360  171.1200  136.7920 N   0  0  0  0  0  1  0  0  0  0  0  0
  179.9010  172.1250  137.0870 C   0  0  0  0  0  3  0  0  0  0  0  0
  183.5950  172.0550  136.4210 C   0  0  0  0  0  0  0  0  0  0  0  0
  183.0200  170.8900  135.9440 C   0  0  0  0  0  0  0  0  0  0  0  0
  183.7870  169.9030  135.3290 C   0  0  0  0  0  3  0  0  0  0  0  0
  185.7630  171.2950  135.6870 C   0  0  0  0  0  0  0  0  0  0  0  0
  181.6550  170.8150  136.1390 O   0  0  0  0  0  0  0  0  0  0  0  0
  184.9670  172.2720  136.3050 C   0  0  0  0  0  3  0  0  0  0  0  0
  182.4290  173.2020  137.1470 S   0  0  0  0  0  0  0  0  0  0  0  0
  185.1680  170.1110  135.2010 C   0  0  0  0  0  3  0  0  0  0  0  0
  191.4090  177.4000  141.7500 S   0  0  0  0  0  0  0  0  0  0  0  0
  189.8100  177.5750  142.6230 C   0  0  1  0  0  3  0  0  0  0  0  0
  191.0310  179.3310  144.0710 C   0  0  0  0  0  1  0  0  0  0  0  0
  189.8570  178.3700  143.9490 C   0  0  2  0  0  3  0  0  0  0  0  0
  191.1760  177.1260  145.7440 C   0  0  0  0  0  1  0  0  0  0  0  0
  189.8010  177.4700  145.1940 C   0  0  1  0  0  3  0  0  0  0  0  0
  188.8180  177.9230  146.2820 C   0  0  0  0  0  2  0  0  0  0  0  0
  189.2440  177.5090  147.6810 C   0  0  0  0  0  2  0  0  0  0  0  0
  188.4090  178.1150  148.6210 O   0  0  0  0  0  1  0  0  0  0  0  0
  188.7610  178.1510  141.6760 C   0  0  0  0  0  2  0  0  0  0  0  0
  187.5190  178.4190  142.3880 N   0  0  0  0  0  2  0  0  0  0  0  0
  186.3320  179.0050  140.4630 O   0  0  0  0  0  0  0  0  0  0  0  0
  186.3230  178.8090  141.7080 C   0  0  0  0  0  0  0  0  0  0  0  0
  185.0510  178.9770  142.4650 C   0  0  2  0  0  3  0  0  0  0  0  0
  185.3100  178.9650  143.8370 O   0  0  0  0  0  1  0  0  0  0  0  0
  184.0840  177.8570  142.1090 C   0  0  0  0  0  2  0  0  0  0  0  0
  180.9840  179.7790  142.2790 O   0  0  0  0  0  0  0  0  0  0  0  0
  182.0460  179.2060  142.6400 C   0  0  0  0  0  0  0  0  0  0  0  0
  182.7900  178.3980  141.7120 N   0  0  0  0  0  0  0  0  0  0  0  0
  182.4960  179.3670  143.9470 O   0  0  0  0  0  1  0  0  0  0  0  0
  182.4120  178.3430  140.2990 C   0  0  0  0  0  0  0  0  0  0  0  0
  181.7610  177.0460  139.8630 C   0  0  0  0  0  2  0  0  0  0  0  0
  180.9250  178.3090  140.0200 C   0  0  0  0  0  2  0  0  0  0  0  0
  183.3000  179.0090  139.2960 C   0  0  0  0  0  0  0  0  0  0  0  0
  183.4500  180.2200  139.3180 O   0  0  0  0  0  0  0  0  0  0  0  0
  183.9590  178.2110  138.2270 C   0  0  0  0  0  1  0  0  0  0  0  0
  1 27  1  0  0  0  0
  2  1  2  0  0  0  0
  3 11  1  0  0  0  0
  4 13  1  0  0  0  0
  5  8  2  0  0  0  0
  5  6  1  0  0  0  0
  6  2  1  0  0  0  0
  7  9  1  0  0  0  0
  9 13  2  0  0  0  0
  9 11  1  0  0  0  0
 10  4  2  0  0  0  0
 11  8  1  0  0  0  0
 12 10  1  0  0  0  0
 12  7  2  0  0  0  0
 13  5  1  0  0  0  0
 14 10  1  0  0  0  0
 14 15  1  0  0  0  0
 15 22  1  0  0  0  0
 16 18  2  0  0  0  0
 16 25  1  0  0  0  0
 17 18  1  0  0  0  0
 19 25  1  0  0  0  0
 20 23  1  0  0  0  0
 20 19  2  0  0  0  0
 21 20  1  0  0  0  0
 22 24  2  0  0  0  0
 23 16  1  0  0  0  0
 24 19  1  0  0  0  0
 26 21  2  0  0  0  0
 26 22  1  0  0  0  0
 27 28  1  0  0  0  0
 28 36  1  6  0  0  0
 28 30  1  0  0  0  0
 30 29  1  1  0  0  0
 30 32  1  0  0  0  0
 32 31  1  1  0  0  0
 32 33  1  0  0  0  0
 33 34  1  0  0  0  0
 34 35  1  0  0  0  0
 36 37  1  0  0  0  0
 38 39  2  0  0  0  0
 39 37  1  0  0  0  0
 39 40  1  0  0  0  0
 40 41  1  1  0  0  0
 42 40  1  0  0  0  0
 43 44  2  0  0  0  0
 44 46  1  0  0  0  0
 45 42  1  0  0  0  0
 45 44  1  0  0  0  0
 47 45  1  0  0  0  0
 48 49  1  0  0  0  0
 48 47  1  0  0  0  0
 49 47  1  0  0  0  0
 50 51  2  0  0  0  0
 50 47  1  0  0  0  0
 52 50  1  0  0  0  0
M  END
>  <MODEL>
6

>  <REMARK>
 VINA RESULT:      -6.7      3.119      8.928
  Name = 
  17 active torsions:
  status: ('A' for Active; 'I' for Inactive)
    1  A    between atoms: C_1  and  C_3
    2  A    between atoms: C_1  and  C_12
    3  A    between atoms: C_1  and  S_40
    4  A    between atoms: C_2  and  C_10
    5  A    between atoms: C_2  and  N_37
    6  A    between atoms: C_3  and  N_4
    7  A    between atoms: C_5  and  S_40
    8  A    between atoms: C_7  and  C_16
    9  A    between atoms: C_9  and  N_20
   10  A    between atoms: C_9  and  C_34
   11  A    between atoms: C_12  and  C_49
   12  A    between atoms: C_13  and  C_27
   13  A    between atoms: C_13  and  C_36
   14  A    between atoms: C_16  and  C_49
   15  A    between atoms: N_18  and  C_19
   16  A    between atoms: N_20  and  C_39
   17  A    between atoms: C_27  and  N_37
                            x       y       z     vdW  Elec       q    Type
                         _______ _______ _______ _____ _____    ______ ____

>  <TORSDO>
F 17

$$$$
=
 OpenBabel10222417443D

 52 56  0  0  1  0  0  0  0  0999 V2000
  183.3460  179.1930  139.5990 C   0  0  0  0  0  3  0  0  0  0  0  0
  184.6140  178.8650  139.7920 C   0  0  0  0  0  3  0  0  0  0  0  0
  181.0110  179.0360  143.7610 C   0  0  0  0  0  1  0  0  0  0  0  0
  185.8390  178.4430  144.1650 C   0  0  0  0  0  3  0  0  0  0  0  0
  184.2070  178.6260  142.2370 C   0  0  0  0  0  0  0  0  0  0  0  0
  185.0870  178.6240  141.1140 N   0  0  0  0  0  2  0  0  0  0  0  0
  183.4350  178.7490  145.6610 C   0  0  0  0  0  3  0  0  0  0  0  0
  182.8640  178.7960  142.1660 N   0  0  0  0  0  0  0  0  0  0  0  0
  183.4420  178.7190  144.2670 C   0  0  0  0  0  0  0  0  0  0  0  0
  185.8740  178.4740  145.5740 C   0  0  0  0  0  0  0  0  0  0  0  0
  182.4090  178.8420  143.4130 N   0  0  0  0  0  0  0  0  0  0  0  0
  184.6770  178.6200  146.3150 C   0  0  0  0  0  3  0  0  0  0  0  0
  184.5970  178.5730  143.5550 C   0  0  0  0  0  0  0  0  0  0  0  0
  187.1690  178.3150  146.3010 C   0  0  0  0  0  2  0  0  0  0  0  0
  187.8690  177.1160  145.8560 N   0  0  0  0  0  2  0  0  0  0  0  0
  191.4670  177.1670  140.8980 C   0  0  0  0  0  0  0  0  0  0  0  0
  193.5980  177.1470  139.8040 N   0  0  0  0  0  1  0  0  0  0  0  0
  192.1740  177.1590  139.7760 C   0  0  0  0  0  3  0  0  0  0  0  0
  189.8000  177.1410  142.6840 C   0  0  0  0  0  0  0  0  0  0  0  0
  191.1020  177.1620  143.1530 C   0  0  0  0  0  0  0  0  0  0  0  0
  191.3790  177.1700  144.5190 C   0  0  0  0  0  3  0  0  0  0  0  0
  188.9740  177.1300  144.9500 C   0  0  0  0  0  0  0  0  0  0  0  0
  192.0600  177.1710  142.1590 O   0  0  0  0  0  0  0  0  0  0  0  0
  188.7230  177.1200  143.5690 C   0  0  0  0  0  3  0  0  0  0  0  0
  189.6660  177.1640  140.9000 S   0  0  0  0  0  0  0  0  0  0  0  0
  190.3050  177.1540  145.4210 C   0  0  0  0  0  3  0  0  0  0  0  0
  182.7140  179.4570  137.9470 S   0  0  0  0  0  0  0  0  0  0  0  0
  180.9770  179.3630  138.5150 C   0  0  1  0  0  3  0  0  0  0  0  0
  180.2500  179.7300  136.0640 C   0  0  0  0  0  1  0  0  0  0  0  0
  179.9230  179.9330  137.5370 C   0  0  2  0  0  3  0  0  0  0  0  0
  179.8740  181.8500  139.2210 C   0  0  0  0  0  1  0  0  0  0  0  0
  179.6040  181.4160  137.7900 C   0  0  1  0  0  3  0  0  0  0  0  0
  180.1730  182.3910  136.7510 C   0  0  0  0  0  2  0  0  0  0  0  0
  181.1190  183.4180  137.3520 C   0  0  0  0  0  2  0  0  0  0  0  0
  181.3930  184.4080  136.4080 O   0  0  0  0  0  1  0  0  0  0  0  0
  180.6370  177.9300  138.9130 C   0  0  0  0  0  2  0  0  0  0  0  0
  181.6060  176.9990  138.3540 N   0  0  0  0  0  2  0  0  0  0  0  0
  180.0250  175.3340  137.9210 O   0  0  0  0  0  0  0  0  0  0  0  0
  181.2210  175.7220  137.8370 C   0  0  0  0  0  0  0  0  0  0  0  0
  182.2300  174.8420  137.1840 C   0  0  2  0  0  3  0  0  0  0  0  0
  181.7670  173.5250  137.1610 O   0  0  0  0  0  1  0  0  0  0  0  0
  183.5490  174.9170  137.9390 C   0  0  0  0  0  2  0  0  0  0  0  0
  186.0020  173.1150  135.9230 O   0  0  0  0  0  0  0  0  0  0  0  0
  185.1120  173.3420  136.7850 C   0  0  0  0  0  0  0  0  0  0  0  0
  184.6740  174.6880  137.0400 N   0  0  0  0  0  0  0  0  0  0  0  0
  184.5510  172.2770  137.4830 O   0  0  0  0  0  1  0  0  0  0  0  0
  185.1430  175.7980  136.2100 C   0  0  0  0  0  0  0  0  0  0  0  0
  184.7280  175.7240  134.7540 C   0  0  0  0  0  2  0  0  0  0  0  0
  184.0670  176.7270  135.6900 C   0  0  0  0  0  2  0  0  0  0  0  0
  186.4960  176.3740  136.4860 C   0  0  0  0  0  0  0  0  0  0  0  0
  186.7680  176.7920  137.5990 O   0  0  0  0  0  0  0  0  0  0  0  0
  187.4980  176.4990  135.3930 C   0  0  0  0  0  1  0  0  0  0  0  0
  1  2  2  0  0  0  0
  2  6  1  0  0  0  0
  4 10  1  0  0  0  0
  5 13  1  0  0  0  0
  6  5  1  0  0  0  0
  7 12  1  0  0  0  0
  8  5  2  0  0  0  0
  8 11  1  0  0  0  0
  9  7  2  0  0  0  0
 10 14  1  0  0  0  0
 10 12  2  0  0  0  0
 11  3  1  0  0  0  0
 11  9  1  0  0  0  0
 13  4  2  0  0  0  0
 13  9  1  0  0  0  0
 15 14  1  0  0  0  0
 16 25  1  0  0  0  0
 16 23  1  0  0  0  0
 18 17  1  0  0  0  0
 18 16  2  0  0  0  0
 19 20  2  0  0  0  0
 19 24  1  0  0  0  0
 20 21  1  0  0  0  0
 21 26  2  0  0  0  0
 22 26  1  0  0  0  0
 22 15  1  0  0  0  0
 23 20  1  0  0  0  0
 24 22  2  0  0  0  0
 25 19  1  0  0  0  0
 27 28  1  0  0  0  0
 27  1  1  0  0  0  0
 28 36  1  6  0  0  0
 30 29  1  6  0  0  0
 30 32  1  0  0  0  0
 30 28  1  0  0  0  0
 32 31  1  1  0  0  0
 33 34  1  0  0  0  0
 33 32  1  0  0  0  0
 35 34  1  0  0  0  0
 37 36  1  0  0  0  0
 39 38  2  0  0  0  0
 39 37  1  0  0  0  0
 40 41  1  1  0  0  0
 40 39  1  0  0  0  0
 40 42  1  0  0  0  0
 43 44  2  0  0  0  0
 44 45  1  0  0  0  0
 44 46  1  0  0  0  0
 45 42  1  0  0  0  0
 47 50  1  0  0  0  0
 47 45  1  0  0  0  0
 48 49  1  0  0  0  0
 48 47  1  0  0  0  0
 49 47  1  0  0  0  0
 50 51  2  0  0  0  0
 52 50  1  0  0  0  0
M  END
>  <MODEL>
7

>  <REMARK>
 VINA RESULT:      -6.6      3.757      9.496
  Name = 
  17 active torsions:
  status: ('A' for Active; 'I' for Inactive)
    1  A    between atoms: C_1  and  C_3
    2  A    between atoms: C_1  and  C_12
    3  A    between atoms: C_1  and  S_40
    4  A    between atoms: C_2  and  C_10
    5  A    between atoms: C_2  and  N_37
    6  A    between atoms: C_3  and  N_4
    7  A    between atoms: C_5  and  S_40
    8  A    between atoms: C_7  and  C_16
    9  A    between atoms: C_9  and  N_20
   10  A    between atoms: C_9  and  C_34
   11  A    between atoms: C_12  and  C_49
   12  A    between atoms: C_13  and  C_27
   13  A    between atoms: C_13  and  C_36
   14  A    between atoms: C_16  and  C_49
   15  A    between atoms: N_18  and  C_19
   16  A    between atoms: N_20  and  C_39
   17  A    between atoms: C_27  and  N_37
                            x       y       z     vdW  Elec       q    Type
                         _______ _______ _______ _____ _____    ______ ____

>  <TORSDO>
F 17

$$$$
=
 OpenBabel10222417443D

 52 56  0  0  1  0  0  0  0  0999 V2000
  186.7730  178.4670  140.6510 C   0  0  0  0  0  3  0  0  0  0  0  0
  188.0170  178.4320  140.1990 C   0  0  0  0  0  3  0  0  0  0  0  0
  193.2150  177.1260  140.0130 C   0  0  0  0  0  1  0  0  0  0  0  0
  189.6360  175.4570  137.1450 C   0  0  0  0  0  3  0  0  0  0  0  0
  189.7570  176.9850  139.1600 C   0  0  0  0  0  0  0  0  0  0  0  0
  188.4040  177.4210  139.2740 N   0  0  0  0  0  2  0  0  0  0  0  0
  192.4480  175.3710  137.5840 C   0  0  0  0  0  3  0  0  0  0  0  0
  190.7790  177.4310  139.9320 N   0  0  0  0  0  0  0  0  0  0  0  0
  191.5920  176.1060  138.4040 C   0  0  0  0  0  0  0  0  0  0  0  0
  190.4690  174.7060  136.2910 C   0  0  0  0  0  0  0  0  0  0  0  0
  191.8930  176.8780  139.4640 N   0  0  0  0  0  0  0  0  0  0  0  0
  191.8670  174.6600  136.5150 C   0  0  0  0  0  3  0  0  0  0  0  0
  190.2460  176.1450  138.1880 C   0  0  0  0  0  0  0  0  0  0  0  0
  189.8840  173.9210  135.1630 C   0  0  0  0  0  2  0  0  0  0  0  0
  189.4300  172.6140  135.6230 N   0  0  0  0  0  2  0  0  0  0  0  0
  183.3940  172.3810  136.6510 C   0  0  0  0  0  0  0  0  0  0  0  0
  181.2570  171.3010  136.5950 N   0  0  0  0  0  1  0  0  0  0  0  0
  182.0970  172.4020  136.9260 C   0  0  0  0  0  3  0  0  0  0  0  0
  185.7950  172.7440  136.3740 C   0  0  0  0  0  0  0  0  0  0  0  0
  185.3650  171.5290  135.8710 C   0  0  0  0  0  0  0  0  0  0  0  0
  186.2550  170.6380  135.2720 C   0  0  0  0  0  3  0  0  0  0  0  0
  188.0540  172.2330  135.7020 C   0  0  0  0  0  0  0  0  0  0  0  0
  184.0110  171.3020  136.0230 O   0  0  0  0  0  0  0  0  0  0  0  0
  187.1370  173.1110  136.3020 C   0  0  0  0  0  3  0  0  0  0  0  0
  184.4890  173.7480  137.0720 S   0  0  0  0  0  0  0  0  0  0  0  0
  187.6080  170.9970  135.1880 C   0  0  0  0  0  3  0  0  0  0  0  0
  186.2480  179.7520  141.7780 S   0  0  0  0  0  0  0  0  0  0  0  0
  184.5550  179.0650  141.8900 C   0  0  1  0  0  3  0  0  0  0  0  0
  183.8730  179.2180  139.4030 C   0  0  0  0  0  1  0  0  0  0  0  0
  184.0480  178.3300  140.6270 C   0  0  2  0  0  3  0  0  0  0  0  0
  181.5370  178.4190  141.0720 C   0  0  0  0  0  1  0  0  0  0  0  0
  182.7550  177.5340  140.8700 C   0  0  1  0  0  3  0  0  0  0  0  0
  182.5030  176.3850  139.8840 C   0  0  0  0  0  2  0  0  0  0  0  0
  181.1400  176.4620  139.2140 C   0  0  0  0  0  2  0  0  0  0  0  0
  180.5090  175.2210  139.2980 O   0  0  0  0  0  1  0  0  0  0  0  0
  184.4330  178.1790  143.1260 C   0  0  0  0  0  2  0  0  0  0  0  0
  185.7510  177.8340  143.6410 N   0  0  0  0  0  2  0  0  0  0  0  0
  185.2110  178.3310  145.8600 O   0  0  0  0  0  0  0  0  0  0  0  0
  186.0610  177.8980  145.0360 C   0  0  0  0  0  0  0  0  0  0  0  0
  187.3900  177.4430  145.5300 C   0  0  2  0  0  3  0  0  0  0  0  0
  187.5470  177.8030  146.8700 O   0  0  0  0  0  1  0  0  0  0  0  0
  188.4960  178.0660  144.6920 C   0  0  0  0  0  2  0  0  0  0  0  0
  190.1270  175.2990  142.9570 O   0  0  0  0  0  1  0  0  0  0  0  0
  189.2270  176.0880  143.3470 C   0  0  0  0  0  0  0  0  0  0  0  0
  189.5110  177.0750  144.3530 N   0  0  0  0  0  0  0  0  0  0  0  0
  187.9540  175.9990  142.7920 O   0  0  0  0  0  0  0  0  0  0  0  0
  190.8770  177.2800  144.8350 C   0  0  0  0  0  0  0  0  0  0  0  0
  191.9020  177.5470  143.7500 C   0  0  0  0  0  2  0  0  0  0  0  0
  191.4320  178.6780  144.6560 C   0  0  0  0  0  2  0  0  0  0  0  0
  191.3480  176.4830  146.0100 C   0  0  0  0  0  0  0  0  0  0  0  0
  192.0940  175.5320  145.8470 O   0  0  0  0  0  0  0  0  0  0  0  0
  190.8640  176.8050  147.3800 C   0  0  0  0  0  1  0  0  0  0  0  0
  1 27  1  0  0  0  0
  2  1  2  0  0  0  0
  4 13  1  0  0  0  0
  5  6  1  0  0  0  0
  5  8  2  0  0  0  0
  6  2  1  0  0  0  0
  7  9  1  0  0  0  0
  9 11  1  0  0  0  0
 10 12  1  0  0  0  0
 10  4  2  0  0  0  0
 11  8  1  0  0  0  0
 11  3  1  0  0  0  0
 12  7  2  0  0  0  0
 13  9  2  0  0  0  0
 13  5  1  0  0  0  0
 14 15  1  0  0  0  0
 14 10  1  0  0  0  0
 15 22  1  0  0  0  0
 16 18  2  0  0  0  0
 16 25  1  0  0  0  0
 17 18  1  0  0  0  0
 19 25  1  0  0  0  0
 20 23  1  0  0  0  0
 20 19  2  0  0  0  0
 21 20  1  0  0  0  0
 22 24  2  0  0  0  0
 23 16  1  0  0  0  0
 24 19  1  0  0  0  0
 26 21  2  0  0  0  0
 26 22  1  0  0  0  0
 27 28  1  0  0  0  0
 28 36  1  1  0  0  0
 30 29  1  6  0  0  0
 30 32  1  0  0  0  0
 30 28  1  0  0  0  0
 32 31  1  6  0  0  0
 33 32  1  0  0  0  0
 34 35  1  0  0  0  0
 34 33  1  0  0  0  0
 36 37  1  0  0  0  0
 37 39  1  0  0  0  0
 39 40  1  0  0  0  0
 39 38  2  0  0  0  0
 40 41  1  1  0  0  0
 42 40  1  0  0  0  0
 43 44  1  0  0  0  0
 44 45  1  0  0  0  0
 45 42  1  0  0  0  0
 45 47  1  0  0  0  0
 46 44  2  0  0  0  0
 47 50  1  0  0  0  0
 48 49  1  0  0  0  0
 48 47  1  0  0  0  0
 49 47  1  0  0  0  0
 50 52  1  0  0  0  0
 51 50  2  0  0  0  0
M  END
>  <MODEL>
8

>  <REMARK>
 VINA RESULT:      -6.6      2.684      8.723
  Name = 
  17 active torsions:
  status: ('A' for Active; 'I' for Inactive)
    1  A    between atoms: C_1  and  C_3
    2  A    between atoms: C_1  and  C_12
    3  A    between atoms: C_1  and  S_40
    4  A    between atoms: C_2  and  C_10
    5  A    between atoms: C_2  and  N_37
    6  A    between atoms: C_3  and  N_4
    7  A    between atoms: C_5  and  S_40
    8  A    between atoms: C_7  and  C_16
    9  A    between atoms: C_9  and  N_20
   10  A    between atoms: C_9  and  C_34
   11  A    between atoms: C_12  and  C_49
   12  A    between atoms: C_13  and  C_27
   13  A    between atoms: C_13  and  C_36
   14  A    between atoms: C_16  and  C_49
   15  A    between atoms: N_18  and  C_19
   16  A    between atoms: N_20  and  C_39
   17  A    between atoms: C_27  and  N_37
                            x       y       z     vdW  Elec       q    Type
                         _______ _______ _______ _____ _____    ______ ____

>  <TORSDO>
F 17

$$$$
=
 OpenBabel10222417443D

 52 56  0  0  1  0  0  0  0  0999 V2000
  188.5790  177.3700  140.6820 C   0  0  0  0  0  3  0  0  0  0  0  0
  188.9460  177.5280  139.4190 C   0  0  0  0  0  3  0  0  0  0  0  0
  193.7260  175.5540  137.9960 C   0  0  0  0  0  1  0  0  0  0  0  0
  189.3390  174.1420  136.3890 C   0  0  0  0  0  3  0  0  0  0  0  0
  190.1710  175.7930  138.1190 C   0  0  0  0  0  0  0  0  0  0  0  0
  188.9540  176.4070  138.5410 N   0  0  0  0  0  2  0  0  0  0  0  0
  192.1380  173.7300  136.0680 C   0  0  0  0  0  3  0  0  0  0  0  0
  191.4080  176.1620  138.5350 N   0  0  0  0  0  0  0  0  0  0  0  0
  191.6240  174.6300  137.0000 C   0  0  0  0  0  0  0  0  0  0  0  0
  189.8200  173.2260  135.4310 C   0  0  0  0  0  0  0  0  0  0  0  0
  192.2840  175.4370  137.8500 N   0  0  0  0  0  0  0  0  0  0  0  0
  191.2120  173.0190  135.2780 C   0  0  0  0  0  3  0  0  0  0  0  0
  190.2810  174.8240  137.1490 C   0  0  0  0  0  0  0  0  0  0  0  0
  188.8670  172.4380  134.5940 C   0  0  0  0  0  2  0  0  0  0  0  0
  188.1510  171.4600  135.4050 N   0  0  0  0  0  2  0  0  0  0  0  0
  182.3310  172.7270  136.8360 C   0  0  0  0  0  0  0  0  0  0  0  0
  179.9850  172.2410  136.8750 N   0  0  0  0  0  1  0  0  0  0  0  0
  181.1010  173.0640  137.2010 C   0  0  0  0  0  3  0  0  0  0  0  0
  184.7230  172.4750  136.4110 C   0  0  0  0  0  0  0  0  0  0  0  0
  183.9640  171.4470  135.8810 C   0  0  0  0  0  0  0  0  0  0  0  0
  184.5560  170.3970  135.1800 C   0  0  0  0  0  3  0  0  0  0  0  0
  186.7300  171.4430  135.5610 C   0  0  0  0  0  0  0  0  0  0  0  0
  182.6090  171.5680  136.1150 O   0  0  0  0  0  0  0  0  0  0  0  0
  186.1100  172.4870  136.2640 C   0  0  0  0  0  3  0  0  0  0  0  0
  183.7660  173.7360  137.2460 S   0  0  0  0  0  0  0  0  0  0  0  0
  185.9490  170.3990  135.0200 C   0  0  0  0  0  3  0  0  0  0  0  0
  188.5170  178.7680  141.7950 S   0  0  0  0  0  0  0  0  0  0  0  0
  188.7460  177.7030  143.2650 C   0  0  1  0  0  3  0  0  0  0  0  0
  190.9190  179.0720  143.5410 C   0  0  0  0  0  1  0  0  0  0  0  0
  190.0000  178.0050  144.1190 C   0  0  2  0  0  3  0  0  0  0  0  0
  191.5780  176.1960  143.2550 C   0  0  0  0  0  1  0  0  0  0  0  0
  190.8220  176.7490  144.4510 C   0  0  1  0  0  3  0  0  0  0  0  0
  191.6900  176.8530  145.7120 C   0  0  0  0  0  2  0  0  0  0  0  0
  190.8890  176.7480  146.9990 C   0  0  0  0  0  2  0  0  0  0  0  0
  191.3300  175.6470  147.7340 O   0  0  0  0  0  1  0  0  0  0  0  0
  187.4830  177.7190  144.1220 C   0  0  0  0  0  2  0  0  0  0  0  0
  186.3580  178.2520  143.3660 N   0  0  0  0  0  2  0  0  0  0  0  0
  184.9440  178.3870  145.2220 O   0  0  0  0  0  0  0  0  0  0  0  0
  185.1210  178.6030  143.9930 C   0  0  0  0  0  0  0  0  0  0  0  0
  184.0320  179.2360  143.1980 C   0  0  2  0  0  3  0  0  0  0  0  0
  183.4350  180.2580  143.9410 O   0  0  0  0  0  1  0  0  0  0  0  0
  182.9910  178.1920  142.8210 C   0  0  0  0  0  2  0  0  0  0  0  0
  180.4780  179.9690  140.8570 O   0  0  0  0  0  0  0  0  0  0  0  0
  181.0850  179.4890  141.8500 C   0  0  0  0  0  0  0  0  0  0  0  0
  182.2200  178.6250  141.6620 N   0  0  0  0  0  0  0  0  0  0  0  0
  180.6510  179.8060  143.1340 O   0  0  0  0  0  1  0  0  0  0  0  0
  182.7790  178.4060  140.3280 C   0  0  0  0  0  0  0  0  0  0  0  0
  183.2890  177.0010  140.0740 C   0  0  0  0  0  2  0  0  0  0  0  0
  181.9910  177.4720  139.4340 C   0  0  0  0  0  2  0  0  0  0  0  0
  183.5460  179.5160  139.6830 C   0  0  0  0  0  0  0  0  0  0  0  0
  184.7260  179.6780  139.9430 O   0  0  0  0  0  0  0  0  0  0  0  0
  182.8630  180.4680  138.7650 C   0  0  0  0  0  1  0  0  0  0  0  0
  1 27  1  0  0  0  0
  2  1  2  0  0  0  0
  4 13  1  0  0  0  0
  5  8  2  0  0  0  0
  5  6  1  0  0  0  0
  6  2  1  0  0  0  0
  7  9  1  0  0  0  0
  9 13  2  0  0  0  0
  9 11  1  0  0  0  0
 10  4  2  0  0  0  0
 11  3  1  0  0  0  0
 11  8  1  0  0  0  0
 12 10  1  0  0  0  0
 12  7  2  0  0  0  0
 13  5  1  0  0  0  0
 14 15  1  0  0  0  0
 14 10  1  0  0  0  0
 15 22  1  0  0  0  0
 16 18  2  0  0  0  0
 16 25  1  0  0  0  0
 17 18  1  0  0  0  0
 19 25  1  0  0  0  0
 20 23  1  0  0  0  0
 20 19  2  0  0  0  0
 21 20  1  0  0  0  0
 22 24  2  0  0  0  0
 23 16  1  0  0  0  0
 24 19  1  0  0  0  0
 26 21  2  0  0  0  0
 26 22  1  0  0  0  0
 27 28  1  0  0  0  0
 28 30  1  0  0  0  0
 28 36  1  1  0  0  0
 30 29  1  6  0  0  0
 30 32  1  0  0  0  0
 32 31  1  6  0  0  0
 32 33  1  0  0  0  0
 33 34  1  0  0  0  0
 34 35  1  0  0  0  0
 37 39  1  0  0  0  0
 37 36  1  0  0  0  0
 39 38  2  0  0  0  0
 40 41  1  1  0  0  0
 40 39  1  0  0  0  0
 42 40  1  0  0  0  0
 43 44  2  0  0  0  0
 44 46  1  0  0  0  0
 45 44  1  0  0  0  0
 45 42  1  0  0  0  0
 47 45  1  0  0  0  0
 48 47  1  0  0  0  0
 49 48  1  0  0  0  0
 49 47  1  0  0  0  0
 50 51  2  0  0  0  0
 50 47  1  0  0  0  0
 52 50  1  0  0  0  0
M  END
>  <MODEL>
9

>  <REMARK>
 VINA RESULT:      -6.4      2.910      9.263
  Name = 
  17 active torsions:
  status: ('A' for Active; 'I' for Inactive)
    1  A    between atoms: C_1  and  C_3
    2  A    between atoms: C_1  and  C_12
    3  A    between atoms: C_1  and  S_40
    4  A    between atoms: C_2  and  C_10
    5  A    between atoms: C_2  and  N_37
    6  A    between atoms: C_3  and  N_4
    7  A    between atoms: C_5  and  S_40
    8  A    between atoms: C_7  and  C_16
    9  A    between atoms: C_9  and  N_20
   10  A    between atoms: C_9  and  C_34
   11  A    between atoms: C_12  and  C_49
   12  A    between atoms: C_13  and  C_27
   13  A    between atoms: C_13  and  C_36
   14  A    between atoms: C_16  and  C_49
   15  A    between atoms: N_18  and  C_19
   16  A    between atoms: N_20  and  C_39
   17  A    between atoms: C_27  and  N_37
                            x       y       z     vdW  Elec       q    Type
                         _______ _______ _______ _____ _____    ______ ____

>  <TORSDO>
F 17

$$$$
