=
 OpenBabel10222419343D

 39 44  0  0  1  0  0  0  0  0999 V2000
  190.5750  176.6590  137.2090 C   0  0  0  0  0  3  0  0  0  0  0  0
  188.4660  177.6290  139.9650 C   0  0  0  0  0  3  0  0  0  0  0  0
  190.7210  177.0250  139.3460 C   0  0  0  0  0  0  0  0  0  0  0  0
  189.2970  177.0090  137.6500 C   0  0  0  0  0  0  0  0  0  0  0  0
  190.2560  177.5680  141.6340 C   0  0  0  0  0  0  0  0  0  0  0  0
  189.4090  177.2410  139.0130 C   0  0  0  0  0  0  0  0  0  0  0  0
  191.4260  176.6680  138.2600 N   0  0  0  0  0  0  0  0  0  0  0  0
  188.9050  177.7920  141.2900 C   0  0  0  0  0  3  0  0  0  0  0  0
  191.1850  177.1820  140.6520 C   0  0  0  0  0  3  0  0  0  0  0  0
  185.8150  177.3040  135.2110 C   0  0  0  0  0  3  0  0  0  0  0  0
  186.9500  178.0460  134.8750 C   0  0  0  0  0  3  0  0  0  0  0  0
  185.8280  176.4990  136.3060 N   0  0  0  0  0  0  0  0  0  0  0  0
  188.0880  177.9470  135.6760 C   0  0  0  0  0  3  0  0  0  0  0  0
  188.0900  177.1140  136.8020 C   0  0  0  0  0  0  0  0  0  0  0  0
  186.9280  176.3890  137.0970 C   0  0  0  0  0  3  0  0  0  0  0  0
  190.7900  177.7880  143.3250 S   0  0  0  0  0  0  0  0  0  0  0  0
  189.5590  176.6060  143.9520 C   0  0  0  0  0  2  0  0  0  0  0  0
  188.8650  177.1750  145.0990 N   0  0  0  0  0  2  0  0  0  0  0  0
  186.7710  177.8530  146.2130 C   0  0  0  0  0  3  0  0  0  0  0  0
  183.4620  179.0730  144.8980 C   0  0  0  0  0  1  0  0  0  0  0  0
  184.8710  178.5820  144.8940 C   0  0  0  0  0  0  0  0  0  0  0  0
  186.9330  177.9090  143.8050 C   0  0  0  0  0  3  0  0  0  0  0  0
  187.5130  177.6440  145.0460 C   0  0  0  0  0  0  0  0  0  0  0  0
  185.4590  178.3180  146.1350 C   0  0  0  0  0  3  0  0  0  0  0  0
  185.6130  178.3780  143.7030 C   0  0  0  0  0  0  0  0  0  0  0  0
  184.0820  177.8280  141.7930 O   0  0  0  0  0  1  0  0  0  0  0  0
  185.4940  179.6130  141.6720 O   0  0  0  0  0  0  0  0  0  0  0  0
  185.0670  178.6370  142.3470 C   0  0  0  0  0  0  0  0  0  0  0  0
  192.8550  176.4000  138.1930 C   0  0  0  0  0  2  0  0  0  0  0  0
  194.2430  175.1770  136.4240 C   0  0  2  0  0  3  0  0  0  0  0  0
  194.6880  176.4950  136.6510 O   0  0  0  0  0  0  0  0  0  0  0  0
  193.2970  176.2920  136.7350 C   0  0  2  0  0  3  0  0  0  0  0  0
  194.6460  174.3020  137.6050 C   0  0  0  0  0  2  0  0  0  0  0  0
  195.9190  173.5520  137.2660 C   0  0  0  0  0  2  0  0  0  0  0  0
  196.8480  173.6270  138.3820 N   0  0  0  0  0  0  0  0  0  0  0  0
  198.1080  175.4580  139.1580 N   0  0  0  0  0  2  0  0  0  0  0  0
  196.1510  174.1880  139.4630 N   0  0  0  0  0  2  0  0  0  0  0  0
  197.0840  175.0900  140.1150 C   0  0  0  0  0  2  0  0  0  0  0  0
  197.8660  174.5970  138.0180 C   0  0  0  0  0  2  0  0  0  0  0  0
  1  4  2  0  0  0  0
  1  7  1  0  0  0  0
  2  8  1  0  0  0  0
  3  9  2  0  0  0  0
  4  6  1  0  0  0  0
  5 16  1  0  0  0  0
  6  3  1  0  0  0  0
  6  2  2  0  0  0  0
  7  3  1  0  0  0  0
  8  5  2  0  0  0  0
  9  5  1  0  0  0  0
 10 12  1  0  0  0  0
 11 10  2  0  0  0  0
 11 13  1  0  0  0  0
 12 15  2  0  0  0  0
 13 14  2  0  0  0  0
 14 15  1  0  0  0  0
 14  4  1  0  0  0  0
 16 17  1  0  0  0  0
 17 18  1  0  0  0  0
 21 20  1  0  0  0  0
 21 24  2  0  0  0  0
 22 23  1  0  0  0  0
 23 18  1  0  0  0  0
 23 19  2  0  0  0  0
 24 19  1  0  0  0  0
 25 22  2  0  0  0  0
 25 21  1  0  0  0  0
 26 28  1  0  0  0  0
 27 28  2  0  0  0  0
 28 25  1  0  0  0  0
 29  7  1  0  0  0  0
 30 31  1  0  0  0  0
 30 32  1  0  0  0  0
 30 33  1  1  0  0  0
 31 32  1  0  0  0  0
 32 29  1  1  0  0  0
 34 33  1  0  0  0  0
 34 35  1  0  0  0  0
 35 37  1  0  0  0  0
 36 38  1  0  0  0  0
 37 38  1  0  0  0  0
 39 35  1  0  0  0  0
 39 36  1  0  0  0  0
M  END
>  <MODEL>
1

>  <REMARK>
 VINA RESULT:      -9.0      0.000      0.000
  Name = 
  11 active torsions:
  status: ('A' for Active; 'I' for Inactive)
    1  A    between atoms: N_1  and  C_11
    2  A    between atoms: N_2  and  C_6
    3  A    between atoms: N_2  and  C_26
    4  A    between atoms: C_6  and  S_16
    5  A    between atoms: C_9  and  C_33
    6  A    between atoms: C_11  and  C_28
    7  A    between atoms: C_12  and  S_16
    8  A    between atoms: C_15  and  C_28
    9  A    between atoms: C_18  and  N_19
   10  A    between atoms: C_18  and  C_39
   11  A    between atoms: C_31  and  C_34
                            x       y       z     vdW  Elec       q    Type
                         _______ _______ _______ _____ _____    ______ ____

>  <TORSDO>
F 11

$$$$
=
 OpenBabel10222419343D

 39 44  0  0  1  0  0  0  0  0999 V2000
  189.3680  177.5230  142.8660 C   0  0  0  0  0  3  0  0  0  0  0  0
  186.7100  177.8790  145.2730 C   0  0  0  0  0  3  0  0  0  0  0  0
  187.2440  177.9800  142.9210 C   0  0  0  0  0  0  0  0  0  0  0  0
  188.9790  177.4920  144.2070 C   0  0  0  0  0  0  0  0  0  0  0  0
  184.9870  178.3920  143.6130 C   0  0  0  0  0  0  0  0  0  0  0  0
  187.6240  177.7840  144.2230 C   0  0  0  0  0  0  0  0  0  0  0  0
  188.2970  177.8300  142.0990 N   0  0  0  0  0  0  0  0  0  0  0  0
  185.3770  178.1870  144.9540 C   0  0  0  0  0  3  0  0  0  0  0  0
  185.9280  178.2850  142.5740 C   0  0  0  0  0  3  0  0  0  0  0  0
  191.5300  176.6260  147.5090 C   0  0  0  0  0  3  0  0  0  0  0  0
  190.2210  177.0490  147.7480 C   0  0  0  0  0  3  0  0  0  0  0  0
  191.9790  176.4930  146.2320 N   0  0  0  0  0  0  0  0  0  0  0  0
  189.3880  177.3320  146.6660 C   0  0  0  0  0  3  0  0  0  0  0  0
  189.8620  177.1930  145.3550 C   0  0  0  0  0  0  0  0  0  0  0  0
  191.1830  176.7640  145.1650 C   0  0  0  0  0  3  0  0  0  0  0  0
  183.2830  178.7770  143.2330 S   0  0  0  0  0  0  0  0  0  0  0  0
  183.5530  178.5790  141.4470 C   0  0  0  0  0  2  0  0  0  0  0  0
  182.2730  178.5210  140.7550 N   0  0  0  0  0  2  0  0  0  0  0  0
  180.4960  176.8670  140.3170 C   0  0  0  0  0  3  0  0  0  0  0  0
  180.3240  173.8390  138.0870 C   0  0  0  0  0  1  0  0  0  0  0  0
  180.8800  175.0530  138.7540 C   0  0  0  0  0  0  0  0  0  0  0  0
  182.6240  176.6820  139.1930 C   0  0  0  0  0  3  0  0  0  0  0  0
  181.7900  177.3480  140.0920 C   0  0  0  0  0  0  0  0  0  0  0  0
  180.0470  175.7270  139.6530 C   0  0  0  0  0  3  0  0  0  0  0  0
  182.1920  175.5320  138.5120 C   0  0  0  0  0  0  0  0  0  0  0  0
  183.0430  175.0640  136.1990 O   0  0  0  0  0  0  0  0  0  0  0  0
  184.0610  174.1440  138.0190 O   0  0  0  0  0  1  0  0  0  0  0  0
  183.1390  174.8800  137.5720 C   0  0  0  0  0  0  0  0  0  0  0  0
  188.2930  177.9120  140.6460 C   0  0  0  0  0  2  0  0  0  0  0  0
  189.9950  177.7370  138.7420 C   0  0  2  0  0  3  0  0  0  0  0  0
  189.2250  176.5660  138.8960 O   0  0  0  0  0  0  0  0  0  0  0  0
  189.5480  177.2490  140.0840 C   0  0  2  0  0  3  0  0  0  0  0  0
  189.1320  178.8250  138.1130 C   0  0  0  0  0  2  0  0  0  0  0  0
  188.9830  178.5540  136.6280 C   0  0  0  0  0  2  0  0  0  0  0  0
  187.5740  178.4250  136.2900 N   0  0  0  0  0  0  0  0  0  0  0  0
  186.1130  176.6120  136.6390 N   0  0  0  0  0  2  0  0  0  0  0  0
  186.8430  178.6940  137.4570 N   0  0  0  0  0  2  0  0  0  0  0  0
  185.7470  177.7410  137.4700 C   0  0  0  0  0  2  0  0  0  0  0  0
  187.3410  177.0230  135.9880 C   0  0  0  0  0  2  0  0  0  0  0  0
  1  4  2  0  0  0  0
  3  6  1  0  0  0  0
  4  6  1  0  0  0  0
  4 14  1  0  0  0  0
  5  8  2  0  0  0  0
  6  2  2  0  0  0  0
  7  1  1  0  0  0  0
  7  3  1  0  0  0  0
  8  2  1  0  0  0  0
  9  3  2  0  0  0  0
  9  5  1  0  0  0  0
 10 11  1  0  0  0  0
 12 10  2  0  0  0  0
 13 11  2  0  0  0  0
 14 13  1  0  0  0  0
 15 14  2  0  0  0  0
 15 12  1  0  0  0  0
 16  5  1  0  0  0  0
 17 16  1  0  0  0  0
 18 17  1  0  0  0  0
 20 21  1  0  0  0  0
 21 24  1  0  0  0  0
 22 23  2  0  0  0  0
 23 19  1  0  0  0  0
 23 18  1  0  0  0  0
 24 19  2  0  0  0  0
 25 21  2  0  0  0  0
 25 22  1  0  0  0  0
 26 28  2  0  0  0  0
 28 27  1  0  0  0  0
 28 25  1  0  0  0  0
 29  7  1  0  0  0  0
 30 33  1  6  0  0  0
 30 31  1  0  0  0  0
 30 32  1  0  0  0  0
 31 32  1  0  0  0  0
 32 29  1  6  0  0  0
 34 33  1  0  0  0  0
 35 34  1  0  0  0  0
 35 37  1  0  0  0  0
 36 38  1  0  0  0  0
 37 38  1  0  0  0  0
 39 35  1  0  0  0  0
 39 36  1  0  0  0  0
M  END
>  <MODEL>
2

>  <REMARK>
 VINA RESULT:      -8.6      4.378      8.303
  Name = 
  11 active torsions:
  status: ('A' for Active; 'I' for Inactive)
    1  A    between atoms: N_1  and  C_11
    2  A    between atoms: N_2  and  C_6
    3  A    between atoms: N_2  and  C_26
    4  A    between atoms: C_6  and  S_16
    5  A    between atoms: C_9  and  C_33
    6  A    between atoms: C_11  and  C_28
    7  A    between atoms: C_12  and  S_16
    8  A    between atoms: C_15  and  C_28
    9  A    between atoms: C_18  and  N_19
   10  A    between atoms: C_18  and  C_39
   11  A    between atoms: C_31  and  C_34
                            x       y       z     vdW  Elec       q    Type
                         _______ _______ _______ _____ _____    ______ ____

>  <TORSDO>
F 11

$$$$
=
 OpenBabel10222419343D

 39 44  0  0  1  0  0  0  0  0999 V2000
  189.4240  177.4420  142.7970 C   0  0  0  0  0  3  0  0  0  0  0  0
  186.7350  177.8990  145.1530 C   0  0  0  0  0  3  0  0  0  0  0  0
  187.3070  177.9320  142.8070 C   0  0  0  0  0  0  0  0  0  0  0  0
  189.0140  177.4510  144.1330 C   0  0  0  0  0  0  0  0  0  0  0  0
  185.0450  178.3950  143.4530 C   0  0  0  0  0  0  0  0  0  0  0  0
  187.6630  177.7630  144.1200 C   0  0  0  0  0  0  0  0  0  0  0  0
  188.3700  177.7440  142.0060 N   0  0  0  0  0  0  0  0  0  0  0  0
  185.4120  178.2180  144.8050 C   0  0  0  0  0  3  0  0  0  0  0  0
  186.0010  178.2470  142.4320 C   0  0  0  0  0  3  0  0  0  0  0  0
  191.5000  176.6320  147.4950 C   0  0  0  0  0  3  0  0  0  0  0  0
  190.1730  177.0110  147.7030 C   0  0  0  0  0  3  0  0  0  0  0  0
  191.9880  176.5280  146.2310 N   0  0  0  0  0  0  0  0  0  0  0  0
  189.3610  177.2790  146.6000 C   0  0  0  0  0  3  0  0  0  0  0  0
  189.8750  177.1680  145.3020 C   0  0  0  0  0  0  0  0  0  0  0  0
  191.2130  176.7830  145.1440 C   0  0  0  0  0  3  0  0  0  0  0  0
  183.3540  178.7950  143.0370 S   0  0  0  0  0  0  0  0  0  0  0  0
  183.6310  178.4820  141.2680 C   0  0  0  0  0  2  0  0  0  0  0  0
  182.3750  178.1270  140.6240 N   0  0  0  0  0  2  0  0  0  0  0  0
  181.9250  177.9030  138.2090 C   0  0  0  0  0  3  0  0  0  0  0  0
  180.6490  180.3170  135.6180 C   0  0  0  0  0  1  0  0  0  0  0  0
  181.0880  179.7970  136.9460 C   0  0  0  0  0  0  0  0  0  0  0  0
  181.5370  180.0100  139.3210 C   0  0  0  0  0  3  0  0  0  0  0  0
  181.9490  178.6770  139.3730 C   0  0  0  0  0  0  0  0  0  0  0  0
  181.4980  178.4610  137.0050 C   0  0  0  0  0  3  0  0  0  0  0  0
  181.1020  180.5920  138.1190 C   0  0  0  0  0  0  0  0  0  0  0  0
  179.3960  182.3860  138.5240 O   0  0  0  0  0  1  0  0  0  0  0  0
  181.4990  182.9200  137.8260 O   0  0  0  0  0  0  0  0  0  0  0  0
  180.6800  182.0150  138.1460 C   0  0  0  0  0  0  0  0  0  0  0  0
  188.3890  177.7890  140.5520 C   0  0  0  0  0  2  0  0  0  0  0  0
  190.1330  177.7400  138.6790 C   0  0  2  0  0  3  0  0  0  0  0  0
  189.5000  176.4950  138.8680 O   0  0  0  0  0  0  0  0  0  0  0  0
  189.7210  177.2550  140.0330 C   0  0  2  0  0  3  0  0  0  0  0  0
  189.1630  178.6970  137.9960 C   0  0  0  0  0  2  0  0  0  0  0  0
  188.8120  178.1640  136.6210 C   0  0  0  0  0  2  0  0  0  0  0  0
  187.3760  178.2500  136.4090 N   0  0  0  0  0  0  0  0  0  0  0  0
  185.6690  176.7970  137.1310 N   0  0  0  0  0  2  0  0  0  0  0  0
  186.8200  178.8020  137.5730 N   0  0  0  0  0  2  0  0  0  0  0  0
  185.5840  178.0760  137.8090 C   0  0  0  0  0  2  0  0  0  0  0  0
  186.8800  176.8870  136.3390 C   0  0  0  0  0  2  0  0  0  0  0  0
  1  4  2  0  0  0  0
  3  6  1  0  0  0  0
  4 14  1  0  0  0  0
  5  8  2  0  0  0  0
  6  4  1  0  0  0  0
  6  2  2  0  0  0  0
  7  1  1  0  0  0  0
  7  3  1  0  0  0  0
  8  2  1  0  0  0  0
  9  3  2  0  0  0  0
  9  5  1  0  0  0  0
 10 11  1  0  0  0  0
 12 10  2  0  0  0  0
 13 11  2  0  0  0  0
 14 13  1  0  0  0  0
 15 14  2  0  0  0  0
 15 12  1  0  0  0  0
 16  5  1  0  0  0  0
 17 16  1  0  0  0  0
 18 17  1  0  0  0  0
 19 23  1  0  0  0  0
 20 21  1  0  0  0  0
 21 24  1  0  0  0  0
 21 25  2  0  0  0  0
 22 23  2  0  0  0  0
 23 18  1  0  0  0  0
 24 19  2  0  0  0  0
 25 28  1  0  0  0  0
 25 22  1  0  0  0  0
 27 28  2  0  0  0  0
 28 26  1  0  0  0  0
 29  7  1  0  0  0  0
 30 33  1  6  0  0  0
 30 31  1  0  0  0  0
 30 32  1  0  0  0  0
 31 32  1  0  0  0  0
 32 29  1  6  0  0  0
 34 33  1  0  0  0  0
 35 34  1  0  0  0  0
 35 37  1  0  0  0  0
 36 38  1  0  0  0  0
 37 38  1  0  0  0  0
 39 35  1  0  0  0  0
 39 36  1  0  0  0  0
M  END
>  <MODEL>
3

>  <REMARK>
 VINA RESULT:      -8.6      4.382      8.455
  Name = 
  11 active torsions:
  status: ('A' for Active; 'I' for Inactive)
    1  A    between atoms: N_1  and  C_11
    2  A    between atoms: N_2  and  C_6
    3  A    between atoms: N_2  and  C_26
    4  A    between atoms: C_6  and  S_16
    5  A    between atoms: C_9  and  C_33
    6  A    between atoms: C_11  and  C_28
    7  A    between atoms: C_12  and  S_16
    8  A    between atoms: C_15  and  C_28
    9  A    between atoms: C_18  and  N_19
   10  A    between atoms: C_18  and  C_39
   11  A    between atoms: C_31  and  C_34
                            x       y       z     vdW  Elec       q    Type
                         _______ _______ _______ _____ _____    ______ ____

>  <TORSDO>
F 11

$$$$
=
 OpenBabel10222419343D

 39 44  0  0  1  0  0  0  0  0999 V2000
  190.4160  176.3740  135.6260 C   0  0  0  0  0  3  0  0  0  0  0  0
  191.3050  176.7690  139.0960 C   0  0  0  0  0  3  0  0  0  0  0  0
  189.5710  177.1670  137.4640 C   0  0  0  0  0  0  0  0  0  0  0  0
  191.3720  176.1870  136.6280 C   0  0  0  0  0  0  0  0  0  0  0  0
  189.1960  177.8340  139.7360 C   0  0  0  0  0  0  0  0  0  0  0  0
  190.8150  176.6970  137.7910 C   0  0  0  0  0  0  0  0  0  0  0  0
  189.3290  176.9790  136.1550 N   0  0  0  0  0  0  0  0  0  0  0  0
  190.4770  177.3460  140.0740 C   0  0  0  0  0  3  0  0  0  0  0  0
  188.7260  177.7420  138.4140 C   0  0  0  0  0  3  0  0  0  0  0  0
  195.1960  174.3800  136.1130 C   0  0  0  0  0  3  0  0  0  0  0  0
  194.0460  173.6110  135.9280 C   0  0  0  0  0  3  0  0  0  0  0  0
  195.0900  175.6920  136.4550 N   0  0  0  0  0  0  0  0  0  0  0  0
  192.7950  174.2050  136.0970 C   0  0  0  0  0  3  0  0  0  0  0  0
  192.6980  175.5570  136.4490 C   0  0  0  0  0  0  0  0  0  0  0  0
  193.8800  176.2880  136.6240 C   0  0  0  0  0  3  0  0  0  0  0  0
  188.1600  178.5580  140.9990 S   0  0  0  0  0  0  0  0  0  0  0  0
  189.2110  177.9220  142.3390 C   0  0  0  0  0  2  0  0  0  0  0  0
  188.4230  177.0850  143.2330 N   0  0  0  0  0  2  0  0  0  0  0  0
  189.3610  176.9440  145.5100 C   0  0  0  0  0  3  0  0  0  0  0  0
  188.0570  178.0160  148.8750 C   0  0  0  0  0  1  0  0  0  0  0  0
  188.1020  177.7980  147.4000 C   0  0  0  0  0  0  0  0  0  0  0  0
  187.1860  177.9290  145.1570 C   0  0  0  0  0  3  0  0  0  0  0  0
  188.3280  177.3130  144.6430 C   0  0  0  0  0  0  0  0  0  0  0  0
  189.2460  177.1850  146.8790 C   0  0  0  0  0  3  0  0  0  0  0  0
  187.0490  178.1820  146.5310 C   0  0  0  0  0  0  0  0  0  0  0  0
  184.5730  178.1980  146.9370 O   0  0  0  0  0  0  0  0  0  0  0  0
  185.8500  180.0080  147.4740 O   0  0  0  0  0  1  0  0  0  0  0  0
  185.8040  178.8400  147.0000 C   0  0  0  0  0  0  0  0  0  0  0  0
  188.1050  177.3000  135.4360 C   0  0  0  0  0  2  0  0  0  0  0  0
  185.8810  176.0450  135.6040 C   0  0  2  0  0  3  0  0  0  0  0  0
  186.8960  175.4650  136.3900 O   0  0  0  0  0  0  0  0  0  0  0  0
  187.3110  176.0250  135.1660 C   0  0  2  0  0  3  0  0  0  0  0  0
  185.4100  177.3350  136.2660 C   0  0  0  0  0  2  0  0  0  0  0  0
  184.0620  177.1030  136.9200 C   0  0  0  0  0  2  0  0  0  0  0  0
  184.0810  177.6100  138.2830 N   0  0  0  0  0  0  0  0  0  0  0  0
  184.7470  179.7220  139.0830 N   0  0  0  0  0  2  0  0  0  0  0  0
  182.9200  178.3790  138.4530 N   0  0  0  0  0  2  0  0  0  0  0  0
  183.3180  179.5360  139.2370 C   0  0  0  0  0  2  0  0  0  0  0  0
  185.1920  178.5410  138.3690 C   0  0  0  0  0  2  0  0  0  0  0  0
  1  7  1  0  0  0  0
  1  4  2  0  0  0  0
  2  8  1  0  0  0  0
  3  6  1  0  0  0  0
  3  9  2  0  0  0  0
  4  6  1  0  0  0  0
  5  8  2  0  0  0  0
  5 16  1  0  0  0  0
  6  2  2  0  0  0  0
  7  3  1  0  0  0  0
  9  5  1  0  0  0  0
 10 12  1  0  0  0  0
 11 13  1  0  0  0  0
 11 10  2  0  0  0  0
 12 15  2  0  0  0  0
 13 14  2  0  0  0  0
 14 15  1  0  0  0  0
 14  4  1  0  0  0  0
 16 17  1  0  0  0  0
 17 18  1  0  0  0  0
 18 23  1  0  0  0  0
 19 24  1  0  0  0  0
 21 20  1  0  0  0  0
 22 25  2  0  0  0  0
 23 22  1  0  0  0  0
 23 19  2  0  0  0  0
 24 21  2  0  0  0  0
 25 28  1  0  0  0  0
 25 21  1  0  0  0  0
 26 28  2  0  0  0  0
 28 27  1  0  0  0  0
 29  7  1  0  0  0  0
 30 33  1  1  0  0  0
 30 31  1  0  0  0  0
 32 29  1  1  0  0  0
 32 30  1  0  0  0  0
 32 31  1  0  0  0  0
 33 34  1  0  0  0  0
 34 35  1  0  0  0  0
 35 39  1  0  0  0  0
 35 37  1  0  0  0  0
 36 38  1  0  0  0  0
 37 38  1  0  0  0  0
 39 36  1  0  0  0  0
M  END
>  <MODEL>
4

>  <REMARK>
 VINA RESULT:      -8.5      2.721      7.204
  Name = 
  11 active torsions:
  status: ('A' for Active; 'I' for Inactive)
    1  A    between atoms: N_1  and  C_11
    2  A    between atoms: N_2  and  C_6
    3  A    between atoms: N_2  and  C_26
    4  A    between atoms: C_6  and  S_16
    5  A    between atoms: C_9  and  C_33
    6  A    between atoms: C_11  and  C_28
    7  A    between atoms: C_12  and  S_16
    8  A    between atoms: C_15  and  C_28
    9  A    between atoms: C_18  and  N_19
   10  A    between atoms: C_18  and  C_39
   11  A    between atoms: C_31  and  C_34
                            x       y       z     vdW  Elec       q    Type
                         _______ _______ _______ _____ _____    ______ ____

>  <TORSDO>
F 11

$$$$
=
 OpenBabel10222419343D

 39 44  0  0  1  0  0  0  0  0999 V2000
  189.4770  177.4840  142.9150 C   0  0  0  0  0  3  0  0  0  0  0  0
  186.8160  177.7940  145.3260 C   0  0  0  0  0  3  0  0  0  0  0  0
  187.3500  177.9240  142.9750 C   0  0  0  0  0  0  0  0  0  0  0  0
  189.0880  177.4360  144.2560 C   0  0  0  0  0  0  0  0  0  0  0  0
  185.0890  178.3110  143.6710 C   0  0  0  0  0  0  0  0  0  0  0  0
  187.7300  177.7170  144.2750 C   0  0  0  0  0  0  0  0  0  0  0  0
  188.4030  177.7900  142.1520 N   0  0  0  0  0  0  0  0  0  0  0  0
  185.4800  178.0950  145.0100 C   0  0  0  0  0  3  0  0  0  0  0  0
  186.0310  178.2210  142.6310 C   0  0  0  0  0  3  0  0  0  0  0  0
  191.6450  176.5560  147.5500 C   0  0  0  0  0  3  0  0  0  0  0  0
  190.3780  177.0910  147.7920 C   0  0  0  0  0  3  0  0  0  0  0  0
  192.0520  176.3210  146.2740 N   0  0  0  0  0  0  0  0  0  0  0  0
  189.5430  177.3780  146.7120 C   0  0  0  0  0  3  0  0  0  0  0  0
  189.9740  177.1320  145.4010 C   0  0  0  0  0  0  0  0  0  0  0  0
  191.2530  176.5940  145.2090 C   0  0  0  0  0  3  0  0  0  0  0  0
  183.3820  178.6860  143.2940 S   0  0  0  0  0  0  0  0  0  0  0  0
  183.6810  178.6270  141.5030 C   0  0  0  0  0  2  0  0  0  0  0  0
  182.4920  178.1420  140.8170 N   0  0  0  0  0  2  0  0  0  0  0  0
  181.6250  179.9790  139.4180 C   0  0  0  0  0  3  0  0  0  0  0  0
  180.7320  180.2010  135.7680 C   0  0  0  0  0  1  0  0  0  0  0  0
  181.2000  179.6160  137.0570 C   0  0  0  0  0  0  0  0  0  0  0  0
  182.0500  177.8130  138.4420 C   0  0  0  0  0  3  0  0  0  0  0  0
  182.0470  178.6530  139.5560 C   0  0  0  0  0  0  0  0  0  0  0  0
  181.2030  180.4540  138.1760 C   0  0  0  0  0  3  0  0  0  0  0  0
  181.6310  178.2700  137.1820 C   0  0  0  0  0  0  0  0  0  0  0  0
  182.8300  177.0710  135.3340 O   0  0  0  0  0  0  0  0  0  0  0  0
  180.6130  176.6990  135.7130 O   0  0  0  0  0  1  0  0  0  0  0  0
  181.6620  177.3150  136.0460 C   0  0  0  0  0  0  0  0  0  0  0  0
  188.3980  177.8860  140.7000 C   0  0  0  0  0  2  0  0  0  0  0  0
  190.0440  177.6680  138.7510 C   0  0  2  0  0  3  0  0  0  0  0  0
  189.3230  176.4810  138.9930 O   0  0  0  0  0  0  0  0  0  0  0  0
  189.6590  177.2390  140.1310 C   0  0  2  0  0  3  0  0  0  0  0  0
  189.1220  178.6890  138.0940 C   0  0  0  0  0  2  0  0  0  0  0  0
  188.8820  178.2960  136.6500 C   0  0  0  0  0  2  0  0  0  0  0  0
  187.4530  178.2220  136.3890 N   0  0  0  0  0  0  0  0  0  0  0  0
  185.9050  176.5590  137.0080 N   0  0  0  0  0  2  0  0  0  0  0  0
  186.7990  178.6680  137.5470 N   0  0  0  0  0  2  0  0  0  0  0  0
  185.6490  177.7970  137.7180 C   0  0  0  0  0  2  0  0  0  0  0  0
  187.1210  176.8140  136.2620 C   0  0  0  0  0  2  0  0  0  0  0  0
  1  4  2  0  0  0  0
  3  6  1  0  0  0  0
  4  6  1  0  0  0  0
  4 14  1  0  0  0  0
  5  8  2  0  0  0  0
  6  2  2  0  0  0  0
  7  1  1  0  0  0  0
  7  3  1  0  0  0  0
  8  2  1  0  0  0  0
  9  3  2  0  0  0  0
  9  5  1  0  0  0  0
 10 11  1  0  0  0  0
 12 10  2  0  0  0  0
 13 11  2  0  0  0  0
 14 13  1  0  0  0  0
 15 14  2  0  0  0  0
 15 12  1  0  0  0  0
 16  5  1  0  0  0  0
 17 16  1  0  0  0  0
 18 17  1  0  0  0  0
 19 23  1  0  0  0  0
 20 21  1  0  0  0  0
 21 25  2  0  0  0  0
 21 24  1  0  0  0  0
 22 23  2  0  0  0  0
 23 18  1  0  0  0  0
 24 19  2  0  0  0  0
 25 22  1  0  0  0  0
 26 28  2  0  0  0  0
 27 28  1  0  0  0  0
 28 25  1  0  0  0  0
 29  7  1  0  0  0  0
 30 33  1  6  0  0  0
 30 31  1  0  0  0  0
 30 32  1  0  0  0  0
 31 32  1  0  0  0  0
 32 29  1  6  0  0  0
 34 33  1  0  0  0  0
 35 34  1  0  0  0  0
 35 37  1  0  0  0  0
 36 38  1  0  0  0  0
 37 38  1  0  0  0  0
 39 35  1  0  0  0  0
 39 36  1  0  0  0  0
M  END
>  <MODEL>
5

>  <REMARK>
 VINA RESULT:      -8.3      4.375      8.451
  Name = 
  11 active torsions:
  status: ('A' for Active; 'I' for Inactive)
    1  A    between atoms: N_1  and  C_11
    2  A    between atoms: N_2  and  C_6
    3  A    between atoms: N_2  and  C_26
    4  A    between atoms: C_6  and  S_16
    5  A    between atoms: C_9  and  C_33
    6  A    between atoms: C_11  and  C_28
    7  A    between atoms: C_12  and  S_16
    8  A    between atoms: C_15  and  C_28
    9  A    between atoms: C_18  and  N_19
   10  A    between atoms: C_18  and  C_39
   11  A    between atoms: C_31  and  C_34
                            x       y       z     vdW  Elec       q    Type
                         _______ _______ _______ _____ _____    ______ ____

>  <TORSDO>
F 11

$$$$
=
 OpenBabel10222419343D

 39 44  0  0  1  0  0  0  0  0999 V2000
  184.9050  177.7660  137.7200 C   0  0  0  0  0  3  0  0  0  0  0  0
  182.5030  178.0840  140.3880 C   0  0  0  0  0  3  0  0  0  0  0  0
  184.8340  178.3400  139.8140 C   0  0  0  0  0  0  0  0  0  0  0  0
  183.5770  177.6360  138.1340 C   0  0  0  0  0  0  0  0  0  0  0  0
  184.1290  178.8540  142.0470 C   0  0  0  0  0  0  0  0  0  0  0  0
  183.5510  178.0070  139.4700 C   0  0  0  0  0  0  0  0  0  0  0  0
  185.6560  178.1890  138.7620 N   0  0  0  0  0  0  0  0  0  0  0  0
  182.8060  178.5150  141.6910 C   0  0  0  0  0  3  0  0  0  0  0  0
  185.1640  178.7730  141.0990 C   0  0  0  0  0  3  0  0  0  0  0  0
  180.3230  176.3660  135.6930 C   0  0  0  0  0  3  0  0  0  0  0  0
  180.9100  177.6100  135.4560 C   0  0  0  0  0  3  0  0  0  0  0  0
  180.7900  175.5720  136.6940 N   0  0  0  0  0  0  0  0  0  0  0  0
  181.9750  178.0230  136.2570 C   0  0  0  0  0  3  0  0  0  0  0  0
  182.4470  177.1980  137.2850 C   0  0  0  0  0  0  0  0  0  0  0  0
  181.8260  175.9570  137.4840 C   0  0  0  0  0  3  0  0  0  0  0  0
  184.4870  179.4050  143.7090 S   0  0  0  0  0  0  0  0  0  0  0  0
  185.8460  178.2140  143.8970 C   0  0  0  0  0  2  0  0  0  0  0  0
  186.2930  178.1840  145.2830 N   0  0  0  0  0  2  0  0  0  0  0  0
  187.9000  177.4620  147.0090 C   0  0  0  0  0  3  0  0  0  0  0  0
  191.5420  176.5200  146.8660 C   0  0  0  0  0  1  0  0  0  0  0  0
  190.1930  176.9560  146.4010 C   0  0  0  0  0  0  0  0  0  0  0  0
  188.6060  177.6710  144.7100 C   0  0  0  0  0  3  0  0  0  0  0  0
  187.6060  177.7740  145.6770 C   0  0  0  0  0  0  0  0  0  0  0  0
  189.1860  177.0580  147.3660 C   0  0  0  0  0  3  0  0  0  0  0  0
  189.9080  177.2640  145.0470 C   0  0  0  0  0  0  0  0  0  0  0  0
  191.5680  178.3100  143.4840 O   0  0  0  0  0  1  0  0  0  0  0  0
  191.2010  176.0610  143.4530 O   0  0  0  0  0  0  0  0  0  0  0  0
  190.9160  177.1800  143.9600 C   0  0  0  0  0  0  0  0  0  0  0  0
  187.0800  178.4850  138.7130 C   0  0  0  0  0  2  0  0  0  0  0  0
  188.9380  178.0700  137.0020 C   0  0  2  0  0  3  0  0  0  0  0  0
  188.6390  179.4380  137.1620 O   0  0  0  0  0  0  0  0  0  0  0  0
  187.5470  178.5540  137.2610 C   0  0  2  0  0  3  0  0  0  0  0  0
  189.7060  177.5790  138.2240 C   0  0  0  0  0  2  0  0  0  0  0  0
  190.4210  176.2860  137.8840 C   0  0  0  0  0  2  0  0  0  0  0  0
  191.4470  176.0130  138.8780 N   0  0  0  0  0  0  0  0  0  0  0  0
  193.5670  177.0010  139.1460 N   0  0  0  0  0  2  0  0  0  0  0  0
  191.3290  176.9950  139.8730 N   0  0  0  0  0  2  0  0  0  0  0  0
  192.6870  177.3550  140.2420 C   0  0  0  0  0  2  0  0  0  0  0  0
  192.7270  176.2490  138.2350 C   0  0  0  0  0  2  0  0  0  0  0  0
  1  4  2  0  0  0  0
  1  7  1  0  0  0  0
  2  8  1  0  0  0  0
  3  9  2  0  0  0  0
  4  6  1  0  0  0  0
  5 16  1  0  0  0  0
  6  3  1  0  0  0  0
  6  2  2  0  0  0  0
  7  3  1  0  0  0  0
  8  5  2  0  0  0  0
  9  5  1  0  0  0  0
 10 12  1  0  0  0  0
 11 10  2  0  0  0  0
 11 13  1  0  0  0  0
 12 15  2  0  0  0  0
 13 14  2  0  0  0  0
 14 15  1  0  0  0  0
 14  4  1  0  0  0  0
 16 17  1  0  0  0  0
 17 18  1  0  0  0  0
 18 23  1  0  0  0  0
 19 24  1  0  0  0  0
 21 20  1  0  0  0  0
 21 24  2  0  0  0  0
 22 25  2  0  0  0  0
 22 23  1  0  0  0  0
 23 19  2  0  0  0  0
 25 21  1  0  0  0  0
 26 28  1  0  0  0  0
 27 28  2  0  0  0  0
 28 25  1  0  0  0  0
 29  7  1  0  0  0  0
 30 31  1  0  0  0  0
 30 32  1  0  0  0  0
 30 33  1  1  0  0  0
 31 32  1  0  0  0  0
 32 29  1  1  0  0  0
 34 33  1  0  0  0  0
 34 35  1  0  0  0  0
 35 37  1  0  0  0  0
 36 38  1  0  0  0  0
 37 38  1  0  0  0  0
 39 35  1  0  0  0  0
 39 36  1  0  0  0  0
M  END
>  <MODEL>
6

>  <REMARK>
 VINA RESULT:      -8.1      3.316      5.683
  Name = 
  11 active torsions:
  status: ('A' for Active; 'I' for Inactive)
    1  A    between atoms: N_1  and  C_11
    2  A    between atoms: N_2  and  C_6
    3  A    between atoms: N_2  and  C_26
    4  A    between atoms: C_6  and  S_16
    5  A    between atoms: C_9  and  C_33
    6  A    between atoms: C_11  and  C_28
    7  A    between atoms: C_12  and  S_16
    8  A    between atoms: C_15  and  C_28
    9  A    between atoms: C_18  and  N_19
   10  A    between atoms: C_18  and  C_39
   11  A    between atoms: C_31  and  C_34
                            x       y       z     vdW  Elec       q    Type
                         _______ _______ _______ _____ _____    ______ ____

>  <TORSDO>
F 11

$$$$
=
 OpenBabel10222419343D

 39 44  0  0  1  0  0  0  0  0999 V2000
  188.0770  177.1510  143.6810 C   0  0  0  0  0  3  0  0  0  0  0  0
  186.6430  178.6030  140.7110 C   0  0  0  0  0  3  0  0  0  0  0  0
  188.5770  177.4550  141.5890 C   0  0  0  0  0  0  0  0  0  0  0  0
  187.0000  177.8230  143.0980 C   0  0  0  0  0  0  0  0  0  0  0  0
  188.5430  178.0560  139.2680 C   0  0  0  0  0  0  0  0  0  0  0  0
  187.3360  178.0070  141.7650 C   0  0  0  0  0  0  0  0  0  0  0  0
  189.0300  176.9430  142.7450 N   0  0  0  0  0  0  0  0  0  0  0  0
  187.2630  178.6220  139.4500 C   0  0  0  0  0  3  0  0  0  0  0  0
  189.2160  177.4570  140.3480 C   0  0  0  0  0  3  0  0  0  0  0  0
  183.4310  179.0000  145.1060 C   0  0  0  0  0  3  0  0  0  0  0  0
  183.3730  178.6550  143.7550 C   0  0  0  0  0  3  0  0  0  0  0  0
  184.6170  178.9600  145.7690 N   0  0  0  0  0  0  0  0  0  0  0  0
  184.5420  178.2700  143.1000 C   0  0  0  0  0  3  0  0  0  0  0  0
  185.7600  178.2320  143.7920 C   0  0  0  0  0  0  0  0  0  0  0  0
  185.7680  178.5870  145.1480 C   0  0  0  0  0  3  0  0  0  0  0  0
  189.3070  178.0880  137.6530 S   0  0  0  0  0  0  0  0  0  0  0  0
  190.7250  177.1010  138.2160 C   0  0  0  0  0  2  0  0  0  0  0  0
  191.1310  176.1740  137.1690 N   0  0  0  0  0  2  0  0  0  0  0  0
  193.0680  176.0400  135.6480 C   0  0  0  0  0  3  0  0  0  0  0  0
  196.6000  174.8270  136.1190 C   0  0  0  0  0  1  0  0  0  0  0  0
  195.1840  175.1610  136.4460 C   0  0  0  0  0  0  0  0  0  0  0  0
  193.2720  175.2930  137.9350 C   0  0  0  0  0  3  0  0  0  0  0  0
  192.4960  175.8320  136.9070 C   0  0  0  0  0  0  0  0  0  0  0  0
  194.4020  175.7040  135.4210 C   0  0  0  0  0  3  0  0  0  0  0  0
  194.6180  174.9490  137.7290 C   0  0  0  0  0  0  0  0  0  0  0  0
  195.4400  173.0110  139.0930 O   0  0  0  0  0  0  0  0  0  0  0  0
  195.9880  175.1490  139.6640 O   0  0  0  0  0  1  0  0  0  0  0  0
  195.3770  174.3810  138.8710 C   0  0  0  0  0  0  0  0  0  0  0  0
  190.2830  176.2330  142.9570 C   0  0  0  0  0  2  0  0  0  0  0  0
  191.7560  177.3040  144.7560 C   0  0  2  0  0  3  0  0  0  0  0  0
  190.8720  178.2230  144.1560 O   0  0  0  0  0  0  0  0  0  0  0  0
  191.3900  177.2240  143.3080 C   0  0  2  0  0  3  0  0  0  0  0  0
  190.9710  176.3890  145.6880 C   0  0  0  0  0  2  0  0  0  0  0  0
  190.8780  177.0270  147.0600 C   0  0  0  0  0  2  0  0  0  0  0  0
  189.6250  177.7560  147.1820 N   0  0  0  0  0  0  0  0  0  0  0  0
  187.6400  177.1420  148.2890 N   0  0  0  0  0  2  0  0  0  0  0  0
  189.6330  178.3850  148.4360 N   0  0  0  0  0  2  0  0  0  0  0  0
  188.2830  178.2570  148.9560 C   0  0  0  0  0  2  0  0  0  0  0  0
  188.5670  176.7640  147.2400 C   0  0  0  0  0  2  0  0  0  0  0  0
  2  6  1  0  0  0  0
  3  6  2  0  0  0  0
  3  7  1  0  0  0  0
  4  1  2  0  0  0  0
  4 14  1  0  0  0  0
  5  8  1  0  0  0  0
  5  9  2  0  0  0  0
  6  4  1  0  0  0  0
  7 29  1  0  0  0  0
  7  1  1  0  0  0  0
  8  2  2  0  0  0  0
  9  3  1  0  0  0  0
 10 12  1  0  0  0  0
 11 10  2  0  0  0  0
 13 11  1  0  0  0  0
 13 14  2  0  0  0  0
 14 15  1  0  0  0  0
 15 12  2  0  0  0  0
 16 17  1  0  0  0  0
 16  5  1  0  0  0  0
 18 17  1  0  0  0  0
 19 23  1  0  0  0  0
 20 21  1  0  0  0  0
 21 25  2  0  0  0  0
 23 18  1  0  0  0  0
 23 22  2  0  0  0  0
 24 19  2  0  0  0  0
 24 21  1  0  0  0  0
 25 22  1  0  0  0  0
 25 28  1  0  0  0  0
 28 26  2  0  0  0  0
 28 27  1  0  0  0  0
 30 33  1  1  0  0  0
 31 30  1  0  0  0  0
 32 29  1  1  0  0  0
 32 31  1  0  0  0  0
 32 30  1  0  0  0  0
 33 34  1  0  0  0  0
 34 35  1  0  0  0  0
 35 39  1  0  0  0  0
 35 37  1  0  0  0  0
 36 38  1  0  0  0  0
 37 38  1  0  0  0  0
 39 36  1  0  0  0  0
M  END
>  <MODEL>
7

>  <REMARK>
 VINA RESULT:      -8.1      3.263      9.614
  Name = 
  11 active torsions:
  status: ('A' for Active; 'I' for Inactive)
    1  A    between atoms: N_1  and  C_11
    2  A    between atoms: N_2  and  C_6
    3  A    between atoms: N_2  and  C_26
    4  A    between atoms: C_6  and  S_16
    5  A    between atoms: C_9  and  C_33
    6  A    between atoms: C_11  and  C_28
    7  A    between atoms: C_12  and  S_16
    8  A    between atoms: C_15  and  C_28
    9  A    between atoms: C_18  and  N_19
   10  A    between atoms: C_18  and  C_39
   11  A    between atoms: C_31  and  C_34
                            x       y       z     vdW  Elec       q    Type
                         _______ _______ _______ _____ _____    ______ ____

>  <TORSDO>
F 11

$$$$
=
 OpenBabel10222419343D

 39 44  0  0  1  0  0  0  0  0999 V2000
  185.3810  178.1610  137.7520 C   0  0  0  0  0  3  0  0  0  0  0  0
  187.3680  178.2640  140.7570 C   0  0  0  0  0  3  0  0  0  0  0  0
  185.1520  178.6170  139.8640 C   0  0  0  0  0  0  0  0  0  0  0  0
  186.6340  177.9870  138.3440 C   0  0  0  0  0  0  0  0  0  0  0  0
  185.5240  178.9590  142.2080 C   0  0  0  0  0  0  0  0  0  0  0  0
  186.4690  178.2800  139.6900 C   0  0  0  0  0  0  0  0  0  0  0  0
  184.4940  178.5520  138.6950 N   0  0  0  0  0  0  0  0  0  0  0  0
  186.8790  178.6090  142.0280 C   0  0  0  0  0  3  0  0  0  0  0  0
  184.6390  178.9610  141.1150 C   0  0  0  0  0  3  0  0  0  0  0  0
  190.1830  176.7660  136.3270 C   0  0  0  0  0  3  0  0  0  0  0  0
  189.9470  176.3150  137.6270 C   0  0  0  0  0  3  0  0  0  0  0  0
  189.2870  177.5860  135.7170 N   0  0  0  0  0  0  0  0  0  0  0  0
  188.7840  176.7160  138.2850 C   0  0  0  0  0  3  0  0  0  0  0  0
  187.8670  177.5620  137.6470 C   0  0  0  0  0  0  0  0  0  0  0  0
  188.1480  177.9870  136.3420 C   0  0  0  0  0  3  0  0  0  0  0  0
  184.9260  179.3890  143.8360 S   0  0  0  0  0  0  0  0  0  0  0  0
  185.6690  177.9090  144.5870 C   0  0  0  0  0  2  0  0  0  0  0  0
  186.3900  178.2760  145.7970 N   0  0  0  0  0  2  0  0  0  0  0  0
  188.0750  177.4640  147.4050 C   0  0  0  0  0  3  0  0  0  0  0  0
  191.6570  176.3750  147.0130 C   0  0  0  0  0  1  0  0  0  0  0  0
  190.3010  176.8730  146.6420 C   0  0  0  0  0  0  0  0  0  0  0  0
  188.6380  177.6760  145.0670 C   0  0  0  0  0  3  0  0  0  0  0  0
  187.7080  177.8060  146.1000 C   0  0  0  0  0  0  0  0  0  0  0  0
  189.3640  177.0030  147.6720 C   0  0  0  0  0  3  0  0  0  0  0  0
  189.9400  177.2110  145.3130 C   0  0  0  0  0  0  0  0  0  0  0  0
  191.3410  178.2250  143.4960 O   0  0  0  0  0  0  0  0  0  0  0  0
  191.2570  175.9650  143.7730 O   0  0  0  0  0  1  0  0  0  0  0  0
  190.8710  177.1010  144.1620 C   0  0  0  0  0  0  0  0  0  0  0  0
  183.0750  178.7910  138.4740 C   0  0  0  0  0  2  0  0  0  0  0  0
  181.0400  177.2520  138.6850 C   0  0  2  0  0  3  0  0  0  0  0  0
  182.2140  176.6810  139.2150 O   0  0  0  0  0  0  0  0  0  0  0  0
  182.3850  177.4890  138.0750 C   0  0  2  0  0  3  0  0  0  0  0  0
  180.5420  178.3400  139.6300 C   0  0  0  0  0  2  0  0  0  0  0  0
  179.8430  177.6990  140.8130 C   0  0  0  0  0  2  0  0  0  0  0  0
  180.3080  178.3080  142.0490 N   0  0  0  0  0  0  0  0  0  0  0  0
  180.0350  180.5140  142.8240 N   0  0  0  0  0  2  0  0  0  0  0  0
  179.2250  178.3080  142.9410 N   0  0  0  0  0  2  0  0  0  0  0  0
  179.2820  179.5810  143.6380 C   0  0  0  0  0  2  0  0  0  0  0  0
  180.5810  179.7030  141.7540 C   0  0  0  0  0  2  0  0  0  0  0  0
  1  4  2  0  0  0  0
  1  7  1  0  0  0  0
  2  8  1  0  0  0  0
  3  9  2  0  0  0  0
  4  6  1  0  0  0  0
  5 16  1  0  0  0  0
  6  3  1  0  0  0  0
  6  2  2  0  0  0  0
  7  3  1  0  0  0  0
  8  5  2  0  0  0  0
  9  5  1  0  0  0  0
 10 11  1  0  0  0  0
 11 13  2  0  0  0  0
 12 10  2  0  0  0  0
 12 15  1  0  0  0  0
 14 13  1  0  0  0  0
 14  4  1  0  0  0  0
 15 14  2  0  0  0  0
 16 17  1  0  0  0  0
 17 18  1  0  0  0  0
 18 23  1  0  0  0  0
 19 24  1  0  0  0  0
 21 20  1  0  0  0  0
 21 24  2  0  0  0  0
 22 25  2  0  0  0  0
 22 23  1  0  0  0  0
 23 19  2  0  0  0  0
 25 21  1  0  0  0  0
 26 28  2  0  0  0  0
 27 28  1  0  0  0  0
 28 25  1  0  0  0  0
 29  7  1  0  0  0  0
 30 31  1  0  0  0  0
 30 33  1  1  0  0  0
 32 29  1  1  0  0  0
 32 30  1  0  0  0  0
 32 31  1  0  0  0  0
 33 34  1  0  0  0  0
 34 35  1  0  0  0  0
 35 37  1  0  0  0  0
 36 38  1  0  0  0  0
 37 38  1  0  0  0  0
 39 35  1  0  0  0  0
 39 36  1  0  0  0  0
M  END
>  <MODEL>
8

>  <REMARK>
 VINA RESULT:      -8.1      4.261      9.350
  Name = 
  11 active torsions:
  status: ('A' for Active; 'I' for Inactive)
    1  A    between atoms: N_1  and  C_11
    2  A    between atoms: N_2  and  C_6
    3  A    between atoms: N_2  and  C_26
    4  A    between atoms: C_6  and  S_16
    5  A    between atoms: C_9  and  C_33
    6  A    between atoms: C_11  and  C_28
    7  A    between atoms: C_12  and  S_16
    8  A    between atoms: C_15  and  C_28
    9  A    between atoms: C_18  and  N_19
   10  A    between atoms: C_18  and  C_39
   11  A    between atoms: C_31  and  C_34
                            x       y       z     vdW  Elec       q    Type
                         _______ _______ _______ _____ _____    ______ ____

>  <TORSDO>
F 11

$$$$
=
 OpenBabel10222419343D

 39 44  0  0  1  0  0  0  0  0999 V2000
  190.8500  176.7310  139.5630 C   0  0  0  0  0  3  0  0  0  0  0  0
  188.9910  176.2660  136.5110 C   0  0  0  0  0  3  0  0  0  0  0  0
  188.8650  177.1160  138.7670 C   0  0  0  0  0  0  0  0  0  0  0  0
  190.8380  176.2560  138.2490 C   0  0  0  0  0  0  0  0  0  0  0  0
  186.9310  177.2800  137.3590 C   0  0  0  0  0  0  0  0  0  0  0  0
  189.5670  176.5110  137.7580 C   0  0  0  0  0  0  0  0  0  0  0  0
  189.6350  177.2440  139.8610 N   0  0  0  0  0  0  0  0  0  0  0  0
  187.6560  176.6600  136.3180 C   0  0  0  0  0  3  0  0  0  0  0  0
  187.5390  177.5200  138.6050 C   0  0  0  0  0  3  0  0  0  0  0  0
  194.1180  174.4250  136.2360 C   0  0  0  0  0  3  0  0  0  0  0  0
  194.1860  175.7810  136.5610 C   0  0  0  0  0  3  0  0  0  0  0  0
  193.0130  173.7020  136.5620 N   0  0  0  0  0  0  0  0  0  0  0  0
  193.1110  176.3780  137.2200 C   0  0  0  0  0  3  0  0  0  0  0  0
  191.9780  175.6230  137.5500 C   0  0  0  0  0  0  0  0  0  0  0  0
  191.9560  174.2650  137.2040 C   0  0  0  0  0  3  0  0  0  0  0  0
  185.2360  177.7770  137.0870 S   0  0  0  0  0  0  0  0  0  0  0  0
  185.1330  178.5970  138.7060 C   0  0  0  0  0  2  0  0  0  0  0  0
  184.0860  177.9810  139.5090 N   0  0  0  0  0  2  0  0  0  0  0  0
  184.9980  178.1740  141.7920 C   0  0  0  0  0  3  0  0  0  0  0  0
  183.4190  179.0050  145.1070 C   0  0  0  0  0  1  0  0  0  0  0  0
  183.5380  178.7490  143.6420 C   0  0  0  0  0  0  0  0  0  0  0  0
  182.6480  178.5520  141.3930 C   0  0  0  0  0  3  0  0  0  0  0  0
  183.9170  178.2310  140.9080 C   0  0  0  0  0  0  0  0  0  0  0  0
  184.8070  178.4300  143.1500 C   0  0  0  0  0  3  0  0  0  0  0  0
  182.4330  178.8150  142.7560 C   0  0  0  0  0  0  0  0  0  0  0  0
  180.2440  178.2120  143.8230 O   0  0  0  0  0  1  0  0  0  0  0  0
  180.5970  180.3080  143.0020 O   0  0  0  0  0  0  0  0  0  0  0  0
  181.0540  179.1490  143.1940 C   0  0  0  0  0  0  0  0  0  0  0  0
  189.2690  177.8760  141.1200 C   0  0  0  0  0  2  0  0  0  0  0  0
  189.7040  177.1310  143.5300 C   0  0  2  0  0  3  0  0  0  0  0  0
  190.1920  178.4260  143.2620 O   0  0  0  0  0  0  0  0  0  0  0  0
  190.2810  177.5030  142.2010 C   0  0  2  0  0  3  0  0  0  0  0  0
  188.1830  177.1800  143.6280 C   0  0  0  0  0  2  0  0  0  0  0  0
  187.7560  176.7850  145.0280 C   0  0  0  0  0  2  0  0  0  0  0  0
  188.1060  177.8390  145.9670 N   0  0  0  0  0  0  0  0  0  0  0  0
  187.1830  178.3290  148.0770 N   0  0  0  0  0  2  0  0  0  0  0  0
  188.9460  177.2680  146.9350 N   0  0  0  0  0  2  0  0  0  0  0  0
  188.5440  177.8470  148.2050 C   0  0  0  0  0  2  0  0  0  0  0  0
  186.8850  178.2030  146.6640 C   0  0  0  0  0  2  0  0  0  0  0  0
  1  7  1  0  0  0  0
  2  6  1  0  0  0  0
  3  7  1  0  0  0  0
  4  1  2  0  0  0  0
  5  9  2  0  0  0  0
  6  4  1  0  0  0  0
  6  3  2  0  0  0  0
  7 29  1  0  0  0  0
  8  2  2  0  0  0  0
  8  5  1  0  0  0  0
  9  3  1  0  0  0  0
 10 11  2  0  0  0  0
 10 12  1  0  0  0  0
 11 13  1  0  0  0  0
 12 15  2  0  0  0  0
 13 14  2  0  0  0  0
 14  4  1  0  0  0  0
 15 14  1  0  0  0  0
 16  5  1  0  0  0  0
 16 17  1  0  0  0  0
 17 18  1  0  0  0  0
 18 23  1  0  0  0  0
 19 24  1  0  0  0  0
 21 20  1  0  0  0  0
 22 25  2  0  0  0  0
 23 22  1  0  0  0  0
 23 19  2  0  0  0  0
 24 21  2  0  0  0  0
 25 28  1  0  0  0  0
 25 21  1  0  0  0  0
 27 28  2  0  0  0  0
 28 26  1  0  0  0  0
 30 33  1  6  0  0  0
 31 30  1  0  0  0  0
 32 29  1  6  0  0  0
 32 31  1  0  0  0  0
 32 30  1  0  0  0  0
 33 34  1  0  0  0  0
 34 35  1  0  0  0  0
 35 39  1  0  0  0  0
 35 37  1  0  0  0  0
 36 38  1  0  0  0  0
 37 38  1  0  0  0  0
 39 36  1  0  0  0  0
M  END
>  <MODEL>
9

>  <REMARK>
 VINA RESULT:      -8.1      3.016      7.136
  Name = 
  11 active torsions:
  status: ('A' for Active; 'I' for Inactive)
    1  A    between atoms: N_1  and  C_11
    2  A    between atoms: N_2  and  C_6
    3  A    between atoms: N_2  and  C_26
    4  A    between atoms: C_6  and  S_16
    5  A    between atoms: C_9  and  C_33
    6  A    between atoms: C_11  and  C_28
    7  A    between atoms: C_12  and  S_16
    8  A    between atoms: C_15  and  C_28
    9  A    between atoms: C_18  and  N_19
   10  A    between atoms: C_18  and  C_39
   11  A    between atoms: C_31  and  C_34
                            x       y       z     vdW  Elec       q    Type
                         _______ _______ _______ _____ _____    ______ ____

>  <TORSDO>
F 11

$$$$
