=
 OpenBabel10222415593D

 63 68  0  0  1  0  0  0  0  0999 V2000
  189.2190  178.3350  142.9710 N   0  0  0  0  0  0  0  0  0  0  0  0
  188.8580  177.3890  143.8180 C   0  0  0  0  0  0  0  0  0  0  0  0
  191.4370  176.6950  147.2560 C   0  0  0  0  0  0  0  0  0  0  0  0
  189.7250  177.4800  145.1010 C   0  0  0  0  0  0  0  0  0  0  0  0
  191.1110  177.2750  144.9460 C   0  0  0  0  0  3  0  0  0  0  0  0
  191.9420  176.8760  145.9750 C   0  0  0  0  0  3  0  0  0  0  0  0
  189.2260  177.3760  146.4280 C   0  0  0  0  0  3  0  0  0  0  0  0
  190.1060  177.0110  147.5060 C   0  0  0  0  0  3  0  0  0  0  0  0
  192.2720  176.2410  148.2910 O   0  0  0  0  0  1  0  0  0  0  0  0
  187.7070  176.4770  143.4830 C   0  0  0  0  0  0  0  0  0  0  0  0
  187.8840  175.2530  143.1960 O   0  0  0  0  0  0  0  0  0  0  0  0
  186.3230  176.9230  143.4510 C   0  0  0  0  0  3  0  0  0  0  0  0
  185.9470  177.9660  142.7050 C   0  0  0  0  0  0  0  0  0  0  0  0
  185.5290  179.0330  141.9750 C   0  0  0  0  0  3  0  0  0  0  0  0
  184.1310  179.0880  141.4830 C   0  0  0  0  0  0  0  0  0  0  0  0
  182.6150  179.0360  139.4630 C   0  0  0  0  0  2  0  0  0  0  0  0
  181.4930  178.8260  140.3890 N   0  0  0  0  0  0  0  0  0  0  0  0
  183.9510  179.0910  140.1810 C   0  0  0  0  0  3  0  0  0  0  0  0
  180.2720  178.6490  139.6690 C   0  0  0  0  0  0  0  0  0  0  0  0
  182.9200  179.0560  142.4120 C   0  0  0  0  0  0  0  0  0  0  0  0
  181.6780  178.8200  141.8580 C   0  0  0  0  0  0  0  0  0  0  0  0
  183.1400  179.0770  143.8540 C   0  0  0  0  0  1  0  0  0  0  0  0
  179.2180  178.3650  140.3220 O   0  0  0  0  0  0  0  0  0  0  0  0
  180.2740  177.9760  143.8650 C   0  0  0  0  0  1  0  0  0  0  0  0
  180.0230  180.3290  143.1710 C   0  0  0  0  0  1  0  0  0  0  0  0
  180.3730  178.9490  142.7140 C   0  0  0  0  0  3  0  0  0  0  0  0
  180.1240  178.6960  138.1620 C   0  0  0  0  0  0  0  0  0  0  0  0
  179.9230  177.6220  137.5470 O   0  0  0  0  0  0  0  0  0  0  0  0
  179.9420  181.2400  137.9320 C   0  0  0  0  0  3  0  0  0  0  0  0
  179.8540  183.6690  137.7300 N   0  0  0  0  0  1  0  0  0  0  0  0
  180.3090  182.2940  135.8030 C   0  0  0  0  0  3  0  0  0  0  0  0
  180.5660  181.0660  135.2050 C   0  0  0  0  0  3  0  0  0  0  0  0
  180.0300  182.3920  137.1700 C   0  0  0  0  0  0  0  0  0  0  0  0
  180.5040  179.9040  135.9700 C   0  0  0  0  0  3  0  0  0  0  0  0
  180.1930  179.9740  137.3540 C   0  0  0  0  0  0  0  0  0  0  0  0
  188.7550  179.0050  141.7200 C   0  0  0  0  0  2  0  0  0  0  0  0
  190.7920  176.4260  139.7280 C   0  0  0  0  0  3  0  0  0  0  0  0
  189.3020  178.2150  140.4990 C   0  0  0  0  0  0  0  0  0  0  0  0
  190.0750  176.3650  138.5780 C   0  0  0  0  0  3  0  0  0  0  0  0
  191.3010  177.5280  141.6930 F   0  0  0  0  0  0  0  0  0  0  0  0
  189.0740  177.2680  138.2740 C   0  0  0  0  0  0  0  0  0  0  0  0
  188.6640  178.1710  139.2620 C   0  0  0  0  0  3  0  0  0  0  0  0
  190.4020  177.4060  140.6840 C   0  0  0  0  0  0  0  0  0  0  0  0
  187.4490  176.1430  136.5490 C   0  0  2  0  0  3  0  0  0  0  0  0
  188.4260  177.1440  137.0460 N   0  0  0  0  0  0  0  0  0  0  0  0
  186.4440  177.0040  136.0400 N   0  0  1  0  0  0  0  0  0  0  0  0
  186.8350  175.1420  137.5660 C   0  0  0  0  0  1  0  0  0  0  0  0
  188.3090  178.3770  136.2320 C   0  0  0  0  0  2  0  0  0  0  0  0
  187.0940  178.1510  135.4280 C   0  0  0  0  0  2  0  0  0  0  0  0
  185.5260  176.3270  135.1770 C   0  0  1  0  0  3  0  0  0  0  0  0
  184.1460  176.6100  135.8690 C   0  0  1  0  0  3  0  0  0  0  0  0
  184.4310  177.0720  134.5940 O   0  0  0  0  0  0  0  0  0  0  0  0
  182.5510  174.8120  134.8400 O   0  0  0  0  0  1  0  0  0  0  0  0
  183.3420  175.2250  136.0050 C   0  0  2  0  0  3  0  0  0  0  0  0
  182.5260  174.9640  137.3210 C   0  0  0  0  0  2  0  0  0  0  0  0
  180.4070  174.4150  138.1520 O   0  0  0  0  0  1  0  0  0  0  0  0
  181.3980  173.9570  137.2540 C   0  0  2  0  0  3  0  0  0  0  0  0
  181.9800  172.6490  137.7600 C   0  0  0  0  0  2  0  0  0  0  0  0
  179.8470  170.8970  136.6390 O   0  0  0  0  0  0  0  0  0  0  0  0
  182.0800  171.6240  136.7300 N   0  0  0  0  0  0  0  0  0  0  0  0
  183.3550  170.9410  136.6240 C   0  0  0  0  0  1  0  0  0  0  0  0
  180.9290  171.1040  136.0480 C   0  0  0  0  0  0  0  0  0  0  0  0
  180.9930  170.9290  134.5940 C   0  0  0  0  0  1  0  0  0  0  0  0
  1  2  2  0  0  0  0
  2  4  1  0  0  0  0
  3  8  1  0  0  0  0
  3  9  1  0  0  0  0
  4  7  1  0  0  0  0
  5  4  2  0  0  0  0
  5  6  1  0  0  0  0
  6  3  2  0  0  0  0
  7  8  2  0  0  0  0
 10  2  1  0  0  0  0
 11 10  2  0  0  0  0
 12 10  1  0  0  0  0
 13 12  2  0  0  0  0
 14 13  2  0  0  0  0
 15 14  1  0  0  0  0
 15 20  1  0  0  0  0
 16 18  1  0  0  0  0
 16 17  1  0  0  0  0
 17 21  1  0  0  0  0
 18 15  2  0  0  0  0
 19 23  2  0  0  0  0
 19 17  1  0  0  0  0
 20 22  1  0  0  0  0
 21 20  2  0  0  0  0
 21 26  1  0  0  0  0
 26 25  1  0  0  0  0
 26 24  1  0  0  0  0
 27 19  1  0  0  0  0
 28 27  2  0  0  0  0
 31 33  1  0  0  0  0
 32 31  2  0  0  0  0
 32 34  1  0  0  0  0
 33 30  1  0  0  0  0
 33 29  2  0  0  0  0
 34 35  2  0  0  0  0
 35 29  1  0  0  0  0
 35 27  1  0  0  0  0
 36  1  1  0  0  0  0
 37 43  1  0  0  0  0
 38 43  2  0  0  0  0
 38 36  1  0  0  0  0
 39 37  2  0  0  0  0
 41 39  1  0  0  0  0
 41 42  2  0  0  0  0
 42 38  1  0  0  0  0
 43 40  1  0  0  0  0
 44 45  1  0  0  0  0
 44 47  1  1  0  0  0
 45 41  1  0  0  0  0
 46 49  1  6  0  0  0
 46 44  1  0  0  0  0
 48 45  1  0  0  0  0
 49 48  1  0  0  0  0
 50 52  1  6  0  0  0
 50 51  1  0  0  0  0
 50 46  1  0  0  0  0
 51 54  1  6  0  0  0
 52 51  1  0  0  0  0
 54 53  1  6  0  0  0
 54 55  1  0  0  0  0
 57 55  1  0  0  0  0
 57 58  1  0  0  0  0
 57 56  1  1  0  0  0
 60 58  1  0  0  0  0
 61 60  1  0  0  0  0
 62 59  2  0  0  0  0
 62 60  1  0  0  0  0
 63 62  1  0  0  0  0
M  END
>  <MODEL>
1

>  <REMARK>
 VINA RESULT:      -7.7      0.000      0.000
  Name = 
  16 active torsions:
  status: ('A' for Active; 'I' for Inactive)
    1  A    between atoms: C_1  and  C_47
    2  A    between atoms: C_3  and  C_39
    3  A    between atoms: C_3  and  C_54
    4  A    between atoms: C_6  and  C_16
    5  A    between atoms: N_7  and  C_59
    6  A    between atoms: C_12  and  N_24
    7  A    between atoms: C_12  and  C_46
    8  A    between atoms: N_15  and  C_25
    9  A    between atoms: C_16  and  C_42
   10  A    between atoms: C_17  and  C_42
   11  A    between atoms: C_19  and  N_26
   12  A    between atoms: C_20  and  C_31
   13  A    between atoms: C_20  and  C_46
   14  A    between atoms: C_25  and  C_32
   15  A    between atoms: C_27  and  C_31
   16  A    between atoms: C_49  and  C_60
                            x       y       z     vdW  Elec       q    Type
                         _______ _______ _______ _____ _____    ______ ____

>  <TORSDO>
F 16

$$$$
=
 OpenBabel10222415593D

 63 68  0  0  1  0  0  0  0  0999 V2000
  187.3330  177.9730  143.5450 N   0  0  0  0  0  0  0  0  0  0  0  0
  188.5520  177.7160  143.9810 C   0  0  0  0  0  0  0  0  0  0  0  0
  188.2390  177.8020  148.3220 C   0  0  0  0  0  0  0  0  0  0  0  0
  188.5080  177.4080  145.5000 C   0  0  0  0  0  0  0  0  0  0  0  0
  187.2600  177.5510  146.1400 C   0  0  0  0  0  3  0  0  0  0  0  0
  187.1210  177.7630  147.4980 C   0  0  0  0  0  3  0  0  0  0  0  0
  189.6430  177.3640  146.3540 C   0  0  0  0  0  3  0  0  0  0  0  0
  189.4880  177.5330  147.7740 C   0  0  0  0  0  3  0  0  0  0  0  0
  188.1010  178.0670  149.6950 O   0  0  0  0  0  1  0  0  0  0  0  0
  189.7080  177.6890  143.0150 C   0  0  0  0  0  0  0  0  0  0  0  0
  190.6820  178.4970  143.1140 O   0  0  0  0  0  0  0  0  0  0  0  0
  189.7920  176.7570  141.9020 C   0  0  0  0  0  3  0  0  0  0  0  0
  190.1950  177.1560  140.6920 C   0  0  0  0  0  0  0  0  0  0  0  0
  190.5830  177.5260  139.4430 C   0  0  0  0  0  3  0  0  0  0  0  0
  191.2260  176.5360  138.5460 C   0  0  0  0  0  0  0  0  0  0  0  0
  193.3450  175.2790  137.9870 C   0  0  0  0  0  2  0  0  0  0  0  0
  192.5250  174.3990  137.1420 N   0  0  0  0  0  0  0  0  0  0  0  0
  192.5120  176.3190  138.7130 C   0  0  0  0  0  3  0  0  0  0  0  0
  193.3220  173.3560  136.5780 C   0  0  0  0  0  0  0  0  0  0  0  0
  190.4500  175.7160  137.5180 C   0  0  0  0  0  0  0  0  0  0  0  0
  191.0760  174.6300  136.9430 C   0  0  0  0  0  0  0  0  0  0  0  0
  189.0300  175.9890  137.3300 C   0  0  0  0  0  1  0  0  0  0  0  0
  192.7440  172.4530  135.8930 O   0  0  0  0  0  0  0  0  0  0  0  0
  189.3230  172.8900  136.1590 C   0  0  0  0  0  1  0  0  0  0  0  0
  189.9700  174.6830  134.5940 C   0  0  0  0  0  1  0  0  0  0  0  0
  190.4150  173.8520  135.7550 C   0  0  0  0  0  3  0  0  0  0  0  0
  194.8120  173.1780  136.7840 C   0  0  0  0  0  0  0  0  0  0  0  0
  195.2080  172.2320  137.5060 O   0  0  0  0  0  0  0  0  0  0  0  0
  195.5370  175.3550  135.6470 C   0  0  0  0  0  3  0  0  0  0  0  0
  196.2460  177.4620  134.6420 N   0  0  0  0  0  1  0  0  0  0  0  0
  197.8250  175.6710  134.9790 C   0  0  0  0  0  3  0  0  0  0  0  0
  198.1730  174.4200  135.4730 C   0  0  0  0  0  3  0  0  0  0  0  0
  196.5180  176.1590  135.0920 C   0  0  0  0  0  0  0  0  0  0  0  0
  197.1970  173.6160  136.0550 C   0  0  0  0  0  3  0  0  0  0  0  0
  195.8560  174.0760  136.1550 C   0  0  0  0  0  0  0  0  0  0  0  0
  186.5680  178.1180  142.2710 C   0  0  0  0  0  2  0  0  0  0  0  0
  183.4820  179.4890  144.1070 C   0  0  0  0  0  3  0  0  0  0  0  0
  185.0730  178.3690  142.6120 C   0  0  0  0  0  0  0  0  0  0  0  0
  182.5300  179.3480  143.1500 C   0  0  0  0  0  3  0  0  0  0  0  0
  185.5780  178.9510  144.9150 F   0  0  0  0  0  0  0  0  0  0  0  0
  182.7390  178.6250  141.9910 C   0  0  0  0  0  0  0  0  0  0  0  0
  184.0320  178.1700  141.7090 C   0  0  0  0  0  3  0  0  0  0  0  0
  184.7690  178.9470  143.8250 C   0  0  0  0  0  0  0  0  0  0  0  0
  181.6630  178.3140  139.6190 C   0  0  2  0  0  3  0  0  0  0  0  0
  181.6820  178.5050  141.0910 N   0  0  0  0  0  0  0  0  0  0  0  0
  180.7670  177.2190  139.5180 N   0  0  1  0  0  0  0  0  0  0  0  0
  182.9990  177.9820  138.9000 C   0  0  0  0  0  1  0  0  0  0  0  0
  180.3830  178.0600  141.6510 C   0  0  0  0  0  2  0  0  0  0  0  0
  179.7220  177.3930  140.5140 C   0  0  0  0  0  2  0  0  0  0  0  0
  180.2770  177.0300  138.1880 C   0  0  1  0  0  3  0  0  0  0  0  0
  180.0560  175.4780  138.1310 C   0  0  1  0  0  3  0  0  0  0  0  0
  179.0030  176.3700  137.9970 O   0  0  0  0  0  0  0  0  0  0  0  0
  180.5900  175.7310  135.5840 O   0  0  0  0  0  1  0  0  0  0  0  0
  180.7350  174.9080  136.7890 C   0  0  2  0  0  3  0  0  0  0  0  0
  180.5160  173.3950  136.4300 C   0  0  0  0  0  2  0  0  0  0  0  0
  181.4200  171.5650  137.5770 O   0  0  0  0  0  1  0  0  0  0  0  0
  181.7130  172.4740  136.5340 C   0  0  2  0  0  3  0  0  0  0  0  0
  182.8800  173.3570  136.9400 C   0  0  0  0  0  2  0  0  0  0  0  0
  185.6840  172.6310  137.6370 O   0  0  0  0  0  0  0  0  0  0  0  0
  184.0390  173.2200  136.0670 N   0  0  0  0  0  0  0  0  0  0  0  0
  184.0480  174.0490  134.8770 C   0  0  0  0  0  1  0  0  0  0  0  0
  185.2330  172.5380  136.4750 C   0  0  0  0  0  0  0  0  0  0  0  0
  185.8680  171.6100  135.5350 C   0  0  0  0  0  1  0  0  0  0  0  0
  1  2  2  0  0  0  0
  2  4  1  0  0  0  0
  3  9  1  0  0  0  0
  4  5  2  0  0  0  0
  4  7  1  0  0  0  0
  5  6  1  0  0  0  0
  6  3  2  0  0  0  0
  7  8  2  0  0  0  0
  8  3  1  0  0  0  0
 10 11  2  0  0  0  0
 10  2  1  0  0  0  0
 12 10  1  0  0  0  0
 13 12  2  0  0  0  0
 14 13  2  0  0  0  0
 15 18  2  0  0  0  0
 15 14  1  0  0  0  0
 16 18  1  0  0  0  0
 17 16  1  0  0  0  0
 19 27  1  0  0  0  0
 19 17  1  0  0  0  0
 20 15  1  0  0  0  0
 21 17  1  0  0  0  0
 21 20  2  0  0  0  0
 22 20  1  0  0  0  0
 23 19  2  0  0  0  0
 25 26  1  0  0  0  0
 26 24  1  0  0  0  0
 26 21  1  0  0  0  0
 27 28  2  0  0  0  0
 29 35  1  0  0  0  0
 30 33  1  0  0  0  0
 31 33  1  0  0  0  0
 31 32  2  0  0  0  0
 32 34  1  0  0  0  0
 33 29  2  0  0  0  0
 34 35  2  0  0  0  0
 35 27  1  0  0  0  0
 36 38  1  0  0  0  0
 36  1  1  0  0  0  0
 38 43  2  0  0  0  0
 39 37  2  0  0  0  0
 41 39  1  0  0  0  0
 42 41  2  0  0  0  0
 42 38  1  0  0  0  0
 43 37  1  0  0  0  0
 43 40  1  0  0  0  0
 44 47  1  1  0  0  0
 44 45  1  0  0  0  0
 45 48  1  0  0  0  0
 45 41  1  0  0  0  0
 46 44  1  0  0  0  0
 46 49  1  1  0  0  0
 49 48  1  0  0  0  0
 50 52  1  1  0  0  0
 50 46  1  0  0  0  0
 51 54  1  6  0  0  0
 51 50  1  0  0  0  0
 52 51  1  0  0  0  0
 54 53  1  6  0  0  0
 55 57  1  0  0  0  0
 55 54  1  0  0  0  0
 57 58  1  0  0  0  0
 57 56  1  1  0  0  0
 60 62  1  0  0  0  0
 60 58  1  0  0  0  0
 61 60  1  0  0  0  0
 62 59  2  0  0  0  0
 63 62  1  0  0  0  0
M  END
>  <MODEL>
2

>  <REMARK>
 VINA RESULT:      -7.3      3.883      9.434
  Name = 
  16 active torsions:
  status: ('A' for Active; 'I' for Inactive)
    1  A    between atoms: C_1  and  C_47
    2  A    between atoms: C_3  and  C_39
    3  A    between atoms: C_3  and  C_54
    4  A    between atoms: C_6  and  C_16
    5  A    between atoms: N_7  and  C_59
    6  A    between atoms: C_12  and  N_24
    7  A    between atoms: C_12  and  C_46
    8  A    between atoms: N_15  and  C_25
    9  A    between atoms: C_16  and  C_42
   10  A    between atoms: C_17  and  C_42
   11  A    between atoms: C_19  and  N_26
   12  A    between atoms: C_20  and  C_31
   13  A    between atoms: C_20  and  C_46
   14  A    between atoms: C_25  and  C_32
   15  A    between atoms: C_27  and  C_31
   16  A    between atoms: C_49  and  C_60
                            x       y       z     vdW  Elec       q    Type
                         _______ _______ _______ _____ _____    ______ ____

>  <TORSDO>
F 16

$$$$
=
 OpenBabel10222415593D

 63 68  0  0  1  0  0  0  0  0999 V2000
  190.1210  177.6420  143.0170 N   0  0  0  0  0  0  0  0  0  0  0  0
  189.4090  177.2750  144.0660 C   0  0  0  0  0  0  0  0  0  0  0  0
  192.2540  175.6350  146.9230 C   0  0  0  0  0  0  0  0  0  0  0  0
  190.2730  176.3900  144.9990 C   0  0  0  0  0  0  0  0  0  0  0  0
  190.1110  176.5840  146.3870 C   0  0  0  0  0  3  0  0  0  0  0  0
  191.0700  176.2430  147.3210 C   0  0  0  0  0  3  0  0  0  0  0  0
  191.4460  175.6930  144.6020 C   0  0  0  0  0  3  0  0  0  0  0  0
  192.4180  175.2930  145.5850 C   0  0  0  0  0  3  0  0  0  0  0  0
  193.2500  175.3330  147.8660 O   0  0  0  0  0  1  0  0  0  0  0  0
  187.9990  177.7820  144.2330 C   0  0  0  0  0  0  0  0  0  0  0  0
  187.6970  178.6370  145.1210 O   0  0  0  0  0  0  0  0  0  0  0  0
  186.8880  177.3280  143.4120 C   0  0  0  0  0  3  0  0  0  0  0  0
  185.7540  178.0300  143.3300 C   0  0  0  0  0  0  0  0  0  0  0  0
  184.5790  178.7050  143.2340 C   0  0  0  0  0  3  0  0  0  0  0  0
  183.7580  178.5870  142.0050 C   0  0  0  0  0  0  0  0  0  0  0  0
  183.7560  178.1250  139.5210 C   0  0  0  0  0  2  0  0  0  0  0  0
  182.2960  177.9780  139.6140 N   0  0  0  0  0  0  0  0  0  0  0  0
  184.3950  178.3820  140.8730 C   0  0  0  0  0  3  0  0  0  0  0  0
  181.7450  177.6090  138.3490 C   0  0  0  0  0  0  0  0  0  0  0  0
  182.2310  178.6090  142.0180 C   0  0  0  0  0  0  0  0  0  0  0  0
  181.5630  178.2060  140.8800 C   0  0  0  0  0  0  0  0  0  0  0  0
  181.5430  178.8620  143.2790 C   0  0  0  0  0  1  0  0  0  0  0  0
  180.5010  177.3520  138.2790 O   0  0  0  0  0  0  0  0  0  0  0  0
  179.2060  177.2180  141.3100 C   0  0  0  0  0  1  0  0  0  0  0  0
  179.4480  179.6720  141.2270 C   0  0  0  0  0  1  0  0  0  0  0  0
  180.0110  178.3700  140.7530 C   0  0  0  0  0  3  0  0  0  0  0  0
  182.5330  177.4190  137.0680 C   0  0  0  0  0  0  0  0  0  0  0  0
  182.3090  178.1940  136.1080 O   0  0  0  0  0  0  0  0  0  0  0  0
  184.7240  176.5480  136.0690 C   0  0  0  0  0  3  0  0  0  0  0  0
  186.8540  175.7480  135.1880 N   0  0  0  0  0  1  0  0  0  0  0  0
  185.4840  174.3220  136.5690 C   0  0  0  0  0  3  0  0  0  0  0  0
  184.3810  174.0960  137.3830 C   0  0  0  0  0  3  0  0  0  0  0  0
  185.6800  175.5560  135.9360 C   0  0  0  0  0  0  0  0  0  0  0  0
  183.4280  175.0990  137.5410 C   0  0  0  0  0  3  0  0  0  0  0  0
  183.5880  176.3490  136.8860 C   0  0  0  0  0  0  0  0  0  0  0  0
  190.0900  178.6070  141.8780 C   0  0  0  0  0  2  0  0  0  0  0  0
  187.6020  177.8980  139.0360 C   0  0  0  0  0  3  0  0  0  0  0  0
  189.4520  177.9050  140.6470 C   0  0  0  0  0  0  0  0  0  0  0  0
  188.3670  177.1440  138.2060 C   0  0  0  0  0  3  0  0  0  0  0  0
  187.2520  178.8130  141.1270 F   0  0  0  0  0  0  0  0  0  0  0  0
  189.5960  176.6340  138.5830 C   0  0  0  0  0  0  0  0  0  0  0  0
  190.1520  177.0550  139.7960 C   0  0  0  0  0  3  0  0  0  0  0  0
  188.1640  178.2470  140.2970 C   0  0  0  0  0  0  0  0  0  0  0  0
  191.7170  175.7940  137.2890 C   0  0  2  0  0  3  0  0  0  0  0  0
  190.2830  175.8350  137.6720 N   0  0  0  0  0  0  0  0  0  0  0  0
  191.9720  174.4040  137.4170 N   0  0  1  0  0  0  0  0  0  0  0  0
  192.7320  176.6060  138.1390 C   0  0  0  0  0  1  0  0  0  0  0  0
  189.6540  174.5400  137.3190 C   0  0  0  0  0  2  0  0  0  0  0  0
  190.7970  173.6820  136.9570 C   0  0  0  0  0  2  0  0  0  0  0  0
  193.1870  174.0080  136.7750 C   0  0  1  0  0  3  0  0  0  0  0  0
  193.3980  172.5550  137.3290 C   0  0  1  0  0  3  0  0  0  0  0  0
  193.1970  172.7990  135.9790 O   0  0  0  0  0  0  0  0  0  0  0  0
  195.2970  171.1100  138.3970 O   0  0  0  0  0  1  0  0  0  0  0  0
  194.9120  172.4160  137.8510 C   0  0  2  0  0  3  0  0  0  0  0  0
  195.4980  173.5620  138.7500 C   0  0  0  0  0  2  0  0  0  0  0  0
  197.1180  175.2470  138.6100 O   0  0  0  0  0  1  0  0  0  0  0  0
  196.9820  173.8400  138.6470 C   0  0  2  0  0  3  0  0  0  0  0  0
  197.4210  173.2500  137.3180 C   0  0  0  0  0  2  0  0  0  0  0  0
  195.9390  174.0330  134.8550 O   0  0  0  0  0  0  0  0  0  0  0  0
  197.7600  174.2580  136.3220 N   0  0  0  0  0  0  0  0  0  0  0  0
  199.1730  174.5150  136.1240 C   0  0  0  0  0  1  0  0  0  0  0  0
  196.8000  174.7670  135.3850 C   0  0  0  0  0  0  0  0  0  0  0  0
  196.7540  176.2120  135.1410 C   0  0  0  0  0  1  0  0  0  0  0  0
  1  2  2  0  0  0  0
  2 10  1  0  0  0  0
  2  4  1  0  0  0  0
  3  6  1  0  0  0  0
  3  9  1  0  0  0  0
  4  5  1  0  0  0  0
  5  6  2  0  0  0  0
  7  4  2  0  0  0  0
  7  8  1  0  0  0  0
  8  3  2  0  0  0  0
 10 11  2  0  0  0  0
 12 10  1  0  0  0  0
 13 12  2  0  0  0  0
 14 13  2  0  0  0  0
 15 20  1  0  0  0  0
 15 14  1  0  0  0  0
 16 17  1  0  0  0  0
 16 18  1  0  0  0  0
 17 21  1  0  0  0  0
 18 15  2  0  0  0  0
 19 17  1  0  0  0  0
 20 22  1  0  0  0  0
 21 20  2  0  0  0  0
 23 19  2  0  0  0  0
 26 21  1  0  0  0  0
 26 25  1  0  0  0  0
 26 24  1  0  0  0  0
 27 19  1  0  0  0  0
 28 27  2  0  0  0  0
 29 35  1  0  0  0  0
 30 33  1  0  0  0  0
 31 32  2  0  0  0  0
 32 34  1  0  0  0  0
 33 29  2  0  0  0  0
 33 31  1  0  0  0  0
 35 27  1  0  0  0  0
 35 34  2  0  0  0  0
 36  1  1  0  0  0  0
 37 43  1  0  0  0  0
 38 36  1  0  0  0  0
 39 41  1  0  0  0  0
 39 37  2  0  0  0  0
 41 42  2  0  0  0  0
 42 38  1  0  0  0  0
 43 38  2  0  0  0  0
 43 40  1  0  0  0  0
 44 46  1  0  0  0  0
 44 45  1  0  0  0  0
 44 47  1  1  0  0  0
 45 41  1  0  0  0  0
 46 49  1  6  0  0  0
 48 45  1  0  0  0  0
 49 48  1  0  0  0  0
 50 52  1  6  0  0  0
 50 51  1  0  0  0  0
 50 46  1  0  0  0  0
 51 54  1  6  0  0  0
 52 51  1  0  0  0  0
 54 53  1  1  0  0  0
 54 55  1  0  0  0  0
 57 56  1  6  0  0  0
 57 55  1  0  0  0  0
 58 57  1  0  0  0  0
 59 62  2  0  0  0  0
 60 58  1  0  0  0  0
 61 60  1  0  0  0  0
 62 60  1  0  0  0  0
 63 62  1  0  0  0  0
M  END
>  <MODEL>
3

>  <REMARK>
 VINA RESULT:      -7.0      4.182      7.611
  Name = 
  16 active torsions:
  status: ('A' for Active; 'I' for Inactive)
    1  A    between atoms: C_1  and  C_47
    2  A    between atoms: C_3  and  C_39
    3  A    between atoms: C_3  and  C_54
    4  A    between atoms: C_6  and  C_16
    5  A    between atoms: N_7  and  C_59
    6  A    between atoms: C_12  and  N_24
    7  A    between atoms: C_12  and  C_46
    8  A    between atoms: N_15  and  C_25
    9  A    between atoms: C_16  and  C_42
   10  A    between atoms: C_17  and  C_42
   11  A    between atoms: C_19  and  N_26
   12  A    between atoms: C_20  and  C_31
   13  A    between atoms: C_20  and  C_46
   14  A    between atoms: C_25  and  C_32
   15  A    between atoms: C_27  and  C_31
   16  A    between atoms: C_49  and  C_60
                            x       y       z     vdW  Elec       q    Type
                         _______ _______ _______ _____ _____    ______ ____

>  <TORSDO>
F 16

$$$$
=
 OpenBabel10222415593D

 63 68  0  0  1  0  0  0  0  0999 V2000
  190.4210  176.6640  137.1090 N   0  0  0  0  0  0  0  0  0  0  0  0
  191.3630  176.1300  137.8650 C   0  0  0  0  0  0  0  0  0  0  0  0
  193.1630  172.5570  136.1490 C   0  0  0  0  0  0  0  0  0  0  0  0
  192.1600  175.0850  137.0440 C   0  0  0  0  0  0  0  0  0  0  0  0
  191.4100  174.2000  136.2430 C   0  0  0  0  0  3  0  0  0  0  0  0
  191.8770  172.9690  135.8240 C   0  0  0  0  0  3  0  0  0  0  0  0
  193.5040  174.6990  137.3050 C   0  0  0  0  0  3  0  0  0  0  0  0
  194.0020  173.4390  136.8220 C   0  0  0  0  0  3  0  0  0  0  0  0
  193.6200  171.2860  135.7660 O   0  0  0  0  0  1  0  0  0  0  0  0
  191.5620  176.6190  139.2760 C   0  0  0  0  0  0  0  0  0  0  0  0
  192.6300  177.2040  139.6370 O   0  0  0  0  0  0  0  0  0  0  0  0
  190.5690  176.4500  140.3250 C   0  0  0  0  0  3  0  0  0  0  0  0
  190.7730  176.9240  141.5570 C   0  0  0  0  0  0  0  0  0  0  0  0
  190.9500  177.3760  142.8260 C   0  0  0  0  0  3  0  0  0  0  0  0
  189.7720  177.7360  143.6520 C   0  0  0  0  0  0  0  0  0  0  0  0
  187.4000  178.6070  143.6570 C   0  0  0  0  0  2  0  0  0  0  0  0
  187.3010  178.1450  145.0480 N   0  0  0  0  0  0  0  0  0  0  0  0
  188.7400  178.2650  143.0320 C   0  0  0  0  0  3  0  0  0  0  0  0
  185.9850  178.3670  145.5600 C   0  0  0  0  0  0  0  0  0  0  0  0
  189.6830  177.4430  145.1490 C   0  0  0  0  0  0  0  0  0  0  0  0
  188.4520  177.5480  145.7620 C   0  0  0  0  0  0  0  0  0  0  0  0
  190.8470  176.8790  145.8240 C   0  0  0  0  0  1  0  0  0  0  0  0
  185.7060  177.9390  146.7250 O   0  0  0  0  0  0  0  0  0  0  0  0
  188.3290  176.0290  147.8580 C   0  0  0  0  0  1  0  0  0  0  0  0
  189.2260  178.3120  148.1200 C   0  0  0  0  0  1  0  0  0  0  0  0
  188.3130  177.4400  147.3180 C   0  0  0  0  0  3  0  0  0  0  0  0
  184.8440  179.0140  144.8010 C   0  0  0  0  0  0  0  0  0  0  0  0
  184.0800  179.7920  145.4200 O   0  0  0  0  0  0  0  0  0  0  0  0
  185.6070  178.8710  142.3610 C   0  0  0  0  0  3  0  0  0  0  0  0
  186.3490  178.6500  140.0480 N   0  0  0  0  0  1  0  0  0  0  0  0
  184.0240  178.3710  140.6220 C   0  0  0  0  0  3  0  0  0  0  0  0
  182.9930  178.2710  141.5490 C   0  0  0  0  0  3  0  0  0  0  0  0
  185.3380  178.6370  141.0240 C   0  0  0  0  0  0  0  0  0  0  0  0
  183.2610  178.4810  142.8990 C   0  0  0  0  0  3  0  0  0  0  0  0
  184.5810  178.7820  143.3290 C   0  0  0  0  0  0  0  0  0  0  0  0
  189.4660  177.8110  137.0900 C   0  0  0  0  0  2  0  0  0  0  0  0
  185.9570  177.5490  135.5450 C   0  0  0  0  0  3  0  0  0  0  0  0
  188.0370  177.2670  136.8140 C   0  0  0  0  0  0  0  0  0  0  0  0
  185.6590  176.2500  135.8010 C   0  0  0  0  0  3  0  0  0  0  0  0
  187.2610  179.4070  135.9710 F   0  0  0  0  0  0  0  0  0  0  0  0
  186.4180  175.4640  136.6490 C   0  0  0  0  0  0  0  0  0  0  0  0
  187.6340  175.9710  137.1230 C   0  0  0  0  0  3  0  0  0  0  0  0
  187.1630  178.0600  136.1040 C   0  0  0  0  0  0  0  0  0  0  0  0
  184.7970  173.6110  137.5540 C   0  0  2  0  0  3  0  0  0  0  0  0
  186.0030  174.1540  136.8790 N   0  0  0  0  0  0  0  0  0  0  0  0
  184.3540  172.6870  136.5740 N   0  0  1  0  0  0  0  0  0  0  0  0
  183.6510  174.5940  137.9220 C   0  0  0  0  0  1  0  0  0  0  0  0
  186.5610  173.1150  135.9820 C   0  0  0  0  0  2  0  0  0  0  0  0
  185.5240  172.0670  135.9730 C   0  0  0  0  0  2  0  0  0  0  0  0
  183.4020  171.7530  137.0900 C   0  0  1  0  0  3  0  0  0  0  0  0
  182.2820  171.7770  135.9910 C   0  0  1  0  0  3  0  0  0  0  0  0
  183.0070  170.6280  136.2690 O   0  0  0  0  0  0  0  0  0  0  0  0
  179.9780  170.7840  136.7260 O   0  0  0  0  0  1  0  0  0  0  0  0
  180.8560  171.9590  136.7090 C   0  0  2  0  0  3  0  0  0  0  0  0
  180.0170  173.2460  136.3810 C   0  0  0  0  0  2  0  0  0  0  0  0
  179.1000  175.2270  137.2260 O   0  0  0  0  0  1  0  0  0  0  0  0
  179.1920  173.8440  137.5000 C   0  0  2  0  0  3  0  0  0  0  0  0
  179.9980  173.6280  138.7690 C   0  0  0  0  0  2  0  0  0  0  0  0
  181.2490  176.1660  139.7030 O   0  0  0  0  0  0  0  0  0  0  0  0
  179.5980  174.5020  139.8640 N   0  0  0  0  0  0  0  0  0  0  0  0
  178.9310  173.8650  140.9830 C   0  0  0  0  0  1  0  0  0  0  0  0
  180.0730  175.8500  139.9840 C   0  0  0  0  0  0  0  0  0  0  0  0
  179.1150  176.9050  140.3310 C   0  0  0  0  0  1  0  0  0  0  0  0
  1  2  2  0  0  0  0
  2 10  1  0  0  0  0
  3  8  1  0  0  0  0
  4  7  1  0  0  0  0
  4  2  1  0  0  0  0
  5  4  2  0  0  0  0
  6  3  2  0  0  0  0
  6  5  1  0  0  0  0
  8  7  2  0  0  0  0
  9  3  1  0  0  0  0
 10 11  2  0  0  0  0
 10 12  1  0  0  0  0
 12 13  2  0  0  0  0
 13 14  2  0  0  0  0
 14 15  1  0  0  0  0
 15 20  1  0  0  0  0
 16 17  1  0  0  0  0
 17 19  1  0  0  0  0
 17 21  1  0  0  0  0
 18 15  2  0  0  0  0
 18 16  1  0  0  0  0
 19 23  2  0  0  0  0
 20 21  2  0  0  0  0
 20 22  1  0  0  0  0
 21 26  1  0  0  0  0
 26 24  1  0  0  0  0
 26 25  1  0  0  0  0
 27 28  2  0  0  0  0
 27 19  1  0  0  0  0
 29 35  1  0  0  0  0
 30 33  1  0  0  0  0
 31 33  1  0  0  0  0
 31 32  2  0  0  0  0
 32 34  1  0  0  0  0
 33 29  2  0  0  0  0
 34 35  2  0  0  0  0
 35 27  1  0  0  0  0
 36  1  1  0  0  0  0
 37 39  2  0  0  0  0
 37 43  1  0  0  0  0
 38 36  1  0  0  0  0
 38 42  1  0  0  0  0
 39 41  1  0  0  0  0
 40 43  1  0  0  0  0
 41 45  1  0  0  0  0
 41 42  2  0  0  0  0
 43 38  2  0  0  0  0
 44 47  1  6  0  0  0
 45 44  1  0  0  0  0
 46 49  1  1  0  0  0
 46 50  1  0  0  0  0
 46 44  1  0  0  0  0
 48 45  1  0  0  0  0
 49 48  1  0  0  0  0
 50 52  1  6  0  0  0
 51 52  1  0  0  0  0
 51 54  1  1  0  0  0
 51 50  1  0  0  0  0
 54 53  1  6  0  0  0
 55 54  1  0  0  0  0
 55 57  1  0  0  0  0
 57 56  1  6  0  0  0
 57 58  1  0  0  0  0
 58 60  1  0  0  0  0
 59 62  2  0  0  0  0
 60 62  1  0  0  0  0
 60 61  1  0  0  0  0
 62 63  1  0  0  0  0
M  END
>  <MODEL>
4

>  <REMARK>
 VINA RESULT:      -7.0      3.209      7.112
  Name = 
  16 active torsions:
  status: ('A' for Active; 'I' for Inactive)
    1  A    between atoms: C_1  and  C_47
    2  A    between atoms: C_3  and  C_39
    3  A    between atoms: C_3  and  C_54
    4  A    between atoms: C_6  and  C_16
    5  A    between atoms: N_7  and  C_59
    6  A    between atoms: C_12  and  N_24
    7  A    between atoms: C_12  and  C_46
    8  A    between atoms: N_15  and  C_25
    9  A    between atoms: C_16  and  C_42
   10  A    between atoms: C_17  and  C_42
   11  A    between atoms: C_19  and  N_26
   12  A    between atoms: C_20  and  C_31
   13  A    between atoms: C_20  and  C_46
   14  A    between atoms: C_25  and  C_32
   15  A    between atoms: C_27  and  C_31
   16  A    between atoms: C_49  and  C_60
                            x       y       z     vdW  Elec       q    Type
                         _______ _______ _______ _____ _____    ______ ____

>  <TORSDO>
F 16

$$$$
=
 OpenBabel10222415593D

 63 68  0  0  1  0  0  0  0  0999 V2000
  190.3270  177.7960  145.1820 N   0  0  0  0  0  0  0  0  0  0  0  0
  190.9790  176.6520  145.2670 C   0  0  0  0  0  0  0  0  0  0  0  0
  192.9270  176.7490  149.1590 C   0  0  0  0  0  0  0  0  0  0  0  0
  191.4520  176.4290  146.7260 C   0  0  0  0  0  0  0  0  0  0  0  0
  191.2140  177.4790  147.6380 C   0  0  0  0  0  3  0  0  0  0  0  0
  191.9340  177.6530  148.8040 C   0  0  0  0  0  3  0  0  0  0  0  0
  192.4100  175.4600  147.1320 C   0  0  0  0  0  3  0  0  0  0  0  0
  193.1210  175.6190  148.3730 C   0  0  0  0  0  3  0  0  0  0  0  0
  193.6930  176.9550  150.3180 O   0  0  0  0  0  1  0  0  0  0  0  0
  191.1010  175.7620  144.0570 C   0  0  0  0  0  0  0  0  0  0  0  0
  192.0510  174.9290  143.9320 O   0  0  0  0  0  0  0  0  0  0  0  0
  190.1620  175.7970  142.9470 C   0  0  0  0  0  3  0  0  0  0  0  0
  190.3650  176.5890  141.8910 C   0  0  0  0  0  0  0  0  0  0  0  0
  190.5270  177.3940  140.8080 C   0  0  0  0  0  3  0  0  0  0  0  0
  189.9560  176.9940  139.4990 C   0  0  0  0  0  0  0  0  0  0  0  0
  187.9640  177.1310  137.9500 C   0  0  0  0  0  2  0  0  0  0  0  0
  188.8360  176.6130  136.8870 N   0  0  0  0  0  0  0  0  0  0  0  0
  188.7110  177.3400  139.2550 C   0  0  0  0  0  3  0  0  0  0  0  0
  188.1340  176.5530  135.6440 C   0  0  0  0  0  0  0  0  0  0  0  0
  190.7680  176.2870  138.4170 C   0  0  0  0  0  0  0  0  0  0  0  0
  190.2400  176.2180  137.1440 C   0  0  0  0  0  0  0  0  0  0  0  0
  192.1390  175.8890  138.7150 C   0  0  0  0  0  1  0  0  0  0  0  0
  188.7750  176.2110  134.5990 O   0  0  0  0  0  0  0  0  0  0  0  0
  192.1600  175.9820  135.4200 C   0  0  0  0  0  1  0  0  0  0  0  0
  191.1850  173.9260  136.3730 C   0  0  0  0  0  1  0  0  0  0  0  0
  190.9260  175.3580  136.0290 C   0  0  0  0  0  3  0  0  0  0  0  0
  186.6830  176.9370  135.4340 C   0  0  0  0  0  0  0  0  0  0  0  0
  186.4270  178.0730  134.9670 O   0  0  0  0  0  0  0  0  0  0  0  0
  185.6800  174.8450  136.5150 C   0  0  0  0  0  3  0  0  0  0  0  0
  184.7060  172.8980  137.6170 N   0  0  0  0  0  1  0  0  0  0  0  0
  183.3400  174.3510  136.2610 C   0  0  0  0  0  3  0  0  0  0  0  0
  183.1490  175.5010  135.5060 C   0  0  0  0  0  3  0  0  0  0  0  0
  184.5940  174.0340  136.7970 C   0  0  0  0  0  0  0  0  0  0  0  0
  184.2320  176.3350  135.2380 C   0  0  0  0  0  3  0  0  0  0  0  0
  185.5210  176.0190  135.7450 C   0  0  0  0  0  0  0  0  0  0  0  0
  189.4350  178.5520  144.2530 C   0  0  0  0  0  2  0  0  0  0  0  0
  186.4030  177.7590  146.4770 C   0  0  0  0  0  3  0  0  0  0  0  0
  187.9570  178.2880  144.6550 C   0  0  0  0  0  0  0  0  0  0  0  0
  185.3910  178.2430  145.7140 C   0  0  0  0  0  3  0  0  0  0  0  0
  188.5990  177.0660  146.6520 F   0  0  0  0  0  0  0  0  0  0  0  0
  185.5660  178.6270  144.3980 C   0  0  0  0  0  0  0  0  0  0  0  0
  186.8670  178.6840  143.8850 C   0  0  0  0  0  3  0  0  0  0  0  0
  187.7050  177.7580  145.9010 C   0  0  0  0  0  0  0  0  0  0  0  0
  184.2160  179.2290  142.2310 C   0  0  2  0  0  3  0  0  0  0  0  0
  184.4520  179.0710  143.6880 N   0  0  0  0  0  0  0  0  0  0  0  0
  182.9790  178.5480  142.1000 N   0  0  1  0  0  0  0  0  0  0  0  0
  185.2610  178.6370  141.2450 C   0  0  0  0  0  1  0  0  0  0  0  0
  183.1450  178.9750  144.3790 C   0  0  0  0  0  2  0  0  0  0  0  0
  182.1750  178.8380  143.2770 C   0  0  0  0  0  2  0  0  0  0  0  0
  182.3220  178.8350  140.8630 C   0  0  1  0  0  3  0  0  0  0  0  0
  182.2060  177.4140  140.2090 C   0  0  1  0  0  3  0  0  0  0  0  0
  181.0840  178.1530  140.5510 O   0  0  0  0  0  0  0  0  0  0  0  0
  184.1700  177.3130  138.4860 O   0  0  0  0  0  1  0  0  0  0  0  0
  182.7290  177.4970  138.6910 C   0  0  2  0  0  3  0  0  0  0  0  0
  182.2100  178.6730  137.7890 C   0  0  0  0  0  2  0  0  0  0  0  0
  180.5150  177.2020  137.1230 O   0  0  0  0  0  1  0  0  0  0  0  0
  180.7900  178.5800  137.2730 C   0  0  2  0  0  3  0  0  0  0  0  0
  180.8010  179.2500  135.9100 C   0  0  0  0  0  2  0  0  0  0  0  0
  179.0390  180.8490  137.7040 O   0  0  0  0  0  0  0  0  0  0  0  0
  180.6220  180.6950  135.9750 N   0  0  0  0  0  0  0  0  0  0  0  0
  180.8180  181.4220  134.7360 C   0  0  0  0  0  1  0  0  0  0  0  0
  180.0140  181.3450  137.1000 C   0  0  0  0  0  0  0  0  0  0  0  0
  180.6360  182.5640  137.6270 C   0  0  0  0  0  1  0  0  0  0  0  0
  1  2  2  0  0  0  0
  2  4  1  0  0  0  0
  3  9  1  0  0  0  0
  4  7  2  0  0  0  0
  4  5  1  0  0  0  0
  5  6  2  0  0  0  0
  6  3  1  0  0  0  0
  7  8  1  0  0  0  0
  8  3  2  0  0  0  0
 10  2  1  0  0  0  0
 11 10  2  0  0  0  0
 12 10  1  0  0  0  0
 13 12  2  0  0  0  0
 14 13  2  0  0  0  0
 15 14  1  0  0  0  0
 16 18  1  0  0  0  0
 17 21  1  0  0  0  0
 17 16  1  0  0  0  0
 18 15  2  0  0  0  0
 19 17  1  0  0  0  0
 20 22  1  0  0  0  0
 20 15  1  0  0  0  0
 21 20  2  0  0  0  0
 23 19  2  0  0  0  0
 24 26  1  0  0  0  0
 26 25  1  0  0  0  0
 26 21  1  0  0  0  0
 27 19  1  0  0  0  0
 27 35  1  0  0  0  0
 28 27  2  0  0  0  0
 29 33  1  0  0  0  0
 31 33  2  0  0  0  0
 32 31  1  0  0  0  0
 33 30  1  0  0  0  0
 34 32  2  0  0  0  0
 34 35  1  0  0  0  0
 35 29  2  0  0  0  0
 36 38  1  0  0  0  0
 36  1  1  0  0  0  0
 38 43  2  0  0  0  0
 39 37  2  0  0  0  0
 41 39  1  0  0  0  0
 42 41  2  0  0  0  0
 42 38  1  0  0  0  0
 43 37  1  0  0  0  0
 43 40  1  0  0  0  0
 44 47  1  6  0  0  0
 44 45  1  0  0  0  0
 45 48  1  0  0  0  0
 45 41  1  0  0  0  0
 46 44  1  0  0  0  0
 46 49  1  1  0  0  0
 49 48  1  0  0  0  0
 50 52  1  1  0  0  0
 50 46  1  0  0  0  0
 51 54  1  6  0  0  0
 51 52  1  0  0  0  0
 51 50  1  0  0  0  0
 54 53  1  1  0  0  0
 55 54  1  0  0  0  0
 57 56  1  6  0  0  0
 57 55  1  0  0  0  0
 58 60  1  0  0  0  0
 58 57  1  0  0  0  0
 60 62  1  0  0  0  0
 61 60  1  0  0  0  0
 62 63  1  0  0  0  0
 62 59  2  0  0  0  0
M  END
>  <MODEL>
5

>  <REMARK>
 VINA RESULT:      -6.5      2.233      7.502
  Name = 
  16 active torsions:
  status: ('A' for Active; 'I' for Inactive)
    1  A    between atoms: C_1  and  C_47
    2  A    between atoms: C_3  and  C_39
    3  A    between atoms: C_3  and  C_54
    4  A    between atoms: C_6  and  C_16
    5  A    between atoms: N_7  and  C_59
    6  A    between atoms: C_12  and  N_24
    7  A    between atoms: C_12  and  C_46
    8  A    between atoms: N_15  and  C_25
    9  A    between atoms: C_16  and  C_42
   10  A    between atoms: C_17  and  C_42
   11  A    between atoms: C_19  and  N_26
   12  A    between atoms: C_20  and  C_31
   13  A    between atoms: C_20  and  C_46
   14  A    between atoms: C_25  and  C_32
   15  A    between atoms: C_27  and  C_31
   16  A    between atoms: C_49  and  C_60
                            x       y       z     vdW  Elec       q    Type
                         _______ _______ _______ _____ _____    ______ ____

>  <TORSDO>
F 16

$$$$
=
 OpenBabel10222415593D

 63 68  0  0  1  0  0  0  0  0999 V2000
  182.9270  178.6220  138.6230 N   0  0  0  0  0  0  0  0  0  0  0  0
  182.3170  179.2760  139.5930 C   0  0  0  0  0  0  0  0  0  0  0  0
  179.9540  182.4550  137.7860 C   0  0  0  0  0  0  0  0  0  0  0  0
  181.2130  180.1850  138.9940 C   0  0  0  0  0  0  0  0  0  0  0  0
  181.3070  180.4740  137.6170 C   0  0  0  0  0  3  0  0  0  0  0  0
  180.7210  181.5780  137.0290 C   0  0  0  0  0  3  0  0  0  0  0  0
  180.3610  181.0350  139.7510 C   0  0  0  0  0  3  0  0  0  0  0  0
  179.7110  182.1540  139.1220 C   0  0  0  0  0  3  0  0  0  0  0  0
  179.4000  183.6040  137.1980 O   0  0  0  0  0  1  0  0  0  0  0  0
  182.6930  179.0180  141.0290 C   0  0  0  0  0  0  0  0  0  0  0  0
  181.8180  178.7880  141.9200 O   0  0  0  0  0  0  0  0  0  0  0  0
  184.0670  179.0250  141.5050 C   0  0  0  0  0  3  0  0  0  0  0  0
  184.3610  178.7620  142.7810 C   0  0  0  0  0  0  0  0  0  0  0  0
  184.7000  178.5170  144.0740 C   0  0  0  0  0  3  0  0  0  0  0  0
  186.0290  177.9440  144.3930 C   0  0  0  0  0  0  0  0  0  0  0  0
  188.0970  176.8090  143.4860 C   0  0  0  0  0  2  0  0  0  0  0  0
  188.7500  177.1170  144.7660 N   0  0  0  0  0  0  0  0  0  0  0  0
  186.6860  177.3630  143.4130 C   0  0  0  0  0  3  0  0  0  0  0  0
  190.1150  176.6950  144.7490 C   0  0  0  0  0  0  0  0  0  0  0  0
  186.6860  178.0760  145.7660 C   0  0  0  0  0  0  0  0  0  0  0  0
  188.0260  177.7700  145.8800 C   0  0  0  0  0  0  0  0  0  0  0  0
  185.9330  178.7010  146.8470 C   0  0  0  0  0  1  0  0  0  0  0  0
  190.8490  176.9720  145.7510 O   0  0  0  0  0  0  0  0  0  0  0  0
  189.2590  179.0290  147.7800 C   0  0  0  0  0  1  0  0  0  0  0  0
  187.9590  177.0160  148.3640 C   0  0  0  0  0  1  0  0  0  0  0  0
  188.7240  177.7070  147.2810 C   0  0  0  0  0  3  0  0  0  0  0  0
  190.8070  175.9990  143.5940 C   0  0  0  0  0  0  0  0  0  0  0  0
  191.3240  174.8750  143.7970 O   0  0  0  0  0  0  0  0  0  0  0  0
  192.1290  176.9790  141.6330 C   0  0  0  0  0  3  0  0  0  0  0  0
  193.3970  177.8330  139.7310 N   0  0  0  0  0  1  0  0  0  0  0  0
  190.9930  177.6750  139.6310 C   0  0  0  0  0  3  0  0  0  0  0  0
  189.7670  177.2890  140.1580 C   0  0  0  0  0  3  0  0  0  0  0  0
  192.1810  177.4930  140.3480 C   0  0  0  0  0  0  0  0  0  0  0  0
  189.7090  176.7490  141.4400 C   0  0  0  0  0  3  0  0  0  0  0  0
  190.8970  176.5810  142.2000 C   0  0  0  0  0  0  0  0  0  0  0  0
  183.8630  177.4770  138.4110 C   0  0  0  0  0  2  0  0  0  0  0  0
  180.8400  175.1140  138.6210 C   0  0  0  0  0  3  0  0  0  0  0  0
  183.0340  176.1660  138.3140 C   0  0  0  0  0  0  0  0  0  0  0  0
  181.2380  174.1130  137.7950 C   0  0  0  0  0  3  0  0  0  0  0  0
  181.3720  176.9660  139.8930 F   0  0  0  0  0  0  0  0  0  0  0  0
  182.5310  174.0090  137.3190 C   0  0  0  0  0  0  0  0  0  0  0  0
  183.4180  175.0670  137.5520 C   0  0  0  0  0  3  0  0  0  0  0  0
  181.7890  176.1370  138.9030 C   0  0  0  0  0  0  0  0  0  0  0  0
  183.8870  172.7420  135.4650 C   0  0  2  0  0  3  0  0  0  0  0  0
  182.8490  172.9190  136.5110 N   0  0  0  0  0  0  0  0  0  0  0  0
  184.4720  171.5230  135.8930 N   0  0  1  0  0  0  0  0  0  0  0  0
  184.9790  173.8380  135.3150 C   0  0  0  0  0  1  0  0  0  0  0  0
  182.4320  171.5850  137.0040 C   0  0  0  0  0  2  0  0  0  0  0  0
  183.4140  170.6660  136.4000 C   0  0  0  0  0  2  0  0  0  0  0  0
  185.2770  170.9150  134.8800 C   0  0  1  0  0  3  0  0  0  0  0  0
  186.6620  170.7620  135.6010 C   0  0  1  0  0  3  0  0  0  0  0  0
  185.9390  169.6610  135.1690 O   0  0  0  0  0  0  0  0  0  0  0  0
  189.1010  170.6280  134.6680 O   0  0  0  0  0  1  0  0  0  0  0  0
  187.8140  171.3320  134.6360 C   0  0  2  0  0  3  0  0  0  0  0  0
  188.0580  172.8830  134.6030 C   0  0  0  0  0  2  0  0  0  0  0  0
  188.6210  173.5900  136.7620 O   0  0  0  0  0  1  0  0  0  0  0  0
  189.1700  173.4330  135.4690 C   0  0  2  0  0  3  0  0  0  0  0  0
  189.5110  174.7950  134.8900 C   0  0  0  0  0  2  0  0  0  0  0  0
  187.1170  176.5510  134.6420 O   0  0  0  0  0  0  0  0  0  0  0  0
  189.0920  175.9040  135.7370 N   0  0  0  0  0  0  0  0  0  0  0  0
  190.1510  176.6400  136.4010 C   0  0  0  0  0  1  0  0  0  0  0  0
  187.7590  176.4340  135.7080 C   0  0  0  0  0  0  0  0  0  0  0  0
  187.0920  176.7290  136.9800 C   0  0  0  0  0  1  0  0  0  0  0  0
  1  2  2  0  0  0  0
  2 10  1  0  0  0  0
  3  8  1  0  0  0  0
  4  2  1  0  0  0  0
  4  7  1  0  0  0  0
  5  4  2  0  0  0  0
  6  5  1  0  0  0  0
  6  3  2  0  0  0  0
  8  7  2  0  0  0  0
  9  3  1  0  0  0  0
 10 12  1  0  0  0  0
 10 11  2  0  0  0  0
 12 13  2  0  0  0  0
 13 14  2  0  0  0  0
 14 15  1  0  0  0  0
 15 20  1  0  0  0  0
 16 17  1  0  0  0  0
 17 21  1  0  0  0  0
 18 16  1  0  0  0  0
 18 15  2  0  0  0  0
 19 17  1  0  0  0  0
 19 23  2  0  0  0  0
 20 21  2  0  0  0  0
 20 22  1  0  0  0  0
 21 26  1  0  0  0  0
 26 24  1  0  0  0  0
 26 25  1  0  0  0  0
 27 28  2  0  0  0  0
 27 19  1  0  0  0  0
 29 35  1  0  0  0  0
 30 33  1  0  0  0  0
 31 32  2  0  0  0  0
 31 33  1  0  0  0  0
 32 34  1  0  0  0  0
 33 29  2  0  0  0  0
 34 35  2  0  0  0  0
 35 27  1  0  0  0  0
 36  1  1  0  0  0  0
 37 43  1  0  0  0  0
 38 36  1  0  0  0  0
 38 43  2  0  0  0  0
 39 37  2  0  0  0  0
 41 42  2  0  0  0  0
 41 39  1  0  0  0  0
 42 38  1  0  0  0  0
 43 40  1  0  0  0  0
 44 47  1  1  0  0  0
 44 46  1  0  0  0  0
 44 45  1  0  0  0  0
 45 48  1  0  0  0  0
 45 41  1  0  0  0  0
 46 49  1  6  0  0  0
 49 48  1  0  0  0  0
 50 52  1  1  0  0  0
 50 51  1  0  0  0  0
 50 46  1  0  0  0  0
 51 54  1  6  0  0  0
 52 51  1  0  0  0  0
 54 53  1  1  0  0  0
 55 54  1  0  0  0  0
 55 57  1  0  0  0  0
 57 56  1  1  0  0  0
 58 57  1  0  0  0  0
 58 60  1  0  0  0  0
 59 62  2  0  0  0  0
 60 61  1  0  0  0  0
 62 60  1  0  0  0  0
 62 63  1  0  0  0  0
M  END
>  <MODEL>
6

>  <REMARK>
 VINA RESULT:      -6.2      2.946      9.476
  Name = 
  16 active torsions:
  status: ('A' for Active; 'I' for Inactive)
    1  A    between atoms: C_1  and  C_47
    2  A    between atoms: C_3  and  C_39
    3  A    between atoms: C_3  and  C_54
    4  A    between atoms: C_6  and  C_16
    5  A    between atoms: N_7  and  C_59
    6  A    between atoms: C_12  and  N_24
    7  A    between atoms: C_12  and  C_46
    8  A    between atoms: N_15  and  C_25
    9  A    between atoms: C_16  and  C_42
   10  A    between atoms: C_17  and  C_42
   11  A    between atoms: C_19  and  N_26
   12  A    between atoms: C_20  and  C_31
   13  A    between atoms: C_20  and  C_46
   14  A    between atoms: C_25  and  C_32
   15  A    between atoms: C_27  and  C_31
   16  A    between atoms: C_49  and  C_60
                            x       y       z     vdW  Elec       q    Type
                         _______ _______ _______ _____ _____    ______ ____

>  <TORSDO>
F 16

$$$$
=
 OpenBabel10222415593D

 63 68  0  0  1  0  0  0  0  0999 V2000
  183.3390  177.5920  138.3620 N   0  0  0  0  0  0  0  0  0  0  0  0
  182.5150  177.5690  139.3930 C   0  0  0  0  0  0  0  0  0  0  0  0
  179.6590  174.5610  138.0740 C   0  0  0  0  0  0  0  0  0  0  0  0
  181.2640  176.7240  139.0430 C   0  0  0  0  0  0  0  0  0  0  0  0
  181.0980  175.5140  139.7480 C   0  0  0  0  0  3  0  0  0  0  0  0
  180.3430  174.4570  139.2790 C   0  0  0  0  0  3  0  0  0  0  0  0
  180.4980  176.8600  137.8530 C   0  0  0  0  0  3  0  0  0  0  0  0
  179.6720  175.7750  137.3960 C   0  0  0  0  0  3  0  0  0  0  0  0
  178.9320  173.4680  137.5730 O   0  0  0  0  0  1  0  0  0  0  0  0
  182.9020  178.2480  140.6810 C   0  0  0  0  0  0  0  0  0  0  0  0
  182.0400  178.7990  141.4330 O   0  0  0  0  0  0  0  0  0  0  0  0
  184.2750  178.3370  141.1520 C   0  0  0  0  0  3  0  0  0  0  0  0
  184.5640  178.3190  142.4570 C   0  0  0  0  0  0  0  0  0  0  0  0
  184.8970  178.3230  143.7740 C   0  0  0  0  0  3  0  0  0  0  0  0
  186.2220  177.8120  144.2020 C   0  0  0  0  0  0  0  0  0  0  0  0
  188.4050  176.7710  143.4690 C   0  0  0  0  0  2  0  0  0  0  0  0
  188.9390  177.1120  144.7950 N   0  0  0  0  0  0  0  0  0  0  0  0
  186.9800  177.2600  143.2810 C   0  0  0  0  0  3  0  0  0  0  0  0
  190.3190  176.7530  144.8890 C   0  0  0  0  0  0  0  0  0  0  0  0
  186.7600  177.9780  145.6210 C   0  0  0  0  0  0  0  0  0  0  0  0
  188.0990  177.7340  145.8440 C   0  0  0  0  0  0  0  0  0  0  0  0
  185.8950  178.5710  146.6350 C   0  0  0  0  0  1  0  0  0  0  0  0
  190.9570  177.0660  145.9450 O   0  0  0  0  0  0  0  0  0  0  0  0
  188.6650  179.0380  148.0100 C   0  0  0  0  0  1  0  0  0  0  0  0
  188.1650  176.6300  148.1930 C   0  0  0  0  0  1  0  0  0  0  0  0
  188.6850  177.7070  147.2960 C   0  0  0  0  0  3  0  0  0  0  0  0
  191.1310  176.0860  143.7980 C   0  0  0  0  0  0  0  0  0  0  0  0
  191.7910  175.0600  144.0860 O   0  0  0  0  0  0  0  0  0  0  0  0
  192.3730  177.0720  141.7870 C   0  0  0  0  0  3  0  0  0  0  0  0
  193.5730  177.9300  139.8440 N   0  0  0  0  0  1  0  0  0  0  0  0
  191.2000  177.5170  139.7360 C   0  0  0  0  0  3  0  0  0  0  0  0
  190.0120  177.0390  140.2770 C   0  0  0  0  0  3  0  0  0  0  0  0
  192.3900  177.5050  140.4730 C   0  0  0  0  0  0  0  0  0  0  0  0
  189.9930  176.5780  141.5910 C   0  0  0  0  0  3  0  0  0  0  0  0
  191.1810  176.5850  142.3690 C   0  0  0  0  0  0  0  0  0  0  0  0
  184.7420  177.9610  138.0110 C   0  0  0  0  0  2  0  0  0  0  0  0
  185.0480  175.6770  134.9360 C   0  0  0  0  0  3  0  0  0  0  0  0
  185.3200  176.8800  137.0570 C   0  0  0  0  0  0  0  0  0  0  0  0
  186.3660  175.3580  134.9830 C   0  0  0  0  0  3  0  0  0  0  0  0
  183.1700  176.5100  135.9910 F   0  0  0  0  0  0  0  0  0  0  0  0
  187.1640  175.6420  136.0750 C   0  0  0  0  0  0  0  0  0  0  0  0
  186.6410  176.4430  137.0970 C   0  0  0  0  0  3  0  0  0  0  0  0
  184.5240  176.4270  136.0270 C   0  0  0  0  0  0  0  0  0  0  0  0
  189.6860  175.8210  135.3760 C   0  0  2  0  0  3  0  0  0  0  0  0
  188.4960  175.2330  136.0410 N   0  0  0  0  0  0  0  0  0  0  0  0
  190.5980  175.8410  136.4620 N   0  0  1  0  0  0  0  0  0  0  0  0
  189.5600  177.2390  134.7540 C   0  0  0  0  0  1  0  0  0  0  0  0
  188.9480  174.3540  137.1460 C   0  0  0  0  0  2  0  0  0  0  0  0
  190.3910  174.6390  137.2520 C   0  0  0  0  0  2  0  0  0  0  0  0
  191.9510  176.0340  136.0390 C   0  0  1  0  0  3  0  0  0  0  0  0
  192.5280  174.5760  136.0940 C   0  0  1  0  0  3  0  0  0  0  0  0
  192.4440  175.2830  134.9050 O   0  0  0  0  0  0  0  0  0  0  0  0
  193.8520  174.8740  138.3290 O   0  0  0  0  0  1  0  0  0  0  0  0
  193.9250  174.6020  136.8890 C   0  0  2  0  0  3  0  0  0  0  0  0
  195.1260  175.3930  136.2580 C   0  0  0  0  0  2  0  0  0  0  0  0
  197.4060  175.7690  135.8840 O   0  0  0  0  0  1  0  0  0  0  0  0
  196.5210  174.8660  136.5170 C   0  0  2  0  0  3  0  0  0  0  0  0
  196.5870  173.5160  135.8240 C   0  0  0  0  0  2  0  0  0  0  0  0
  196.1080  171.2080  137.6470 O   0  0  0  0  0  0  0  0  0  0  0  0
  197.5510  172.6050  136.4260 N   0  0  0  0  0  0  0  0  0  0  0  0
  198.8700  173.1460  136.6880 C   0  0  0  0  0  1  0  0  0  0  0  0
  197.1670  171.3450  136.9960 C   0  0  0  0  0  0  0  0  0  0  0  0
  197.9800  170.1620  136.7000 C   0  0  0  0  0  1  0  0  0  0  0  0
  1  2  2  0  0  0  0
  2 10  1  0  0  0  0
  3  6  1  0  0  0  0
  4  2  1  0  0  0  0
  4  5  1  0  0  0  0
  6  5  2  0  0  0  0
  7  4  2  0  0  0  0
  8  7  1  0  0  0  0
  8  3  2  0  0  0  0
  9  3  1  0  0  0  0
 10 12  1  0  0  0  0
 10 11  2  0  0  0  0
 12 13  2  0  0  0  0
 13 14  2  0  0  0  0
 14 15  1  0  0  0  0
 15 20  1  0  0  0  0
 16 17  1  0  0  0  0
 17 19  1  0  0  0  0
 17 21  1  0  0  0  0
 18 16  1  0  0  0  0
 18 15  2  0  0  0  0
 19 23  2  0  0  0  0
 20 21  2  0  0  0  0
 20 22  1  0  0  0  0
 21 26  1  0  0  0  0
 26 24  1  0  0  0  0
 26 25  1  0  0  0  0
 27 28  2  0  0  0  0
 27 19  1  0  0  0  0
 29 35  1  0  0  0  0
 30 33  1  0  0  0  0
 31 32  2  0  0  0  0
 31 33  1  0  0  0  0
 32 34  1  0  0  0  0
 33 29  2  0  0  0  0
 34 35  2  0  0  0  0
 35 27  1  0  0  0  0
 36  1  1  0  0  0  0
 37 39  2  0  0  0  0
 37 43  1  0  0  0  0
 38 42  1  0  0  0  0
 38 36  1  0  0  0  0
 39 41  1  0  0  0  0
 40 43  1  0  0  0  0
 41 42  2  0  0  0  0
 43 38  2  0  0  0  0
 44 47  1  1  0  0  0
 44 45  1  0  0  0  0
 44 46  1  0  0  0  0
 45 41  1  0  0  0  0
 45 48  1  0  0  0  0
 46 49  1  6  0  0  0
 48 49  1  0  0  0  0
 50 52  1  6  0  0  0
 50 51  1  0  0  0  0
 50 46  1  0  0  0  0
 51 54  1  1  0  0  0
 52 51  1  0  0  0  0
 54 53  1  1  0  0  0
 55 57  1  0  0  0  0
 55 54  1  0  0  0  0
 57 56  1  6  0  0  0
 58 60  1  0  0  0  0
 58 57  1  0  0  0  0
 60 61  1  0  0  0  0
 60 62  1  0  0  0  0
 62 59  2  0  0  0  0
 63 62  1  0  0  0  0
M  END
>  <MODEL>
7

>  <REMARK>
 VINA RESULT:      -6.1      4.459     10.531
  Name = 
  16 active torsions:
  status: ('A' for Active; 'I' for Inactive)
    1  A    between atoms: C_1  and  C_47
    2  A    between atoms: C_3  and  C_39
    3  A    between atoms: C_3  and  C_54
    4  A    between atoms: C_6  and  C_16
    5  A    between atoms: N_7  and  C_59
    6  A    between atoms: C_12  and  N_24
    7  A    between atoms: C_12  and  C_46
    8  A    between atoms: N_15  and  C_25
    9  A    between atoms: C_16  and  C_42
   10  A    between atoms: C_17  and  C_42
   11  A    between atoms: C_19  and  N_26
   12  A    between atoms: C_20  and  C_31
   13  A    between atoms: C_20  and  C_46
   14  A    between atoms: C_25  and  C_32
   15  A    between atoms: C_27  and  C_31
   16  A    between atoms: C_49  and  C_60
                            x       y       z     vdW  Elec       q    Type
                         _______ _______ _______ _____ _____    ______ ____

>  <TORSDO>
F 16

$$$$
=
 OpenBabel10222415593D

 63 68  0  0  1  0  0  0  0  0999 V2000
  188.0060  177.5450  144.2320 N   0  0  0  0  0  0  0  0  0  0  0  0
  187.3540  177.8280  145.3440 C   0  0  0  0  0  0  0  0  0  0  0  0
  190.2130  177.9610  148.6240 C   0  0  0  0  0  0  0  0  0  0  0  0
  188.2640  177.5510  146.5680 C   0  0  0  0  0  0  0  0  0  0  0  0
  188.0050  178.3000  147.7340 C   0  0  0  0  0  3  0  0  0  0  0  0
  188.9460  178.5210  148.7220 C   0  0  0  0  0  3  0  0  0  0  0  0
  189.5320  176.9100  146.5100 C   0  0  0  0  0  3  0  0  0  0  0  0
  190.4890  177.1010  147.5660 C   0  0  0  0  0  3  0  0  0  0  0  0
  191.1840  178.2260  149.6030 O   0  0  0  0  0  1  0  0  0  0  0  0
  185.9620  178.4010  145.2760 C   0  0  0  0  0  0  0  0  0  0  0  0
  185.6040  179.3790  146.0030 O   0  0  0  0  0  0  0  0  0  0  0  0
  184.9290  177.8790  144.3950 C   0  0  0  0  0  3  0  0  0  0  0  0
  184.3900  178.6350  143.4340 C   0  0  0  0  0  0  0  0  0  0  0  0
  183.8040  179.3760  142.4570 C   0  0  0  0  0  3  0  0  0  0  0  0
  183.2580  178.7090  141.2510 C   0  0  0  0  0  0  0  0  0  0  0  0
  183.7910  177.6190  139.0340 C   0  0  0  0  0  2  0  0  0  0  0  0
  182.4170  177.0980  139.0320 N   0  0  0  0  0  0  0  0  0  0  0  0
  184.1090  178.3970  140.2980 C   0  0  0  0  0  3  0  0  0  0  0  0
  182.1950  176.2660  137.8930 C   0  0  0  0  0  0  0  0  0  0  0  0
  181.7920  178.3030  141.1150 C   0  0  0  0  0  0  0  0  0  0  0  0
  181.4450  177.4400  140.0970 C   0  0  0  0  0  0  0  0  0  0  0  0
  180.8590  178.6790  142.1710 C   0  0  0  0  0  1  0  0  0  0  0  0
  181.0810  175.6610  137.7890 O   0  0  0  0  0  0  0  0  0  0  0  0
  179.2720  176.2040  140.7780 C   0  0  0  0  0  1  0  0  0  0  0  0
  179.0710  178.2990  139.4920 C   0  0  0  0  0  1  0  0  0  0  0  0
  179.9440  177.1210  139.7830 C   0  0  0  0  0  3  0  0  0  0  0  0
  183.2120  175.9700  136.8080 C   0  0  0  0  0  0  0  0  0  0  0  0
  183.4640  176.8640  135.9660 O   0  0  0  0  0  0  0  0  0  0  0  0
  185.2930  174.5870  136.2490 C   0  0  0  0  0  3  0  0  0  0  0  0
  187.3000  173.2760  135.8000 N   0  0  0  0  0  1  0  0  0  0  0  0
  185.2530  172.1930  136.4720 C   0  0  0  0  0  3  0  0  0  0  0  0
  183.9370  172.2260  136.9150 C   0  0  0  0  0  3  0  0  0  0  0  0
  185.9480  173.3700  136.1690 C   0  0  0  0  0  0  0  0  0  0  0  0
  183.2790  173.4490  137.0220 C   0  0  0  0  0  3  0  0  0  0  0  0
  183.9520  174.6550  136.6920 C   0  0  0  0  0  0  0  0  0  0  0  0
  187.9150  177.7450  142.7550 C   0  0  0  0  0  2  0  0  0  0  0  0
  191.7310  178.1870  142.6380 C   0  0  0  0  0  3  0  0  0  0  0  0
  189.3530  177.8060  142.1700 C   0  0  0  0  0  0  0  0  0  0  0  0
  192.0320  177.5200  141.4950 C   0  0  0  0  0  3  0  0  0  0  0  0
  190.1550  179.2070  143.9830 F   0  0  0  0  0  0  0  0  0  0  0  0
  191.0660  177.1020  140.5980 C   0  0  0  0  0  0  0  0  0  0  0  0
  189.7200  177.2140  140.9640 C   0  0  0  0  0  3  0  0  0  0  0  0
  190.3510  178.3540  142.9470 C   0  0  0  0  0  0  0  0  0  0  0  0
  190.7260  176.0050  138.2400 C   0  0  2  0  0  3  0  0  0  0  0  0
  191.4830  176.4630  139.4330 N   0  0  0  0  0  0  0  0  0  0  0  0
  191.5150  176.5740  137.2080 N   0  0  1  0  0  0  0  0  0  0  0  0
  189.2440  176.4480  138.0900 C   0  0  0  0  0  1  0  0  0  0  0  0
  192.9100  176.6190  139.0650 C   0  0  0  0  0  2  0  0  0  0  0  0
  192.9120  176.4780  137.5980 C   0  0  0  0  0  2  0  0  0  0  0  0
  191.2290  176.0090  135.9250 C   0  0  1  0  0  3  0  0  0  0  0  0
  191.4730  174.4790  136.1720 C   0  0  1  0  0  3  0  0  0  0  0  0
  190.2250  174.9710  135.8230 O   0  0  0  0  0  0  0  0  0  0  0  0
  192.3230  172.4690  134.7320 O   0  0  0  0  0  1  0  0  0  0  0  0
  192.4130  173.9090  134.9990 C   0  0  2  0  0  3  0  0  0  0  0  0
  193.9150  174.3640  134.9600 C   0  0  0  0  0  2  0  0  0  0  0  0
  194.5820  173.7620  137.1220 O   0  0  0  0  0  1  0  0  0  0  0  0
  194.9100  173.5540  135.7630 C   0  0  2  0  0  3  0  0  0  0  0  0
  196.2700  174.1610  135.4680 C   0  0  0  0  0  2  0  0  0  0  0  0
  198.9920  175.2710  135.9580 O   0  0  0  0  0  0  0  0  0  0  0  0
  197.3290  173.6530  136.3310 N   0  0  0  0  0  0  0  0  0  0  0  0
  197.3630  172.2180  136.5290 C   0  0  0  0  0  1  0  0  0  0  0  0
  198.4440  174.4600  136.7350 C   0  0  0  0  0  0  0  0  0  0  0  0
  198.8710  174.4160  138.1380 C   0  0  0  0  0  1  0  0  0  0  0  0
  1  2  2  0  0  0  0
  2  4  1  0  0  0  0
  3  6  1  0  0  0  0
  3  9  1  0  0  0  0
  4  5  1  0  0  0  0
  5  6  2  0  0  0  0
  7  4  2  0  0  0  0
  7  8  1  0  0  0  0
  8  3  2  0  0  0  0
 10  2  1  0  0  0  0
 10 11  2  0  0  0  0
 12 10  1  0  0  0  0
 13 12  2  0  0  0  0
 14 13  2  0  0  0  0
 15 14  1  0  0  0  0
 16 18  1  0  0  0  0
 17 16  1  0  0  0  0
 17 21  1  0  0  0  0
 18 15  2  0  0  0  0
 19 17  1  0  0  0  0
 20 15  1  0  0  0  0
 20 22  1  0  0  0  0
 21 20  2  0  0  0  0
 23 19  2  0  0  0  0
 25 26  1  0  0  0  0
 26 21  1  0  0  0  0
 26 24  1  0  0  0  0
 27 19  1  0  0  0  0
 28 27  2  0  0  0  0
 29 35  1  0  0  0  0
 30 33  1  0  0  0  0
 31 32  2  0  0  0  0
 32 34  1  0  0  0  0
 33 29  2  0  0  0  0
 33 31  1  0  0  0  0
 35 27  1  0  0  0  0
 35 34  2  0  0  0  0
 36  1  1  0  0  0  0
 37 43  1  0  0  0  0
 38 36  1  0  0  0  0
 38 43  2  0  0  0  0
 39 37  2  0  0  0  0
 41 42  2  0  0  0  0
 41 39  1  0  0  0  0
 42 38  1  0  0  0  0
 43 40  1  0  0  0  0
 44 47  1  1  0  0  0
 44 45  1  0  0  0  0
 45 41  1  0  0  0  0
 46 49  1  1  0  0  0
 46 44  1  0  0  0  0
 48 45  1  0  0  0  0
 49 48  1  0  0  0  0
 50 52  1  1  0  0  0
 50 51  1  0  0  0  0
 50 46  1  0  0  0  0
 51 54  1  6  0  0  0
 52 51  1  0  0  0  0
 54 53  1  1  0  0  0
 55 54  1  0  0  0  0
 55 57  1  0  0  0  0
 57 56  1  1  0  0  0
 58 57  1  0  0  0  0
 58 60  1  0  0  0  0
 59 62  2  0  0  0  0
 60 61  1  0  0  0  0
 60 62  1  0  0  0  0
 62 63  1  0  0  0  0
M  END
>  <MODEL>
8

>  <REMARK>
 VINA RESULT:      -6.0      4.118      7.620
  Name = 
  16 active torsions:
  status: ('A' for Active; 'I' for Inactive)
    1  A    between atoms: C_1  and  C_47
    2  A    between atoms: C_3  and  C_39
    3  A    between atoms: C_3  and  C_54
    4  A    between atoms: C_6  and  C_16
    5  A    between atoms: N_7  and  C_59
    6  A    between atoms: C_12  and  N_24
    7  A    between atoms: C_12  and  C_46
    8  A    between atoms: N_15  and  C_25
    9  A    between atoms: C_16  and  C_42
   10  A    between atoms: C_17  and  C_42
   11  A    between atoms: C_19  and  N_26
   12  A    between atoms: C_20  and  C_31
   13  A    between atoms: C_20  and  C_46
   14  A    between atoms: C_25  and  C_32
   15  A    between atoms: C_27  and  C_31
   16  A    between atoms: C_49  and  C_60
                            x       y       z     vdW  Elec       q    Type
                         _______ _______ _______ _____ _____    ______ ____

>  <TORSDO>
F 16

$$$$
=
 OpenBabel10222415593D

 63 68  0  0  1  0  0  0  0  0999 V2000
  187.5550  177.5530  144.2860 N   0  0  0  0  0  0  0  0  0  0  0  0
  187.1620  177.8210  145.5160 C   0  0  0  0  0  0  0  0  0  0  0  0
  190.5900  177.5170  148.1810 C   0  0  0  0  0  0  0  0  0  0  0  0
  188.2610  177.3930  146.5210 C   0  0  0  0  0  0  0  0  0  0  0  0
  188.2880  178.0690  147.7580 C   0  0  0  0  0  3  0  0  0  0  0  0
  189.4130  178.1520  148.5560 C   0  0  0  0  0  3  0  0  0  0  0  0
  189.4400  176.6750  146.1790 C   0  0  0  0  0  3  0  0  0  0  0  0
  190.5920  176.7230  147.0400 C   0  0  0  0  0  3  0  0  0  0  0  0
  191.7470  177.6440  148.9670 O   0  0  0  0  0  1  0  0  0  0  0  0
  185.8430  178.5130  145.7510 C   0  0  0  0  0  0  0  0  0  0  0  0
  185.2280  178.4210  146.8580 O   0  0  0  0  0  0  0  0  0  0  0  0
  185.1760  179.3170  144.7400 C   0  0  0  0  0  3  0  0  0  0  0  0
  184.9260  178.8310  143.5210 C   0  0  0  0  0  0  0  0  0  0  0  0
  184.6690  178.3790  142.2650 C   0  0  0  0  0  3  0  0  0  0  0  0
  183.5190  178.9250  141.5050 C   0  0  0  0  0  0  0  0  0  0  0  0
  182.7210  179.8800  139.3060 C   0  0  0  0  0  2  0  0  0  0  0  0
  181.3480  179.6700  139.7860 N   0  0  0  0  0  0  0  0  0  0  0  0
  183.7580  179.3800  140.2950 C   0  0  0  0  0  3  0  0  0  0  0  0
  180.4010  180.0310  138.7780 C   0  0  0  0  0  0  0  0  0  0  0  0
  182.0850  178.8990  142.0310 C   0  0  0  0  0  0  0  0  0  0  0  0
  181.0600  179.1580  141.1450 C   0  0  0  0  0  0  0  0  0  0  0  0
  181.8430  178.4120  143.3850 C   0  0  0  0  0  1  0  0  0  0  0  0
  179.1670  179.8220  139.0010 O   0  0  0  0  0  0  0  0  0  0  0  0
  178.9490  178.0620  142.1710 C   0  0  0  0  0  1  0  0  0  0  0  0
  179.3350  180.4630  142.5820 C   0  0  0  0  0  1  0  0  0  0  0  0
  179.5850  179.3260  141.6430 C   0  0  0  0  0  3  0  0  0  0  0  0
  180.7420  180.5830  137.4090 C   0  0  0  0  0  0  0  0  0  0  0  0
  180.9680  179.7750  136.4770 O   0  0  0  0  0  0  0  0  0  0  0  0
  180.1950  182.6190  135.9550 C   0  0  0  0  0  3  0  0  0  0  0  0
  179.6010  184.5720  134.6190 N   0  0  0  0  0  1  0  0  0  0  0  0
  181.0060  184.7980  136.5650 C   0  0  0  0  0  3  0  0  0  0  0  0
  181.6210  184.2840  137.7000 C   0  0  0  0  0  3  0  0  0  0  0  0
  180.2630  183.9790  135.7070 C   0  0  0  0  0  0  0  0  0  0  0  0
  181.5350  182.9210  137.9700 C   0  0  0  0  0  3  0  0  0  0  0  0
  180.8130  182.0630  137.0980 C   0  0  0  0  0  0  0  0  0  0  0  0
  187.1990  177.8510  142.8660 C   0  0  0  0  0  2  0  0  0  0  0  0
  190.8610  177.1440  141.9410 C   0  0  0  0  0  3  0  0  0  0  0  0
  188.4710  177.6930  141.9880 C   0  0  0  0  0  0  0  0  0  0  0  0
  190.7470  176.8940  140.6120 C   0  0  0  0  0  3  0  0  0  0  0  0
  189.9560  178.0090  143.8820 F   0  0  0  0  0  0  0  0  0  0  0  0
  189.5890  177.1490  139.9020 C   0  0  0  0  0  0  0  0  0  0  0  0
  188.4370  177.5130  140.6080 C   0  0  0  0  0  3  0  0  0  0  0  0
  189.6900  177.5870  142.6200 C   0  0  0  0  0  0  0  0  0  0  0  0
  190.7010  176.7920  137.5530 C   0  0  2  0  0  3  0  0  0  0  0  0
  189.5890  176.8980  138.5310 N   0  0  0  0  0  0  0  0  0  0  0  0
  190.3690  175.5640  136.9250 N   0  0  1  0  0  0  0  0  0  0  0  0
  192.1570  176.7430  138.0920 C   0  0  0  0  0  1  0  0  0  0  0  0
  188.4010  176.2000  137.9860 C   0  0  0  0  0  2  0  0  0  0  0  0
  188.9220  175.4940  136.8010 C   0  0  0  0  0  2  0  0  0  0  0  0
  191.0680  175.3710  135.6930 C   0  0  1  0  0  3  0  0  0  0  0  0
  191.0430  173.8100  135.5370 C   0  0  1  0  0  3  0  0  0  0  0  0
  190.4170  174.6440  134.6240 O   0  0  0  0  0  0  0  0  0  0  0  0
  193.0230  172.1600  135.9760 O   0  0  0  0  0  1  0  0  0  0  0  0
  192.5290  173.3000  135.1950 C   0  0  2  0  0  3  0  0  0  0  0  0
  193.6660  174.3710  135.0400 C   0  0  0  0  0  2  0  0  0  0  0  0
  194.6810  175.9310  136.4610 O   0  0  0  0  0  1  0  0  0  0  0  0
  194.6250  174.5430  136.1980 C   0  0  2  0  0  3  0  0  0  0  0  0
  195.9750  174.0650  135.6910 C   0  0  0  0  0  2  0  0  0  0  0  0
  195.2260  173.2450  138.4560 O   0  0  0  0  0  0  0  0  0  0  0  0
  196.6000  173.0740  136.5570 N   0  0  0  0  0  0  0  0  0  0  0  0
  198.0230  172.8660  136.3730 C   0  0  0  0  0  1  0  0  0  0  0  0
  195.9400  172.5370  137.7130 C   0  0  0  0  0  0  0  0  0  0  0  0
  196.0100  171.0930  137.9540 C   0  0  0  0  0  1  0  0  0  0  0  0
  1  2  2  0  0  0  0
  2 10  1  0  0  0  0
  2  4  1  0  0  0  0
  3  6  1  0  0  0  0
  3  9  1  0  0  0  0
  4  5  1  0  0  0  0
  5  6  2  0  0  0  0
  7  4  2  0  0  0  0
  7  8  1  0  0  0  0
  8  3  2  0  0  0  0
 10 11  2  0  0  0  0
 12 10  1  0  0  0  0
 13 12  2  0  0  0  0
 14 13  2  0  0  0  0
 15 20  1  0  0  0  0
 15 14  1  0  0  0  0
 16 17  1  0  0  0  0
 16 18  1  0  0  0  0
 17 21  1  0  0  0  0
 18 15  2  0  0  0  0
 19 23  2  0  0  0  0
 19 17  1  0  0  0  0
 20 22  1  0  0  0  0
 21 26  1  0  0  0  0
 21 20  2  0  0  0  0
 26 24  1  0  0  0  0
 26 25  1  0  0  0  0
 27 19  1  0  0  0  0
 28 27  2  0  0  0  0
 29 35  1  0  0  0  0
 30 33  1  0  0  0  0
 31 32  2  0  0  0  0
 32 34  1  0  0  0  0
 33 29  2  0  0  0  0
 33 31  1  0  0  0  0
 35 27  1  0  0  0  0
 35 34  2  0  0  0  0
 36  1  1  0  0  0  0
 37 43  1  0  0  0  0
 38 43  2  0  0  0  0
 38 36  1  0  0  0  0
 39 37  2  0  0  0  0
 41 42  2  0  0  0  0
 41 39  1  0  0  0  0
 42 38  1  0  0  0  0
 43 40  1  0  0  0  0
 44 47  1  1  0  0  0
 44 45  1  0  0  0  0
 45 41  1  0  0  0  0
 46 49  1  6  0  0  0
 46 44  1  0  0  0  0
 48 45  1  0  0  0  0
 49 48  1  0  0  0  0
 50 52  1  6  0  0  0
 50 46  1  0  0  0  0
 51 54  1  6  0  0  0
 51 50  1  0  0  0  0
 52 51  1  0  0  0  0
 54 53  1  1  0  0  0
 55 54  1  0  0  0  0
 55 57  1  0  0  0  0
 57 56  1  6  0  0  0
 58 57  1  0  0  0  0
 58 60  1  0  0  0  0
 60 62  1  0  0  0  0
 61 60  1  0  0  0  0
 62 63  1  0  0  0  0
 62 59  2  0  0  0  0
M  END
>  <MODEL>
9

>  <REMARK>
 VINA RESULT:      -5.6      3.761      6.328
  Name = 
  16 active torsions:
  status: ('A' for Active; 'I' for Inactive)
    1  A    between atoms: C_1  and  C_47
    2  A    between atoms: C_3  and  C_39
    3  A    between atoms: C_3  and  C_54
    4  A    between atoms: C_6  and  C_16
    5  A    between atoms: N_7  and  C_59
    6  A    between atoms: C_12  and  N_24
    7  A    between atoms: C_12  and  C_46
    8  A    between atoms: N_15  and  C_25
    9  A    between atoms: C_16  and  C_42
   10  A    between atoms: C_17  and  C_42
   11  A    between atoms: C_19  and  N_26
   12  A    between atoms: C_20  and  C_31
   13  A    between atoms: C_20  and  C_46
   14  A    between atoms: C_25  and  C_32
   15  A    between atoms: C_27  and  C_31
   16  A    between atoms: C_49  and  C_60
                            x       y       z     vdW  Elec       q    Type
                         _______ _______ _______ _____ _____    ______ ____

>  <TORSDO>
F 16

$$$$
