=
 OpenBabel10222418523D

 33 34  0  0  1  0  0  0  0  0999 V2000
  190.7510  178.9530  144.0590 O   0  0  0  0  0  0  0  0  0  0  0  0
  190.8780  177.0460  142.7090 N   0  0  0  0  0  2  0  0  0  0  0  0
  190.6210  177.7060  143.9540 C   0  0  0  0  0  0  0  0  0  0  0  0
  191.3970  177.6920  141.5080 C   0  0  1  0  0  3  0  0  0  0  0  0
  188.8870  177.2780  138.9100 O   0  0  0  0  0  0  0  0  0  0  0  0
  192.2620  176.3590  138.6250 C   0  0  1  0  0  3  0  0  0  0  0  0
  189.9840  177.0710  139.4900 C   0  0  0  0  0  0  0  0  0  0  0  0
  192.6700  177.0140  140.9950 C   0  0  0  0  0  2  0  0  0  0  0  0
  190.3550  177.9170  140.5460 O   0  0  0  0  0  0  0  0  0  0  0  0
  192.9480  177.3660  139.5440 C   0  0  0  0  0  2  0  0  0  0  0  0
  190.8400  175.9360  139.0150 C   0  0  0  0  0  2  0  0  0  0  0  0
  192.4970  176.6050  137.1290 C   0  0  0  0  0  2  0  0  0  0  0  0
  193.7070  175.9220  136.4840 C   0  0  1  0  0  3  0  0  0  0  0  0
  194.6710  176.8450  136.0710 O   0  0  0  0  0  1  0  0  0  0  0  0
  194.3050  174.7830  137.3130 C   0  0  2  0  0  3  0  0  0  0  0  0
  195.5500  175.1310  137.8460 O   0  0  0  0  0  1  0  0  0  0  0  0
  194.4000  173.4920  136.5010 C   0  0  2  0  0  3  0  0  0  0  0  0
  195.5120  173.5440  135.6610 O   0  0  0  0  0  1  0  0  0  0  0  0
  193.1500  173.2400  135.6720 C   0  0  0  0  0  1  0  0  0  0  0  0
  190.2120  176.9130  145.1570 C   0  0  2  0  0  3  0  0  0  0  0  0
  186.4820  178.2200  146.8840 C   0  0  0  0  0  0  0  0  0  0  0  0
  187.7070  177.3770  144.9470 C   0  0  0  0  0  0  0  0  0  0  0  0
  185.3390  177.8230  144.8480 F   0  0  0  0  0  0  0  0  0  0  0  0
  188.8510  177.8120  147.0580 C   0  0  0  0  0  3  0  0  0  0  0  0
  187.6550  178.2290  147.6340 C   0  0  0  0  0  3  0  0  0  0  0  0
  188.8980  177.3850  145.7210 C   0  0  0  0  0  0  0  0  0  0  0  0
  185.3220  178.6320  147.4530 F   0  0  0  0  0  0  0  0  0  0  0  0
  186.5000  177.7970  145.5520 C   0  0  0  0  0  0  0  0  0  0  0  0
  187.8450  175.7210  143.2330 O   0  0  0  0  0  1  0  0  0  0  0  0
  187.7010  176.9370  143.5250 C   0  0  0  0  0  0  0  0  0  0  0  0
  187.5220  177.8520  142.4940 O   0  0  0  0  0  0  0  0  0  0  0  0
  192.0970  175.9660  146.2210 O   0  0  0  0  0  0  0  0  0  0  0  0
  191.2840  176.8750  146.2040 C   0  0  0  0  0  3  0  0  0  0  0  0
  2  3  1  0  0  0  0
  3  1  2  0  0  0  0
  3 20  1  0  0  0  0
  4  2  1  1  0  0  0
  5  7  2  0  0  0  0
  6 12  1  6  0  0  0
  6 11  1  0  0  0  0
  6 10  1  0  0  0  0
  7  9  1  0  0  0  0
  8  4  1  0  0  0  0
  9  4  1  0  0  0  0
 10  8  1  0  0  0  0
 11  7  1  0  0  0  0
 13 14  1  1  0  0  0
 13 12  1  0  0  0  0
 13 15  1  0  0  0  0
 15 16  1  6  0  0  0
 17 19  1  6  0  0  0
 17 15  1  0  0  0  0
 18 17  1  0  0  0  0
 20 26  1  0  0  0  0
 20 33  1  1  0  0  0
 21 27  1  0  0  0  0
 21 25  1  0  0  0  0
 22 28  1  0  0  0  0
 22 26  2  0  0  0  0
 23 28  1  0  0  0  0
 24 25  2  0  0  0  0
 26 24  1  0  0  0  0
 28 21  2  0  0  0  0
 29 30  1  0  0  0  0
 30 22  1  0  0  0  0
 31 30  2  0  0  0  0
 33 32  2  0  0  0  0
M  END
>  <MODEL>
1

>  <REMARK>
 VINA RESULT:      -7.9      0.000      0.000
  Name = 
  9 active torsions:
  status: ('A' for Active; 'I' for Inactive)
    1  A    between atoms: C_1  and  N_12
    2  A    between atoms: C_2  and  C_5
    3  A    between atoms: C_2  and  C_8
    4  A    between atoms: C_5  and  C_27
    5  A    between atoms: C_6  and  C_27
    6  A    between atoms: C_9  and  C_24
    7  A    between atoms: C_11  and  C_15
    8  A    between atoms: C_15  and  C_17
    9  A    between atoms: C_15  and  C_26
                            x       y       z     vdW  Elec       q    Type
                         _______ _______ _______ _____ _____    ______ ____

>  <TORSDO>
F 9

$$$$
=
 OpenBabel10222418523D

 33 34  0  0  1  0  0  0  0  0999 V2000
  184.4890  180.2070  139.3600 O   0  0  0  0  0  0  0  0  0  0  0  0
  185.1390  178.2360  140.4430 N   0  0  0  0  0  2  0  0  0  0  0  0
  184.5410  178.9490  139.3530 C   0  0  0  0  0  0  0  0  0  0  0  0
  185.6360  178.8440  141.6720 C   0  0  1  0  0  3  0  0  0  0  0  0
  189.1970  178.1300  141.8480 O   0  0  0  0  0  0  0  0  0  0  0  0
  186.8640  177.4060  144.3680 C   0  0  1  0  0  3  0  0  0  0  0  0
  187.9870  178.0240  142.1760 C   0  0  0  0  0  0  0  0  0  0  0  0
  185.0050  178.2190  142.9190 C   0  0  0  0  0  2  0  0  0  0  0  0
  187.0680  178.9490  141.6600 O   0  0  0  0  0  0  0  0  0  0  0  0
  185.8230  178.5040  144.1660 C   0  0  0  0  0  2  0  0  0  0  0  0
  187.5950  176.9200  143.1100 C   0  0  0  0  0  2  0  0  0  0  0  0
  187.7350  177.5820  145.6180 C   0  0  0  0  0  2  0  0  0  0  0  0
  189.2500  177.4270  145.4490 C   0  0  1  0  0  3  0  0  0  0  0  0
  189.8510  178.6110  145.0150 O   0  0  0  0  0  1  0  0  0  0  0  0
  189.9610  176.8200  146.6620 C   0  0  2  0  0  3  0  0  0  0  0  0
  189.7120  177.5550  147.8260 O   0  0  0  0  0  1  0  0  0  0  0  0
  191.4610  176.6790  146.4140 C   0  0  2  0  0  3  0  0  0  0  0  0
  191.6820  176.1500  145.1420 O   0  0  0  0  0  1  0  0  0  0  0  0
  192.1370  175.7980  147.4540 C   0  0  0  0  0  1  0  0  0  0  0  0
  183.9490  178.2020  138.1980 C   0  0  2  0  0  3  0  0  0  0  0  0
  180.2650  176.2110  139.2260 C   0  0  0  0  0  0  0  0  0  0  0  0
  181.3950  178.1210  138.2070 C   0  0  0  0  0  0  0  0  0  0  0  0
  178.9900  177.9490  138.2450 F   0  0  0  0  0  0  0  0  0  0  0  0
  182.6730  176.3180  139.2410 C   0  0  0  0  0  3  0  0  0  0  0  0
  181.4940  175.6580  139.5740 C   0  0  0  0  0  3  0  0  0  0  0  0
  182.6440  177.5470  138.5620 C   0  0  0  0  0  0  0  0  0  0  0  0
  179.1210  175.5620  139.5580 F   0  0  0  0  0  0  0  0  0  0  0  0
  180.2080  177.4320  138.5470 C   0  0  0  0  0  0  0  0  0  0  0  0
  181.4030  180.5070  138.1240 O   0  0  0  0  0  1  0  0  0  0  0  0
  181.3080  179.4230  137.4900 C   0  0  0  0  0  0  0  0  0  0  0  0
  181.1360  179.4710  136.1120 O   0  0  0  0  0  0  0  0  0  0  0  0
  184.9160  177.0150  136.3970 O   0  0  0  0  0  0  0  0  0  0  0  0
  184.9150  177.2250  137.5990 C   0  0  0  0  0  3  0  0  0  0  0  0
  3  1  2  0  0  0  0
  3  2  1  0  0  0  0
  4  2  1  6  0  0  0
  4  8  1  0  0  0  0
  5  7  2  0  0  0  0
  6 12  1  1  0  0  0
  7 11  1  0  0  0  0
  8 10  1  0  0  0  0
  9  4  1  0  0  0  0
  9  7  1  0  0  0  0
 10  6  1  0  0  0  0
 11  6  1  0  0  0  0
 13 14  1  1  0  0  0
 13 12  1  0  0  0  0
 13 15  1  0  0  0  0
 15 16  1  1  0  0  0
 17 15  1  0  0  0  0
 17 19  1  1  0  0  0
 18 17  1  0  0  0  0
 20 33  1  1  0  0  0
 20 26  1  0  0  0  0
 20  3  1  0  0  0  0
 21 27  1  0  0  0  0
 21 25  1  0  0  0  0
 22 28  1  0  0  0  0
 22 26  2  0  0  0  0
 23 28  1  0  0  0  0
 24 25  2  0  0  0  0
 26 24  1  0  0  0  0
 28 21  2  0  0  0  0
 30 29  1  0  0  0  0
 30 22  1  0  0  0  0
 31 30  2  0  0  0  0
 32 33  2  0  0  0  0
M  END
>  <MODEL>
2

>  <REMARK>
 VINA RESULT:      -7.7      5.522      9.166
  Name = 
  9 active torsions:
  status: ('A' for Active; 'I' for Inactive)
    1  A    between atoms: C_1  and  N_12
    2  A    between atoms: C_2  and  C_5
    3  A    between atoms: C_2  and  C_8
    4  A    between atoms: C_5  and  C_27
    5  A    between atoms: C_6  and  C_27
    6  A    between atoms: C_9  and  C_24
    7  A    between atoms: C_11  and  C_15
    8  A    between atoms: C_15  and  C_17
    9  A    between atoms: C_15  and  C_26
                            x       y       z     vdW  Elec       q    Type
                         _______ _______ _______ _____ _____    ______ ____

>  <TORSDO>
F 9

$$$$
=
 OpenBabel10222418523D

 33 34  0  0  1  0  0  0  0  0999 V2000
  184.4750  180.0700  139.5100 O   0  0  0  0  0  0  0  0  0  0  0  0
  184.2950  178.3350  141.0700 N   0  0  0  0  0  2  0  0  0  0  0  0
  184.0200  178.9320  139.7970 C   0  0  0  0  0  0  0  0  0  0  0  0
  185.0070  178.9830  142.1660 C   0  0  1  0  0  3  0  0  0  0  0  0
  188.5360  178.2130  141.7460 O   0  0  0  0  0  0  0  0  0  0  0  0
  186.6750  177.6350  144.6650 C   0  0  1  0  0  3  0  0  0  0  0  0
  187.4010  178.1430  142.2850 C   0  0  0  0  0  0  0  0  0  0  0  0
  184.5980  178.4200  143.5300 C   0  0  0  0  0  2  0  0  0  0  0  0
  186.4150  179.0620  141.8990 O   0  0  0  0  0  0  0  0  0  0  0  0
  185.6260  178.7420  144.6010 C   0  0  0  0  0  2  0  0  0  0  0  0
  187.1680  177.0840  143.3200 C   0  0  0  0  0  2  0  0  0  0  0  0
  187.7530  177.8460  145.7340 C   0  0  0  0  0  2  0  0  0  0  0  0
  189.1950  177.4800  145.3640 C   0  0  1  0  0  3  0  0  0  0  0  0
  189.9070  178.5820  144.8850 O   0  0  0  0  0  1  0  0  0  0  0  0
  189.9530  176.7220  146.4560 C   0  0  2  0  0  3  0  0  0  0  0  0
  189.7170  177.2690  147.7220 O   0  0  0  0  0  1  0  0  0  0  0  0
  191.4500  176.6630  146.1560 C   0  0  2  0  0  3  0  0  0  0  0  0
  191.6580  176.0800  144.9070 O   0  0  0  0  0  1  0  0  0  0  0  0
  192.2190  175.8860  147.2130 C   0  0  0  0  0  1  0  0  0  0  0  0
  183.1670  178.2150  138.7960 C   0  0  2  0  0  3  0  0  0  0  0  0
  185.3410  175.0480  136.8360 C   0  0  0  0  0  0  0  0  0  0  0  0
  183.3170  175.7990  137.9770 C   0  0  0  0  0  0  0  0  0  0  0  0
  183.5400  173.5440  137.1530 F   0  0  0  0  0  0  0  0  0  0  0  0
  185.2000  177.3150  137.6450 C   0  0  0  0  0  3  0  0  0  0  0  0
  185.9130  176.3070  137.0020 C   0  0  0  0  0  3  0  0  0  0  0  0
  183.9070  177.0800  138.1390 C   0  0  0  0  0  0  0  0  0  0  0  0
  186.0450  174.0720  136.2110 F   0  0  0  0  0  0  0  0  0  0  0  0
  184.0540  174.7900  137.3150 C   0  0  0  0  0  0  0  0  0  0  0  0
  181.0020  175.2950  137.6820 O   0  0  0  0  0  0  0  0  0  0  0  0
  181.9510  175.4960  138.4850 C   0  0  0  0  0  0  0  0  0  0  0  0
  181.6970  175.4130  139.8490 O   0  0  0  0  0  1  0  0  0  0  0  0
  181.4280  178.9810  137.3910 O   0  0  0  0  0  0  0  0  0  0  0  0
  182.5700  179.1490  137.7870 C   0  0  0  0  0  3  0  0  0  0  0  0
  1  3  2  0  0  0  0
  3  2  1  0  0  0  0
  4  2  1  6  0  0  0
  4  8  1  0  0  0  0
  5  7  2  0  0  0  0
  6 12  1  6  0  0  0
  7 11  1  0  0  0  0
  8 10  1  0  0  0  0
  9  4  1  0  0  0  0
  9  7  1  0  0  0  0
 10  6  1  0  0  0  0
 11  6  1  0  0  0  0
 13 14  1  1  0  0  0
 13 12  1  0  0  0  0
 13 15  1  0  0  0  0
 15 16  1  1  0  0  0
 17 15  1  0  0  0  0
 17 19  1  1  0  0  0
 18 17  1  0  0  0  0
 20 33  1  6  0  0  0
 20  3  1  0  0  0  0
 21 25  2  0  0  0  0
 21 28  1  0  0  0  0
 22 26  1  0  0  0  0
 22 30  1  0  0  0  0
 23 28  1  0  0  0  0
 24 26  2  0  0  0  0
 25 24  1  0  0  0  0
 26 20  1  0  0  0  0
 27 21  1  0  0  0  0
 28 22  2  0  0  0  0
 29 30  2  0  0  0  0
 30 31  1  0  0  0  0
 32 33  2  0  0  0  0
M  END
>  <MODEL>
3

>  <REMARK>
 VINA RESULT:      -7.7      5.619      9.291
  Name = 
  9 active torsions:
  status: ('A' for Active; 'I' for Inactive)
    1  A    between atoms: C_1  and  N_12
    2  A    between atoms: C_2  and  C_5
    3  A    between atoms: C_2  and  C_8
    4  A    between atoms: C_5  and  C_27
    5  A    between atoms: C_6  and  C_27
    6  A    between atoms: C_9  and  C_24
    7  A    between atoms: C_11  and  C_15
    8  A    between atoms: C_15  and  C_17
    9  A    between atoms: C_15  and  C_26
                            x       y       z     vdW  Elec       q    Type
                         _______ _______ _______ _____ _____    ______ ____

>  <TORSDO>
F 9

$$$$
=
 OpenBabel10222418523D

 33 34  0  0  1  0  0  0  0  0999 V2000
  181.7740  179.8740  143.2900 O   0  0  0  0  0  0  0  0  0  0  0  0
  183.5490  178.6120  142.4330 N   0  0  0  0  0  2  0  0  0  0  0  0
  182.1640  178.9700  142.5060 C   0  0  0  0  0  0  0  0  0  0  0  0
  184.6010  179.1500  143.2880 C   0  0  1  0  0  3  0  0  0  0  0  0
  187.7640  178.5180  141.6100 O   0  0  0  0  0  0  0  0  0  0  0  0
  186.9980  177.5690  144.9010 C   0  0  1  0  0  3  0  0  0  0  0  0
  186.8800  178.3600  142.4910 C   0  0  0  0  0  0  0  0  0  0  0  0
  184.6720  178.4280  144.6370 C   0  0  0  0  0  2  0  0  0  0  0  0
  185.8350  179.2930  142.5700 O   0  0  0  0  0  0  0  0  0  0  0  0
  186.0070  178.6510  145.3240 C   0  0  0  0  0  2  0  0  0  0  0  0
  186.9960  177.1860  143.4150 C   0  0  0  0  0  2  0  0  0  0  0  0
  188.3790  177.6840  145.5570 C   0  0  0  0  0  2  0  0  0  0  0  0
  189.5960  177.7670  144.6300 C   0  0  1  0  0  3  0  0  0  0  0  0
  190.0740  179.0740  144.5100 O   0  0  0  0  0  1  0  0  0  0  0  0
  190.7060  176.7640  144.9550 C   0  0  2  0  0  3  0  0  0  0  0  0
  191.7340  177.3560  145.6960 O   0  0  0  0  0  1  0  0  0  0  0  0
  191.2520  176.1080  143.6880 C   0  0  2  0  0  3  0  0  0  0  0  0
  192.0910  177.0000  143.0190 O   0  0  0  0  0  1  0  0  0  0  0  0
  190.1450  175.6530  142.7510 C   0  0  0  0  0  1  0  0  0  0  0  0
  181.1550  178.2540  141.6610 C   0  0  2  0  0  3  0  0  0  0  0  0
  181.1940  179.6390  137.5770 C   0  0  0  0  0  0  0  0  0  0  0  0
  181.4720  177.8050  139.1650 C   0  0  0  0  0  0  0  0  0  0  0  0
  181.7320  177.4710  136.7910 F   0  0  0  0  0  0  0  0  0  0  0  0
  180.9320  180.0560  139.9370 C   0  0  0  0  0  3  0  0  0  0  0  0
  180.9320  180.5180  138.6240 C   0  0  0  0  0  3  0  0  0  0  0  0
  181.2000  178.7090  140.2270 C   0  0  0  0  0  0  0  0  0  0  0  0
  181.1950  180.1000  136.3020 F   0  0  0  0  0  0  0  0  0  0  0  0
  181.4600  178.2920  137.8380 C   0  0  0  0  0  0  0  0  0  0  0  0
  182.9560  175.9720  139.5360 O   0  0  0  0  0  0  0  0  0  0  0  0
  181.7660  176.3680  139.4170 C   0  0  0  0  0  0  0  0  0  0  0  0
  180.7410  175.4390  139.5430 O   0  0  0  0  0  1  0  0  0  0  0  0
  179.5130  177.8420  143.3110 O   0  0  0  0  0  0  0  0  0  0  0  0
  179.7710  178.3460  142.2300 C   0  0  0  0  0  3  0  0  0  0  0  0
  2  3  1  0  0  0  0
  3  1  2  0  0  0  0
  4  2  1  6  0  0  0
  4  8  1  0  0  0  0
  5  7  2  0  0  0  0
  6 10  1  0  0  0  0
  6 12  1  6  0  0  0
  7  9  1  0  0  0  0
  7 11  1  0  0  0  0
  8 10  1  0  0  0  0
  9  4  1  0  0  0  0
 11  6  1  0  0  0  0
 13 14  1  1  0  0  0
 13 15  1  0  0  0  0
 13 12  1  0  0  0  0
 15 16  1  6  0  0  0
 17 19  1  6  0  0  0
 17 15  1  0  0  0  0
 18 17  1  0  0  0  0
 20 33  1  1  0  0  0
 20  3  1  0  0  0  0
 21 28  2  0  0  0  0
 21 25  1  0  0  0  0
 22 30  1  0  0  0  0
 22 26  2  0  0  0  0
 23 28  1  0  0  0  0
 24 26  1  0  0  0  0
 25 24  2  0  0  0  0
 26 20  1  0  0  0  0
 27 21  1  0  0  0  0
 28 22  1  0  0  0  0
 30 29  2  0  0  0  0
 30 31  1  0  0  0  0
 33 32  2  0  0  0  0
M  END
>  <MODEL>
4

>  <REMARK>
 VINA RESULT:      -7.5      5.720      8.934
  Name = 
  9 active torsions:
  status: ('A' for Active; 'I' for Inactive)
    1  A    between atoms: C_1  and  N_12
    2  A    between atoms: C_2  and  C_5
    3  A    between atoms: C_2  and  C_8
    4  A    between atoms: C_5  and  C_27
    5  A    between atoms: C_6  and  C_27
    6  A    between atoms: C_9  and  C_24
    7  A    between atoms: C_11  and  C_15
    8  A    between atoms: C_15  and  C_17
    9  A    between atoms: C_15  and  C_26
                            x       y       z     vdW  Elec       q    Type
                         _______ _______ _______ _____ _____    ______ ____

>  <TORSDO>
F 9

$$$$
=
 OpenBabel10222418523D

 33 34  0  0  1  0  0  0  0  0999 V2000
  191.0820  175.1590  138.3590 O   0  0  0  0  0  0  0  0  0  0  0  0
  190.0260  176.8710  139.5550 N   0  0  0  0  0  2  0  0  0  0  0  0
  190.2970  176.1430  138.3520 C   0  0  0  0  0  0  0  0  0  0  0  0
  190.6740  176.6390  140.8410 C   0  0  1  0  0  3  0  0  0  0  0  0
  188.0370  175.9880  143.2590 O   0  0  0  0  0  0  0  0  0  0  0  0
  190.5390  178.4250  143.6040 C   0  0  1  0  0  3  0  0  0  0  0  0
  188.9560  176.6510  142.7120 C   0  0  0  0  0  0  0  0  0  0  0  0
  191.4250  177.8770  141.3390 C   0  0  0  0  0  2  0  0  0  0  0  0
  189.7780  176.0140  141.7710 O   0  0  0  0  0  0  0  0  0  0  0  0
  191.7000  177.8060  142.8310 C   0  0  0  0  0  2  0  0  0  0  0  0
  189.1280  178.0880  143.1040 C   0  0  0  0  0  2  0  0  0  0  0  0
  190.7220  178.4290  145.1270 C   0  0  0  0  0  2  0  0  0  0  0  0
  190.5040  177.1040  145.8660 C   0  0  1  0  0  3  0  0  0  0  0  0
  191.6840  176.3650  145.9750 O   0  0  0  0  0  1  0  0  0  0  0  0
  189.7740  177.2420  147.2040 C   0  0  2  0  0  3  0  0  0  0  0  0
  189.4020  175.9960  147.7200 O   0  0  0  0  0  1  0  0  0  0  0  0
  188.5650  178.1680  147.0860 C   0  0  2  0  0  3  0  0  0  0  0  0
  188.1660  178.5880  148.3550 O   0  0  0  0  0  1  0  0  0  0  0  0
  187.3940  177.5000  146.3820 C   0  0  0  0  0  1  0  0  0  0  0  0
  189.6630  176.5580  137.0600 C   0  0  2  0  0  3  0  0  0  0  0  0
  185.6150  175.1230  136.6650 C   0  0  0  0  0  0  0  0  0  0  0  0
  187.1420  176.9410  137.2370 C   0  0  0  0  0  0  0  0  0  0  0  0
  184.7490  177.2170  137.3540 F   0  0  0  0  0  0  0  0  0  0  0  0
  187.9950  174.7650  136.5370 C   0  0  0  0  0  3  0  0  0  0  0  0
  186.6960  174.2880  136.3960 C   0  0  0  0  0  3  0  0  0  0  0  0
  188.2380  176.0830  136.9560 C   0  0  0  0  0  0  0  0  0  0  0  0
  184.3530  174.6480  136.5280 F   0  0  0  0  0  0  0  0  0  0  0  0
  185.8290  176.4410  137.0800 C   0  0  0  0  0  0  0  0  0  0  0  0
  187.3380  178.6280  138.9150 O   0  0  0  0  0  1  0  0  0  0  0  0
  187.3430  178.3450  137.6870 C   0  0  0  0  0  0  0  0  0  0  0  0
  187.5560  179.3680  136.7710 O   0  0  0  0  0  0  0  0  0  0  0  0
  190.3990  176.7690  134.8240 O   0  0  0  0  0  0  0  0  0  0  0  0
  190.4750  176.1450  135.8700 C   0  0  0  0  0  3  0  0  0  0  0  0
  3  1  2  0  0  0  0
  3  2  1  0  0  0  0
  4  2  1  6  0  0  0
  4  8  1  0  0  0  0
  4  9  1  0  0  0  0
  6 12  1  1  0  0  0
  7 11  1  0  0  0  0
  7  5  2  0  0  0  0
  8 10  1  0  0  0  0
  9  7  1  0  0  0  0
 10  6  1  0  0  0  0
 11  6  1  0  0  0  0
 12 13  1  0  0  0  0
 13 14  1  1  0  0  0
 13 15  1  0  0  0  0
 15 16  1  6  0  0  0
 17 19  1  1  0  0  0
 17 15  1  0  0  0  0
 17 18  1  0  0  0  0
 20 33  1  6  0  0  0
 20  3  1  0  0  0  0
 21 28  1  0  0  0  0
 22 30  1  0  0  0  0
 24 26  2  0  0  0  0
 25 24  1  0  0  0  0
 25 21  2  0  0  0  0
 26 20  1  0  0  0  0
 26 22  1  0  0  0  0
 27 21  1  0  0  0  0
 28 22  2  0  0  0  0
 28 23  1  0  0  0  0
 30 29  1  0  0  0  0
 31 30  2  0  0  0  0
 32 33  2  0  0  0  0
M  END
>  <MODEL>
5

>  <REMARK>
 VINA RESULT:      -7.3      3.448      8.714
  Name = 
  9 active torsions:
  status: ('A' for Active; 'I' for Inactive)
    1  A    between atoms: C_1  and  N_12
    2  A    between atoms: C_2  and  C_5
    3  A    between atoms: C_2  and  C_8
    4  A    between atoms: C_5  and  C_27
    5  A    between atoms: C_6  and  C_27
    6  A    between atoms: C_9  and  C_24
    7  A    between atoms: C_11  and  C_15
    8  A    between atoms: C_15  and  C_17
    9  A    between atoms: C_15  and  C_26
                            x       y       z     vdW  Elec       q    Type
                         _______ _______ _______ _____ _____    ______ ____

>  <TORSDO>
F 9

$$$$
=
 OpenBabel10222418523D

 33 34  0  0  1  0  0  0  0  0999 V2000
  184.2230  179.7260  139.8720 O   0  0  0  0  0  0  0  0  0  0  0  0
  183.6980  178.4420  141.7570 N   0  0  0  0  0  2  0  0  0  0  0  0
  183.5150  178.8220  140.3880 C   0  0  0  0  0  0  0  0  0  0  0  0
  184.6020  179.0950  142.6960 C   0  0  1  0  0  3  0  0  0  0  0  0
  187.9700  178.0060  141.8630 O   0  0  0  0  0  0  0  0  0  0  0  0
  186.4980  177.7700  145.0400 C   0  0  1  0  0  3  0  0  0  0  0  0
  186.9200  178.0660  142.5530 C   0  0  0  0  0  0  0  0  0  0  0  0
  184.3480  178.6560  144.1410 C   0  0  0  0  0  2  0  0  0  0  0  0
  185.9610  179.0390  142.2370 O   0  0  0  0  0  0  0  0  0  0  0  0
  185.5360  178.9560  145.0370 C   0  0  0  0  0  2  0  0  0  0  0  0
  186.7560  177.0970  143.6860 C   0  0  0  0  0  2  0  0  0  0  0  0
  187.7290  177.9560  145.9360 C   0  0  0  0  0  2  0  0  0  0  0  0
  189.0820  177.5040  145.3780 C   0  0  1  0  0  3  0  0  0  0  0  0
  189.8620  178.5850  144.9580 O   0  0  0  0  0  1  0  0  0  0  0  0
  189.8520  176.5460  146.2900 C   0  0  2  0  0  3  0  0  0  0  0  0
  189.5070  176.7240  147.6340 O   0  0  0  0  0  1  0  0  0  0  0  0
  191.3610  176.6780  146.0900 C   0  0  2  0  0  3  0  0  0  0  0  0
  191.7370  176.0500  144.9030 O   0  0  0  0  0  1  0  0  0  0  0  0
  192.1500  176.0880  147.2480 C   0  0  0  0  0  1  0  0  0  0  0  0
  182.4610  178.1590  139.5560 C   0  0  2  0  0  3  0  0  0  0  0  0
  180.7140  180.8930  136.7150 C   0  0  0  0  0  0  0  0  0  0  0  0
  181.7930  178.7480  137.1600 C   0  0  0  0  0  0  0  0  0  0  0  0
  181.1090  179.3800  134.9360 F   0  0  0  0  0  0  0  0  0  0  0  0
  181.3820  180.3390  138.9640 C   0  0  0  0  0  3  0  0  0  0  0  0
  180.8070  181.2300  138.0620 C   0  0  0  0  0  3  0  0  0  0  0  0
  181.8800  179.0990  138.5330 C   0  0  0  0  0  0  0  0  0  0  0  0
  180.1550  181.7690  135.8430 F   0  0  0  0  0  0  0  0  0  0  0  0
  181.1990  179.6630  136.2610 C   0  0  0  0  0  0  0  0  0  0  0  0
  183.4490  177.3770  136.1220 O   0  0  0  0  0  0  0  0  0  0  0  0
  182.3080  177.4480  136.6500 C   0  0  0  0  0  0  0  0  0  0  0  0
  181.5530  176.2860  136.7600 O   0  0  0  0  0  1  0  0  0  0  0  0
  180.8000  176.5350  139.9870 O   0  0  0  0  0  0  0  0  0  0  0  0
  181.3960  177.5190  140.3930 C   0  0  0  0  0  3  0  0  0  0  0  0
  1  3  2  0  0  0  0
  3  2  1  0  0  0  0
  4  2  1  6  0  0  0
  4  8  1  0  0  0  0
  5  7  2  0  0  0  0
  6 12  1  6  0  0  0
  7 11  1  0  0  0  0
  8 10  1  0  0  0  0
  9  7  1  0  0  0  0
  9  4  1  0  0  0  0
 10  6  1  0  0  0  0
 11  6  1  0  0  0  0
 13 14  1  1  0  0  0
 13 12  1  0  0  0  0
 13 15  1  0  0  0  0
 15 16  1  1  0  0  0
 17 15  1  0  0  0  0
 17 19  1  1  0  0  0
 18 17  1  0  0  0  0
 20  3  1  0  0  0  0
 20 33  1  1  0  0  0
 21 25  1  0  0  0  0
 22 26  2  0  0  0  0
 23 28  1  0  0  0  0
 25 24  2  0  0  0  0
 26 24  1  0  0  0  0
 26 20  1  0  0  0  0
 27 21  1  0  0  0  0
 28 21  2  0  0  0  0
 28 22  1  0  0  0  0
 29 30  2  0  0  0  0
 30 31  1  0  0  0  0
 30 22  1  0  0  0  0
 32 33  2  0  0  0  0
M  END
>  <MODEL>
6

>  <REMARK>
 VINA RESULT:      -7.3      6.262      9.719
  Name = 
  9 active torsions:
  status: ('A' for Active; 'I' for Inactive)
    1  A    between atoms: C_1  and  N_12
    2  A    between atoms: C_2  and  C_5
    3  A    between atoms: C_2  and  C_8
    4  A    between atoms: C_5  and  C_27
    5  A    between atoms: C_6  and  C_27
    6  A    between atoms: C_9  and  C_24
    7  A    between atoms: C_11  and  C_15
    8  A    between atoms: C_15  and  C_17
    9  A    between atoms: C_15  and  C_26
                            x       y       z     vdW  Elec       q    Type
                         _______ _______ _______ _____ _____    ______ ____

>  <TORSDO>
F 9

$$$$
=
 OpenBabel10222418523D

 33 34  0  0  1  0  0  0  0  0999 V2000
  189.0420  179.2560  138.2180 O   0  0  0  0  0  0  0  0  0  0  0  0
  188.2100  177.5160  139.5430 N   0  0  0  0  0  2  0  0  0  0  0  0
  188.5310  178.1080  138.2790 C   0  0  0  0  0  0  0  0  0  0  0  0
  188.3320  178.1800  140.8360 C   0  0  1  0  0  3  0  0  0  0  0  0
  191.0540  176.5520  142.6160 O   0  0  0  0  0  0  0  0  0  0  0  0
  187.8010  176.9860  143.8590 C   0  0  1  0  0  3  0  0  0  0  0  0
  189.8560  176.8490  142.3730 C   0  0  0  0  0  0  0  0  0  0  0  0
  187.0790  177.9980  141.6970 C   0  0  0  0  0  2  0  0  0  0  0  0
  189.5900  177.8800  141.4600 O   0  0  0  0  0  0  0  0  0  0  0  0
  187.3600  178.2720  143.1640 C   0  0  0  0  0  2  0  0  0  0  0  0
  188.7750  176.0910  143.0830 C   0  0  0  0  0  2  0  0  0  0  0  0
  188.0890  177.1430  145.3570 C   0  0  0  0  0  2  0  0  0  0  0  0
  189.5530  177.3040  145.7800 C   0  0  1  0  0  3  0  0  0  0  0  0
  190.0530  178.5690  145.4640 O   0  0  0  0  0  1  0  0  0  0  0  0
  189.8370  176.9080  147.2310 C   0  0  2  0  0  3  0  0  0  0  0  0
  189.6800  177.9930  148.1010 O   0  0  0  0  0  1  0  0  0  0  0  0
  191.2240  176.2860  147.3780 C   0  0  2  0  0  3  0  0  0  0  0  0
  192.0540  177.1450  148.0980 O   0  0  0  0  0  1  0  0  0  0  0  0
  191.8610  175.9750  146.0330 C   0  0  0  0  0  1  0  0  0  0  0  0
  188.2410  177.3720  137.0070 C   0  0  2  0  0  3  0  0  0  0  0  0
  190.7460  173.8890  136.5740 C   0  0  0  0  0  0  0  0  0  0  0  0
  188.5120  174.8750  136.5360 C   0  0  0  0  0  0  0  0  0  0  0  0
  188.8670  172.5330  136.0840 F   0  0  0  0  0  0  0  0  0  0  0  0
  190.4710  176.2350  137.0510 C   0  0  0  0  0  3  0  0  0  0  0  0
  191.2960  175.1230  136.9070 C   0  0  0  0  0  3  0  0  0  0  0  0
  189.0820  176.1310  136.8720 C   0  0  0  0  0  0  0  0  0  0  0  0
  191.5570  172.8100  136.4400 F   0  0  0  0  0  0  0  0  0  0  0  0
  189.3670  173.7590  136.3870 C   0  0  0  0  0  0  0  0  0  0  0  0
  186.3110  174.3440  137.2940 O   0  0  0  0  0  1  0  0  0  0  0  0
  187.0460  174.7090  136.3380 C   0  0  0  0  0  0  0  0  0  0  0  0
  186.4570  174.9660  135.1060 O   0  0  0  0  0  0  0  0  0  0  0  0
  188.4390  177.7700  134.6860 O   0  0  0  0  0  0  0  0  0  0  0  0
  188.3550  178.2560  135.8020 C   0  0  0  0  0  3  0  0  0  0  0  0
  1  3  2  0  0  0  0
  3  2  1  0  0  0  0
  4  2  1  6  0  0  0
  4  9  1  0  0  0  0
  4  8  1  0  0  0  0
  6 12  1  1  0  0  0
  7  5  2  0  0  0  0
  7 11  1  0  0  0  0
  8 10  1  0  0  0  0
  9  7  1  0  0  0  0
 10  6  1  0  0  0  0
 11  6  1  0  0  0  0
 12 13  1  0  0  0  0
 13 14  1  1  0  0  0
 13 15  1  0  0  0  0
 15 17  1  0  0  0  0
 15 16  1  1  0  0  0
 17 19  1  6  0  0  0
 17 18  1  0  0  0  0
 20 33  1  6  0  0  0
 20  3  1  0  0  0  0
 21 25  1  0  0  0  0
 22 26  2  0  0  0  0
 23 28  1  0  0  0  0
 25 24  2  0  0  0  0
 26 20  1  0  0  0  0
 26 24  1  0  0  0  0
 27 21  1  0  0  0  0
 28 22  1  0  0  0  0
 28 21  2  0  0  0  0
 30 22  1  0  0  0  0
 30 29  1  0  0  0  0
 31 30  2  0  0  0  0
 32 33  2  0  0  0  0
M  END
>  <MODEL>
7

>  <REMARK>
 VINA RESULT:      -7.3      4.277      9.126
  Name = 
  9 active torsions:
  status: ('A' for Active; 'I' for Inactive)
    1  A    between atoms: C_1  and  N_12
    2  A    between atoms: C_2  and  C_5
    3  A    between atoms: C_2  and  C_8
    4  A    between atoms: C_5  and  C_27
    5  A    between atoms: C_6  and  C_27
    6  A    between atoms: C_9  and  C_24
    7  A    between atoms: C_11  and  C_15
    8  A    between atoms: C_15  and  C_17
    9  A    between atoms: C_15  and  C_26
                            x       y       z     vdW  Elec       q    Type
                         _______ _______ _______ _____ _____    ______ ____

>  <TORSDO>
F 9

$$$$
=
 OpenBabel10222418523D

 33 34  0  0  1  0  0  0  0  0999 V2000
  190.7700  178.8690  143.4700 O   0  0  0  0  0  0  0  0  0  0  0  0
  190.5090  176.9710  142.1270 N   0  0  0  0  0  2  0  0  0  0  0  0
  190.5670  177.6290  143.3970 C   0  0  0  0  0  0  0  0  0  0  0  0
  190.7690  177.6050  140.8390 C   0  0  1  0  0  3  0  0  0  0  0  0
  187.5520  178.6280  139.4870 O   0  0  0  0  0  0  0  0  0  0  0  0
  189.9050  176.6320  137.8150 C   0  0  1  0  0  3  0  0  0  0  0  0
  188.5990  177.9340  139.5610 C   0  0  0  0  0  0  0  0  0  0  0  0
  191.3750  176.6280  139.8280 C   0  0  0  0  0  2  0  0  0  0  0  0
  189.6380  178.3700  140.3960 O   0  0  0  0  0  0  0  0  0  0  0  0
  191.2230  177.1290  138.4030 C   0  0  0  0  0  2  0  0  0  0  0  0
  188.6830  176.6820  138.7410 C   0  0  0  0  0  2  0  0  0  0  0  0
  189.6580  177.0600  136.3630 C   0  0  0  0  0  2  0  0  0  0  0  0
  188.6630  176.2320  135.5430 C   0  0  1  0  0  3  0  0  0  0  0  0
  188.5310  174.9320  136.0380 O   0  0  0  0  0  1  0  0  0  0  0  0
  187.3110  176.9130  135.3180 C   0  0  2  0  0  3  0  0  0  0  0  0
  187.3260  178.2440  135.7480 O   0  0  0  0  0  1  0  0  0  0  0  0
  186.1780  176.1350  135.9850 C   0  0  2  0  0  3  0  0  0  0  0  0
  185.2620  175.7140  135.0210 O   0  0  0  0  0  1  0  0  0  0  0  0
  185.4590  176.9570  137.0420 C   0  0  0  0  0  1  0  0  0  0  0  0
  190.4080  176.8430  144.6620 C   0  0  2  0  0  3  0  0  0  0  0  0
  187.1810  178.2460  147.1560 C   0  0  0  0  0  0  0  0  0  0  0  0
  187.9310  177.3730  145.0020 C   0  0  0  0  0  0  0  0  0  0  0  0
  185.6110  177.8820  145.4210 F   0  0  0  0  0  0  0  0  0  0  0  0
  189.5200  177.7750  146.8100 C   0  0  0  0  0  3  0  0  0  0  0  0
  188.4900  178.2220  147.6310 C   0  0  0  0  0  3  0  0  0  0  0  0
  189.2620  177.3490  145.4970 C   0  0  0  0  0  0  0  0  0  0  0  0
  186.1850  178.6870  147.9630 F   0  0  0  0  0  0  0  0  0  0  0  0
  186.8970  177.8240  145.8540 C   0  0  0  0  0  0  0  0  0  0  0  0
  187.1570  177.7610  142.7770 O   0  0  0  0  0  0  0  0  0  0  0  0
  187.6030  176.9360  143.6180 C   0  0  0  0  0  0  0  0  0  0  0  0
  187.7950  175.6190  143.2180 O   0  0  0  0  0  1  0  0  0  0  0  0
  192.0140  175.7290  145.9900 O   0  0  0  0  0  0  0  0  0  0  0  0
  191.6810  176.7710  145.4500 C   0  0  0  0  0  3  0  0  0  0  0  0
  2  3  1  0  0  0  0
  3  1  2  0  0  0  0
  3 20  1  0  0  0  0
  4  2  1  1  0  0  0
  5  7  2  0  0  0  0
  6 12  1  6  0  0  0
  6 10  1  0  0  0  0
  6 11  1  0  0  0  0
  7  9  1  0  0  0  0
  8  4  1  0  0  0  0
  9  4  1  0  0  0  0
 10  8  1  0  0  0  0
 11  7  1  0  0  0  0
 13 14  1  1  0  0  0
 13 12  1  0  0  0  0
 15 13  1  0  0  0  0
 15 16  1  1  0  0  0
 15 17  1  0  0  0  0
 17 19  1  1  0  0  0
 18 17  1  0  0  0  0
 20 33  1  1  0  0  0
 20 26  1  0  0  0  0
 21 25  1  0  0  0  0
 21 27  1  0  0  0  0
 22 26  2  0  0  0  0
 22 28  1  0  0  0  0
 23 28  1  0  0  0  0
 24 25  2  0  0  0  0
 26 24  1  0  0  0  0
 28 21  2  0  0  0  0
 29 30  2  0  0  0  0
 30 22  1  0  0  0  0
 31 30  1  0  0  0  0
 33 32  2  0  0  0  0
M  END
>  <MODEL>
8

>  <REMARK>
 VINA RESULT:      -7.2      2.761      3.967
  Name = 
  9 active torsions:
  status: ('A' for Active; 'I' for Inactive)
    1  A    between atoms: C_1  and  N_12
    2  A    between atoms: C_2  and  C_5
    3  A    between atoms: C_2  and  C_8
    4  A    between atoms: C_5  and  C_27
    5  A    between atoms: C_6  and  C_27
    6  A    between atoms: C_9  and  C_24
    7  A    between atoms: C_11  and  C_15
    8  A    between atoms: C_15  and  C_17
    9  A    between atoms: C_15  and  C_26
                            x       y       z     vdW  Elec       q    Type
                         _______ _______ _______ _____ _____    ______ ____

>  <TORSDO>
F 9

$$$$
=
 OpenBabel10222418523D

 33 34  0  0  1  0  0  0  0  0999 V2000
  189.5510  178.4400  137.5770 O   0  0  0  0  0  0  0  0  0  0  0  0
  189.6830  176.7500  139.1900 N   0  0  0  0  0  2  0  0  0  0  0  0
  189.5790  177.2090  137.8370 C   0  0  0  0  0  0  0  0  0  0  0  0
  189.6620  177.6050  140.3710 C   0  0  1  0  0  3  0  0  0  0  0  0
  191.0840  175.6770  143.1070 O   0  0  0  0  0  0  0  0  0  0  0  0
  187.9570  177.2690  143.1670 C   0  0  1  0  0  3  0  0  0  0  0  0
  190.1700  176.2460  142.4560 C   0  0  0  0  0  0  0  0  0  0  0  0
  188.2360  177.9710  140.7910 C   0  0  0  0  0  2  0  0  0  0  0  0
  190.5250  177.0960  141.3990 O   0  0  0  0  0  0  0  0  0  0  0  0
  188.1810  178.4530  142.2300 C   0  0  0  0  0  2  0  0  0  0  0  0
  188.7470  175.9920  142.8540 C   0  0  0  0  0  2  0  0  0  0  0  0
  187.8600  177.6450  144.6510 C   0  0  0  0  0  2  0  0  0  0  0  0
  186.4750  177.5840  145.3050 C   0  0  1  0  0  3  0  0  0  0  0  0
  186.5420  177.1550  146.6320 O   0  0  0  0  0  1  0  0  0  0  0  0
  185.6450  178.8600  145.1430 C   0  0  2  0  0  3  0  0  0  0  0  0
  185.0290  179.2300  146.3430 O   0  0  0  0  0  1  0  0  0  0  0  0
  184.6170  178.7170  144.0220 C   0  0  2  0  0  3  0  0  0  0  0  0
  184.9260  179.5950  142.9830 O   0  0  0  0  0  1  0  0  0  0  0  0
  183.1990  178.9800  144.5030 C   0  0  0  0  0  1  0  0  0  0  0  0
  189.4820  176.2250  136.7120 C   0  0  2  0  0  3  0  0  0  0  0  0
  186.3330  173.3260  137.2460 C   0  0  0  0  0  0  0  0  0  0  0  0
  187.0010  175.6560  136.9470 C   0  0  0  0  0  0  0  0  0  0  0  0
  184.6840  175.0230  137.1580 F   0  0  0  0  0  0  0  0  0  0  0  0
  188.6710  173.8810  137.0570 C   0  0  0  0  0  3  0  0  0  0  0  0
  187.6680  172.9310  137.2220 C   0  0  0  0  0  3  0  0  0  0  0  0
  188.3590  175.2430  136.9210 C   0  0  0  0  0  0  0  0  0  0  0  0
  185.3630  172.3930  137.4100 F   0  0  0  0  0  0  0  0  0  0  0  0
  185.9950  174.6760  137.1080 C   0  0  0  0  0  0  0  0  0  0  0  0
  186.6480  177.6510  135.6850 O   0  0  0  0  0  0  0  0  0  0  0  0
  186.6150  177.0870  136.8100 C   0  0  0  0  0  0  0  0  0  0  0  0
  186.1980  177.8250  137.9120 O   0  0  0  0  0  1  0  0  0  0  0  0
  191.4010  175.7490  135.4180 O   0  0  0  0  0  0  0  0  0  0  0  0
  190.7850  175.5330  136.4480 C   0  0  0  0  0  3  0  0  0  0  0  0
  1  3  2  0  0  0  0
  3  2  1  0  0  0  0
  4  2  1  6  0  0  0
  4  8  1  0  0  0  0
  4  9  1  0  0  0  0
  6 12  1  1  0  0  0
  7 11  1  0  0  0  0
  7  5  2  0  0  0  0
  8 10  1  0  0  0  0
  9  7  1  0  0  0  0
 10  6  1  0  0  0  0
 11  6  1  0  0  0  0
 12 13  1  0  0  0  0
 13 14  1  1  0  0  0
 15 13  1  0  0  0  0
 15 16  1  1  0  0  0
 17 19  1  1  0  0  0
 17 15  1  0  0  0  0
 18 17  1  0  0  0  0
 20 33  1  1  0  0  0
 20 26  1  0  0  0  0
 20  3  1  0  0  0  0
 21 27  1  0  0  0  0
 22 28  1  0  0  0  0
 24 25  2  0  0  0  0
 25 21  1  0  0  0  0
 26 22  2  0  0  0  0
 26 24  1  0  0  0  0
 28 23  1  0  0  0  0
 28 21  2  0  0  0  0
 29 30  2  0  0  0  0
 30 22  1  0  0  0  0
 30 31  1  0  0  0  0
 32 33  2  0  0  0  0
M  END
>  <MODEL>
9

>  <REMARK>
 VINA RESULT:      -7.2      3.738      9.222
  Name = 
  9 active torsions:
  status: ('A' for Active; 'I' for Inactive)
    1  A    between atoms: C_1  and  N_12
    2  A    between atoms: C_2  and  C_5
    3  A    between atoms: C_2  and  C_8
    4  A    between atoms: C_5  and  C_27
    5  A    between atoms: C_6  and  C_27
    6  A    between atoms: C_9  and  C_24
    7  A    between atoms: C_11  and  C_15
    8  A    between atoms: C_15  and  C_17
    9  A    between atoms: C_15  and  C_26
                            x       y       z     vdW  Elec       q    Type
                         _______ _______ _______ _____ _____    ______ ____

>  <TORSDO>
F 9

$$$$
