=
 OpenBabel10222417093D

 25 29  0  0  1  0  0  0  0  0999 V2000
  186.7230  177.6750  144.7050 C   0  0  0  0  0  0  0  0  0  0  0  0
  189.1960  176.8370  144.4150 C   0  0  1  0  0  3  0  0  0  0  0  0
  186.6160  177.4110  146.0900 C   0  0  0  0  0  0  0  0  0  0  0  0
  185.6960  178.5140  142.6440 C   0  0  0  0  0  3  0  0  0  0  0  0
  186.7940  178.0720  141.9020 C   0  0  0  0  0  3  0  0  0  0  0  0
  190.3230  177.3360  146.4460 C   0  0  0  0  0  2  0  0  0  0  0  0
  190.3400  175.2310  143.0190 O   0  0  0  0  0  1  0  0  0  0  0  0
  189.1000  176.9960  141.9320 C   0  0  0  0  0  2  0  0  0  0  0  0
  189.9730  176.5730  143.1160 C   0  0  1  0  0  0  0  0  0  0  0  0
  192.0590  177.4850  142.4250 O   0  0  0  0  0  0  0  0  0  0  0  0
  187.8610  177.4820  142.5710 C   0  0  0  0  0  0  0  0  0  0  0  0
  189.8900  177.9010  145.1740 N   0  0  1  0  0  0  0  0  0  0  0  0
  191.1510  177.4410  143.2410 C   0  0  0  0  0  0  0  0  0  0  0  0
  188.2550  176.9550  147.9450 C   0  0  0  0  0  2  0  0  0  0  0  0
  185.5190  177.8950  146.8090 C   0  0  0  0  0  3  0  0  0  0  0  0
  191.1140  178.2650  144.4590 C   0  0  0  0  0  2  0  0  0  0  0  0
  189.4180  177.7980  147.5430 C   0  0  0  0  0  0  0  0  0  0  0  0
  189.6230  178.8630  148.1000 O   0  0  0  0  0  0  0  0  0  0  0  0
  185.6480  178.3350  144.0420 C   0  0  0  0  0  0  0  0  0  0  0  0
  184.5030  178.5990  146.1660 C   0  0  0  0  0  3  0  0  0  0  0  0
  187.5400  176.5450  146.7490 N   0  0  0  0  0  2  0  0  0  0  0  0
  187.8610  177.3230  143.9380 C   0  0  0  0  0  0  0  0  0  0  0  0
  184.5470  178.8060  144.7870 C   0  0  0  0  0  0  0  0  0  0  0  0
  183.4520  179.5120  144.1680 C   0  0  0  0  0  0  0  0  0  0  0  0
  182.5730  180.0770  143.6700 N   0  0  0  0  0  0  0  0  0  0  0  0
  1  3  2  0  0  0  0
  2 22  1  6  0  0  0
  2 12  1  0  0  0  0
  3 21  1  0  0  0  0
  3 15  1  0  0  0  0
  4 19  1  0  0  0  0
  5 11  1  0  0  0  0
  5  4  2  0  0  0  0
  6 17  1  0  0  0  0
  8 11  1  0  0  0  0
  8  9  1  0  0  0  0
  9  7  1  6  0  0  0
  9 13  1  0  0  0  0
  9  2  1  0  0  0  0
 10 13  2  0  0  0  0
 11 22  2  0  0  0  0
 12 16  1  6  0  0  0
 12  6  1  0  0  0  0
 13 16  1  0  0  0  0
 17 14  1  0  0  0  0
 17 18  2  0  0  0  0
 19  1  1  0  0  0  0
 19 23  2  0  0  0  0
 20 15  2  0  0  0  0
 21 14  1  0  0  0  0
 22  1  1  0  0  0  0
 23 20  1  0  0  0  0
 24 23  1  0  0  0  0
 25 24  3  0  0  0  0
M  END
>  <MODEL>
1

>  <REMARK>
 VINA RESULT:      -9.0      0.000      0.000
  Name = 
  1 active torsions:
  status: ('A' for Active; 'I' for Inactive)
    1  A    between atoms: C_4  and  C_25
                            x       y       z     vdW  Elec       q    Type
                         _______ _______ _______ _____ _____    ______ ____

>  <TORSDO>
F 1

$$$$
=
 OpenBabel10222417093D

 25 29  0  0  1  0  0  0  0  0999 V2000
  187.1310  178.3960  142.9270 C   0  0  0  0  0  0  0  0  0  0  0  0
  189.6850  177.7930  143.0380 C   0  0  1  0  0  3  0  0  0  0  0  0
  187.1070  178.7890  141.5690 C   0  0  0  0  0  0  0  0  0  0  0  0
  185.9220  178.0510  145.0310 C   0  0  0  0  0  3  0  0  0  0  0  0
  187.1240  177.7920  145.6930 C   0  0  0  0  0  3  0  0  0  0  0  0
  190.2750  176.9480  140.8980 C   0  0  0  0  0  2  0  0  0  0  0  0
  191.5730  178.4460  144.3970 O   0  0  0  0  0  1  0  0  0  0  0  0
  189.6460  177.5060  145.5100 C   0  0  0  0  0  2  0  0  0  0  0  0
  190.5490  177.5060  144.2750 C   0  0  1  0  0  0  0  0  0  0  0  0
  191.8750  175.5870  144.7450 O   0  0  0  0  0  0  0  0  0  0  0  0
  188.3060  177.7910  144.9610 C   0  0  0  0  0  0  0  0  0  0  0  0
  189.6750  176.5900  142.1770 N   0  0  1  0  0  0  0  0  0  0  0  0
  191.0860  176.1640  144.0120 C   0  0  0  0  0  0  0  0  0  0  0  0
  188.6440  178.4730  139.6000 C   0  0  0  0  0  2  0  0  0  0  0  0
  185.8850  179.0080  140.9270 C   0  0  0  0  0  3  0  0  0  0  0  0
  190.5590  175.5840  142.7670 C   0  0  0  0  0  2  0  0  0  0  0  0
  189.2080  177.1170  139.8640 C   0  0  0  0  0  0  0  0  0  0  0  0
  188.7930  176.1510  139.2470 O   0  0  0  0  0  0  0  0  0  0  0  0
  185.9040  178.3420  143.6520 C   0  0  0  0  0  0  0  0  0  0  0  0
  184.6850  178.8890  141.6250 C   0  0  0  0  0  3  0  0  0  0  0  0
  188.3140  179.0960  140.8700 N   0  0  0  0  0  2  0  0  0  0  0  0
  188.3200  178.0380  143.6070 C   0  0  0  0  0  0  0  0  0  0  0  0
  184.6830  178.5770  142.9840 C   0  0  0  0  0  0  0  0  0  0  0  0
  183.4140  178.4990  143.6650 C   0  0  0  0  0  0  0  0  0  0  0  0
  182.3960  178.4360  144.2120 N   0  0  0  0  0  0  0  0  0  0  0  0
  1 22  2  0  0  0  0
  1 19  1  0  0  0  0
  2 22  1  1  0  0  0
  2  9  1  0  0  0  0
  3  1  1  0  0  0  0
  4  5  1  0  0  0  0
  9  7  1  1  0  0  0
  9  8  1  0  0  0  0
 11  8  1  0  0  0  0
 11  5  2  0  0  0  0
 12  6  1  6  0  0  0
 12 16  1  0  0  0  0
 12  2  1  0  0  0  0
 13  9  1  0  0  0  0
 13 10  2  0  0  0  0
 14 17  1  0  0  0  0
 14 21  1  0  0  0  0
 15  3  2  0  0  0  0
 15 20  1  0  0  0  0
 16 13  1  0  0  0  0
 17  6  1  0  0  0  0
 18 17  2  0  0  0  0
 19  4  2  0  0  0  0
 20 23  2  0  0  0  0
 21  3  1  0  0  0  0
 22 11  1  0  0  0  0
 23 19  1  0  0  0  0
 23 24  1  0  0  0  0
 24 25  3  0  0  0  0
M  END
>  <MODEL>
2

>  <REMARK>
 VINA RESULT:      -8.8      2.045      4.354
  Name = 
  1 active torsions:
  status: ('A' for Active; 'I' for Inactive)
    1  A    between atoms: C_4  and  C_25
                            x       y       z     vdW  Elec       q    Type
                         _______ _______ _______ _____ _____    ______ ____

>  <TORSDO>
F 1

$$$$
=
 OpenBabel10222417093D

 25 29  0  0  1  0  0  0  0  0999 V2000
  186.6690  178.4660  141.3890 C   0  0  0  0  0  0  0  0  0  0  0  0
  187.3720  178.5180  138.8580 C   0  0  1  0  0  3  0  0  0  0  0  0
  185.3500  178.9410  141.2090 C   0  0  0  0  0  0  0  0  0  0  0  0
  188.4240  177.6740  142.9050 C   0  0  0  0  0  3  0  0  0  0  0  0
  189.3480  177.6760  141.8570 C   0  0  0  0  0  3  0  0  0  0  0  0
  185.4200  178.0090  137.6030 C   0  0  0  0  0  2  0  0  0  0  0  0
  189.1460  179.5200  137.5610 O   0  0  0  0  0  1  0  0  0  0  0  0
  189.7610  178.0460  139.3730 C   0  0  0  0  0  2  0  0  0  0  0  0
  188.7740  178.3650  138.2480 C   0  0  1  0  0  0  0  0  0  0  0  0
  189.5160  176.8110  136.6080 O   0  0  0  0  0  0  0  0  0  0  0  0
  188.9150  178.0260  140.5830 C   0  0  0  0  0  0  0  0  0  0  0  0
  186.5160  177.4180  138.3590 N   0  0  1  0  0  0  0  0  0  0  0  0
  188.6260  177.2240  137.3350 C   0  0  0  0  0  0  0  0  0  0  0  0
  183.7950  179.1680  139.2420 C   0  0  0  0  0  2  0  0  0  0  0  0
  184.4410  178.8940  142.2700 C   0  0  0  0  0  3  0  0  0  0  0  0
  187.2840  176.6250  137.3990 C   0  0  0  0  0  2  0  0  0  0  0  0
  184.1660  177.9820  138.4180 C   0  0  0  0  0  0  0  0  0  0  0  0
  183.4550  176.9910  138.4170 O   0  0  0  0  0  0  0  0  0  0  0  0
  187.0840  178.0530  142.6890 C   0  0  0  0  0  0  0  0  0  0  0  0
  184.8350  178.4260  143.5220 C   0  0  0  0  0  3  0  0  0  0  0  0
  184.9590  179.5920  140.0000 N   0  0  0  0  0  2  0  0  0  0  0  0
  187.6060  178.3690  140.3310 C   0  0  0  0  0  0  0  0  0  0  0  0
  186.1510  178.0230  143.7470 C   0  0  0  0  0  0  0  0  0  0  0  0
  186.5120  177.5780  145.0700 C   0  0  0  0  0  0  0  0  0  0  0  0
  186.8030  177.2210  146.1320 N   0  0  0  0  0  0  0  0  0  0  0  0
  1 19  1  0  0  0  0
  2 22  1  1  0  0  0
  3  1  2  0  0  0  0
  3 15  1  0  0  0  0
  5  4  2  0  0  0  0
  6 12  1  0  0  0  0
  6 17  1  0  0  0  0
  8 11  1  0  0  0  0
  9  7  1  6  0  0  0
  9  2  1  0  0  0  0
  9  8  1  0  0  0  0
 10 13  2  0  0  0  0
 11  5  1  0  0  0  0
 12 16  1  6  0  0  0
 12  2  1  0  0  0  0
 13 16  1  0  0  0  0
 13  9  1  0  0  0  0
 14 21  1  0  0  0  0
 15 20  2  0  0  0  0
 17 14  1  0  0  0  0
 18 17  2  0  0  0  0
 19  4  1  0  0  0  0
 19 23  2  0  0  0  0
 20 23  1  0  0  0  0
 21  3  1  0  0  0  0
 22 11  2  0  0  0  0
 22  1  1  0  0  0  0
 23 24  1  0  0  0  0
 24 25  3  0  0  0  0
M  END
>  <MODEL>
3

>  <REMARK>
 VINA RESULT:      -8.4      3.831      6.322
  Name = 
  1 active torsions:
  status: ('A' for Active; 'I' for Inactive)
    1  A    between atoms: C_4  and  C_25
                            x       y       z     vdW  Elec       q    Type
                         _______ _______ _______ _____ _____    ______ ____

>  <TORSDO>
F 1

$$$$
=
 OpenBabel10222417093D

 25 29  0  0  1  0  0  0  0  0999 V2000
  188.3640  177.4550  144.0650 C   0  0  0  0  0  0  0  0  0  0  0  0
  189.1220  176.9530  146.5290 C   0  0  1  0  0  3  0  0  0  0  0  0
  186.9720  177.4770  144.3160 C   0  0  0  0  0  0  0  0  0  0  0  0
  190.2100  177.6760  142.4680 C   0  0  0  0  0  3  0  0  0  0  0  0
  191.1190  177.2570  143.4430 C   0  0  0  0  0  3  0  0  0  0  0  0
  187.5560  178.0320  147.9520 C   0  0  0  0  0  2  0  0  0  0  0  0
  190.4670  175.2770  147.6330 O   0  0  0  0  0  1  0  0  0  0  0  0
  191.4890  176.5670  145.8650 C   0  0  0  0  0  2  0  0  0  0  0  0
  190.5100  176.5400  147.0400 C   0  0  1  0  0  0  0  0  0  0  0  0
  191.8500  177.5850  148.7050 O   0  0  0  0  0  0  0  0  0  0  0  0
  190.6510  176.9880  144.7240 C   0  0  0  0  0  0  0  0  0  0  0  0
  188.7540  178.2450  147.1510 N   0  0  1  0  0  0  0  0  0  0  0  0
  190.8360  177.5800  148.0240 C   0  0  0  0  0  0  0  0  0  0  0  0
  185.5410  177.6730  146.3770 C   0  0  0  0  0  2  0  0  0  0  0  0
  186.0930  177.9330  143.3300 C   0  0  0  0  0  3  0  0  0  0  0  0
  189.8050  178.6280  148.0940 C   0  0  0  0  0  2  0  0  0  0  0  0
  186.3600  178.5750  147.2360 C   0  0  0  0  0  0  0  0  0  0  0  0
  186.0620  179.7530  147.3460 O   0  0  0  0  0  0  0  0  0  0  0  0
  188.8360  177.7920  142.7620 C   0  0  0  0  0  0  0  0  0  0  0  0
  186.5690  178.3250  142.0800 C   0  0  0  0  0  3  0  0  0  0  0  0
  186.4300  176.9180  145.5120 N   0  0  0  0  0  2  0  0  0  0  0  0
  189.3210  177.1230  145.0540 C   0  0  0  0  0  0  0  0  0  0  0  0
  187.9280  178.2410  141.7800 C   0  0  0  0  0  0  0  0  0  0  0  0
  188.3620  178.6280  140.4610 C   0  0  0  0  0  0  0  0  0  0  0  0
  188.7100  178.9380  139.4010 N   0  0  0  0  0  0  0  0  0  0  0  0
  1  3  1  0  0  0  0
  1 22  1  0  0  0  0
  2 22  1  6  0  0  0
  2  9  1  0  0  0  0
  2 12  1  0  0  0  0
  3 21  1  0  0  0  0
  4 19  1  0  0  0  0
  4  5  2  0  0  0  0
  5 11  1  0  0  0  0
  8  9  1  0  0  0  0
  9  7  1  1  0  0  0
  9 13  1  0  0  0  0
 11 22  2  0  0  0  0
 11  8  1  0  0  0  0
 12  6  1  1  0  0  0
 12 16  1  0  0  0  0
 13 16  1  0  0  0  0
 13 10  2  0  0  0  0
 14 17  1  0  0  0  0
 15  3  2  0  0  0  0
 17 18  2  0  0  0  0
 17  6  1  0  0  0  0
 19  1  2  0  0  0  0
 20 15  1  0  0  0  0
 21 14  1  0  0  0  0
 23 20  2  0  0  0  0
 23 19  1  0  0  0  0
 24 23  1  0  0  0  0
 25 24  3  0  0  0  0
M  END
>  <MODEL>
4

>  <REMARK>
 VINA RESULT:      -7.8      2.287      4.104
  Name = 
  1 active torsions:
  status: ('A' for Active; 'I' for Inactive)
    1  A    between atoms: C_4  and  C_25
                            x       y       z     vdW  Elec       q    Type
                         _______ _______ _______ _____ _____    ______ ____

>  <TORSDO>
F 1

$$$$
=
 OpenBabel10222417093D

 25 29  0  0  1  0  0  0  0  0999 V2000
  184.6710  178.7850  143.2720 C   0  0  0  0  0  0  0  0  0  0  0  0
  183.7440  179.0590  140.8290 C   0  0  1  0  0  3  0  0  0  0  0  0
  183.4990  179.1960  143.9470 C   0  0  0  0  0  0  0  0  0  0  0  0
  186.9850  177.9850  143.3860 C   0  0  0  0  0  3  0  0  0  0  0  0
  187.1120  178.1150  142.0010 C   0  0  0  0  0  3  0  0  0  0  0  0
  181.4290  178.5340  140.9210 C   0  0  0  0  0  2  0  0  0  0  0  0
  184.4070  180.2530  138.8360 O   0  0  0  0  0  1  0  0  0  0  0  0
  185.9770  178.6880  139.7950 C   0  0  0  0  0  2  0  0  0  0  0  0
  184.5160  179.0310  139.5010 C   0  0  1  0  0  0  0  0  0  0  0  0
  184.1500  177.6450  137.6030 O   0  0  0  0  0  0  0  0  0  0  0  0
  186.0090  178.5320  141.2640 C   0  0  0  0  0  0  0  0  0  0  0  0
  182.7620  177.9520  140.8300 N   0  0  1  0  0  0  0  0  0  0  0  0
  183.8600  177.9530  138.7490 C   0  0  0  0  0  0  0  0  0  0  0  0
  181.0820  179.4770  143.3000 C   0  0  0  0  0  2  0  0  0  0  0  0
  183.3920  179.0200  145.3290 C   0  0  0  0  0  3  0  0  0  0  0  0
  182.8170  177.2760  139.5340 C   0  0  0  0  0  2  0  0  0  0  0  0
  180.8980  178.3770  142.3100 C   0  0  0  0  0  0  0  0  0  0  0  0
  180.3260  177.3500  142.6360 O   0  0  0  0  0  0  0  0  0  0  0  0
  185.7750  178.3020  144.0350 C   0  0  0  0  0  0  0  0  0  0  0  0
  184.4500  178.4850  146.0610 C   0  0  0  0  0  3  0  0  0  0  0  0
  182.4680  179.9100  143.2640 N   0  0  0  0  0  2  0  0  0  0  0  0
  184.8030  178.8180  141.8620 C   0  0  0  0  0  0  0  0  0  0  0  0
  185.6460  178.1420  145.4310 C   0  0  0  0  0  0  0  0  0  0  0  0
  186.7210  177.6240  146.2410 C   0  0  0  0  0  0  0  0  0  0  0  0
  187.5830  177.2080  146.8920 N   0  0  0  0  0  0  0  0  0  0  0  0
  1  3  2  0  0  0  0
  1 19  1  0  0  0  0
  2 12  1  0  0  0  0
  2 22  1  1  0  0  0
  3 15  1  0  0  0  0
  4 19  1  0  0  0  0
  5  4  2  0  0  0  0
  6 17  1  0  0  0  0
  8 11  1  0  0  0  0
  9  7  1  6  0  0  0
  9  8  1  0  0  0  0
  9  2  1  0  0  0  0
 10 13  2  0  0  0  0
 11 22  2  0  0  0  0
 11  5  1  0  0  0  0
 12 16  1  6  0  0  0
 12  6  1  0  0  0  0
 13  9  1  0  0  0  0
 13 16  1  0  0  0  0
 15 20  2  0  0  0  0
 17 18  2  0  0  0  0
 17 14  1  0  0  0  0
 19 23  2  0  0  0  0
 21 14  1  0  0  0  0
 21  3  1  0  0  0  0
 22  1  1  0  0  0  0
 23 20  1  0  0  0  0
 23 24  1  0  0  0  0
 24 25  3  0  0  0  0
M  END
>  <MODEL>
5

>  <REMARK>
 VINA RESULT:      -7.7      3.873      6.619
  Name = 
  1 active torsions:
  status: ('A' for Active; 'I' for Inactive)
    1  A    between atoms: C_4  and  C_25
                            x       y       z     vdW  Elec       q    Type
                         _______ _______ _______ _____ _____    ______ ____

>  <TORSDO>
F 1

$$$$
=
 OpenBabel10222417093D

 25 29  0  0  1  0  0  0  0  0999 V2000
  183.8500  178.9500  142.7090 C   0  0  0  0  0  0  0  0  0  0  0  0
  182.4660  179.0980  140.4800 C   0  0  1  0  0  3  0  0  0  0  0  0
  182.7740  179.1940  143.5930 C   0  0  0  0  0  0  0  0  0  0  0  0
  186.2330  178.4770  142.3850 C   0  0  0  0  0  3  0  0  0  0  0  0
  186.0880  178.6260  141.0040 C   0  0  0  0  0  3  0  0  0  0  0  0
  180.3000  178.2570  140.9710 C   0  0  0  0  0  2  0  0  0  0  0  0
  182.5900  180.3740  138.4330 O   0  0  0  0  0  1  0  0  0  0  0  0
  184.5050  179.0400  139.0530 C   0  0  0  0  0  2  0  0  0  0  0  0
  182.9820  179.1780  139.0350 C   0  0  1  0  0  0  0  0  0  0  0  0
  182.4700  177.7580  137.1970 O   0  0  0  0  0  0  0  0  0  0  0  0
  184.8230  178.8880  140.4870 C   0  0  0  0  0  0  0  0  0  0  0  0
  181.6610  177.8650  140.6280 N   0  0  1  0  0  0  0  0  0  0  0  0
  182.3540  178.0220  138.3840 C   0  0  0  0  0  0  0  0  0  0  0  0
  180.2650  179.1390  143.3980 C   0  0  0  0  0  2  0  0  0  0  0  0
  182.9440  179.0030  144.9670 C   0  0  0  0  0  3  0  0  0  0  0  0
  181.5710  177.2050  139.3250 C   0  0  0  0  0  2  0  0  0  0  0  0
  180.0560  178.0250  142.4280 C   0  0  0  0  0  0  0  0  0  0  0  0
  179.6970  176.9290  142.8240 O   0  0  0  0  0  0  0  0  0  0  0  0
  185.1280  178.6230  143.2490 C   0  0  0  0  0  0  0  0  0  0  0  0
  184.1800  178.6180  145.4830 C   0  0  0  0  0  3  0  0  0  0  0  0
  181.5500  179.7590  143.1260 N   0  0  0  0  0  2  0  0  0  0  0  0
  183.7180  179.0030  141.2990 C   0  0  0  0  0  0  0  0  0  0  0  0
  185.2780  178.4450  144.6400 C   0  0  0  0  0  0  0  0  0  0  0  0
  186.5410  178.0780  145.2310 C   0  0  0  0  0  0  0  0  0  0  0  0
  187.5560  177.7840  145.7060 N   0  0  0  0  0  0  0  0  0  0  0  0
  1 19  1  0  0  0  0
  1  3  2  0  0  0  0
  2 12  1  0  0  0  0
  2 22  1  1  0  0  0
  3 15  1  0  0  0  0
  4 19  1  0  0  0  0
  5  4  2  0  0  0  0
  6 17  1  0  0  0  0
  8 11  1  0  0  0  0
  9  7  1  6  0  0  0
  9  8  1  0  0  0  0
  9  2  1  0  0  0  0
 10 13  2  0  0  0  0
 11  5  1  0  0  0  0
 11 22  2  0  0  0  0
 12 16  1  6  0  0  0
 12  6  1  0  0  0  0
 13  9  1  0  0  0  0
 13 16  1  0  0  0  0
 15 20  2  0  0  0  0
 17 18  2  0  0  0  0
 17 14  1  0  0  0  0
 19 23  2  0  0  0  0
 21 14  1  0  0  0  0
 21  3  1  0  0  0  0
 22  1  1  0  0  0  0
 23 24  1  0  0  0  0
 23 20  1  0  0  0  0
 24 25  3  0  0  0  0
M  END
>  <MODEL>
6

>  <REMARK>
 VINA RESULT:      -7.6      4.578      7.413
  Name = 
  1 active torsions:
  status: ('A' for Active; 'I' for Inactive)
    1  A    between atoms: C_4  and  C_25
                            x       y       z     vdW  Elec       q    Type
                         _______ _______ _______ _____ _____    ______ ____

>  <TORSDO>
F 1

$$$$
=
 OpenBabel10222417093D

 25 29  0  0  1  0  0  0  0  0999 V2000
  187.5540  178.0330  140.5760 C   0  0  0  0  0  0  0  0  0  0  0  0
  187.8160  177.8490  137.9680 C   0  0  1  0  0  3  0  0  0  0  0  0
  186.2430  178.5640  140.5790 C   0  0  0  0  0  0  0  0  0  0  0  0
  189.5090  177.2670  141.8410 C   0  0  0  0  0  3  0  0  0  0  0  0
  190.2390  177.1370  140.6570 C   0  0  0  0  0  3  0  0  0  0  0  0
  185.6600  177.3520  137.1050 C   0  0  0  0  0  2  0  0  0  0  0  0
  189.3820  178.6510  136.3130 O   0  0  0  0  0  1  0  0  0  0  0  0
  190.2370  177.2900  138.1160 C   0  0  0  0  0  2  0  0  0  0  0  0
  189.0860  177.5740  137.1490 C   0  0  1  0  0  0  0  0  0  0  0  0
  189.4740  175.8590  135.5470 O   0  0  0  0  0  0  0  0  0  0  0  0
  189.6100  177.4100  139.4480 C   0  0  0  0  0  0  0  0  0  0  0  0
  186.8440  176.7630  137.7160 N   0  0  1  0  0  0  0  0  0  0  0  0
  188.7390  176.3750  136.3740 C   0  0  0  0  0  0  0  0  0  0  0  0
  184.3860  178.7210  138.8870 C   0  0  0  0  0  2  0  0  0  0  0  0
  185.5280  178.6480  141.7770 C   0  0  0  0  0  3  0  0  0  0  0  0
  187.4040  175.8560  136.7130 C   0  0  0  0  0  2  0  0  0  0  0  0
  184.5630  177.4560  138.1170 C   0  0  0  0  0  0  0  0  0  0  0  0
  183.8230  176.5080  138.3190 O   0  0  0  0  0  0  0  0  0  0  0  0
  188.1670  177.7000  141.8190 C   0  0  0  0  0  0  0  0  0  0  0  0
  186.1100  178.2580  142.9810 C   0  0  0  0  0  3  0  0  0  0  0  0
  185.6790  179.1390  139.4010 N   0  0  0  0  0  2  0  0  0  0  0  0
  188.2920  177.8030  139.3890 C   0  0  0  0  0  0  0  0  0  0  0  0
  187.4280  177.8030  143.0170 C   0  0  0  0  0  0  0  0  0  0  0  0
  187.9920  177.4430  144.2940 C   0  0  0  0  0  0  0  0  0  0  0  0
  188.4440  177.1550  145.3200 N   0  0  0  0  0  0  0  0  0  0  0  0
  1  3  2  0  0  0  0
  1 19  1  0  0  0  0
  2 22  1  1  0  0  0
  3 15  1  0  0  0  0
  5  4  2  0  0  0  0
  6 12  1  0  0  0  0
  6 17  1  0  0  0  0
  8 11  1  0  0  0  0
  9  7  1  6  0  0  0
  9  2  1  0  0  0  0
  9  8  1  0  0  0  0
 10 13  2  0  0  0  0
 11  5  1  0  0  0  0
 12 16  1  6  0  0  0
 12  2  1  0  0  0  0
 13 16  1  0  0  0  0
 13  9  1  0  0  0  0
 14 21  1  0  0  0  0
 15 20  2  0  0  0  0
 17 18  2  0  0  0  0
 17 14  1  0  0  0  0
 19  4  1  0  0  0  0
 19 23  2  0  0  0  0
 20 23  1  0  0  0  0
 21  3  1  0  0  0  0
 22 11  2  0  0  0  0
 22  1  1  0  0  0  0
 23 24  1  0  0  0  0
 24 25  3  0  0  0  0
M  END
>  <MODEL>
7

>  <REMARK>
 VINA RESULT:      -7.1      4.326      6.873
  Name = 
  1 active torsions:
  status: ('A' for Active; 'I' for Inactive)
    1  A    between atoms: C_4  and  C_25
                            x       y       z     vdW  Elec       q    Type
                         _______ _______ _______ _____ _____    ______ ____

>  <TORSDO>
F 1

$$$$
=
 OpenBabel10222417093D

 25 29  0  0  1  0  0  0  0  0999 V2000
  187.4740  177.4920  144.8600 C   0  0  0  0  0  0  0  0  0  0  0  0
  186.3970  177.6620  142.4700 C   0  0  1  0  0  3  0  0  0  0  0  0
  188.6040  176.7290  144.4840 C   0  0  0  0  0  0  0  0  0  0  0  0
  186.2080  178.6350  146.6200 C   0  0  0  0  0  3  0  0  0  0  0  0
  185.1580  178.8710  145.7280 C   0  0  0  0  0  3  0  0  0  0  0  0
  188.1950  177.7330  140.9200 C   0  0  0  0  0  2  0  0  0  0  0  0
  184.2600  177.1280  141.4790 O   0  0  0  0  0  1  0  0  0  0  0  0
  184.2920  178.6630  143.3440 C   0  0  0  0  0  2  0  0  0  0  0  0
  184.9920  178.1490  142.0840 C   0  0  1  0  0  0  0  0  0  0  0  0
  184.3860  179.8700  140.5570 O   0  0  0  0  0  0  0  0  0  0  0  0
  185.2960  178.4590  144.4070 C   0  0  0  0  0  0  0  0  0  0  0  0
  187.3970  178.5450  141.8290 N   0  0  1  0  0  0  0  0  0  0  0  0
  185.2570  179.2450  141.1430 C   0  0  0  0  0  0  0  0  0  0  0  0
  189.7400  176.1930  142.3030 C   0  0  0  0  0  2  0  0  0  0  0  0
  189.6510  176.5410  145.3900 C   0  0  0  0  0  3  0  0  0  0  0  0
  186.6950  179.5160  140.9890 C   0  0  0  0  0  2  0  0  0  0  0  0
  189.5320  177.4510  141.5290 C   0  0  0  0  0  0  0  0  0  0  0  0
  190.4440  178.2500  141.4040 O   0  0  0  0  0  0  0  0  0  0  0  0
  187.3740  177.9610  146.2030 C   0  0  0  0  0  0  0  0  0  0  0  0
  189.5760  177.0590  146.6810 C   0  0  0  0  0  3  0  0  0  0  0  0
  188.6410  176.0330  143.2380 N   0  0  0  0  0  2  0  0  0  0  0  0
  186.4340  177.8280  143.9590 C   0  0  0  0  0  0  0  0  0  0  0  0
  188.4400  177.7500  147.1020 C   0  0  0  0  0  0  0  0  0  0  0  0
  188.4010  178.2370  148.4590 C   0  0  0  0  0  0  0  0  0  0  0  0
  188.3700  178.6280  149.5490 N   0  0  0  0  0  0  0  0  0  0  0  0
  1 19  1  0  0  0  0
  2 22  1  1  0  0  0
  3  1  2  0  0  0  0
  3 15  1  0  0  0  0
  5  4  2  0  0  0  0
  6 17  1  0  0  0  0
  8 11  1  0  0  0  0
  9  7  1  6  0  0  0
  9  2  1  0  0  0  0
  9  8  1  0  0  0  0
 10 13  2  0  0  0  0
 11  5  1  0  0  0  0
 12  6  1  6  0  0  0
 12  2  1  0  0  0  0
 13  9  1  0  0  0  0
 14 21  1  0  0  0  0
 15 20  2  0  0  0  0
 16 13  1  0  0  0  0
 16 12  1  0  0  0  0
 17 14  1  0  0  0  0
 18 17  2  0  0  0  0
 19  4  1  0  0  0  0
 19 23  2  0  0  0  0
 20 23  1  0  0  0  0
 21  3  1  0  0  0  0
 22 11  2  0  0  0  0
 22  1  1  0  0  0  0
 23 24  1  0  0  0  0
 24 25  3  0  0  0  0
M  END
>  <MODEL>
8

>  <REMARK>
 VINA RESULT:      -6.9      2.628      5.242
  Name = 
  1 active torsions:
  status: ('A' for Active; 'I' for Inactive)
    1  A    between atoms: C_4  and  C_25
                            x       y       z     vdW  Elec       q    Type
                         _______ _______ _______ _____ _____    ______ ____

>  <TORSDO>
F 1

$$$$
=
 OpenBabel10222417093D

 25 29  0  0  1  0  0  0  0  0999 V2000
  187.2040  178.2720  140.7060 C   0  0  0  0  0  0  0  0  0  0  0  0
  189.4450  177.9430  142.0380 C   0  0  1  0  0  3  0  0  0  0  0  0
  187.7830  178.3630  139.4190 C   0  0  0  0  0  0  0  0  0  0  0  0
  185.1920  178.2760  142.1050 C   0  0  0  0  0  3  0  0  0  0  0  0
  185.9790  178.2760  143.2590 C   0  0  0  0  0  3  0  0  0  0  0  0
  190.9020  176.7170  140.6180 C   0  0  0  0  0  2  0  0  0  0  0  0
  190.5540  179.0400  143.8820 O   0  0  0  0  0  1  0  0  0  0  0  0
  188.3240  178.1870  144.2470 C   0  0  0  0  0  2  0  0  0  0  0  0
  189.6760  178.0060  143.5550 C   0  0  1  0  0  0  0  0  0  0  0  0
  190.6390  176.3610  144.9780 O   0  0  0  0  0  0  0  0  0  0  0  0
  187.3630  178.2260  143.1270 C   0  0  0  0  0  0  0  0  0  0  0  0
  189.7980  176.5880  141.5600 N   0  0  1  0  0  0  0  0  0  0  0  0
  190.2580  176.6940  143.8660 C   0  0  0  0  0  0  0  0  0  0  0  0
  190.0220  177.7750  138.4320 C   0  0  0  0  0  2  0  0  0  0  0  0
  186.9680  178.3280  138.2840 C   0  0  0  0  0  3  0  0  0  0  0  0
  190.3220  175.8150  142.6880 C   0  0  0  0  0  2  0  0  0  0  0  0
  190.3970  176.5640  139.2180 C   0  0  0  0  0  0  0  0  0  0  0  0
  190.2830  175.4550  138.7250 O   0  0  0  0  0  0  0  0  0  0  0  0
  185.7830  178.2630  140.8260 C   0  0  0  0  0  0  0  0  0  0  0  0
  185.5820  178.2510  138.4070 C   0  0  0  0  0  3  0  0  0  0  0  0
  189.1770  178.6220  139.2550 N   0  0  0  0  0  2  0  0  0  0  0  0
  187.9710  178.1780  141.8930 C   0  0  0  0  0  0  0  0  0  0  0  0
  184.9810  178.2380  139.6660 C   0  0  0  0  0  0  0  0  0  0  0  0
  183.5410  178.1920  139.7350 C   0  0  0  0  0  0  0  0  0  0  0  0
  182.3850  178.1540  139.7900 N   0  0  0  0  0  0  0  0  0  0  0  0
  1 19  2  0  0  0  0
  1 22  1  0  0  0  0
  2 22  1  1  0  0  0
  2  9  1  0  0  0  0
  3  1  1  0  0  0  0
  4  5  2  0  0  0  0
  9 13  1  0  0  0  0
  9  7  1  1  0  0  0
  9  8  1  0  0  0  0
 11  5  1  0  0  0  0
 11  8  1  0  0  0  0
 12  6  1  6  0  0  0
 12  2  1  0  0  0  0
 12 16  1  0  0  0  0
 13 10  2  0  0  0  0
 14 17  1  0  0  0  0
 14 21  1  0  0  0  0
 15 20  1  0  0  0  0
 15  3  2  0  0  0  0
 16 13  1  0  0  0  0
 17  6  1  0  0  0  0
 18 17  2  0  0  0  0
 19  4  1  0  0  0  0
 20 23  2  0  0  0  0
 21  3  1  0  0  0  0
 22 11  2  0  0  0  0
 23 24  1  0  0  0  0
 23 19  1  0  0  0  0
 24 25  3  0  0  0  0
M  END
>  <MODEL>
9

>  <REMARK>
 VINA RESULT:      -6.8      2.806      5.360
  Name = 
  1 active torsions:
  status: ('A' for Active; 'I' for Inactive)
    1  A    between atoms: C_4  and  C_25
                            x       y       z     vdW  Elec       q    Type
                         _______ _______ _______ _____ _____    ______ ____

>  <TORSDO>
F 1

$$$$
