=
 OpenBabel10222417263D

 28 31  0  0  1  0  0  0  0  0999 V2000
  189.7600  176.3720  139.5470 N   0  0  0  0  0  0  0  0  0  0  0  0
  189.4290  178.5490  137.5100 C   0  0  0  0  0  3  0  0  0  0  0  0
  188.4110  178.4060  139.8160 C   0  0  0  0  0  0  0  0  0  0  0  0
  190.1050  174.6570  137.5650 Cl  0  0  0  0  0  0  0  0  0  0  0  0
  188.5200  178.9610  138.5960 C   0  0  0  0  0  3  0  0  0  0  0  0
  189.3310  177.3430  140.3010 C   0  0  0  0  0  0  0  0  0  0  0  0
  189.3810  176.1680  138.1570 C   0  0  2  0  0  3  0  0  0  0  0  0
  189.8530  177.3030  137.3150 C   0  0  0  0  0  3  0  0  0  0  0  0
  188.3590  177.1420  143.6220 C   0  0  0  0  0  2  0  0  0  0  0  0
  188.9430  176.4170  142.5050 N   0  0  0  0  0  2  0  0  0  0  0  0
  191.2260  177.0690  141.8880 C   0  0  0  0  0  2  0  0  0  0  0  0
  191.7270  177.4480  143.2750 C   0  0  0  0  0  2  0  0  0  0  0  0
  190.4210  177.2380  145.0620 C   0  0  1  0  0  3  0  0  0  0  0  0
  191.2780  176.5190  144.2190 O   0  0  0  0  0  0  0  0  0  0  0  0
  188.9980  176.7040  144.9330 C   0  0  0  0  0  2  0  0  0  0  0  0
  189.7370  177.3700  141.7430 C   0  0  1  0  0  3  0  0  0  0  0  0
  190.8710  177.1480  146.4930 C   0  0  0  0  0  0  0  0  0  0  0  0
  189.9240  177.3780  147.6250 C   0  0  0  0  0  1  0  0  0  0  0  0
  192.0330  176.8670  146.7400 O   0  0  0  0  0  0  0  0  0  0  0  0
  187.4850  178.9550  140.7670 N   0  0  0  0  0  2  0  0  0  0  0  0
  185.4830  178.2090  142.1660 C   0  0  0  0  0  3  0  0  0  0  0  0
  183.5960  179.7810  139.0630 C   0  0  0  0  0  3  0  0  0  0  0  0
  183.9660  178.5040  140.6890 N   0  0  0  0  0  0  0  0  0  0  0  0
  184.1330  178.2170  141.9650 N   0  0  0  0  0  2  0  0  0  0  0  0
  185.0900  178.7550  140.0880 C   0  0  0  0  0  0  0  0  0  0  0  0
  186.1210  178.5610  140.9640 C   0  0  0  0  0  0  0  0  0  0  0  0
  184.9510  179.5800  139.0400 N   0  0  0  0  0  0  0  0  0  0  0  0
  182.9850  179.1630  140.1150 N   0  0  0  0  0  0  0  0  0  0  0  0
  1  6  2  0  0  0  0
  2  5  1  0  0  0  0
  3  6  1  0  0  0  0
  3 20  1  0  0  0  0
  5  3  2  0  0  0  0
  7  4  1  6  0  0  0
  7  1  1  0  0  0  0
  8  2  2  0  0  0  0
  8  7  1  0  0  0  0
  9 15  1  0  0  0  0
 10  9  1  0  0  0  0
 11 12  1  0  0  0  0
 12 14  1  0  0  0  0
 13 17  1  1  0  0  0
 14 13  1  0  0  0  0
 15 13  1  0  0  0  0
 16  6  1  6  0  0  0
 16 11  1  0  0  0  0
 16 10  1  0  0  0  0
 17 19  2  0  0  0  0
 17 18  1  0  0  0  0
 20 26  1  0  0  0  0
 22 28  2  0  0  0  0
 23 24  1  0  0  0  0
 24 21  1  0  0  0  0
 25 23  1  0  0  0  0
 25 26  1  0  0  0  0
 26 21  2  0  0  0  0
 27 22  1  0  0  0  0
 27 25  2  0  0  0  0
 28 23  1  0  0  0  0
M  END
>  <MODEL>
1

>  <REMARK>
 VINA RESULT:      -7.9      0.000      0.000
  Name = 
  4 active torsions:
  status: ('A' for Active; 'I' for Inactive)
    1  A    between atoms: C_4  and  C_21
    2  A    between atoms: N_9  and  C_10
    3  A    between atoms: N_9  and  C_19
    4  A    between atoms: C_20  and  C_28
                            x       y       z     vdW  Elec       q    Type
                         _______ _______ _______ _____ _____    ______ ____

>  <TORSDO>
F 4

$$$$
=
 OpenBabel10222417263D

 28 31  0  0  1  0  0  0  0  0999 V2000
  190.4400  176.7130  140.7070 N   0  0  0  0  0  0  0  0  0  0  0  0
  188.7940  178.7590  139.2550 C   0  0  0  0  0  3  0  0  0  0  0  0
  188.2340  177.5430  141.3960 C   0  0  0  0  0  0  0  0  0  0  0  0
  191.4760  175.9910  138.3840 Cl  0  0  0  0  0  0  0  0  0  0  0  0
  187.9110  178.3360  140.3590 C   0  0  0  0  0  3  0  0  0  0  0  0
  189.6240  177.0800  141.6530 C   0  0  0  0  0  0  0  0  0  0  0  0
  190.1060  176.6690  139.2910 C   0  0  2  0  0  3  0  0  0  0  0  0
  189.8060  178.0360  138.7820 C   0  0  0  0  0  3  0  0  0  0  0  0
  191.3250  175.2680  144.0680 C   0  0  0  0  0  2  0  0  0  0  0  0
  191.4050  176.3830  143.1380 N   0  0  0  0  0  2  0  0  0  0  0  0
  190.0840  178.3630  143.7330 C   0  0  0  0  0  2  0  0  0  0  0  0
  190.1850  178.2460  145.2480 C   0  0  0  0  0  2  0  0  0  0  0  0
  191.3620  176.6140  146.1950 C   0  0  1  0  0  3  0  0  0  0  0  0
  191.4840  177.8840  145.6170 O   0  0  0  0  0  0  0  0  0  0  0  0
  192.0960  175.5830  145.3440 C   0  0  0  0  0  2  0  0  0  0  0  0
  190.0810  176.9860  143.0760 C   0  0  1  0  0  3  0  0  0  0  0  0
  191.9090  176.6030  147.5940 C   0  0  0  0  0  0  0  0  0  0  0  0
  192.7710  175.4860  148.0860 C   0  0  0  0  0  1  0  0  0  0  0  0
  191.6580  177.5330  148.3440 O   0  0  0  0  0  0  0  0  0  0  0  0
  187.2500  177.2530  142.4020 N   0  0  0  0  0  2  0  0  0  0  0  0
  185.1810  178.7490  142.4220 C   0  0  0  0  0  3  0  0  0  0  0  0
  185.6200  178.1430  146.3080 C   0  0  0  0  0  3  0  0  0  0  0  0
  185.1150  179.1300  144.5250 N   0  0  0  0  0  0  0  0  0  0  0  0
  184.4270  179.3060  143.4130 N   0  0  0  0  0  2  0  0  0  0  0  0
  186.1990  178.4410  144.3300 C   0  0  0  0  0  0  0  0  0  0  0  0
  186.3300  178.1770  142.9960 C   0  0  0  0  0  0  0  0  0  0  0  0
  186.5890  177.7600  145.4180 N   0  0  0  0  0  0  0  0  0  0  0  0
  184.6710  178.9460  145.7470 N   0  0  0  0  0  0  0  0  0  0  0  0
  1  6  2  0  0  0  0
  2  5  1  0  0  0  0
  3  6  1  0  0  0  0
  3 20  1  0  0  0  0
  5  3  2  0  0  0  0
  7  4  1  6  0  0  0
  7  1  1  0  0  0  0
  8  2  2  0  0  0  0
  8  7  1  0  0  0  0
  9 15  1  0  0  0  0
 10  9  1  0  0  0  0
 11 12  1  0  0  0  0
 12 14  1  0  0  0  0
 13 17  1  1  0  0  0
 14 13  1  0  0  0  0
 15 13  1  0  0  0  0
 16  6  1  6  0  0  0
 16 10  1  0  0  0  0
 16 11  1  0  0  0  0
 17 18  1  0  0  0  0
 17 19  2  0  0  0  0
 20 26  1  0  0  0  0
 21 26  2  0  0  0  0
 21 24  1  0  0  0  0
 23 28  1  0  0  0  0
 24 23  1  0  0  0  0
 25 23  1  0  0  0  0
 25 27  2  0  0  0  0
 26 25  1  0  0  0  0
 27 22  1  0  0  0  0
 28 22  2  0  0  0  0
M  END
>  <MODEL>
2

>  <REMARK>
 VINA RESULT:      -7.8      2.105      3.180
  Name = 
  4 active torsions:
  status: ('A' for Active; 'I' for Inactive)
    1  A    between atoms: C_4  and  C_21
    2  A    between atoms: N_9  and  C_10
    3  A    between atoms: N_9  and  C_19
    4  A    between atoms: C_20  and  C_28
                            x       y       z     vdW  Elec       q    Type
                         _______ _______ _______ _____ _____    ______ ____

>  <TORSDO>
F 4

$$$$
=
 OpenBabel10222417263D

 28 31  0  0  1  0  0  0  0  0999 V2000
  190.3470  178.3850  142.9250 N   0  0  0  0  0  0  0  0  0  0  0  0
  189.7430  176.7650  145.3770 C   0  0  0  0  0  3  0  0  0  0  0  0
  188.2100  177.2910  143.4410 C   0  0  0  0  0  0  0  0  0  0  0  0
  192.0740  179.7870  144.3530 Cl  0  0  0  0  0  0  0  0  0  0  0  0
  188.4460  176.8140  144.6760 C   0  0  0  0  0  3  0  0  0  0  0  0
  189.2980  177.7250  142.5240 C   0  0  0  0  0  0  0  0  0  0  0  0
  190.5860  178.8160  144.2940 C   0  0  2  0  0  3  0  0  0  0  0  0
  190.7300  177.6390  145.1950 C   0  0  0  0  0  3  0  0  0  0  0  0
  187.4550  178.1730  139.6230 C   0  0  0  0  0  2  0  0  0  0  0  0
  188.6290  178.6010  140.3680 N   0  0  0  0  0  2  0  0  0  0  0  0
  190.4750  176.9880  140.4620 C   0  0  0  0  0  2  0  0  0  0  0  0
  190.2700  176.3420  139.0990 C   0  0  0  0  0  2  0  0  0  0  0  0
  188.6650  177.0410  137.7290 C   0  0  1  0  0  3  0  0  0  0  0  0
  189.9730  177.3180  138.1430 O   0  0  0  0  0  0  0  0  0  0  0  0
  187.7400  178.1860  138.1270 C   0  0  0  0  0  2  0  0  0  0  0  0
  189.1450  177.4300  141.0640 C   0  0  1  0  0  3  0  0  0  0  0  0
  188.6030  176.8290  136.2420 C   0  0  0  0  0  0  0  0  0  0  0  0
  187.6810  177.6260  135.3790 C   0  0  0  0  0  1  0  0  0  0  0  0
  189.3300  175.9970  135.7240 O   0  0  0  0  0  0  0  0  0  0  0  0
  186.8800  177.2360  142.9000 N   0  0  0  0  0  2  0  0  0  0  0  0
  184.6610  178.4090  142.4300 C   0  0  0  0  0  3  0  0  0  0  0  0
  184.6700  178.5290  146.3860 C   0  0  0  0  0  3  0  0  0  0  0  0
  184.2830  179.1230  144.4090 N   0  0  0  0  0  0  0  0  0  0  0  0
  183.7250  179.0130  143.2190 N   0  0  0  0  0  2  0  0  0  0  0  0
  185.4570  178.5700  144.4590 C   0  0  0  0  0  0  0  0  0  0  0  0
  185.7880  178.1080  143.2150 C   0  0  0  0  0  0  0  0  0  0  0  0
  185.7830  178.1430  145.6870 N   0  0  0  0  0  0  0  0  0  0  0  0
  183.7110  179.0860  145.5920 N   0  0  0  0  0  0  0  0  0  0  0  0
  1  7  1  0  0  0  0
  3  5  2  0  0  0  0
  5  2  1  0  0  0  0
  6  1  2  0  0  0  0
  6  3  1  0  0  0  0
  7  4  1  6  0  0  0
  7  8  1  0  0  0  0
  8  2  2  0  0  0  0
  9 10  1  0  0  0  0
 10 16  1  0  0  0  0
 11 16  1  0  0  0  0
 12 11  1  0  0  0  0
 13 17  1  6  0  0  0
 13 15  1  0  0  0  0
 13 14  1  0  0  0  0
 14 12  1  0  0  0  0
 15  9  1  0  0  0  0
 16  6  1  1  0  0  0
 18 17  1  0  0  0  0
 19 17  2  0  0  0  0
 20 26  1  0  0  0  0
 20  3  1  0  0  0  0
 21 26  2  0  0  0  0
 21 24  1  0  0  0  0
 23 25  1  0  0  0  0
 23 28  1  0  0  0  0
 24 23  1  0  0  0  0
 25 27  2  0  0  0  0
 26 25  1  0  0  0  0
 27 22  1  0  0  0  0
 28 22  2  0  0  0  0
M  END
>  <MODEL>
3

>  <REMARK>
 VINA RESULT:      -7.6      3.245      6.279
  Name = 
  4 active torsions:
  status: ('A' for Active; 'I' for Inactive)
    1  A    between atoms: C_4  and  C_21
    2  A    between atoms: N_9  and  C_10
    3  A    between atoms: N_9  and  C_19
    4  A    between atoms: C_20  and  C_28
                            x       y       z     vdW  Elec       q    Type
                         _______ _______ _______ _____ _____    ______ ____

>  <TORSDO>
F 4

$$$$
=
 OpenBabel10222417263D

 28 31  0  0  1  0  0  0  0  0999 V2000
  185.2290  178.2220  142.4880 N   0  0  0  0  0  0  0  0  0  0  0  0
  184.5850  179.6900  145.0240 C   0  0  0  0  0  3  0  0  0  0  0  0
  186.4380  178.0230  144.6160 C   0  0  0  0  0  0  0  0  0  0  0  0
  182.6670  178.3370  141.8450 Cl  0  0  0  0  0  0  0  0  0  0  0  0
  185.6830  178.7890  145.4240 C   0  0  0  0  0  3  0  0  0  0  0  0
  186.3530  178.0910  143.1330 C   0  0  0  0  0  0  0  0  0  0  0  0
  183.9150  178.2830  143.1100 C   0  0  2  0  0  3  0  0  0  0  0  0
  183.7990  179.4950  143.9670 C   0  0  0  0  0  3  0  0  0  0  0  0
  189.4600  176.5830  142.8390 C   0  0  0  0  0  2  0  0  0  0  0  0
  188.0790  176.5670  142.3830 N   0  0  0  0  0  2  0  0  0  0  0  0
  187.4220  178.4170  140.9110 C   0  0  0  0  0  2  0  0  0  0  0  0
  188.7590  178.6260  140.2130 C   0  0  0  0  0  2  0  0  0  0  0  0
  190.5080  177.3350  140.6780 C   0  0  1  0  0  3  0  0  0  0  0  0
  189.3400  177.3920  139.9070 O   0  0  0  0  0  0  0  0  0  0  0  0
  190.4000  176.2090  141.7010 C   0  0  0  0  0  2  0  0  0  0  0  0
  187.6220  177.9490  142.3500 C   0  0  1  0  0  3  0  0  0  0  0  0
  191.7170  177.1220  139.8100 C   0  0  0  0  0  0  0  0  0  0  0  0
  191.6040  176.5100  138.4520 C   0  0  0  0  0  1  0  0  0  0  0  0
  192.8150  177.4680  140.2160 O   0  0  0  0  0  0  0  0  0  0  0  0
  187.4890  177.2210  145.1760 N   0  0  0  0  0  2  0  0  0  0  0  0
  187.9180  177.6370  147.6590 C   0  0  0  0  0  3  0  0  0  0  0  0
  191.5740  176.6740  146.4900 C   0  0  0  0  0  3  0  0  0  0  0  0
  190.0540  177.6110  147.5960 N   0  0  0  0  0  0  0  0  0  0  0  0
  189.0390  177.6430  148.4370 N   0  0  0  0  0  2  0  0  0  0  0  0
  189.6690  177.5050  146.3600 C   0  0  0  0  0  0  0  0  0  0  0  0
  188.3040  177.5420  146.3100 C   0  0  0  0  0  0  0  0  0  0  0  0
  190.5760  176.9010  145.5790 N   0  0  0  0  0  0  0  0  0  0  0  0
  191.2360  177.0600  147.7540 N   0  0  0  0  0  0  0  0  0  0  0  0
  1  7  1  0  0  0  0
  1  6  2  0  0  0  0
  2  5  1  0  0  0  0
  3 20  1  0  0  0  0
  3  5  2  0  0  0  0
  6  3  1  0  0  0  0
  7  4  1  6  0  0  0
  7  8  1  0  0  0  0
  8  2  2  0  0  0  0
 10  9  1  0  0  0  0
 11 16  1  0  0  0  0
 12 11  1  0  0  0  0
 13 17  1  6  0  0  0
 13 15  1  0  0  0  0
 14 12  1  0  0  0  0
 14 13  1  0  0  0  0
 15  9  1  0  0  0  0
 16 10  1  0  0  0  0
 16  6  1  1  0  0  0
 17 19  2  0  0  0  0
 18 17  1  0  0  0  0
 20 26  1  0  0  0  0
 21 24  1  0  0  0  0
 22 28  2  0  0  0  0
 23 28  1  0  0  0  0
 23 24  1  0  0  0  0
 25 23  1  0  0  0  0
 26 25  1  0  0  0  0
 26 21  2  0  0  0  0
 27 25  2  0  0  0  0
 27 22  1  0  0  0  0
M  END
>  <MODEL>
4

>  <REMARK>
 VINA RESULT:      -7.6      3.390      6.993
  Name = 
  4 active torsions:
  status: ('A' for Active; 'I' for Inactive)
    1  A    between atoms: C_4  and  C_21
    2  A    between atoms: N_9  and  C_10
    3  A    between atoms: N_9  and  C_19
    4  A    between atoms: C_20  and  C_28
                            x       y       z     vdW  Elec       q    Type
                         _______ _______ _______ _____ _____    ______ ____

>  <TORSDO>
F 4

$$$$
=
 OpenBabel10222417263D

 28 31  0  0  1  0  0  0  0  0999 V2000
  189.9290  176.3050  139.3870 N   0  0  0  0  0  0  0  0  0  0  0  0
  189.4720  178.3860  137.2750 C   0  0  0  0  0  3  0  0  0  0  0  0
  188.3470  178.1780  139.5260 C   0  0  0  0  0  0  0  0  0  0  0  0
  190.5760  174.5980  137.4760 Cl  0  0  0  0  0  0  0  0  0  0  0  0
  188.4620  178.7150  138.2980 C   0  0  0  0  0  3  0  0  0  0  0  0
  189.3520  177.2380  140.0900 C   0  0  0  0  0  0  0  0  0  0  0  0
  189.6550  176.0290  137.9850 C   0  0  2  0  0  3  0  0  0  0  0  0
  190.0430  177.1920  137.1390 C   0  0  0  0  0  3  0  0  0  0  0  0
  188.1980  177.1000  143.3550 C   0  0  0  0  0  2  0  0  0  0  0  0
  188.8880  176.3710  142.3030 N   0  0  0  0  0  2  0  0  0  0  0  0
  191.1620  177.1380  141.7910 C   0  0  0  0  0  2  0  0  0  0  0  0
  191.5570  177.5970  143.1880 C   0  0  0  0  0  2  0  0  0  0  0  0
  190.1620  177.3730  144.9050 C   0  0  1  0  0  3  0  0  0  0  0  0
  191.1080  176.6780  144.1420 O   0  0  0  0  0  0  0  0  0  0  0  0
  188.7830  176.7500  144.7170 C   0  0  0  0  0  2  0  0  0  0  0  0
  189.6690  177.3420  141.5500 C   0  0  1  0  0  3  0  0  0  0  0  0
  190.5320  177.3630  146.3620 C   0  0  0  0  0  0  0  0  0  0  0  0
  189.5140  177.6150  147.4260 C   0  0  0  0  0  1  0  0  0  0  0  0
  191.6850  177.1310  146.6860 O   0  0  0  0  0  0  0  0  0  0  0  0
  187.3120  178.6390  140.4090 N   0  0  0  0  0  2  0  0  0  0  0  0
  185.2270  178.2580  138.9860 C   0  0  0  0  0  3  0  0  0  0  0  0
  183.5570  178.6300  142.5540 C   0  0  0  0  0  3  0  0  0  0  0  0
  183.7670  178.7490  140.4680 N   0  0  0  0  0  0  0  0  0  0  0  0
  183.8880  178.2530  139.2520 N   0  0  0  0  0  2  0  0  0  0  0  0
  184.9170  178.9920  141.0200 C   0  0  0  0  0  0  0  0  0  0  0  0
  185.9120  178.7260  140.1210 C   0  0  0  0  0  0  0  0  0  0  0  0
  184.8810  178.9210  142.3590 N   0  0  0  0  0  0  0  0  0  0  0  0
  182.8710  178.4660  141.3860 N   0  0  0  0  0  0  0  0  0  0  0  0
  1  6  2  0  0  0  0
  2  5  1  0  0  0  0
  3  6  1  0  0  0  0
  3 20  1  0  0  0  0
  5  3  2  0  0  0  0
  7  4  1  6  0  0  0
  7  1  1  0  0  0  0
  8  2  2  0  0  0  0
  8  7  1  0  0  0  0
  9 15  1  0  0  0  0
 10  9  1  0  0  0  0
 11 12  1  0  0  0  0
 12 14  1  0  0  0  0
 13 17  1  1  0  0  0
 14 13  1  0  0  0  0
 15 13  1  0  0  0  0
 16  6  1  6  0  0  0
 16 11  1  0  0  0  0
 16 10  1  0  0  0  0
 17 19  2  0  0  0  0
 17 18  1  0  0  0  0
 21 24  1  0  0  0  0
 21 26  2  0  0  0  0
 23 25  1  0  0  0  0
 23 28  1  0  0  0  0
 24 23  1  0  0  0  0
 25 27  2  0  0  0  0
 26 20  1  0  0  0  0
 26 25  1  0  0  0  0
 27 22  1  0  0  0  0
 28 22  2  0  0  0  0
M  END
>  <MODEL>
5

>  <REMARK>
 VINA RESULT:      -7.5      0.762      1.322
  Name = 
  4 active torsions:
  status: ('A' for Active; 'I' for Inactive)
    1  A    between atoms: C_4  and  C_21
    2  A    between atoms: N_9  and  C_10
    3  A    between atoms: N_9  and  C_19
    4  A    between atoms: C_20  and  C_28
                            x       y       z     vdW  Elec       q    Type
                         _______ _______ _______ _____ _____    ______ ____

>  <TORSDO>
F 4

$$$$
=
 OpenBabel10222417263D

 28 31  0  0  1  0  0  0  0  0999 V2000
  188.2280  178.6130  139.5170 N   0  0  0  0  0  0  0  0  0  0  0  0
  190.3520  176.5090  139.7640 C   0  0  0  0  0  3  0  0  0  0  0  0
  189.3450  177.9270  141.5940 C   0  0  0  0  0  0  0  0  0  0  0  0
  189.0740  179.0890  137.0590 Cl  0  0  0  0  0  0  0  0  0  0  0  0
  190.2610  177.0590  141.1290 C   0  0  0  0  0  3  0  0  0  0  0  0
  188.1690  178.3600  140.7940 C   0  0  0  0  0  0  0  0  0  0  0  0
  189.4370  178.5450  138.7110 C   0  0  2  0  0  3  0  0  0  0  0  0
  189.9580  177.1500  138.6660 C   0  0  0  0  0  3  0  0  0  0  0  0
  184.8430  179.3180  140.6100 C   0  0  0  0  0  2  0  0  0  0  0  0
  185.7570  178.1880  140.6450 N   0  0  0  0  0  2  0  0  0  0  0  0
  186.8370  177.7580  142.8060 C   0  0  0  0  0  2  0  0  0  0  0  0
  185.7060  178.2260  143.7120 C   0  0  0  0  0  2  0  0  0  0  0  0
  183.7830  178.9490  142.8630 C   0  0  1  0  0  3  0  0  0  0  0  0
  184.4770  177.7850  143.2140 O   0  0  0  0  0  0  0  0  0  0  0  0
  183.5570  178.9850  141.3550 C   0  0  0  0  0  2  0  0  0  0  0  0
  186.8690  178.5620  141.5090 C   0  0  1  0  0  3  0  0  0  0  0  0
  182.4630  179.0270  143.5780 C   0  0  0  0  0  0  0  0  0  0  0  0
  181.2010  179.3570  142.8520 C   0  0  0  0  0  1  0  0  0  0  0  0
  182.4170  178.8030  144.7770 O   0  0  0  0  0  0  0  0  0  0  0  0
  189.3900  178.3400  142.9690 N   0  0  0  0  0  2  0  0  0  0  0  0
  191.5310  177.8700  144.2790 C   0  0  0  0  0  3  0  0  0  0  0  0
  188.8400  177.1150  147.0800 C   0  0  0  0  0  3  0  0  0  0  0  0
  190.6320  176.9680  145.9960 N   0  0  0  0  0  0  0  0  0  0  0  0
  191.7880  177.4090  145.5380 N   0  0  0  0  0  2  0  0  0  0  0  0
  189.6560  177.1840  145.1660 C   0  0  0  0  0  0  0  0  0  0  0  0
  190.1550  177.7400  144.0210 C   0  0  0  0  0  0  0  0  0  0  0  0
  188.4680  177.3080  145.7760 N   0  0  0  0  0  0  0  0  0  0  0  0
  190.1860  176.9590  147.2320 N   0  0  0  0  0  0  0  0  0  0  0  0
  1  6  2  0  0  0  0
  2  5  1  0  0  0  0
  3 20  1  0  0  0  0
  5  3  2  0  0  0  0
  6  3  1  0  0  0  0
  7  4  1  6  0  0  0
  7  1  1  0  0  0  0
  8  7  1  0  0  0  0
  8  2  2  0  0  0  0
  9 10  1  0  0  0  0
  9 15  1  0  0  0  0
 10 16  1  0  0  0  0
 11 12  1  0  0  0  0
 13 14  1  0  0  0  0
 13 17  1  1  0  0  0
 14 12  1  0  0  0  0
 15 13  1  0  0  0  0
 16  6  1  6  0  0  0
 16 11  1  0  0  0  0
 17 19  2  0  0  0  0
 18 17  1  0  0  0  0
 20 26  1  0  0  0  0
 21 24  1  0  0  0  0
 22 28  2  0  0  0  0
 23 28  1  0  0  0  0
 24 23  1  0  0  0  0
 25 27  2  0  0  0  0
 25 23  1  0  0  0  0
 26 21  2  0  0  0  0
 26 25  1  0  0  0  0
 27 22  1  0  0  0  0
M  END
>  <MODEL>
6

>  <REMARK>
 VINA RESULT:      -7.4      3.223      6.414
  Name = 
  4 active torsions:
  status: ('A' for Active; 'I' for Inactive)
    1  A    between atoms: C_4  and  C_21
    2  A    between atoms: N_9  and  C_10
    3  A    between atoms: N_9  and  C_19
    4  A    between atoms: C_20  and  C_28
                            x       y       z     vdW  Elec       q    Type
                         _______ _______ _______ _____ _____    ______ ____

>  <TORSDO>
F 4

$$$$
=
 OpenBabel10222417263D

 28 31  0  0  1  0  0  0  0  0999 V2000
  190.1580  178.2530  142.7530 N   0  0  0  0  0  0  0  0  0  0  0  0
  188.8150  177.0760  145.1630 C   0  0  0  0  0  3  0  0  0  0  0  0
  187.7470  177.8760  143.0200 C   0  0  0  0  0  0  0  0  0  0  0  0
  192.0480  179.1940  144.3440 Cl  0  0  0  0  0  0  0  0  0  0  0  0
  187.6830  177.4480  144.2930 C   0  0  0  0  0  3  0  0  0  0  0  0
  189.0140  177.9000  142.2410 C   0  0  0  0  0  0  0  0  0  0  0  0
  190.3550  178.7000  144.1230 C   0  0  2  0  0  3  0  0  0  0  0  0
  190.0330  177.6060  145.0810 C   0  0  0  0  0  3  0  0  0  0  0  0
  187.3630  178.2530  139.2140 C   0  0  0  0  0  2  0  0  0  0  0  0
  188.4930  178.6980  140.0150 N   0  0  0  0  0  2  0  0  0  0  0  0
  190.3110  177.0740  140.2870 C   0  0  0  0  0  2  0  0  0  0  0  0
  190.1860  176.3780  138.9390 C   0  0  0  0  0  2  0  0  0  0  0  0
  188.6780  177.0380  137.4450 C   0  0  1  0  0  3  0  0  0  0  0  0
  189.9610  177.3190  137.9300 O   0  0  0  0  0  0  0  0  0  0  0  0
  187.7430  178.2060  137.7400 C   0  0  0  0  0  2  0  0  0  0  0  0
  188.9500  177.5510  140.7860 C   0  0  1  0  0  3  0  0  0  0  0  0
  188.7080  176.7690  135.9660 C   0  0  0  0  0  0  0  0  0  0  0  0
  187.8860  175.6830  135.3540 C   0  0  0  0  0  1  0  0  0  0  0  0
  189.4080  177.4620  135.2450 O   0  0  0  0  0  0  0  0  0  0  0  0
  186.5350  178.1710  142.3080 N   0  0  0  0  0  2  0  0  0  0  0  0
  184.9040  179.1690  144.0010 C   0  0  0  0  0  3  0  0  0  0  0  0
  182.4330  178.5190  140.9790 C   0  0  0  0  0  3  0  0  0  0  0  0
  183.0910  178.7160  142.9640 N   0  0  0  0  0  0  0  0  0  0  0  0
  183.5560  179.3790  144.0050 N   0  0  0  0  0  2  0  0  0  0  0  0
  184.0380  178.1740  142.2600 C   0  0  0  0  0  0  0  0  0  0  0  0
  185.2380  178.3960  142.8750 C   0  0  0  0  0  0  0  0  0  0  0  0
  183.7100  178.0230  140.9690 N   0  0  0  0  0  0  0  0  0  0  0  0
  182.0620  179.0030  142.1990 N   0  0  0  0  0  0  0  0  0  0  0  0
  1  7  1  0  0  0  0
  3  5  2  0  0  0  0
  5  2  1  0  0  0  0
  6  1  2  0  0  0  0
  6  3  1  0  0  0  0
  7  4  1  6  0  0  0
  7  8  1  0  0  0  0
  8  2  2  0  0  0  0
  9 10  1  0  0  0  0
 10 16  1  0  0  0  0
 11 16  1  0  0  0  0
 12 11  1  0  0  0  0
 13 17  1  6  0  0  0
 13 15  1  0  0  0  0
 13 14  1  0  0  0  0
 14 12  1  0  0  0  0
 15  9  1  0  0  0  0
 16  6  1  1  0  0  0
 18 17  1  0  0  0  0
 19 17  2  0  0  0  0
 20 26  1  0  0  0  0
 20  3  1  0  0  0  0
 21 24  1  0  0  0  0
 22 28  2  0  0  0  0
 23 24  1  0  0  0  0
 25 26  1  0  0  0  0
 25 23  1  0  0  0  0
 26 21  2  0  0  0  0
 27 22  1  0  0  0  0
 27 25  2  0  0  0  0
 28 23  1  0  0  0  0
M  END
>  <MODEL>
7

>  <REMARK>
 VINA RESULT:      -7.4      3.087      5.921
  Name = 
  4 active torsions:
  status: ('A' for Active; 'I' for Inactive)
    1  A    between atoms: C_4  and  C_21
    2  A    between atoms: N_9  and  C_10
    3  A    between atoms: N_9  and  C_19
    4  A    between atoms: C_20  and  C_28
                            x       y       z     vdW  Elec       q    Type
                         _______ _______ _______ _____ _____    ______ ____

>  <TORSDO>
F 4

$$$$
=
 OpenBabel10222417263D

 28 31  0  0  1  0  0  0  0  0999 V2000
  183.3890  178.7300  143.2500 N   0  0  0  0  0  0  0  0  0  0  0  0
  183.1500  177.5910  140.4850 C   0  0  0  0  0  3  0  0  0  0  0  0
  185.1400  178.7420  141.5290 C   0  0  0  0  0  0  0  0  0  0  0  0
  180.7880  179.1990  143.2140 Cl  0  0  0  0  0  0  0  0  0  0  0  0
  184.4830  178.2220  140.4770 C   0  0  0  0  0  3  0  0  0  0  0  0
  184.6460  178.6200  142.9260 C   0  0  0  0  0  0  0  0  0  0  0  0
  182.3110  179.0170  142.3160 C   0  0  2  0  0  3  0  0  0  0  0  0
  182.1700  177.9140  141.3260 C   0  0  0  0  0  3  0  0  0  0  0  0
  185.6800  179.3770  146.1470 C   0  0  0  0  0  2  0  0  0  0  0  0
  184.9980  178.4010  145.3120 N   0  0  0  0  0  2  0  0  0  0  0  0
  186.4310  177.1170  143.7880 C   0  0  0  0  0  2  0  0  0  0  0  0
  187.6840  177.0730  144.6520 C   0  0  0  0  0  2  0  0  0  0  0  0
  187.7130  177.9910  146.6760 C   0  0  1  0  0  3  0  0  0  0  0  0
  187.3410  176.8310  145.9860 O   0  0  0  0  0  0  0  0  0  0  0  0
  186.4750  178.6790  147.2420 C   0  0  0  0  0  2  0  0  0  0  0  0
  185.6560  178.4130  144.0130 C   0  0  1  0  0  3  0  0  0  0  0  0
  188.6720  177.6720  147.7890 C   0  0  0  0  0  0  0  0  0  0  0  0
  190.0290  177.1130  147.5120 C   0  0  0  0  0  1  0  0  0  0  0  0
  188.3430  177.8870  148.9440 O   0  0  0  0  0  0  0  0  0  0  0  0
  186.4520  179.2960  141.3440 N   0  0  0  0  0  2  0  0  0  0  0  0
  188.5640  177.8680  141.4850 C   0  0  0  0  0  3  0  0  0  0  0  0
  187.6160  177.3060  137.6850 C   0  0  0  0  0  3  0  0  0  0  0  0
  188.8200  177.5150  139.3920 N   0  0  0  0  0  0  0  0  0  0  0  0
  189.2870  177.1560  140.5720 N   0  0  0  0  0  2  0  0  0  0  0  0
  187.8130  178.3300  139.4870 C   0  0  0  0  0  0  0  0  0  0  0  0
  187.5990  178.6290  140.8030 C   0  0  0  0  0  0  0  0  0  0  0  0
  186.9770  178.2530  138.4410 N   0  0  0  0  0  0  0  0  0  0  0  0
  188.7280  176.8020  138.2930 N   0  0  0  0  0  0  0  0  0  0  0  0
  2  8  2  0  0  0  0
  3  6  1  0  0  0  0
  5  2  1  0  0  0  0
  5  3  2  0  0  0  0
  6  1  2  0  0  0  0
  7  4  1  1  0  0  0
  7  1  1  0  0  0  0
  8  7  1  0  0  0  0
  9 15  1  0  0  0  0
 10  9  1  0  0  0  0
 11 16  1  0  0  0  0
 11 12  1  0  0  0  0
 12 14  1  0  0  0  0
 13 15  1  0  0  0  0
 13 17  1  1  0  0  0
 14 13  1  0  0  0  0
 16  6  1  6  0  0  0
 16 10  1  0  0  0  0
 17 19  2  0  0  0  0
 18 17  1  0  0  0  0
 20  3  1  0  0  0  0
 22 28  2  0  0  0  0
 22 27  1  0  0  0  0
 23 25  1  0  0  0  0
 23 24  1  0  0  0  0
 24 21  1  0  0  0  0
 25 26  1  0  0  0  0
 26 20  1  0  0  0  0
 26 21  2  0  0  0  0
 27 25  2  0  0  0  0
 28 23  1  0  0  0  0
M  END
>  <MODEL>
8

>  <REMARK>
 VINA RESULT:      -7.3      3.231      5.341
  Name = 
  4 active torsions:
  status: ('A' for Active; 'I' for Inactive)
    1  A    between atoms: C_4  and  C_21
    2  A    between atoms: N_9  and  C_10
    3  A    between atoms: N_9  and  C_19
    4  A    between atoms: C_20  and  C_28
                            x       y       z     vdW  Elec       q    Type
                         _______ _______ _______ _____ _____    ______ ____

>  <TORSDO>
F 4

$$$$
=
 OpenBabel10222417263D

 28 31  0  0  1  0  0  0  0  0999 V2000
  189.9070  177.8680  142.4260 N   0  0  0  0  0  0  0  0  0  0  0  0
  187.8320  177.1130  144.4570 C   0  0  0  0  0  3  0  0  0  0  0  0
  187.4830  178.1800  142.1960 C   0  0  0  0  0  0  0  0  0  0  0  0
  191.6180  178.2430  144.4060 Cl  0  0  0  0  0  0  0  0  0  0  0  0
  187.0470  177.7870  143.4060 C   0  0  0  0  0  3  0  0  0  0  0  0
  188.8380  177.8490  141.6820 C   0  0  0  0  0  0  0  0  0  0  0  0
  189.9360  178.2420  143.8320 C   0  0  2  0  0  3  0  0  0  0  0  0
  189.1390  177.2810  144.6440 C   0  0  0  0  0  3  0  0  0  0  0  0
  187.9410  178.6040  138.4200 C   0  0  0  0  0  2  0  0  0  0  0  0
  188.9650  178.7590  139.4410 N   0  0  0  0  0  2  0  0  0  0  0  0
  190.2590  176.7420  139.9670 C   0  0  0  0  0  2  0  0  0  0  0  0
  190.2380  176.1030  138.5860 C   0  0  0  0  0  2  0  0  0  0  0  0
  189.2500  177.1140  136.8700 C   0  0  1  0  0  3  0  0  0  0  0  0
  190.4430  177.0750  137.6020 O   0  0  0  0  0  0  0  0  0  0  0  0
  188.5780  178.4730  137.0430 C   0  0  0  0  0  2  0  0  0  0  0  0
  188.9790  177.5320  140.2250 C   0  0  1  0  0  3  0  0  0  0  0  0
  189.5030  176.8530  135.4120 C   0  0  0  0  0  0  0  0  0  0  0  0
  190.7810  176.2420  134.9390 C   0  0  0  0  0  1  0  0  0  0  0  0
  188.6410  177.1320  134.5940 O   0  0  0  0  0  0  0  0  0  0  0  0
  186.5680  178.8030  141.2790 N   0  0  0  0  0  2  0  0  0  0  0  0
  184.2530  178.2610  142.2090 C   0  0  0  0  0  3  0  0  0  0  0  0
  183.2270  180.1230  138.8700 C   0  0  0  0  0  3  0  0  0  0  0  0
  183.1130  178.7700  140.4720 N   0  0  0  0  0  0  0  0  0  0  0  0
  182.9820  178.4330  141.7410 N   0  0  0  0  0  2  0  0  0  0  0  0
  184.3570  178.9030  140.1230 C   0  0  0  0  0  0  0  0  0  0  0  0
  185.1590  178.5670  141.1780 C   0  0  0  0  0  0  0  0  0  0  0  0
  184.5280  179.7650  139.1110 N   0  0  0  0  0  0  0  0  0  0  0  0
  182.3500  179.5540  139.7460 N   0  0  0  0  0  0  0  0  0  0  0  0
  1  7  1  0  0  0  0
  2  8  2  0  0  0  0
  3  5  2  0  0  0  0
  5  2  1  0  0  0  0
  6  3  1  0  0  0  0
  6  1  2  0  0  0  0
  7  4  1  1  0  0  0
  7  8  1  0  0  0  0
  9 10  1  0  0  0  0
 10 16  1  0  0  0  0
 11 16  1  0  0  0  0
 12 11  1  0  0  0  0
 13 17  1  6  0  0  0
 13 15  1  0  0  0  0
 13 14  1  0  0  0  0
 14 12  1  0  0  0  0
 15  9  1  0  0  0  0
 16  6  1  1  0  0  0
 18 17  1  0  0  0  0
 19 17  2  0  0  0  0
 20  3  1  0  0  0  0
 22 27  1  0  0  0  0
 22 28  2  0  0  0  0
 23 24  1  0  0  0  0
 24 21  1  0  0  0  0
 25 23  1  0  0  0  0
 25 26  1  0  0  0  0
 26 20  1  0  0  0  0
 26 21  2  0  0  0  0
 27 25  2  0  0  0  0
 28 23  1  0  0  0  0
M  END
>  <MODEL>
9

>  <REMARK>
 VINA RESULT:      -7.3      2.975      5.865
  Name = 
  4 active torsions:
  status: ('A' for Active; 'I' for Inactive)
    1  A    between atoms: C_4  and  C_21
    2  A    between atoms: N_9  and  C_10
    3  A    between atoms: N_9  and  C_19
    4  A    between atoms: C_20  and  C_28
                            x       y       z     vdW  Elec       q    Type
                         _______ _______ _______ _____ _____    ______ ____

>  <TORSDO>
F 4

$$$$
