=
 OpenBabel10222416033D

 32 33  0  0  1  0  0  0  0  0999 V2000
  188.5300  178.2300  145.6130 O   0  0  0  0  0  1  0  0  0  0  0  0
  188.6190  177.3440  144.5310 C   0  0  1  0  0  3  0  0  0  0  0  0
  187.2810  177.0710  144.0020 N   0  0  0  0  0  2  0  0  0  0  0  0
  186.2860  177.1870  145.0640 C   0  0  0  0  0  2  0  0  0  0  0  0
  185.1090  178.0250  144.5900 C   0  0  1  0  0  3  0  0  0  0  0  0
  185.3950  178.6370  146.9890 C   0  0  0  0  0  1  0  0  0  0  0  0
  184.6960  178.9890  145.6910 C   0  0  0  0  0  2  0  0  0  0  0  0
  185.5010  178.8020  143.3400 C   0  0  0  0  0  2  0  0  0  0  0  0
  184.3530  178.8450  142.3470 C   0  0  0  0  0  2  0  0  0  0  0  0
  184.8410  178.4490  140.9680 C   0  0  0  0  0  2  0  0  0  0  0  0
  184.7940  179.6030  140.0880 N   0  0  0  0  0  2  0  0  0  0  0  0
  184.0770  176.9330  137.9080 C   0  0  0  0  0  2  0  0  0  0  0  0
  185.6520  178.6820  138.1220 O   0  0  0  0  0  0  0  0  0  0  0  0
  184.4770  179.1130  138.7570 C   0  0  1  0  0  3  0  0  0  0  0  0
  185.2590  177.6300  137.2810 C   0  0  1  0  0  3  0  0  0  0  0  0
  183.5220  177.9470  138.8620 C   0  0  0  0  0  2  0  0  0  0  0  0
  186.4020  176.6480  137.1260 C   0  0  0  0  0  1  0  0  0  0  0  0
  189.5870  177.8610  143.4410 C   0  0  2  0  0  3  0  0  0  0  0  0
  189.1730  177.4220  142.0150 C   0  0  2  0  0  3  0  0  0  0  0  0
  190.6000  176.8470  141.0290 S   0  0  0  0  0  0  0  0  0  0  0  0
  189.9790  176.6510  138.3700 C   0  0  0  0  0  1  0  0  0  0  0  0
  188.5030  178.5300  141.2220 C   0  0  0  0  0  2  0  0  0  0  0  0
  189.9720  177.6400  139.5150 C   0  0  1  0  0  3  0  0  0  0  0  0
  188.5610  178.1190  139.7740 C   0  0  0  0  0  2  0  0  0  0  0  0
  191.0500  177.4910  143.8000 C   0  0  2  0  0  3  0  0  0  0  0  0
  191.8190  175.1050  144.1650 C   0  0  0  0  0  1  0  0  0  0  0  0
  191.1340  176.3210  144.7930 C   0  0  1  0  0  3  0  0  0  0  0  0
  192.4630  175.6360  146.6010 N   0  0  0  0  0  1  0  0  0  0  0  0
  190.8040  177.0770  146.9270 O   0  0  0  0  0  1  0  0  0  0  0  0
  191.7790  176.7310  146.0500 N   0  0  0  0  0  0  0  0  0  0  0  0
  191.3620  179.8990  144.2460 C   0  0  0  0  0  2  0  0  0  0  0  0
  191.8710  178.6710  144.2440 C   0  0  0  0  0  3  0  0  0  0  0  0
  2  1  1  1  0  0  0
  3  2  1  0  0  0  0
  3  4  1  0  0  0  0
  5  8  1  6  0  0  0
  5  4  1  0  0  0  0
  5  7  1  0  0  0  0
  7  6  1  0  0  0  0
  9  8  1  0  0  0  0
 10  9  1  0  0  0  0
 11 10  1  0  0  0  0
 12 16  1  0  0  0  0
 13 14  1  0  0  0  0
 14 16  1  0  0  0  0
 14 11  1  1  0  0  0
 15 17  1  1  0  0  0
 15 12  1  0  0  0  0
 15 13  1  0  0  0  0
 18 25  1  1  0  0  0
 18  2  1  0  0  0  0
 19 18  1  1  0  0  0
 20 19  1  0  0  0  0
 22 19  1  0  0  0  0
 23 21  1  6  0  0  0
 23 24  1  0  0  0  0
 23 20  1  0  0  0  0
 24 22  1  0  0  0  0
 25 32  1  1  0  0  0
 25 27  1  0  0  0  0
 27 26  1  6  0  0  0
 27 30  1  0  0  0  0
 30 28  1  0  0  0  0
 30 29  1  0  0  0  0
 32 31  2  0  0  0  0
M  END
>  <MODEL>
1

>  <REMARK>
 VINA RESULT:      -6.8      0.000      0.000
  Name = 
  15 active torsions:
  status: ('A' for Active; 'I' for Inactive)
    1  A    between atoms: C_1  and  C_19
    2  A    between atoms: C_2  and  C_6
    3  A    between atoms: C_2  and  C_7
    4  A    between atoms: C_2  and  C_8
    5  A    between atoms: N_3  and  C_6
    6  A    between atoms: N_3  and  C_31
    7  A    between atoms: C_8  and  C_26
    8  A    between atoms: N_12  and  C_13
    9  A    between atoms: N_12  and  C_16
   10  A    between atoms: C_13  and  C_26
   11  A    between atoms: C_19  and  C_22
   12  A    between atoms: C_19  and  C_31
   13  A    between atoms: N_20  and  C_27
   14  A    between atoms: C_22  and  C_27
   15  A    between atoms: C_22  and  C_30
                            x       y       z     vdW  Elec       q    Type
                         _______ _______ _______ _____ _____    ______ ____

>  <TORSDO>
F 15

$$$$
=
 OpenBabel10222416033D

 32 33  0  0  1  0  0  0  0  0999 V2000
  189.0330  179.2970  138.6690 O   0  0  0  0  0  1  0  0  0  0  0  0
  188.6650  178.4760  139.7440 C   0  0  1  0  0  3  0  0  0  0  0  0
  187.2120  178.5170  139.9240 N   0  0  0  0  0  2  0  0  0  0  0  0
  186.8850  178.8240  141.3140 C   0  0  0  0  0  2  0  0  0  0  0  0
  185.3870  179.0390  141.4650 C   0  0  1  0  0  3  0  0  0  0  0  0
  183.4650  177.8400  140.4260 C   0  0  0  0  0  1  0  0  0  0  0  0
  184.6900  178.6910  140.1600 C   0  0  0  0  0  2  0  0  0  0  0  0
  184.8530  178.1610  142.5890 C   0  0  0  0  0  2  0  0  0  0  0  0
  184.2260  179.0060  143.6850 C   0  0  0  0  0  2  0  0  0  0  0  0
  185.1340  179.0440  144.8980 C   0  0  0  0  0  2  0  0  0  0  0  0
  186.1710  178.0370  144.7580 N   0  0  0  0  0  2  0  0  0  0  0  0
  187.3450  178.4260  148.0550 C   0  0  0  0  0  2  0  0  0  0  0  0
  187.7480  177.0550  146.1720 O   0  0  0  0  0  0  0  0  0  0  0  0
  186.4160  177.4890  146.0810 C   0  0  1  0  0  3  0  0  0  0  0  0
  188.1140  177.2460  147.5130 C   0  0  1  0  0  3  0  0  0  0  0  0
  186.1780  178.5570  147.1230 C   0  0  0  0  0  2  0  0  0  0  0  0
  189.6000  177.5280  147.5990 C   0  0  0  0  0  1  0  0  0  0  0  0
  189.1950  177.0330  139.5740 C   0  0  2  0  0  3  0  0  0  0  0  0
  190.2270  176.6420  140.6600 C   0  0  2  0  0  3  0  0  0  0  0  0
  189.4540  176.4280  142.3010 S   0  0  0  0  0  0  0  0  0  0  0  0
  191.3250  176.3360  144.2970 C   0  0  0  0  0  1  0  0  0  0  0  0
  191.3370  177.6650  140.8210 C   0  0  0  0  0  2  0  0  0  0  0  0
  190.8620  177.2100  143.1520 C   0  0  1  0  0  3  0  0  0  0  0  0
  191.9830  177.3920  142.1550 C   0  0  0  0  0  2  0  0  0  0  0  0
  189.7070  176.8140  138.1270 C   0  0  2  0  0  3  0  0  0  0  0  0
  188.8290  177.3280  135.8060 C   0  0  0  0  0  1  0  0  0  0  0  0
  188.5630  176.5960  137.1240 C   0  0  1  0  0  3  0  0  0  0  0  0
  188.3040  174.8830  135.5420 N   0  0  0  0  0  1  0  0  0  0  0  0
  187.0470  174.9000  137.3740 O   0  0  0  0  0  1  0  0  0  0  0  0
  188.2970  175.1650  136.9180 N   0  0  0  0  0  0  0  0  0  0  0  0
  191.9900  176.0350  137.6040 C   0  0  0  0  0  2  0  0  0  0  0  0
  190.7620  175.7460  138.0230 C   0  0  0  0  0  3  0  0  0  0  0  0
  2  1  1  6  0  0  0
  2  3  1  0  0  0  0
  3  4  1  0  0  0  0
  4  5  1  0  0  0  0
  5  7  1  6  0  0  0
  5  8  1  0  0  0  0
  7  6  1  0  0  0  0
  8  9  1  0  0  0  0
  9 10  1  0  0  0  0
 11 10  1  0  0  0  0
 13 15  1  0  0  0  0
 14 11  1  6  0  0  0
 14 13  1  0  0  0  0
 14 16  1  0  0  0  0
 15 17  1  6  0  0  0
 15 12  1  0  0  0  0
 16 12  1  0  0  0  0
 18 25  1  6  0  0  0
 18  2  1  0  0  0  0
 19 18  1  6  0  0  0
 19 22  1  0  0  0  0
 19 20  1  0  0  0  0
 20 23  1  0  0  0  0
 22 24  1  0  0  0  0
 23 21  1  1  0  0  0
 24 23  1  0  0  0  0
 25 32  1  1  0  0  0
 27 26  1  6  0  0  0
 27 25  1  0  0  0  0
 28 30  1  0  0  0  0
 30 27  1  0  0  0  0
 30 29  1  0  0  0  0
 31 32  2  0  0  0  0
M  END
>  <MODEL>
2

>  <REMARK>
 VINA RESULT:      -6.5      2.548      6.941
  Name = 
  15 active torsions:
  status: ('A' for Active; 'I' for Inactive)
    1  A    between atoms: C_1  and  C_19
    2  A    between atoms: C_2  and  C_6
    3  A    between atoms: C_2  and  C_7
    4  A    between atoms: C_2  and  C_8
    5  A    between atoms: N_3  and  C_6
    6  A    between atoms: N_3  and  C_31
    7  A    between atoms: C_8  and  C_26
    8  A    between atoms: N_12  and  C_13
    9  A    between atoms: N_12  and  C_16
   10  A    between atoms: C_13  and  C_26
   11  A    between atoms: C_19  and  C_22
   12  A    between atoms: C_19  and  C_31
   13  A    between atoms: N_20  and  C_27
   14  A    between atoms: C_22  and  C_27
   15  A    between atoms: C_22  and  C_30
                            x       y       z     vdW  Elec       q    Type
                         _______ _______ _______ _____ _____    ______ ____

>  <TORSDO>
F 15

$$$$
=
 OpenBabel10222416033D

 32 33  0  0  1  0  0  0  0  0999 V2000
  184.6170  179.7280  140.0720 O   0  0  0  0  0  1  0  0  0  0  0  0
  184.2200  178.4710  140.5460 C   0  0  1  0  0  3  0  0  0  0  0  0
  184.3510  178.4280  142.0040 N   0  0  0  0  0  2  0  0  0  0  0  0
  185.7590  178.4890  142.3860 C   0  0  0  0  0  2  0  0  0  0  0  0
  185.8890  178.5730  143.8990 C   0  0  1  0  0  3  0  0  0  0  0  0
  184.6110  178.5150  146.0380 C   0  0  0  0  0  1  0  0  0  0  0  0
  184.5050  178.5880  144.5270 C   0  0  0  0  0  2  0  0  0  0  0  0
  186.6800  177.3770  144.4140 C   0  0  0  0  0  2  0  0  0  0  0  0
  187.5810  176.8160  143.3260 C   0  0  0  0  0  2  0  0  0  0  0  0
  188.9830  176.6130  143.8630 C   0  0  0  0  0  2  0  0  0  0  0  0
  189.6750  177.8890  143.9030 N   0  0  0  0  0  2  0  0  0  0  0  0
  190.3220  176.6020  147.1160 C   0  0  0  0  0  2  0  0  0  0  0  0
  189.0510  178.3230  146.1110 O   0  0  0  0  0  0  0  0  0  0  0  0
  190.1450  178.0780  145.2650 C   0  0  1  0  0  3  0  0  0  0  0  0
  189.4100  177.7800  147.3530 C   0  0  1  0  0  3  0  0  0  0  0  0
  190.8540  176.8280  145.7330 C   0  0  0  0  0  2  0  0  0  0  0  0
  188.1660  177.3180  148.0850 C   0  0  0  0  0  1  0  0  0  0  0  0
  182.7940  178.1010  140.0740 C   0  0  2  0  0  3  0  0  0  0  0  0
  182.7840  177.4010  138.6930 C   0  0  2  0  0  3  0  0  0  0  0  0
  182.4590  175.6080  138.8310 S   0  0  0  0  0  0  0  0  0  0  0  0
  183.0310  174.2930  136.5000 C   0  0  0  0  0  1  0  0  0  0  0  0
  184.0900  177.5580  137.9350 C   0  0  0  0  0  2  0  0  0  0  0  0
  183.6620  175.2100  137.5240 C   0  0  1  0  0  3  0  0  0  0  0  0
  184.0960  176.4990  136.8640 C   0  0  0  0  0  2  0  0  0  0  0  0
  181.8640  179.3400  140.1450 C   0  0  2  0  0  3  0  0  0  0  0  0
  180.3270  177.6960  141.3100 C   0  0  0  0  0  1  0  0  0  0  0  0
  180.7300  179.1660  141.1680 C   0  0  1  0  0  3  0  0  0  0  0  0
  180.9690  178.8030  143.4730 N   0  0  0  0  0  1  0  0  0  0  0  0
  180.1660  180.7380  142.7320 O   0  0  0  0  0  1  0  0  0  0  0  0
  181.0790  179.7710  142.4620 N   0  0  0  0  0  0  0  0  0  0  0  0
  181.7240  180.9400  138.2710 C   0  0  0  0  0  2  0  0  0  0  0  0
  181.3520  179.7790  138.8000 C   0  0  0  0  0  3  0  0  0  0  0  0
  2  1  1  1  0  0  0
  2  3  1  0  0  0  0
  3  4  1  0  0  0  0
  5  4  1  6  0  0  0
  5  8  1  0  0  0  0
  5  7  1  0  0  0  0
  7  6  1  0  0  0  0
  9 10  1  0  0  0  0
  9  8  1  0  0  0  0
 10 11  1  0  0  0  0
 12 15  1  0  0  0  0
 13 15  1  0  0  0  0
 14 11  1  6  0  0  0
 14 16  1  0  0  0  0
 14 13  1  0  0  0  0
 15 17  1  6  0  0  0
 16 12  1  0  0  0  0
 18 25  1  6  0  0  0
 18  2  1  0  0  0  0
 19 20  1  0  0  0  0
 19 18  1  1  0  0  0
 22 19  1  0  0  0  0
 23 21  1  6  0  0  0
 23 20  1  0  0  0  0
 24 23  1  0  0  0  0
 24 22  1  0  0  0  0
 25 32  1  6  0  0  0
 25 27  1  0  0  0  0
 27 26  1  1  0  0  0
 27 30  1  0  0  0  0
 30 29  1  0  0  0  0
 30 28  1  0  0  0  0
 31 32  2  0  0  0  0
M  END
>  <MODEL>
3

>  <REMARK>
 VINA RESULT:      -6.2      3.086      8.395
  Name = 
  15 active torsions:
  status: ('A' for Active; 'I' for Inactive)
    1  A    between atoms: C_1  and  C_19
    2  A    between atoms: C_2  and  C_6
    3  A    between atoms: C_2  and  C_7
    4  A    between atoms: C_2  and  C_8
    5  A    between atoms: N_3  and  C_6
    6  A    between atoms: N_3  and  C_31
    7  A    between atoms: C_8  and  C_26
    8  A    between atoms: N_12  and  C_13
    9  A    between atoms: N_12  and  C_16
   10  A    between atoms: C_13  and  C_26
   11  A    between atoms: C_19  and  C_22
   12  A    between atoms: C_19  and  C_31
   13  A    between atoms: N_20  and  C_27
   14  A    between atoms: C_22  and  C_27
   15  A    between atoms: C_22  and  C_30
                            x       y       z     vdW  Elec       q    Type
                         _______ _______ _______ _____ _____    ______ ____

>  <TORSDO>
F 15

$$$$
=
 OpenBabel10222416033D

 32 33  0  0  1  0  0  0  0  0999 V2000
  184.3850  180.0110  139.5450 O   0  0  0  0  0  1  0  0  0  0  0  0
  184.9030  178.7120  139.6350 C   0  0  1  0  0  3  0  0  0  0  0  0
  184.7990  178.2310  141.0140 N   0  0  0  0  0  2  0  0  0  0  0  0
  185.6080  179.0620  141.9010 C   0  0  0  0  0  2  0  0  0  0  0  0
  184.8370  179.3770  143.1730 C   0  0  1  0  0  3  0  0  0  0  0  0
  182.7260  178.9290  144.4210 C   0  0  0  0  0  1  0  0  0  0  0  0
  183.5400  178.5830  143.1900 C   0  0  0  0  0  2  0  0  0  0  0  0
  185.6820  179.0170  144.3880 C   0  0  0  0  0  2  0  0  0  0  0  0
  186.2370  177.6080  144.2630 C   0  0  0  0  0  2  0  0  0  0  0  0
  187.7440  177.6250  144.4190 C   0  0  0  0  0  2  0  0  0  0  0  0
  188.0910  177.3080  145.7930 N   0  0  0  0  0  2  0  0  0  0  0  0
  191.5380  176.8510  145.2370 C   0  0  0  0  0  2  0  0  0  0  0  0
  190.0330  177.0040  147.0540 O   0  0  0  0  0  0  0  0  0  0  0  0
  189.4670  177.7310  145.9940 C   0  0  1  0  0  3  0  0  0  0  0  0
  191.3950  176.8830  146.7390 C   0  0  1  0  0  3  0  0  0  0  0  0
  190.2660  177.4660  144.7390 C   0  0  0  0  0  2  0  0  0  0  0  0
  191.9400  175.5960  147.3270 C   0  0  0  0  0  1  0  0  0  0  0  0
  184.2300  177.7520  138.6260 C   0  0  2  0  0  3  0  0  0  0  0  0
  185.0850  177.5230  137.3560 C   0  0  2  0  0  3  0  0  0  0  0  0
  185.3530  175.7470  137.0170 S   0  0  0  0  0  0  0  0  0  0  0  0
  187.3270  175.3580  135.1610 C   0  0  0  0  0  1  0  0  0  0  0  0
  186.4550  178.1710  137.4340 C   0  0  0  0  0  2  0  0  0  0  0  0
  187.0740  176.0270  136.4940 C   0  0  1  0  0  3  0  0  0  0  0  0
  187.3030  177.5160  136.3750 C   0  0  0  0  0  2  0  0  0  0  0  0
  182.7830  178.2200  138.3200 C   0  0  2  0  0  3  0  0  0  0  0  0
  182.2150  176.1480  139.6630 C   0  0  0  0  0  1  0  0  0  0  0  0
  181.7410  177.5330  139.2170 C   0  0  1  0  0  3  0  0  0  0  0  0
  180.4080  177.7250  141.1380 N   0  0  0  0  0  1  0  0  0  0  0  0
  180.7880  179.5080  139.8690 O   0  0  0  0  0  1  0  0  0  0  0  0
  181.3710  178.3850  140.3570 N   0  0  0  0  0  0  0  0  0  0  0  0
  181.2520  178.5750  136.4170 C   0  0  0  0  0  2  0  0  0  0  0  0
  182.4230  178.1310  136.8620 C   0  0  0  0  0  3  0  0  0  0  0  0
  2  1  1  1  0  0  0
  2  3  1  0  0  0  0
  3  4  1  0  0  0  0
  5  4  1  6  0  0  0
  5  7  1  0  0  0  0
  5  8  1  0  0  0  0
  7  6  1  0  0  0  0
  9  8  1  0  0  0  0
  9 10  1  0  0  0  0
 10 11  1  0  0  0  0
 12 15  1  0  0  0  0
 14 11  1  6  0  0  0
 14 13  1  0  0  0  0
 15 13  1  0  0  0  0
 15 17  1  1  0  0  0
 16 12  1  0  0  0  0
 16 14  1  0  0  0  0
 18 25  1  6  0  0  0
 18  2  1  0  0  0  0
 19 22  1  0  0  0  0
 19 18  1  1  0  0  0
 20 19  1  0  0  0  0
 23 21  1  6  0  0  0
 23 20  1  0  0  0  0
 24 23  1  0  0  0  0
 24 22  1  0  0  0  0
 25 32  1  6  0  0  0
 25 27  1  0  0  0  0
 27 26  1  1  0  0  0
 27 30  1  0  0  0  0
 29 30  1  0  0  0  0
 30 28  1  0  0  0  0
 31 32  2  0  0  0  0
M  END
>  <MODEL>
4

>  <REMARK>
 VINA RESULT:      -6.1      2.480      8.281
  Name = 
  15 active torsions:
  status: ('A' for Active; 'I' for Inactive)
    1  A    between atoms: C_1  and  C_19
    2  A    between atoms: C_2  and  C_6
    3  A    between atoms: C_2  and  C_7
    4  A    between atoms: C_2  and  C_8
    5  A    between atoms: N_3  and  C_6
    6  A    between atoms: N_3  and  C_31
    7  A    between atoms: C_8  and  C_26
    8  A    between atoms: N_12  and  C_13
    9  A    between atoms: N_12  and  C_16
   10  A    between atoms: C_13  and  C_26
   11  A    between atoms: C_19  and  C_22
   12  A    between atoms: C_19  and  C_31
   13  A    between atoms: N_20  and  C_27
   14  A    between atoms: C_22  and  C_27
   15  A    between atoms: C_22  and  C_30
                            x       y       z     vdW  Elec       q    Type
                         _______ _______ _______ _____ _____    ______ ____

>  <TORSDO>
F 15

$$$$
=
 OpenBabel10222416033D

 32 33  0  0  1  0  0  0  0  0999 V2000
  188.7340  175.7320  142.8500 O   0  0  0  0  0  1  0  0  0  0  0  0
  188.3260  177.0540  142.6310 C   0  0  1  0  0  3  0  0  0  0  0  0
  188.0090  177.6940  143.9100 N   0  0  0  0  0  2  0  0  0  0  0  0
  186.6220  177.4240  144.2780 C   0  0  0  0  0  2  0  0  0  0  0  0
  186.4500  177.5320  145.7850 C   0  0  1  0  0  3  0  0  0  0  0  0
  187.7650  178.1690  147.8050 C   0  0  0  0  0  1  0  0  0  0  0  0
  187.8120  177.4760  146.4570 C   0  0  0  0  0  2  0  0  0  0  0  0
  185.7530  178.8420  146.1300 C   0  0  0  0  0  2  0  0  0  0  0  0
  184.2450  178.6960  146.0240 C   0  0  0  0  0  2  0  0  0  0  0  0
  183.7480  179.3380  144.7440 C   0  0  0  0  0  2  0  0  0  0  0  0
  182.5940  178.6060  144.2520 N   0  0  0  0  0  2  0  0  0  0  0  0
  181.0240  178.2700  141.1180 C   0  0  0  0  0  2  0  0  0  0  0  0
  183.1900  178.6290  141.9950 O   0  0  0  0  0  0  0  0  0  0  0  0
  182.2810  179.1370  142.9360 C   0  0  1  0  0  3  0  0  0  0  0  0
  182.4730  178.5390  140.7930 C   0  0  1  0  0  3  0  0  0  0  0  0
  180.8840  178.7180  142.5410 C   0  0  0  0  0  2  0  0  0  0  0  0
  183.0230  177.4010  139.9560 C   0  0  0  0  0  1  0  0  0  0  0  0
  189.3720  177.8530  141.8180 C   0  0  2  0  0  3  0  0  0  0  0  0
  188.9050  178.1550  140.3730 C   0  0  2  0  0  3  0  0  0  0  0  0
  187.1130  178.5010  140.2860 S   0  0  0  0  0  0  0  0  0  0  0  0
  186.1940  178.4370  137.7080 C   0  0  0  0  0  1  0  0  0  0  0  0
  189.1850  177.0190  139.4070 C   0  0  0  0  0  2  0  0  0  0  0  0
  186.9340  177.5890  138.7200 C   0  0  1  0  0  3  0  0  0  0  0  0
  188.3140  177.2540  138.2000 C   0  0  0  0  0  2  0  0  0  0  0  0
  190.7550  177.1550  141.8870 C   0  0  2  0  0  3  0  0  0  0  0  0
  191.2400  178.9570  143.6010 C   0  0  0  0  0  1  0  0  0  0  0  0
  191.5370  177.5220  143.1590 C   0  0  1  0  0  3  0  0  0  0  0  0
  191.7460  177.0830  145.4540 N   0  0  0  0  0  1  0  0  0  0  0  0
  192.0420  175.4470  143.9800 O   0  0  0  0  0  1  0  0  0  0  0  0
  191.2950  176.5500  144.2350 N   0  0  0  0  0  0  0  0  0  0  0  0
  192.8970  177.4990  140.7110 C   0  0  0  0  0  2  0  0  0  0  0  0
  191.5800  177.3400  140.6420 C   0  0  0  0  0  3  0  0  0  0  0  0
  2  1  1  1  0  0  0
  2  3  1  0  0  0  0
  3  4  1  0  0  0  0
  5  4  1  6  0  0  0
  5  8  1  0  0  0  0
  5  7  1  0  0  0  0
  7  6  1  0  0  0  0
  9  8  1  0  0  0  0
 10  9  1  0  0  0  0
 11 10  1  0  0  0  0
 12 16  1  0  0  0  0
 13 14  1  0  0  0  0
 14 11  1  1  0  0  0
 15 17  1  6  0  0  0
 15 12  1  0  0  0  0
 15 13  1  0  0  0  0
 16 14  1  0  0  0  0
 18 25  1  6  0  0  0
 18  2  1  0  0  0  0
 19 18  1  1  0  0  0
 20 19  1  0  0  0  0
 22 19  1  0  0  0  0
 23 21  1  6  0  0  0
 23 20  1  0  0  0  0
 24 23  1  0  0  0  0
 24 22  1  0  0  0  0
 25 32  1  6  0  0  0
 25 27  1  0  0  0  0
 27 26  1  1  0  0  0
 27 30  1  0  0  0  0
 29 30  1  0  0  0  0
 30 28  1  0  0  0  0
 32 31  2  0  0  0  0
M  END
>  <MODEL>
5

>  <REMARK>
 VINA RESULT:      -5.9      2.317      3.389
  Name = 
  15 active torsions:
  status: ('A' for Active; 'I' for Inactive)
    1  A    between atoms: C_1  and  C_19
    2  A    between atoms: C_2  and  C_6
    3  A    between atoms: C_2  and  C_7
    4  A    between atoms: C_2  and  C_8
    5  A    between atoms: N_3  and  C_6
    6  A    between atoms: N_3  and  C_31
    7  A    between atoms: C_8  and  C_26
    8  A    between atoms: N_12  and  C_13
    9  A    between atoms: N_12  and  C_16
   10  A    between atoms: C_13  and  C_26
   11  A    between atoms: C_19  and  C_22
   12  A    between atoms: C_19  and  C_31
   13  A    between atoms: N_20  and  C_27
   14  A    between atoms: C_22  and  C_27
   15  A    between atoms: C_22  and  C_30
                            x       y       z     vdW  Elec       q    Type
                         _______ _______ _______ _____ _____    ______ ____

>  <TORSDO>
F 15

$$$$
=
 OpenBabel10222416033D

 32 33  0  0  1  0  0  0  0  0999 V2000
  191.5860  177.4880  140.9140 O   0  0  0  0  0  1  0  0  0  0  0  0
  190.1850  177.4890  140.8880 C   0  0  1  0  0  3  0  0  0  0  0  0
  189.7060  176.4350  139.9910 N   0  0  0  0  0  2  0  0  0  0  0  0
  190.2660  176.6180  138.6550 C   0  0  0  0  0  2  0  0  0  0  0  0
  189.1540  176.6220  137.6170 C   0  0  1  0  0  3  0  0  0  0  0  0
  189.0500  179.1120  137.5990 C   0  0  0  0  0  1  0  0  0  0  0  0
  189.2670  177.8710  136.7570 C   0  0  0  0  0  2  0  0  0  0  0  0
  189.2610  175.3790  136.7440 C   0  0  0  0  0  2  0  0  0  0  0  0
  188.0040  174.5320  136.8520 C   0  0  0  0  0  2  0  0  0  0  0  0
  186.8080  175.3040  136.3330 C   0  0  0  0  0  2  0  0  0  0  0  0
  185.6630  175.0570  137.1910 N   0  0  0  0  0  2  0  0  0  0  0  0
  184.8150  178.2760  138.3390 C   0  0  0  0  0  2  0  0  0  0  0  0
  183.8100  176.1500  138.0990 O   0  0  0  0  0  0  0  0  0  0  0  0
  184.8170  176.2370  137.1240 C   0  0  1  0  0  3  0  0  0  0  0  0
  183.5460  177.4730  138.4820 C   0  0  1  0  0  3  0  0  0  0  0  0
  185.6480  177.4710  137.3880 C   0  0  0  0  0  2  0  0  0  0  0  0
  183.0890  177.5030  139.9270 C   0  0  0  0  0  1  0  0  0  0  0  0
  189.5830  177.3710  142.3070 C   0  0  2  0  0  3  0  0  0  0  0  0
  188.3250  178.2530  142.4990 C   0  0  2  0  0  3  0  0  0  0  0  0
  187.1190  177.4950  143.6440 S   0  0  0  0  0  0  0  0  0  0  0  0
  184.6830  178.7360  143.5160 C   0  0  0  0  0  1  0  0  0  0  0  0
  187.5900  178.5330  141.2020 C   0  0  0  0  0  2  0  0  0  0  0  0
  185.7040  178.0430  142.6390 C   0  0  1  0  0  3  0  0  0  0  0  0
  186.2080  178.9980  141.5820 C   0  0  0  0  0  2  0  0  0  0  0  0
  190.6770  177.6130  143.3790 C   0  0  2  0  0  3  0  0  0  0  0  0
  191.8480  175.5800  144.3370 C   0  0  0  0  0  1  0  0  0  0  0  0
  190.6670  176.5430  144.4830 C   0  0  1  0  0  3  0  0  0  0  0  0
  191.6720  176.6630  146.5990 N   0  0  0  0  0  1  0  0  0  0  0  0
  189.4600  176.7560  146.4150 O   0  0  0  0  0  1  0  0  0  0  0  0
  190.6120  177.1530  145.8190 N   0  0  0  0  0  0  0  0  0  0  0  0
  191.7920  179.6390  144.2420 C   0  0  0  0  0  2  0  0  0  0  0  0
  190.6610  179.0080  143.9430 C   0  0  0  0  0  3  0  0  0  0  0  0
  2  1  1  1  0  0  0
  3  2  1  0  0  0  0
  4  3  1  0  0  0  0
  5  8  1  6  0  0  0
  5  4  1  0  0  0  0
  7  6  1  0  0  0  0
  7  5  1  0  0  0  0
  8  9  1  0  0  0  0
 10  9  1  0  0  0  0
 10 11  1  0  0  0  0
 12 15  1  0  0  0  0
 13 15  1  0  0  0  0
 14 11  1  1  0  0  0
 14 16  1  0  0  0  0
 14 13  1  0  0  0  0
 15 17  1  1  0  0  0
 16 12  1  0  0  0  0
 18  2  1  6  0  0  0
 18 25  1  0  0  0  0
 19 18  1  6  0  0  0
 19 20  1  0  0  0  0
 22 24  1  0  0  0  0
 22 19  1  0  0  0  0
 23 21  1  1  0  0  0
 23 20  1  0  0  0  0
 24 23  1  0  0  0  0
 25 32  1  1  0  0  0
 25 27  1  0  0  0  0
 27 26  1  1  0  0  0
 27 30  1  0  0  0  0
 30 29  1  0  0  0  0
 30 28  1  0  0  0  0
 32 31  2  0  0  0  0
M  END
>  <MODEL>
6

>  <REMARK>
 VINA RESULT:      -5.8      2.238      4.928
  Name = 
  15 active torsions:
  status: ('A' for Active; 'I' for Inactive)
    1  A    between atoms: C_1  and  C_19
    2  A    between atoms: C_2  and  C_6
    3  A    between atoms: C_2  and  C_7
    4  A    between atoms: C_2  and  C_8
    5  A    between atoms: N_3  and  C_6
    6  A    between atoms: N_3  and  C_31
    7  A    between atoms: C_8  and  C_26
    8  A    between atoms: N_12  and  C_13
    9  A    between atoms: N_12  and  C_16
   10  A    between atoms: C_13  and  C_26
   11  A    between atoms: C_19  and  C_22
   12  A    between atoms: C_19  and  C_31
   13  A    between atoms: N_20  and  C_27
   14  A    between atoms: C_22  and  C_27
   15  A    between atoms: C_22  and  C_30
                            x       y       z     vdW  Elec       q    Type
                         _______ _______ _______ _____ _____    ______ ____

>  <TORSDO>
F 15

$$$$
=
 OpenBabel10222416033D

 32 33  0  0  1  0  0  0  0  0999 V2000
  184.9740  179.7510  139.8460 O   0  0  0  0  0  1  0  0  0  0  0  0
  184.5760  178.4090  139.9090 C   0  0  1  0  0  3  0  0  0  0  0  0
  184.6430  177.9360  141.2930 N   0  0  0  0  0  2  0  0  0  0  0  0
  185.5120  178.8060  142.0810 C   0  0  0  0  0  2  0  0  0  0  0  0
  185.0100  178.8890  143.5140 C   0  0  1  0  0  3  0  0  0  0  0  0
  182.7390  179.3920  144.4090 C   0  0  0  0  0  1  0  0  0  0  0  0
  183.5610  178.4330  143.5720 C   0  0  0  0  0  2  0  0  0  0  0  0
  185.8680  178.0060  144.4110 C   0  0  0  0  0  2  0  0  0  0  0  0
  186.1160  178.6770  145.7520 C   0  0  0  0  0  2  0  0  0  0  0  0
  187.1660  177.9120  146.5320 C   0  0  0  0  0  2  0  0  0  0  0  0
  188.0560  177.2330  145.6070 N   0  0  0  0  0  2  0  0  0  0  0  0
  191.5440  176.9200  145.2350 C   0  0  0  0  0  2  0  0  0  0  0  0
  189.9400  177.0090  146.9690 O   0  0  0  0  0  0  0  0  0  0  0  0
  189.4010  177.7130  145.8800 C   0  0  1  0  0  3  0  0  0  0  0  0
  191.3200  176.9450  146.7270 C   0  0  1  0  0  3  0  0  0  0  0  0
  190.2750  177.4820  144.6690 C   0  0  0  0  0  2  0  0  0  0  0  0
  191.8860  175.6820  147.3450 C   0  0  0  0  0  1  0  0  0  0  0  0
  183.1790  178.1920  139.2810 C   0  0  2  0  0  3  0  0  0  0  0  0
  182.1790  177.5300  140.2600 C   0  0  2  0  0  3  0  0  0  0  0  0
  181.4370  176.0110  139.5650 S   0  0  0  0  0  0  0  0  0  0  0  0
  179.2640  175.1920  141.0140 C   0  0  0  0  0  1  0  0  0  0  0  0
  181.0340  178.4450  140.6510 C   0  0  0  0  0  2  0  0  0  0  0  0
  179.8030  176.3950  140.2700 C   0  0  1  0  0  3  0  0  0  0  0  0
  179.9520  177.5630  141.2180 C   0  0  0  0  0  2  0  0  0  0  0  0
  183.3070  177.4440  137.9280 C   0  0  2  0  0  3  0  0  0  0  0  0
  184.7610  175.4430  137.3790 C   0  0  0  0  0  1  0  0  0  0  0  0
  184.7370  176.9470  137.6630 C   0  0  1  0  0  3  0  0  0  0  0  0
  185.8390  176.8470  135.5950 N   0  0  0  0  0  1  0  0  0  0  0  0
  186.4750  178.3320  137.1200 O   0  0  0  0  0  1  0  0  0  0  0  0
  185.3830  177.7220  136.5940 N   0  0  0  0  0  0  0  0  0  0  0  0
  181.7030  177.7710  136.0810 C   0  0  0  0  0  2  0  0  0  0  0  0
  182.7520  178.2190  136.7640 C   0  0  0  0  0  3  0  0  0  0  0  0
  2  1  1  1  0  0  0
  2  3  1  0  0  0  0
  3  4  1  0  0  0  0
  5  4  1  6  0  0  0
  5  7  1  0  0  0  0
  5  8  1  0  0  0  0
  7  6  1  0  0  0  0
  8  9  1  0  0  0  0
  9 10  1  0  0  0  0
 11 10  1  0  0  0  0
 12 15  1  0  0  0  0
 14 11  1  6  0  0  0
 14 13  1  0  0  0  0
 15 13  1  0  0  0  0
 15 17  1  1  0  0  0
 16 12  1  0  0  0  0
 16 14  1  0  0  0  0
 18 25  1  6  0  0  0
 18  2  1  0  0  0  0
 19 18  1  6  0  0  0
 19 22  1  0  0  0  0
 20 19  1  0  0  0  0
 20 23  1  0  0  0  0
 22 24  1  0  0  0  0
 23 21  1  1  0  0  0
 23 24  1  0  0  0  0
 25 32  1  6  0  0  0
 27 26  1  6  0  0  0
 27 25  1  0  0  0  0
 28 30  1  0  0  0  0
 30 29  1  0  0  0  0
 30 27  1  0  0  0  0
 31 32  2  0  0  0  0
M  END
>  <MODEL>
7

>  <REMARK>
 VINA RESULT:      -5.8      2.954      8.703
  Name = 
  15 active torsions:
  status: ('A' for Active; 'I' for Inactive)
    1  A    between atoms: C_1  and  C_19
    2  A    between atoms: C_2  and  C_6
    3  A    between atoms: C_2  and  C_7
    4  A    between atoms: C_2  and  C_8
    5  A    between atoms: N_3  and  C_6
    6  A    between atoms: N_3  and  C_31
    7  A    between atoms: C_8  and  C_26
    8  A    between atoms: N_12  and  C_13
    9  A    between atoms: N_12  and  C_16
   10  A    between atoms: C_13  and  C_26
   11  A    between atoms: C_19  and  C_22
   12  A    between atoms: C_19  and  C_31
   13  A    between atoms: N_20  and  C_27
   14  A    between atoms: C_22  and  C_27
   15  A    between atoms: C_22  and  C_30
                            x       y       z     vdW  Elec       q    Type
                         _______ _______ _______ _____ _____    ______ ____

>  <TORSDO>
F 15

$$$$
=
 OpenBabel10222416033D

 32 33  0  0  1  0  0  0  0  0999 V2000
  184.5570  180.1250  139.0950 O   0  0  0  0  0  1  0  0  0  0  0  0
  185.2380  178.9010  139.1450 C   0  0  1  0  0  3  0  0  0  0  0  0
  184.8940  178.1930  140.3800 N   0  0  0  0  0  2  0  0  0  0  0  0
  185.4270  178.9080  141.5360 C   0  0  0  0  0  2  0  0  0  0  0  0
  184.3470  179.0700  142.5950 C   0  0  1  0  0  3  0  0  0  0  0  0
  181.8750  179.0190  142.9060 C   0  0  0  0  0  1  0  0  0  0  0  0
  183.0340  178.5130  142.0700 C   0  0  0  0  0  2  0  0  0  0  0  0
  184.7550  178.3300  143.8630 C   0  0  0  0  0  2  0  0  0  0  0  0
  184.5610  179.2080  145.0880 C   0  0  0  0  0  2  0  0  0  0  0  0
  185.6950  178.9910  146.0700 C   0  0  0  0  0  2  0  0  0  0  0  0
  186.7420  178.2120  145.4350 N   0  0  0  0  0  2  0  0  0  0  0  0
  188.9260  177.8600  148.1750 C   0  0  0  0  0  2  0  0  0  0  0  0
  188.5970  176.9240  146.0290 O   0  0  0  0  0  0  0  0  0  0  0  0
  187.3460  177.3860  146.4670 C   0  0  1  0  0  3  0  0  0  0  0  0
  189.3820  176.8150  147.1870 C   0  0  1  0  0  3  0  0  0  0  0  0
  187.5400  178.2060  147.7210 C   0  0  0  0  0  2  0  0  0  0  0  0
  190.8380  177.0500  146.8380 C   0  0  0  0  0  1  0  0  0  0  0  0
  184.9770  178.0450  137.8850 C   0  0  2  0  0  3  0  0  0  0  0  0
  184.0790  176.8160  138.1710 C   0  0  2  0  0  3  0  0  0  0  0  0
  184.3970  175.4440  137.0060 S   0  0  0  0  0  0  0  0  0  0  0  0
  182.4330  173.5410  137.1240 C   0  0  0  0  0  1  0  0  0  0  0  0
  182.5960  177.1300  138.0910 C   0  0  0  0  0  2  0  0  0  0  0  0
  182.6290  175.0240  136.8960 C   0  0  1  0  0  3  0  0  0  0  0  0
  181.8830  175.8100  137.9500 C   0  0  0  0  0  2  0  0  0  0  0  0
  186.3160  177.6830  137.1920 C   0  0  2  0  0  3  0  0  0  0  0  0
  188.1780  176.1500  137.9710 C   0  0  0  0  0  1  0  0  0  0  0  0
  187.4630  177.4850  138.1960 C   0  0  1  0  0  3  0  0  0  0  0  0
  189.6090  178.2180  137.5930 N   0  0  0  0  0  1  0  0  0  0  0  0
  188.6630  178.9700  139.4580 O   0  0  0  0  0  1  0  0  0  0  0  0
  188.3950  178.6220  138.1740 N   0  0  0  0  0  0  0  0  0  0  0  0
  186.9660  178.1830  134.8640 C   0  0  0  0  0  2  0  0  0  0  0  0
  186.6900  178.6300  136.0840 C   0  0  0  0  0  3  0  0  0  0  0  0
  2  1  1  6  0  0  0
  2  3  1  0  0  0  0
  3  4  1  0  0  0  0
  5  4  1  6  0  0  0
  5  8  1  0  0  0  0
  7  5  1  0  0  0  0
  7  6  1  0  0  0  0
  8  9  1  0  0  0  0
  9 10  1  0  0  0  0
 11 10  1  0  0  0  0
 13 14  1  0  0  0  0
 13 15  1  0  0  0  0
 14 11  1  6  0  0  0
 14 16  1  0  0  0  0
 15 17  1  6  0  0  0
 15 12  1  0  0  0  0
 16 12  1  0  0  0  0
 18 25  1  1  0  0  0
 18  2  1  0  0  0  0
 19 18  1  6  0  0  0
 20 19  1  0  0  0  0
 22 19  1  0  0  0  0
 23 20  1  0  0  0  0
 23 21  1  1  0  0  0
 23 24  1  0  0  0  0
 24 22  1  0  0  0  0
 25 32  1  6  0  0  0
 25 27  1  0  0  0  0
 27 26  1  6  0  0  0
 28 30  1  0  0  0  0
 30 27  1  0  0  0  0
 30 29  1  0  0  0  0
 31 32  2  0  0  0  0
M  END
>  <MODEL>
8

>  <REMARK>
 VINA RESULT:      -5.8      2.891      7.634
  Name = 
  15 active torsions:
  status: ('A' for Active; 'I' for Inactive)
    1  A    between atoms: C_1  and  C_19
    2  A    between atoms: C_2  and  C_6
    3  A    between atoms: C_2  and  C_7
    4  A    between atoms: C_2  and  C_8
    5  A    between atoms: N_3  and  C_6
    6  A    between atoms: N_3  and  C_31
    7  A    between atoms: C_8  and  C_26
    8  A    between atoms: N_12  and  C_13
    9  A    between atoms: N_12  and  C_16
   10  A    between atoms: C_13  and  C_26
   11  A    between atoms: C_19  and  C_22
   12  A    between atoms: C_19  and  C_31
   13  A    between atoms: N_20  and  C_27
   14  A    between atoms: C_22  and  C_27
   15  A    between atoms: C_22  and  C_30
                            x       y       z     vdW  Elec       q    Type
                         _______ _______ _______ _____ _____    ______ ____

>  <TORSDO>
F 15

$$$$
=
 OpenBabel10222416033D

 32 33  0  0  1  0  0  0  0  0999 V2000
  184.5020  180.1210  139.4510 O   0  0  0  0  0  1  0  0  0  0  0  0
  184.7500  178.7810  139.7790 C   0  0  1  0  0  3  0  0  0  0  0  0
  184.6510  178.6000  141.2290 N   0  0  0  0  0  2  0  0  0  0  0  0
  185.8810  179.0440  141.8770 C   0  0  0  0  0  2  0  0  0  0  0  0
  185.8670  178.6600  143.3490 C   0  0  1  0  0  3  0  0  0  0  0  0
  184.0570  179.0680  145.0140 C   0  0  0  0  0  1  0  0  0  0  0  0
  184.4500  178.3010  143.7660 C   0  0  0  0  0  2  0  0  0  0  0  0
  186.7920  177.4720  143.5790 C   0  0  0  0  0  2  0  0  0  0  0  0
  187.1890  177.3700  145.0420 C   0  0  0  0  0  2  0  0  0  0  0  0
  188.5610  177.9790  145.2540 C   0  0  0  0  0  2  0  0  0  0  0  0
  189.4580  176.9730  145.7940 N   0  0  0  0  0  2  0  0  0  0  0  0
  191.2880  178.2260  143.0580 C   0  0  0  0  0  2  0  0  0  0  0  0
  190.2130  176.2260  143.7150 O   0  0  0  0  0  0  0  0  0  0  0  0
  190.5950  176.8880  144.8920 C   0  0  1  0  0  3  0  0  0  0  0  0
  190.9960  176.7910  142.6970 C   0  0  1  0  0  3  0  0  0  0  0  0
  191.0670  178.2790  144.5390 C   0  0  0  0  0  2  0  0  0  0  0  0
  190.2380  176.7430  141.3850 C   0  0  0  0  0  1  0  0  0  0  0  0
  183.8230  177.8170  139.0020 C   0  0  2  0  0  3  0  0  0  0  0  0
  184.3770  177.4510  137.6030 C   0  0  2  0  0  3  0  0  0  0  0  0
  184.2510  175.6610  137.2590 S   0  0  0  0  0  0  0  0  0  0  0  0
  185.7510  174.9410  135.0850 C   0  0  0  0  0  1  0  0  0  0  0  0
  185.8330  177.8370  137.4190 C   0  0  0  0  0  2  0  0  0  0  0  0
  185.8710  175.6290  136.4270 C   0  0  1  0  0  3  0  0  0  0  0  0
  186.3410  177.0520  136.2380 C   0  0  0  0  0  2  0  0  0  0  0  0
  182.3750  178.3720  138.9680 C   0  0  2  0  0  3  0  0  0  0  0  0
  180.6240  178.5640  140.7890 C   0  0  0  0  0  1  0  0  0  0  0  0
  181.4290  177.6060  139.9070 C   0  0  1  0  0  3  0  0  0  0  0  0
  179.2990  176.6350  139.7670 N   0  0  0  0  0  1  0  0  0  0  0  0
  181.0990  175.4400  139.2510 O   0  0  0  0  0  1  0  0  0  0  0  0
  180.5640  176.6830  139.1590 N   0  0  0  0  0  0  0  0  0  0  0  0
  181.2870  179.6330  137.1470 C   0  0  0  0  0  2  0  0  0  0  0  0
  181.8160  178.4920  137.5760 C   0  0  0  0  0  3  0  0  0  0  0  0
  2  1  1  1  0  0  0
  2  3  1  0  0  0  0
  3  4  1  0  0  0  0
  5  4  1  6  0  0  0
  5  8  1  0  0  0  0
  5  7  1  0  0  0  0
  7  6  1  0  0  0  0
  8  9  1  0  0  0  0
  9 10  1  0  0  0  0
 10 11  1  0  0  0  0
 12 16  1  0  0  0  0
 13 14  1  0  0  0  0
 14 11  1  1  0  0  0
 15 17  1  6  0  0  0
 15 12  1  0  0  0  0
 15 13  1  0  0  0  0
 16 14  1  0  0  0  0
 18 25  1  6  0  0  0
 18  2  1  0  0  0  0
 19 18  1  1  0  0  0
 20 19  1  0  0  0  0
 22 19  1  0  0  0  0
 23 21  1  6  0  0  0
 23 20  1  0  0  0  0
 24 23  1  0  0  0  0
 24 22  1  0  0  0  0
 25 32  1  6  0  0  0
 25 27  1  0  0  0  0
 27 26  1  6  0  0  0
 30 29  1  0  0  0  0
 30 28  1  0  0  0  0
 30 27  1  0  0  0  0
 31 32  2  0  0  0  0
M  END
>  <MODEL>
9

>  <REMARK>
 VINA RESULT:      -5.8      2.745      8.155
  Name = 
  15 active torsions:
  status: ('A' for Active; 'I' for Inactive)
    1  A    between atoms: C_1  and  C_19
    2  A    between atoms: C_2  and  C_6
    3  A    between atoms: C_2  and  C_7
    4  A    between atoms: C_2  and  C_8
    5  A    between atoms: N_3  and  C_6
    6  A    between atoms: N_3  and  C_31
    7  A    between atoms: C_8  and  C_26
    8  A    between atoms: N_12  and  C_13
    9  A    between atoms: N_12  and  C_16
   10  A    between atoms: C_13  and  C_26
   11  A    between atoms: C_19  and  C_22
   12  A    between atoms: C_19  and  C_31
   13  A    between atoms: N_20  and  C_27
   14  A    between atoms: C_22  and  C_27
   15  A    between atoms: C_22  and  C_30
                            x       y       z     vdW  Elec       q    Type
                         _______ _______ _______ _____ _____    ______ ____

>  <TORSDO>
F 15

$$$$
