=
 OpenBabel10222420173D

 27 29  0  0  1  0  0  0  0  0999 V2000
  182.1700  178.9970  141.8940 C   0  0  2  0  0  3  0  0  0  0  0  0
  183.4180  178.9570  144.0890 C   0  0  0  0  0  3  0  0  0  0  0  0
  180.1550  178.2750  142.6480 C   0  0  1  0  0  3  0  0  0  0  0  0
  181.0030  178.3030  141.5150 O   0  0  0  0  0  0  0  0  0  0  0  0
  180.9370  178.6840  143.8800 C   0  0  0  0  0  2  0  0  0  0  0  0
  183.4120  178.3420  141.3390 C   0  0  0  0  0  0  0  0  0  0  0  0
  182.2060  179.0640  143.3410 N   0  0  0  0  0  0  0  0  0  0  0  0
  184.5330  178.5960  143.4570 C   0  0  0  0  0  0  0  0  0  0  0  0
  184.4870  178.2330  142.0670 N   0  0  0  0  0  0  0  0  0  0  0  0
  189.1370  177.4020  146.4780 C   0  0  0  0  0  1  0  0  0  0  0  0
  186.4870  177.3060  143.8340 O   0  0  0  0  0  0  0  0  0  0  0  0
  186.8340  178.3400  146.4840 C   0  0  1  0  0  3  0  0  0  0  0  0
  185.5140  178.4240  145.7240 C   0  0  0  0  0  2  0  0  0  0  0  0
  187.7870  177.3950  144.3670 C   0  0  2  0  0  3  0  0  0  0  0  0
  186.5820  178.0790  147.8180 F   0  0  0  0  0  0  0  0  0  0  0  0
  188.5750  176.3830  143.8180 O   0  0  0  0  0  1  0  0  0  0  0  0
  187.7420  177.2550  145.8970 C   0  0  1  0  0  3  0  0  0  0  0  0
  185.8060  178.4720  144.2240 C   0  0  2  0  0  3  0  0  0  0  0  0
  178.9320  179.1680  142.4440 C   0  0  0  0  0  2  0  0  0  0  0  0
  179.2850  180.5440  142.4150 O   0  0  0  0  0  0  0  0  0  0  0  0
  179.6360  181.2350  140.1960 C   0  0  0  0  0  2  0  0  0  0  0  0
  178.9520  181.3390  141.3240 C   0  0  0  0  0  3  0  0  0  0  0  0
  183.4770  177.9990  139.8880 C   0  0  0  0  0  2  0  0  0  0  0  0
  184.4470  178.8910  139.1830 C   0  0  0  0  0  0  0  0  0  0  0  0
  184.3280  180.1030  139.2620 O   0  0  0  0  0  0  0  0  0  0  0  0
  185.7520  178.1850  138.1790 S   0  0  0  0  0  0  0  0  0  0  0  0
  184.6610  176.8940  137.5210 C   0  0  0  0  0  1  0  0  0  0  0  0
  1  6  1  1  0  0  0
  1  7  1  0  0  0  0
  3 19  1  6  0  0  0
  3  5  1  0  0  0  0
  4  1  1  0  0  0  0
  4  3  1  0  0  0  0
  6  9  2  0  0  0  0
  7  5  1  0  0  0  0
  7  2  1  0  0  0  0
  8  2  2  0  0  0  0
  9  8  1  0  0  0  0
 11 18  1  0  0  0  0
 11 14  1  0  0  0  0
 12 15  1  1  0  0  0
 13 12  1  0  0  0  0
 14 16  1  6  0  0  0
 14 17  1  0  0  0  0
 17 10  1  1  0  0  0
 17 12  1  0  0  0  0
 18  8  1  6  0  0  0
 18 13  1  0  0  0  0
 20 19  1  0  0  0  0
 21 22  2  0  0  0  0
 22 20  1  0  0  0  0
 23  6  1  0  0  0  0
 24 25  2  0  0  0  0
 24 23  1  0  0  0  0
 26 24  1  0  0  0  0
 27 26  1  0  0  0  0
M  END
>  <MODEL>
1

>  <REMARK>
 VINA RESULT:      -7.2      0.000      0.000
  Name = 
  7 active torsions:
  status: ('A' for Active; 'I' for Inactive)
    1  A    between atoms: C_2  and  S_4
    2  A    between atoms: C_2  and  C_15
    3  A    between atoms: C_8  and  O_26
    4  A    between atoms: C_10  and  C_14
    5  A    between atoms: C_14  and  O_26
    6  A    between atoms: C_15  and  C_19
    7  A    between atoms: C_21  and  C_23
                            x       y       z     vdW  Elec       q    Type
                         _______ _______ _______ _____ _____    ______ ____

>  <TORSDO>
F 7

$$$$
=
 OpenBabel10222420173D

 27 29  0  0  1  0  0  0  0  0999 V2000
  188.7670  177.2900  144.4960 C   0  0  2  0  0  3  0  0  0  0  0  0
  186.2720  177.5580  144.2200 C   0  0  0  0  0  3  0  0  0  0  0  0
  188.9530  178.0970  146.6100 C   0  0  1  0  0  3  0  0  0  0  0  0
  189.6460  177.9450  145.3840 O   0  0  0  0  0  0  0  0  0  0  0  0
  187.4780  177.8180  146.3990 C   0  0  0  0  0  2  0  0  0  0  0  0
  188.8400  177.8770  143.1080 C   0  0  0  0  0  0  0  0  0  0  0  0
  187.4270  177.3780  145.0400 N   0  0  0  0  0  0  0  0  0  0  0  0
  186.4370  177.8450  142.9310 C   0  0  0  0  0  0  0  0  0  0  0  0
  187.7580  178.0590  142.4050 N   0  0  0  0  0  0  0  0  0  0  0  0
  182.0090  179.3440  139.7870 C   0  0  0  0  0  1  0  0  0  0  0  0
  185.4910  179.0700  141.1330 O   0  0  0  0  0  0  0  0  0  0  0  0
  182.8100  178.5590  142.0060 C   0  0  1  0  0  3  0  0  0  0  0  0
  184.0250  178.4030  142.9150 C   0  0  0  0  0  2  0  0  0  0  0  0
  184.4610  179.0140  140.1760 C   0  0  2  0  0  3  0  0  0  0  0  0
  181.7580  179.0900  142.7290 F   0  0  0  0  0  0  0  0  0  0  0  0
  184.7850  179.8510  139.1090 O   0  0  0  0  0  1  0  0  0  0  0  0
  183.1300  179.4530  140.8040 C   0  0  1  0  0  3  0  0  0  0  0  0
  185.2420  178.0440  142.0620 C   0  0  2  0  0  3  0  0  0  0  0  0
  189.5410  177.1940  147.6920 C   0  0  0  0  0  2  0  0  0  0  0  0
  190.9600  177.1410  147.6170 O   0  0  0  0  0  0  0  0  0  0  0  0
  192.7080  175.6550  148.1290 C   0  0  0  0  0  2  0  0  0  0  0  0
  191.6160  175.9300  147.4320 C   0  0  0  0  0  3  0  0  0  0  0  0
  190.1710  178.0640  142.4560 C   0  0  0  0  0  2  0  0  0  0  0  0
  190.4860  176.9040  141.5680 C   0  0  0  0  0  0  0  0  0  0  0  0
  190.3320  175.7650  141.9770 O   0  0  0  0  0  0  0  0  0  0  0  0
  191.1370  177.1820  139.9230 S   0  0  0  0  0  0  0  0  0  0  0  0
  189.5830  177.9170  139.3430 C   0  0  0  0  0  1  0  0  0  0  0  0
  1  6  1  6  0  0  0
  1  7  1  0  0  0  0
  1  4  1  0  0  0  0
  2  7  1  0  0  0  0
  3 19  1  1  0  0  0
  4  3  1  0  0  0  0
  5  3  1  0  0  0  0
  7  5  1  0  0  0  0
  8  2  2  0  0  0  0
  9  8  1  0  0  0  0
  9  6  2  0  0  0  0
 11 18  1  0  0  0  0
 12 15  1  1  0  0  0
 12 13  1  0  0  0  0
 14 16  1  6  0  0  0
 14 17  1  0  0  0  0
 14 11  1  0  0  0  0
 17 10  1  6  0  0  0
 17 12  1  0  0  0  0
 18 13  1  0  0  0  0
 18  8  1  1  0  0  0
 20 19  1  0  0  0  0
 22 20  1  0  0  0  0
 22 21  2  0  0  0  0
 23  6  1  0  0  0  0
 24 25  2  0  0  0  0
 24 23  1  0  0  0  0
 26 24  1  0  0  0  0
 27 26  1  0  0  0  0
M  END
>  <MODEL>
2

>  <REMARK>
 VINA RESULT:      -7.1      3.269      8.060
  Name = 
  7 active torsions:
  status: ('A' for Active; 'I' for Inactive)
    1  A    between atoms: C_2  and  S_4
    2  A    between atoms: C_2  and  C_15
    3  A    between atoms: C_8  and  O_26
    4  A    between atoms: C_10  and  C_14
    5  A    between atoms: C_14  and  O_26
    6  A    between atoms: C_15  and  C_19
    7  A    between atoms: C_21  and  C_23
                            x       y       z     vdW  Elec       q    Type
                         _______ _______ _______ _____ _____    ______ ____

>  <TORSDO>
F 7

$$$$
=
 OpenBabel10222420173D

 27 29  0  0  1  0  0  0  0  0999 V2000
  188.9770  177.3690  142.3660 C   0  0  2  0  0  3  0  0  0  0  0  0
  186.7410  177.9190  143.4020 C   0  0  0  0  0  3  0  0  0  0  0  0
  190.2920  177.8280  144.1580 C   0  0  1  0  0  3  0  0  0  0  0  0
  190.2680  177.7940  142.7430 O   0  0  0  0  0  0  0  0  0  0  0  0
  188.8780  177.7300  144.6940 C   0  0  0  0  0  2  0  0  0  0  0  0
  188.4590  178.1460  141.1810 C   0  0  0  0  0  0  0  0  0  0  0  0
  188.1040  177.5050  143.5140 N   0  0  0  0  0  0  0  0  0  0  0  0
  186.3030  178.3770  142.2310 C   0  0  0  0  0  0  0  0  0  0  0  0
  187.2170  178.5360  141.1320 N   0  0  0  0  0  0  0  0  0  0  0  0
  180.7610  179.3220  141.8670 C   0  0  0  0  0  1  0  0  0  0  0  0
  184.1230  178.3090  143.1640 O   0  0  0  0  0  0  0  0  0  0  0  0
  182.8710  178.8400  140.6430 C   0  0  1  0  0  3  0  0  0  0  0  0
  184.3050  178.3380  140.7700 C   0  0  0  0  0  2  0  0  0  0  0  0
  182.8890  178.9850  143.1440 C   0  0  2  0  0  3  0  0  0  0  0  0
  182.2650  178.2370  139.5560 F   0  0  0  0  0  0  0  0  0  0  0  0
  182.1880  178.6880  144.3130 O   0  0  0  0  0  1  0  0  0  0  0  0
  182.0700  178.5570  141.9170 C   0  0  1  0  0  3  0  0  0  0  0  0
  184.8860  178.8200  142.0990 C   0  0  2  0  0  3  0  0  0  0  0  0
  191.1790  176.7200  144.7220 C   0  0  0  0  0  2  0  0  0  0  0  0
  191.8170  177.1200  145.9280 O   0  0  0  0  0  0  0  0  0  0  0  0
  192.3810  175.7310  147.7380 C   0  0  0  0  0  2  0  0  0  0  0  0
  191.4970  176.5120  147.1360 C   0  0  0  0  0  3  0  0  0  0  0  0
  189.3170  178.2960  139.9670 C   0  0  0  0  0  2  0  0  0  0  0  0
  189.4010  177.0030  139.2230 C   0  0  0  0  0  0  0  0  0  0  0  0
  190.2780  176.2000  139.4940 O   0  0  0  0  0  0  0  0  0  0  0  0
  188.2470  176.6510  137.8980 S   0  0  0  0  0  0  0  0  0  0  0  0
  188.4570  178.2990  137.1670 C   0  0  0  0  0  1  0  0  0  0  0  0
  1  6  1  6  0  0  0
  1  4  1  0  0  0  0
  1  7  1  0  0  0  0
  2  7  1  0  0  0  0
  3  5  1  0  0  0  0
  3 19  1  1  0  0  0
  4  3  1  0  0  0  0
  7  5  1  0  0  0  0
  8  2  2  0  0  0  0
  9  6  2  0  0  0  0
  9  8  1  0  0  0  0
 12 15  1  6  0  0  0
 12 13  1  0  0  0  0
 12 17  1  0  0  0  0
 13 18  1  0  0  0  0
 14 11  1  0  0  0  0
 14 16  1  1  0  0  0
 17 10  1  6  0  0  0
 17 14  1  0  0  0  0
 18  8  1  1  0  0  0
 18 11  1  0  0  0  0
 19 20  1  0  0  0  0
 20 22  1  0  0  0  0
 22 21  2  0  0  0  0
 23  6  1  0  0  0  0
 24 25  2  0  0  0  0
 24 23  1  0  0  0  0
 26 24  1  0  0  0  0
 27 26  1  0  0  0  0
M  END
>  <MODEL>
3

>  <REMARK>
 VINA RESULT:      -7.0      3.396      8.015
  Name = 
  7 active torsions:
  status: ('A' for Active; 'I' for Inactive)
    1  A    between atoms: C_2  and  S_4
    2  A    between atoms: C_2  and  C_15
    3  A    between atoms: C_8  and  O_26
    4  A    between atoms: C_10  and  C_14
    5  A    between atoms: C_14  and  O_26
    6  A    between atoms: C_15  and  C_19
    7  A    between atoms: C_21  and  C_23
                            x       y       z     vdW  Elec       q    Type
                         _______ _______ _______ _____ _____    ______ ____

>  <TORSDO>
F 7

$$$$
=
 OpenBabel10222420173D

 27 29  0  0  1  0  0  0  0  0999 V2000
  189.2450  177.7520  141.7190 C   0  0  2  0  0  3  0  0  0  0  0  0
  187.0040  178.6260  140.9520 C   0  0  0  0  0  3  0  0  0  0  0  0
  189.8730  176.7240  139.7950 C   0  0  1  0  0  3  0  0  0  0  0  0
  190.0170  176.6900  141.2030 O   0  0  0  0  0  0  0  0  0  0  0  0
  188.7230  177.6370  139.4220 C   0  0  0  0  0  2  0  0  0  0  0  0
  188.5000  177.3430  142.9660 C   0  0  0  0  0  0  0  0  0  0  0  0
  188.3390  178.1980  140.6800 N   0  0  0  0  0  0  0  0  0  0  0  0
  186.5040  178.4350  142.1710 C   0  0  0  0  0  0  0  0  0  0  0  0
  187.2700  177.7260  143.1600 N   0  0  0  0  0  0  0  0  0  0  0  0
  181.1320  179.3720  143.5860 C   0  0  0  0  0  1  0  0  0  0  0  0
  184.7700  178.5130  143.7880 O   0  0  0  0  0  0  0  0  0  0  0  0
  182.7220  178.7110  141.7940 C   0  0  1  0  0  3  0  0  0  0  0  0
  184.1330  178.2170  141.4910 C   0  0  0  0  0  2  0  0  0  0  0  0
  183.5770  179.1920  144.1000 C   0  0  2  0  0  3  0  0  0  0  0  0
  181.8090  177.9710  141.0650 F   0  0  0  0  0  0  0  0  0  0  0  0
  183.3230  179.0620  145.4650 O   0  0  0  0  0  1  0  0  0  0  0  0
  182.4090  178.6090  143.2890 C   0  0  1  0  0  3  0  0  0  0  0  0
  185.1090  178.8690  142.4700 C   0  0  2  0  0  3  0  0  0  0  0  0
  191.1720  177.1610  139.1180 C   0  0  0  0  0  2  0  0  0  0  0  0
  191.2000  176.7890  137.7470 O   0  0  0  0  0  0  0  0  0  0  0  0
  192.5520  174.8740  137.5710 C   0  0  0  0  0  2  0  0  0  0  0  0
  191.3820  175.4620  137.3760 C   0  0  0  0  0  3  0  0  0  0  0  0
  189.2360  176.6670  144.0760 C   0  0  0  0  0  2  0  0  0  0  0  0
  189.5650  177.6450  145.1560 C   0  0  0  0  0  0  0  0  0  0  0  0
  190.1830  178.6630  144.8890 O   0  0  0  0  0  0  0  0  0  0  0  0
  189.1000  177.3020  146.8520 S   0  0  0  0  0  0  0  0  0  0  0  0
  190.7670  176.7290  147.2800 C   0  0  0  0  0  1  0  0  0  0  0  0
  1  4  1  6  0  0  0
  1  6  1  0  0  0  0
  2  8  2  0  0  0  0
  3 19  1  6  0  0  0
  3  4  1  0  0  0  0
  5  3  1  0  0  0  0
  5  7  1  0  0  0  0
  6  9  2  0  0  0  0
  6 23  1  0  0  0  0
  7  2  1  0  0  0  0
  7  1  1  0  0  0  0
  8  9  1  0  0  0  0
 11 14  1  0  0  0  0
 12 15  1  6  0  0  0
 12 17  1  0  0  0  0
 13 12  1  0  0  0  0
 13 18  1  0  0  0  0
 14 16  1  1  0  0  0
 17 10  1  6  0  0  0
 17 14  1  0  0  0  0
 18  8  1  6  0  0  0
 18 11  1  0  0  0  0
 20 19  1  0  0  0  0
 22 21  2  0  0  0  0
 22 20  1  0  0  0  0
 23 24  1  0  0  0  0
 24 26  1  0  0  0  0
 25 24  2  0  0  0  0
 26 27  1  0  0  0  0
M  END
>  <MODEL>
4

>  <REMARK>
 VINA RESULT:      -7.0      4.309      8.405
  Name = 
  7 active torsions:
  status: ('A' for Active; 'I' for Inactive)
    1  A    between atoms: C_2  and  S_4
    2  A    between atoms: C_2  and  C_15
    3  A    between atoms: C_8  and  O_26
    4  A    between atoms: C_10  and  C_14
    5  A    between atoms: C_14  and  O_26
    6  A    between atoms: C_15  and  C_19
    7  A    between atoms: C_21  and  C_23
                            x       y       z     vdW  Elec       q    Type
                         _______ _______ _______ _____ _____    ______ ____

>  <TORSDO>
F 7

$$$$
=
 OpenBabel10222420173D

 27 29  0  0  1  0  0  0  0  0999 V2000
  187.4260  177.8260  140.2540 C   0  0  2  0  0  3  0  0  0  0  0  0
  188.7070  177.1650  142.3260 C   0  0  0  0  0  3  0  0  0  0  0  0
  189.1740  178.5570  139.0050 C   0  0  1  0  0  3  0  0  0  0  0  0
  187.7850  178.7220  139.2250 O   0  0  0  0  0  0  0  0  0  0  0  0
  189.7800  177.7630  140.1440 C   0  0  0  0  0  2  0  0  0  0  0  0
  186.4570  178.4550  141.2260 C   0  0  0  0  0  0  0  0  0  0  0  0
  188.6370  177.3900  140.9180 N   0  0  0  0  0  0  0  0  0  0  0  0
  187.6840  177.5450  143.0890 C   0  0  0  0  0  0  0  0  0  0  0  0
  186.5760  178.2530  142.5070 N   0  0  0  0  0  0  0  0  0  0  0  0
  188.0620  177.4590  148.7100 C   0  0  0  0  0  1  0  0  0  0  0  0
  186.9940  178.3130  145.2250 O   0  0  0  0  0  0  0  0  0  0  0  0
  189.2280  177.0970  146.5440 C   0  0  1  0  0  3  0  0  0  0  0  0
  189.1940  177.3670  145.0430 C   0  0  0  0  0  2  0  0  0  0  0  0
  186.8510  177.8910  146.5600 C   0  0  2  0  0  3  0  0  0  0  0  0
  190.4990  177.3440  147.0280 F   0  0  0  0  0  0  0  0  0  0  0  0
  185.9230  178.7130  147.2000 O   0  0  0  0  0  1  0  0  0  0  0  0
  188.2040  177.9620  147.2850 C   0  0  1  0  0  3  0  0  0  0  0  0
  187.7440  177.3250  144.5620 C   0  0  2  0  0  3  0  0  0  0  0  0
  189.4430  177.8910  137.6560 C   0  0  0  0  0  2  0  0  0  0  0  0
  190.0640  176.6220  137.8130 O   0  0  0  0  0  0  0  0  0  0  0  0
  192.4050  176.4510  137.6910 C   0  0  0  0  0  2  0  0  0  0  0  0
  191.2240  176.3090  137.1120 C   0  0  0  0  0  3  0  0  0  0  0  0
  185.2380  179.1460  140.7080 C   0  0  0  0  0  2  0  0  0  0  0  0
  184.0050  178.4110  141.1230 C   0  0  0  0  0  0  0  0  0  0  0  0
  183.5780  177.5000  140.4330 O   0  0  0  0  0  0  0  0  0  0  0  0
  183.1230  178.8990  142.6040 S   0  0  0  0  0  0  0  0  0  0  0  0
  181.5080  178.7530  141.7900 C   0  0  0  0  0  1  0  0  0  0  0  0
  1  4  1  6  0  0  0
  1  7  1  0  0  0  0
  1  6  1  0  0  0  0
  2  8  2  0  0  0  0
  3 19  1  6  0  0  0
  3  4  1  0  0  0  0
  3  5  1  0  0  0  0
  5  7  1  0  0  0  0
  6  9  2  0  0  0  0
  7  2  1  0  0  0  0
  9  8  1  0  0  0  0
 11 14  1  0  0  0  0
 12 15  1  1  0  0  0
 12 17  1  0  0  0  0
 13 12  1  0  0  0  0
 14 16  1  1  0  0  0
 14 17  1  0  0  0  0
 17 10  1  1  0  0  0
 18  8  1  6  0  0  0
 18 13  1  0  0  0  0
 18 11  1  0  0  0  0
 19 20  1  0  0  0  0
 22 21  2  0  0  0  0
 22 20  1  0  0  0  0
 23 24  1  0  0  0  0
 23  6  1  0  0  0  0
 24 26  1  0  0  0  0
 25 24  2  0  0  0  0
 27 26  1  0  0  0  0
M  END
>  <MODEL>
5

>  <REMARK>
 VINA RESULT:      -6.9      3.639      6.712
  Name = 
  7 active torsions:
  status: ('A' for Active; 'I' for Inactive)
    1  A    between atoms: C_2  and  S_4
    2  A    between atoms: C_2  and  C_15
    3  A    between atoms: C_8  and  O_26
    4  A    between atoms: C_10  and  C_14
    5  A    between atoms: C_14  and  O_26
    6  A    between atoms: C_15  and  C_19
    7  A    between atoms: C_21  and  C_23
                            x       y       z     vdW  Elec       q    Type
                         _______ _______ _______ _____ _____    ______ ____

>  <TORSDO>
F 7

$$$$
=
 OpenBabel10222420173D

 27 29  0  0  1  0  0  0  0  0999 V2000
  189.2130  177.5700  142.7630 C   0  0  2  0  0  3  0  0  0  0  0  0
  187.0000  177.5120  143.9760 C   0  0  0  0  0  3  0  0  0  0  0  0
  190.5110  178.2920  144.4790 C   0  0  1  0  0  3  0  0  0  0  0  0
  190.3840  178.2930  143.0680 O   0  0  0  0  0  0  0  0  0  0  0  0
  189.2130  177.8270  145.1060 C   0  0  0  0  0  2  0  0  0  0  0  0
  188.4270  178.2270  141.6540 C   0  0  0  0  0  0  0  0  0  0  0  0
  188.4270  177.4490  143.9730 N   0  0  0  0  0  0  0  0  0  0  0  0
  186.3710  177.8790  142.8630 C   0  0  0  0  0  0  0  0  0  0  0  0
  187.1270  178.2940  141.7120 N   0  0  0  0  0  0  0  0  0  0  0  0
  180.8360  178.9230  142.6990 C   0  0  0  0  0  1  0  0  0  0  0  0
  184.4520  178.7160  141.7470 O   0  0  0  0  0  0  0  0  0  0  0  0
  182.8520  178.6220  144.1230 C   0  0  1  0  0  3  0  0  0  0  0  0
  184.3770  178.5940  144.1450 C   0  0  0  0  0  2  0  0  0  0  0  0
  183.0640  178.5130  141.6280 C   0  0  2  0  0  3  0  0  0  0  0  0
  182.3900  179.3840  145.1800 F   0  0  0  0  0  0  0  0  0  0  0  0
  182.6270  179.0510  140.4180 O   0  0  0  0  0  1  0  0  0  0  0  0
  182.3280  179.1840  142.7980 C   0  0  1  0  0  3  0  0  0  0  0  0
  184.8820  177.9570  142.8500 C   0  0  2  0  0  3  0  0  0  0  0  0
  191.6870  177.4250  144.9260 C   0  0  0  0  0  2  0  0  0  0  0  0
  191.6240  177.1310  146.3150 O   0  0  0  0  0  0  0  0  0  0  0  0
  192.6030  175.6830  147.8870 C   0  0  0  0  0  2  0  0  0  0  0  0
  191.8940  175.8490  146.7820 C   0  0  0  0  0  3  0  0  0  0  0  0
  189.1210  178.6220  140.3930 C   0  0  0  0  0  2  0  0  0  0  0  0
  189.2960  177.4380  139.4990 C   0  0  0  0  0  0  0  0  0  0  0  0
  190.2330  176.6750  139.6750 O   0  0  0  0  0  0  0  0  0  0  0  0
  188.1650  177.1620  138.1380 S   0  0  0  0  0  0  0  0  0  0  0  0
  189.0030  178.3800  137.0870 C   0  0  0  0  0  1  0  0  0  0  0  0
  1  6  1  6  0  0  0
  1  4  1  0  0  0  0
  1  7  1  0  0  0  0
  3 19  1  6  0  0  0
  3  5  1  0  0  0  0
  4  3  1  0  0  0  0
  6  9  2  0  0  0  0
  7  2  1  0  0  0  0
  7  5  1  0  0  0  0
  8  2  2  0  0  0  0
  9  8  1  0  0  0  0
 11 18  1  0  0  0  0
 12 13  1  0  0  0  0
 12 15  1  1  0  0  0
 14 16  1  6  0  0  0
 14 11  1  0  0  0  0
 14 17  1  0  0  0  0
 17 10  1  6  0  0  0
 17 12  1  0  0  0  0
 18  8  1  1  0  0  0
 18 13  1  0  0  0  0
 19 20  1  0  0  0  0
 20 22  1  0  0  0  0
 22 21  2  0  0  0  0
 23  6  1  0  0  0  0
 24 25  2  0  0  0  0
 24 23  1  0  0  0  0
 26 24  1  0  0  0  0
 27 26  1  0  0  0  0
M  END
>  <MODEL>
6

>  <REMARK>
 VINA RESULT:      -6.9      3.025      7.854
  Name = 
  7 active torsions:
  status: ('A' for Active; 'I' for Inactive)
    1  A    between atoms: C_2  and  S_4
    2  A    between atoms: C_2  and  C_15
    3  A    between atoms: C_8  and  O_26
    4  A    between atoms: C_10  and  C_14
    5  A    between atoms: C_14  and  O_26
    6  A    between atoms: C_15  and  C_19
    7  A    between atoms: C_21  and  C_23
                            x       y       z     vdW  Elec       q    Type
                         _______ _______ _______ _____ _____    ______ ____

>  <TORSDO>
F 7

$$$$
=
 OpenBabel10222420173D

 27 29  0  0  1  0  0  0  0  0999 V2000
  187.8730  176.8790  144.8760 C   0  0  2  0  0  3  0  0  0  0  0  0
  185.7350  178.2050  145.0850 C   0  0  0  0  0  3  0  0  0  0  0  0
  189.0540  177.8960  146.5260 C   0  0  1  0  0  3  0  0  0  0  0  0
  189.1780  177.2120  145.2930 O   0  0  0  0  0  0  0  0  0  0  0  0
  187.6070  178.2910  146.7450 C   0  0  0  0  0  2  0  0  0  0  0  0
  187.6910  177.0890  143.3930 C   0  0  0  0  0  0  0  0  0  0  0  0
  186.9370  177.6730  145.6440 N   0  0  0  0  0  0  0  0  0  0  0  0
  185.5520  178.1320  143.7680 C   0  0  0  0  0  0  0  0  0  0  0  0
  186.5930  177.6100  142.9250 N   0  0  0  0  0  0  0  0  0  0  0  0
  180.5650  179.5250  141.5460 C   0  0  0  0  0  1  0  0  0  0  0  0
  183.1860  178.2520  143.8970 O   0  0  0  0  0  0  0  0  0  0  0  0
  182.9210  178.8600  141.1100 C   0  0  1  0  0  3  0  0  0  0  0  0
  184.1790  178.2420  141.7100 C   0  0  0  0  0  2  0  0  0  0  0  0
  182.0920  179.0270  143.4690 C   0  0  2  0  0  3  0  0  0  0  0  0
  182.6780  178.2980  139.8700 F   0  0  0  0  0  0  0  0  0  0  0  0
  181.0120  178.8000  144.3210 O   0  0  0  0  0  1  0  0  0  0  0  0
  181.7120  178.6550  142.0270 C   0  0  1  0  0  3  0  0  0  0  0  0
  184.3060  178.6880  143.1670 C   0  0  2  0  0  3  0  0  0  0  0  0
  189.5800  177.0470  147.6830 C   0  0  0  0  0  2  0  0  0  0  0  0
  190.9990  177.0960  147.7660 O   0  0  0  0  0  0  0  0  0  0  0  0
  192.8070  175.6270  148.0760 C   0  0  0  0  0  2  0  0  0  0  0  0
  191.7710  176.0180  147.3500 C   0  0  0  0  0  3  0  0  0  0  0  0
  188.6880  176.5160  142.4400 C   0  0  0  0  0  2  0  0  0  0  0  0
  189.4660  177.6060  141.7780 C   0  0  0  0  0  0  0  0  0  0  0  0
  189.8540  178.5610  142.4310 O   0  0  0  0  0  0  0  0  0  0  0  0
  189.7860  177.5410  140.0160 S   0  0  0  0  0  0  0  0  0  0  0  0
  188.1550  178.2270  139.6120 C   0  0  0  0  0  1  0  0  0  0  0  0
  1  6  1  6  0  0  0
  1  4  1  0  0  0  0
  1  7  1  0  0  0  0
  2  7  1  0  0  0  0
  3  5  1  0  0  0  0
  3 19  1  1  0  0  0
  4  3  1  0  0  0  0
  7  5  1  0  0  0  0
  8  2  2  0  0  0  0
  9  6  2  0  0  0  0
  9  8  1  0  0  0  0
 12 15  1  6  0  0  0
 12 13  1  0  0  0  0
 12 17  1  0  0  0  0
 13 18  1  0  0  0  0
 14 11  1  0  0  0  0
 14 16  1  1  0  0  0
 17 10  1  6  0  0  0
 17 14  1  0  0  0  0
 18  8  1  1  0  0  0
 18 11  1  0  0  0  0
 19 20  1  0  0  0  0
 22 20  1  0  0  0  0
 22 21  2  0  0  0  0
 23  6  1  0  0  0  0
 24 25  2  0  0  0  0
 24 23  1  0  0  0  0
 26 24  1  0  0  0  0
 27 26  1  0  0  0  0
M  END
>  <MODEL>
7

>  <REMARK>
 VINA RESULT:      -6.9      3.011      7.990
  Name = 
  7 active torsions:
  status: ('A' for Active; 'I' for Inactive)
    1  A    between atoms: C_2  and  S_4
    2  A    between atoms: C_2  and  C_15
    3  A    between atoms: C_8  and  O_26
    4  A    between atoms: C_10  and  C_14
    5  A    between atoms: C_14  and  O_26
    6  A    between atoms: C_15  and  C_19
    7  A    between atoms: C_21  and  C_23
                            x       y       z     vdW  Elec       q    Type
                         _______ _______ _______ _____ _____    ______ ____

>  <TORSDO>
F 7

$$$$
=
 OpenBabel10222420173D

 27 29  0  0  1  0  0  0  0  0999 V2000
  188.0580  177.5630  144.0580 C   0  0  2  0  0  3  0  0  0  0  0  0
  186.9720  178.2700  141.8920 C   0  0  0  0  0  3  0  0  0  0  0  0
  189.5250  176.0510  143.2120 C   0  0  1  0  0  3  0  0  0  0  0  0
  188.7670  176.3810  144.3610 O   0  0  0  0  0  0  0  0  0  0  0  0
  189.0420  176.8680  142.0310 C   0  0  0  0  0  2  0  0  0  0  0  0
  186.6450  177.5150  144.5870 C   0  0  0  0  0  0  0  0  0  0  0  0
  188.0830  177.7480  142.6220 N   0  0  0  0  0  0  0  0  0  0  0  0
  185.8050  178.4180  142.5160 C   0  0  0  0  0  0  0  0  0  0  0  0
  185.6540  177.9700  143.8740 N   0  0  0  0  0  0  0  0  0  0  0  0
  181.1910  179.7160  139.5560 C   0  0  0  0  0  1  0  0  0  0  0  0
  183.4640  178.2770  142.1590 O   0  0  0  0  0  0  0  0  0  0  0  0
  183.6540  179.3830  139.5230 C   0  0  1  0  0  3  0  0  0  0  0  0
  184.8480  178.7890  140.2630 C   0  0  0  0  0  2  0  0  0  0  0  0
  182.3770  179.0090  141.6460 C   0  0  2  0  0  3  0  0  0  0  0  0
  183.7310  179.0500  138.1830 F   0  0  0  0  0  0  0  0  0  0  0  0
  181.1950  178.5150  142.1990 O   0  0  0  0  0  1  0  0  0  0  0  0
  182.3320  178.8870  140.1150 C   0  0  1  0  0  3  0  0  0  0  0  0
  184.6330  178.9550  141.7670 C   0  0  2  0  0  3  0  0  0  0  0  0
  191.0190  176.2590  143.4590 C   0  0  0  0  0  2  0  0  0  0  0  0
  191.4400  177.5570  143.0600 O   0  0  0  0  0  0  0  0  0  0  0  0
  190.9980  179.6800  143.9690 C   0  0  0  0  0  2  0  0  0  0  0  0
  191.6820  178.5460  144.0070 C   0  0  0  0  0  3  0  0  0  0  0  0
  186.4030  177.1310  146.0090 C   0  0  0  0  0  2  0  0  0  0  0  0
  186.5460  178.3200  146.9030 C   0  0  0  0  0  0  0  0  0  0  0  0
  185.6730  179.1720  146.9270 O   0  0  0  0  0  0  0  0  0  0  0  0
  188.0200  178.5230  147.9010 S   0  0  0  0  0  0  0  0  0  0  0  0
  188.4300  176.7590  147.8010 C   0  0  0  0  0  1  0  0  0  0  0  0
  1  4  1  6  0  0  0
  1  6  1  0  0  0  0
  2  8  2  0  0  0  0
  2  7  1  0  0  0  0
  3 19  1  1  0  0  0
  3  4  1  0  0  0  0
  5  7  1  0  0  0  0
  5  3  1  0  0  0  0
  6 23  1  0  0  0  0
  7  1  1  0  0  0  0
  8  9  1  0  0  0  0
  9  6  2  0  0  0  0
 12 15  1  6  0  0  0
 12 17  1  0  0  0  0
 12 13  1  0  0  0  0
 13 18  1  0  0  0  0
 14 11  1  0  0  0  0
 14 16  1  1  0  0  0
 17 10  1  6  0  0  0
 17 14  1  0  0  0  0
 18 11  1  0  0  0  0
 18  8  1  1  0  0  0
 20 19  1  0  0  0  0
 20 22  1  0  0  0  0
 21 22  2  0  0  0  0
 23 24  1  0  0  0  0
 24 25  2  0  0  0  0
 24 26  1  0  0  0  0
 27 26  1  0  0  0  0
M  END
>  <MODEL>
8

>  <REMARK>
 VINA RESULT:      -6.8      3.514      8.357
  Name = 
  7 active torsions:
  status: ('A' for Active; 'I' for Inactive)
    1  A    between atoms: C_2  and  S_4
    2  A    between atoms: C_2  and  C_15
    3  A    between atoms: C_8  and  O_26
    4  A    between atoms: C_10  and  C_14
    5  A    between atoms: C_14  and  O_26
    6  A    between atoms: C_15  and  C_19
    7  A    between atoms: C_21  and  C_23
                            x       y       z     vdW  Elec       q    Type
                         _______ _______ _______ _____ _____    ______ ____

>  <TORSDO>
F 7

$$$$
=
 OpenBabel10222420173D

 27 29  0  0  1  0  0  0  0  0999 V2000
  189.9590  177.4590  140.8370 C   0  0  2  0  0  3  0  0  0  0  0  0
  187.6320  178.4020  140.5770 C   0  0  0  0  0  3  0  0  0  0  0  0
  190.1000  176.3780  138.8470 C   0  0  1  0  0  3  0  0  0  0  0  0
  190.5590  176.3610  140.1860 O   0  0  0  0  0  0  0  0  0  0  0  0
  188.9250  177.3260  138.7230 C   0  0  0  0  0  2  0  0  0  0  0  0
  189.5040  177.0990  142.2310 C   0  0  0  0  0  0  0  0  0  0  0  0
  188.8560  177.9210  140.0200 N   0  0  0  0  0  0  0  0  0  0  0  0
  187.4160  178.2500  141.8820 C   0  0  0  0  0  0  0  0  0  0  0  0
  188.3630  177.5290  142.6890 N   0  0  0  0  0  0  0  0  0  0  0  0
  182.4850  179.3780  144.3650 C   0  0  0  0  0  1  0  0  0  0  0  0
  186.0130  178.2600  143.7950 O   0  0  0  0  0  0  0  0  0  0  0  0
  183.6660  178.8190  142.2490 C   0  0  1  0  0  3  0  0  0  0  0  0
  184.9520  178.2690  141.6400 C   0  0  0  0  0  2  0  0  0  0  0  0
  184.9580  178.9770  144.3900 C   0  0  2  0  0  3  0  0  0  0  0  0
  182.5760  178.2300  141.6350 F   0  0  0  0  0  0  0  0  0  0  0  0
  184.9420  178.7110  145.7590 O   0  0  0  0  0  1  0  0  0  0  0  0
  183.6180  178.5690  143.7590 C   0  0  1  0  0  3  0  0  0  0  0  0
  186.1400  178.7390  142.4790 C   0  0  2  0  0  3  0  0  0  0  0  0
  191.2250  176.7560  137.8840 C   0  0  0  0  0  2  0  0  0  0  0  0
  192.5050  176.5440  138.4630 O   0  0  0  0  0  0  0  0  0  0  0  0
  193.9060  174.7230  137.9660 C   0  0  0  0  0  2  0  0  0  0  0  0
  193.5330  175.9700  137.7230 C   0  0  0  0  0  3  0  0  0  0  0  0
  190.4510  176.4150  143.1610 C   0  0  0  0  0  2  0  0  0  0  0  0
  190.8570  177.3370  144.2640 C   0  0  0  0  0  0  0  0  0  0  0  0
  191.6900  178.2040  144.0570 O   0  0  0  0  0  0  0  0  0  0  0  0
  190.1620  177.1390  145.9040 S   0  0  0  0  0  0  0  0  0  0  0  0
  191.6790  176.3770  146.5440 C   0  0  0  0  0  1  0  0  0  0  0  0
  1  4  1  6  0  0  0
  1  6  1  0  0  0  0
  2  8  2  0  0  0  0
  3 19  1  6  0  0  0
  3  4  1  0  0  0  0
  5  3  1  0  0  0  0
  5  7  1  0  0  0  0
  6  9  2  0  0  0  0
  6 23  1  0  0  0  0
  7  2  1  0  0  0  0
  7  1  1  0  0  0  0
  8  9  1  0  0  0  0
 11 14  1  0  0  0  0
 12 15  1  6  0  0  0
 12 17  1  0  0  0  0
 13 12  1  0  0  0  0
 13 18  1  0  0  0  0
 14 16  1  1  0  0  0
 17 10  1  1  0  0  0
 17 14  1  0  0  0  0
 18  8  1  6  0  0  0
 18 11  1  0  0  0  0
 19 20  1  0  0  0  0
 22 21  2  0  0  0  0
 22 20  1  0  0  0  0
 23 24  1  0  0  0  0
 24 26  1  0  0  0  0
 25 24  2  0  0  0  0
 26 27  1  0  0  0  0
M  END
>  <MODEL>
9

>  <REMARK>
 VINA RESULT:      -6.8      4.695      8.711
  Name = 
  7 active torsions:
  status: ('A' for Active; 'I' for Inactive)
    1  A    between atoms: C_2  and  S_4
    2  A    between atoms: C_2  and  C_15
    3  A    between atoms: C_8  and  O_26
    4  A    between atoms: C_10  and  C_14
    5  A    between atoms: C_14  and  O_26
    6  A    between atoms: C_15  and  C_19
    7  A    between atoms: C_21  and  C_23
                            x       y       z     vdW  Elec       q    Type
                         _______ _______ _______ _____ _____    ______ ____

>  <TORSDO>
F 7

$$$$
