=
 OpenBabel10222418493D

 68 75  0  0  1  0  0  0  0  0999 V2000
  187.9050  178.3460  145.0230 N   0  0  0  0  0  2  0  0  0  0  0  0
  186.6300  177.7090  145.3100 C   0  0  1  0  0  3  0  0  0  0  0  0
  186.7140  176.9190  146.4930 O   0  0  0  0  0  0  0  0  0  0  0  0
  188.5010  177.1590  148.0020 C   0  0  0  0  0  2  0  0  0  0  0  0
  187.2470  177.4220  147.6780 C   0  0  0  0  0  3  0  0  0  0  0  0
  185.5230  178.7500  145.4160 C   0  0  0  0  0  2  0  0  0  0  0  0
  182.4190  177.3470  137.9700 N   0  0  0  0  0  0  0  0  0  0  0  0
  183.2750  178.7720  144.5360 C   0  0  0  0  0  3  0  0  0  0  0  0
  183.2120  178.1150  141.5220 N   0  0  0  0  0  0  0  0  0  0  0  0
  184.6080  178.0290  141.8030 C   0  0  0  0  0  3  0  0  0  0  0  0
  183.2270  177.5610  139.0500 C   0  0  0  0  0  3  0  0  0  0  0  0
  182.6200  177.8630  140.2600 C   0  0  0  0  0  0  0  0  0  0  0  0
  184.5740  178.6030  144.2750 C   0  0  0  0  0  0  0  0  0  0  0  0
  180.4680  177.7100  139.2720 N   0  0  0  0  0  0  0  0  0  0  0  0
  180.8280  178.2450  141.6610 N   0  0  0  0  0  2  0  0  0  0  0  0
  182.0750  178.3500  142.3640 C   0  0  0  0  0  0  0  0  0  0  0  0
  182.1070  178.6440  143.6580 C   0  0  0  0  0  3  0  0  0  0  0  0
  185.1790  178.2370  142.9840 C   0  0  0  0  0  3  0  0  0  0  0  0
  181.2640  177.9330  140.3460 C   0  0  0  0  0  0  0  0  0  0  0  0
  181.0510  177.4170  138.0710 C   0  0  0  0  0  0  0  0  0  0  0  0
  180.1770  177.1750  136.8700 C   0  0  2  0  0  3  0  0  0  0  0  0
  180.7810  176.1950  135.8440 C   0  0  2  0  0  3  0  0  0  0  0  0
  180.1600  176.2940  134.5940 O   0  0  0  0  0  1  0  0  0  0  0  0
  180.8890  174.7340  136.3360 C   0  0  1  0  0  0  0  0  0  0  0  0
  178.9390  174.0400  137.5590 C   0  0  0  0  0  2  0  0  0  0  0  0
  180.3110  174.6240  137.7400 C   0  0  0  0  0  2  0  0  0  0  0  0
  180.0760  173.8890  135.4580 N   0  0  0  0  0  2  0  0  0  0  0  0
  179.0550  173.2520  136.2820 C   0  0  0  0  0  2  0  0  0  0  0  0
  182.3280  174.1970  136.3190 C   0  0  0  0  0  2  0  0  0  0  0  0
  184.4390  174.0640  135.1310 N   0  0  0  0  0  1  0  0  0  0  0  0
  183.2010  174.8130  135.2340 C   0  0  0  0  0  2  0  0  0  0  0  0
  179.6260  178.4760  136.2730 C   0  0  0  0  0  2  0  0  0  0  0  0
  180.6960  179.3050  135.5780 C   0  0  0  0  0  2  0  0  0  0  0  0
  179.2010  180.8600  136.0370 C   0  0  0  0  0  1  0  0  0  0  0  0
  180.5750  180.6380  135.9680 O   0  0  0  0  0  0  0  0  0  0  0  0
  188.0430  178.3210  143.5770 C   0  0  0  0  0  2  0  0  0  0  0  0
  191.1580  177.9520  143.7170 C   0  0  1  0  0  3  0  0  0  0  0  0
  191.5320  177.1550  142.4690 C   0  0  1  0  0  3  0  0  0  0  0  0
  190.2950  177.1030  144.6750 C   0  0  2  0  0  3  0  0  0  0  0  0
  190.4190  177.1790  141.4570 C   0  0  0  0  0  3  0  0  0  0  0  0
  191.1460  176.2650  145.6170 C   0  0  0  0  0  1  0  0  0  0  0  0
  188.5440  176.9480  143.1010 C   0  0  1  0  0  3  0  0  0  0  0  0
  189.1090  177.0300  141.7030 C   0  0  0  0  0  0  0  0  0  0  0  0
  189.3920  176.2460  144.0000 O   0  0  0  0  0  0  0  0  0  0  0  0
  192.6950  177.6610  141.8800 O   0  0  0  0  0  0  0  0  0  0  0  0
  192.8170  176.9660  140.6750 C   0  0  0  0  0  1  0  0  0  0  0  0
  192.2870  178.4660  144.3670 O   0  0  0  0  0  0  0  0  0  0  0  0
  192.0250  179.8280  144.5120 C   0  0  0  0  0  1  0  0  0  0  0  0
  188.2560  177.0150  140.5890 O   0  0  0  0  0  0  0  0  0  0  0  0
  188.4650  179.3240  140.1680 C   0  0  0  0  0  1  0  0  0  0  0  0
  188.2590  177.9600  139.5140 C   0  0  2  0  0  0  0  0  0  0  0  0
  186.8840  177.9840  138.8310 C   0  0  0  0  0  2  0  0  0  0  0  0
  186.8480  178.8560  137.7570 F   0  0  0  0  0  0  0  0  0  0  0  0
  189.3150  177.6280  138.6150 O   0  0  0  0  0  0  0  0  0  0  0  0
  188.3480  176.8440  136.5480 O   0  0  0  0  0  1  0  0  0  0  0  0
  190.1840  175.5940  137.6150 C   0  0  1  0  0  3  0  0  0  0  0  0
  189.0040  176.5510  137.7490 C   0  0  1  0  0  0  0  0  0  0  0  0
  188.8910  175.1450  138.2920 C   0  0  0  0  0  2  0  0  0  0  0  0
  190.3150  174.9850  136.2080 C   0  0  1  0  0  3  0  0  0  0  0  0
  192.6030  176.1570  136.2900 C   0  0  0  0  0  2  0  0  0  0  0  0
  193.0610  175.7060  137.5430 O   0  0  0  0  0  0  0  0  0  0  0  0
  193.2260  173.4290  136.8070 C   0  0  0  0  0  2  0  0  0  0  0  0
  193.9750  174.6700  137.2900 C   0  0  0  0  0  2  0  0  0  0  0  0
  192.4900  173.7590  135.5080 C   0  0  0  0  0  2  0  0  0  0  0  0
  191.7340  175.0940  135.6040 C   0  0  1  0  0  3  0  0  0  0  0  0
  188.2980  173.6930  135.7060 O   0  0  0  0  0  0  0  0  0  0  0  0
  189.6500  173.5970  136.0960 C   0  0  1  0  0  3  0  0  0  0  0  0
  189.2100  173.2910  134.7130 C   0  0  0  0  0  2  0  0  0  0  0  0
  1  2  1  0  0  0  0
  2  6  1  1  0  0  0
  2  3  1  0  0  0  0
  3  5  1  0  0  0  0
  5  4  2  0  0  0  0
  7 20  2  0  0  0  0
  7 11  1  0  0  0  0
  9 10  1  0  0  0  0
  9 16  1  0  0  0  0
 10 18  2  0  0  0  0
 11 12  2  0  0  0  0
 12 19  1  0  0  0  0
 12  9  1  0  0  0  0
 13  8  2  0  0  0  0
 13  6  1  0  0  0  0
 14 19  2  0  0  0  0
 15 16  1  0  0  0  0
 16 17  2  0  0  0  0
 17  8  1  0  0  0  0
 18 13  1  0  0  0  0
 19 15  1  0  0  0  0
 20 14  1  0  0  0  0
 21 32  1  6  0  0  0
 21 20  1  0  0  0  0
 22 23  1  6  0  0  0
 22 24  1  0  0  0  0
 22 21  1  0  0  0  0
 24 29  1  6  0  0  0
 24 26  1  0  0  0  0
 25 26  1  0  0  0  0
 27 28  1  0  0  0  0
 27 24  1  0  0  0  0
 28 25  1  0  0  0  0
 30 31  1  0  0  0  0
 31 29  1  0  0  0  0
 33 35  1  0  0  0  0
 33 32  1  0  0  0  0
 35 34  1  0  0  0  0
 36  1  1  0  0  0  0
 37 47  1  1  0  0  0
 37 39  1  0  0  0  0
 38 45  1  6  0  0  0
 38 37  1  0  0  0  0
 39 41  1  6  0  0  0
 40 43  2  0  0  0  0
 40 38  1  0  0  0  0
 42 36  1  1  0  0  0
 42 44  1  0  0  0  0
 43 42  1  0  0  0  0
 44 39  1  0  0  0  0
 46 45  1  0  0  0  0
 47 48  1  0  0  0  0
 49 43  1  0  0  0  0
 51 50  1  1  0  0  0
 51 49  1  0  0  0  0
 52 51  1  0  0  0  0
 53 52  1  0  0  0  0
 54 51  1  0  0  0  0
 56 59  1  6  0  0  0
 56 57  1  0  0  0  0
 56 58  1  0  0  0  0
 57 55  1  6  0  0  0
 57 58  1  0  0  0  0
 57 54  1  0  0  0  0
 59 65  1  1  0  0  0
 60 61  1  0  0  0  0
 62 63  1  0  0  0  0
 63 61  1  0  0  0  0
 64 62  1  0  0  0  0
 65 64  1  1  0  0  0
 65 60  1  0  0  0  0
 66 67  1  0  0  0  0
 67 59  1  6  0  0  0
 68 66  1  0  0  0  0
 68 67  1  0  0  0  0
M  END
>  <MODEL>
1

>  <REMARK>
 VINA RESULT:      -4.3      0.000      0.000
  Name = 
  25 active torsions:
  status: ('A' for Active; 'I' for Inactive)
    1  A    between atoms: C_1  and  C_12
    2  A    between atoms: C_1  and  C_23
    3  A    between atoms: C_1  and  C_65
    4  A    between atoms: C_2  and  C_8
    5  A    between atoms: C_2  and  C_23
    6  A    between atoms: C_6  and  O_49
    7  A    between atoms: C_8  and  C_67
    8  A    between atoms: C_12  and  C_42
    9  A    between atoms: O_13  and  C_17
   10  A    between atoms: C_14  and  C_39
   11  A    between atoms: N_20  and  C_31
   12  A    between atoms: N_20  and  C_56
   13  A    between atoms: O_24  and  C_25
   14  A    between atoms: O_24  and  C_64
   15  A    between atoms: C_26  and  C_40
   16  A    between atoms: C_26  and  C_56
   17  A    between atoms: C_31  and  C_43
   18  A    between atoms: C_33  and  C_39
   19  A    between atoms: C_38  and  C_64
   20  A    between atoms: C_39  and  C_68
   21  A    between atoms: C_42  and  O_51
   22  A    between atoms: C_48  and  O_63
   23  A    between atoms: C_53  and  O_66
   24  A    between atoms: C_56  and  O_66
   25  A    between atoms: O_63  and  C_64
                            x       y       z     vdW  Elec       q    Type
                         _______ _______ _______ _____ _____    ______ ____

>  <TORSDO>
F 25

$$$$
=
 OpenBabel10222418493D

 68 75  0  0  1  0  0  0  0  0999 V2000
  182.2970  179.9560  138.3430 N   0  0  0  0  0  2  0  0  0  0  0  0
  181.2620  180.2620  139.3170 C   0  0  1  0  0  3  0  0  0  0  0  0
  180.1280  180.8470  138.6820 O   0  0  0  0  0  0  0  0  0  0  0  0
  180.1110  181.9650  136.6140 C   0  0  0  0  0  2  0  0  0  0  0  0
  180.2270  182.0150  137.9300 C   0  0  0  0  0  3  0  0  0  0  0  0
  180.8760  179.0140  140.0990 C   0  0  0  0  0  2  0  0  0  0  0  0
  187.7320  177.2390  144.2090 N   0  0  0  0  0  0  0  0  0  0  0  0
  181.4410  179.0250  142.4470 C   0  0  0  0  0  3  0  0  0  0  0  0
  184.3570  178.1410  142.9340 N   0  0  0  0  0  0  0  0  0  0  0  0
  184.2710  178.0660  141.5110 C   0  0  0  0  0  3  0  0  0  0  0  0
  186.7620  177.4140  143.2650 C   0  0  0  0  0  3  0  0  0  0  0  0
  185.5210  177.8660  143.6920 C   0  0  0  0  0  0  0  0  0  0  0  0
  181.8550  178.7790  141.2010 C   0  0  0  0  0  0  0  0  0  0  0  0
  186.2750  177.9550  145.9400 N   0  0  0  0  0  0  0  0  0  0  0  0
  183.9820  178.5820  145.2540 N   0  0  0  0  0  2  0  0  0  0  0  0
  183.4250  178.5790  143.9310 C   0  0  0  0  0  0  0  0  0  0  0  0
  182.1670  178.9470  143.7190 C   0  0  0  0  0  3  0  0  0  0  0  0
  183.1960  178.3440  140.7800 C   0  0  0  0  0  3  0  0  0  0  0  0
  185.3040  178.1230  145.0100 C   0  0  0  0  0  0  0  0  0  0  0  0
  187.5020  177.5060  145.5360 C   0  0  0  0  0  0  0  0  0  0  0  0
  188.5850  177.3090  146.5610 C   0  0  2  0  0  3  0  0  0  0  0  0
  189.7200  176.3720  146.0990 C   0  0  2  0  0  3  0  0  0  0  0  0
  189.9020  175.2950  146.9740 O   0  0  0  0  0  1  0  0  0  0  0  0
  191.0460  177.0870  145.7580 C   0  0  1  0  0  0  0  0  0  0  0  0
  191.5020  177.0790  143.3970 C   0  0  0  0  0  2  0  0  0  0  0  0
  191.7740  176.3180  144.6630 C   0  0  0  0  0  2  0  0  0  0  0  0
  190.7340  178.4160  145.2280 N   0  0  0  0  0  2  0  0  0  0  0  0
  191.2700  178.4870  143.8730 C   0  0  0  0  0  2  0  0  0  0  0  0
  191.9680  177.2620  146.9740 C   0  0  0  0  0  2  0  0  0  0  0  0
  193.3280  176.1280  148.6330 N   0  0  0  0  0  1  0  0  0  0  0  0
  192.1540  175.9910  147.7910 C   0  0  0  0  0  2  0  0  0  0  0  0
  188.0260  177.0050  147.9570 C   0  0  0  0  0  2  0  0  0  0  0  0
  188.0200  178.2240  148.8670 C   0  0  0  0  0  2  0  0  0  0  0  0
  186.5640  179.7560  148.2370 C   0  0  0  0  0  1  0  0  0  0  0  0
  187.8990  179.3780  148.0950 O   0  0  0  0  0  0  0  0  0  0  0  0
  182.4070  178.5070  138.3260 C   0  0  0  0  0  2  0  0  0  0  0  0
  180.3380  176.5350  137.0260 C   0  0  1  0  0  3  0  0  0  0  0  0
  181.1760  175.4880  136.2930 C   0  0  1  0  0  3  0  0  0  0  0  0
  180.5040  177.9260  136.3760 C   0  0  2  0  0  3  0  0  0  0  0  0
  182.6050  175.5150  136.7610 C   0  0  0  0  0  3  0  0  0  0  0  0
  179.5340  178.1360  135.2240 C   0  0  0  0  0  1  0  0  0  0  0  0
  182.7980  178.0060  136.9270 C   0  0  1  0  0  3  0  0  0  0  0  0
  183.3550  176.6030  136.9860 C   0  0  0  0  0  0  0  0  0  0  0  0
  181.8190  178.1690  135.9090 O   0  0  0  0  0  0  0  0  0  0  0  0
  180.6560  174.2050  136.4880 O   0  0  0  0  0  0  0  0  0  0  0  0
  180.6740  173.6160  135.2200 C   0  0  0  0  0  1  0  0  0  0  0  0
  178.9900  176.1650  137.1020 O   0  0  0  0  0  0  0  0  0  0  0  0
  178.9310  175.2500  138.1540 C   0  0  0  0  0  1  0  0  0  0  0  0
  184.6920  176.3840  137.3500 O   0  0  0  0  0  0  0  0  0  0  0  0
  185.4620  175.2810  135.4150 C   0  0  0  0  0  1  0  0  0  0  0  0
  185.5060  175.2800  136.9410 C   0  0  2  0  0  0  0  0  0  0  0  0
  184.8780  173.9610  137.4140 C   0  0  0  0  0  2  0  0  0  0  0  0
  185.6210  172.8600  137.0300 F   0  0  0  0  0  0  0  0  0  0  0  0
  186.8260  175.4730  137.4430 O   0  0  0  0  0  0  0  0  0  0  0  0
  187.8790  176.9780  135.8780 O   0  0  0  0  0  1  0  0  0  0  0  0
  189.1310  175.0650  136.7970 C   0  0  1  0  0  3  0  0  0  0  0  0
  187.7910  175.6950  136.4300 C   0  0  1  0  0  0  0  0  0  0  0  0
  188.3200  174.5370  135.6150 C   0  0  0  0  0  2  0  0  0  0  0  0
  190.3400  175.8870  136.3200 C   0  0  1  0  0  3  0  0  0  0  0  0
  189.4490  177.5830  138.0350 C   0  0  0  0  0  2  0  0  0  0  0  0
  189.2350  176.7270  139.1330 O   0  0  0  0  0  0  0  0  0  0  0  0
  191.5770  176.2890  139.4120 C   0  0  0  0  0  2  0  0  0  0  0  0
  190.3170  176.9140  140.0090 C   0  0  0  0  0  2  0  0  0  0  0  0
  191.8990  176.9730  138.0840 C   0  0  0  0  0  2  0  0  0  0  0  0
  190.6510  177.1200  137.2000 C   0  0  1  0  0  3  0  0  0  0  0  0
  191.5550  174.6470  134.5940 O   0  0  0  0  0  0  0  0  0  0  0  0
  191.5550  175.0060  135.9580 C   0  0  1  0  0  3  0  0  0  0  0  0
  192.4550  175.6590  134.9780 C   0  0  0  0  0  2  0  0  0  0  0  0
  1  2  1  0  0  0  0
  2  6  1  6  0  0  0
  3  2  1  0  0  0  0
  4  5  2  0  0  0  0
  5  3  1  0  0  0  0
  6 13  1  0  0  0  0
  7 20  2  0  0  0  0
  8 17  1  0  0  0  0
  9 12  1  0  0  0  0
  9 16  1  0  0  0  0
 10  9  1  0  0  0  0
 11 12  2  0  0  0  0
 11  7  1  0  0  0  0
 12 19  1  0  0  0  0
 13  8  2  0  0  0  0
 16 15  1  0  0  0  0
 17 16  2  0  0  0  0
 18 13  1  0  0  0  0
 18 10  2  0  0  0  0
 19 15  1  0  0  0  0
 19 14  2  0  0  0  0
 20 14  1  0  0  0  0
 20 21  1  0  0  0  0
 21 32  1  1  0  0  0
 22 21  1  0  0  0  0
 22 23  1  1  0  0  0
 24 22  1  0  0  0  0
 24 29  1  1  0  0  0
 25 28  1  0  0  0  0
 25 26  1  0  0  0  0
 26 24  1  0  0  0  0
 27 24  1  0  0  0  0
 28 27  1  0  0  0  0
 29 31  1  0  0  0  0
 31 30  1  0  0  0  0
 32 33  1  0  0  0  0
 35 34  1  0  0  0  0
 35 33  1  0  0  0  0
 36  1  1  0  0  0  0
 37 47  1  6  0  0  0
 38 45  1  1  0  0  0
 38 40  1  0  0  0  0
 38 37  1  0  0  0  0
 39 41  1  6  0  0  0
 39 37  1  0  0  0  0
 40 43  2  0  0  0  0
 42 43  1  0  0  0  0
 42 36  1  1  0  0  0
 43 49  1  0  0  0  0
 44 39  1  0  0  0  0
 44 42  1  0  0  0  0
 46 45  1  0  0  0  0
 47 48  1  0  0  0  0
 51 50  1  6  0  0  0
 51 49  1  0  0  0  0
 51 52  1  0  0  0  0
 51 54  1  0  0  0  0
 53 52  1  0  0  0  0
 56 59  1  6  0  0  0
 57 55  1  6  0  0  0
 57 56  1  0  0  0  0
 57 54  1  0  0  0  0
 58 57  1  0  0  0  0
 58 56  1  0  0  0  0
 59 67  1  1  0  0  0
 60 61  1  0  0  0  0
 61 63  1  0  0  0  0
 62 63  1  0  0  0  0
 64 62  1  0  0  0  0
 65 59  1  1  0  0  0
 65 60  1  0  0  0  0
 65 64  1  0  0  0  0
 66 68  1  0  0  0  0
 66 67  1  0  0  0  0
 67 68  1  6  0  0  0
M  END
>  <MODEL>
2

>  <REMARK>
 VINA RESULT:      -3.3      2.377      9.850
  Name = 
  25 active torsions:
  status: ('A' for Active; 'I' for Inactive)
    1  A    between atoms: C_1  and  C_12
    2  A    between atoms: C_1  and  C_23
    3  A    between atoms: C_1  and  C_65
    4  A    between atoms: C_2  and  C_8
    5  A    between atoms: C_2  and  C_23
    6  A    between atoms: C_6  and  O_49
    7  A    between atoms: C_8  and  C_67
    8  A    between atoms: C_12  and  C_42
    9  A    between atoms: O_13  and  C_17
   10  A    between atoms: C_14  and  C_39
   11  A    between atoms: N_20  and  C_31
   12  A    between atoms: N_20  and  C_56
   13  A    between atoms: O_24  and  C_25
   14  A    between atoms: O_24  and  C_64
   15  A    between atoms: C_26  and  C_40
   16  A    between atoms: C_26  and  C_56
   17  A    between atoms: C_31  and  C_43
   18  A    between atoms: C_33  and  C_39
   19  A    between atoms: C_38  and  C_64
   20  A    between atoms: C_39  and  C_68
   21  A    between atoms: C_42  and  O_51
   22  A    between atoms: C_48  and  O_63
   23  A    between atoms: C_53  and  O_66
   24  A    between atoms: C_56  and  O_66
   25  A    between atoms: O_63  and  C_64
                            x       y       z     vdW  Elec       q    Type
                         _______ _______ _______ _____ _____    ______ ____

>  <TORSDO>
F 25

$$$$
=
 OpenBabel10222418493D

 68 75  0  0  1  0  0  0  0  0999 V2000
  192.0820  174.9000  135.2510 N   0  0  0  0  0  2  0  0  0  0  0  0
  190.6490  174.9370  135.0060 C   0  0  1  0  0  3  0  0  0  0  0  0
  189.9470  174.1960  136.0010 O   0  0  0  0  0  0  0  0  0  0  0  0
  189.7000  172.3270  134.5960 C   0  0  0  0  0  2  0  0  0  0  0  0
  189.4840  172.9030  135.7660 C   0  0  0  0  0  3  0  0  0  0  0  0
  190.1560  176.3760  134.9340 C   0  0  0  0  0  2  0  0  0  0  0  0
  183.0080  178.6900  138.1890 N   0  0  0  0  0  0  0  0  0  0  0  0
  187.8980  175.5470  134.7140 C   0  0  0  0  0  3  0  0  0  0  0  0
  185.9070  177.1590  136.4330 N   0  0  0  0  0  0  0  0  0  0  0  0
  187.1350  177.8300  136.7150 C   0  0  0  0  0  3  0  0  0  0  0  0
  184.3230  178.5290  137.8600 C   0  0  0  0  0  3  0  0  0  0  0  0
  184.6420  177.5300  136.9510 C   0  0  0  0  0  0  0  0  0  0  0  0
  188.7090  176.4370  135.2940 C   0  0  0  0  0  0  0  0  0  0  0  0
  182.3570  176.9270  136.7390 N   0  0  0  0  0  0  0  0  0  0  0  0
  184.1770  175.7950  135.5030 N   0  0  0  0  0  2  0  0  0  0  0  0
  185.5830  176.0840  135.5430 C   0  0  0  0  0  0  0  0  0  0  0  0
  186.4440  175.3840  134.8140 C   0  0  0  0  0  3  0  0  0  0  0  0
  188.3270  177.5140  136.2200 C   0  0  0  0  0  3  0  0  0  0  0  0
  183.6610  176.7540  136.4150 C   0  0  0  0  0  0  0  0  0  0  0  0
  182.0260  177.9030  137.6370 C   0  0  0  0  0  0  0  0  0  0  0  0
  180.5820  178.0980  138.0110 C   0  0  2  0  0  3  0  0  0  0  0  0
  179.8180  179.0580  137.0770 C   0  0  2  0  0  3  0  0  0  0  0  0
  179.9490  178.6980  135.7300 O   0  0  0  0  0  1  0  0  0  0  0  0
  180.1080  180.5570  137.3170 C   0  0  1  0  0  0  0  0  0  0  0  0
  179.3770  181.2870  139.4880 C   0  0  0  0  0  2  0  0  0  0  0  0
  178.9360  181.1910  138.0560 C   0  0  0  0  0  2  0  0  0  0  0  0
  181.2850  180.6690  138.1810 N   0  0  0  0  0  2  0  0  0  0  0  0
  180.8760  181.3710  139.3930 C   0  0  0  0  0  2  0  0  0  0  0  0
  180.3900  181.3330  136.0210 C   0  0  0  0  0  2  0  0  0  0  0  0
  179.8490  183.2240  134.6010 N   0  0  0  0  0  1  0  0  0  0  0  0
  179.4120  182.4710  135.7620 C   0  0  0  0  0  2  0  0  0  0  0  0
  180.3940  178.3700  139.5080 C   0  0  0  0  0  2  0  0  0  0  0  0
  180.7850  177.1830  140.3760 C   0  0  0  0  0  2  0  0  0  0  0  0
  179.2320  175.6450  140.0840 C   0  0  0  0  0  1  0  0  0  0  0  0
  179.6430  176.6440  140.9650 O   0  0  0  0  0  0  0  0  0  0  0  0
  192.5520  176.2600  135.0550 C   0  0  0  0  0  2  0  0  0  0  0  0
  195.2800  174.8300  135.6640 C   0  0  1  0  0  3  0  0  0  0  0  0
  195.3370  174.6880  137.1840 C   0  0  1  0  0  3  0  0  0  0  0  0
  195.3310  176.3160  135.2470 C   0  0  2  0  0  3  0  0  0  0  0  0
  193.9780  174.8870  137.7970 C   0  0  0  0  0  3  0  0  0  0  0  0
  196.7580  176.8230  135.1170 C   0  0  0  0  0  1  0  0  0  0  0  0
  193.2740  176.7750  136.3100 C   0  0  1  0  0  3  0  0  0  0  0  0
  193.0830  175.8310  137.4740 C   0  0  0  0  0  0  0  0  0  0  0  0
  194.6280  177.1680  136.1350 O   0  0  0  0  0  0  0  0  0  0  0  0
  195.8250  173.4310  137.5510 O   0  0  0  0  0  0  0  0  0  0  0  0
  196.1130  173.5440  138.9140 C   0  0  0  0  0  1  0  0  0  0  0  0
  196.2860  174.0890  135.0310 O   0  0  0  0  0  0  0  0  0  0  0  0
  196.0050  172.7610  135.3540 C   0  0  0  0  0  1  0  0  0  0  0  0
  191.9040  175.8690  138.2340 O   0  0  0  0  0  0  0  0  0  0  0  0
  190.7700  177.9330  138.3380 C   0  0  0  0  0  1  0  0  0  0  0  0
  191.5320  176.8960  139.1600 C   0  0  2  0  0  0  0  0  0  0  0  0
  192.7880  177.5860  139.7120 C   0  0  0  0  0  2  0  0  0  0  0  0
  193.8170  176.6900  139.9450 F   0  0  0  0  0  0  0  0  0  0  0  0
  190.7250  176.3200  140.1840 O   0  0  0  0  0  0  0  0  0  0  0  0
  188.3490  176.4030  139.7730 O   0  0  0  0  0  1  0  0  0  0  0  0
  189.2950  177.4170  141.8100 C   0  0  1  0  0  3  0  0  0  0  0  0
  189.4820  176.9750  140.3620 C   0  0  1  0  0  0  0  0  0  0  0  0
  189.4390  178.4490  140.6930 C   0  0  0  0  0  2  0  0  0  0  0  0
  187.8380  177.3180  142.2910 C   0  0  1  0  0  3  0  0  0  0  0  0
  188.9060  176.6460  144.5320 C   0  0  0  0  0  2  0  0  0  0  0  0
  189.0090  177.9120  145.1400 O   0  0  0  0  0  0  0  0  0  0  0  0
  186.6290  178.1690  145.3030 C   0  0  0  0  0  2  0  0  0  0  0  0
  187.9480  178.0070  146.0570 C   0  0  0  0  0  2  0  0  0  0  0  0
  186.4010  176.9440  144.4170 C   0  0  0  0  0  2  0  0  0  0  0  0
  187.6650  176.5650  143.6310 C   0  0  1  0  0  3  0  0  0  0  0  0
  186.7980  178.9950  140.8420 O   0  0  0  0  0  0  0  0  0  0  0  0
  187.0820  178.6600  142.1820 C   0  0  1  0  0  3  0  0  0  0  0  0
  185.7250  178.5000  141.6060 C   0  0  0  0  0  2  0  0  0  0  0  0
  2  6  1  1  0  0  0
  2  1  1  0  0  0  0
  2  3  1  0  0  0  0
  4  5  2  0  0  0  0
  5  3  1  0  0  0  0
  6 13  1  0  0  0  0
  8 17  1  0  0  0  0
  8 13  2  0  0  0  0
  9 10  1  0  0  0  0
  9 12  1  0  0  0  0
 11  7  1  0  0  0  0
 12 11  2  0  0  0  0
 13 18  1  0  0  0  0
 14 20  1  0  0  0  0
 15 16  1  0  0  0  0
 15 19  1  0  0  0  0
 16  9  1  0  0  0  0
 17 16  2  0  0  0  0
 18 10  2  0  0  0  0
 19 14  2  0  0  0  0
 19 12  1  0  0  0  0
 20 21  1  0  0  0  0
 20  7  2  0  0  0  0
 21 32  1  1  0  0  0
 22 23  1  6  0  0  0
 22 24  1  0  0  0  0
 22 21  1  0  0  0  0
 24 29  1  6  0  0  0
 24 26  1  0  0  0  0
 24 27  1  0  0  0  0
 26 25  1  0  0  0  0
 27 28  1  0  0  0  0
 28 25  1  0  0  0  0
 30 31  1  0  0  0  0
 31 29  1  0  0  0  0
 32 33  1  0  0  0  0
 33 35  1  0  0  0  0
 34 35  1  0  0  0  0
 36  1  1  0  0  0  0
 37 47  1  6  0  0  0
 37 38  1  0  0  0  0
 38 45  1  6  0  0  0
 38 40  1  0  0  0  0
 39 41  1  1  0  0  0
 39 37  1  0  0  0  0
 39 44  1  0  0  0  0
 42 36  1  6  0  0  0
 42 43  1  0  0  0  0
 43 40  2  0  0  0  0
 43 49  1  0  0  0  0
 44 42  1  0  0  0  0
 45 46  1  0  0  0  0
 47 48  1  0  0  0  0
 49 51  1  0  0  0  0
 51 50  1  6  0  0  0
 51 52  1  0  0  0  0
 51 54  1  0  0  0  0
 52 53  1  0  0  0  0
 54 57  1  0  0  0  0
 56 59  1  6  0  0  0
 57 55  1  6  0  0  0
 57 58  1  0  0  0  0
 57 56  1  0  0  0  0
 58 56  1  0  0  0  0
 59 67  1  1  0  0  0
 60 61  1  0  0  0  0
 61 63  1  0  0  0  0
 62 63  1  0  0  0  0
 64 62  1  0  0  0  0
 65 59  1  6  0  0  0
 65 64  1  0  0  0  0
 65 60  1  0  0  0  0
 66 68  1  0  0  0  0
 66 67  1  0  0  0  0
 67 68  1  1  0  0  0
M  END
>  <MODEL>
3

>  <REMARK>
 VINA RESULT:      -2.9      2.714      7.982
  Name = 
  25 active torsions:
  status: ('A' for Active; 'I' for Inactive)
    1  A    between atoms: C_1  and  C_12
    2  A    between atoms: C_1  and  C_23
    3  A    between atoms: C_1  and  C_65
    4  A    between atoms: C_2  and  C_8
    5  A    between atoms: C_2  and  C_23
    6  A    between atoms: C_6  and  O_49
    7  A    between atoms: C_8  and  C_67
    8  A    between atoms: C_12  and  C_42
    9  A    between atoms: O_13  and  C_17
   10  A    between atoms: C_14  and  C_39
   11  A    between atoms: N_20  and  C_31
   12  A    between atoms: N_20  and  C_56
   13  A    between atoms: O_24  and  C_25
   14  A    between atoms: O_24  and  C_64
   15  A    between atoms: C_26  and  C_40
   16  A    between atoms: C_26  and  C_56
   17  A    between atoms: C_31  and  C_43
   18  A    between atoms: C_33  and  C_39
   19  A    between atoms: C_38  and  C_64
   20  A    between atoms: C_39  and  C_68
   21  A    between atoms: C_42  and  O_51
   22  A    between atoms: C_48  and  O_63
   23  A    between atoms: C_53  and  O_66
   24  A    between atoms: C_56  and  O_66
   25  A    between atoms: O_63  and  C_64
                            x       y       z     vdW  Elec       q    Type
                         _______ _______ _______ _____ _____    ______ ____

>  <TORSDO>
F 25

$$$$
=
 OpenBabel10222418493D

 68 75  0  0  1  0  0  0  0  0999 V2000
  183.1800  177.3450  137.2620 N   0  0  0  0  0  2  0  0  0  0  0  0
  182.3410  177.6090  136.1050 C   0  0  1  0  0  3  0  0  0  0  0  0
  182.2190  179.0110  135.8780 O   0  0  0  0  0  0  0  0  0  0  0  0
  180.7920  180.7220  135.1280 C   0  0  0  0  0  2  0  0  0  0  0  0
  181.3310  179.5300  134.9390 C   0  0  0  0  0  3  0  0  0  0  0  0
  182.8840  176.8940  134.8750 C   0  0  0  0  0  2  0  0  0  0  0  0
  189.8340  172.7950  136.2700 N   0  0  0  0  0  0  0  0  0  0  0  0
  185.2080  177.5500  134.9040 C   0  0  0  0  0  3  0  0  0  0  0  0
  187.0650  175.1810  135.5820 N   0  0  0  0  0  0  0  0  0  0  0  0
  185.7830  174.5550  135.6120 C   0  0  0  0  0  3  0  0  0  0  0  0
  188.5350  173.1920  136.1350 C   0  0  0  0  0  3  0  0  0  0  0  0
  188.2980  174.5170  135.7950 C   0  0  0  0  0  0  0  0  0  0  0  0
  184.3250  176.5620  135.0740 C   0  0  0  0  0  0  0  0  0  0  0  0
  190.6260  174.9660  135.7280 N   0  0  0  0  0  0  0  0  0  0  0  0
  188.9020  176.6760  135.2540 N   0  0  0  0  0  2  0  0  0  0  0  0
  187.4760  176.5140  135.2520 C   0  0  0  0  0  0  0  0  0  0  0  0
  186.6730  177.5340  134.9720 C   0  0  0  0  0  3  0  0  0  0  0  0
  184.6180  175.1550  135.3900 C   0  0  0  0  0  3  0  0  0  0  0  0
  189.3400  175.3700  135.6020 C   0  0  0  0  0  0  0  0  0  0  0  0
  190.8780  173.6660  136.0690 C   0  0  0  0  0  0  0  0  0  0  0  0
  192.3030  173.2090  136.2200 C   0  0  2  0  0  3  0  0  0  0  0  0
  193.3390  174.3470  136.1210 C   0  0  2  0  0  3  0  0  0  0  0  0
  194.2280  174.1580  135.0560 O   0  0  0  0  0  1  0  0  0  0  0  0
  194.0640  174.6750  137.4450 C   0  0  1  0  0  0  0  0  0  0  0  0
  195.7920  173.0810  137.9530 C   0  0  0  0  0  2  0  0  0  0  0  0
  194.3440  173.3860  138.2070 C   0  0  0  0  0  2  0  0  0  0  0  0
  195.3570  175.2850  137.1260 N   0  0  0  0  0  2  0  0  0  0  0  0
  196.3980  174.4340  137.6920 C   0  0  0  0  0  2  0  0  0  0  0  0
  193.2810  175.6500  138.3370 C   0  0  0  0  0  2  0  0  0  0  0  0
  191.3610  177.1080  138.6030 N   0  0  0  0  0  1  0  0  0  0  0  0
  192.0570  176.2510  137.6610 C   0  0  0  0  0  2  0  0  0  0  0  0
  192.6170  171.9740  135.3670 C   0  0  0  0  0  2  0  0  0  0  0  0
  193.5200  170.9790  136.0810 C   0  0  0  0  0  2  0  0  0  0  0  0
  195.5310  170.5540  135.2810 C   0  0  0  0  0  1  0  0  0  0  0  0
  194.1900  170.2020  135.1370 O   0  0  0  0  0  0  0  0  0  0  0  0
  183.1190  175.9090  137.4750 C   0  0  0  0  0  2  0  0  0  0  0  0
  180.3000  176.8310  138.5060 C   0  0  1  0  0  3  0  0  0  0  0  0
  180.5310  177.3380  139.9280 C   0  0  1  0  0  3  0  0  0  0  0  0
  180.5640  175.3130  138.4130 C   0  0  2  0  0  3  0  0  0  0  0  0
  181.9910  177.5960  140.1810 C   0  0  0  0  0  3  0  0  0  0  0  0
  179.3320  174.4970  138.7710 C   0  0  0  0  0  1  0  0  0  0  0  0
  182.8450  175.5880  138.9530 C   0  0  1  0  0  3  0  0  0  0  0  0
  183.0180  176.8140  139.8180 C   0  0  0  0  0  0  0  0  0  0  0  0
  181.6410  174.8840  139.2270 O   0  0  0  0  0  0  0  0  0  0  0  0
  179.8120  178.5140  140.1630 O   0  0  0  0  0  0  0  0  0  0  0  0
  180.1030  178.8520  141.4870 C   0  0  0  0  0  1  0  0  0  0  0  0
  179.0220  177.1560  138.0350 O   0  0  0  0  0  0  0  0  0  0  0  0
  179.2480  177.8980  136.8750 C   0  0  0  0  0  1  0  0  0  0  0  0
  184.2970  177.2220  140.2270 O   0  0  0  0  0  0  0  0  0  0  0  0
  184.9980  179.0090  141.5930 C   0  0  0  0  0  1  0  0  0  0  0  0
  184.8220  178.5510  140.1480 C   0  0  2  0  0  0  0  0  0  0  0  0
  183.7930  179.4850  139.4950 C   0  0  0  0  0  2  0  0  0  0  0  0
  184.2170  180.8010  139.4780 F   0  0  0  0  0  0  0  0  0  0  0  0
  186.0590  178.5130  139.4390 O   0  0  0  0  0  0  0  0  0  0  0  0
  187.0250  179.5770  141.3770 O   0  0  0  0  0  1  0  0  0  0  0  0
  187.9610  177.4630  140.5230 C   0  0  1  0  0  3  0  0  0  0  0  0
  187.1890  178.7520  140.2590 C   0  0  1  0  0  0  0  0  0  0  0  0
  188.5830  178.5880  139.7000 C   0  0  0  0  0  2  0  0  0  0  0  0
  188.5730  177.4010  141.9330 C   0  0  1  0  0  3  0  0  0  0  0  0
  188.5150  175.9270  144.0390 C   0  0  0  0  0  2  0  0  0  0  0  0
  189.0460  176.8300  144.9810 O   0  0  0  0  0  0  0  0  0  0  0  0
  187.1520  178.2950  144.8380 C   0  0  0  0  0  2  0  0  0  0  0  0
  187.9600  177.3370  145.7120 C   0  0  0  0  0  2  0  0  0  0  0  0
  186.6130  177.5360  143.6250 C   0  0  0  0  0  2  0  0  0  0  0  0
  187.6950  176.6630  142.9700 C   0  0  1  0  0  3  0  0  0  0  0  0
  190.7560  177.5910  140.8420 O   0  0  0  0  0  0  0  0  0  0  0  0
  190.0630  176.9970  141.9170 C   0  0  1  0  0  3  0  0  0  0  0  0
  190.9650  178.1570  142.1130 C   0  0  0  0  0  2  0  0  0  0  0  0
  1 36  1  0  0  0  0
  2  6  1  6  0  0  0
  2  1  1  0  0  0  0
  3  2  1  0  0  0  0
  5  4  2  0  0  0  0
  5  3  1  0  0  0  0
  6 13  1  0  0  0  0
  8 17  1  0  0  0  0
  8 13  2  0  0  0  0
  9 10  1  0  0  0  0
  9 12  1  0  0  0  0
 11  7  1  0  0  0  0
 12 11  2  0  0  0  0
 13 18  1  0  0  0  0
 14 20  1  0  0  0  0
 15 19  1  0  0  0  0
 16 15  1  0  0  0  0
 16  9  1  0  0  0  0
 17 16  2  0  0  0  0
 18 10  2  0  0  0  0
 19 14  2  0  0  0  0
 19 12  1  0  0  0  0
 20 21  1  0  0  0  0
 20  7  2  0  0  0  0
 21 32  1  6  0  0  0
 22 23  1  6  0  0  0
 22 21  1  0  0  0  0
 22 24  1  0  0  0  0
 24 26  1  0  0  0  0
 24 29  1  1  0  0  0
 25 26  1  0  0  0  0
 27 24  1  0  0  0  0
 27 28  1  0  0  0  0
 28 25  1  0  0  0  0
 31 29  1  0  0  0  0
 31 30  1  0  0  0  0
 32 33  1  0  0  0  0
 35 34  1  0  0  0  0
 35 33  1  0  0  0  0
 37 47  1  1  0  0  0
 37 38  1  0  0  0  0
 38 45  1  6  0  0  0
 38 40  1  0  0  0  0
 39 37  1  0  0  0  0
 39 41  1  1  0  0  0
 39 44  1  0  0  0  0
 42 36  1  6  0  0  0
 42 44  1  0  0  0  0
 42 43  1  0  0  0  0
 43 40  2  0  0  0  0
 43 49  1  0  0  0  0
 45 46  1  0  0  0  0
 48 47  1  0  0  0  0
 51 49  1  0  0  0  0
 51 50  1  1  0  0  0
 52 51  1  0  0  0  0
 53 52  1  0  0  0  0
 54 51  1  0  0  0  0
 54 57  1  0  0  0  0
 56 59  1  1  0  0  0
 57 56  1  0  0  0  0
 57 55  1  1  0  0  0
 58 57  1  0  0  0  0
 58 56  1  0  0  0  0
 59 67  1  6  0  0  0
 60 61  1  0  0  0  0
 61 63  1  0  0  0  0
 62 63  1  0  0  0  0
 64 62  1  0  0  0  0
 65 59  1  1  0  0  0
 65 64  1  0  0  0  0
 65 60  1  0  0  0  0
 66 67  1  0  0  0  0
 66 68  1  0  0  0  0
 67 68  1  1  0  0  0
M  END
>  <MODEL>
4

>  <REMARK>
 VINA RESULT:      -1.9      3.001     10.738
  Name = 
  25 active torsions:
  status: ('A' for Active; 'I' for Inactive)
    1  A    between atoms: C_1  and  C_12
    2  A    between atoms: C_1  and  C_23
    3  A    between atoms: C_1  and  C_65
    4  A    between atoms: C_2  and  C_8
    5  A    between atoms: C_2  and  C_23
    6  A    between atoms: C_6  and  O_49
    7  A    between atoms: C_8  and  C_67
    8  A    between atoms: C_12  and  C_42
    9  A    between atoms: O_13  and  C_17
   10  A    between atoms: C_14  and  C_39
   11  A    between atoms: N_20  and  C_31
   12  A    between atoms: N_20  and  C_56
   13  A    between atoms: O_24  and  C_25
   14  A    between atoms: O_24  and  C_64
   15  A    between atoms: C_26  and  C_40
   16  A    between atoms: C_26  and  C_56
   17  A    between atoms: C_31  and  C_43
   18  A    between atoms: C_33  and  C_39
   19  A    between atoms: C_38  and  C_64
   20  A    between atoms: C_39  and  C_68
   21  A    between atoms: C_42  and  O_51
   22  A    between atoms: C_48  and  O_63
   23  A    between atoms: C_53  and  O_66
   24  A    between atoms: C_56  and  O_66
   25  A    between atoms: O_63  and  C_64
                            x       y       z     vdW  Elec       q    Type
                         _______ _______ _______ _____ _____    ______ ____

>  <TORSDO>
F 25

$$$$
=
 OpenBabel10222418493D

 68 75  0  0  1  0  0  0  0  0999 V2000
  192.2290  174.5900  135.2420 N   0  0  0  0  0  2  0  0  0  0  0  0
  190.8340  174.9590  135.0560 C   0  0  1  0  0  3  0  0  0  0  0  0
  189.9730  173.8950  135.4550 O   0  0  0  0  0  0  0  0  0  0  0  0
  188.5310  172.9350  137.0440 C   0  0  0  0  0  2  0  0  0  0  0  0
  189.5180  173.7680  136.7660 C   0  0  0  0  0  3  0  0  0  0  0  0
  190.5150  176.2420  135.8110 C   0  0  0  0  0  2  0  0  0  0  0  0
  183.0900  177.9790  138.7940 N   0  0  0  0  0  0  0  0  0  0  0  0
  188.2900  176.0950  134.8850 C   0  0  0  0  0  3  0  0  0  0  0  0
  186.1390  176.9910  136.9070 N   0  0  0  0  0  0  0  0  0  0  0  0
  187.3360  177.1770  137.6630 C   0  0  0  0  0  3  0  0  0  0  0  0
  184.4230  177.7490  138.6110 C   0  0  0  0  0  3  0  0  0  0  0  0
  184.8340  177.2940  137.3650 C   0  0  0  0  0  0  0  0  0  0  0  0
  189.0380  176.3990  135.9490 C   0  0  0  0  0  0  0  0  0  0  0  0
  182.6020  177.3390  136.5610 N   0  0  0  0  0  0  0  0  0  0  0  0
  184.5280  176.6410  135.1740 N   0  0  0  0  0  2  0  0  0  0  0  0
  185.9130  176.5890  135.5500 C   0  0  0  0  0  0  0  0  0  0  0  0
  186.8400  176.1920  134.6860 C   0  0  0  0  0  3  0  0  0  0  0  0
  188.5700  176.9220  137.2420 C   0  0  0  0  0  3  0  0  0  0  0  0
  183.9220  177.0980  136.3740 C   0  0  0  0  0  0  0  0  0  0  0  0
  182.1800  177.7810  137.7840 C   0  0  0  0  0  0  0  0  0  0  0  0
  180.7150  178.0430  138.0050 C   0  0  2  0  0  3  0  0  0  0  0  0
  180.1990  177.5840  139.3830 C   0  0  2  0  0  3  0  0  0  0  0  0
  179.1310  176.6860  139.2730 O   0  0  0  0  0  1  0  0  0  0  0  0
  179.9050  178.7320  140.3760 C   0  0  1  0  0  0  0  0  0  0  0  0
  180.3060  178.0850  142.6570 C   0  0  0  0  0  2  0  0  0  0  0  0
  179.2250  178.1710  141.6180 C   0  0  0  0  0  2  0  0  0  0  0  0
  181.1800  179.3170  140.7990 N   0  0  0  0  0  2  0  0  0  0  0  0
  181.2780  179.1580  142.2460 C   0  0  0  0  0  2  0  0  0  0  0  0
  179.0440  179.8500  139.7680 C   0  0  0  0  0  2  0  0  0  0  0  0
  178.9520  182.0660  138.7860 N   0  0  0  0  0  1  0  0  0  0  0  0
  179.8150  181.1320  139.4850 C   0  0  0  0  0  2  0  0  0  0  0  0
  179.8540  177.6040  136.8140 C   0  0  0  0  0  2  0  0  0  0  0  0
  179.6660  176.0960  136.7470 C   0  0  0  0  0  2  0  0  0  0  0  0
  179.6230  176.6230  134.6060 C   0  0  0  0  0  1  0  0  0  0  0  0
  179.0540  175.7600  135.5410 O   0  0  0  0  0  0  0  0  0  0  0  0
  192.9760  175.8350  135.1940 C   0  0  0  0  0  2  0  0  0  0  0  0
  195.1280  173.5930  135.6450 C   0  0  1  0  0  3  0  0  0  0  0  0
  195.1390  173.3340  137.1510 C   0  0  1  0  0  3  0  0  0  0  0  0
  195.6360  175.0160  135.3280 C   0  0  2  0  0  3  0  0  0  0  0  0
  193.9090  173.8990  137.8060 C   0  0  0  0  0  3  0  0  0  0  0  0
  197.1500  175.0650  135.1990 C   0  0  0  0  0  1  0  0  0  0  0  0
  193.8230  176.0110  136.4640 C   0  0  1  0  0  3  0  0  0  0  0  0
  193.3500  175.0940  137.5670 C   0  0  0  0  0  0  0  0  0  0  0  0
  195.2320  175.9790  136.2860 O   0  0  0  0  0  0  0  0  0  0  0  0
  195.2140  171.9650  137.4230 O   0  0  0  0  0  0  0  0  0  0  0  0
  193.9610  171.4610  137.0660 C   0  0  0  0  0  1  0  0  0  0  0  0
  195.8540  172.6240  134.9430 O   0  0  0  0  0  0  0  0  0  0  0  0
  197.1100  172.6100  135.5500 C   0  0  0  0  0  1  0  0  0  0  0  0
  192.2410  175.4410  138.3540 O   0  0  0  0  0  0  0  0  0  0  0  0
  191.3320  177.5850  138.7140 C   0  0  0  0  0  1  0  0  0  0  0  0
  192.1960  176.4880  139.3290 C   0  0  2  0  0  0  0  0  0  0  0  0
  193.6000  177.0750  139.5350 C   0  0  0  0  0  2  0  0  0  0  0  0
  193.5600  178.3800  139.9910 F   0  0  0  0  0  0  0  0  0  0  0  0
  191.6350  175.9690  140.5330 O   0  0  0  0  0  0  0  0  0  0  0  0
  189.3710  175.7330  141.3350 O   0  0  0  0  0  1  0  0  0  0  0  0
  190.6190  177.8220  141.7290 C   0  0  1  0  0  3  0  0  0  0  0  0
  190.4010  176.5680  140.8870 C   0  0  1  0  0  0  0  0  0  0  0  0
  190.0220  177.9190  140.3260 C   0  0  0  0  0  2  0  0  0  0  0  0
  189.5410  178.0230  142.8070 C   0  0  1  0  0  3  0  0  0  0  0  0
  189.1690  178.0870  145.3510 C   0  0  0  0  0  2  0  0  0  0  0  0
  189.2340  176.7100  145.6390 O   0  0  0  0  0  0  0  0  0  0  0  0
  191.5570  176.5660  145.0580 C   0  0  0  0  0  2  0  0  0  0  0  0
  190.5130  176.4670  146.1680 C   0  0  0  0  0  2  0  0  0  0  0  0
  191.5320  177.9760  144.4670 C   0  0  0  0  0  2  0  0  0  0  0  0
  190.0980  178.4510  144.1840 C   0  0  1  0  0  3  0  0  0  0  0  0
  187.6180  178.1490  141.2970 O   0  0  0  0  0  0  0  0  0  0  0  0
  188.3330  178.8400  142.2970 C   0  0  1  0  0  3  0  0  0  0  0  0
  187.0400  178.1730  142.5800 C   0  0  0  0  0  2  0  0  0  0  0  0
  2  1  1  0  0  0  0
  2  3  1  0  0  0  0
  2  6  1  1  0  0  0
  3  5  1  0  0  0  0
  5  4  2  0  0  0  0
  6 13  1  0  0  0  0
  8 13  2  0  0  0  0
  9 12  1  0  0  0  0
  9 10  1  0  0  0  0
 11  7  1  0  0  0  0
 12 11  2  0  0  0  0
 13 18  1  0  0  0  0
 14 20  1  0  0  0  0
 15 16  1  0  0  0  0
 15 19  1  0  0  0  0
 16  9  1  0  0  0  0
 17  8  1  0  0  0  0
 17 16  2  0  0  0  0
 18 10  2  0  0  0  0
 19 14  2  0  0  0  0
 19 12  1  0  0  0  0
 20 21  1  0  0  0  0
 20  7  2  0  0  0  0
 21 32  1  6  0  0  0
 21 22  1  0  0  0  0
 22 23  1  6  0  0  0
 22 24  1  0  0  0  0
 24 29  1  6  0  0  0
 24 27  1  0  0  0  0
 24 26  1  0  0  0  0
 26 25  1  0  0  0  0
 27 28  1  0  0  0  0
 28 25  1  0  0  0  0
 30 31  1  0  0  0  0
 31 29  1  0  0  0  0
 33 32  1  0  0  0  0
 34 35  1  0  0  0  0
 35 33  1  0  0  0  0
 36  1  1  0  0  0  0
 37 47  1  6  0  0  0
 37 38  1  0  0  0  0
 38 45  1  6  0  0  0
 38 40  1  0  0  0  0
 39 41  1  1  0  0  0
 39 37  1  0  0  0  0
 39 44  1  0  0  0  0
 42 36  1  6  0  0  0
 42 43  1  0  0  0  0
 43 40  2  0  0  0  0
 43 49  1  0  0  0  0
 44 42  1  0  0  0  0
 46 45  1  0  0  0  0
 47 48  1  0  0  0  0
 49 51  1  0  0  0  0
 51 50  1  6  0  0  0
 51 52  1  0  0  0  0
 51 54  1  0  0  0  0
 52 53  1  0  0  0  0
 54 57  1  0  0  0  0
 56 59  1  1  0  0  0
 57 55  1  1  0  0  0
 57 56  1  0  0  0  0
 58 57  1  0  0  0  0
 58 56  1  0  0  0  0
 59 67  1  6  0  0  0
 60 61  1  0  0  0  0
 61 63  1  0  0  0  0
 62 63  1  0  0  0  0
 64 62  1  0  0  0  0
 65 59  1  6  0  0  0
 65 64  1  0  0  0  0
 65 60  1  0  0  0  0
 66 67  1  0  0  0  0
 66 68  1  0  0  0  0
 67 68  1  1  0  0  0
M  END
>  <MODEL>
5

>  <REMARK>
 VINA RESULT:      -1.8      2.532      7.840
  Name = 
  25 active torsions:
  status: ('A' for Active; 'I' for Inactive)
    1  A    between atoms: C_1  and  C_12
    2  A    between atoms: C_1  and  C_23
    3  A    between atoms: C_1  and  C_65
    4  A    between atoms: C_2  and  C_8
    5  A    between atoms: C_2  and  C_23
    6  A    between atoms: C_6  and  O_49
    7  A    between atoms: C_8  and  C_67
    8  A    between atoms: C_12  and  C_42
    9  A    between atoms: O_13  and  C_17
   10  A    between atoms: C_14  and  C_39
   11  A    between atoms: N_20  and  C_31
   12  A    between atoms: N_20  and  C_56
   13  A    between atoms: O_24  and  C_25
   14  A    between atoms: O_24  and  C_64
   15  A    between atoms: C_26  and  C_40
   16  A    between atoms: C_26  and  C_56
   17  A    between atoms: C_31  and  C_43
   18  A    between atoms: C_33  and  C_39
   19  A    between atoms: C_38  and  C_64
   20  A    between atoms: C_39  and  C_68
   21  A    between atoms: C_42  and  O_51
   22  A    between atoms: C_48  and  O_63
   23  A    between atoms: C_53  and  O_66
   24  A    between atoms: C_56  and  O_66
   25  A    between atoms: O_63  and  C_64
                            x       y       z     vdW  Elec       q    Type
                         _______ _______ _______ _____ _____    ______ ____

>  <TORSDO>
F 25

$$$$
=
 OpenBabel10222418493D

 68 75  0  0  1  0  0  0  0  0999 V2000
  185.6800  178.1320  138.3080 N   0  0  0  0  0  2  0  0  0  0  0  0
  184.9430  177.1720  137.5020 C   0  0  1  0  0  3  0  0  0  0  0  0
  185.2750  177.3100  136.1220 O   0  0  0  0  0  0  0  0  0  0  0  0
  183.0330  177.1150  135.4430 C   0  0  0  0  0  2  0  0  0  0  0  0
  184.2990  177.3270  135.1290 C   0  0  0  0  0  3  0  0  0  0  0  0
  185.1980  175.7530  137.9940 C   0  0  0  0  0  2  0  0  0  0  0  0
  193.2290  175.1790  136.5030 N   0  0  0  0  0  0  0  0  0  0  0  0
  186.5510  174.1050  136.8610 C   0  0  0  0  0  3  0  0  0  0  0  0
  189.5360  174.8850  136.8370 N   0  0  0  0  0  0  0  0  0  0  0  0
  188.9620  175.9780  137.5540 C   0  0  0  0  0  3  0  0  0  0  0  0
  191.9730  175.5780  136.8600 C   0  0  0  0  0  3  0  0  0  0  0  0
  190.9180  174.7250  136.5700 C   0  0  0  0  0  0  0  0  0  0  0  0
  186.5240  175.2750  137.5050 C   0  0  0  0  0  0  0  0  0  0  0  0
  192.4010  173.1400  135.6130 N   0  0  0  0  0  0  0  0  0  0  0  0
  189.9550  172.7970  135.7490 N   0  0  0  0  0  2  0  0  0  0  0  0
  188.9700  173.6760  136.3150 C   0  0  0  0  0  0  0  0  0  0  0  0
  187.6840  173.3490  136.3160 C   0  0  0  0  0  3  0  0  0  0  0  0
  187.6730  176.1320  137.8360 C   0  0  0  0  0  3  0  0  0  0  0  0
  191.1510  173.5340  135.9560 C   0  0  0  0  0  0  0  0  0  0  0  0
  193.4510  173.9710  135.8870 C   0  0  0  0  0  0  0  0  0  0  0  0
  194.8430  173.5470  135.5030 C   0  0  2  0  0  3  0  0  0  0  0  0
  195.6520  172.9340  136.6640 C   0  0  2  0  0  3  0  0  0  0  0  0
  196.6460  173.8030  137.1290 O   0  0  0  0  0  1  0  0  0  0  0  0
  196.1910  171.5120  136.3930 C   0  0  1  0  0  0  0  0  0  0  0  0
  194.5930  169.8100  136.9660 C   0  0  0  0  0  2  0  0  0  0  0  0
  195.7590  170.5790  137.5170 C   0  0  0  0  0  2  0  0  0  0  0  0
  195.5880  171.0160  135.1540 N   0  0  0  0  0  2  0  0  0  0  0  0
  194.8380  169.8080  135.4820 C   0  0  0  0  0  2  0  0  0  0  0  0
  197.7190  171.4650  136.2330 C   0  0  0  0  0  2  0  0  0  0  0  0
  199.0840  169.7360  135.2200 N   0  0  0  0  0  1  0  0  0  0  0  0
  198.1800  170.8320  134.9280 C   0  0  0  0  0  2  0  0  0  0  0  0
  195.5830  174.6210  134.6970 C   0  0  0  0  0  2  0  0  0  0  0  0
  197.0020  174.8560  135.1920 C   0  0  0  0  0  2  0  0  0  0  0  0
  197.0230  177.0540  135.3670 C   0  0  0  0  0  1  0  0  0  0  0  0
  197.5170  176.0050  134.5940 O   0  0  0  0  0  0  0  0  0  0  0  0
  185.7310  177.5680  139.6460 C   0  0  0  0  0  2  0  0  0  0  0  0
  187.9410  177.2610  141.8550 C   0  0  1  0  0  3  0  0  0  0  0  0
  187.2790  177.7030  143.1600 C   0  0  1  0  0  3  0  0  0  0  0  0
  188.0710  178.4470  140.8750 C   0  0  2  0  0  3  0  0  0  0  0  0
  185.7810  177.7310  143.0240 C   0  0  0  0  0  3  0  0  0  0  0  0
  189.3470  179.2410  141.1090 C   0  0  0  0  0  1  0  0  0  0  0  0
  185.7290  178.6790  140.7070 C   0  0  1  0  0  3  0  0  0  0  0  0
  185.0790  178.2090  141.9870 C   0  0  0  0  0  0  0  0  0  0  0  0
  186.9690  179.3360  140.9270 O   0  0  0  0  0  0  0  0  0  0  0  0
  187.6270  176.8500  144.2110 O   0  0  0  0  0  0  0  0  0  0  0  0
  187.4580  177.6190  145.3660 C   0  0  0  0  0  1  0  0  0  0  0  0
  189.1790  176.6460  142.0790 O   0  0  0  0  0  0  0  0  0  0  0  0
  189.9440  176.9690  140.9580 C   0  0  0  0  0  1  0  0  0  0  0  0
  183.6810  178.1970  142.1120 O   0  0  0  0  0  0  0  0  0  0  0  0
  183.7760  179.9900  143.6390 C   0  0  0  0  0  1  0  0  0  0  0  0
  182.8760  179.2500  142.6530 C   0  0  2  0  0  0  0  0  0  0  0  0
  181.7080  178.6590  143.4560 C   0  0  0  0  0  2  0  0  0  0  0  0
  181.3600  179.4530  144.5340 F   0  0  0  0  0  0  0  0  0  0  0  0
  182.4410  180.0890  141.5850 O   0  0  0  0  0  0  0  0  0  0  0  0
  180.1730  179.8360  140.7990 O   0  0  0  0  0  1  0  0  0  0  0  0
  182.0690  179.3870  139.2900 C   0  0  1  0  0  3  0  0  0  0  0  0
  181.5190  179.4620  140.7110 C   0  0  1  0  0  0  0  0  0  0  0  0
  181.8390  178.1150  140.1040 C   0  0  0  0  0  2  0  0  0  0  0  0
  180.9870  179.5600  138.2110 C   0  0  1  0  0  3  0  0  0  0  0  0
  180.0750  180.9920  136.2790 C   0  0  0  0  0  2  0  0  0  0  0  0
  179.0010  181.6260  136.9340 O   0  0  0  0  0  0  0  0  0  0  0  0
  180.4520  182.8670  138.3860 C   0  0  0  0  0  2  0  0  0  0  0  0
  179.4320  182.9250  137.2510 C   0  0  0  0  0  2  0  0  0  0  0  0
  181.6620  182.0480  137.9360 C   0  0  0  0  0  2  0  0  0  0  0  0
  181.2410  180.7410  137.2460 C   0  0  1  0  0  3  0  0  0  0  0  0
  180.1210  177.2860  138.4760 O   0  0  0  0  0  0  0  0  0  0  0  0
  180.5990  178.2250  137.5380 C   0  0  1  0  0  3  0  0  0  0  0  0
  179.1540  177.9220  137.6770 C   0  0  0  0  0  2  0  0  0  0  0  0
  1 36  1  0  0  0  0
  2  6  1  1  0  0  0
  2  1  1  0  0  0  0
  3  2  1  0  0  0  0
  5  4  2  0  0  0  0
  5  3  1  0  0  0  0
  7 11  1  0  0  0  0
  8 13  2  0  0  0  0
  9 10  1  0  0  0  0
 10 18  2  0  0  0  0
 12  9  1  0  0  0  0
 12 11  2  0  0  0  0
 13 18  1  0  0  0  0
 13  6  1  0  0  0  0
 14 20  1  0  0  0  0
 14 19  2  0  0  0  0
 15 19  1  0  0  0  0
 15 16  1  0  0  0  0
 16 17  2  0  0  0  0
 16  9  1  0  0  0  0
 17  8  1  0  0  0  0
 19 12  1  0  0  0  0
 20  7  2  0  0  0  0
 21 32  1  1  0  0  0
 21 20  1  0  0  0  0
 21 22  1  0  0  0  0
 22 23  1  6  0  0  0
 24 29  1  6  0  0  0
 24 22  1  0  0  0  0
 24 26  1  0  0  0  0
 25 26  1  0  0  0  0
 27 28  1  0  0  0  0
 27 24  1  0  0  0  0
 28 25  1  0  0  0  0
 31 30  1  0  0  0  0
 31 29  1  0  0  0  0
 32 33  1  0  0  0  0
 35 33  1  0  0  0  0
 35 34  1  0  0  0  0
 37 47  1  1  0  0  0
 37 38  1  0  0  0  0
 38 45  1  1  0  0  0
 39 44  1  0  0  0  0
 39 41  1  1  0  0  0
 39 37  1  0  0  0  0
 40 38  1  0  0  0  0
 42 36  1  6  0  0  0
 42 44  1  0  0  0  0
 42 43  1  0  0  0  0
 43 49  1  0  0  0  0
 43 40  2  0  0  0  0
 45 46  1  0  0  0  0
 48 47  1  0  0  0  0
 49 51  1  0  0  0  0
 51 52  1  0  0  0  0
 51 50  1  1  0  0  0
 52 53  1  0  0  0  0
 54 51  1  0  0  0  0
 56 59  1  6  0  0  0
 56 58  1  0  0  0  0
 56 57  1  0  0  0  0
 57 55  1  1  0  0  0
 57 54  1  0  0  0  0
 58 57  1  0  0  0  0
 59 65  1  6  0  0  0
 60 61  1  0  0  0  0
 61 63  1  0  0  0  0
 63 62  1  0  0  0  0
 64 62  1  0  0  0  0
 65 60  1  1  0  0  0
 65 64  1  0  0  0  0
 67 68  1  0  0  0  0
 67 59  1  1  0  0  0
 67 66  1  0  0  0  0
 68 66  1  0  0  0  0
M  END
>  <MODEL>
6

>  <REMARK>
 VINA RESULT:      -1.7      4.068     11.293
  Name = 
  25 active torsions:
  status: ('A' for Active; 'I' for Inactive)
    1  A    between atoms: C_1  and  C_12
    2  A    between atoms: C_1  and  C_23
    3  A    between atoms: C_1  and  C_65
    4  A    between atoms: C_2  and  C_8
    5  A    between atoms: C_2  and  C_23
    6  A    between atoms: C_6  and  O_49
    7  A    between atoms: C_8  and  C_67
    8  A    between atoms: C_12  and  C_42
    9  A    between atoms: O_13  and  C_17
   10  A    between atoms: C_14  and  C_39
   11  A    between atoms: N_20  and  C_31
   12  A    between atoms: N_20  and  C_56
   13  A    between atoms: O_24  and  C_25
   14  A    between atoms: O_24  and  C_64
   15  A    between atoms: C_26  and  C_40
   16  A    between atoms: C_26  and  C_56
   17  A    between atoms: C_31  and  C_43
   18  A    between atoms: C_33  and  C_39
   19  A    between atoms: C_38  and  C_64
   20  A    between atoms: C_39  and  C_68
   21  A    between atoms: C_42  and  O_51
   22  A    between atoms: C_48  and  O_63
   23  A    between atoms: C_53  and  O_66
   24  A    between atoms: C_56  and  O_66
   25  A    between atoms: O_63  and  C_64
                            x       y       z     vdW  Elec       q    Type
                         _______ _______ _______ _____ _____    ______ ____

>  <TORSDO>
F 25

$$$$
=
 OpenBabel10222418493D

 68 75  0  0  1  0  0  0  0  0999 V2000
  192.2360  174.6100  135.2370 N   0  0  0  0  0  2  0  0  0  0  0  0
  190.8030  174.7250  135.0180 C   0  0  1  0  0  3  0  0  0  0  0  0
  190.1210  173.5820  135.5260 O   0  0  0  0  0  0  0  0  0  0  0  0
  189.1970  171.4910  134.9760 C   0  0  0  0  0  2  0  0  0  0  0  0
  190.2110  172.3370  134.9090 C   0  0  0  0  0  3  0  0  0  0  0  0
  190.2700  176.0100  135.6380 C   0  0  0  0  0  2  0  0  0  0  0  0
  182.6720  176.7460  138.6020 N   0  0  0  0  0  0  0  0  0  0  0  0
  188.0990  175.3860  134.7840 C   0  0  0  0  0  3  0  0  0  0  0  0
  185.8360  176.1050  136.7540 N   0  0  0  0  0  0  0  0  0  0  0  0
  186.9860  176.5720  137.4590 C   0  0  0  0  0  3  0  0  0  0  0  0
  184.0240  176.7300  138.4120 C   0  0  0  0  0  3  0  0  0  0  0  0
  184.5000  176.2260  137.2100 C   0  0  0  0  0  0  0  0  0  0  0  0
  188.7880  175.9230  135.7940 C   0  0  0  0  0  0  0  0  0  0  0  0
  182.2910  175.8010  136.4590 N   0  0  0  0  0  0  0  0  0  0  0  0
  184.3010  175.3040  135.1050 N   0  0  0  0  0  2  0  0  0  0  0  0
  185.6760  175.5300  135.4510 C   0  0  0  0  0  0  0  0  0  0  0  0
  186.6530  175.2110  134.6110 C   0  0  0  0  0  3  0  0  0  0  0  0
  188.2440  176.4910  137.0370 C   0  0  0  0  0  3  0  0  0  0  0  0
  183.6310  175.7730  136.2660 C   0  0  0  0  0  0  0  0  0  0  0  0
  181.8050  176.2890  137.6390 C   0  0  0  0  0  0  0  0  0  0  0  0
  180.3180  176.3170  137.8670 C   0  0  2  0  0  3  0  0  0  0  0  0
  179.5780  177.3830  137.0340 C   0  0  2  0  0  3  0  0  0  0  0  0
  179.3310  176.9510  135.7260 O   0  0  0  0  0  1  0  0  0  0  0  0
  180.2110  178.7920  137.0820 C   0  0  1  0  0  0  0  0  0  0  0  0
  181.0640  179.4770  134.9410 C   0  0  0  0  0  2  0  0  0  0  0  0
  181.4700  178.8150  136.2250 C   0  0  0  0  0  2  0  0  0  0  0  0
  179.2650  179.7450  136.4970 N   0  0  0  0  0  2  0  0  0  0  0  0
  179.9150  180.3610  135.3460 C   0  0  0  0  0  2  0  0  0  0  0  0
  180.5400  179.2580  138.5080 C   0  0  0  0  0  2  0  0  0  0  0  0
  182.5580  180.3990  139.2210 N   0  0  0  0  0  1  0  0  0  0  0  0
  181.2790  180.5880  138.5630 C   0  0  0  0  0  2  0  0  0  0  0  0
  179.9510  176.2910  139.3560 C   0  0  0  0  0  2  0  0  0  0  0  0
  179.9590  174.8870  139.9400 C   0  0  0  0  0  2  0  0  0  0  0  0
  179.0920  176.2540  141.4380 C   0  0  0  0  0  1  0  0  0  0  0  0
  179.3720  174.9080  141.2040 O   0  0  0  0  0  0  0  0  0  0  0  0
  192.7570  175.9640  135.1680 C   0  0  0  0  0  2  0  0  0  0  0  0
  195.2980  174.1900  135.6760 C   0  0  1  0  0  3  0  0  0  0  0  0
  195.3360  173.9540  137.1840 C   0  0  1  0  0  3  0  0  0  0  0  0
  195.5230  175.6820  135.3460 C   0  0  2  0  0  3  0  0  0  0  0  0
  194.0090  174.2740  137.8170 C   0  0  0  0  0  3  0  0  0  0  0  0
  197.0010  176.0240  135.2370 C   0  0  0  0  0  1  0  0  0  0  0  0
  193.5340  176.3150  136.4470 C   0  0  1  0  0  3  0  0  0  0  0  0
  193.2320  175.3340  137.5540 C   0  0  0  0  0  0  0  0  0  0  0  0
  194.9250  176.5570  136.2870 O   0  0  0  0  0  0  0  0  0  0  0  0
  195.6720  172.6280  137.4750 O   0  0  0  0  0  0  0  0  0  0  0  0
  194.4610  172.0180  137.8100 C   0  0  0  0  0  1  0  0  0  0  0  0
  196.2100  173.3740  134.9950 O   0  0  0  0  0  0  0  0  0  0  0  0
  195.4650  172.2630  134.5980 C   0  0  0  0  0  1  0  0  0  0  0  0
  192.0650  175.4660  138.3230 O   0  0  0  0  0  0  0  0  0  0  0  0
  190.4130  177.1080  138.6790 C   0  0  0  0  0  1  0  0  0  0  0  0
  191.7450  176.5620  139.1860 C   0  0  2  0  0  0  0  0  0  0  0  0
  192.7870  177.6790  139.0250 C   0  0  0  0  0  2  0  0  0  0  0  0
  192.9370  178.4250  140.1810 F   0  0  0  0  0  0  0  0  0  0  0  0
  191.6570  176.0800  140.5250 O   0  0  0  0  0  0  0  0  0  0  0  0
  189.7280  175.2860  141.7370 O   0  0  0  0  0  1  0  0  0  0  0  0
  190.4870  177.6160  141.9980 C   0  0  1  0  0  3  0  0  0  0  0  0
  190.4130  176.3530  141.1450 C   0  0  1  0  0  0  0  0  0  0  0  0
  189.6140  177.5720  140.7460 C   0  0  0  0  0  2  0  0  0  0  0  0
  189.6330  177.5370  143.2750 C   0  0  1  0  0  3  0  0  0  0  0  0
  187.7070  176.1780  144.3020 C   0  0  0  0  0  2  0  0  0  0  0  0
  187.2600  177.0910  145.2770 O   0  0  0  0  0  0  0  0  0  0  0  0
  186.4950  178.6660  143.6380 C   0  0  0  0  0  2  0  0  0  0  0  0
  186.1070  177.7040  144.7600 C   0  0  0  0  0  2  0  0  0  0  0  0
  187.1780  177.8840  142.5160 C   0  0  0  0  0  2  0  0  0  0  0  0
  188.2360  176.9110  143.0610 C   0  0  1  0  0  3  0  0  0  0  0  0
  191.7570  176.6880  144.1480 O   0  0  0  0  0  0  0  0  0  0  0  0
  190.4230  176.9990  144.4870 C   0  0  1  0  0  3  0  0  0  0  0  0
  191.5530  177.8820  144.8630 C   0  0  0  0  0  2  0  0  0  0  0  0
  2  1  1  0  0  0  0
  2  3  1  0  0  0  0
  2  6  1  1  0  0  0
  5  4  2  0  0  0  0
  5  3  1  0  0  0  0
  6 13  1  0  0  0  0
  8 13  2  0  0  0  0
  9 12  1  0  0  0  0
  9 10  1  0  0  0  0
 11  7  1  0  0  0  0
 12 11  2  0  0  0  0
 13 18  1  0  0  0  0
 14 20  1  0  0  0  0
 15 16  1  0  0  0  0
 15 19  1  0  0  0  0
 16  9  1  0  0  0  0
 17  8  1  0  0  0  0
 17 16  2  0  0  0  0
 18 10  2  0  0  0  0
 19 14  2  0  0  0  0
 19 12  1  0  0  0  0
 20 21  1  0  0  0  0
 20  7  2  0  0  0  0
 21 32  1  1  0  0  0
 22 23  1  6  0  0  0
 22 24  1  0  0  0  0
 22 21  1  0  0  0  0
 24 29  1  1  0  0  0
 25 28  1  0  0  0  0
 25 26  1  0  0  0  0
 26 24  1  0  0  0  0
 27 24  1  0  0  0  0
 28 27  1  0  0  0  0
 29 31  1  0  0  0  0
 31 30  1  0  0  0  0
 32 33  1  0  0  0  0
 33 35  1  0  0  0  0
 35 34  1  0  0  0  0
 36  1  1  0  0  0  0
 37 47  1  6  0  0  0
 37 38  1  0  0  0  0
 38 45  1  6  0  0  0
 38 40  1  0  0  0  0
 39 41  1  1  0  0  0
 39 37  1  0  0  0  0
 39 44  1  0  0  0  0
 42 36  1  6  0  0  0
 42 43  1  0  0  0  0
 43 40  2  0  0  0  0
 43 49  1  0  0  0  0
 44 42  1  0  0  0  0
 45 46  1  0  0  0  0
 48 47  1  0  0  0  0
 49 51  1  0  0  0  0
 51 50  1  6  0  0  0
 51 54  1  0  0  0  0
 52 51  1  0  0  0  0
 52 53  1  0  0  0  0
 54 57  1  0  0  0  0
 56 59  1  1  0  0  0
 57 55  1  1  0  0  0
 57 56  1  0  0  0  0
 58 57  1  0  0  0  0
 58 56  1  0  0  0  0
 59 65  1  6  0  0  0
 60 61  1  0  0  0  0
 62 63  1  0  0  0  0
 63 61  1  0  0  0  0
 64 62  1  0  0  0  0
 65 64  1  1  0  0  0
 65 60  1  0  0  0  0
 66 67  1  0  0  0  0
 66 68  1  0  0  0  0
 67 59  1  6  0  0  0
 67 68  1  0  0  0  0
M  END
>  <MODEL>
7

>  <REMARK>
 VINA RESULT:      -1.5      2.488      8.001
  Name = 
  25 active torsions:
  status: ('A' for Active; 'I' for Inactive)
    1  A    between atoms: C_1  and  C_12
    2  A    between atoms: C_1  and  C_23
    3  A    between atoms: C_1  and  C_65
    4  A    between atoms: C_2  and  C_8
    5  A    between atoms: C_2  and  C_23
    6  A    between atoms: C_6  and  O_49
    7  A    between atoms: C_8  and  C_67
    8  A    between atoms: C_12  and  C_42
    9  A    between atoms: O_13  and  C_17
   10  A    between atoms: C_14  and  C_39
   11  A    between atoms: N_20  and  C_31
   12  A    between atoms: N_20  and  C_56
   13  A    between atoms: O_24  and  C_25
   14  A    between atoms: O_24  and  C_64
   15  A    between atoms: C_26  and  C_40
   16  A    between atoms: C_26  and  C_56
   17  A    between atoms: C_31  and  C_43
   18  A    between atoms: C_33  and  C_39
   19  A    between atoms: C_38  and  C_64
   20  A    between atoms: C_39  and  C_68
   21  A    between atoms: C_42  and  O_51
   22  A    between atoms: C_48  and  O_63
   23  A    between atoms: C_53  and  O_66
   24  A    between atoms: C_56  and  O_66
   25  A    between atoms: O_63  and  C_64
                            x       y       z     vdW  Elec       q    Type
                         _______ _______ _______ _____ _____    ______ ____

>  <TORSDO>
F 25

$$$$
