=
 OpenBabel10222421013D

 38 40  0  0  1  0  0  0  0  0999 V2000
  184.8490  178.4150  143.4290 C   0  0  0  0  0  0  0  0  0  0  0  0
  183.8110  179.1160  145.2680 C   0  0  0  0  0  3  0  0  0  0  0  0
  185.6430  178.1420  144.5240 C   0  0  0  0  0  3  0  0  0  0  0  0
  183.7020  179.0180  143.8960 C   0  0  0  0  0  0  0  0  0  0  0  0
  184.9970  178.5850  145.6220 N   0  0  0  0  0  0  0  0  0  0  0  0
  185.1560  178.0670  142.0150 C   0  0  0  0  0  2  0  0  0  0  0  0
  186.0300  179.1420  141.3970 C   0  0  0  0  0  2  0  0  0  0  0  0
  189.3020  177.7300  138.0210 C   0  0  0  0  0  3  0  0  0  0  0  0
  190.6130  176.7700  140.3480 C   0  0  0  0  0  3  0  0  0  0  0  0
  191.1890  176.5900  139.0800 C   0  0  0  0  0  3  0  0  0  0  0  0
  187.5530  178.5200  139.5140 N   0  0  0  0  0  0  0  0  0  0  0  0
  188.4690  177.7890  141.7720 S   0  0  0  0  0  0  0  0  0  0  0  0
  190.5390  177.0690  137.9240 C   0  0  0  0  0  3  0  0  0  0  0  0
  188.7390  177.9020  139.2850 C   0  0  0  0  0  0  0  0  0  0  0  0
  189.3910  177.4320  140.4170 C   0  0  0  0  0  0  0  0  0  0  0  0
  187.2690  178.5360  140.8400 C   0  0  0  0  0  0  0  0  0  0  0  0
  182.6330  179.4420  143.1020 O   0  0  0  0  0  0  0  0  0  0  0  0
  181.2840  179.0820  143.3760 C   0  0  0  0  0  2  0  0  0  0  0  0
  180.3870  180.1810  143.0520 N   0  0  0  0  0  2  0  0  0  0  0  0
  179.4080  179.6850  142.0990 C   0  0  0  0  0  2  0  0  0  0  0  0
  179.9470  178.4460  141.4120 C   0  0  0  0  0  2  0  0  0  0  0  0
  180.1050  178.7030  139.9910 N   0  0  0  0  0  2  0  0  0  0  0  0
  181.4760  178.3650  139.6480 C   0  0  0  0  0  2  0  0  0  0  0  0
  182.0400  179.4100  138.7010 C   0  0  1  0  0  3  0  0  0  0  0  0
  183.5330  179.3940  138.7500 C   0  0  0  0  0  0  0  0  0  0  0  0
  184.2170  178.2130  138.4980 O   0  0  0  0  0  0  0  0  0  0  0  0
  184.1770  180.4470  139.0070 O   0  0  0  0  0  1  0  0  0  0  0  0
  181.6050  179.1630  137.3970 O   0  0  0  0  0  0  0  0  0  0  0  0
  181.0800  180.3030  136.9960 O   0  0  0  0  0  1  0  0  0  0  0  0
  185.4920  178.4880  146.9850 C   0  0  0  0  0  2  0  0  0  0  0  0
  186.8930  177.8860  147.0140 C   0  0  0  0  0  2  0  0  0  0  0  0
  187.6470  178.2770  148.2760 C   0  0  0  0  0  2  0  0  0  0  0  0
  189.1270  177.9580  148.1360 C   0  0  0  0  0  2  0  0  0  0  0  0
  189.3480  176.9800  146.9930 C   0  0  0  0  0  2  0  0  0  0  0  0
  190.0980  177.6200  145.8690 C   0  0  0  0  0  3  0  0  0  0  0  0
  190.8810  176.9080  145.0710 C   0  0  0  0  0  3  0  0  0  0  0  0
  191.4840  178.8660  143.8050 C   0  0  0  0  0  2  0  0  0  0  0  0
  191.5850  177.5580  143.9730 C   0  0  0  0  0  3  0  0  0  0  0  0
  1  4  1  0  0  0  0
  1  3  2  0  0  0  0
  2  5  1  0  0  0  0
  3  5  1  0  0  0  0
  4  2  2  0  0  0  0
  5 30  1  0  0  0  0
  6  1  1  0  0  0  0
  7  6  1  0  0  0  0
  8 14  1  0  0  0  0
  9 15  1  0  0  0  0
 10  9  2  0  0  0  0
 11 16  2  0  0  0  0
 13  8  2  0  0  0  0
 13 10  1  0  0  0  0
 14 11  1  0  0  0  0
 14 15  2  0  0  0  0
 15 12  1  0  0  0  0
 16  7  1  0  0  0  0
 16 12  1  0  0  0  0
 17 18  1  0  0  0  0
 17  4  1  0  0  0  0
 19 18  1  0  0  0  0
 20 19  1  0  0  0  0
 21 20  1  0  0  0  0
 22 21  1  0  0  0  0
 23 22  1  0  0  0  0
 24 25  1  0  0  0  0
 24 23  1  1  0  0  0
 25 27  1  0  0  0  0
 26 25  2  0  0  0  0
 28 24  1  0  0  0  0
 29 28  1  0  0  0  0
 30 31  1  0  0  0  0
 31 32  1  0  0  0  0
 33 32  1  0  0  0  0
 34 33  1  0  0  0  0
 35 34  1  0  0  0  0
 36 35  2  0  0  0  0
 37 38  2  0  0  0  0
 38 36  1  0  0  0  0
M  END
>  <MODEL>
1

>  <REMARK>
 VINA RESULT:      -7.1      0.000      0.000
  Name = 
  20 active torsions:
  status: ('A' for Active; 'I' for Inactive)
    1  A    between atoms: C_2  and  C_20
    2  A    between atoms: C_4  and  C_32
    3  A    between atoms: C_4  and  C_36
    4  A    between atoms: C_5  and  C_32
    5  A    between atoms: C_7  and  C_13
    6  A    between atoms: N_8  and  C_24
    7  A    between atoms: N_8  and  C_37
    8  A    between atoms: C_10  and  C_11
    9  A    between atoms: C_10  and  N_38
   10  A    between atoms: C_11  and  C_33
   11  A    between atoms: C_13  and  C_19
   12  A    between atoms: C_14  and  C_35
   13  A    between atoms: N_15  and  C_16
   14  A    between atoms: N_15  and  C_18
   15  A    between atoms: C_16  and  C_24
   16  A    between atoms: C_18  and  O_30
   17  A    between atoms: C_19  and  C_33
   18  A    between atoms: C_20  and  O_21
   19  A    between atoms: C_20  and  C_37
   20  A    between atoms: C_28  and  O_30
                            x       y       z     vdW  Elec       q    Type
                         _______ _______ _______ _____ _____    ______ ____

>  <TORSDO>
F 20

$$$$
=
 OpenBabel10222421013D

 38 40  0  0  1  0  0  0  0  0999 V2000
  183.2160  178.8600  139.9670 C   0  0  0  0  0  0  0  0  0  0  0  0
  184.8140  178.8810  141.5150 C   0  0  0  0  0  3  0  0  0  0  0  0
  182.6380  178.7060  141.2110 C   0  0  0  0  0  3  0  0  0  0  0  0
  184.5740  178.9750  140.1590 C   0  0  0  0  0  0  0  0  0  0  0  0
  183.6270  178.7120  142.1280 N   0  0  0  0  0  0  0  0  0  0  0  0
  182.4930  178.9420  138.6690 C   0  0  0  0  0  2  0  0  0  0  0  0
  181.1380  179.5930  138.8740 C   0  0  0  0  0  2  0  0  0  0  0  0
  181.3180  184.2540  137.3430 C   0  0  0  0  0  3  0  0  0  0  0  0
  180.2390  183.0540  135.0080 C   0  0  0  0  0  3  0  0  0  0  0  0
  180.4790  184.4370  135.0530 C   0  0  0  0  0  3  0  0  0  0  0  0
  181.3200  182.0220  138.3070 N   0  0  0  0  0  0  0  0  0  0  0  0
  180.3770  180.6540  136.3810 S   0  0  0  0  0  0  0  0  0  0  0  0
  181.0160  185.0330  136.2120 C   0  0  0  0  0  3  0  0  0  0  0  0
  181.0750  182.8820  137.2870 C   0  0  0  0  0  0  0  0  0  0  0  0
  180.5510  182.3050  136.1380 C   0  0  0  0  0  0  0  0  0  0  0  0
  180.9860  180.7550  137.9570 C   0  0  0  0  0  0  0  0  0  0  0  0
  185.5200  179.1570  139.1460 O   0  0  0  0  0  0  0  0  0  0  0  0
  185.9360  178.1010  138.2870 C   0  0  0  0  0  2  0  0  0  0  0  0
  187.2320  178.4050  137.6970 N   0  0  0  0  0  2  0  0  0  0  0  0
  188.2310  177.6150  138.3980 C   0  0  0  0  0  2  0  0  0  0  0  0
  189.0430  178.5130  139.3110 C   0  0  0  0  0  2  0  0  0  0  0  0
  188.9120  178.0610  140.6850 N   0  0  0  0  0  2  0  0  0  0  0  0
  189.8690  176.9840  140.8720 C   0  0  0  0  0  2  0  0  0  0  0  0
  189.8130  176.4910  142.3080 C   0  0  1  0  0  3  0  0  0  0  0  0
  191.0950  176.8020  143.0080 C   0  0  0  0  0  0  0  0  0  0  0  0
  191.7790  175.7930  143.6710 O   0  0  0  0  0  1  0  0  0  0  0  0
  191.5660  177.9720  142.9930 O   0  0  0  0  0  0  0  0  0  0  0  0
  188.7460  177.0930  142.9810 O   0  0  0  0  0  0  0  0  0  0  0  0
  188.0440  176.0880  143.4650 O   0  0  0  0  0  1  0  0  0  0  0  0
  183.4440  178.5780  143.5630 C   0  0  0  0  0  2  0  0  0  0  0  0
  184.4550  179.4310  144.3230 C   0  0  0  0  0  2  0  0  0  0  0  0
  185.4730  178.5720  145.0590 C   0  0  0  0  0  2  0  0  0  0  0  0
  185.8960  179.2390  146.3580 C   0  0  0  0  0  2  0  0  0  0  0  0
  186.4890  178.2100  147.3090 C   0  0  0  0  0  2  0  0  0  0  0  0
  187.6560  177.5100  146.6900 C   0  0  0  0  0  3  0  0  0  0  0  0
  188.8980  177.7750  147.0700 C   0  0  0  0  0  3  0  0  0  0  0  0
  191.0050  176.6170  147.2130 C   0  0  0  0  0  2  0  0  0  0  0  0
  190.0140  177.0630  146.4590 C   0  0  0  0  0  3  0  0  0  0  0  0
  1  4  1  0  0  0  0
  1  3  2  0  0  0  0
  2  5  1  0  0  0  0
  3  5  1  0  0  0  0
  4  2  2  0  0  0  0
  5 30  1  0  0  0  0
  6  7  1  0  0  0  0
  6  1  1  0  0  0  0
  9 10  2  0  0  0  0
  9 15  1  0  0  0  0
 10 13  1  0  0  0  0
 12 16  1  0  0  0  0
 13  8  2  0  0  0  0
 14  8  1  0  0  0  0
 14 11  1  0  0  0  0
 15 12  1  0  0  0  0
 15 14  2  0  0  0  0
 16 11  2  0  0  0  0
 16  7  1  0  0  0  0
 17  4  1  0  0  0  0
 18 17  1  0  0  0  0
 19 18  1  0  0  0  0
 19 20  1  0  0  0  0
 20 21  1  0  0  0  0
 21 22  1  0  0  0  0
 22 23  1  0  0  0  0
 24 23  1  6  0  0  0
 24 28  1  0  0  0  0
 24 25  1  0  0  0  0
 25 26  1  0  0  0  0
 27 25  2  0  0  0  0
 28 29  1  0  0  0  0
 30 31  1  0  0  0  0
 31 32  1  0  0  0  0
 32 33  1  0  0  0  0
 33 34  1  0  0  0  0
 35 36  2  0  0  0  0
 35 34  1  0  0  0  0
 38 36  1  0  0  0  0
 38 37  2  0  0  0  0
M  END
>  <MODEL>
2

>  <REMARK>
 VINA RESULT:      -7.0      3.959      7.781
  Name = 
  20 active torsions:
  status: ('A' for Active; 'I' for Inactive)
    1  A    between atoms: C_2  and  C_20
    2  A    between atoms: C_4  and  C_32
    3  A    between atoms: C_4  and  C_36
    4  A    between atoms: C_5  and  C_32
    5  A    between atoms: C_7  and  C_13
    6  A    between atoms: N_8  and  C_24
    7  A    between atoms: N_8  and  C_37
    8  A    between atoms: C_10  and  C_11
    9  A    between atoms: C_10  and  N_38
   10  A    between atoms: C_11  and  C_33
   11  A    between atoms: C_13  and  C_19
   12  A    between atoms: C_14  and  C_35
   13  A    between atoms: N_15  and  C_16
   14  A    between atoms: N_15  and  C_18
   15  A    between atoms: C_16  and  C_24
   16  A    between atoms: C_18  and  O_30
   17  A    between atoms: C_19  and  C_33
   18  A    between atoms: C_20  and  O_21
   19  A    between atoms: C_20  and  C_37
   20  A    between atoms: C_28  and  O_30
                            x       y       z     vdW  Elec       q    Type
                         _______ _______ _______ _____ _____    ______ ____

>  <TORSDO>
F 20

$$$$
=
 OpenBabel10222421013D

 38 40  0  0  1  0  0  0  0  0999 V2000
  187.5120  178.1020  141.6840 C   0  0  0  0  0  0  0  0  0  0  0  0
  189.4010  177.2290  140.8970 C   0  0  0  0  0  3  0  0  0  0  0  0
  188.1090  177.3550  142.6780 C   0  0  0  0  0  3  0  0  0  0  0  0
  188.3230  178.0280  140.5740 C   0  0  0  0  0  0  0  0  0  0  0  0
  189.2440  176.8300  142.1740 N   0  0  0  0  0  0  0  0  0  0  0  0
  186.2530  178.8870  141.8120 C   0  0  0  0  0  2  0  0  0  0  0  0
  185.4270  178.3510  142.9660 C   0  0  0  0  0  2  0  0  0  0  0  0
  181.2440  178.5390  140.4030 C   0  0  0  0  0  3  0  0  0  0  0  0
  180.2510  179.3200  142.9450 C   0  0  0  0  0  3  0  0  0  0  0  0
  179.3880  179.2270  141.8410 C   0  0  0  0  0  3  0  0  0  0  0  0
  183.4220  178.3770  141.4710 N   0  0  0  0  0  0  0  0  0  0  0  0
  182.8480  179.0370  143.8600 S   0  0  0  0  0  0  0  0  0  0  0  0
  179.8810  178.8370  140.5780 C   0  0  0  0  0  3  0  0  0  0  0  0
  182.0910  178.6350  141.5070 C   0  0  0  0  0  0  0  0  0  0  0  0
  181.5940  179.0150  142.7470 C   0  0  0  0  0  0  0  0  0  0  0  0
  183.9780  178.5550  142.6950 C   0  0  0  0  0  0  0  0  0  0  0  0
  188.0780  178.6600  139.3520 O   0  0  0  0  0  0  0  0  0  0  0  0
  187.2320  178.0990  138.3540 C   0  0  0  0  0  2  0  0  0  0  0  0
  187.9000  176.9960  137.6800 N   0  0  0  0  0  2  0  0  0  0  0  0
  188.8980  177.5630  136.7890 C   0  0  0  0  0  2  0  0  0  0  0  0
  189.0880  176.6530  135.5910 C   0  0  0  0  0  2  0  0  0  0  0  0
  190.4870  176.2850  135.4720 N   0  0  0  0  0  2  0  0  0  0  0  0
  191.0880  176.4660  136.7820 C   0  0  0  0  0  2  0  0  0  0  0  0
  192.2160  175.4660  136.9720 C   0  0  1  0  0  3  0  0  0  0  0  0
  193.4610  176.1730  137.3970 C   0  0  0  0  0  0  0  0  0  0  0  0
  194.6060  176.0790  136.6160 O   0  0  0  0  0  0  0  0  0  0  0  0
  193.4800  176.8620  138.4530 O   0  0  0  0  0  1  0  0  0  0  0  0
  191.8590  174.5150  137.9310 O   0  0  0  0  0  0  0  0  0  0  0  0
  190.7580  174.9880  138.4800 O   0  0  0  0  0  1  0  0  0  0  0  0
  190.1710  175.9780  142.8990 C   0  0  0  0  0  2  0  0  0  0  0  0
  191.3010  176.8010  143.5100 C   0  0  0  0  0  2  0  0  0  0  0  0
  191.3140  176.6950  145.0290 C   0  0  0  0  0  2  0  0  0  0  0  0
  190.2250  177.5670  145.6350 C   0  0  0  0  0  2  0  0  0  0  0  0
  189.6750  176.9190  146.8970 C   0  0  0  0  0  2  0  0  0  0  0  0
  188.4610  177.6380  147.3890 C   0  0  0  0  0  3  0  0  0  0  0  0
  187.4540  177.9240  146.5760 C   0  0  0  0  0  3  0  0  0  0  0  0
  185.0720  178.2750  146.6560 C   0  0  0  0  0  2  0  0  0  0  0  0
  186.2760  178.6120  147.0900 C   0  0  0  0  0  3  0  0  0  0  0  0
  1  6  1  0  0  0  0
  1  3  2  0  0  0  0
  2  5  1  0  0  0  0
  4  2  2  0  0  0  0
  4  1  1  0  0  0  0
  5  3  1  0  0  0  0
  5 30  1  0  0  0  0
  6  7  1  0  0  0  0
  8 13  2  0  0  0  0
  8 14  1  0  0  0  0
 10  9  2  0  0  0  0
 11 14  1  0  0  0  0
 11 16  2  0  0  0  0
 13 10  1  0  0  0  0
 14 15  2  0  0  0  0
 15  9  1  0  0  0  0
 15 12  1  0  0  0  0
 16  7  1  0  0  0  0
 16 12  1  0  0  0  0
 17  4  1  0  0  0  0
 18 17  1  0  0  0  0
 19 18  1  0  0  0  0
 20 19  1  0  0  0  0
 21 20  1  0  0  0  0
 22 21  1  0  0  0  0
 22 23  1  0  0  0  0
 24 23  1  1  0  0  0
 24 25  1  0  0  0  0
 24 28  1  0  0  0  0
 25 27  1  0  0  0  0
 26 25  2  0  0  0  0
 28 29  1  0  0  0  0
 30 31  1  0  0  0  0
 31 32  1  0  0  0  0
 32 33  1  0  0  0  0
 33 34  1  0  0  0  0
 34 35  1  0  0  0  0
 36 38  1  0  0  0  0
 36 35  2  0  0  0  0
 37 38  2  0  0  0  0
M  END
>  <MODEL>
3

>  <REMARK>
 VINA RESULT:      -6.9      3.628      7.964
  Name = 
  20 active torsions:
  status: ('A' for Active; 'I' for Inactive)
    1  A    between atoms: C_2  and  C_20
    2  A    between atoms: C_4  and  C_32
    3  A    between atoms: C_4  and  C_36
    4  A    between atoms: C_5  and  C_32
    5  A    between atoms: C_7  and  C_13
    6  A    between atoms: N_8  and  C_24
    7  A    between atoms: N_8  and  C_37
    8  A    between atoms: C_10  and  C_11
    9  A    between atoms: C_10  and  N_38
   10  A    between atoms: C_11  and  C_33
   11  A    between atoms: C_13  and  C_19
   12  A    between atoms: C_14  and  C_35
   13  A    between atoms: N_15  and  C_16
   14  A    between atoms: N_15  and  C_18
   15  A    between atoms: C_16  and  C_24
   16  A    between atoms: C_18  and  O_30
   17  A    between atoms: C_19  and  C_33
   18  A    between atoms: C_20  and  O_21
   19  A    between atoms: C_20  and  C_37
   20  A    between atoms: C_28  and  O_30
                            x       y       z     vdW  Elec       q    Type
                         _______ _______ _______ _____ _____    ______ ____

>  <TORSDO>
F 20

$$$$
=
 OpenBabel10222421013D

 38 40  0  0  1  0  0  0  0  0999 V2000
  184.4540  178.5470  143.1680 C   0  0  0  0  0  0  0  0  0  0  0  0
  182.7860  179.3160  144.4240 C   0  0  0  0  0  3  0  0  0  0  0  0
  183.2940  178.5460  142.4210 C   0  0  0  0  0  3  0  0  0  0  0  0
  184.1370  179.0340  144.4160 C   0  0  0  0  0  0  0  0  0  0  0  0
  182.2990  179.0060  143.2070 N   0  0  0  0  0  0  0  0  0  0  0  0
  185.8060  178.1490  142.6880 C   0  0  0  0  0  2  0  0  0  0  0  0
  186.2270  179.0400  141.5350 C   0  0  0  0  0  2  0  0  0  0  0  0
  189.1550  177.7410  137.8150 C   0  0  0  0  0  3  0  0  0  0  0  0
  190.6890  176.7190  139.9730 C   0  0  0  0  0  3  0  0  0  0  0  0
  191.1380  176.5800  138.6500 C   0  0  0  0  0  3  0  0  0  0  0  0
  187.5590  178.4790  139.4940 N   0  0  0  0  0  0  0  0  0  0  0  0
  188.6930  177.6870  141.6290 S   0  0  0  0  0  0  0  0  0  0  0  0
  190.3780  177.0880  137.5780 C   0  0  0  0  0  3  0  0  0  0  0  0
  188.7180  177.8740  139.1320 C   0  0  0  0  0  0  0  0  0  0  0  0
  189.4780  177.3730  140.1810 C   0  0  0  0  0  0  0  0  0  0  0  0
  187.4060  178.4550  140.8410 C   0  0  0  0  0  0  0  0  0  0  0  0
  185.0400  179.2050  145.4690 O   0  0  0  0  0  0  0  0  0  0  0  0
  185.2660  178.2040  146.4560 C   0  0  0  0  0  2  0  0  0  0  0  0
  186.6880  177.9300  146.5880 N   0  0  0  0  0  2  0  0  0  0  0  0
  187.1300  178.4900  147.8540 C   0  0  0  0  0  2  0  0  0  0  0  0
  188.1710  177.5800  148.4780 C   0  0  0  0  0  2  0  0  0  0  0  0
  188.7970  176.7720  147.4470 N   0  0  0  0  0  2  0  0  0  0  0  0
  190.1890  177.1820  147.3730 C   0  0  0  0  0  2  0  0  0  0  0  0
  190.8360  176.5780  146.1370 C   0  0  1  0  0  3  0  0  0  0  0  0
  190.8710  177.5830  145.0330 C   0  0  0  0  0  0  0  0  0  0  0  0
  189.8880  178.5610  144.9610 O   0  0  0  0  0  1  0  0  0  0  0  0
  191.7920  177.5580  144.1720 O   0  0  0  0  0  0  0  0  0  0  0  0
  192.1340  176.1530  146.4340 O   0  0  0  0  0  0  0  0  0  0  0  0
  192.3140  176.4790  147.6980 O   0  0  0  0  0  1  0  0  0  0  0  0
  180.9120  179.1650  142.8010 C   0  0  0  0  0  2  0  0  0  0  0  0
  180.5550  178.1830  141.6900 C   0  0  0  0  0  2  0  0  0  0  0  0
  179.9670  178.8940  140.4800 C   0  0  0  0  0  2  0  0  0  0  0  0
  180.2940  180.3790  140.5200 C   0  0  0  0  0  2  0  0  0  0  0  0
  180.7990  180.8430  139.1620 C   0  0  0  0  0  2  0  0  0  0  0  0
  181.8110  179.8930  138.6070 C   0  0  0  0  0  3  0  0  0  0  0  0
  183.0450  179.8450  139.0870 C   0  0  0  0  0  3  0  0  0  0  0  0
  183.9400  177.6190  138.8750 C   0  0  0  0  0  2  0  0  0  0  0  0
  184.0050  178.8960  138.5360 C   0  0  0  0  0  3  0  0  0  0  0  0
  1  4  1  0  0  0  0
  3  1  2  0  0  0  0
  3  5  1  0  0  0  0
  4  2  2  0  0  0  0
  4 17  1  0  0  0  0
  5  2  1  0  0  0  0
  6  1  1  0  0  0  0
  7  6  1  0  0  0  0
  8 14  1  0  0  0  0
  9 15  1  0  0  0  0
 10  9  2  0  0  0  0
 11 16  2  0  0  0  0
 13  8  2  0  0  0  0
 13 10  1  0  0  0  0
 14 11  1  0  0  0  0
 14 15  2  0  0  0  0
 15 12  1  0  0  0  0
 16  7  1  0  0  0  0
 16 12  1  0  0  0  0
 17 18  1  0  0  0  0
 18 19  1  0  0  0  0
 19 20  1  0  0  0  0
 20 21  1  0  0  0  0
 22 21  1  0  0  0  0
 23 22  1  0  0  0  0
 24 28  1  0  0  0  0
 24 23  1  1  0  0  0
 25 24  1  0  0  0  0
 26 25  1  0  0  0  0
 27 25  2  0  0  0  0
 28 29  1  0  0  0  0
 30  5  1  0  0  0  0
 31 30  1  0  0  0  0
 32 33  1  0  0  0  0
 32 31  1  0  0  0  0
 34 33  1  0  0  0  0
 35 36  2  0  0  0  0
 35 34  1  0  0  0  0
 38 37  2  0  0  0  0
 38 36  1  0  0  0  0
M  END
>  <MODEL>
4

>  <REMARK>
 VINA RESULT:      -6.8      3.433      7.932
  Name = 
  20 active torsions:
  status: ('A' for Active; 'I' for Inactive)
    1  A    between atoms: C_2  and  C_20
    2  A    between atoms: C_4  and  C_32
    3  A    between atoms: C_4  and  C_36
    4  A    between atoms: C_5  and  C_32
    5  A    between atoms: C_7  and  C_13
    6  A    between atoms: N_8  and  C_24
    7  A    between atoms: N_8  and  C_37
    8  A    between atoms: C_10  and  C_11
    9  A    between atoms: C_10  and  N_38
   10  A    between atoms: C_11  and  C_33
   11  A    between atoms: C_13  and  C_19
   12  A    between atoms: C_14  and  C_35
   13  A    between atoms: N_15  and  C_16
   14  A    between atoms: N_15  and  C_18
   15  A    between atoms: C_16  and  C_24
   16  A    between atoms: C_18  and  O_30
   17  A    between atoms: C_19  and  C_33
   18  A    between atoms: C_20  and  O_21
   19  A    between atoms: C_20  and  C_37
   20  A    between atoms: C_28  and  O_30
                            x       y       z     vdW  Elec       q    Type
                         _______ _______ _______ _____ _____    ______ ____

>  <TORSDO>
F 20

$$$$
=
 OpenBabel10222421013D

 38 40  0  0  1  0  0  0  0  0999 V2000
  187.8550  178.4290  141.1230 C   0  0  0  0  0  0  0  0  0  0  0  0
  189.7400  177.7600  140.1480 C   0  0  0  0  0  3  0  0  0  0  0  0
  188.7360  178.0030  142.0960 C   0  0  0  0  0  3  0  0  0  0  0  0
  188.4860  178.2820  139.9080 C   0  0  0  0  0  0  0  0  0  0  0  0
  189.8640  177.5940  141.4790 N   0  0  0  0  0  0  0  0  0  0  0  0
  186.4980  178.9940  141.3560 C   0  0  0  0  0  2  0  0  0  0  0  0
  185.8180  178.2510  142.4910 C   0  0  0  0  0  2  0  0  0  0  0  0
  181.1920  178.8500  144.0210 C   0  0  0  0  0  3  0  0  0  0  0  0
  180.7360  178.7930  141.2200 C   0  0  0  0  0  3  0  0  0  0  0  0
  179.6640  178.9500  142.1130 C   0  0  0  0  0  3  0  0  0  0  0  0
  183.5470  178.5570  143.4920 N   0  0  0  0  0  0  0  0  0  0  0  0
  183.4720  178.4720  140.9510 S   0  0  0  0  0  0  0  0  0  0  0  0
  179.8900  178.9810  143.5050 C   0  0  0  0  0  3  0  0  0  0  0  0
  182.2490  178.6940  143.1240 C   0  0  0  0  0  0  0  0  0  0  0  0
  182.0150  178.6710  141.7560 C   0  0  0  0  0  0  0  0  0  0  0  0
  184.3420  178.4240  142.4020 C   0  0  0  0  0  0  0  0  0  0  0  0
  187.9340  178.6130  138.6670 O   0  0  0  0  0  0  0  0  0  0  0  0
  188.6890  178.5920  137.4610 C   0  0  0  0  0  2  0  0  0  0  0  0
  188.6170  177.2800  136.8370 N   0  0  0  0  0  2  0  0  0  0  0  0
  187.2180  176.8860  136.7990 C   0  0  0  0  0  2  0  0  0  0  0  0
  186.9300  176.1510  135.5040 C   0  0  0  0  0  2  0  0  0  0  0  0
  185.6730  175.4340  135.6160 N   0  0  0  0  0  2  0  0  0  0  0  0
  185.3150  175.4220  137.0240 C   0  0  0  0  0  2  0  0  0  0  0  0
  184.1820  174.4360  137.2570 C   0  0  1  0  0  3  0  0  0  0  0  0
  184.7340  173.0810  137.5530 C   0  0  0  0  0  0  0  0  0  0  0  0
  183.9570  171.9550  137.3190 O   0  0  0  0  0  0  0  0  0  0  0  0
  185.9050  172.9500  138.0060 O   0  0  0  0  0  1  0  0  0  0  0  0
  183.3810  174.8660  138.3190 O   0  0  0  0  0  0  0  0  0  0  0  0
  182.4560  175.6180  137.7580 O   0  0  0  0  0  1  0  0  0  0  0  0
  191.0450  177.0730  142.1470 C   0  0  0  0  0  2  0  0  0  0  0  0
  190.6580  176.1170  143.2700 C   0  0  0  0  0  2  0  0  0  0  0  0
  191.3410  176.4840  144.5800 C   0  0  0  0  0  2  0  0  0  0  0  0
  190.5850  177.5990  145.2840 C   0  0  0  0  0  2  0  0  0  0  0  0
  190.1040  177.1290  146.6480 C   0  0  0  0  0  2  0  0  0  0  0  0
  188.6290  177.3200  146.7980 C   0  0  0  0  0  3  0  0  0  0  0  0
  187.8500  177.5190  145.7440 C   0  0  0  0  0  3  0  0  0  0  0  0
  185.9510  178.6470  146.7050 C   0  0  0  0  0  2  0  0  0  0  0  0
  186.4130  177.6860  145.9220 C   0  0  0  0  0  3  0  0  0  0  0  0
  1  6  1  0  0  0  0
  1  3  2  0  0  0  0
  2  5  1  0  0  0  0
  4  2  2  0  0  0  0
  4  1  1  0  0  0  0
  5  3  1  0  0  0  0
  5 30  1  0  0  0  0
  6  7  1  0  0  0  0
  9 15  2  0  0  0  0
  9 10  1  0  0  0  0
 10 13  2  0  0  0  0
 12 15  1  0  0  0  0
 12 16  1  0  0  0  0
 13  8  1  0  0  0  0
 14 11  1  0  0  0  0
 14  8  2  0  0  0  0
 15 14  1  0  0  0  0
 16  7  1  0  0  0  0
 16 11  2  0  0  0  0
 17  4  1  0  0  0  0
 18 17  1  0  0  0  0
 19 18  1  0  0  0  0
 20 19  1  0  0  0  0
 21 22  1  0  0  0  0
 21 20  1  0  0  0  0
 22 23  1  0  0  0  0
 24 23  1  1  0  0  0
 24 25  1  0  0  0  0
 24 28  1  0  0  0  0
 25 27  1  0  0  0  0
 26 25  2  0  0  0  0
 29 28  1  0  0  0  0
 30 31  1  0  0  0  0
 31 32  1  0  0  0  0
 32 33  1  0  0  0  0
 33 34  1  0  0  0  0
 34 35  1  0  0  0  0
 36 38  1  0  0  0  0
 36 35  2  0  0  0  0
 38 37  2  0  0  0  0
M  END
>  <MODEL>
5

>  <REMARK>
 VINA RESULT:      -6.7      2.954      6.937
  Name = 
  20 active torsions:
  status: ('A' for Active; 'I' for Inactive)
    1  A    between atoms: C_2  and  C_20
    2  A    between atoms: C_4  and  C_32
    3  A    between atoms: C_4  and  C_36
    4  A    between atoms: C_5  and  C_32
    5  A    between atoms: C_7  and  C_13
    6  A    between atoms: N_8  and  C_24
    7  A    between atoms: N_8  and  C_37
    8  A    between atoms: C_10  and  C_11
    9  A    between atoms: C_10  and  N_38
   10  A    between atoms: C_11  and  C_33
   11  A    between atoms: C_13  and  C_19
   12  A    between atoms: C_14  and  C_35
   13  A    between atoms: N_15  and  C_16
   14  A    between atoms: N_15  and  C_18
   15  A    between atoms: C_16  and  C_24
   16  A    between atoms: C_18  and  O_30
   17  A    between atoms: C_19  and  C_33
   18  A    between atoms: C_20  and  O_21
   19  A    between atoms: C_20  and  C_37
   20  A    between atoms: C_28  and  O_30
                            x       y       z     vdW  Elec       q    Type
                         _______ _______ _______ _____ _____    ______ ____

>  <TORSDO>
F 20

$$$$
=
 OpenBabel10222421013D

 38 40  0  0  1  0  0  0  0  0999 V2000
  183.5110  178.7410  139.9830 C   0  0  0  0  0  0  0  0  0  0  0  0
  185.3680  178.9460  141.1910 C   0  0  0  0  0  3  0  0  0  0  0  0
  183.1810  178.7060  141.3230 C   0  0  0  0  0  3  0  0  0  0  0  0
  184.8760  178.8980  139.9020 C   0  0  0  0  0  0  0  0  0  0  0  0
  184.3230  178.8220  142.0310 N   0  0  0  0  0  0  0  0  0  0  0  0
  182.5550  178.6800  138.8430 C   0  0  0  0  0  2  0  0  0  0  0  0
  181.3110  179.4840  139.1690 C   0  0  0  0  0  2  0  0  0  0  0  0
  181.3520  184.1070  137.5180 C   0  0  0  0  0  3  0  0  0  0  0  0
  180.5280  182.7890  135.1440 C   0  0  0  0  0  3  0  0  0  0  0  0
  180.6860  184.1830  135.1660 C   0  0  0  0  0  3  0  0  0  0  0  0
  181.4030  181.9050  138.5460 N   0  0  0  0  0  0  0  0  0  0  0  0
  180.6900  180.4360  136.5940 S   0  0  0  0  0  0  0  0  0  0  0  0
  181.0970  184.8390  136.3440 C   0  0  0  0  0  3  0  0  0  0  0  0
  181.1910  182.7220  137.4850 C   0  0  0  0  0  0  0  0  0  0  0  0
  180.7910  182.0870  136.3170 C   0  0  0  0  0  0  0  0  0  0  0  0
  181.1670  180.6120  138.2090 C   0  0  0  0  0  0  0  0  0  0  0  0
  185.6090  178.9910  138.7160 O   0  0  0  0  0  0  0  0  0  0  0  0
  186.1840  177.8550  138.0790 C   0  0  0  0  0  2  0  0  0  0  0  0
  187.0100  178.2670  136.9530 N   0  0  0  0  0  2  0  0  0  0  0  0
  188.3370  178.5630  137.4650 C   0  0  0  0  0  2  0  0  0  0  0  0
  188.7940  177.4420  138.3780 C   0  0  0  0  0  2  0  0  0  0  0  0
  190.1100  177.7480  138.9100 N   0  0  0  0  0  2  0  0  0  0  0  0
  190.7970  176.4820  139.1000 C   0  0  0  0  0  2  0  0  0  0  0  0
  191.6780  176.1920  137.8970 C   0  0  1  0  0  3  0  0  0  0  0  0
  193.0730  176.6600  138.1570 C   0  0  0  0  0  0  0  0  0  0  0  0
  193.9330  176.8860  137.0910 O   0  0  0  0  0  0  0  0  0  0  0  0
  193.4720  176.8620  139.3360 O   0  0  0  0  0  1  0  0  0  0  0  0
  191.6810  174.8220  137.6220 O   0  0  0  0  0  0  0  0  0  0  0  0
  190.4780  174.4080  137.9660 O   0  0  0  0  0  1  0  0  0  0  0  0
  184.4150  178.8320  143.4810 C   0  0  0  0  0  2  0  0  0  0  0  0
  185.7540  178.2670  143.9450 C   0  0  0  0  0  2  0  0  0  0  0  0
  185.9190  178.3800  145.4530 C   0  0  0  0  0  2  0  0  0  0  0  0
  186.8060  177.2620  145.9800 C   0  0  0  0  0  2  0  0  0  0  0  0
  187.9110  177.8350  146.8540 C   0  0  0  0  0  2  0  0  0  0  0  0
  189.2510  177.6660  146.2130 C   0  0  0  0  0  3  0  0  0  0  0  0
  189.4650  178.0360  144.9580 C   0  0  0  0  0  3  0  0  0  0  0  0
  191.4720  178.9360  143.9780 C   0  0  0  0  0  2  0  0  0  0  0  0
  190.7870  177.8740  144.3660 C   0  0  0  0  0  3  0  0  0  0  0  0
  1  3  2  0  0  0  0
  2  5  1  0  0  0  0
  3  5  1  0  0  0  0
  4  1  1  0  0  0  0
  4  2  2  0  0  0  0
  5 30  1  0  0  0  0
  6  7  1  0  0  0  0
  6  1  1  0  0  0  0
  9 10  2  0  0  0  0
  9 15  1  0  0  0  0
 10 13  1  0  0  0  0
 12 16  1  0  0  0  0
 13  8  2  0  0  0  0
 14  8  1  0  0  0  0
 14 11  1  0  0  0  0
 15 12  1  0  0  0  0
 15 14  2  0  0  0  0
 16 11  2  0  0  0  0
 16  7  1  0  0  0  0
 17  4  1  0  0  0  0
 18 17  1  0  0  0  0
 19 20  1  0  0  0  0
 19 18  1  0  0  0  0
 20 21  1  0  0  0  0
 21 22  1  0  0  0  0
 22 23  1  0  0  0  0
 24 25  1  0  0  0  0
 24 23  1  1  0  0  0
 25 27  1  0  0  0  0
 26 25  2  0  0  0  0
 28 24  1  0  0  0  0
 28 29  1  0  0  0  0
 30 31  1  0  0  0  0
 31 32  1  0  0  0  0
 32 33  1  0  0  0  0
 33 34  1  0  0  0  0
 35 34  1  0  0  0  0
 36 35  2  0  0  0  0
 37 38  2  0  0  0  0
 38 36  1  0  0  0  0
M  END
>  <MODEL>
6

>  <REMARK>
 VINA RESULT:      -6.7      4.094      7.893
  Name = 
  20 active torsions:
  status: ('A' for Active; 'I' for Inactive)
    1  A    between atoms: C_2  and  C_20
    2  A    between atoms: C_4  and  C_32
    3  A    between atoms: C_4  and  C_36
    4  A    between atoms: C_5  and  C_32
    5  A    between atoms: C_7  and  C_13
    6  A    between atoms: N_8  and  C_24
    7  A    between atoms: N_8  and  C_37
    8  A    between atoms: C_10  and  C_11
    9  A    between atoms: C_10  and  N_38
   10  A    between atoms: C_11  and  C_33
   11  A    between atoms: C_13  and  C_19
   12  A    between atoms: C_14  and  C_35
   13  A    between atoms: N_15  and  C_16
   14  A    between atoms: N_15  and  C_18
   15  A    between atoms: C_16  and  C_24
   16  A    between atoms: C_18  and  O_30
   17  A    between atoms: C_19  and  C_33
   18  A    between atoms: C_20  and  O_21
   19  A    between atoms: C_20  and  C_37
   20  A    between atoms: C_28  and  O_30
                            x       y       z     vdW  Elec       q    Type
                         _______ _______ _______ _____ _____    ______ ____

>  <TORSDO>
F 20

$$$$
=
 OpenBabel10222421013D

 38 40  0  0  1  0  0  0  0  0999 V2000
  189.1870  177.9970  140.0580 C   0  0  0  0  0  0  0  0  0  0  0  0
  190.2150  177.2380  141.8800 C   0  0  0  0  0  3  0  0  0  0  0  0
  188.4130  178.2880  141.1630 C   0  0  0  0  0  3  0  0  0  0  0  0
  190.3140  177.3470  140.5080 C   0  0  0  0  0  0  0  0  0  0  0  0
  189.0520  177.8090  142.2500 N   0  0  0  0  0  0  0  0  0  0  0  0
  188.8800  178.3710  138.6500 C   0  0  0  0  0  2  0  0  0  0  0  0
  188.0920  177.2610  137.9820 C   0  0  0  0  0  2  0  0  0  0  0  0
  183.9490  179.6470  139.0990 C   0  0  0  0  0  3  0  0  0  0  0  0
  182.8880  177.7160  137.3110 C   0  0  0  0  0  3  0  0  0  0  0  0
  182.0480  178.6620  137.9180 C   0  0  0  0  0  3  0  0  0  0  0  0
  186.1140  178.6170  138.6910 N   0  0  0  0  0  0  0  0  0  0  0  0
  185.4800  176.7760  137.0530 S   0  0  0  0  0  0  0  0  0  0  0  0
  182.5740  179.6230  138.8050 C   0  0  0  0  0  3  0  0  0  0  0  0
  184.7750  178.7020  138.4900 C   0  0  0  0  0  0  0  0  0  0  0  0
  184.2460  177.7630  137.6140 C   0  0  0  0  0  0  0  0  0  0  0  0
  186.6430  177.6020  137.9640 C   0  0  0  0  0  0  0  0  0  0  0  0
  191.3600  176.8920  139.6990 O   0  0  0  0  0  0  0  0  0  0  0  0
  192.7150  177.2740  139.9090 C   0  0  0  0  0  2  0  0  0  0  0  0
  193.5610  176.7560  138.8450 N   0  0  0  0  0  2  0  0  0  0  0  0
  192.6910  176.2630  137.7900 C   0  0  0  0  0  2  0  0  0  0  0  0
  193.4520  175.2860  136.9160 C   0  0  0  0  0  2  0  0  0  0  0  0
  194.6740  175.9070  136.4360 N   0  0  0  0  0  2  0  0  0  0  0  0
  195.6820  174.8630  136.3660 C   0  0  0  0  0  2  0  0  0  0  0  0
  196.1990  174.5550  137.7610 C   0  0  1  0  0  3  0  0  0  0  0  0
  196.2640  173.0780  137.9700 C   0  0  0  0  0  0  0  0  0  0  0  0
  197.2520  172.3360  137.3350 O   0  0  0  0  0  0  0  0  0  0  0  0
  195.4360  172.4990  138.7250 O   0  0  0  0  0  1  0  0  0  0  0  0
  197.4660  175.1170  137.9400 O   0  0  0  0  0  0  0  0  0  0  0  0
  197.5970  175.2410  139.2450 O   0  0  0  0  0  1  0  0  0  0  0  0
  188.5740  177.9100  143.6190 C   0  0  0  0  0  2  0  0  0  0  0  0
  187.5980  176.7820  143.9380 C   0  0  0  0  0  2  0  0  0  0  0  0
  186.7400  177.1100  145.1520 C   0  0  0  0  0  2  0  0  0  0  0  0
  187.4270  178.1430  146.0310 C   0  0  0  0  0  2  0  0  0  0  0  0
  187.5910  177.6060  147.4440 C   0  0  0  0  0  2  0  0  0  0  0  0
  189.0340  177.4690  147.8080 C   0  0  0  0  0  3  0  0  0  0  0  0
  189.9020  176.9050  146.9800 C   0  0  0  0  0  3  0  0  0  0  0  0
  191.9110  175.6250  147.3390 C   0  0  0  0  0  2  0  0  0  0  0  0
  191.3070  176.8020  147.3570 C   0  0  0  0  0  3  0  0  0  0  0  0
  1  4  1  0  0  0  0
  1  3  2  0  0  0  0
  2  5  1  0  0  0  0
  3  5  1  0  0  0  0
  4  2  2  0  0  0  0
  5 30  1  0  0  0  0
  6  1  1  0  0  0  0
  7  6  1  0  0  0  0
  9 15  2  0  0  0  0
  9 10  1  0  0  0  0
 10 13  2  0  0  0  0
 12 15  1  0  0  0  0
 12 16  1  0  0  0  0
 13  8  1  0  0  0  0
 14 11  1  0  0  0  0
 14  8  2  0  0  0  0
 15 14  1  0  0  0  0
 16  7  1  0  0  0  0
 16 11  2  0  0  0  0
 17 18  1  0  0  0  0
 17  4  1  0  0  0  0
 19 18  1  0  0  0  0
 20 19  1  0  0  0  0
 21 20  1  0  0  0  0
 22 21  1  0  0  0  0
 23 22  1  0  0  0  0
 24 23  1  6  0  0  0
 24 28  1  0  0  0  0
 24 25  1  0  0  0  0
 25 27  1  0  0  0  0
 26 25  2  0  0  0  0
 28 29  1  0  0  0  0
 30 31  1  0  0  0  0
 31 32  1  0  0  0  0
 32 33  1  0  0  0  0
 33 34  1  0  0  0  0
 34 35  1  0  0  0  0
 36 38  1  0  0  0  0
 36 35  2  0  0  0  0
 37 38  2  0  0  0  0
M  END
>  <MODEL>
7

>  <REMARK>
 VINA RESULT:      -6.6      5.435      9.474
  Name = 
  20 active torsions:
  status: ('A' for Active; 'I' for Inactive)
    1  A    between atoms: C_2  and  C_20
    2  A    between atoms: C_4  and  C_32
    3  A    between atoms: C_4  and  C_36
    4  A    between atoms: C_5  and  C_32
    5  A    between atoms: C_7  and  C_13
    6  A    between atoms: N_8  and  C_24
    7  A    between atoms: N_8  and  C_37
    8  A    between atoms: C_10  and  C_11
    9  A    between atoms: C_10  and  N_38
   10  A    between atoms: C_11  and  C_33
   11  A    between atoms: C_13  and  C_19
   12  A    between atoms: C_14  and  C_35
   13  A    between atoms: N_15  and  C_16
   14  A    between atoms: N_15  and  C_18
   15  A    between atoms: C_16  and  C_24
   16  A    between atoms: C_18  and  O_30
   17  A    between atoms: C_19  and  C_33
   18  A    between atoms: C_20  and  O_21
   19  A    between atoms: C_20  and  C_37
   20  A    between atoms: C_28  and  O_30
                            x       y       z     vdW  Elec       q    Type
                         _______ _______ _______ _____ _____    ______ ____

>  <TORSDO>
F 20

$$$$
=
 OpenBabel10222421013D

 38 40  0  0  1  0  0  0  0  0999 V2000
  189.8840  177.7460  141.2330 C   0  0  0  0  0  0  0  0  0  0  0  0
  188.6810  177.5670  139.3700 C   0  0  0  0  0  3  0  0  0  0  0  0
  188.6320  178.2850  141.4540 C   0  0  0  0  0  3  0  0  0  0  0  0
  189.9100  177.2920  139.9340 C   0  0  0  0  0  0  0  0  0  0  0  0
  187.9290  178.1730  140.3090 N   0  0  0  0  0  0  0  0  0  0  0  0
  190.9770  177.6290  142.2370 C   0  0  0  0  0  2  0  0  0  0  0  0
  190.7680  176.3880  143.0840 C   0  0  0  0  0  2  0  0  0  0  0  0
  187.3810  177.7800  146.3540 C   0  0  0  0  0  3  0  0  0  0  0  0
  189.6210  177.5760  148.0850 C   0  0  0  0  0  3  0  0  0  0  0  0
  188.3670  177.9620  148.5850 C   0  0  0  0  0  3  0  0  0  0  0  0
  188.8860  177.0990  144.5700 N   0  0  0  0  0  0  0  0  0  0  0  0
  191.0670  176.8180  145.8490 S   0  0  0  0  0  0  0  0  0  0  0  0
  187.2530  178.0620  147.7260 C   0  0  0  0  0  3  0  0  0  0  0  0
  188.6310  177.3960  145.8690 C   0  0  0  0  0  0  0  0  0  0  0  0
  189.7190  177.2960  146.7250 C   0  0  0  0  0  0  0  0  0  0  0  0
  190.1890  176.7610  144.4030 C   0  0  0  0  0  0  0  0  0  0  0  0
  190.9990  176.6670  139.3200 O   0  0  0  0  0  0  0  0  0  0  0  0
  190.9680  176.2280  137.9660 C   0  0  0  0  0  2  0  0  0  0  0  0
  192.3030  176.2640  137.3880 N   0  0  0  0  0  2  0  0  0  0  0  0
  192.8930  174.9470  137.5580 C   0  0  0  0  0  2  0  0  0  0  0  0
  193.9360  174.7130  136.4820 C   0  0  0  0  0  2  0  0  0  0  0  0
  195.1130  175.5180  136.7570 N   0  0  0  0  0  2  0  0  0  0  0  0
  196.2290  174.6010  136.9120 C   0  0  0  0  0  2  0  0  0  0  0  0
  197.2100  175.1540  137.9310 C   0  0  1  0  0  3  0  0  0  0  0  0
  196.9020  174.6110  139.2880 C   0  0  0  0  0  0  0  0  0  0  0  0
  197.6730  174.9980  140.3750 O   0  0  0  0  0  1  0  0  0  0  0  0
  195.9410  173.8120  139.4560 O   0  0  0  0  0  0  0  0  0  0  0  0
  198.5180  174.8190  137.5710 O   0  0  0  0  0  0  0  0  0  0  0  0
  198.5160  173.5040  137.4890 O   0  0  0  0  0  1  0  0  0  0  0  0
  186.5590  178.6190  140.1170 C   0  0  0  0  0  2  0  0  0  0  0  0
  185.9860  179.1890  141.4100 C   0  0  0  0  0  2  0  0  0  0  0  0
  184.9770  178.2420  142.0430 C   0  0  0  0  0  2  0  0  0  0  0  0
  185.2180  178.1250  143.5400 C   0  0  0  0  0  2  0  0  0  0  0  0
  184.3760  179.1460  144.2900 C   0  0  0  0  0  2  0  0  0  0  0  0
  182.9850  178.6460  144.5070 C   0  0  0  0  0  3  0  0  0  0  0  0
  181.9800  179.0570  143.7460 C   0  0  0  0  0  3  0  0  0  0  0  0
  179.7690  178.4930  142.9740 C   0  0  0  0  0  2  0  0  0  0  0  0
  180.6360  178.5380  143.9720 C   0  0  0  0  0  3  0  0  0  0  0  0
  1  3  2  0  0  0  0
  1  6  1  0  0  0  0
  2  4  2  0  0  0  0
  2  5  1  0  0  0  0
  4  1  1  0  0  0  0
  5  3  1  0  0  0  0
  6  7  1  0  0  0  0
  7 16  1  0  0  0  0
  8 13  1  0  0  0  0
  9 10  1  0  0  0  0
 11 14  1  0  0  0  0
 12 15  1  0  0  0  0
 13 10  2  0  0  0  0
 14  8  2  0  0  0  0
 14 15  1  0  0  0  0
 15  9  2  0  0  0  0
 16 11  2  0  0  0  0
 16 12  1  0  0  0  0
 17  4  1  0  0  0  0
 18 17  1  0  0  0  0
 19 20  1  0  0  0  0
 19 18  1  0  0  0  0
 21 22  1  0  0  0  0
 21 20  1  0  0  0  0
 22 23  1  0  0  0  0
 24 23  1  6  0  0  0
 24 25  1  0  0  0  0
 25 27  2  0  0  0  0
 25 26  1  0  0  0  0
 28 24  1  0  0  0  0
 29 28  1  0  0  0  0
 30  5  1  0  0  0  0
 30 31  1  0  0  0  0
 31 32  1  0  0  0  0
 32 33  1  0  0  0  0
 33 34  1  0  0  0  0
 34 35  1  0  0  0  0
 36 38  1  0  0  0  0
 36 35  2  0  0  0  0
 37 38  2  0  0  0  0
M  END
>  <MODEL>
8

>  <REMARK>
 VINA RESULT:      -6.6      5.514     10.532
  Name = 
  20 active torsions:
  status: ('A' for Active; 'I' for Inactive)
    1  A    between atoms: C_2  and  C_20
    2  A    between atoms: C_4  and  C_32
    3  A    between atoms: C_4  and  C_36
    4  A    between atoms: C_5  and  C_32
    5  A    between atoms: C_7  and  C_13
    6  A    between atoms: N_8  and  C_24
    7  A    between atoms: N_8  and  C_37
    8  A    between atoms: C_10  and  C_11
    9  A    between atoms: C_10  and  N_38
   10  A    between atoms: C_11  and  C_33
   11  A    between atoms: C_13  and  C_19
   12  A    between atoms: C_14  and  C_35
   13  A    between atoms: N_15  and  C_16
   14  A    between atoms: N_15  and  C_18
   15  A    between atoms: C_16  and  C_24
   16  A    between atoms: C_18  and  O_30
   17  A    between atoms: C_19  and  C_33
   18  A    between atoms: C_20  and  O_21
   19  A    between atoms: C_20  and  C_37
   20  A    between atoms: C_28  and  O_30
                            x       y       z     vdW  Elec       q    Type
                         _______ _______ _______ _____ _____    ______ ____

>  <TORSDO>
F 20

$$$$
=
 OpenBabel10222421013D

 38 40  0  0  1  0  0  0  0  0999 V2000
  183.6960  178.7220  140.8680 C   0  0  0  0  0  0  0  0  0  0  0  0
  185.8440  178.6690  141.4470 C   0  0  0  0  0  3  0  0  0  0  0  0
  183.7890  178.4680  142.2210 C   0  0  0  0  0  3  0  0  0  0  0  0
  184.9800  178.8540  140.3870 C   0  0  0  0  0  0  0  0  0  0  0  0
  185.0990  178.4310  142.5430 N   0  0  0  0  0  0  0  0  0  0  0  0
  182.4370  178.8800  140.0900 C   0  0  0  0  0  2  0  0  0  0  0  0
  181.3950  177.8980  140.5920 C   0  0  0  0  0  2  0  0  0  0  0  0
  179.6930  173.7090  138.6800 C   0  0  0  0  0  3  0  0  0  0  0  0
  181.8740  174.1540  136.9200 C   0  0  0  0  0  3  0  0  0  0  0  0
  181.0530  173.0260  136.7660 C   0  0  0  0  0  3  0  0  0  0  0  0
  180.3590  175.7700  139.7860 N   0  0  0  0  0  0  0  0  0  0  0  0
  182.3700  176.4510  138.3840 S   0  0  0  0  0  0  0  0  0  0  0  0
  179.9680  172.8050  137.6390 C   0  0  0  0  0  3  0  0  0  0  0  0
  180.5160  174.8260  138.8250 C   0  0  0  0  0  0  0  0  0  0  0  0
  181.5780  175.0360  137.9550 C   0  0  0  0  0  0  0  0  0  0  0  0
  181.3070  176.7320  139.6720 C   0  0  0  0  0  0  0  0  0  0  0  0
  185.3200  179.1270  139.0590 O   0  0  0  0  0  0  0  0  0  0  0  0
  186.1030  178.2390  138.2690 C   0  0  0  0  0  2  0  0  0  0  0  0
  187.1460  178.9700  137.5640 N   0  0  0  0  0  2  0  0  0  0  0  0
  188.3900  178.2390  137.7370 C   0  0  0  0  0  2  0  0  0  0  0  0
  188.3380  177.4420  139.0260 C   0  0  0  0  0  2  0  0  0  0  0  0
  189.0850  178.1350  140.0620 N   0  0  0  0  0  2  0  0  0  0  0  0
  190.0990  177.2140  140.5430 C   0  0  0  0  0  2  0  0  0  0  0  0
  190.3890  177.4910  142.0090 C   0  0  1  0  0  3  0  0  0  0  0  0
  189.7860  176.4230  142.8620 C   0  0  0  0  0  0  0  0  0  0  0  0
  188.7120  176.7260  143.6870 O   0  0  0  0  0  1  0  0  0  0  0  0
  190.2390  175.2460  142.8320 O   0  0  0  0  0  0  0  0  0  0  0  0
  191.7690  177.5480  142.2240 O   0  0  0  0  0  0  0  0  0  0  0  0
  191.8980  177.7490  143.5200 O   0  0  0  0  0  1  0  0  0  0  0  0
  185.6300  178.1920  143.8750 C   0  0  0  0  0  2  0  0  0  0  0  0
  184.9690  179.1100  144.8970 C   0  0  0  0  0  2  0  0  0  0  0  0
  185.6870  179.0670  146.2380 C   0  0  0  0  0  2  0  0  0  0  0  0
  186.5730  177.8340  146.3320 C   0  0  0  0  0  2  0  0  0  0  0  0
  187.2660  177.7860  147.6850 C   0  0  0  0  0  2  0  0  0  0  0  0
  188.7480  177.9240  147.5400 C   0  0  0  0  0  3  0  0  0  0  0  0
  189.4980  176.9030  147.1480 C   0  0  0  0  0  3  0  0  0  0  0  0
  191.7260  176.0120  146.9410 C   0  0  0  0  0  2  0  0  0  0  0  0
  190.9390  177.0730  147.0000 C   0  0  0  0  0  3  0  0  0  0  0  0
  1  3  2  0  0  0  0
  2  5  1  0  0  0  0
  3  5  1  0  0  0  0
  4  1  1  0  0  0  0
  4  2  2  0  0  0  0
  5 30  1  0  0  0  0
  6  7  1  0  0  0  0
  6  1  1  0  0  0  0
  8 14  1  0  0  0  0
  9 15  1  0  0  0  0
 10  9  2  0  0  0  0
 10 13  1  0  0  0  0
 12 16  1  0  0  0  0
 13  8  2  0  0  0  0
 14 11  1  0  0  0  0
 15 12  1  0  0  0  0
 15 14  2  0  0  0  0
 16 11  2  0  0  0  0
 16  7  1  0  0  0  0
 17  4  1  0  0  0  0
 18 17  1  0  0  0  0
 19 20  1  0  0  0  0
 19 18  1  0  0  0  0
 20 21  1  0  0  0  0
 21 22  1  0  0  0  0
 22 23  1  0  0  0  0
 24 23  1  6  0  0  0
 24 28  1  0  0  0  0
 24 25  1  0  0  0  0
 25 26  1  0  0  0  0
 27 25  2  0  0  0  0
 28 29  1  0  0  0  0
 30 31  1  0  0  0  0
 31 32  1  0  0  0  0
 32 33  1  0  0  0  0
 33 34  1  0  0  0  0
 35 34  1  0  0  0  0
 36 35  2  0  0  0  0
 37 38  2  0  0  0  0
 38 36  1  0  0  0  0
M  END
>  <MODEL>
9

>  <REMARK>
 VINA RESULT:      -6.5      3.771      7.239
  Name = 
  20 active torsions:
  status: ('A' for Active; 'I' for Inactive)
    1  A    between atoms: C_2  and  C_20
    2  A    between atoms: C_4  and  C_32
    3  A    between atoms: C_4  and  C_36
    4  A    between atoms: C_5  and  C_32
    5  A    between atoms: C_7  and  C_13
    6  A    between atoms: N_8  and  C_24
    7  A    between atoms: N_8  and  C_37
    8  A    between atoms: C_10  and  C_11
    9  A    between atoms: C_10  and  N_38
   10  A    between atoms: C_11  and  C_33
   11  A    between atoms: C_13  and  C_19
   12  A    between atoms: C_14  and  C_35
   13  A    between atoms: N_15  and  C_16
   14  A    between atoms: N_15  and  C_18
   15  A    between atoms: C_16  and  C_24
   16  A    between atoms: C_18  and  O_30
   17  A    between atoms: C_19  and  C_33
   18  A    between atoms: C_20  and  O_21
   19  A    between atoms: C_20  and  C_37
   20  A    between atoms: C_28  and  O_30
                            x       y       z     vdW  Elec       q    Type
                         _______ _______ _______ _____ _____    ______ ____

>  <TORSDO>
F 20

$$$$
