=
 OpenBabel10222415573D

 36 38  0  0  1  0  0  0  0  0999 V2000
  191.6700  176.6330  143.5790 C   0  0  0  0  0  2  0  0  0  0  0  0
  190.2760  176.9190  143.0720 C   0  0  0  0  0  0  0  0  0  0  0  0
  191.2380  178.0670  143.2940 C   0  0  0  0  0  2  0  0  0  0  0  0
  190.0640  176.4970  141.6320 C   0  0  0  0  0  2  0  0  0  0  0  0
  190.7220  177.4370  140.7400 N   0  0  0  0  0  2  0  0  0  0  0  0
  187.5830  175.2480  136.0620 N   0  0  0  0  0  1  0  0  0  0  0  0
  187.9250  177.3820  138.2520 C   0  0  1  0  0  3  0  0  0  0  0  0
  190.0640  176.4190  138.5620 C   0  0  0  0  0  0  0  0  0  0  0  0
  188.6920  177.9840  139.3980 C   0  0  0  0  0  0  0  0  0  0  0  0
  187.7280  178.4240  137.1660 C   0  0  0  0  0  1  0  0  0  0  0  0
  191.0820  175.5360  138.4070 N   0  0  0  0  0  0  0  0  0  0  0  0
  188.2190  178.8420  140.1890 O   0  0  0  0  0  0  0  0  0  0  0  0
  188.7760  175.3520  136.8340 C   0  0  0  0  0  0  0  0  0  0  0  0
  188.9160  176.3500  137.8020 C   0  0  0  0  0  0  0  0  0  0  0  0
  190.0050  177.4440  139.5350 N   0  0  0  0  0  0  0  0  0  0  0  0
  189.7560  173.4120  135.6830 N   0  0  0  0  0  1  0  0  0  0  0  0
  190.9880  174.5570  137.4620 C   0  0  0  0  0  3  0  0  0  0  0  0
  189.8390  174.4480  136.6550 C   0  0  0  0  0  0  0  0  0  0  0  0
  189.1700  176.6690  144.1000 C   0  0  0  0  0  2  0  0  0  0  0  0
  188.4830  177.8470  144.4210 O   0  0  0  0  0  0  0  0  0  0  0  0
  187.3000  177.4460  144.8460 O   0  0  0  0  0  0  0  0  0  0  0  0
  186.9490  178.3550  145.8560 C   0  0  1  0  0  3  0  0  0  0  0  0
  184.7170  178.6410  146.7210 O   0  0  0  0  0  1  0  0  0  0  0  0
  185.5450  178.9230  145.6320 C   0  0  2  0  0  3  0  0  0  0  0  0
  184.9210  178.3550  144.3640 C   0  0  0  0  0  2  0  0  0  0  0  0
  183.5470  178.9510  144.0890 C   0  0  0  0  0  2  0  0  0  0  0  0
  183.2140  178.9090  142.6070 C   0  0  0  0  0  2  0  0  0  0  0  0
  184.4070  178.4050  141.8130 C   0  0  0  0  0  2  0  0  0  0  0  0
  184.1610  178.5880  140.3270 C   0  0  0  0  0  3  0  0  0  0  0  0
  184.7830  179.7590  139.8980 O   0  0  0  0  0  1  0  0  0  0  0  0
  182.7900  178.6790  140.0830 O   0  0  0  0  0  1  0  0  0  0  0  0
  187.1070  177.7330  147.2420 C   0  0  0  0  0  2  0  0  0  0  0  0
  188.4700  178.0180  147.8510 C   0  0  0  0  0  2  0  0  0  0  0  0
  189.3570  176.7970  147.6990 C   0  0  0  0  0  2  0  0  0  0  0  0
  190.7860  177.2170  147.4010 C   0  0  0  0  0  2  0  0  0  0  0  0
  191.6640  175.9960  147.2040 C   0  0  0  0  0  1  0  0  0  0  0  0
  2  3  1  0  0  0  0
  2  1  1  0  0  0  0
  2 19  1  0  0  0  0
  3  1  1  0  0  0  0
  4  2  1  0  0  0  0
  5  4  1  0  0  0  0
  6 13  1  0  0  0  0
  7 10  1  6  0  0  0
  7  9  1  0  0  0  0
  8 15  1  0  0  0  0
  9 15  1  0  0  0  0
  9 12  2  0  0  0  0
 11  8  1  0  0  0  0
 13 14  1  0  0  0  0
 14  7  1  0  0  0  0
 14  8  2  0  0  0  0
 15  5  1  0  0  0  0
 16 18  1  0  0  0  0
 17 11  2  0  0  0  0
 18 13  2  0  0  0  0
 18 17  1  0  0  0  0
 19 20  1  0  0  0  0
 20 21  1  0  0  0  0
 21 22  1  0  0  0  0
 22 32  1  1  0  0  0
 24 22  1  0  0  0  0
 24 23  1  1  0  0  0
 25 24  1  0  0  0  0
 26 25  1  0  0  0  0
 27 26  1  0  0  0  0
 28 27  1  0  0  0  0
 29 28  1  0  0  0  0
 30 29  1  0  0  0  0
 31 29  1  0  0  0  0
 32 33  1  0  0  0  0
 34 33  1  0  0  0  0
 35 34  1  0  0  0  0
 36 35  1  0  0  0  0
M  END
>  <MODEL>
1

>  <REMARK>
 VINA RESULT:      -7.4      0.000      0.000
  Name = 
  17 active torsions:
  status: ('A' for Active; 'I' for Inactive)
    1  A    between atoms: N_4  and  C_10
    2  A    between atoms: N_4  and  N_31
    3  A    between atoms: O_6  and  C_20
    4  A    between atoms: O_6  and  O_32
    5  A    between atoms: C_7  and  C_22
    6  A    between atoms: C_7  and  C_30
    7  A    between atoms: C_8  and  C_24
    8  A    between atoms: C_8  and  C_29
    9  A    between atoms: C_10  and  C_17
   10  A    between atoms: C_11  and  C_29
   11  A    between atoms: C_14  and  C_19
   12  A    between atoms: C_14  and  C_25
   13  A    between atoms: C_15  and  C_25
   14  A    between atoms: C_17  and  C_20
   15  A    between atoms: C_19  and  C_30
   16  A    between atoms: C_22  and  C_24
   17  A    between atoms: C_30  and  O_32
                            x       y       z     vdW  Elec       q    Type
                         _______ _______ _______ _____ _____    ______ ____

>  <TORSDO>
F 17

$$$$
=
 OpenBabel10222415573D

 36 38  0  0  1  0  0  0  0  0999 V2000
  191.0120  176.9050  143.7970 C   0  0  0  0  0  2  0  0  0  0  0  0
  189.7190  176.8960  143.0160 C   0  0  0  0  0  0  0  0  0  0  0  0
  190.4060  178.2140  143.3030 C   0  0  0  0  0  2  0  0  0  0  0  0
  189.8740  176.3570  141.6080 C   0  0  0  0  0  2  0  0  0  0  0  0
  190.6220  177.3030  140.7970 N   0  0  0  0  0  2  0  0  0  0  0  0
  187.6630  175.4240  135.8730 N   0  0  0  0  0  1  0  0  0  0  0  0
  187.9880  177.4770  138.1420 C   0  0  1  0  0  3  0  0  0  0  0  0
  190.0440  176.3820  138.5530 C   0  0  0  0  0  0  0  0  0  0  0  0
  188.7150  178.0030  139.3500 C   0  0  0  0  0  0  0  0  0  0  0  0
  187.9200  178.5570  137.0770 C   0  0  0  0  0  1  0  0  0  0  0  0
  191.0180  175.4440  138.4360 N   0  0  0  0  0  0  0  0  0  0  0  0
  188.2430  178.8660  140.1350 O   0  0  0  0  0  0  0  0  0  0  0  0
  188.8090  175.4380  136.7200 C   0  0  0  0  0  0  0  0  0  0  0  0
  188.9440  176.4000  137.7230 C   0  0  0  0  0  0  0  0  0  0  0  0
  189.9830  177.3840  139.5510 N   0  0  0  0  0  0  0  0  0  0  0  0
  189.7460  173.4740  135.5740 N   0  0  0  0  0  1  0  0  0  0  0  0
  190.9280  174.4980  137.4580 C   0  0  0  0  0  3  0  0  0  0  0  0
  189.8280  174.4780  136.5800 C   0  0  0  0  0  0  0  0  0  0  0  0
  188.4900  176.5050  143.8400 C   0  0  0  0  0  2  0  0  0  0  0  0
  187.3230  177.0990  143.3450 O   0  0  0  0  0  0  0  0  0  0  0  0
  187.1450  178.1740  144.0890 O   0  0  0  0  0  0  0  0  0  0  0  0
  185.8570  178.0340  144.6290 C   0  0  1  0  0  3  0  0  0  0  0  0
  184.8480  178.5760  146.7500 O   0  0  0  0  0  1  0  0  0  0  0  0
  185.9040  177.8860  146.1520 C   0  0  2  0  0  3  0  0  0  0  0  0
  187.2240  178.4000  146.7120 C   0  0  0  0  0  2  0  0  0  0  0  0
  187.9140  177.3630  147.5880 C   0  0  0  0  0  2  0  0  0  0  0  0
  189.4140  177.5990  147.6450 C   0  0  0  0  0  2  0  0  0  0  0  0
  190.1620  176.3120  147.3390 C   0  0  0  0  0  2  0  0  0  0  0  0
  191.6400  176.5990  147.1520 C   0  0  0  0  0  3  0  0  0  0  0  0
  192.3050  175.4130  146.8470 O   0  0  0  0  0  1  0  0  0  0  0  0
  192.1690  177.1350  148.3270 O   0  0  0  0  0  1  0  0  0  0  0  0
  184.9430  179.1760  144.1880 C   0  0  0  0  0  2  0  0  0  0  0  0
  183.7860  178.6910  143.3290 C   0  0  0  0  0  2  0  0  0  0  0  0
  184.3270  178.0770  142.0520 C   0  0  0  0  0  2  0  0  0  0  0  0
  185.0400  179.1290  141.2220 C   0  0  0  0  0  2  0  0  0  0  0  0
  184.5250  179.1120  139.7940 C   0  0  0  0  0  1  0  0  0  0  0  0
  2  3  1  0  0  0  0
  2  1  1  0  0  0  0
  2 19  1  0  0  0  0
  3  1  1  0  0  0  0
  4  2  1  0  0  0  0
  5  4  1  0  0  0  0
  6 13  1  0  0  0  0
  7 10  1  6  0  0  0
  7  9  1  0  0  0  0
  8 15  1  0  0  0  0
  9 15  1  0  0  0  0
  9 12  2  0  0  0  0
 11  8  1  0  0  0  0
 13 14  1  0  0  0  0
 14  7  1  0  0  0  0
 14  8  2  0  0  0  0
 15  5  1  0  0  0  0
 16 18  1  0  0  0  0
 17 11  2  0  0  0  0
 18 13  2  0  0  0  0
 18 17  1  0  0  0  0
 20 19  1  0  0  0  0
 20 21  1  0  0  0  0
 21 22  1  0  0  0  0
 22 32  1  1  0  0  0
 22 24  1  0  0  0  0
 24 25  1  0  0  0  0
 24 23  1  1  0  0  0
 25 26  1  0  0  0  0
 26 27  1  0  0  0  0
 28 27  1  0  0  0  0
 29 28  1  0  0  0  0
 29 31  1  0  0  0  0
 30 29  1  0  0  0  0
 33 32  1  0  0  0  0
 34 33  1  0  0  0  0
 35 34  1  0  0  0  0
 36 35  1  0  0  0  0
M  END
>  <MODEL>
2

>  <REMARK>
 VINA RESULT:      -7.3      1.408      4.961
  Name = 
  17 active torsions:
  status: ('A' for Active; 'I' for Inactive)
    1  A    between atoms: N_4  and  C_10
    2  A    between atoms: N_4  and  N_31
    3  A    between atoms: O_6  and  C_20
    4  A    between atoms: O_6  and  O_32
    5  A    between atoms: C_7  and  C_22
    6  A    between atoms: C_7  and  C_30
    7  A    between atoms: C_8  and  C_24
    8  A    between atoms: C_8  and  C_29
    9  A    between atoms: C_10  and  C_17
   10  A    between atoms: C_11  and  C_29
   11  A    between atoms: C_14  and  C_19
   12  A    between atoms: C_14  and  C_25
   13  A    between atoms: C_15  and  C_25
   14  A    between atoms: C_17  and  C_20
   15  A    between atoms: C_19  and  C_30
   16  A    between atoms: C_22  and  C_24
   17  A    between atoms: C_30  and  O_32
                            x       y       z     vdW  Elec       q    Type
                         _______ _______ _______ _____ _____    ______ ____

>  <TORSDO>
F 17

$$$$
=
 OpenBabel10222415573D

 36 38  0  0  1  0  0  0  0  0999 V2000
  183.1560  178.5610  144.4130 C   0  0  0  0  0  2  0  0  0  0  0  0
  184.5450  178.8330  143.8870 C   0  0  0  0  0  0  0  0  0  0  0  0
  183.5620  179.9770  144.0200 C   0  0  0  0  0  2  0  0  0  0  0  0
  185.6170  178.7490  144.9550 C   0  0  0  0  0  2  0  0  0  0  0  0
  185.7980  177.3660  145.3640 N   0  0  0  0  0  2  0  0  0  0  0  0
  191.7660  177.9310  144.5910 N   0  0  0  0  0  1  0  0  0  0  0  0
  189.3340  177.8980  146.4760 C   0  0  1  0  0  3  0  0  0  0  0  0
  188.1530  177.0850  144.5930 C   0  0  0  0  0  0  0  0  0  0  0  0
  187.8590  177.7290  146.7210 C   0  0  0  0  0  0  0  0  0  0  0  0
  190.1110  176.9250  147.3430 C   0  0  0  0  0  1  0  0  0  0  0  0
  187.9280  176.7330  143.3020 N   0  0  0  0  0  0  0  0  0  0  0  0
  187.2780  178.0790  147.7820 O   0  0  0  0  0  0  0  0  0  0  0  0
  190.4780  177.5040  144.1540 C   0  0  0  0  0  0  0  0  0  0  0  0
  189.3980  177.4720  145.0390 C   0  0  0  0  0  0  0  0  0  0  0  0
  187.1670  177.1760  145.6050 N   0  0  0  0  0  0  0  0  0  0  0  0
  191.3170  177.1290  141.8720 N   0  0  0  0  0  1  0  0  0  0  0  0
  188.9620  176.7390  142.4130 C   0  0  0  0  0  3  0  0  0  0  0  0
  190.2550  177.1180  142.8190 C   0  0  0  0  0  0  0  0  0  0  0  0
  184.8180  178.2460  142.5000 C   0  0  0  0  0  2  0  0  0  0  0  0
  185.9430  178.8280  141.9020 O   0  0  0  0  0  0  0  0  0  0  0  0
  185.4650  179.5580  140.9120 O   0  0  0  0  0  0  0  0  0  0  0  0
  185.2970  178.6610  139.8460 C   0  0  1  0  0  3  0  0  0  0  0  0
  184.1210  180.5610  138.9430 O   0  0  0  0  0  1  0  0  0  0  0  0
  184.2640  179.1760  138.8400 C   0  0  2  0  0  3  0  0  0  0  0  0
  182.9110  178.5110  139.0570 C   0  0  0  0  0  2  0  0  0  0  0  0
  181.8580  179.5040  139.5310 C   0  0  0  0  0  2  0  0  0  0  0  0
  181.4410  179.2230  140.9650 C   0  0  0  0  0  2  0  0  0  0  0  0
  181.0170  177.7730  141.1150 C   0  0  0  0  0  2  0  0  0  0  0  0
  179.6010  177.6960  141.6540 C   0  0  0  0  0  3  0  0  0  0  0  0
  179.6300  177.8070  143.0440 O   0  0  0  0  0  1  0  0  0  0  0  0
  179.0270  176.4740  141.3020 O   0  0  0  0  0  1  0  0  0  0  0  0
  186.6330  178.3290  139.1850 C   0  0  0  0  0  2  0  0  0  0  0  0
  186.4700  177.8950  137.7370 C   0  0  0  0  0  2  0  0  0  0  0  0
  187.2800  178.8100  136.8400 C   0  0  0  0  0  2  0  0  0  0  0  0
  188.7520  178.7420  137.2090 C   0  0  0  0  0  2  0  0  0  0  0  0
  189.3950  177.5170  136.5860 C   0  0  0  0  0  1  0  0  0  0  0  0
  2  3  1  0  0  0  0
  2  1  1  0  0  0  0
  2  4  1  0  0  0  0
  3  1  1  0  0  0  0
  4  5  1  0  0  0  0
  5 15  1  0  0  0  0
  7  9  1  0  0  0  0
  7 10  1  1  0  0  0
  8 14  1  0  0  0  0
  8 15  1  0  0  0  0
  9 12  2  0  0  0  0
 11  8  2  0  0  0  0
 13  6  1  0  0  0  0
 13 14  2  0  0  0  0
 14  7  1  0  0  0  0
 15  9  1  0  0  0  0
 16 18  1  0  0  0  0
 17 18  2  0  0  0  0
 17 11  1  0  0  0  0
 18 13  1  0  0  0  0
 19  2  1  0  0  0  0
 20 19  1  0  0  0  0
 21 20  1  0  0  0  0
 22 32  1  6  0  0  0
 22 21  1  0  0  0  0
 24 23  1  1  0  0  0
 24 25  1  0  0  0  0
 24 22  1  0  0  0  0
 25 26  1  0  0  0  0
 26 27  1  0  0  0  0
 27 28  1  0  0  0  0
 28 29  1  0  0  0  0
 29 30  1  0  0  0  0
 31 29  1  0  0  0  0
 33 32  1  0  0  0  0
 34 35  1  0  0  0  0
 34 33  1  0  0  0  0
 36 35  1  0  0  0  0
M  END
>  <MODEL>
3

>  <REMARK>
 VINA RESULT:      -7.0      2.592      7.302
  Name = 
  17 active torsions:
  status: ('A' for Active; 'I' for Inactive)
    1  A    between atoms: N_4  and  C_10
    2  A    between atoms: N_4  and  N_31
    3  A    between atoms: O_6  and  C_20
    4  A    between atoms: O_6  and  O_32
    5  A    between atoms: C_7  and  C_22
    6  A    between atoms: C_7  and  C_30
    7  A    between atoms: C_8  and  C_24
    8  A    between atoms: C_8  and  C_29
    9  A    between atoms: C_10  and  C_17
   10  A    between atoms: C_11  and  C_29
   11  A    between atoms: C_14  and  C_19
   12  A    between atoms: C_14  and  C_25
   13  A    between atoms: C_15  and  C_25
   14  A    between atoms: C_17  and  C_20
   15  A    between atoms: C_19  and  C_30
   16  A    between atoms: C_22  and  C_24
   17  A    between atoms: C_30  and  O_32
                            x       y       z     vdW  Elec       q    Type
                         _______ _______ _______ _____ _____    ______ ____

>  <TORSDO>
F 17

$$$$
=
 OpenBabel10222415573D

 36 38  0  0  1  0  0  0  0  0999 V2000
  190.4430  176.9910  144.0140 C   0  0  0  0  0  2  0  0  0  0  0  0
  189.5320  176.9220  142.8120 C   0  0  0  0  0  0  0  0  0  0  0  0
  190.0040  178.2710  143.3120 C   0  0  0  0  0  2  0  0  0  0  0  0
  190.2200  176.3950  141.5680 C   0  0  0  0  0  2  0  0  0  0  0  0
  190.7290  177.5040  140.7790 N   0  0  0  0  0  2  0  0  0  0  0  0
  187.7240  175.2400  136.0480 N   0  0  0  0  0  1  0  0  0  0  0  0
  188.0110  177.4160  138.2050 C   0  0  1  0  0  3  0  0  0  0  0  0
  190.1320  176.4460  138.6010 C   0  0  0  0  0  0  0  0  0  0  0  0
  188.7460  178.0350  139.3620 C   0  0  0  0  0  0  0  0  0  0  0  0
  187.8550  178.4370  137.0930 C   0  0  0  0  0  1  0  0  0  0  0  0
  191.1500  175.5540  138.4960 N   0  0  0  0  0  0  0  0  0  0  0  0
  188.2530  178.9120  140.1200 O   0  0  0  0  0  0  0  0  0  0  0  0
  188.8930  175.3530  136.8560 C   0  0  0  0  0  0  0  0  0  0  0  0
  189.0080  176.3680  137.8070 C   0  0  0  0  0  0  0  0  0  0  0  0
  190.0490  177.4910  139.5510 N   0  0  0  0  0  0  0  0  0  0  0  0
  189.8950  173.3840  135.7740 N   0  0  0  0  0  1  0  0  0  0  0  0
  191.0790  174.5570  137.5680 C   0  0  0  0  0  3  0  0  0  0  0  0
  189.9550  174.4390  136.7280 C   0  0  0  0  0  0  0  0  0  0  0  0
  188.1040  176.4700  143.1300 C   0  0  0  0  0  2  0  0  0  0  0  0
  187.1740  177.4930  142.9060 O   0  0  0  0  0  0  0  0  0  0  0  0
  186.1800  177.2380  143.7360 O   0  0  0  0  0  0  0  0  0  0  0  0
  185.1450  178.0980  143.3400 C   0  0  1  0  0  3  0  0  0  0  0  0
  183.7050  179.8550  144.1470 O   0  0  0  0  0  1  0  0  0  0  0  0
  184.4820  178.7660  144.5480 C   0  0  2  0  0  3  0  0  0  0  0  0
  185.5240  179.2320  145.5550 C   0  0  0  0  0  2  0  0  0  0  0  0
  185.4260  178.4710  146.8700 C   0  0  0  0  0  2  0  0  0  0  0  0
  186.7720  178.4070  147.5720 C   0  0  0  0  0  2  0  0  0  0  0  0
  187.8110  177.7740  146.6630 C   0  0  0  0  0  2  0  0  0  0  0  0
  189.1680  177.7760  147.3400 C   0  0  0  0  0  3  0  0  0  0  0  0
  189.6580  176.4720  147.3970 O   0  0  0  0  0  1  0  0  0  0  0  0
  189.0500  178.2810  148.6350 O   0  0  0  0  0  1  0  0  0  0  0  0
  185.6320  179.1160  142.3110 C   0  0  0  0  0  2  0  0  0  0  0  0
  184.8210  179.0740  141.0260 C   0  0  0  0  0  2  0  0  0  0  0  0
  183.8440  177.9160  141.0840 C   0  0  0  0  0  2  0  0  0  0  0  0
  182.4800  178.3510  140.5780 C   0  0  0  0  0  2  0  0  0  0  0  0
  182.6310  179.3110  139.4130 C   0  0  0  0  0  1  0  0  0  0  0  0
  2 19  1  0  0  0  0
  2  3  1  0  0  0  0
  2  1  1  0  0  0  0
  3  1  1  0  0  0  0
  4  2  1  0  0  0  0
  5  4  1  0  0  0  0
  6 13  1  0  0  0  0
  7 10  1  6  0  0  0
  7  9  1  0  0  0  0
  8 15  1  0  0  0  0
  9 15  1  0  0  0  0
  9 12  2  0  0  0  0
 11  8  1  0  0  0  0
 13 14  1  0  0  0  0
 14  7  1  0  0  0  0
 14  8  2  0  0  0  0
 15  5  1  0  0  0  0
 16 18  1  0  0  0  0
 17 11  2  0  0  0  0
 18 13  2  0  0  0  0
 18 17  1  0  0  0  0
 20 19  1  0  0  0  0
 20 21  1  0  0  0  0
 22 32  1  6  0  0  0
 22 21  1  0  0  0  0
 22 24  1  0  0  0  0
 24 23  1  6  0  0  0
 24 25  1  0  0  0  0
 25 26  1  0  0  0  0
 26 27  1  0  0  0  0
 28 29  1  0  0  0  0
 28 27  1  0  0  0  0
 29 30  1  0  0  0  0
 29 31  1  0  0  0  0
 33 34  1  0  0  0  0
 33 32  1  0  0  0  0
 35 34  1  0  0  0  0
 36 35  1  0  0  0  0
M  END
>  <MODEL>
4

>  <REMARK>
 VINA RESULT:      -7.0      1.467      4.814
  Name = 
  17 active torsions:
  status: ('A' for Active; 'I' for Inactive)
    1  A    between atoms: N_4  and  C_10
    2  A    between atoms: N_4  and  N_31
    3  A    between atoms: O_6  and  C_20
    4  A    between atoms: O_6  and  O_32
    5  A    between atoms: C_7  and  C_22
    6  A    between atoms: C_7  and  C_30
    7  A    between atoms: C_8  and  C_24
    8  A    between atoms: C_8  and  C_29
    9  A    between atoms: C_10  and  C_17
   10  A    between atoms: C_11  and  C_29
   11  A    between atoms: C_14  and  C_19
   12  A    between atoms: C_14  and  C_25
   13  A    between atoms: C_15  and  C_25
   14  A    between atoms: C_17  and  C_20
   15  A    between atoms: C_19  and  C_30
   16  A    between atoms: C_22  and  C_24
   17  A    between atoms: C_30  and  O_32
                            x       y       z     vdW  Elec       q    Type
                         _______ _______ _______ _____ _____    ______ ____

>  <TORSDO>
F 17

$$$$
=
 OpenBabel10222415573D

 36 38  0  0  1  0  0  0  0  0999 V2000
  182.7900  179.0530  139.7220 C   0  0  0  0  0  2  0  0  0  0  0  0
  184.1220  178.3860  139.9720 C   0  0  0  0  0  0  0  0  0  0  0  0
  182.8460  177.6610  140.3430 C   0  0  0  0  0  2  0  0  0  0  0  0
  184.8060  177.9210  138.7020 C   0  0  0  0  0  2  0  0  0  0  0  0
  185.5920  179.0070  138.1390 N   0  0  0  0  0  2  0  0  0  0  0  0
  190.5420  175.5620  138.5380 N   0  0  0  0  0  1  0  0  0  0  0  0
  188.2750  176.7490  136.8280 C   0  0  1  0  0  3  0  0  0  0  0  0
  187.8390  178.0990  138.7220 C   0  0  0  0  0  0  0  0  0  0  0  0
  187.0610  177.6230  136.6730 C   0  0  0  0  0  0  0  0  0  0  0  0
  189.3440  177.1780  135.8390 C   0  0  0  0  0  1  0  0  0  0  0  0
  187.9440  178.5550  139.9960 N   0  0  0  0  0  0  0  0  0  0  0  0
  186.2830  177.5790  135.6840 O   0  0  0  0  0  0  0  0  0  0  0  0
  189.6830  176.5880  139.0300 C   0  0  0  0  0  0  0  0  0  0  0  0
  188.6810  177.1290  138.2220 C   0  0  0  0  0  0  0  0  0  0  0  0
  186.8450  178.4820  137.7910 N   0  0  0  0  0  0  0  0  0  0  0  0
  190.8150  176.5620  141.2140 N   0  0  0  0  0  1  0  0  0  0  0  0
  188.9210  178.0600  140.8100 C   0  0  0  0  0  3  0  0  0  0  0  0
  189.8100  177.0740  140.3440 C   0  0  0  0  0  0  0  0  0  0  0  0
  184.9540  179.0390  141.0780 C   0  0  0  0  0  2  0  0  0  0  0  0
  185.2830  178.1260  142.0870 O   0  0  0  0  0  0  0  0  0  0  0  0
  185.6200  178.8700  143.1240 O   0  0  0  0  0  0  0  0  0  0  0  0
  184.7830  178.4430  144.1660 C   0  0  1  0  0  3  0  0  0  0  0  0
  185.6010  179.4910  146.1770 O   0  0  0  0  0  1  0  0  0  0  0  0
  185.5600  178.2840  145.4760 C   0  0  2  0  0  3  0  0  0  0  0  0
  186.9820  177.8040  145.2140 C   0  0  0  0  0  2  0  0  0  0  0  0
  187.7920  177.6950  146.5000 C   0  0  0  0  0  2  0  0  0  0  0  0
  189.2150  177.2410  146.2180 C   0  0  0  0  0  2  0  0  0  0  0  0
  189.7950  178.0220  145.0510 C   0  0  0  0  0  2  0  0  0  0  0  0
  191.2720  177.7110  144.8980 C   0  0  0  0  0  3  0  0  0  0  0  0
  191.8100  178.5130  143.8920 O   0  0  0  0  0  1  0  0  0  0  0  0
  191.4390  176.3690  144.5560 O   0  0  0  0  0  1  0  0  0  0  0  0
  183.5730  179.3620  144.3190 C   0  0  0  0  0  2  0  0  0  0  0  0
  182.2580  178.6070  144.2280 C   0  0  0  0  0  2  0  0  0  0  0  0
  181.3590  179.2800  143.2080 C   0  0  0  0  0  2  0  0  0  0  0  0
  180.1000  178.4590  142.9920 C   0  0  0  0  0  2  0  0  0  0  0  0
  179.4970  178.7660  141.6340 C   0  0  0  0  0  1  0  0  0  0  0  0
  1  2  1  0  0  0  0
  1  3  1  0  0  0  0
  2  3  1  0  0  0  0
  2 19  1  0  0  0  0
  4  2  1  0  0  0  0
  5  4  1  0  0  0  0
  6 13  1  0  0  0  0
  7 10  1  6  0  0  0
  7 14  1  0  0  0  0
  8 11  1  0  0  0  0
  9  7  1  0  0  0  0
  9 15  1  0  0  0  0
 11 17  2  0  0  0  0
 12  9  2  0  0  0  0
 13 18  2  0  0  0  0
 14  8  2  0  0  0  0
 14 13  1  0  0  0  0
 15  5  1  0  0  0  0
 15  8  1  0  0  0  0
 18 17  1  0  0  0  0
 18 16  1  0  0  0  0
 19 20  1  0  0  0  0
 20 21  1  0  0  0  0
 21 22  1  0  0  0  0
 22 32  1  1  0  0  0
 22 24  1  0  0  0  0
 24 23  1  6  0  0  0
 25 24  1  0  0  0  0
 25 26  1  0  0  0  0
 27 26  1  0  0  0  0
 28 27  1  0  0  0  0
 29 28  1  0  0  0  0
 30 29  1  0  0  0  0
 31 29  1  0  0  0  0
 33 32  1  0  0  0  0
 34 33  1  0  0  0  0
 35 34  1  0  0  0  0
 36 35  1  0  0  0  0
M  END
>  <MODEL>
5

>  <REMARK>
 VINA RESULT:      -7.0      2.191      6.277
  Name = 
  17 active torsions:
  status: ('A' for Active; 'I' for Inactive)
    1  A    between atoms: N_4  and  C_10
    2  A    between atoms: N_4  and  N_31
    3  A    between atoms: O_6  and  C_20
    4  A    between atoms: O_6  and  O_32
    5  A    between atoms: C_7  and  C_22
    6  A    between atoms: C_7  and  C_30
    7  A    between atoms: C_8  and  C_24
    8  A    between atoms: C_8  and  C_29
    9  A    between atoms: C_10  and  C_17
   10  A    between atoms: C_11  and  C_29
   11  A    between atoms: C_14  and  C_19
   12  A    between atoms: C_14  and  C_25
   13  A    between atoms: C_15  and  C_25
   14  A    between atoms: C_17  and  C_20
   15  A    between atoms: C_19  and  C_30
   16  A    between atoms: C_22  and  C_24
   17  A    between atoms: C_30  and  O_32
                            x       y       z     vdW  Elec       q    Type
                         _______ _______ _______ _____ _____    ______ ____

>  <TORSDO>
F 17

$$$$
=
 OpenBabel10222415573D

 36 38  0  0  1  0  0  0  0  0999 V2000
  190.5650  179.1130  143.5600 C   0  0  0  0  0  2  0  0  0  0  0  0
  190.9070  177.7000  143.9680 C   0  0  0  0  0  0  0  0  0  0  0  0
  191.9820  178.7650  144.0020 C   0  0  0  0  0  2  0  0  0  0  0  0
  190.3190  177.3040  145.3080 C   0  0  0  0  0  2  0  0  0  0  0  0
  189.0530  176.6190  145.1090 N   0  0  0  0  0  2  0  0  0  0  0  0
  183.4960  178.9860  145.3510 N   0  0  0  0  0  1  0  0  0  0  0  0
  186.0870  178.1620  146.7940 C   0  0  1  0  0  3  0  0  0  0  0  0
  186.9640  177.8870  144.6140 C   0  0  0  0  0  0  0  0  0  0  0  0
  187.4870  177.6120  146.7770 C   0  0  0  0  0  0  0  0  0  0  0  0
  186.0870  179.5410  147.4280 C   0  0  0  0  0  1  0  0  0  0  0  0
  186.9730  177.8190  143.2580 N   0  0  0  0  0  0  0  0  0  0  0  0
  188.1070  177.2330  147.8050 O   0  0  0  0  0  0  0  0  0  0  0  0
  184.6730  178.6150  144.6370 C   0  0  0  0  0  0  0  0  0  0  0  0
  185.8440  178.2730  145.3180 C   0  0  0  0  0  0  0  0  0  0  0  0
  188.0320  177.5130  145.4630 N   0  0  0  0  0  0  0  0  0  0  0  0
  183.5220  178.9060  142.4830 N   0  0  0  0  0  1  0  0  0  0  0  0
  185.8520  178.1590  142.5590 C   0  0  0  0  0  3  0  0  0  0  0  0
  184.6850  178.5670  143.2310 C   0  0  0  0  0  0  0  0  0  0  0  0
  190.8960  176.6930  142.8160 C   0  0  0  0  0  2  0  0  0  0  0  0
  190.2590  177.2100  141.6810 O   0  0  0  0  0  0  0  0  0  0  0  0
  190.5550  176.3670  140.7090 O   0  0  0  0  0  0  0  0  0  0  0  0
  190.7060  177.1660  139.5670 C   0  0  1  0  0  3  0  0  0  0  0  0
  190.6200  175.0360  138.4400 O   0  0  0  0  0  1  0  0  0  0  0  0
  191.1330  176.3320  138.3550 C   0  0  2  0  0  3  0  0  0  0  0  0
  192.6500  176.2680  138.2420 C   0  0  0  0  0  2  0  0  0  0  0  0
  193.0970  175.4550  137.0350 C   0  0  0  0  0  2  0  0  0  0  0  0
  193.9180  174.2470  137.4570 C   0  0  0  0  0  2  0  0  0  0  0  0
  195.3650  174.6480  137.6870 C   0  0  0  0  0  2  0  0  0  0  0  0
  196.0320  173.6710  138.6360 C   0  0  0  0  0  3  0  0  0  0  0  0
  195.1110  172.6970  139.0190 O   0  0  0  0  0  1  0  0  0  0  0  0
  196.4850  174.3470  139.7690 O   0  0  0  0  0  1  0  0  0  0  0  0
  189.4460  177.9840  139.2910 C   0  0  0  0  0  2  0  0  0  0  0  0
  189.2990  178.3420  137.8210 C   0  0  0  0  0  2  0  0  0  0  0  0
  187.8670  178.1030  137.3840 C   0  0  0  0  0  2  0  0  0  0  0  0
  187.6780  176.6580  136.9580 C   0  0  0  0  0  2  0  0  0  0  0  0
  186.2010  176.3170  136.8890 C   0  0  0  0  0  1  0  0  0  0  0  0
  1  2  1  0  0  0  0
  1  3  1  0  0  0  0
  2  3  1  0  0  0  0
  2  4  1  0  0  0  0
  5  4  1  0  0  0  0
  5 15  1  0  0  0  0
  7 10  1  1  0  0  0
  8 14  1  0  0  0  0
  8 15  1  0  0  0  0
  9  7  1  0  0  0  0
  9 12  2  0  0  0  0
 11  8  2  0  0  0  0
 13 14  2  0  0  0  0
 13  6  1  0  0  0  0
 14  7  1  0  0  0  0
 15  9  1  0  0  0  0
 16 18  1  0  0  0  0
 17 18  2  0  0  0  0
 17 11  1  0  0  0  0
 18 13  1  0  0  0  0
 19  2  1  0  0  0  0
 20 19  1  0  0  0  0
 21 20  1  0  0  0  0
 22 32  1  6  0  0  0
 22 21  1  0  0  0  0
 24 23  1  1  0  0  0
 24 22  1  0  0  0  0
 25 24  1  0  0  0  0
 26 27  1  0  0  0  0
 26 25  1  0  0  0  0
 27 28  1  0  0  0  0
 28 29  1  0  0  0  0
 29 30  1  0  0  0  0
 29 31  1  0  0  0  0
 33 32  1  0  0  0  0
 34 33  1  0  0  0  0
 35 34  1  0  0  0  0
 36 35  1  0  0  0  0
M  END
>  <MODEL>
6

>  <REMARK>
 VINA RESULT:      -6.9      3.846      9.082
  Name = 
  17 active torsions:
  status: ('A' for Active; 'I' for Inactive)
    1  A    between atoms: N_4  and  C_10
    2  A    between atoms: N_4  and  N_31
    3  A    between atoms: O_6  and  C_20
    4  A    between atoms: O_6  and  O_32
    5  A    between atoms: C_7  and  C_22
    6  A    between atoms: C_7  and  C_30
    7  A    between atoms: C_8  and  C_24
    8  A    between atoms: C_8  and  C_29
    9  A    between atoms: C_10  and  C_17
   10  A    between atoms: C_11  and  C_29
   11  A    between atoms: C_14  and  C_19
   12  A    between atoms: C_14  and  C_25
   13  A    between atoms: C_15  and  C_25
   14  A    between atoms: C_17  and  C_20
   15  A    between atoms: C_19  and  C_30
   16  A    between atoms: C_22  and  C_24
   17  A    between atoms: C_30  and  O_32
                            x       y       z     vdW  Elec       q    Type
                         _______ _______ _______ _____ _____    ______ ____

>  <TORSDO>
F 17

$$$$
=
 OpenBabel10222415573D

 36 38  0  0  1  0  0  0  0  0999 V2000
  186.5820  179.3470  142.1960 C   0  0  0  0  0  2  0  0  0  0  0  0
  187.0590  177.9170  142.1000 C   0  0  0  0  0  0  0  0  0  0  0  0
  185.7680  178.3180  141.4200 C   0  0  0  0  0  2  0  0  0  0  0  0
  188.2630  177.7470  141.1950 C   0  0  0  0  0  2  0  0  0  0  0  0
  188.4180  178.9220  140.3540 N   0  0  0  0  0  2  0  0  0  0  0  0
  190.2840  175.1670  136.0010 N   0  0  0  0  0  1  0  0  0  0  0  0
  188.2090  177.1860  137.0430 C   0  0  1  0  0  3  0  0  0  0  0  0
  189.8060  177.6350  138.7300 C   0  0  0  0  0  0  0  0  0  0  0  0
  187.7230  178.1580  138.0830 C   0  0  0  0  0  0  0  0  0  0  0  0
  188.3260  177.8880  135.7030 C   0  0  0  0  0  1  0  0  0  0  0  0
  190.9380  177.4920  139.4640 N   0  0  0  0  0  0  0  0  0  0  0  0
  186.5510  178.6160  138.1260 O   0  0  0  0  0  0  0  0  0  0  0  0
  190.5220  175.9640  137.1580 C   0  0  0  0  0  0  0  0  0  0  0  0
  189.5740  176.8940  137.5920 C   0  0  0  0  0  0  0  0  0  0  0  0
  188.7140  178.4740  139.0580 N   0  0  0  0  0  0  0  0  0  0  0  0
  192.7110  174.8980  137.5090 N   0  0  0  0  0  1  0  0  0  0  0  0
  191.8930  176.6040  139.0630 C   0  0  0  0  0  3  0  0  0  0  0  0
  191.7070  175.8280  137.9030 C   0  0  0  0  0  0  0  0  0  0  0  0
  186.9950  177.1440  143.4190 C   0  0  0  0  0  2  0  0  0  0  0  0
  187.5550  177.8720  144.4760 O   0  0  0  0  0  0  0  0  0  0  0  0
  188.0130  176.9610  145.3130 O   0  0  0  0  0  0  0  0  0  0  0  0
  187.4210  177.2700  146.5470 C   0  0  1  0  0  3  0  0  0  0  0  0
  188.0430  178.0160  148.7540 O   0  0  0  0  0  1  0  0  0  0  0  0
  188.4430  177.2090  147.6870 C   0  0  2  0  0  3  0  0  0  0  0  0
  189.8210  177.6490  147.2100 C   0  0  0  0  0  2  0  0  0  0  0  0
  190.8600  176.5490  147.3780 C   0  0  0  0  0  2  0  0  0  0  0  0
  191.6820  176.3680  146.1130 C   0  0  0  0  0  2  0  0  0  0  0  0
  191.3540  177.4610  145.1100 C   0  0  0  0  0  2  0  0  0  0  0  0
  191.5310  176.9430  143.6960 C   0  0  0  0  0  3  0  0  0  0  0  0
  191.4230  178.0040  142.7990 O   0  0  0  0  0  1  0  0  0  0  0  0
  190.5450  175.9970  143.4120 O   0  0  0  0  0  1  0  0  0  0  0  0
  186.6940  178.6120  146.4940 C   0  0  0  0  0  2  0  0  0  0  0  0
  185.1830  178.4510  146.4890 C   0  0  0  0  0  2  0  0  0  0  0  0
  184.6000  179.1860  145.2970 C   0  0  0  0  0  2  0  0  0  0  0  0
  183.1900  178.7000  145.0150 C   0  0  0  0  0  2  0  0  0  0  0  0
  182.8030  179.0060  143.5800 C   0  0  0  0  0  1  0  0  0  0  0  0
  2  1  1  0  0  0  0
  2 19  1  0  0  0  0
  3  2  1  0  0  0  0
  3  1  1  0  0  0  0
  4  2  1  0  0  0  0
  5  4  1  0  0  0  0
  6 13  1  0  0  0  0
  7 10  1  6  0  0  0
  7 14  1  0  0  0  0
  7  9  1  0  0  0  0
  8 15  1  0  0  0  0
  8 11  1  0  0  0  0
  9 12  2  0  0  0  0
  9 15  1  0  0  0  0
 13 14  1  0  0  0  0
 13 18  2  0  0  0  0
 14  8  2  0  0  0  0
 15  5  1  0  0  0  0
 16 18  1  0  0  0  0
 17 11  2  0  0  0  0
 18 17  1  0  0  0  0
 19 20  1  0  0  0  0
 20 21  1  0  0  0  0
 21 22  1  0  0  0  0
 22 32  1  6  0  0  0
 22 24  1  0  0  0  0
 24 23  1  1  0  0  0
 25 26  1  0  0  0  0
 25 24  1  0  0  0  0
 27 26  1  0  0  0  0
 28 27  1  0  0  0  0
 29 28  1  0  0  0  0
 30 29  1  0  0  0  0
 31 29  1  0  0  0  0
 33 32  1  0  0  0  0
 34 33  1  0  0  0  0
 35 34  1  0  0  0  0
 36 35  1  0  0  0  0
M  END
>  <MODEL>
7

>  <REMARK>
 VINA RESULT:      -6.8      1.767      4.911
  Name = 
  17 active torsions:
  status: ('A' for Active; 'I' for Inactive)
    1  A    between atoms: N_4  and  C_10
    2  A    between atoms: N_4  and  N_31
    3  A    between atoms: O_6  and  C_20
    4  A    between atoms: O_6  and  O_32
    5  A    between atoms: C_7  and  C_22
    6  A    between atoms: C_7  and  C_30
    7  A    between atoms: C_8  and  C_24
    8  A    between atoms: C_8  and  C_29
    9  A    between atoms: C_10  and  C_17
   10  A    between atoms: C_11  and  C_29
   11  A    between atoms: C_14  and  C_19
   12  A    between atoms: C_14  and  C_25
   13  A    between atoms: C_15  and  C_25
   14  A    between atoms: C_17  and  C_20
   15  A    between atoms: C_19  and  C_30
   16  A    between atoms: C_22  and  C_24
   17  A    between atoms: C_30  and  O_32
                            x       y       z     vdW  Elec       q    Type
                         _______ _______ _______ _____ _____    ______ ____

>  <TORSDO>
F 17

$$$$
=
 OpenBabel10222415573D

 36 38  0  0  1  0  0  0  0  0999 V2000
  185.9080  179.3180  146.1810 C   0  0  0  0  0  2  0  0  0  0  0  0
  185.1880  178.6240  145.0490 C   0  0  0  0  0  0  0  0  0  0  0  0
  185.0140  178.1170  146.4650 C   0  0  0  0  0  2  0  0  0  0  0  0
  184.0360  179.4330  144.4860 C   0  0  0  0  0  2  0  0  0  0  0  0
  182.8190  178.6390  144.5060 N   0  0  0  0  0  2  0  0  0  0  0  0
  180.5920  178.2900  138.8980 N   0  0  0  0  0  1  0  0  0  0  0  0
  180.1310  178.7660  141.9030 C   0  0  1  0  0  3  0  0  0  0  0  0
  182.4920  178.8220  142.0410 C   0  0  0  0  0  0  0  0  0  0  0  0
  180.6450  178.8980  143.3110 C   0  0  0  0  0  0  0  0  0  0  0  0
  179.3790  180.0260  141.5140 C   0  0  0  0  0  1  0  0  0  0  0  0
  183.7820  178.7090  141.6330 N   0  0  0  0  0  0  0  0  0  0  0  0
  179.9110  178.8770  144.3330 O   0  0  0  0  0  0  0  0  0  0  0  0
  181.6740  178.4530  139.8110 C   0  0  0  0  0  0  0  0  0  0  0  0
  181.4350  178.6970  141.1660 C   0  0  0  0  0  0  0  0  0  0  0  0
  182.0660  178.9980  143.3790 N   0  0  0  0  0  0  0  0  0  0  0  0
  183.3150  178.1120  138.0110 N   0  0  0  0  0  1  0  0  0  0  0  0
  184.0540  178.4860  140.3150 C   0  0  0  0  0  3  0  0  0  0  0  0
  183.0100  178.3580  139.3800 C   0  0  0  0  0  0  0  0  0  0  0  0
  186.1070  177.8600  144.0940 C   0  0  0  0  0  2  0  0  0  0  0  0
  187.4070  177.7480  144.6030 O   0  0  0  0  0  0  0  0  0  0  0  0
  187.9450  176.7380  143.9460 O   0  0  0  0  0  0  0  0  0  0  0  0
  189.3160  176.8020  144.2370 C   0  0  1  0  0  3  0  0  0  0  0  0
  190.6300  178.2840  142.8630 O   0  0  0  0  0  1  0  0  0  0  0  0
  190.1490  176.9770  142.9650 C   0  0  2  0  0  3  0  0  0  0  0  0
  189.3300  176.6430  141.7250 C   0  0  0  0  0  2  0  0  0  0  0  0
  189.0540  177.8770  140.8760 C   0  0  0  0  0  2  0  0  0  0  0  0
  189.7070  177.7630  139.5080 C   0  0  0  0  0  2  0  0  0  0  0  0
  188.7310  177.1700  138.5060 C   0  0  0  0  0  2  0  0  0  0  0  0
  188.1990  178.2560  137.5910 C   0  0  0  0  0  3  0  0  0  0  0  0
  189.0400  179.3670  137.6550 O   0  0  0  0  0  1  0  0  0  0  0  0
  186.9150  178.6270  137.9940 O   0  0  0  0  0  1  0  0  0  0  0  0
  189.6130  177.8820  145.2760 C   0  0  0  0  0  2  0  0  0  0  0  0
  190.6180  177.4220  146.3180 C   0  0  0  0  0  2  0  0  0  0  0  0
  189.9200  176.5480  147.3420 C   0  0  0  0  0  2  0  0  0  0  0  0
  188.5490  177.1110  147.6700 C   0  0  0  0  0  2  0  0  0  0  0  0
  188.6720  178.2590  148.6550 C   0  0  0  0  0  1  0  0  0  0  0  0
  1  3  1  0  0  0  0
  2  1  1  0  0  0  0
  2  3  1  0  0  0  0
  4  5  1  0  0  0  0
  4  2  1  0  0  0  0
  6 13  1  0  0  0  0
  7 10  1  6  0  0  0
  7  9  1  0  0  0  0
  8 15  1  0  0  0  0
  9 15  1  0  0  0  0
  9 12  2  0  0  0  0
 11  8  1  0  0  0  0
 13 14  1  0  0  0  0
 14  7  1  0  0  0  0
 14  8  2  0  0  0  0
 15  5  1  0  0  0  0
 16 18  1  0  0  0  0
 17 11  2  0  0  0  0
 18 13  2  0  0  0  0
 18 17  1  0  0  0  0
 19 20  1  0  0  0  0
 19  2  1  0  0  0  0
 21 22  1  0  0  0  0
 21 20  1  0  0  0  0
 22 32  1  1  0  0  0
 24 23  1  6  0  0  0
 24 22  1  0  0  0  0
 25 24  1  0  0  0  0
 26 25  1  0  0  0  0
 27 26  1  0  0  0  0
 28 27  1  0  0  0  0
 29 30  1  0  0  0  0
 29 31  1  0  0  0  0
 29 28  1  0  0  0  0
 32 33  1  0  0  0  0
 33 34  1  0  0  0  0
 34 35  1  0  0  0  0
 35 36  1  0  0  0  0
M  END
>  <MODEL>
8

>  <REMARK>
 VINA RESULT:      -6.8      3.393      6.689
  Name = 
  17 active torsions:
  status: ('A' for Active; 'I' for Inactive)
    1  A    between atoms: N_4  and  C_10
    2  A    between atoms: N_4  and  N_31
    3  A    between atoms: O_6  and  C_20
    4  A    between atoms: O_6  and  O_32
    5  A    between atoms: C_7  and  C_22
    6  A    between atoms: C_7  and  C_30
    7  A    between atoms: C_8  and  C_24
    8  A    between atoms: C_8  and  C_29
    9  A    between atoms: C_10  and  C_17
   10  A    between atoms: C_11  and  C_29
   11  A    between atoms: C_14  and  C_19
   12  A    between atoms: C_14  and  C_25
   13  A    between atoms: C_15  and  C_25
   14  A    between atoms: C_17  and  C_20
   15  A    between atoms: C_19  and  C_30
   16  A    between atoms: C_22  and  C_24
   17  A    between atoms: C_30  and  O_32
                            x       y       z     vdW  Elec       q    Type
                         _______ _______ _______ _____ _____    ______ ____

>  <TORSDO>
F 17

$$$$
=
 OpenBabel10222415573D

 36 38  0  0  1  0  0  0  0  0999 V2000
  190.6850  179.2800  143.6730 C   0  0  0  0  0  2  0  0  0  0  0  0
  190.8140  177.8060  143.9800 C   0  0  0  0  0  0  0  0  0  0  0  0
  192.0560  178.6720  143.9450 C   0  0  0  0  0  2  0  0  0  0  0  0
  190.3010  177.4340  145.3570 C   0  0  0  0  0  2  0  0  0  0  0  0
  189.0460  176.7110  145.2360 N   0  0  0  0  0  2  0  0  0  0  0  0
  183.4580  179.0090  145.4390 N   0  0  0  0  0  1  0  0  0  0  0  0
  186.0700  178.2690  146.8900 C   0  0  1  0  0  3  0  0  0  0  0  0
  186.9350  177.9320  144.7140 C   0  0  0  0  0  0  0  0  0  0  0  0
  187.4770  177.7390  146.8810 C   0  0  0  0  0  0  0  0  0  0  0  0
  186.0560  179.6690  147.4760 C   0  0  0  0  0  1  0  0  0  0  0  0
  186.9360  177.8180  143.3620 N   0  0  0  0  0  0  0  0  0  0  0  0
  188.1100  177.4030  147.9170 O   0  0  0  0  0  0  0  0  0  0  0  0
  184.6350  178.6290  144.7300 C   0  0  0  0  0  0  0  0  0  0  0  0
  185.8150  178.3270  145.4130 C   0  0  0  0  0  0  0  0  0  0  0  0
  188.0150  177.6030  145.5680 N   0  0  0  0  0  0  0  0  0  0  0  0
  183.4650  178.8310  142.5750 N   0  0  0  0  0  1  0  0  0  0  0  0
  185.8060  178.1190  142.6590 C   0  0  0  0  0  3  0  0  0  0  0  0
  184.6380  178.5340  143.3260 C   0  0  0  0  0  0  0  0  0  0  0  0
  190.5160  176.8890  142.7920 C   0  0  0  0  0  2  0  0  0  0  0  0
  190.3390  177.6140  141.6070 O   0  0  0  0  0  0  0  0  0  0  0  0
  189.3830  176.9780  140.9570 O   0  0  0  0  0  0  0  0  0  0  0  0
  189.6670  177.1840  139.5990 C   0  0  1  0  0  3  0  0  0  0  0  0
  187.7220  178.6060  139.5060 O   0  0  0  0  0  1  0  0  0  0  0  0
  189.0510  178.4920  139.0930 C   0  0  2  0  0  3  0  0  0  0  0  0
  189.1160  178.5750  137.5730 C   0  0  0  0  0  2  0  0  0  0  0  0
  187.7830  178.9960  136.9690 C   0  0  0  0  0  2  0  0  0  0  0  0
  187.3410  178.0290  135.8820 C   0  0  0  0  0  2  0  0  0  0  0  0
  186.4830  176.9250  136.4760 C   0  0  0  0  0  2  0  0  0  0  0  0
  187.0890  175.5690  136.1670 C   0  0  0  0  0  3  0  0  0  0  0  0
  187.9170  175.1830  137.2200 O   0  0  0  0  0  1  0  0  0  0  0  0
  187.8400  175.6440  134.9930 O   0  0  0  0  0  1  0  0  0  0  0  0
  191.1680  177.1100  139.3270 C   0  0  0  0  0  2  0  0  0  0  0  0
  191.5290  175.9770  138.3800 C   0  0  0  0  0  2  0  0  0  0  0  0
  192.7980  176.3310  137.6290 C   0  0  0  0  0  2  0  0  0  0  0  0
  192.6870  175.9040  136.1760 C   0  0  0  0  0  2  0  0  0  0  0  0
  191.2840  175.4090  135.8770 C   0  0  0  0  0  1  0  0  0  0  0  0
  1  3  1  0  0  0  0
  1  2  1  0  0  0  0
  2  4  1  0  0  0  0
  3  2  1  0  0  0  0
  5  4  1  0  0  0  0
  5 15  1  0  0  0  0
  7 10  1  6  0  0  0
  8 14  1  0  0  0  0
  8 15  1  0  0  0  0
  9  7  1  0  0  0  0
  9 12  2  0  0  0  0
 11  8  2  0  0  0  0
 13 14  2  0  0  0  0
 13  6  1  0  0  0  0
 14  7  1  0  0  0  0
 15  9  1  0  0  0  0
 16 18  1  0  0  0  0
 17 18  2  0  0  0  0
 17 11  1  0  0  0  0
 18 13  1  0  0  0  0
 19  2  1  0  0  0  0
 20 19  1  0  0  0  0
 21 20  1  0  0  0  0
 22 32  1  1  0  0  0
 22 21  1  0  0  0  0
 24 23  1  6  0  0  0
 24 22  1  0  0  0  0
 25 24  1  0  0  0  0
 26 25  1  0  0  0  0
 27 28  1  0  0  0  0
 27 26  1  0  0  0  0
 29 28  1  0  0  0  0
 29 30  1  0  0  0  0
 31 29  1  0  0  0  0
 33 32  1  0  0  0  0
 34 33  1  0  0  0  0
 35 34  1  0  0  0  0
 36 35  1  0  0  0  0
M  END
>  <MODEL>
9

>  <REMARK>
 VINA RESULT:      -6.8      3.230      7.758
  Name = 
  17 active torsions:
  status: ('A' for Active; 'I' for Inactive)
    1  A    between atoms: N_4  and  C_10
    2  A    between atoms: N_4  and  N_31
    3  A    between atoms: O_6  and  C_20
    4  A    between atoms: O_6  and  O_32
    5  A    between atoms: C_7  and  C_22
    6  A    between atoms: C_7  and  C_30
    7  A    between atoms: C_8  and  C_24
    8  A    between atoms: C_8  and  C_29
    9  A    between atoms: C_10  and  C_17
   10  A    between atoms: C_11  and  C_29
   11  A    between atoms: C_14  and  C_19
   12  A    between atoms: C_14  and  C_25
   13  A    between atoms: C_15  and  C_25
   14  A    between atoms: C_17  and  C_20
   15  A    between atoms: C_19  and  C_30
   16  A    between atoms: C_22  and  C_24
   17  A    between atoms: C_30  and  O_32
                            x       y       z     vdW  Elec       q    Type
                         _______ _______ _______ _____ _____    ______ ____

>  <TORSDO>
F 17

$$$$
