=
 OpenBabel10222419423D

 36 37  0  0  0  0  0  0  0  0999 V2000
  186.4050  178.7410  140.8280 C   0  0  0  0  0  3  0  0  0  0  0  0
  185.1210  178.7810  141.2070 C   0  0  0  0  0  0  0  0  0  0  0  0
  184.0700  179.9790  139.4060 N   0  0  0  0  0  0  0  0  0  0  0  0
  184.0800  178.9130  140.1540 C   0  0  0  0  0  0  0  0  0  0  0  0
  181.7600  178.0620  140.6640 C   0  0  0  0  0  0  0  0  0  0  0  0
  183.2400  176.7530  139.2580 C   0  0  0  0  0  3  0  0  0  0  0  0
  181.4790  179.2080  141.3990 O   0  0  0  0  0  1  0  0  0  0  0  0
  183.0060  177.9010  140.0280 C   0  0  0  0  0  0  0  0  0  0  0  0
  180.7800  177.0720  140.5420 C   0  0  0  0  0  3  0  0  0  0  0  0
  182.2560  175.7710  139.1380 C   0  0  0  0  0  3  0  0  0  0  0  0
  181.0280  175.9270  139.7830 C   0  0  0  0  0  3  0  0  0  0  0  0
  183.0900  180.2130  138.4650 O   0  0  0  0  0  0  0  0  0  0  0  0
  182.1830  181.2860  138.6390 C   0  0  0  0  0  1  0  0  0  0  0  0
  184.7850  178.6400  142.6410 C   0  0  0  0  0  3  0  0  0  0  0  0
  184.3560  179.6390  143.4030 C   0  0  0  0  0  3  0  0  0  0  0  0
  184.0120  179.4040  144.8340 C   0  0  0  0  0  2  0  0  0  0  0  0
  184.4400  178.0150  145.2860 C   0  0  0  0  0  2  0  0  0  0  0  0
  187.1490  178.5100  147.6420 C   0  0  0  0  0  3  0  0  0  0  0  0
  185.8430  178.7060  147.2250 C   0  0  0  0  0  3  0  0  0  0  0  0
  185.6820  178.0830  146.0430 N   0  0  0  0  0  0  0  0  0  0  0  0
  187.7050  177.7370  146.6340 C   0  0  0  0  0  0  0  0  0  0  0  0
  186.7990  177.4880  145.6720 N   0  0  0  0  0  0  0  0  0  0  0  0
  191.8250  177.2670  144.1740 O   0  0  0  0  0  0  0  0  0  0  0  0
  189.8900  177.4410  145.4470 N   0  0  0  0  0  2  0  0  0  0  0  0
  191.9430  176.1490  146.2580 C   0  0  0  0  0  1  0  0  0  0  0  0
  189.0810  177.2310  146.6110 C   0  0  0  0  0  0  0  0  0  0  0  0
  191.2310  176.9760  145.2440 C   0  0  0  0  0  0  0  0  0  0  0  0
  189.5420  176.6320  147.6200 O   0  0  0  0  0  0  0  0  0  0  0  0
  187.5460  178.5980  141.7790 C   0  0  0  0  0  2  0  0  0  0  0  0
  188.2490  177.2790  141.5230 C   0  0  0  0  0  2  0  0  0  0  0  0
  189.4700  177.4940  140.6930 C   0  0  0  0  0  0  0  0  0  0  0  0
  190.5620  177.5990  141.2270 O   0  0  0  0  0  0  0  0  0  0  0  0
  189.3320  177.6330  138.9130 P   0  0  0  0  0  0  0  0  0  0  0  0
  190.7730  177.1300  138.1850 O   0  0  0  0  0  0  0  0  0  0  0  0
  188.1950  176.7650  138.4260 O   0  0  0  0  0  1  0  0  0  0  0  0
  189.0290  179.2450  138.4980 O   0  0  0  0  0  1  0  0  0  0  0  0
  1  2  2  0  0  0  0
  1 29  1  0  0  0  0
  2 14  1  0  0  0  0
  3  4  2  0  0  0  0
  4  2  1  0  0  0  0
  5  7  1  0  0  0  0
  6  8  1  0  0  0  0
  8  4  1  0  0  0  0
  8  5  2  0  0  0  0
  9  5  1  0  0  0  0
 10  6  2  0  0  0  0
 10 11  1  0  0  0  0
 11  9  2  0  0  0  0
 12 13  1  0  0  0  0
 12  3  1  0  0  0  0
 14 15  2  0  0  0  0
 15 16  1  0  0  0  0
 16 17  1  0  0  0  0
 17 20  1  0  0  0  0
 19 18  2  0  0  0  0
 20 19  1  0  0  0  0
 21 18  1  0  0  0  0
 22 20  1  0  0  0  0
 22 21  2  0  0  0  0
 23 27  2  0  0  0  0
 24 26  1  0  0  0  0
 26 21  1  0  0  0  0
 26 28  2  0  0  0  0
 27 24  1  0  0  0  0
 27 25  1  0  0  0  0
 30 29  1  0  0  0  0
 31 32  2  0  0  0  0
 31 30  1  0  0  0  0
 33 31  1  0  0  0  0
 34 33  2  0  0  0  0
 35 33  1  0  0  0  0
 36 33  1  0  0  0  0
M  END
>  <MODEL>
1

>  <REMARK>
 VINA RESULT:      -7.7      0.000      0.000
  Name = 
  12 active torsions:
  status: ('A' for Active; 'I' for Inactive)
    1  A    between atoms: P_1  and  C_7
    2  A    between atoms: C_2  and  C_5
    3  A    between atoms: C_2  and  C_22
    4  A    between atoms: N_3  and  O_19
    5  A    between atoms: C_4  and  C_30
    6  A    between atoms: C_7  and  C_24
    7  A    between atoms: C_10  and  C_21
    8  A    between atoms: C_10  and  C_30
    9  A    between atoms: C_13  and  C_25
   10  A    between atoms: C_22  and  N_23
   11  A    between atoms: C_24  and  C_26
   12  A    between atoms: C_26  and  C_29
                            x       y       z     vdW  Elec       q    Type
                         _______ _______ _______ _____ _____    ______ ____

>  <TORSDO>
F 12

$$$$
=
 OpenBabel10222419423D

 36 37  0  0  0  0  0  0  0  0999 V2000
  185.3510  178.9470  144.5500 C   0  0  0  0  0  3  0  0  0  0  0  0
  186.3710  178.2690  144.0100 C   0  0  0  0  0  0  0  0  0  0  0  0
  187.0640  177.4440  146.1590 N   0  0  0  0  0  0  0  0  0  0  0  0
  187.3880  177.6810  144.9210 C   0  0  0  0  0  0  0  0  0  0  0  0
  189.1320  176.3570  143.6680 C   0  0  0  0  0  0  0  0  0  0  0  0
  189.7650  178.3970  144.8180 C   0  0  0  0  0  3  0  0  0  0  0  0
  188.1720  175.4420  143.2560 O   0  0  0  0  0  1  0  0  0  0  0  0
  188.7790  177.4680  144.4570 C   0  0  0  0  0  0  0  0  0  0  0  0
  190.4610  176.1780  143.2700 C   0  0  0  0  0  3  0  0  0  0  0  0
  191.0890  178.2130  144.4150 C   0  0  0  0  0  3  0  0  0  0  0  0
  191.4390  177.1010  143.6460 C   0  0  0  0  0  3  0  0  0  0  0  0
  187.9720  176.9760  147.0850 O   0  0  0  0  0  0  0  0  0  0  0  0
  188.1960  177.6970  148.2840 C   0  0  0  0  0  1  0  0  0  0  0  0
  186.4210  178.0860  142.5420 C   0  0  0  0  0  3  0  0  0  0  0  0
  187.3360  178.6420  141.7560 C   0  0  0  0  0  3  0  0  0  0  0  0
  187.3300  178.3810  140.2890 C   0  0  0  0  0  2  0  0  0  0  0  0
  188.7170  178.5630  139.6880 C   0  0  0  0  0  2  0  0  0  0  0  0
  188.9980  175.7910  137.3710 C   0  0  0  0  0  3  0  0  0  0  0  0
  188.2840  176.8200  137.9620 C   0  0  0  0  0  3  0  0  0  0  0  0
  189.0770  177.4110  138.8740 N   0  0  0  0  0  0  0  0  0  0  0  0
  190.2350  175.8450  137.9960 C   0  0  0  0  0  0  0  0  0  0  0  0
  190.2630  176.8360  138.9050 N   0  0  0  0  0  0  0  0  0  0  0  0
  195.0010  175.4370  137.3990 O   0  0  0  0  0  0  0  0  0  0  0  0
  192.6970  175.5220  137.6700 N   0  0  0  0  0  2  0  0  0  0  0  0
  193.9100  173.3780  136.9830 C   0  0  0  0  0  1  0  0  0  0  0  0
  191.3750  174.9700  137.7060 C   0  0  0  0  0  0  0  0  0  0  0  0
  193.9060  174.8190  137.3600 C   0  0  0  0  0  0  0  0  0  0  0  0
  191.1810  173.7400  137.5070 O   0  0  0  0  0  0  0  0  0  0  0  0
  184.2570  179.5750  143.7530 C   0  0  0  0  0  2  0  0  0  0  0  0
  182.9710  178.7990  143.9680 C   0  0  0  0  0  2  0  0  0  0  0  0
  182.1830  178.7420  142.7020 C   0  0  0  0  0  0  0  0  0  0  0  0
  182.7450  178.5250  141.6400 O   0  0  0  0  0  0  0  0  0  0  0  0
  180.4160  179.0250  142.7320 P   0  0  0  0  0  0  0  0  0  0  0  0
  180.1030  180.6680  142.9880 O   0  0  0  0  0  1  0  0  0  0  0  0
  179.8130  178.6020  141.4120 O   0  0  0  0  0  0  0  0  0  0  0  0
  179.7240  178.1230  143.9840 O   0  0  0  0  0  1  0  0  0  0  0  0
  2  1  2  0  0  0  0
  2  4  1  0  0  0  0
  3 12  1  0  0  0  0
  4  3  2  0  0  0  0
  5  8  1  0  0  0  0
  7  5  1  0  0  0  0
  8  6  2  0  0  0  0
  8  4  1  0  0  0  0
  9 11  1  0  0  0  0
  9  5  2  0  0  0  0
 10  6  1  0  0  0  0
 11 10  2  0  0  0  0
 12 13  1  0  0  0  0
 14  2  1  0  0  0  0
 15 14  2  0  0  0  0
 16 15  1  0  0  0  0
 17 16  1  0  0  0  0
 18 19  2  0  0  0  0
 18 21  1  0  0  0  0
 19 20  1  0  0  0  0
 20 22  1  0  0  0  0
 20 17  1  0  0  0  0
 21 22  2  0  0  0  0
 24 26  1  0  0  0  0
 25 27  1  0  0  0  0
 26 21  1  0  0  0  0
 27 23  2  0  0  0  0
 27 24  1  0  0  0  0
 28 26  2  0  0  0  0
 29 30  1  0  0  0  0
 29  1  1  0  0  0  0
 31 33  1  0  0  0  0
 31 30  1  0  0  0  0
 32 31  2  0  0  0  0
 33 34  1  0  0  0  0
 33 36  1  0  0  0  0
 35 33  2  0  0  0  0
M  END
>  <MODEL>
2

>  <REMARK>
 VINA RESULT:      -7.6      3.760      8.512
  Name = 
  12 active torsions:
  status: ('A' for Active; 'I' for Inactive)
    1  A    between atoms: P_1  and  C_7
    2  A    between atoms: C_2  and  C_5
    3  A    between atoms: C_2  and  C_22
    4  A    between atoms: N_3  and  O_19
    5  A    between atoms: C_4  and  C_30
    6  A    between atoms: C_7  and  C_24
    7  A    between atoms: C_10  and  C_21
    8  A    between atoms: C_10  and  C_30
    9  A    between atoms: C_13  and  C_25
   10  A    between atoms: C_22  and  N_23
   11  A    between atoms: C_24  and  C_26
   12  A    between atoms: C_26  and  C_29
                            x       y       z     vdW  Elec       q    Type
                         _______ _______ _______ _____ _____    ______ ____

>  <TORSDO>
F 12

$$$$
=
 OpenBabel10222419423D

 36 37  0  0  0  0  0  0  0  0999 V2000
  186.9210  178.4790  140.9160 C   0  0  0  0  0  3  0  0  0  0  0  0
  185.6090  178.7280  141.0030 C   0  0  0  0  0  0  0  0  0  0  0  0
  184.1740  180.1030  139.6500 N   0  0  0  0  0  0  0  0  0  0  0  0
  184.8590  179.0000  139.7490 C   0  0  0  0  0  0  0  0  0  0  0  0
  185.7350  177.9780  137.6150 C   0  0  0  0  0  0  0  0  0  0  0  0
  183.7950  177.0120  138.7050 C   0  0  0  0  0  3  0  0  0  0  0  0
  186.7720  178.9010  137.5740 O   0  0  0  0  0  1  0  0  0  0  0  0
  184.8030  177.9860  138.6710 C   0  0  0  0  0  0  0  0  0  0  0  0
  185.6340  177.0180  136.6030 C   0  0  0  0  0  3  0  0  0  0  0  0
  183.7030  176.0560  137.6930 C   0  0  0  0  0  3  0  0  0  0  0  0
  184.6180  176.0610  136.6390 C   0  0  0  0  0  3  0  0  0  0  0  0
  183.3880  180.3900  138.5540 O   0  0  0  0  0  0  0  0  0  0  0  0
  181.9760  180.3530  138.6660 C   0  0  0  0  0  1  0  0  0  0  0  0
  184.9470  178.6710  142.3250 C   0  0  0  0  0  3  0  0  0  0  0  0
  184.8390  179.7100  143.1450 C   0  0  0  0  0  3  0  0  0  0  0  0
  184.1320  179.5730  144.4500 C   0  0  0  0  0  2  0  0  0  0  0  0
  184.3400  178.1900  145.0510 C   0  0  0  0  0  2  0  0  0  0  0  0
  187.1360  178.3100  147.3530 C   0  0  0  0  0  3  0  0  0  0  0  0
  185.8240  178.5910  147.0120 C   0  0  0  0  0  3  0  0  0  0  0  0
  185.6070  178.1290  145.7660 N   0  0  0  0  0  0  0  0  0  0  0  0
  187.6370  177.6590  146.2360 C   0  0  0  0  0  0  0  0  0  0  0  0
  186.6930  177.5580  145.2830 N   0  0  0  0  0  0  0  0  0  0  0  0
  191.9660  176.9910  148.2500 O   0  0  0  0  0  0  0  0  0  0  0  0
  189.9180  177.2570  147.1880 N   0  0  0  0  0  2  0  0  0  0  0  0
  191.9370  176.2170  146.0130 C   0  0  0  0  0  1  0  0  0  0  0  0
  188.9960  177.1250  146.1000 C   0  0  0  0  0  0  0  0  0  0  0  0
  191.2870  176.8330  147.2030 C   0  0  0  0  0  0  0  0  0  0  0  0
  189.3320  176.5420  145.0330 O   0  0  0  0  0  0  0  0  0  0  0  0
  187.7890  178.1780  142.0930 C   0  0  0  0  0  2  0  0  0  0  0  0
  188.6400  176.9600  141.7890 C   0  0  0  0  0  2  0  0  0  0  0  0
  190.0510  177.3680  141.5230 C   0  0  0  0  0  0  0  0  0  0  0  0
  190.7290  177.8490  142.4160 O   0  0  0  0  0  0  0  0  0  0  0  0
  190.7420  177.1840  139.8810 P   0  0  0  0  0  0  0  0  0  0  0  0
  192.4050  177.4920  139.9220 O   0  0  0  0  0  1  0  0  0  0  0  0
  190.5060  175.7750  139.3880 O   0  0  0  0  0  1  0  0  0  0  0  0
  189.9960  178.2810  138.8320 O   0  0  0  0  0  0  0  0  0  0  0  0
  1  2  2  0  0  0  0
  1 29  1  0  0  0  0
  2 14  1  0  0  0  0
  3  4  2  0  0  0  0
  4  2  1  0  0  0  0
  5  8  1  0  0  0  0
  7  5  1  0  0  0  0
  8  6  2  0  0  0  0
  8  4  1  0  0  0  0
  9 11  1  0  0  0  0
  9  5  2  0  0  0  0
 10  6  1  0  0  0  0
 11 10  2  0  0  0  0
 12 13  1  0  0  0  0
 12  3  1  0  0  0  0
 14 15  2  0  0  0  0
 15 16  1  0  0  0  0
 16 17  1  0  0  0  0
 17 20  1  0  0  0  0
 19 18  2  0  0  0  0
 20 19  1  0  0  0  0
 21 18  1  0  0  0  0
 22 20  1  0  0  0  0
 22 21  2  0  0  0  0
 24 27  1  0  0  0  0
 25 27  1  0  0  0  0
 26 21  1  0  0  0  0
 26 24  1  0  0  0  0
 27 23  2  0  0  0  0
 28 26  2  0  0  0  0
 30 29  1  0  0  0  0
 31 30  1  0  0  0  0
 31 32  2  0  0  0  0
 33 34  1  0  0  0  0
 33 31  1  0  0  0  0
 35 33  1  0  0  0  0
 36 33  2  0  0  0  0
M  END
>  <MODEL>
3

>  <REMARK>
 VINA RESULT:      -7.6      1.572      2.331
  Name = 
  12 active torsions:
  status: ('A' for Active; 'I' for Inactive)
    1  A    between atoms: P_1  and  C_7
    2  A    between atoms: C_2  and  C_5
    3  A    between atoms: C_2  and  C_22
    4  A    between atoms: N_3  and  O_19
    5  A    between atoms: C_4  and  C_30
    6  A    between atoms: C_7  and  C_24
    7  A    between atoms: C_10  and  C_21
    8  A    between atoms: C_10  and  C_30
    9  A    between atoms: C_13  and  C_25
   10  A    between atoms: C_22  and  N_23
   11  A    between atoms: C_24  and  C_26
   12  A    between atoms: C_26  and  C_29
                            x       y       z     vdW  Elec       q    Type
                         _______ _______ _______ _____ _____    ______ ____

>  <TORSDO>
F 12

$$$$
=
 OpenBabel10222419423D

 36 37  0  0  0  0  0  0  0  0999 V2000
  185.5150  178.2490  141.6150 C   0  0  0  0  0  3  0  0  0  0  0  0
  184.4240  178.7220  142.2310 C   0  0  0  0  0  0  0  0  0  0  0  0
  182.0380  179.0050  142.1420 N   0  0  0  0  0  0  0  0  0  0  0  0
  183.1220  178.6420  141.5190 C   0  0  0  0  0  0  0  0  0  0  0  0
  183.2520  178.8390  139.0070 C   0  0  0  0  0  0  0  0  0  0  0  0
  182.7510  176.6930  140.0220 C   0  0  0  0  0  3  0  0  0  0  0  0
  183.5870  180.1830  139.1090 O   0  0  0  0  0  1  0  0  0  0  0  0
  183.0440  178.0580  140.1600 C   0  0  0  0  0  0  0  0  0  0  0  0
  183.1450  178.2560  137.7400 C   0  0  0  0  0  3  0  0  0  0  0  0
  182.6500  176.1180  138.7550 C   0  0  0  0  0  3  0  0  0  0  0  0
  182.8410  176.8990  137.6130 C   0  0  0  0  0  3  0  0  0  0  0  0
  180.7860  178.8840  141.5790 O   0  0  0  0  0  0  0  0  0  0  0  0
  180.1110  180.0330  141.0980 C   0  0  0  0  0  1  0  0  0  0  0  0
  184.5430  179.2540  143.6070 C   0  0  0  0  0  3  0  0  0  0  0  0
  184.4960  178.5010  144.6990 C   0  0  0  0  0  3  0  0  0  0  0  0
  184.6520  179.1160  146.0480 C   0  0  0  0  0  2  0  0  0  0  0  0
  185.2370  178.1250  147.0450 C   0  0  0  0  0  2  0  0  0  0  0  0
  188.8370  177.8810  147.3710 C   0  0  0  0  0  3  0  0  0  0  0  0
  187.5680  177.9920  147.9130 C   0  0  0  0  0  3  0  0  0  0  0  0
  186.6830  178.0460  146.9000 N   0  0  0  0  0  0  0  0  0  0  0  0
  188.6130  177.8660  146.0030 C   0  0  0  0  0  0  0  0  0  0  0  0
  187.2980  177.9670  145.7370 N   0  0  0  0  0  0  0  0  0  0  0  0
  192.0550  175.1360  144.0170 O   0  0  0  0  0  0  0  0  0  0  0  0
  190.4190  176.5300  144.8950 N   0  0  0  0  0  2  0  0  0  0  0  0
  191.9640  177.2710  142.9960 C   0  0  0  0  0  1  0  0  0  0  0  0
  189.6480  177.7360  144.9720 C   0  0  0  0  0  0  0  0  0  0  0  0
  191.4900  176.2600  143.9820 C   0  0  0  0  0  0  0  0  0  0  0  0
  189.8360  178.6780  144.1550 O   0  0  0  0  0  0  0  0  0  0  0  0
  186.8780  178.2570  142.2210 C   0  0  0  0  0  2  0  0  0  0  0  0
  187.8690  178.8160  141.2180 C   0  0  0  0  0  2  0  0  0  0  0  0
  188.6900  177.7150  140.6320 C   0  0  0  0  0  0  0  0  0  0  0  0
  189.1030  176.8140  141.3440 O   0  0  0  0  0  0  0  0  0  0  0  0
  189.1020  177.7330  138.8900 P   0  0  0  0  0  0  0  0  0  0  0  0
  188.9630  179.3060  138.2840 O   0  0  0  0  0  1  0  0  0  0  0  0
  190.5200  177.2470  138.7010 O   0  0  0  0  0  1  0  0  0  0  0  0
  188.0410  176.7160  138.0520 O   0  0  0  0  0  0  0  0  0  0  0  0
  1 29  1  0  0  0  0
  1  2  2  0  0  0  0
  2 14  1  0  0  0  0
  4  3  2  0  0  0  0
  4  2  1  0  0  0  0
  5  7  1  0  0  0  0
  5  8  1  0  0  0  0
  6  8  2  0  0  0  0
  8  4  1  0  0  0  0
  9  5  2  0  0  0  0
 10  6  1  0  0  0  0
 11  9  1  0  0  0  0
 11 10  2  0  0  0  0
 12  3  1  0  0  0  0
 13 12  1  0  0  0  0
 14 15  2  0  0  0  0
 15 16  1  0  0  0  0
 16 17  1  0  0  0  0
 18 19  2  0  0  0  0
 20 17  1  0  0  0  0
 20 19  1  0  0  0  0
 21 18  1  0  0  0  0
 22 21  2  0  0  0  0
 22 20  1  0  0  0  0
 24 26  1  0  0  0  0
 25 27  1  0  0  0  0
 26 21  1  0  0  0  0
 27 23  2  0  0  0  0
 27 24  1  0  0  0  0
 28 26  2  0  0  0  0
 30 29  1  0  0  0  0
 31 30  1  0  0  0  0
 31 32  2  0  0  0  0
 33 31  1  0  0  0  0
 34 33  1  0  0  0  0
 35 33  1  0  0  0  0
 36 33  2  0  0  0  0
M  END
>  <MODEL>
4

>  <REMARK>
 VINA RESULT:      -7.5      1.488      2.219
  Name = 
  12 active torsions:
  status: ('A' for Active; 'I' for Inactive)
    1  A    between atoms: P_1  and  C_7
    2  A    between atoms: C_2  and  C_5
    3  A    between atoms: C_2  and  C_22
    4  A    between atoms: N_3  and  O_19
    5  A    between atoms: C_4  and  C_30
    6  A    between atoms: C_7  and  C_24
    7  A    between atoms: C_10  and  C_21
    8  A    between atoms: C_10  and  C_30
    9  A    between atoms: C_13  and  C_25
   10  A    between atoms: C_22  and  N_23
   11  A    between atoms: C_24  and  C_26
   12  A    between atoms: C_26  and  C_29
                            x       y       z     vdW  Elec       q    Type
                         _______ _______ _______ _____ _____    ______ ____

>  <TORSDO>
F 12

$$$$
=
 OpenBabel10222419423D

 36 37  0  0  0  0  0  0  0  0999 V2000
  190.3320  176.7710  140.3970 C   0  0  0  0  0  3  0  0  0  0  0  0
  189.3650  177.2000  139.5760 C   0  0  0  0  0  0  0  0  0  0  0  0
  190.2990  175.9270  137.7630 N   0  0  0  0  0  0  0  0  0  0  0  0
  189.2910  176.6180  138.2100 C   0  0  0  0  0  0  0  0  0  0  0  0
  188.0550  178.1040  136.5880 C   0  0  0  0  0  0  0  0  0  0  0  0
  187.0960  175.9730  137.2410 C   0  0  0  0  0  3  0  0  0  0  0  0
  189.0880  179.0330  136.6200 O   0  0  0  0  0  1  0  0  0  0  0  0
  188.1350  176.9100  137.3310 C   0  0  0  0  0  0  0  0  0  0  0  0
  186.9360  178.3540  135.7880 C   0  0  0  0  0  3  0  0  0  0  0  0
  185.9830  176.2290  136.4370 C   0  0  0  0  0  3  0  0  0  0  0  0
  185.9000  177.4210  135.7150 C   0  0  0  0  0  3  0  0  0  0  0  0
  190.3410  175.4240  136.4800 O   0  0  0  0  0  0  0  0  0  0  0  0
  191.1650  176.0390  135.5050 C   0  0  0  0  0  1  0  0  0  0  0  0
  188.3810  178.1880  140.0710 C   0  0  0  0  0  3  0  0  0  0  0  0
  187.2050  177.8640  140.5970 C   0  0  0  0  0  3  0  0  0  0  0  0
  186.2840  178.9230  141.0970 C   0  0  0  0  0  2  0  0  0  0  0  0
  184.9760  178.3290  141.5990 C   0  0  0  0  0  2  0  0  0  0  0  0
  183.9440  178.9470  145.0180 C   0  0  0  0  0  3  0  0  0  0  0  0
  183.6840  178.8660  143.6600 C   0  0  0  0  0  3  0  0  0  0  0  0
  184.8300  178.5480  143.0310 N   0  0  0  0  0  0  0  0  0  0  0  0
  185.2950  178.6480  145.1140 C   0  0  0  0  0  0  0  0  0  0  0  0
  185.8150  178.4080  143.8970 N   0  0  0  0  0  0  0  0  0  0  0  0
  188.8180  176.4880  147.5970 O   0  0  0  0  0  0  0  0  0  0  0  0
  187.1060  177.5990  146.4890 N   0  0  0  0  0  2  0  0  0  0  0  0
  187.7250  178.1240  148.9140 C   0  0  0  0  0  1  0  0  0  0  0  0
  186.0640  178.5740  146.3600 C   0  0  0  0  0  0  0  0  0  0  0  0
  187.9180  177.3650  147.6470 C   0  0  0  0  0  0  0  0  0  0  0  0
  185.8120  179.3790  147.2970 O   0  0  0  0  0  0  0  0  0  0  0  0
  190.5110  177.2610  141.7950 C   0  0  0  0  0  2  0  0  0  0  0  0
  190.3160  176.1070  142.7590 C   0  0  0  0  0  2  0  0  0  0  0  0
  191.2780  176.2120  143.8960 C   0  0  0  0  0  0  0  0  0  0  0  0
  192.0420  175.2930  144.1390 O   0  0  0  0  0  0  0  0  0  0  0  0
  191.2890  177.6760  144.9280 P   0  0  0  0  0  0  0  0  0  0  0  0
  189.7360  178.3420  144.9950 O   0  0  0  0  0  1  0  0  0  0  0  0
  191.7360  177.3060  146.3230 O   0  0  0  0  0  1  0  0  0  0  0  0
  192.3570  178.8140  144.2760 O   0  0  0  0  0  0  0  0  0  0  0  0
  1 29  1  0  0  0  0
  2 14  1  0  0  0  0
  2  1  2  0  0  0  0
  3  4  2  0  0  0  0
  4  2  1  0  0  0  0
  5  7  1  0  0  0  0
  5  8  1  0  0  0  0
  6  8  2  0  0  0  0
  8  4  1  0  0  0  0
  9  5  2  0  0  0  0
 10  6  1  0  0  0  0
 11  9  1  0  0  0  0
 11 10  2  0  0  0  0
 12  3  1  0  0  0  0
 13 12  1  0  0  0  0
 14 15  2  0  0  0  0
 15 16  1  0  0  0  0
 16 17  1  0  0  0  0
 17 20  1  0  0  0  0
 18 21  1  0  0  0  0
 19 18  2  0  0  0  0
 20 19  1  0  0  0  0
 20 22  1  0  0  0  0
 21 26  1  0  0  0  0
 22 21  2  0  0  0  0
 23 27  2  0  0  0  0
 24 27  1  0  0  0  0
 26 24  1  0  0  0  0
 26 28  2  0  0  0  0
 27 25  1  0  0  0  0
 29 30  1  0  0  0  0
 30 31  1  0  0  0  0
 31 32  2  0  0  0  0
 31 33  1  0  0  0  0
 33 34  1  0  0  0  0
 33 35  1  0  0  0  0
 36 33  2  0  0  0  0
M  END
>  <MODEL>
5

>  <REMARK>
 VINA RESULT:      -7.4      3.097      5.648
  Name = 
  12 active torsions:
  status: ('A' for Active; 'I' for Inactive)
    1  A    between atoms: P_1  and  C_7
    2  A    between atoms: C_2  and  C_5
    3  A    between atoms: C_2  and  C_22
    4  A    between atoms: N_3  and  O_19
    5  A    between atoms: C_4  and  C_30
    6  A    between atoms: C_7  and  C_24
    7  A    between atoms: C_10  and  C_21
    8  A    between atoms: C_10  and  C_30
    9  A    between atoms: C_13  and  C_25
   10  A    between atoms: C_22  and  N_23
   11  A    between atoms: C_24  and  C_26
   12  A    between atoms: C_26  and  C_29
                            x       y       z     vdW  Elec       q    Type
                         _______ _______ _______ _____ _____    ______ ____

>  <TORSDO>
F 12

$$$$
=
 OpenBabel10222419423D

 36 37  0  0  0  0  0  0  0  0999 V2000
  185.5400  178.9620  144.6310 C   0  0  0  0  0  3  0  0  0  0  0  0
  186.5220  178.2660  144.0450 C   0  0  0  0  0  0  0  0  0  0  0  0
  187.3200  177.4450  146.1590 N   0  0  0  0  0  0  0  0  0  0  0  0
  187.5840  177.6850  144.9080 C   0  0  0  0  0  0  0  0  0  0  0  0
  189.2790  176.3700  143.5790 C   0  0  0  0  0  0  0  0  0  0  0  0
  189.9470  178.4210  144.6890 C   0  0  0  0  0  3  0  0  0  0  0  0
  188.3080  175.4450  143.2170 O   0  0  0  0  0  1  0  0  0  0  0  0
  188.9530  177.4820  144.3800 C   0  0  0  0  0  0  0  0  0  0  0  0
  190.5890  176.2010  143.1200 C   0  0  0  0  0  3  0  0  0  0  0  0
  191.2520  178.2460  144.2240 C   0  0  0  0  0  3  0  0  0  0  0  0
  191.5750  177.1340  143.4450 C   0  0  0  0  0  3  0  0  0  0  0  0
  188.2730  176.9830  147.0420 O   0  0  0  0  0  0  0  0  0  0  0  0
  188.6380  177.7670  148.1640 C   0  0  0  0  0  1  0  0  0  0  0  0
  186.4860  178.0560  142.5810 C   0  0  0  0  0  3  0  0  0  0  0  0
  187.3100  178.6520  141.7270 C   0  0  0  0  0  3  0  0  0  0  0  0
  187.2230  178.3610  140.2670 C   0  0  0  0  0  2  0  0  0  0  0  0
  188.5910  178.4390  139.6040 C   0  0  0  0  0  2  0  0  0  0  0  0
  189.5650  176.0790  137.0330 C   0  0  0  0  0  3  0  0  0  0  0  0
  189.8510  177.1010  137.9230 C   0  0  0  0  0  3  0  0  0  0  0  0
  188.7120  177.4330  138.5590 N   0  0  0  0  0  0  0  0  0  0  0  0
  188.2080  175.8530  137.2130 C   0  0  0  0  0  0  0  0  0  0  0  0
  187.7090  176.6850  138.1450 N   0  0  0  0  0  0  0  0  0  0  0  0
  184.6540  172.6040  137.4390 O   0  0  0  0  0  0  0  0  0  0  0  0
  186.3780  174.1430  137.2200 N   0  0  0  0  0  2  0  0  0  0  0  0
  185.7050  172.5720  135.3180 C   0  0  0  0  0  1  0  0  0  0  0  0
  187.4140  174.8370  136.5140 C   0  0  0  0  0  0  0  0  0  0  0  0
  185.5450  173.0990  136.7020 C   0  0  0  0  0  0  0  0  0  0  0  0
  187.6400  174.5980  135.2970 O   0  0  0  0  0  0  0  0  0  0  0  0
  184.4070  179.5870  143.8860 C   0  0  0  0  0  2  0  0  0  0  0  0
  183.1620  178.7400  144.0670 C   0  0  0  0  0  2  0  0  0  0  0  0
  182.4040  178.6530  142.7840 C   0  0  0  0  0  0  0  0  0  0  0  0
  182.9960  178.4640  141.7350 O   0  0  0  0  0  0  0  0  0  0  0  0
  180.6250  178.8590  142.7780 P   0  0  0  0  0  0  0  0  0  0  0  0
  179.9750  178.1900  141.3670 O   0  0  0  0  0  0  0  0  0  0  0  0
  180.0320  178.1640  143.9810 O   0  0  0  0  0  1  0  0  0  0  0  0
  180.2510  180.5080  142.8370 O   0  0  0  0  0  1  0  0  0  0  0  0
  2  1  2  0  0  0  0
  2  4  1  0  0  0  0
  3 12  1  0  0  0  0
  4  3  2  0  0  0  0
  5  8  1  0  0  0  0
  7  5  1  0  0  0  0
  8  6  2  0  0  0  0
  8  4  1  0  0  0  0
  9 11  1  0  0  0  0
  9  5  2  0  0  0  0
 10  6  1  0  0  0  0
 11 10  2  0  0  0  0
 12 13  1  0  0  0  0
 14  2  1  0  0  0  0
 15 14  2  0  0  0  0
 16 15  1  0  0  0  0
 17 16  1  0  0  0  0
 18 21  1  0  0  0  0
 18 19  2  0  0  0  0
 19 20  1  0  0  0  0
 20 17  1  0  0  0  0
 21 22  2  0  0  0  0
 22 20  1  0  0  0  0
 25 27  1  0  0  0  0
 26 21  1  0  0  0  0
 26 24  1  0  0  0  0
 27 24  1  0  0  0  0
 27 23  2  0  0  0  0
 28 26  2  0  0  0  0
 29 30  1  0  0  0  0
 29  1  1  0  0  0  0
 31 30  1  0  0  0  0
 32 31  2  0  0  0  0
 33 31  1  0  0  0  0
 33 36  1  0  0  0  0
 33 35  1  0  0  0  0
 34 33  2  0  0  0  0
M  END
>  <MODEL>
6

>  <REMARK>
 VINA RESULT:      -7.2      3.562      8.947
  Name = 
  12 active torsions:
  status: ('A' for Active; 'I' for Inactive)
    1  A    between atoms: P_1  and  C_7
    2  A    between atoms: C_2  and  C_5
    3  A    between atoms: C_2  and  C_22
    4  A    between atoms: N_3  and  O_19
    5  A    between atoms: C_4  and  C_30
    6  A    between atoms: C_7  and  C_24
    7  A    between atoms: C_10  and  C_21
    8  A    between atoms: C_10  and  C_30
    9  A    between atoms: C_13  and  C_25
   10  A    between atoms: C_22  and  N_23
   11  A    between atoms: C_24  and  C_26
   12  A    between atoms: C_26  and  C_29
                            x       y       z     vdW  Elec       q    Type
                         _______ _______ _______ _____ _____    ______ ____

>  <TORSDO>
F 12

$$$$
=
 OpenBabel10222419423D

 36 37  0  0  0  0  0  0  0  0999 V2000
  185.5800  178.1710  138.3370 C   0  0  0  0  0  3  0  0  0  0  0  0
  184.5650  178.6620  139.0580 C   0  0  0  0  0  0  0  0  0  0  0  0
  182.9580  177.6760  137.5660 N   0  0  0  0  0  0  0  0  0  0  0  0
  183.1880  178.5430  138.5090 C   0  0  0  0  0  0  0  0  0  0  0  0
  181.2060  179.1150  139.9610 C   0  0  0  0  0  0  0  0  0  0  0  0
  182.0190  180.7300  138.3430 C   0  0  0  0  0  3  0  0  0  0  0  0
  181.3060  177.8920  140.6140 O   0  0  0  0  0  1  0  0  0  0  0  0
  182.1210  179.4700  138.9510 C   0  0  0  0  0  0  0  0  0  0  0  0
  180.1960  180.0080  140.3330 C   0  0  0  0  0  3  0  0  0  0  0  0
  181.0100  181.6160  138.7230 C   0  0  0  0  0  3  0  0  0  0  0  0
  180.0950  181.2550  139.7140 C   0  0  0  0  0  3  0  0  0  0  0  0
  181.7310  177.5630  136.9490 O   0  0  0  0  0  0  0  0  0  0  0  0
  180.9330  176.4120  137.1640 C   0  0  0  0  0  1  0  0  0  0  0  0
  184.8390  179.2510  140.3880 C   0  0  0  0  0  3  0  0  0  0  0  0
  184.6460  178.6110  141.5360 C   0  0  0  0  0  3  0  0  0  0  0  0
  184.9760  179.2700  142.8310 C   0  0  0  0  0  2  0  0  0  0  0  0
  184.4770  178.4500  144.0130 C   0  0  0  0  0  2  0  0  0  0  0  0
  186.5640  178.2960  146.9710 C   0  0  0  0  0  3  0  0  0  0  0  0
  185.3640  178.5720  146.3380 C   0  0  0  0  0  3  0  0  0  0  0  0
  185.5170  178.3230  145.0230 N   0  0  0  0  0  0  0  0  0  0  0  0
  187.3920  177.8720  145.9430 C   0  0  0  0  0  0  0  0  0  0  0  0
  186.7380  177.8950  144.7670 N   0  0  0  0  0  0  0  0  0  0  0  0
  191.5450  176.6990  143.7940 O   0  0  0  0  0  0  0  0  0  0  0  0
  189.5950  177.2470  144.9290 N   0  0  0  0  0  2  0  0  0  0  0  0
  191.6780  176.3850  146.1370 C   0  0  0  0  0  1  0  0  0  0  0  0
  188.7830  177.4320  146.0950 C   0  0  0  0  0  0  0  0  0  0  0  0
  190.9510  176.7820  144.9000 C   0  0  0  0  0  0  0  0  0  0  0  0
  189.2520  177.2380  147.2490 O   0  0  0  0  0  0  0  0  0  0  0  0
  187.0060  178.2130  138.7760 C   0  0  0  0  0  2  0  0  0  0  0  0
  187.7800  177.1180  138.0680 C   0  0  0  0  0  2  0  0  0  0  0  0
  189.2190  177.4970  137.9450 C   0  0  0  0  0  0  0  0  0  0  0  0
  189.5290  178.5630  137.4410 O   0  0  0  0  0  0  0  0  0  0  0  0
  190.4940  176.3710  138.5050 P   0  0  0  0  0  0  0  0  0  0  0  0
  190.1550  174.8050  137.9620 O   0  0  0  0  0  1  0  0  0  0  0  0
  191.8320  176.8120  137.9580 O   0  0  0  0  0  0  0  0  0  0  0  0
  190.5450  176.3780  140.1950 O   0  0  0  0  0  1  0  0  0  0  0  0
  1 29  1  0  0  0  0
  1  2  2  0  0  0  0
  2 14  1  0  0  0  0
  3  4  2  0  0  0  0
  4  8  1  0  0  0  0
  4  2  1  0  0  0  0
  5  9  1  0  0  0  0
  5  7  1  0  0  0  0
  6 10  2  0  0  0  0
  6  8  1  0  0  0  0
  8  5  2  0  0  0  0
 10 11  1  0  0  0  0
 11  9  2  0  0  0  0
 12 13  1  0  0  0  0
 12  3  1  0  0  0  0
 14 15  2  0  0  0  0
 15 16  1  0  0  0  0
 16 17  1  0  0  0  0
 17 20  1  0  0  0  0
 19 18  2  0  0  0  0
 20 19  1  0  0  0  0
 21 26  1  0  0  0  0
 21 18  1  0  0  0  0
 22 20  1  0  0  0  0
 22 21  2  0  0  0  0
 23 27  2  0  0  0  0
 24 26  1  0  0  0  0
 26 28  2  0  0  0  0
 27 24  1  0  0  0  0
 27 25  1  0  0  0  0
 30 29  1  0  0  0  0
 31 30  1  0  0  0  0
 31 33  1  0  0  0  0
 32 31  2  0  0  0  0
 33 36  1  0  0  0  0
 34 33  1  0  0  0  0
 35 33  2  0  0  0  0
M  END
>  <MODEL>
7

>  <REMARK>
 VINA RESULT:      -7.1      1.718      2.741
  Name = 
  12 active torsions:
  status: ('A' for Active; 'I' for Inactive)
    1  A    between atoms: P_1  and  C_7
    2  A    between atoms: C_2  and  C_5
    3  A    between atoms: C_2  and  C_22
    4  A    between atoms: N_3  and  O_19
    5  A    between atoms: C_4  and  C_30
    6  A    between atoms: C_7  and  C_24
    7  A    between atoms: C_10  and  C_21
    8  A    between atoms: C_10  and  C_30
    9  A    between atoms: C_13  and  C_25
   10  A    between atoms: C_22  and  N_23
   11  A    between atoms: C_24  and  C_26
   12  A    between atoms: C_26  and  C_29
                            x       y       z     vdW  Elec       q    Type
                         _______ _______ _______ _____ _____    ______ ____

>  <TORSDO>
F 12

$$$$
=
 OpenBabel10222419423D

 36 37  0  0  0  0  0  0  0  0999 V2000
  185.5630  178.9320  144.4910 C   0  0  0  0  0  3  0  0  0  0  0  0
  186.5590  178.2380  143.9270 C   0  0  0  0  0  0  0  0  0  0  0  0
  187.3200  177.4290  146.0590 N   0  0  0  0  0  0  0  0  0  0  0  0
  187.6060  177.6630  144.8110 C   0  0  0  0  0  0  0  0  0  0  0  0
  189.3370  176.3200  143.5590 C   0  0  0  0  0  0  0  0  0  0  0  0
  189.9610  178.4250  144.5910 C   0  0  0  0  0  3  0  0  0  0  0  0
  188.3840  175.3660  143.2240 O   0  0  0  0  0  1  0  0  0  0  0  0
  188.9850  177.4590  144.3080 C   0  0  0  0  0  0  0  0  0  0  0  0
  190.6550  176.1510  143.1230 C   0  0  0  0  0  3  0  0  0  0  0  0
  191.2740  178.2510  144.1490 C   0  0  0  0  0  3  0  0  0  0  0  0
  191.6230  177.1130  143.4200 C   0  0  0  0  0  3  0  0  0  0  0  0
  188.2590  176.9740  146.9600 O   0  0  0  0  0  0  0  0  0  0  0  0
  188.9390  177.8920  147.7980 C   0  0  0  0  0  1  0  0  0  0  0  0
  186.5520  178.0230  142.4630 C   0  0  0  0  0  3  0  0  0  0  0  0
  187.4130  178.5910  141.6260 C   0  0  0  0  0  3  0  0  0  0  0  0
  187.3530  178.2980  140.1660 C   0  0  0  0  0  2  0  0  0  0  0  0
  188.6940  178.5520  139.4940 C   0  0  0  0  0  2  0  0  0  0  0  0
  189.0850  175.7470  137.2340 C   0  0  0  0  0  3  0  0  0  0  0  0
  188.3330  176.7630  137.7990 C   0  0  0  0  0  3  0  0  0  0  0  0
  189.0990  177.3970  138.7050 N   0  0  0  0  0  0  0  0  0  0  0  0
  190.3140  175.8540  137.8670 C   0  0  0  0  0  0  0  0  0  0  0  0
  190.3030  176.8630  138.7570 N   0  0  0  0  0  0  0  0  0  0  0  0
  195.0550  175.6280  137.0180 O   0  0  0  0  0  0  0  0  0  0  0  0
  192.7680  175.6230  137.4230 N   0  0  0  0  0  2  0  0  0  0  0  0
  194.0630  173.4810  136.8990 C   0  0  0  0  0  1  0  0  0  0  0  0
  191.4850  175.0110  137.6020 C   0  0  0  0  0  0  0  0  0  0  0  0
  193.9970  174.9530  137.1160 C   0  0  0  0  0  0  0  0  0  0  0  0
  191.3530  173.7580  137.5510 O   0  0  0  0  0  0  0  0  0  0  0  0
  184.4430  179.5510  143.7230 C   0  0  0  0  0  2  0  0  0  0  0  0
  183.3340  178.5310  143.5480 C   0  0  0  0  0  2  0  0  0  0  0  0
  182.3710  178.9880  142.5020 C   0  0  0  0  0  0  0  0  0  0  0  0
  181.3380  179.5520  142.8250 O   0  0  0  0  0  0  0  0  0  0  0  0
  182.7120  178.6770  140.7720 P   0  0  0  0  0  0  0  0  0  0  0  0
  183.0220  177.0310  140.5360 O   0  0  0  0  0  1  0  0  0  0  0  0
  181.5180  179.0850  139.9410 O   0  0  0  0  0  0  0  0  0  0  0  0
  184.0650  179.5750  140.2970 O   0  0  0  0  0  1  0  0  0  0  0  0
  2  1  2  0  0  0  0
  2  4  1  0  0  0  0
  3 12  1  0  0  0  0
  4  3  2  0  0  0  0
  5  8  1  0  0  0  0
  7  5  1  0  0  0  0
  8  6  2  0  0  0  0
  8  4  1  0  0  0  0
  9 11  1  0  0  0  0
  9  5  2  0  0  0  0
 10  6  1  0  0  0  0
 11 10  2  0  0  0  0
 12 13  1  0  0  0  0
 14  2  1  0  0  0  0
 15 14  2  0  0  0  0
 16 15  1  0  0  0  0
 17 16  1  0  0  0  0
 18 19  2  0  0  0  0
 18 21  1  0  0  0  0
 19 20  1  0  0  0  0
 20 22  1  0  0  0  0
 20 17  1  0  0  0  0
 21 22  2  0  0  0  0
 23 27  2  0  0  0  0
 24 26  1  0  0  0  0
 25 27  1  0  0  0  0
 26 21  1  0  0  0  0
 27 24  1  0  0  0  0
 28 26  2  0  0  0  0
 29  1  1  0  0  0  0
 30 29  1  0  0  0  0
 31 32  2  0  0  0  0
 31 30  1  0  0  0  0
 33 31  1  0  0  0  0
 34 33  1  0  0  0  0
 35 33  2  0  0  0  0
 36 33  1  0  0  0  0
M  END
>  <MODEL>
8

>  <REMARK>
 VINA RESULT:      -7.1      3.618      8.206
  Name = 
  12 active torsions:
  status: ('A' for Active; 'I' for Inactive)
    1  A    between atoms: P_1  and  C_7
    2  A    between atoms: C_2  and  C_5
    3  A    between atoms: C_2  and  C_22
    4  A    between atoms: N_3  and  O_19
    5  A    between atoms: C_4  and  C_30
    6  A    between atoms: C_7  and  C_24
    7  A    between atoms: C_10  and  C_21
    8  A    between atoms: C_10  and  C_30
    9  A    between atoms: C_13  and  C_25
   10  A    between atoms: C_22  and  N_23
   11  A    between atoms: C_24  and  C_26
   12  A    between atoms: C_26  and  C_29
                            x       y       z     vdW  Elec       q    Type
                         _______ _______ _______ _____ _____    ______ ____

>  <TORSDO>
F 12

$$$$
=
 OpenBabel10222419423D

 36 37  0  0  0  0  0  0  0  0999 V2000
  185.1530  178.9530  144.8960 C   0  0  0  0  0  3  0  0  0  0  0  0
  186.0500  178.2460  144.1980 C   0  0  0  0  0  0  0  0  0  0  0  0
  186.9740  177.2130  146.1630 N   0  0  0  0  0  0  0  0  0  0  0  0
  187.1690  177.6030  144.9370 C   0  0  0  0  0  0  0  0  0  0  0  0
  188.8910  176.4020  143.5380 C   0  0  0  0  0  0  0  0  0  0  0  0
  189.4370  178.5400  144.5430 C   0  0  0  0  0  3  0  0  0  0  0  0
  187.9880  175.3810  143.2660 O   0  0  0  0  0  1  0  0  0  0  0  0
  188.5150  177.5060  144.3260 C   0  0  0  0  0  0  0  0  0  0  0  0
  190.1790  176.3340  142.9990 C   0  0  0  0  0  3  0  0  0  0  0  0
  190.7200  178.4680  143.9990 C   0  0  0  0  0  3  0  0  0  0  0  0
  191.0940  177.3630  143.2310 C   0  0  0  0  0  3  0  0  0  0  0  0
  187.9820  176.6840  146.9410 O   0  0  0  0  0  0  0  0  0  0  0  0
  188.6030  177.4820  147.9330 C   0  0  0  0  0  1  0  0  0  0  0  0
  185.8690  178.0840  142.7380 C   0  0  0  0  0  3  0  0  0  0  0  0
  186.4250  178.8770  141.8300 C   0  0  0  0  0  3  0  0  0  0  0  0
  186.2120  178.6270  140.3760 C   0  0  0  0  0  2  0  0  0  0  0  0
  184.8260  179.0730  139.9340 C   0  0  0  0  0  2  0  0  0  0  0  0
  183.7600  176.5140  137.6000 C   0  0  0  0  0  3  0  0  0  0  0  0
  184.6320  177.5110  138.0030 C   0  0  0  0  0  3  0  0  0  0  0  0
  184.1740  178.0270  139.1590 N   0  0  0  0  0  0  0  0  0  0  0  0
  182.7960  176.4950  138.5960 C   0  0  0  0  0  0  0  0  0  0  0  0
  183.0650  177.4210  139.5340 N   0  0  0  0  0  0  0  0  0  0  0  0
  179.0580  174.8160  141.1370 O   0  0  0  0  0  0  0  0  0  0  0  0
  180.8270  175.5570  139.8270 N   0  0  0  0  0  2  0  0  0  0  0  0
  179.2700  173.6730  139.0740 C   0  0  0  0  0  1  0  0  0  0  0  0
  181.6470  175.5860  138.6530 C   0  0  0  0  0  0  0  0  0  0  0  0
  179.7010  174.7020  140.0610 C   0  0  0  0  0  0  0  0  0  0  0  0
  181.3840  174.8510  137.6620 O   0  0  0  0  0  0  0  0  0  0  0  0
  183.9780  179.6370  144.2810 C   0  0  0  0  0  2  0  0  0  0  0  0
  182.7340  178.7990  144.5110 C   0  0  0  0  0  2  0  0  0  0  0  0
  181.8810  178.7900  143.2860 C   0  0  0  0  0  0  0  0  0  0  0  0
  182.3900  178.9200  142.1850 O   0  0  0  0  0  0  0  0  0  0  0  0
  180.1050  178.6230  143.4320 P   0  0  0  0  0  0  0  0  0  0  0  0
  179.7320  177.4920  144.6330 O   0  0  0  0  0  1  0  0  0  0  0  0
  179.5000  179.9590  143.7990 O   0  0  0  0  0  1  0  0  0  0  0  0
  179.4670  178.1010  141.9550 O   0  0  0  0  0  0  0  0  0  0  0  0
  2  1  2  0  0  0  0
  2  4  1  0  0  0  0
  3 12  1  0  0  0  0
  4  3  2  0  0  0  0
  5  8  1  0  0  0  0
  7  5  1  0  0  0  0
  8  6  2  0  0  0  0
  8  4  1  0  0  0  0
  9 11  1  0  0  0  0
  9  5  2  0  0  0  0
 10  6  1  0  0  0  0
 11 10  2  0  0  0  0
 12 13  1  0  0  0  0
 14  2  1  0  0  0  0
 15 14  2  0  0  0  0
 16 15  1  0  0  0  0
 17 16  1  0  0  0  0
 18 19  2  0  0  0  0
 18 21  1  0  0  0  0
 19 20  1  0  0  0  0
 20 22  1  0  0  0  0
 20 17  1  0  0  0  0
 21 26  1  0  0  0  0
 21 22  2  0  0  0  0
 24 27  1  0  0  0  0
 25 27  1  0  0  0  0
 26 24  1  0  0  0  0
 27 23  2  0  0  0  0
 28 26  2  0  0  0  0
 29 30  1  0  0  0  0
 29  1  1  0  0  0  0
 31 33  1  0  0  0  0
 31 30  1  0  0  0  0
 32 31  2  0  0  0  0
 33 35  1  0  0  0  0
 33 34  1  0  0  0  0
 36 33  2  0  0  0  0
M  END
>  <MODEL>
9

>  <REMARK>
 VINA RESULT:      -7.0      3.175      9.195
  Name = 
  12 active torsions:
  status: ('A' for Active; 'I' for Inactive)
    1  A    between atoms: P_1  and  C_7
    2  A    between atoms: C_2  and  C_5
    3  A    between atoms: C_2  and  C_22
    4  A    between atoms: N_3  and  O_19
    5  A    between atoms: C_4  and  C_30
    6  A    between atoms: C_7  and  C_24
    7  A    between atoms: C_10  and  C_21
    8  A    between atoms: C_10  and  C_30
    9  A    between atoms: C_13  and  C_25
   10  A    between atoms: C_22  and  N_23
   11  A    between atoms: C_24  and  C_26
   12  A    between atoms: C_26  and  C_29
                            x       y       z     vdW  Elec       q    Type
                         _______ _______ _______ _____ _____    ______ ____

>  <TORSDO>
F 12

$$$$
