=
 OpenBabel10222417163D

 56 63  0  0  1  0  0  0  0  0999 V2000
  184.5230  178.3510  140.4780 C   0  0  0  0  0  0  0  0  0  0  0  0
  183.1810  177.9180  140.9930 C   0  0  0  0  0  2  0  0  0  0  0  0
  184.9520  178.0280  139.2470 C   0  0  0  0  0  3  0  0  0  0  0  0
  181.7740  177.7560  138.9130 C   0  0  1  0  0  3  0  0  0  0  0  0
  182.8690  177.9640  137.8770 C   0  0  0  0  0  2  0  0  0  0  0  0
  182.0530  178.5490  140.1880 C   0  0  0  0  0  2  0  0  0  0  0  0
  184.1410  177.2160  138.2800 C   0  0  1  0  0  3  0  0  0  0  0  0
  186.9480  175.5850  135.4080 O   0  0  0  0  0  0  0  0  0  0  0  0
  185.7720  175.0490  135.9510 C   0  0  2  0  0  3  0  0  0  0  0  0
  185.5690  175.5660  137.2390 O   0  0  0  0  0  0  0  0  0  0  0  0
  186.5550  177.9750  135.3820 C   0  0  0  0  0  2  0  0  0  0  0  0
  186.0860  177.8850  136.8400 C   0  0  0  0  0  2  0  0  0  0  0  0
  186.5150  176.6510  134.6110 C   0  0  0  0  0  2  0  0  0  0  0  0
  184.9920  176.8370  137.0680 C   0  0  2  0  0  3  0  0  0  0  0  0
  184.5430  172.9320  135.8260 C   0  0  2  0  0  3  0  0  0  0  0  0
  185.4860  172.9820  134.7880 O   0  0  0  0  0  0  0  0  0  0  0  0
  185.8780  173.5370  136.0200 C   0  0  1  0  0  3  0  0  0  0  0  0
  184.5230  171.5380  136.4160 C   0  0  0  0  0  2  0  0  0  0  0  0
  183.1040  171.0000  136.4240 C   0  0  0  0  0  2  0  0  0  0  0  0
  182.1280  172.0740  135.9690 C   0  0  0  0  0  2  0  0  0  0  0  0
  180.7580  171.6660  136.2330 N   0  0  0  0  0  2  0  0  0  0  0  0
  180.4960  171.9190  137.6390 C   0  0  0  0  0  1  0  0  0  0  0  0
  180.5300  178.1640  138.3620 O   0  0  0  0  0  0  0  0  0  0  0  0
  180.8290  179.8710  136.8160 N   0  0  0  0  0  0  0  0  0  0  0  0
  180.8540  182.2500  138.2940 O   0  0  0  0  0  0  0  0  0  0  0  0
  180.1650  182.2900  137.0720 C   0  0  2  0  0  3  0  0  0  0  0  0
  179.5330  180.3330  138.7260 O   0  0  0  0  0  0  0  0  0  0  0  0
  179.6860  180.9960  135.1150 O   0  0  0  0  0  1  0  0  0  0  0  0
  180.0500  181.5660  139.2300 C   0  0  2  0  0  3  0  0  0  0  0  0
  180.6180  181.1580  136.1420 C   0  0  2  0  0  3  0  0  0  0  0  0
  180.3080  179.4740  137.9410 C   0  0  0  0  0  0  0  0  0  0  0  0
  178.9310  182.4450  139.7660 C   0  0  0  0  0  1  0  0  0  0  0  0
  180.3100  183.6650  136.4180 C   0  0  0  0  0  2  0  0  0  0  0  0
  180.1590  185.4020  138.1670 F   0  0  0  0  0  0  0  0  0  0  0  0
  182.1460  184.8540  137.3130 O   0  0  0  0  0  0  0  0  0  0  0  0
  180.9390  184.6720  137.3300 C   0  0  0  0  0  0  0  0  0  0  0  0
  185.3900  179.1770  141.3720 C   0  0  0  0  0  2  0  0  0  0  0  0
  188.2720  176.7450  143.5150 C   0  0  2  0  0  3  0  0  0  0  0  0
  187.6870  175.5310  143.2080 F   0  0  0  0  0  0  0  0  0  0  0  0
  186.3410  178.3600  143.6790 C   0  0  0  0  0  0  0  0  0  0  0  0
  187.7740  178.1800  141.6180 C   0  0  0  0  0  0  0  0  0  0  0  0
  184.3370  179.9500  143.9000 C   0  0  0  0  0  1  0  0  0  0  0  0
  187.3160  177.5710  144.3350 C   0  0  0  0  0  0  0  0  0  0  0  0
  188.3060  176.7570  146.3560 F   0  0  0  0  0  0  0  0  0  0  0  0
  185.4980  179.0400  145.8630 C   0  0  0  0  0  3  0  0  0  0  0  0
  188.6230  177.4480  142.2780 N   0  0  0  0  0  0  0  0  0  0  0  0
  187.3730  177.5210  145.7340 C   0  0  0  0  0  0  0  0  0  0  0  0
  186.5200  178.2210  147.8480 F   0  0  0  0  0  0  0  0  0  0  0  0
  185.4180  179.0960  144.4700 C   0  0  0  0  0  0  0  0  0  0  0  0
  186.4680  178.2610  146.4940 C   0  0  0  0  0  0  0  0  0  0  0  0
  186.3530  178.2930  142.1570 C   0  0  2  0  0  3  0  0  0  0  0  0
  188.2250  178.8100  140.4510 O   0  0  0  0  0  0  0  0  0  0  0  0
  189.3720  178.4080  139.7210 C   0  0  2  0  0  3  0  0  0  0  0  0
  189.7130  177.6190  137.4130 C   0  0  0  0  0  2  0  0  0  0  0  0
  189.1960  178.7660  138.2600 C   0  0  1  0  0  3  0  0  0  0  0  0
  188.9800  177.3470  138.7110 C   0  0  2  0  0  3  0  0  0  0  0  0
  1  2  1  0  0  0  0
  1 37  1  0  0  0  0
  3  1  2  0  0  0  0
  4 23  1  6  0  0  0
  4  6  1  0  0  0  0
  5  4  1  0  0  0  0
  6  2  1  0  0  0  0
  7  5  1  6  0  0  0
  7  3  1  0  0  0  0
  9  8  1  1  0  0  0
  9 17  1  0  0  0  0
  9 10  1  0  0  0  0
 11 12  1  0  0  0  0
 13 11  1  0  0  0  0
 13  8  1  0  0  0  0
 14 12  1  1  0  0  0
 14 10  1  0  0  0  0
 14  7  1  0  0  0  0
 15 17  1  0  0  0  0
 15 18  1  1  0  0  0
 16 15  1  0  0  0  0
 17 16  1  6  0  0  0
 18 19  1  0  0  0  0
 20 21  1  0  0  0  0
 20 19  1  0  0  0  0
 21 22  1  0  0  0  0
 24 31  2  0  0  0  0
 25 29  1  0  0  0  0
 26 33  1  6  0  0  0
 26 25  1  0  0  0  0
 27 29  1  0  0  0  0
 29 32  1  6  0  0  0
 30 28  1  6  0  0  0
 30 24  1  0  0  0  0
 30 26  1  0  0  0  0
 31 23  1  0  0  0  0
 31 27  1  0  0  0  0
 33 36  1  0  0  0  0
 35 36  2  0  0  0  0
 36 34  1  0  0  0  0
 38 39  1  6  0  0  0
 38 43  1  0  0  0  0
 40 43  2  0  0  0  0
 40 49  1  0  0  0  0
 41 51  1  0  0  0  0
 41 46  2  0  0  0  0
 42 49  1  0  0  0  0
 43 47  1  0  0  0  0
 45 50  1  0  0  0  0
 46 38  1  0  0  0  0
 47 44  1  0  0  0  0
 47 50  2  0  0  0  0
 49 45  2  0  0  0  0
 50 48  1  0  0  0  0
 51 37  1  6  0  0  0
 51 40  1  0  0  0  0
 52 41  1  0  0  0  0
 53 52  1  1  0  0  0
 55 54  1  6  0  0  0
 55 56  1  0  0  0  0
 55 53  1  0  0  0  0
 56 54  1  6  0  0  0
 56 53  1  0  0  0  0
M  END
>  <MODEL>
1

>  <REMARK>
 VINA RESULT:      -8.8      0.000      0.000
  Name = 
  14 active torsions:
  status: ('A' for Active; 'I' for Inactive)
    1  A    between atoms: O_1  and  C_37
    2  A    between atoms: O_1  and  C_52
    3  A    between atoms: C_3  and  C_53
    4  A    between atoms: C_5  and  C_13
    5  A    between atoms: C_7  and  N_24
    6  A    between atoms: C_7  and  C_49
    7  A    between atoms: C_8  and  O_22
    8  A    between atoms: C_10  and  C_31
    9  A    between atoms: C_13  and  C_49
   10  A    between atoms: C_16  and  C_55
   11  A    between atoms: C_19  and  O_22
   12  A    between atoms: C_31  and  C_34
   13  A    between atoms: C_50  and  C_53
   14  A    between atoms: C_51  and  C_56
                            x       y       z     vdW  Elec       q    Type
                         _______ _______ _______ _____ _____    ______ ____

>  <TORSDO>
F 14

$$$$
=
 OpenBabel10222417163D

 56 63  0  0  1  0  0  0  0  0999 V2000
  182.1320  178.0030  139.4310 C   0  0  0  0  0  0  0  0  0  0  0  0
  182.8850  177.2760  138.3560 C   0  0  0  0  0  2  0  0  0  0  0  0
  182.7180  178.3850  140.5780 C   0  0  0  0  0  3  0  0  0  0  0  0
  185.2470  178.1000  138.6260 C   0  0  1  0  0  3  0  0  0  0  0  0
  185.0710  178.8840  139.9190 C   0  0  0  0  0  2  0  0  0  0  0  0
  183.9860  178.1480  137.7670 C   0  0  0  0  0  2  0  0  0  0  0  0
  184.1630  178.1260  140.8890 C   0  0  1  0  0  3  0  0  0  0  0  0
  185.0830  178.2510  145.1230 O   0  0  0  0  0  0  0  0  0  0  0  0
  185.9060  178.0360  144.0080 C   0  0  2  0  0  3  0  0  0  0  0  0
  185.1630  177.4390  142.9800 O   0  0  0  0  0  0  0  0  0  0  0  0
  183.3320  179.7060  144.2970 C   0  0  0  0  0  2  0  0  0  0  0  0
  183.1540  178.7660  143.0970 C   0  0  0  0  0  2  0  0  0  0  0  0
  184.6810  179.5860  145.0140 C   0  0  0  0  0  2  0  0  0  0  0  0
  184.4590  178.4780  142.3460 C   0  0  2  0  0  3  0  0  0  0  0  0
  188.3450  177.8090  144.0890 C   0  0  2  0  0  3  0  0  0  0  0  0
  187.8310  177.7520  145.3940 O   0  0  0  0  0  0  0  0  0  0  0  0
  187.0650  177.1340  144.3890 C   0  0  1  0  0  3  0  0  0  0  0  0
  189.4440  176.7780  143.9400 C   0  0  0  0  0  2  0  0  0  0  0  0
  190.7980  177.4340  144.1420 C   0  0  0  0  0  2  0  0  0  0  0  0
  191.7360  176.4950  144.8860 C   0  0  0  0  0  2  0  0  0  0  0  0
  191.8870  176.9140  146.2690 N   0  0  0  0  0  2  0  0  0  0  0  0
  191.9550  175.7110  147.0800 C   0  0  0  0  0  1  0  0  0  0  0  0
  186.3390  178.6430  137.8980 O   0  0  0  0  0  0  0  0  0  0  0  0
  188.6030  178.5170  138.4000 N   0  0  0  0  0  0  0  0  0  0  0  0
  189.8020  177.2360  136.2160 O   0  0  0  0  0  0  0  0  0  0  0  0
  190.2740  176.8650  137.4840 C   0  0  2  0  0  3  0  0  0  0  0  0
  187.6620  176.7790  137.1190 O   0  0  0  0  0  0  0  0  0  0  0  0
  190.0860  177.3900  139.8120 O   0  0  0  0  0  1  0  0  0  0  0  0
  188.5510  176.6170  136.0130 C   0  0  2  0  0  3  0  0  0  0  0  0
  189.9430  177.9320  138.5340 C   0  0  2  0  0  3  0  0  0  0  0  0
  187.5660  177.9870  137.8170 C   0  0  0  0  0  0  0  0  0  0  0  0
  188.6980  175.1470  135.6470 C   0  0  0  0  0  1  0  0  0  0  0  0
  191.7710  176.5540  137.4310 C   0  0  0  0  0  2  0  0  0  0  0  0
  193.3390  174.6510  137.5550 F   0  0  0  0  0  0  0  0  0  0  0  0
  191.1700  174.3340  137.9710 O   0  0  0  0  0  0  0  0  0  0  0  0
  192.0670  175.1080  137.6780 C   0  0  0  0  0  0  0  0  0  0  0  0
  180.6890  178.3150  139.1960 C   0  0  0  0  0  2  0  0  0  0  0  0
  179.9340  179.6090  135.1260 C   0  0  2  0  0  3  0  0  0  0  0  0
  181.2540  179.5560  134.7150 F   0  0  0  0  0  0  0  0  0  0  0  0
  180.0500  180.2660  137.5580 C   0  0  0  0  0  0  0  0  0  0  0  0
  179.7350  177.8800  136.8220 C   0  0  0  0  0  0  0  0  0  0  0  0
  180.2180  181.0000  140.0140 C   0  0  0  0  0  1  0  0  0  0  0  0
  179.7890  180.6370  136.2180 C   0  0  0  0  0  0  0  0  0  0  0  0
  179.1930  182.3030  134.6070 F   0  0  0  0  0  0  0  0  0  0  0  0
  179.5900  182.5640  138.2280 C   0  0  0  0  0  3  0  0  0  0  0  0
  179.5160  178.2900  135.6060 N   0  0  0  0  0  0  0  0  0  0  0  0
  179.4360  181.9530  135.8960 C   0  0  0  0  0  0  0  0  0  0  0  0
  178.9860  184.1870  136.5980 F   0  0  0  0  0  0  0  0  0  0  0  0
  179.9530  181.2590  138.5700 C   0  0  0  0  0  0  0  0  0  0  0  0
  179.3310  182.9120  136.9030 C   0  0  0  0  0  0  0  0  0  0  0  0
  180.4700  178.8160  137.7730 C   0  0  2  0  0  3  0  0  0  0  0  0
  179.2840  176.6000  137.1700 O   0  0  0  0  0  0  0  0  0  0  0  0
  179.7080  175.4060  136.5350 C   0  0  2  0  0  3  0  0  0  0  0  0
  180.5310  173.2450  137.3810 C   0  0  0  0  0  2  0  0  0  0  0  0
  179.3670  174.2170  137.4100 C   0  0  1  0  0  3  0  0  0  0  0  0
  180.7780  174.7400  137.3780 C   0  0  2  0  0  3  0  0  0  0  0  0
  1  3  2  0  0  0  0
  2  1  1  0  0  0  0
  3  7  1  0  0  0  0
  4 23  1  6  0  0  0
  4  5  1  0  0  0  0
  6  2  1  0  0  0  0
  6  4  1  0  0  0  0
  7  5  1  6  0  0  0
  7 14  1  0  0  0  0
  9 10  1  6  0  0  0
  9 17  1  0  0  0  0
  9  8  1  0  0  0  0
 11 13  1  0  0  0  0
 12 11  1  0  0  0  0
 13  8  1  0  0  0  0
 14 10  1  0  0  0  0
 14 12  1  1  0  0  0
 15 18  1  1  0  0  0
 15 17  1  0  0  0  0
 15 16  1  0  0  0  0
 17 16  1  1  0  0  0
 18 19  1  0  0  0  0
 19 20  1  0  0  0  0
 20 21  1  0  0  0  0
 21 22  1  0  0  0  0
 24 30  1  0  0  0  0
 25 26  1  0  0  0  0
 26 33  1  6  0  0  0
 26 30  1  0  0  0  0
 27 31  1  0  0  0  0
 29 32  1  1  0  0  0
 29 25  1  0  0  0  0
 29 27  1  0  0  0  0
 30 28  1  1  0  0  0
 31 23  1  0  0  0  0
 31 24  2  0  0  0  0
 33 36  1  0  0  0  0
 34 36  1  0  0  0  0
 36 35  2  0  0  0  0
 37  1  1  0  0  0  0
 38 39  1  1  0  0  0
 38 46  1  0  0  0  0
 38 43  1  0  0  0  0
 40 51  1  0  0  0  0
 40 49  1  0  0  0  0
 41 52  1  0  0  0  0
 41 51  1  0  0  0  0
 43 40  2  0  0  0  0
 44 47  1  0  0  0  0
 45 49  2  0  0  0  0
 46 41  2  0  0  0  0
 47 43  1  0  0  0  0
 47 50  2  0  0  0  0
 48 50  1  0  0  0  0
 49 42  1  0  0  0  0
 50 45  1  0  0  0  0
 51 37  1  1  0  0  0
 53 52  1  1  0  0  0
 53 56  1  0  0  0  0
 53 55  1  0  0  0  0
 55 54  1  6  0  0  0
 56 54  1  6  0  0  0
 56 55  1  0  0  0  0
M  END
>  <MODEL>
2

>  <REMARK>
 VINA RESULT:      -8.0      3.625     10.385
  Name = 
  14 active torsions:
  status: ('A' for Active; 'I' for Inactive)
    1  A    between atoms: O_1  and  C_37
    2  A    between atoms: O_1  and  C_52
    3  A    between atoms: C_3  and  C_53
    4  A    between atoms: C_5  and  C_13
    5  A    between atoms: C_7  and  N_24
    6  A    between atoms: C_7  and  C_49
    7  A    between atoms: C_8  and  O_22
    8  A    between atoms: C_10  and  C_31
    9  A    between atoms: C_13  and  C_49
   10  A    between atoms: C_16  and  C_55
   11  A    between atoms: C_19  and  O_22
   12  A    between atoms: C_31  and  C_34
   13  A    between atoms: C_50  and  C_53
   14  A    between atoms: C_51  and  C_56
                            x       y       z     vdW  Elec       q    Type
                         _______ _______ _______ _____ _____    ______ ____

>  <TORSDO>
F 14

$$$$
=
 OpenBabel10222417163D

 56 63  0  0  1  0  0  0  0  0999 V2000
  184.6670  178.3510  140.4160 C   0  0  0  0  0  0  0  0  0  0  0  0
  183.3320  177.8180  140.8490 C   0  0  0  0  0  2  0  0  0  0  0  0
  185.1750  178.0990  139.1990 C   0  0  0  0  0  3  0  0  0  0  0  0
  182.0400  177.6430  138.6950 C   0  0  1  0  0  3  0  0  0  0  0  0
  183.1690  177.9560  137.7240 C   0  0  0  0  0  2  0  0  0  0  0  0
  182.2060  178.4060  140.0080 C   0  0  0  0  0  2  0  0  0  0  0  0
  184.4650  177.2740  138.1660 C   0  0  1  0  0  3  0  0  0  0  0  0
  187.5260  175.9490  135.3980 O   0  0  0  0  0  0  0  0  0  0  0  0
  186.3840  175.2990  135.8870 C   0  0  2  0  0  3  0  0  0  0  0  0
  186.0820  175.7770  137.1700 O   0  0  0  0  0  0  0  0  0  0  0  0
  186.9120  178.2920  135.3780 C   0  0  0  0  0  2  0  0  0  0  0  0
  186.3950  178.1400  136.8150 C   0  0  0  0  0  2  0  0  0  0  0  0
  187.0280  176.9800  134.5940 C   0  0  0  0  0  2  0  0  0  0  0  0
  185.3960  176.9910  136.9870 C   0  0  2  0  0  3  0  0  0  0  0  0
  188.0630  173.5390  136.1860 C   0  0  2  0  0  3  0  0  0  0  0  0
  187.1170  173.4560  137.2200 O   0  0  0  0  0  0  0  0  0  0  0  0
  186.6280  173.8020  135.9460 C   0  0  1  0  0  3  0  0  0  0  0  0
  188.4110  172.1420  135.7160 C   0  0  0  0  0  2  0  0  0  0  0  0
  189.7880  172.1400  135.0770 C   0  0  0  0  0  2  0  0  0  0  0  0
  190.6830  173.1730  135.7440 C   0  0  0  0  0  2  0  0  0  0  0  0
  192.0270  173.1190  135.1920 N   0  0  0  0  0  2  0  0  0  0  0  0
  192.5140  171.7630  135.3760 C   0  0  0  0  0  1  0  0  0  0  0  0
  180.8010  177.9930  138.0960 O   0  0  0  0  0  0  0  0  0  0  0  0
  181.0400  179.5150  136.3580 N   0  0  0  0  0  0  0  0  0  0  0  0
  181.2070  182.0380  137.5640 O   0  0  0  0  0  0  0  0  0  0  0  0
  180.4450  181.9650  136.3880 C   0  0  2  0  0  3  0  0  0  0  0  0
  179.8750  180.2160  138.2800 O   0  0  0  0  0  0  0  0  0  0  0  0
  179.8180  180.4820  134.6160 O   0  0  0  0  0  1  0  0  0  0  0  0
  180.4480  181.4810  138.6150 C   0  0  2  0  0  3  0  0  0  0  0  0
  180.8140  180.7270  135.5620 C   0  0  2  0  0  3  0  0  0  0  0  0
  180.5820  179.2560  137.5490 C   0  0  0  0  0  0  0  0  0  0  0  0
  179.3830  182.4430  139.1170 C   0  0  0  0  0  1  0  0  0  0  0  0
  180.5780  183.2570  135.5800 C   0  0  0  0  0  2  0  0  0  0  0  0
  181.8070  184.9150  136.9370 F   0  0  0  0  0  0  0  0  0  0  0  0
  179.5900  185.0660  136.7350 O   0  0  0  0  0  0  0  0  0  0  0  0
  180.6180  184.4760  136.4490 C   0  0  0  0  0  0  0  0  0  0  0  0
  185.4360  179.1960  141.3800 C   0  0  0  0  0  2  0  0  0  0  0  0
  188.3110  176.8610  143.6370 C   0  0  2  0  0  3  0  0  0  0  0  0
  187.8210  175.6260  143.2520 F   0  0  0  0  0  0  0  0  0  0  0  0
  186.2800  178.3540  143.7200 C   0  0  0  0  0  0  0  0  0  0  0  0
  187.8540  178.3310  141.7560 C   0  0  0  0  0  0  0  0  0  0  0  0
  184.1730  179.8170  143.8530 C   0  0  0  0  0  1  0  0  0  0  0  0
  187.2540  177.6000  144.4160 C   0  0  0  0  0  0  0  0  0  0  0  0
  188.1560  176.7740  146.4730 F   0  0  0  0  0  0  0  0  0  0  0  0
  185.2550  178.9070  145.8620 C   0  0  0  0  0  3  0  0  0  0  0  0
  188.7000  177.6260  142.4500 N   0  0  0  0  0  0  0  0  0  0  0  0
  187.2210  177.5040  145.8130 C   0  0  0  0  0  0  0  0  0  0  0  0
  186.1900  178.0790  147.8840 F   0  0  0  0  0  0  0  0  0  0  0  0
  185.2640  179.0080  144.4680 C   0  0  0  0  0  0  0  0  0  0  0  0
  186.2250  178.1640  146.5320 C   0  0  0  0  0  0  0  0  0  0  0  0
  186.3970  178.3420  142.2000 C   0  0  2  0  0  3  0  0  0  0  0  0
  188.3430  179.0270  140.6430 O   0  0  0  0  0  0  0  0  0  0  0  0
  188.4520  178.4740  139.3420 C   0  0  2  0  0  3  0  0  0  0  0  0
  189.8260  176.6690  138.3850 C   0  0  0  0  0  2  0  0  0  0  0  0
  188.7920  177.0010  139.4430 C   0  0  1  0  0  3  0  0  0  0  0  0
  189.8720  177.9960  139.1150 C   0  0  2  0  0  3  0  0  0  0  0  0
  1  2  1  0  0  0  0
  1 37  1  0  0  0  0
  3  1  2  0  0  0  0
  4 23  1  6  0  0  0
  4  6  1  0  0  0  0
  5  4  1  0  0  0  0
  6  2  1  0  0  0  0
  7  5  1  6  0  0  0
  7  3  1  0  0  0  0
  9  8  1  1  0  0  0
  9 17  1  0  0  0  0
  9 10  1  0  0  0  0
 11 12  1  0  0  0  0
 13 11  1  0  0  0  0
 13  8  1  0  0  0  0
 14 12  1  1  0  0  0
 14 10  1  0  0  0  0
 14  7  1  0  0  0  0
 15 18  1  6  0  0  0
 15 16  1  0  0  0  0
 17 15  1  0  0  0  0
 17 16  1  1  0  0  0
 19 18  1  0  0  0  0
 19 20  1  0  0  0  0
 21 22  1  0  0  0  0
 21 20  1  0  0  0  0
 24 31  2  0  0  0  0
 25 29  1  0  0  0  0
 26 33  1  6  0  0  0
 26 25  1  0  0  0  0
 27 29  1  0  0  0  0
 29 32  1  6  0  0  0
 30 28  1  6  0  0  0
 30 24  1  0  0  0  0
 30 26  1  0  0  0  0
 31 23  1  0  0  0  0
 31 27  1  0  0  0  0
 33 36  1  0  0  0  0
 36 35  2  0  0  0  0
 36 34  1  0  0  0  0
 38 39  1  6  0  0  0
 38 43  1  0  0  0  0
 40 43  2  0  0  0  0
 40 49  1  0  0  0  0
 41 51  1  0  0  0  0
 41 46  2  0  0  0  0
 42 49  1  0  0  0  0
 43 47  1  0  0  0  0
 45 50  1  0  0  0  0
 46 38  1  0  0  0  0
 47 44  1  0  0  0  0
 47 50  2  0  0  0  0
 49 45  2  0  0  0  0
 50 48  1  0  0  0  0
 51 37  1  6  0  0  0
 51 40  1  0  0  0  0
 52 41  1  0  0  0  0
 53 55  1  0  0  0  0
 53 52  1  1  0  0  0
 55 54  1  6  0  0  0
 56 54  1  6  0  0  0
 56 53  1  0  0  0  0
 56 55  1  0  0  0  0
M  END
>  <MODEL>
3

>  <REMARK>
 VINA RESULT:      -7.7      1.955      2.899
  Name = 
  14 active torsions:
  status: ('A' for Active; 'I' for Inactive)
    1  A    between atoms: O_1  and  C_37
    2  A    between atoms: O_1  and  C_52
    3  A    between atoms: C_3  and  C_53
    4  A    between atoms: C_5  and  C_13
    5  A    between atoms: C_7  and  N_24
    6  A    between atoms: C_7  and  C_49
    7  A    between atoms: C_8  and  O_22
    8  A    between atoms: C_10  and  C_31
    9  A    between atoms: C_13  and  C_49
   10  A    between atoms: C_16  and  C_55
   11  A    between atoms: C_19  and  O_22
   12  A    between atoms: C_31  and  C_34
   13  A    between atoms: C_50  and  C_53
   14  A    between atoms: C_51  and  C_56
                            x       y       z     vdW  Elec       q    Type
                         _______ _______ _______ _____ _____    ______ ____

>  <TORSDO>
F 14

$$$$
=
 OpenBabel10222417163D

 56 63  0  0  1  0  0  0  0  0999 V2000
  183.7140  178.1440  139.7940 C   0  0  0  0  0  0  0  0  0  0  0  0
  184.6760  177.4660  138.8620 C   0  0  0  0  0  2  0  0  0  0  0  0
  184.0390  178.4380  141.0640 C   0  0  0  0  0  3  0  0  0  0  0  0
  186.9310  178.2130  139.6950 C   0  0  1  0  0  3  0  0  0  0  0  0
  186.4840  178.9180  140.9680 C   0  0  0  0  0  2  0  0  0  0  0  0
  185.8880  178.3460  138.5870 C   0  0  0  0  0  2  0  0  0  0  0  0
  185.3780  178.1230  141.6640 C   0  0  1  0  0  3  0  0  0  0  0  0
  185.4850  177.9760  145.9950 O   0  0  0  0  0  0  0  0  0  0  0  0
  186.5190  177.9680  145.0480 C   0  0  2  0  0  3  0  0  0  0  0  0
  186.0660  177.3790  143.8590 O   0  0  0  0  0  0  0  0  0  0  0  0
  183.7290  179.2720  144.9450 C   0  0  0  0  0  2  0  0  0  0  0  0
  183.9050  178.4290  143.6740 C   0  0  0  0  0  2  0  0  0  0  0  0
  184.9280  179.2560  145.8990 C   0  0  0  0  0  2  0  0  0  0  0  0
  185.3520  178.3760  143.1710 C   0  0  2  0  0  3  0  0  0  0  0  0
  188.8640  178.0860  145.7520 C   0  0  2  0  0  3  0  0  0  0  0  0
  188.0720  177.6950  146.8430 O   0  0  0  0  0  0  0  0  0  0  0  0
  187.7040  177.1860  145.5840 C   0  0  1  0  0  3  0  0  0  0  0  0
  190.1440  177.2770  145.7490 C   0  0  0  0  0  2  0  0  0  0  0  0
  190.8520  177.4350  144.4160 C   0  0  0  0  0  2  0  0  0  0  0  0
  189.9480  178.1410  143.4160 C   0  0  0  0  0  2  0  0  0  0  0  0
  189.3430  177.1810  142.5080 N   0  0  0  0  0  2  0  0  0  0  0  0
  189.9970  175.9040  142.7310 C   0  0  0  0  0  1  0  0  0  0  0  0
  188.1610  178.7730  139.2600 O   0  0  0  0  0  0  0  0  0  0  0  0
  188.9090  177.1130  137.8190 N   0  0  0  0  0  0  0  0  0  0  0  0
  191.0110  175.8280  139.1530 O   0  0  0  0  0  0  0  0  0  0  0  0
  191.1940  176.0480  137.7800 C   0  0  2  0  0  3  0  0  0  0  0  0
  190.4900  178.1370  139.2310 O   0  0  0  0  0  0  0  0  0  0  0  0
  190.0820  176.8460  135.8150 O   0  0  0  0  0  1  0  0  0  0  0  0
  191.2060  177.0530  139.8250 C   0  0  2  0  0  3  0  0  0  0  0  0
  189.8550  176.2780  137.0690 C   0  0  2  0  0  3  0  0  0  0  0  0
  189.1870  177.9820  138.7470 C   0  0  0  0  0  0  0  0  0  0  0  0
  192.6820  177.3920  139.9670 C   0  0  0  0  0  1  0  0  0  0  0  0
  191.9890  174.9010  137.1540 C   0  0  0  0  0  2  0  0  0  0  0  0
  194.2710  174.3360  136.3960 F   0  0  0  0  0  0  0  0  0  0  0  0
  193.8240  176.3910  137.1420 O   0  0  0  0  0  0  0  0  0  0  0  0
  193.4180  175.2670  136.8930 C   0  0  0  0  0  0  0  0  0  0  0  0
  182.3610  178.5060  139.2730 C   0  0  0  0  0  2  0  0  0  0  0  0
  179.5880  175.1740  139.4070 C   0  0  2  0  0  3  0  0  0  0  0  0
  180.4400  174.3100  140.0700 F   0  0  0  0  0  0  0  0  0  0  0  0
  181.1070  176.5950  137.9810 C   0  0  0  0  0  0  0  0  0  0  0  0
  180.2060  177.3890  140.1920 C   0  0  0  0  0  0  0  0  0  0  0  0
  182.6890  177.9710  136.4970 C   0  0  0  0  0  1  0  0  0  0  0  0
  180.1780  175.5310  138.0680 C   0  0  0  0  0  0  0  0  0  0  0  0
  178.9470  173.7630  137.0250 F   0  0  0  0  0  0  0  0  0  0  0  0
  181.3240  176.1390  135.5950 C   0  0  0  0  0  3  0  0  0  0  0  0
  179.3850  176.3790  140.2140 N   0  0  0  0  0  0  0  0  0  0  0  0
  179.8340  174.7860  136.9320 C   0  0  0  0  0  0  0  0  0  0  0  0
  180.0720  174.3840  134.5940 F   0  0  0  0  0  0  0  0  0  0  0  0
  181.6880  176.8880  136.7170 C   0  0  0  0  0  0  0  0  0  0  0  0
  180.4040  175.0970  135.6970 C   0  0  0  0  0  0  0  0  0  0  0  0
  181.4330  177.2970  139.2940 C   0  0  2  0  0  3  0  0  0  0  0  0
  179.9050  178.4920  141.0020 O   0  0  0  0  0  0  0  0  0  0  0  0
  179.1410  178.4190  142.1940 C   0  0  2  0  0  3  0  0  0  0  0  0
  179.4620  179.3210  144.4630 C   0  0  0  0  0  2  0  0  0  0  0  0
  179.3310  179.6890  142.9980 C   0  0  1  0  0  3  0  0  0  0  0  0
  180.0710  178.4400  143.3910 C   0  0  2  0  0  3  0  0  0  0  0  0
  1  3  2  0  0  0  0
  2  1  1  0  0  0  0
  3  7  1  0  0  0  0
  4 23  1  6  0  0  0
  4  5  1  0  0  0  0
  6  2  1  0  0  0  0
  6  4  1  0  0  0  0
  7  5  1  6  0  0  0
  7 14  1  0  0  0  0
  9 10  1  6  0  0  0
  9 17  1  0  0  0  0
  9  8  1  0  0  0  0
 11 13  1  0  0  0  0
 12 11  1  0  0  0  0
 13  8  1  0  0  0  0
 14 12  1  1  0  0  0
 14 10  1  0  0  0  0
 15 18  1  1  0  0  0
 15 16  1  0  0  0  0
 17 15  1  0  0  0  0
 17 16  1  1  0  0  0
 19 18  1  0  0  0  0
 20 19  1  0  0  0  0
 21 22  1  0  0  0  0
 21 20  1  0  0  0  0
 24 31  2  0  0  0  0
 25 29  1  0  0  0  0
 26 33  1  6  0  0  0
 26 25  1  0  0  0  0
 27 29  1  0  0  0  0
 29 32  1  6  0  0  0
 30 28  1  6  0  0  0
 30 26  1  0  0  0  0
 30 24  1  0  0  0  0
 31 27  1  0  0  0  0
 31 23  1  0  0  0  0
 34 36  1  0  0  0  0
 36 35  2  0  0  0  0
 36 33  1  0  0  0  0
 37  1  1  0  0  0  0
 38 39  1  1  0  0  0
 38 46  1  0  0  0  0
 40 43  1  0  0  0  0
 40 51  1  0  0  0  0
 41 46  2  0  0  0  0
 41 52  1  0  0  0  0
 42 49  1  0  0  0  0
 43 38  1  0  0  0  0
 45 50  2  0  0  0  0
 45 49  1  0  0  0  0
 47 44  1  0  0  0  0
 47 43  2  0  0  0  0
 48 50  1  0  0  0  0
 49 40  2  0  0  0  0
 50 47  1  0  0  0  0
 51 37  1  6  0  0  0
 51 41  1  0  0  0  0
 53 52  1  6  0  0  0
 53 55  1  0  0  0  0
 53 56  1  0  0  0  0
 55 56  1  0  0  0  0
 55 54  1  1  0  0  0
 56 54  1  1  0  0  0
M  END
>  <MODEL>
4

>  <REMARK>
 VINA RESULT:      -7.6      4.327     10.484
  Name = 
  14 active torsions:
  status: ('A' for Active; 'I' for Inactive)
    1  A    between atoms: O_1  and  C_37
    2  A    between atoms: O_1  and  C_52
    3  A    between atoms: C_3  and  C_53
    4  A    between atoms: C_5  and  C_13
    5  A    between atoms: C_7  and  N_24
    6  A    between atoms: C_7  and  C_49
    7  A    between atoms: C_8  and  O_22
    8  A    between atoms: C_10  and  C_31
    9  A    between atoms: C_13  and  C_49
   10  A    between atoms: C_16  and  C_55
   11  A    between atoms: C_19  and  O_22
   12  A    between atoms: C_31  and  C_34
   13  A    between atoms: C_50  and  C_53
   14  A    between atoms: C_51  and  C_56
                            x       y       z     vdW  Elec       q    Type
                         _______ _______ _______ _____ _____    ______ ____

>  <TORSDO>
F 14

$$$$
=
 OpenBabel10222417163D

 56 63  0  0  1  0  0  0  0  0999 V2000
  185.4410  178.2860  139.2780 C   0  0  0  0  0  0  0  0  0  0  0  0
  186.4200  177.3790  138.5920 C   0  0  0  0  0  2  0  0  0  0  0  0
  185.5210  178.5600  140.5900 C   0  0  0  0  0  3  0  0  0  0  0  0
  188.5300  177.6640  139.9340 C   0  0  1  0  0  3  0  0  0  0  0  0
  187.9670  178.5030  141.0720 C   0  0  0  0  0  2  0  0  0  0  0  0
  187.8240  177.9680  138.6140 C   0  0  0  0  0  2  0  0  0  0  0  0
  186.5850  177.9940  141.4850 C   0  0  1  0  0  3  0  0  0  0  0  0
  185.8080  178.0290  145.7490 O   0  0  0  0  0  0  0  0  0  0  0  0
  187.0100  177.9340  145.0330 C   0  0  2  0  0  3  0  0  0  0  0  0
  186.7760  177.3150  143.7970 O   0  0  0  0  0  0  0  0  0  0  0  0
  184.3710  179.3570  144.3210 C   0  0  0  0  0  2  0  0  0  0  0  0
  184.7550  178.4530  143.1410 C   0  0  0  0  0  2  0  0  0  0  0  0
  185.3510  179.3270  145.4990 C   0  0  0  0  0  2  0  0  0  0  0  0
  186.2690  178.3130  142.9460 C   0  0  2  0  0  3  0  0  0  0  0  0
  189.3270  177.8110  145.8230 C   0  0  2  0  0  3  0  0  0  0  0  0
  188.4640  177.8750  146.9280 O   0  0  0  0  0  0  0  0  0  0  0  0
  188.0190  177.1230  145.8250 C   0  0  1  0  0  3  0  0  0  0  0  0
  190.4300  176.8140  146.1080 C   0  0  0  0  0  2  0  0  0  0  0  0
  191.5950  177.0470  145.1630 C   0  0  0  0  0  2  0  0  0  0  0  0
  191.3700  178.3110  144.3460 C   0  0  0  0  0  2  0  0  0  0  0  0
  191.0050  177.9780  142.9790 N   0  0  0  0  0  2  0  0  0  0  0  0
  192.0510  177.1200  142.4500 C   0  0  0  0  0  1  0  0  0  0  0  0
  189.9190  177.9300  139.8030 O   0  0  0  0  0  0  0  0  0  0  0  0
  191.9500  177.5170  138.7560 N   0  0  0  0  0  0  0  0  0  0  0  0
  191.3660  175.8610  136.5730 O   0  0  0  0  0  0  0  0  0  0  0  0
  192.5330  175.5510  137.2870 C   0  0  2  0  0  3  0  0  0  0  0  0
  190.3180  175.8210  138.6960 O   0  0  0  0  0  0  0  0  0  0  0  0
  193.9380  176.3270  139.0640 O   0  0  0  0  0  1  0  0  0  0  0  0
  190.2580  175.4190  137.3260 C   0  0  2  0  0  3  0  0  0  0  0  0
  193.0220  176.7550  138.1030 C   0  0  2  0  0  3  0  0  0  0  0  0
  190.7600  177.0930  139.0720 C   0  0  0  0  0  0  0  0  0  0  0  0
  190.0590  173.9150  137.2120 C   0  0  0  0  0  1  0  0  0  0  0  0
  193.6130  175.0170  136.3460 C   0  0  0  0  0  2  0  0  0  0  0  0
  194.8790  172.9540  135.8530 F   0  0  0  0  0  0  0  0  0  0  0  0
  193.5290  173.0340  137.6280 O   0  0  0  0  0  0  0  0  0  0  0  0
  194.0040  173.6070  136.6620 C   0  0  0  0  0  0  0  0  0  0  0  0
  184.3560  178.9050  138.4570 C   0  0  0  0  0  2  0  0  0  0  0  0
  180.4380  178.5450  140.2830 C   0  0  2  0  0  3  0  0  0  0  0  0
  180.8980  178.4530  141.5840 F   0  0  0  0  0  0  0  0  0  0  0  0
  182.2270  177.4330  138.8950 C   0  0  0  0  0  0  0  0  0  0  0  0
  182.0710  179.9330  139.1360 C   0  0  0  0  0  0  0  0  0  0  0  0
  184.0430  176.2320  137.5340 C   0  0  0  0  0  1  0  0  0  0  0  0
  180.9430  177.3690  139.4870 C   0  0  0  0  0  0  0  0  0  0  0  0
  178.9310  176.1600  139.9500 F   0  0  0  0  0  0  0  0  0  0  0  0
  181.9020  175.1590  138.0780 C   0  0  0  0  0  3  0  0  0  0  0  0
  180.8990  179.8010  139.6860 N   0  0  0  0  0  0  0  0  0  0  0  0
  180.1580  176.2150  139.3740 C   0  0  0  0  0  0  0  0  0  0  0  0
  179.8820  173.9960  138.5460 F   0  0  0  0  0  0  0  0  0  0  0  0
  182.7050  176.2970  138.1870 C   0  0  0  0  0  0  0  0  0  0  0  0
  180.6380  175.1150  138.6630 C   0  0  0  0  0  0  0  0  0  0  0  0
  183.0000  178.7250  139.1300 C   0  0  2  0  0  3  0  0  0  0  0  0
  182.4000  181.1810  138.5920 O   0  0  0  0  0  0  0  0  0  0  0  0
  181.5100  182.2830  138.5310 C   0  0  2  0  0  3  0  0  0  0  0  0
  181.0050  183.9500  136.7910 C   0  0  0  0  0  2  0  0  0  0  0  0
  181.0270  182.4670  137.1070 C   0  0  1  0  0  3  0  0  0  0  0  0
  182.1060  183.3640  137.6510 C   0  0  2  0  0  3  0  0  0  0  0  0
  1  3  2  0  0  0  0
  2  6  1  0  0  0  0
  2  1  1  0  0  0  0
  4 23  1  6  0  0  0
  4  5  1  0  0  0  0
  5  7  1  0  0  0  0
  6  4  1  0  0  0  0
  7  3  1  6  0  0  0
  7 14  1  0  0  0  0
  9 10  1  6  0  0  0
  9  8  1  0  0  0  0
  9 17  1  0  0  0  0
 11 13  1  0  0  0  0
 12 11  1  0  0  0  0
 13  8  1  0  0  0  0
 14 12  1  6  0  0  0
 14 10  1  0  0  0  0
 15 17  1  0  0  0  0
 15 18  1  1  0  0  0
 15 16  1  0  0  0  0
 17 16  1  1  0  0  0
 19 18  1  0  0  0  0
 20 19  1  0  0  0  0
 21 20  1  0  0  0  0
 22 21  1  0  0  0  0
 24 31  2  0  0  0  0
 25 26  1  0  0  0  0
 25 29  1  0  0  0  0
 26 33  1  6  0  0  0
 26 30  1  0  0  0  0
 27 31  1  0  0  0  0
 29 32  1  1  0  0  0
 29 27  1  0  0  0  0
 30 24  1  0  0  0  0
 30 28  1  1  0  0  0
 31 23  1  0  0  0  0
 33 36  1  0  0  0  0
 34 36  1  0  0  0  0
 36 35  2  0  0  0  0
 37  1  1  0  0  0  0
 38 39  1  1  0  0  0
 40 51  1  0  0  0  0
 40 43  1  0  0  0  0
 41 46  2  0  0  0  0
 42 49  1  0  0  0  0
 43 38  1  0  0  0  0
 45 49  1  0  0  0  0
 45 50  2  0  0  0  0
 46 38  1  0  0  0  0
 47 43  2  0  0  0  0
 47 44  1  0  0  0  0
 48 50  1  0  0  0  0
 49 40  2  0  0  0  0
 50 47  1  0  0  0  0
 51 37  1  6  0  0  0
 51 41  1  0  0  0  0
 52 41  1  0  0  0  0
 53 52  1  6  0  0  0
 55 54  1  1  0  0  0
 55 56  1  0  0  0  0
 55 53  1  0  0  0  0
 56 54  1  1  0  0  0
 56 53  1  0  0  0  0
M  END
>  <MODEL>
5

>  <REMARK>
 VINA RESULT:      -7.2      3.856     10.609
  Name = 
  14 active torsions:
  status: ('A' for Active; 'I' for Inactive)
    1  A    between atoms: O_1  and  C_37
    2  A    between atoms: O_1  and  C_52
    3  A    between atoms: C_3  and  C_53
    4  A    between atoms: C_5  and  C_13
    5  A    between atoms: C_7  and  N_24
    6  A    between atoms: C_7  and  C_49
    7  A    between atoms: C_8  and  O_22
    8  A    between atoms: C_10  and  C_31
    9  A    between atoms: C_13  and  C_49
   10  A    between atoms: C_16  and  C_55
   11  A    between atoms: C_19  and  O_22
   12  A    between atoms: C_31  and  C_34
   13  A    between atoms: C_50  and  C_53
   14  A    between atoms: C_51  and  C_56
                            x       y       z     vdW  Elec       q    Type
                         _______ _______ _______ _____ _____    ______ ____

>  <TORSDO>
F 14

$$$$
=
 OpenBabel10222417163D

 56 63  0  0  1  0  0  0  0  0999 V2000
  184.4820  178.4240  140.7220 C   0  0  0  0  0  0  0  0  0  0  0  0
  183.2030  178.1030  141.4390 C   0  0  0  0  0  2  0  0  0  0  0  0
  184.6850  178.0830  139.4390 C   0  0  0  0  0  3  0  0  0  0  0  0
  181.4820  178.0960  139.6020 C   0  0  1  0  0  3  0  0  0  0  0  0
  182.4180  178.2220  138.4090 C   0  0  0  0  0  2  0  0  0  0  0  0
  182.0250  178.8430  140.8190 C   0  0  0  0  0  2  0  0  0  0  0  0
  183.6660  177.3600  138.6090 C   0  0  1  0  0  3  0  0  0  0  0  0
  184.9740  175.3710  134.9870 O   0  0  0  0  0  0  0  0  0  0  0  0
  183.7470  175.9620  135.3200 C   0  0  2  0  0  3  0  0  0  0  0  0
  183.5410  175.8750  136.7050 O   0  0  0  0  0  0  0  0  0  0  0  0
  186.6080  176.6520  136.2340 C   0  0  0  0  0  2  0  0  0  0  0  0
  185.7360  176.4910  137.4870 C   0  0  0  0  0  2  0  0  0  0  0  0
  185.8710  176.4410  134.9060 C   0  0  0  0  0  2  0  0  0  0  0  0
  184.2810  176.9250  137.2800 C   0  0  2  0  0  3  0  0  0  0  0  0
  181.5440  174.9130  135.5500 C   0  0  2  0  0  3  0  0  0  0  0  0
  181.4420  176.0190  134.6920 O   0  0  0  0  0  0  0  0  0  0  0  0
  182.6190  175.2530  134.5940 C   0  0  1  0  0  3  0  0  0  0  0  0
  180.7100  173.7750  134.9970 C   0  0  0  0  0  2  0  0  0  0  0  0
  179.6270  173.3980  135.9920 C   0  0  0  0  0  2  0  0  0  0  0  0
  180.2360  173.1120  137.3560 C   0  0  0  0  0  2  0  0  0  0  0  0
  179.5230  173.8330  138.3960 N   0  0  0  0  0  2  0  0  0  0  0  0
  180.3290  174.9880  138.7510 C   0  0  0  0  0  1  0  0  0  0  0  0
  180.2090  178.6200  139.2520 O   0  0  0  0  0  0  0  0  0  0  0  0
  179.3570  180.7080  138.6980 N   0  0  0  0  0  0  0  0  0  0  0  0
  178.9360  180.6550  135.9290 O   0  0  0  0  0  0  0  0  0  0  0  0
  179.4610  181.8470  136.4510 C   0  0  2  0  0  3  0  0  0  0  0  0
  180.7060  179.6150  137.1090 O   0  0  0  0  0  0  0  0  0  0  0  0
  180.0170  182.9420  138.5060 O   0  0  0  0  0  1  0  0  0  0  0  0
  179.9720  179.6990  135.8860 C   0  0  2  0  0  3  0  0  0  0  0  0
  179.1890  181.9630  137.9560 C   0  0  2  0  0  3  0  0  0  0  0  0
  180.0730  179.6770  138.3540 C   0  0  0  0  0  0  0  0  0  0  0  0
  180.9060  179.9290  134.7070 C   0  0  0  0  0  1  0  0  0  0  0  0
  178.9310  183.0530  135.6750 C   0  0  0  0  0  2  0  0  0  0  0  0
  181.3160  183.6730  135.5120 F   0  0  0  0  0  0  0  0  0  0  0  0
  179.7600  184.9830  134.5940 O   0  0  0  0  0  0  0  0  0  0  0  0
  180.0240  183.9670  135.2160 C   0  0  0  0  0  0  0  0  0  0  0  0
  185.5480  179.1570  141.4710 C   0  0  0  0  0  2  0  0  0  0  0  0
  188.1880  176.4640  143.6130 C   0  0  2  0  0  3  0  0  0  0  0  0
  187.5060  175.3070  143.2820 F   0  0  0  0  0  0  0  0  0  0  0  0
  186.3980  178.2340  143.7770 C   0  0  0  0  0  0  0  0  0  0  0  0
  187.8360  177.9600  141.7300 C   0  0  0  0  0  0  0  0  0  0  0  0
  184.5330  179.9850  143.9980 C   0  0  0  0  0  1  0  0  0  0  0  0
  187.2950  177.3570  144.4340 C   0  0  0  0  0  0  0  0  0  0  0  0
  188.1880  176.4370  146.4540 F   0  0  0  0  0  0  0  0  0  0  0  0
  185.5890  178.9550  145.9610 C   0  0  0  0  0  3  0  0  0  0  0  0
  188.6120  177.1500  142.3900 N   0  0  0  0  0  0  0  0  0  0  0  0
  187.3300  177.2850  145.8320 C   0  0  0  0  0  0  0  0  0  0  0  0
  186.5140  178.0280  147.9450 F   0  0  0  0  0  0  0  0  0  0  0  0
  185.5310  179.0360  144.5680 C   0  0  0  0  0  0  0  0  0  0  0  0
  186.4820  178.0900  146.5920 C   0  0  0  0  0  0  0  0  0  0  0  0
  186.4230  178.1850  142.2540 C   0  0  2  0  0  3  0  0  0  0  0  0
  188.3530  178.5640  140.5760 O   0  0  0  0  0  0  0  0  0  0  0  0
  188.2740  178.0010  139.2780 C   0  0  2  0  0  3  0  0  0  0  0  0
  189.9680  177.2320  137.6650 C   0  0  0  0  0  2  0  0  0  0  0  0
  189.4270  177.0420  139.0690 C   0  0  1  0  0  3  0  0  0  0  0  0
  189.4870  178.4210  138.4710 C   0  0  2  0  0  3  0  0  0  0  0  0
  1  2  1  0  0  0  0
  1 37  1  0  0  0  0
  3  1  2  0  0  0  0
  4 23  1  6  0  0  0
  4  6  1  0  0  0  0
  5  4  1  0  0  0  0
  6  2  1  0  0  0  0
  7  5  1  6  0  0  0
  7  3  1  0  0  0  0
  9  8  1  1  0  0  0
  9 10  1  0  0  0  0
 10 14  1  0  0  0  0
 11 12  1  0  0  0  0
 13  8  1  0  0  0  0
 13 11  1  0  0  0  0
 14 12  1  1  0  0  0
 14  7  1  0  0  0  0
 15 18  1  6  0  0  0
 16 15  1  0  0  0  0
 17 16  1  6  0  0  0
 17  9  1  0  0  0  0
 17 15  1  0  0  0  0
 18 19  1  0  0  0  0
 19 20  1  0  0  0  0
 20 21  1  0  0  0  0
 21 22  1  0  0  0  0
 25 26  1  0  0  0  0
 26 33  1  6  0  0  0
 26 30  1  0  0  0  0
 27 31  1  0  0  0  0
 29 32  1  6  0  0  0
 29 25  1  0  0  0  0
 29 27  1  0  0  0  0
 30 28  1  1  0  0  0
 30 24  1  0  0  0  0
 31 24  2  0  0  0  0
 31 23  1  0  0  0  0
 35 36  2  0  0  0  0
 36 34  1  0  0  0  0
 36 33  1  0  0  0  0
 38 39  1  6  0  0  0
 38 43  1  0  0  0  0
 40 43  2  0  0  0  0
 40 49  1  0  0  0  0
 41 51  1  0  0  0  0
 41 46  2  0  0  0  0
 42 49  1  0  0  0  0
 43 47  1  0  0  0  0
 45 50  1  0  0  0  0
 46 38  1  0  0  0  0
 47 44  1  0  0  0  0
 47 50  2  0  0  0  0
 49 45  2  0  0  0  0
 50 48  1  0  0  0  0
 51 37  1  6  0  0  0
 51 40  1  0  0  0  0
 52 41  1  0  0  0  0
 53 52  1  1  0  0  0
 55 54  1  6  0  0  0
 55 53  1  0  0  0  0
 56 54  1  6  0  0  0
 56 55  1  0  0  0  0
 56 53  1  0  0  0  0
M  END
>  <MODEL>
6

>  <REMARK>
 VINA RESULT:      -6.8      1.654      2.246
  Name = 
  14 active torsions:
  status: ('A' for Active; 'I' for Inactive)
    1  A    between atoms: O_1  and  C_37
    2  A    between atoms: O_1  and  C_52
    3  A    between atoms: C_3  and  C_53
    4  A    between atoms: C_5  and  C_13
    5  A    between atoms: C_7  and  N_24
    6  A    between atoms: C_7  and  C_49
    7  A    between atoms: C_8  and  O_22
    8  A    between atoms: C_10  and  C_31
    9  A    between atoms: C_13  and  C_49
   10  A    between atoms: C_16  and  C_55
   11  A    between atoms: C_19  and  O_22
   12  A    between atoms: C_31  and  C_34
   13  A    between atoms: C_50  and  C_53
   14  A    between atoms: C_51  and  C_56
                            x       y       z     vdW  Elec       q    Type
                         _______ _______ _______ _____ _____    ______ ____

>  <TORSDO>
F 14

$$$$
=
 OpenBabel10222417163D

 56 63  0  0  1  0  0  0  0  0999 V2000
  183.6240  178.6470  138.3500 C   0  0  0  0  0  0  0  0  0  0  0  0
  183.1420  179.6140  139.3910 C   0  0  0  0  0  2  0  0  0  0  0  0
  184.8490  178.0990  138.3970 C   0  0  0  0  0  3  0  0  0  0  0  0
  184.3920  178.9210  141.4630 C   0  0  1  0  0  3  0  0  0  0  0  0
  185.3290  177.8990  140.8360 C   0  0  0  0  0  2  0  0  0  0  0  0
  183.0390  178.9460  140.7560 C   0  0  0  0  0  2  0  0  0  0  0  0
  185.8410  178.3960  139.4830 C   0  0  1  0  0  3  0  0  0  0  0  0
  190.0080  177.5070  138.6860 O   0  0  0  0  0  0  0  0  0  0  0  0
  189.3100  177.6390  139.8950 C   0  0  2  0  0  3  0  0  0  0  0  0
  188.2420  178.5330  139.7290 O   0  0  0  0  0  0  0  0  0  0  0  0
  188.3500  176.6700  137.1320 C   0  0  0  0  0  2  0  0  0  0  0  0
  187.3890  177.7680  137.6090 C   0  0  0  0  0  2  0  0  0  0  0  0
  189.4900  176.3460  138.1040 C   0  0  0  0  0  2  0  0  0  0  0  0
  187.2030  177.7990  139.1300 C   0  0  2  0  0  3  0  0  0  0  0  0
  190.9100  177.0190  141.6460 C   0  0  2  0  0  3  0  0  0  0  0  0
  191.5650  177.7860  140.6690 O   0  0  0  0  0  0  0  0  0  0  0  0
  190.2420  178.1560  140.9750 C   0  0  1  0  0  3  0  0  0  0  0  0
  191.3870  177.4450  143.0180 C   0  0  0  0  0  2  0  0  0  0  0  0
  191.7100  176.2210  143.8550 C   0  0  0  0  0  2  0  0  0  0  0  0
  191.4190  176.4910  145.3240 C   0  0  0  0  0  2  0  0  0  0  0  0
  192.0610  175.4940  146.1640 N   0  0  0  0  0  2  0  0  0  0  0  0
  192.1210  176.0380  147.5100 C   0  0  0  0  0  1  0  0  0  0  0  0
  184.2060  178.6010  142.8340 O   0  0  0  0  0  0  0  0  0  0  0  0
  186.2650  177.6640  143.3610 N   0  0  0  0  0  0  0  0  0  0  0  0
  186.2830  177.3660  146.1460 O   0  0  0  0  0  0  0  0  0  0  0  0
  187.4820  177.8050  145.5650 C   0  0  2  0  0  3  0  0  0  0  0  0
  185.2960  179.1360  144.9220 O   0  0  0  0  0  0  0  0  0  0  0  0
  188.5350  178.2130  143.4540 O   0  0  0  0  0  1  0  0  0  0  0  0
  185.3830  178.4520  146.1730 C   0  0  2  0  0  3  0  0  0  0  0  0
  187.5340  177.4620  144.0710 C   0  0  2  0  0  3  0  0  0  0  0  0
  185.2840  178.4480  143.7050 C   0  0  0  0  0  0  0  0  0  0  0  0
  185.7000  179.4230  147.3010 C   0  0  0  0  0  1  0  0  0  0  0  0
  188.6850  177.2450  146.3260 C   0  0  0  0  0  2  0  0  0  0  0  0
  189.1100  178.7930  148.2030 F   0  0  0  0  0  0  0  0  0  0  0  0
  188.2350  176.7790  148.5980 O   0  0  0  0  0  0  0  0  0  0  0  0
  188.6520  177.5860  147.7840 C   0  0  0  0  0  0  0  0  0  0  0  0
  182.6920  178.2840  137.2380 C   0  0  0  0  0  2  0  0  0  0  0  0
  179.4120  175.7930  138.5980 C   0  0  2  0  0  3  0  0  0  0  0  0
  179.8380  175.7060  139.9110 F   0  0  0  0  0  0  0  0  0  0  0  0
  181.5380  175.9260  137.2470 C   0  0  0  0  0  0  0  0  0  0  0  0
  180.1850  177.9660  137.8310 C   0  0  0  0  0  0  0  0  0  0  0  0
  183.7310  175.9910  135.9120 C   0  0  0  0  0  1  0  0  0  0  0  0
  180.4370  175.1580  137.6940 C   0  0  0  0  0  0  0  0  0  0  0  0
  179.2570  173.0770  137.7760 F   0  0  0  0  0  0  0  0  0  0  0  0
  182.3710  173.9530  136.0810 C   0  0  0  0  0  3  0  0  0  0  0  0
  179.2150  177.2000  138.2380 N   0  0  0  0  0  0  0  0  0  0  0  0
  180.3130  173.8090  137.3380 C   0  0  0  0  0  0  0  0  0  0  0  0
  181.1610  171.9090  136.1740 F   0  0  0  0  0  0  0  0  0  0  0  0
  182.5190  175.2970  136.4330 C   0  0  0  0  0  0  0  0  0  0  0  0
  181.2770  173.2120  136.5260 C   0  0  0  0  0  0  0  0  0  0  0  0
  181.5830  177.3670  137.7410 C   0  0  2  0  0  3  0  0  0  0  0  0
  179.8760  179.2940  137.5090 O   0  0  0  0  0  0  0  0  0  0  0  0
  180.6490  180.1020  136.6370 C   0  0  2  0  0  3  0  0  0  0  0  0
  180.5430  182.4790  136.0030 C   0  0  0  0  0  2  0  0  0  0  0  0
  180.6950  181.5200  137.1680 C   0  0  1  0  0  3  0  0  0  0  0  0
  179.7670  181.1780  136.0340 C   0  0  2  0  0  3  0  0  0  0  0  0
  1  3  2  0  0  0  0
  1  2  1  0  0  0  0
  2  6  1  0  0  0  0
  4 23  1  1  0  0  0
  5  4  1  0  0  0  0
  6  4  1  0  0  0  0
  7  3  1  6  0  0  0
  7  5  1  0  0  0  0
  9  8  1  6  0  0  0
  9 17  1  0  0  0  0
 10  9  1  0  0  0  0
 11 12  1  0  0  0  0
 11 13  1  0  0  0  0
 13  8  1  0  0  0  0
 14 12  1  6  0  0  0
 14  7  1  0  0  0  0
 14 10  1  0  0  0  0
 15 18  1  1  0  0  0
 16 15  1  0  0  0  0
 17 16  1  6  0  0  0
 17 15  1  0  0  0  0
 18 19  1  0  0  0  0
 19 20  1  0  0  0  0
 20 21  1  0  0  0  0
 21 22  1  0  0  0  0
 23 31  1  0  0  0  0
 24 31  2  0  0  0  0
 24 30  1  0  0  0  0
 25 29  1  0  0  0  0
 26 25  1  0  0  0  0
 26 33  1  1  0  0  0
 27 29  1  0  0  0  0
 29 32  1  1  0  0  0
 30 28  1  6  0  0  0
 30 26  1  0  0  0  0
 31 27  1  0  0  0  0
 33 36  1  0  0  0  0
 36 34  1  0  0  0  0
 36 35  2  0  0  0  0
 37  1  1  0  0  0  0
 38 39  1  1  0  0  0
 40 43  1  0  0  0  0
 40 51  1  0  0  0  0
 41 46  2  0  0  0  0
 42 49  1  0  0  0  0
 43 38  1  0  0  0  0
 45 49  1  0  0  0  0
 45 50  2  0  0  0  0
 46 38  1  0  0  0  0
 47 43  2  0  0  0  0
 47 44  1  0  0  0  0
 48 50  1  0  0  0  0
 49 40  2  0  0  0  0
 50 47  1  0  0  0  0
 51 37  1  6  0  0  0
 51 41  1  0  0  0  0
 52 41  1  0  0  0  0
 53 55  1  0  0  0  0
 53 52  1  1  0  0  0
 55 54  1  6  0  0  0
 56 54  1  6  0  0  0
 56 53  1  0  0  0  0
 56 55  1  0  0  0  0
M  END
>  <MODEL>
7

>  <REMARK>
 VINA RESULT:      -6.7      3.524      9.695
  Name = 
  14 active torsions:
  status: ('A' for Active; 'I' for Inactive)
    1  A    between atoms: O_1  and  C_37
    2  A    between atoms: O_1  and  C_52
    3  A    between atoms: C_3  and  C_53
    4  A    between atoms: C_5  and  C_13
    5  A    between atoms: C_7  and  N_24
    6  A    between atoms: C_7  and  C_49
    7  A    between atoms: C_8  and  O_22
    8  A    between atoms: C_10  and  C_31
    9  A    between atoms: C_13  and  C_49
   10  A    between atoms: C_16  and  C_55
   11  A    between atoms: C_19  and  O_22
   12  A    between atoms: C_31  and  C_34
   13  A    between atoms: C_50  and  C_53
   14  A    between atoms: C_51  and  C_56
                            x       y       z     vdW  Elec       q    Type
                         _______ _______ _______ _____ _____    ______ ____

>  <TORSDO>
F 14

$$$$
=
 OpenBabel10222417163D

 56 63  0  0  1  0  0  0  0  0999 V2000
  183.4560  177.0340  137.3500 C   0  0  0  0  0  0  0  0  0  0  0  0
  184.7970  176.3830  137.5240 C   0  0  0  0  0  2  0  0  0  0  0  0
  182.8620  177.7200  138.3410 C   0  0  0  0  0  3  0  0  0  0  0  0
  185.9410  177.8340  139.2340 C   0  0  1  0  0  3  0  0  0  0  0  0
  184.7620  178.7220  139.6070 C   0  0  0  0  0  2  0  0  0  0  0  0
  185.8860  177.4210  137.7640 C   0  0  0  0  0  2  0  0  0  0  0  0
  183.4750  177.9000  139.6980 C   0  0  1  0  0  3  0  0  0  0  0  0
  180.9320  179.1010  142.9960 O   0  0  0  0  0  0  0  0  0  0  0  0
  182.2830  179.3680  142.7310 C   0  0  2  0  0  3  0  0  0  0  0  0
  182.8380  178.3120  141.9930 O   0  0  0  0  0  0  0  0  0  0  0  0
  179.9270  178.8940  140.8020 C   0  0  0  0  0  2  0  0  0  0  0  0
  181.0660  177.9470  140.4000 C   0  0  0  0  0  2  0  0  0  0  0  0
  180.2340  179.7960  142.0030 C   0  0  0  0  0  2  0  0  0  0  0  0
  182.4620  178.5270  140.6550 C   0  0  2  0  0  3  0  0  0  0  0  0
  184.1000  178.5030  144.1300 C   0  0  2  0  0  3  0  0  0  0  0  0
  184.3900  179.8260  143.7600 O   0  0  0  0  0  0  0  0  0  0  0  0
  183.0420  179.5310  144.0350 C   0  0  1  0  0  3  0  0  0  0  0  0
  184.4830  178.2950  145.5800 C   0  0  0  0  0  2  0  0  0  0  0  0
  185.9770  178.0510  145.6910 C   0  0  0  0  0  2  0  0  0  0  0  0
  186.4970  178.5520  147.0300 C   0  0  0  0  0  2  0  0  0  0  0  0
  187.7470  177.8930  147.3720 N   0  0  0  0  0  2  0  0  0  0  0  0
  187.9300  178.0330  148.8060 C   0  0  0  0  0  1  0  0  0  0  0  0
  187.1500  178.5350  139.4850 O   0  0  0  0  0  0  0  0  0  0  0  0
  188.2840  178.1350  141.4720 N   0  0  0  0  0  0  0  0  0  0  0  0
  190.9920  177.9370  140.7820 O   0  0  0  0  0  0  0  0  0  0  0  0
  190.5320  177.0240  141.7430 C   0  0  2  0  0  3  0  0  0  0  0  0
  189.1500  177.1830  139.5000 O   0  0  0  0  0  0  0  0  0  0  0  0
  188.6160  176.4540  143.0620 O   0  0  0  0  0  1  0  0  0  0  0  0
  190.5410  177.5090  139.5160 C   0  0  2  0  0  3  0  0  0  0  0  0
  189.2360  177.5150  142.4010 C   0  0  2  0  0  3  0  0  0  0  0  0
  188.2050  177.9520  140.1850 C   0  0  0  0  0  0  0  0  0  0  0  0
  191.3740  176.3560  138.9780 C   0  0  0  0  0  1  0  0  0  0  0  0
  191.6240  176.7290  142.7720 C   0  0  0  0  0  2  0  0  0  0  0  0
  191.7320  179.0740  143.5410 F   0  0  0  0  0  0  0  0  0  0  0  0
  191.6980  177.4140  145.0320 O   0  0  0  0  0  0  0  0  0  0  0  0
  191.6800  177.7550  143.8610 C   0  0  0  0  0  0  0  0  0  0  0  0
  182.7800  176.9150  136.0220 C   0  0  0  0  0  2  0  0  0  0  0  0
  179.0390  174.7340  136.2510 C   0  0  2  0  0  3  0  0  0  0  0  0
  178.9950  174.6740  137.6320 F   0  0  0  0  0  0  0  0  0  0  0  0
  181.4950  174.6500  135.6860 C   0  0  0  0  0  0  0  0  0  0  0  0
  180.2020  176.8080  135.7480 C   0  0  0  0  0  0  0  0  0  0  0  0
  184.0040  174.4950  135.1600 C   0  0  0  0  0  1  0  0  0  0  0  0
  180.2480  173.9850  135.7530 C   0  0  0  0  0  0  0  0  0  0  0  0
  178.9380  172.0020  135.4730 F   0  0  0  0  0  0  0  0  0  0  0  0
  182.5000  172.5720  134.9010 C   0  0  0  0  0  3  0  0  0  0  0  0
  179.0900  176.1330  135.8210 N   0  0  0  0  0  0  0  0  0  0  0  0
  180.1370  172.6350  135.4000 C   0  0  0  0  0  0  0  0  0  0  0  0
  181.1600  170.6270  134.6210 F   0  0  0  0  0  0  0  0  0  0  0  0
  182.6340  173.9160  135.2580 C   0  0  0  0  0  0  0  0  0  0  0  0
  181.2620  171.9330  134.9680 C   0  0  0  0  0  0  0  0  0  0  0  0
  181.4940  176.1050  136.1410 C   0  0  2  0  0  3  0  0  0  0  0  0
  180.1290  178.1390  135.3170 O   0  0  0  0  0  0  0  0  0  0  0  0
  179.5590  179.1920  136.0760 C   0  0  2  0  0  3  0  0  0  0  0  0
  180.2940  181.4830  136.6020 C   0  0  0  0  0  2  0  0  0  0  0  0
  179.9580  180.5240  135.4760 C   0  0  1  0  0  3  0  0  0  0  0  0
  180.6660  180.0170  136.7030 C   0  0  2  0  0  3  0  0  0  0  0  0
  1  2  1  0  0  0  0
  1  3  2  0  0  0  0
  2  6  1  0  0  0  0
  4 23  1  6  0  0  0
  4  5  1  0  0  0  0
  5  7  1  0  0  0  0
  6  4  1  0  0  0  0
  7  3  1  6  0  0  0
  7 14  1  0  0  0  0
  9 10  1  1  0  0  0
  9  8  1  0  0  0  0
  9 17  1  0  0  0  0
 11 13  1  0  0  0  0
 12 11  1  0  0  0  0
 13  8  1  0  0  0  0
 14 12  1  1  0  0  0
 14 10  1  0  0  0  0
 15 18  1  1  0  0  0
 16 15  1  0  0  0  0
 17 16  1  6  0  0  0
 17 15  1  0  0  0  0
 18 19  1  0  0  0  0
 19 20  1  0  0  0  0
 20 21  1  0  0  0  0
 21 22  1  0  0  0  0
 23 31  1  0  0  0  0
 24 30  1  0  0  0  0
 25 26  1  0  0  0  0
 26 30  1  0  0  0  0
 26 33  1  1  0  0  0
 27 29  1  0  0  0  0
 27 31  1  0  0  0  0
 29 32  1  1  0  0  0
 29 25  1  0  0  0  0
 30 28  1  6  0  0  0
 31 24  2  0  0  0  0
 33 36  1  0  0  0  0
 34 36  1  0  0  0  0
 36 35  2  0  0  0  0
 37  1  1  0  0  0  0
 38 39  1  1  0  0  0
 40 43  1  0  0  0  0
 40 51  1  0  0  0  0
 41 46  2  0  0  0  0
 41 51  1  0  0  0  0
 42 49  1  0  0  0  0
 43 38  1  0  0  0  0
 45 50  2  0  0  0  0
 45 49  1  0  0  0  0
 46 38  1  0  0  0  0
 47 44  1  0  0  0  0
 47 43  2  0  0  0  0
 48 50  1  0  0  0  0
 49 40  2  0  0  0  0
 50 47  1  0  0  0  0
 51 37  1  6  0  0  0
 52 41  1  0  0  0  0
 53 52  1  6  0  0  0
 53 56  1  0  0  0  0
 55 53  1  0  0  0  0
 55 54  1  1  0  0  0
 55 56  1  0  0  0  0
 56 54  1  1  0  0  0
M  END
>  <MODEL>
8

>  <REMARK>
 VINA RESULT:      -6.7      3.701     10.659
  Name = 
  14 active torsions:
  status: ('A' for Active; 'I' for Inactive)
    1  A    between atoms: O_1  and  C_37
    2  A    between atoms: O_1  and  C_52
    3  A    between atoms: C_3  and  C_53
    4  A    between atoms: C_5  and  C_13
    5  A    between atoms: C_7  and  N_24
    6  A    between atoms: C_7  and  C_49
    7  A    between atoms: C_8  and  O_22
    8  A    between atoms: C_10  and  C_31
    9  A    between atoms: C_13  and  C_49
   10  A    between atoms: C_16  and  C_55
   11  A    between atoms: C_19  and  O_22
   12  A    between atoms: C_31  and  C_34
   13  A    between atoms: C_50  and  C_53
   14  A    between atoms: C_51  and  C_56
                            x       y       z     vdW  Elec       q    Type
                         _______ _______ _______ _____ _____    ______ ____

>  <TORSDO>
F 14

$$$$
=
 OpenBabel10222417163D

 56 63  0  0  1  0  0  0  0  0999 V2000
  186.5970  177.8400  137.1650 C   0  0  0  0  0  0  0  0  0  0  0  0
  185.6800  179.0240  137.2770 C   0  0  0  0  0  2  0  0  0  0  0  0
  187.4410  177.4960  138.1520 C   0  0  0  0  0  3  0  0  0  0  0  0
  185.2430  179.2020  139.7490 C   0  0  1  0  0  3  0  0  0  0  0  0
  186.2390  178.1580  140.2340 C   0  0  0  0  0  2  0  0  0  0  0  0
  184.6590  178.8260  138.3890 C   0  0  0  0  0  2  0  0  0  0  0  0
  187.5460  178.2510  139.4440 C   0  0  1  0  0  3  0  0  0  0  0  0
  190.9020  177.6240  142.1150 O   0  0  0  0  0  0  0  0  0  0  0  0
  189.5210  177.6230  142.3560 C   0  0  2  0  0  3  0  0  0  0  0  0
  188.8810  178.4770  141.4470 O   0  0  0  0  0  0  0  0  0  0  0  0
  191.1040  176.8420  139.8310 C   0  0  0  0  0  2  0  0  0  0  0  0
  190.0240  177.8510  139.4190 C   0  0  0  0  0  2  0  0  0  0  0  0
  191.1220  176.4910  141.3230 C   0  0  0  0  0  2  0  0  0  0  0  0
  188.7410  177.7480  140.2520 C   0  0  2  0  0  3  0  0  0  0  0  0
  188.3010  177.1640  144.4320 C   0  0  2  0  0  3  0  0  0  0  0  0
  189.6810  177.1120  144.6850 O   0  0  0  0  0  0  0  0  0  0  0  0
  189.2450  178.0910  143.7730 C   0  0  1  0  0  3  0  0  0  0  0  0
  187.6100  177.8690  145.5810 C   0  0  0  0  0  2  0  0  0  0  0  0
  186.1130  177.6310  145.5070 C   0  0  0  0  0  2  0  0  0  0  0  0
  185.4080  178.8580  144.9490 C   0  0  0  0  0  2  0  0  0  0  0  0
  184.1170  179.0420  145.5900 N   0  0  0  0  0  2  0  0  0  0  0  0
  183.1100  179.0280  144.5440 C   0  0  0  0  0  1  0  0  0  0  0  0
  184.1950  179.3220  140.7000 O   0  0  0  0  0  0  0  0  0  0  0  0
  182.3390  177.9670  141.0390 N   0  0  0  0  0  0  0  0  0  0  0  0
  181.0760  177.7580  138.5470 O   0  0  0  0  0  0  0  0  0  0  0  0
  180.2310  177.9020  139.6570 C   0  0  2  0  0  3  0  0  0  0  0  0
  182.1790  179.6650  139.4160 O   0  0  0  0  0  0  0  0  0  0  0  0
  180.2320  178.0000  142.0500 O   0  0  0  0  0  1  0  0  0  0  0  0
  181.6430  179.0170  138.2600 C   0  0  2  0  0  3  0  0  0  0  0  0
  180.9470  177.5100  140.9560 C   0  0  2  0  0  3  0  0  0  0  0  0
  182.8840  178.9590  140.3960 C   0  0  0  0  0  0  0  0  0  0  0  0
  180.6650  179.9270  137.5330 C   0  0  0  0  0  1  0  0  0  0  0  0
  178.9370  177.1120  139.4530 C   0  0  0  0  0  2  0  0  0  0  0  0
  178.9840  175.0530  140.8170 F   0  0  0  0  0  0  0  0  0  0  0  0
  179.4510  174.9550  138.6370 O   0  0  0  0  0  0  0  0  0  0  0  0
  179.1360  175.6350  139.6000 C   0  0  0  0  0  0  0  0  0  0  0  0
  186.5460  177.0230  135.9140 C   0  0  0  0  0  2  0  0  0  0  0  0
  186.0170  172.7970  136.7340 C   0  0  2  0  0  3  0  0  0  0  0  0
  186.0010  172.9230  138.1110 F   0  0  0  0  0  0  0  0  0  0  0  0
  187.5820  174.6110  135.9470 C   0  0  0  0  0  0  0  0  0  0  0  0
  185.0810  174.8810  135.9040 C   0  0  0  0  0  0  0  0  0  0  0  0
  189.2360  176.4290  135.2000 C   0  0  0  0  0  1  0  0  0  0  0  0
  187.3560  173.2380  136.2040 C   0  0  0  0  0  0  0  0  0  0  0  0
  188.1510  170.9820  136.2640 F   0  0  0  0  0  0  0  0  0  0  0  0
  189.8650  174.0570  135.2930 C   0  0  0  0  0  3  0  0  0  0  0  0
  184.9450  173.6110  136.1550 N   0  0  0  0  0  0  0  0  0  0  0  0
  188.3740  172.2960  136.0090 C   0  0  0  0  0  0  0  0  0  0  0  0
  190.6120  171.8000  135.3520 F   0  0  0  0  0  0  0  0  0  0  0  0
  188.8670  175.0140  135.4910 C   0  0  0  0  0  0  0  0  0  0  0  0
  189.6240  172.7080  135.5470 C   0  0  0  0  0  0  0  0  0  0  0  0
  186.4120  175.5410  136.2430 C   0  0  2  0  0  3  0  0  0  0  0  0
  183.9880  175.5560  135.3430 O   0  0  0  0  0  0  0  0  0  0  0  0
  182.9300  176.1240  136.0970 C   0  0  2  0  0  3  0  0  0  0  0  0
  180.5700  176.6120  135.5920 C   0  0  0  0  0  2  0  0  0  0  0  0
  181.6130  175.5130  135.6640 C   0  0  1  0  0  3  0  0  0  0  0  0
  182.0000  176.8800  135.1690 C   0  0  2  0  0  3  0  0  0  0  0  0
  1  2  1  0  0  0  0
  1  3  2  0  0  0  0
  2  6  1  0  0  0  0
  4  5  1  0  0  0  0
  4 23  1  1  0  0  0
  6  4  1  0  0  0  0
  7  3  1  6  0  0  0
  7  5  1  0  0  0  0
  7 14  1  0  0  0  0
  8  9  1  0  0  0  0
  9 10  1  6  0  0  0
  9 17  1  0  0  0  0
 11 13  1  0  0  0  0
 12 11  1  0  0  0  0
 13  8  1  0  0  0  0
 14 12  1  6  0  0  0
 14 10  1  0  0  0  0
 15 16  1  0  0  0  0
 15 18  1  1  0  0  0
 17 15  1  0  0  0  0
 17 16  1  1  0  0  0
 19 18  1  0  0  0  0
 20 19  1  0  0  0  0
 20 21  1  0  0  0  0
 22 21  1  0  0  0  0
 25 26  1  0  0  0  0
 26 33  1  6  0  0  0
 26 30  1  0  0  0  0
 27 31  1  0  0  0  0
 29 32  1  1  0  0  0
 29 25  1  0  0  0  0
 29 27  1  0  0  0  0
 30 24  1  0  0  0  0
 30 28  1  1  0  0  0
 31 23  1  0  0  0  0
 31 24  2  0  0  0  0
 33 36  1  0  0  0  0
 35 36  2  0  0  0  0
 36 34  1  0  0  0  0
 37  1  1  0  0  0  0
 38 39  1  1  0  0  0
 40 43  1  0  0  0  0
 40 51  1  0  0  0  0
 41 46  2  0  0  0  0
 41 51  1  0  0  0  0
 42 49  1  0  0  0  0
 43 38  1  0  0  0  0
 45 49  1  0  0  0  0
 45 50  2  0  0  0  0
 46 38  1  0  0  0  0
 47 43  2  0  0  0  0
 47 44  1  0  0  0  0
 48 50  1  0  0  0  0
 49 40  2  0  0  0  0
 50 47  1  0  0  0  0
 51 37  1  6  0  0  0
 52 41  1  0  0  0  0
 53 52  1  6  0  0  0
 55 54  1  1  0  0  0
 55 53  1  0  0  0  0
 56 54  1  1  0  0  0
 56 55  1  0  0  0  0
 56 53  1  0  0  0  0
M  END
>  <MODEL>
9

>  <REMARK>
 VINA RESULT:      -6.5      3.541      8.256
  Name = 
  14 active torsions:
  status: ('A' for Active; 'I' for Inactive)
    1  A    between atoms: O_1  and  C_37
    2  A    between atoms: O_1  and  C_52
    3  A    between atoms: C_3  and  C_53
    4  A    between atoms: C_5  and  C_13
    5  A    between atoms: C_7  and  N_24
    6  A    between atoms: C_7  and  C_49
    7  A    between atoms: C_8  and  O_22
    8  A    between atoms: C_10  and  C_31
    9  A    between atoms: C_13  and  C_49
   10  A    between atoms: C_16  and  C_55
   11  A    between atoms: C_19  and  O_22
   12  A    between atoms: C_31  and  C_34
   13  A    between atoms: C_50  and  C_53
   14  A    between atoms: C_51  and  C_56
                            x       y       z     vdW  Elec       q    Type
                         _______ _______ _______ _____ _____    ______ ____

>  <TORSDO>
F 14

$$$$
