=
 OpenBabel10222417133D

 51 58  0  0  1  0  0  0  0  0999 V2000
  189.8150  175.7980  140.7850 C   0  0  0  0  0  1  0  0  0  0  0  0
  187.8080  178.5400  139.7790 C   0  0  0  0  0  2  0  0  0  0  0  0
  188.9760  177.7180  139.5160 N   0  0  0  0  0  0  0  0  0  0  0  0
  189.6510  177.3060  140.7430 C   0  0  0  0  0  0  0  0  0  0  0  0
  188.7030  177.7300  141.8680 C   0  0  2  0  0  3  0  0  0  0  0  0
  191.0170  177.9790  140.8340 C   0  0  0  0  0  1  0  0  0  0  0  0
  187.8030  178.8020  141.2760 C   0  0  2  0  0  3  0  0  0  0  0  0
  190.1330  176.6600  135.5660 C   0  0  0  0  0  3  0  0  0  0  0  0
  190.1860  176.2380  137.9450 C   0  0  0  0  0  3  0  0  0  0  0  0
  190.5740  175.8820  136.6460 C   0  0  0  0  0  0  0  0  0  0  0  0
  189.3290  177.7820  135.7830 C   0  0  0  0  0  3  0  0  0  0  0  0
  188.9560  178.1320  137.0840 C   0  0  0  0  0  3  0  0  0  0  0  0
  189.3740  177.3580  138.1770 C   0  0  0  0  0  0  0  0  0  0  0  0
  194.3270  172.7980  137.4860 C   0  0  2  0  0  3  0  0  0  0  0  0
  195.8770  174.7190  136.9810 S   0  0  0  0  0  0  0  0  0  0  0  0
  191.4250  174.7470  136.4260 N   0  0  0  0  0  0  0  0  0  0  0  0
  196.6240  171.9660  137.5610 C   0  0  1  0  0  3  0  0  0  0  0  0
  193.2460  173.4230  136.6490 C   0  0  1  0  0  0  0  0  0  0  0  0
  197.5500  170.8020  137.1790 C   0  0  0  0  0  2  0  0  0  0  0  0
  192.6080  174.6040  137.1710 N   0  0  0  0  0  2  0  0  0  0  0  0
  194.6730  173.6160  136.2280 C   0  0  2  0  0  3  0  0  0  0  0  0
  192.2220  172.4360  135.5610 S   0  0  0  0  0  0  0  0  0  0  0  0
  191.0790  173.7840  135.4520 N   0  0  0  0  0  2  0  0  0  0  0  0
  198.9870  172.2320  135.6790 C   0  0  0  0  0  2  0  0  0  0  0  0
  198.9690  171.2810  136.8850 C   0  0  0  0  0  2  0  0  0  0  0  0
  197.7810  173.1810  135.6200 C   0  0  0  0  0  2  0  0  0  0  0  0
  197.1230  173.3450  136.9930 C   0  0  1  0  0  3  0  0  0  0  0  0
  195.1770  171.5940  137.1700 C   0  0  0  0  0  2  0  0  0  0  0  0
  189.1760  177.6400  144.3460 C   0  0  0  0  0  0  0  0  0  0  0  0
  189.3890  178.2220  143.0570 N   0  0  0  0  0  2  0  0  0  0  0  0
  188.2910  176.7550  144.5110 O   0  0  0  0  0  0  0  0  0  0  0  0
  191.4550  176.6470  147.7220 O   0  0  0  0  0  0  0  0  0  0  0  0
  190.0740  176.4420  147.5900 C   0  0  0  0  0  2  0  0  0  0  0  0
  189.4800  177.6110  146.8550 C   0  0  0  0  0  0  0  0  0  0  0  0
  192.0800  175.9380  146.6720 C   0  0  0  0  0  2  0  0  0  0  0  0
  191.6950  176.4730  145.2840 C   0  0  0  0  0  2  0  0  0  0  0  0
  190.0220  178.0510  145.5140 C   0  0  1  0  0  3  0  0  0  0  0  0
  191.4170  177.8570  145.3320 O   0  0  0  0  0  0  0  0  0  0  0  0
  188.5160  178.1890  147.3290 O   0  0  0  0  0  0  0  0  0  0  0  0
  186.4000  178.6690  141.8580 C   0  0  0  0  0  2  0  0  0  0  0  0
  180.9720  179.5040  139.3430 O   0  0  0  0  0  0  0  0  0  0  0  0
  183.5770  178.6400  142.3910 N   0  0  0  0  0  2  0  0  0  0  0  0
  182.1950  178.8420  142.6750 C   0  0  0  0  0  0  0  0  0  0  0  0
  181.7830  178.8100  143.8650 O   0  0  0  0  0  0  0  0  0  0  0  0
  183.0810  178.5200  139.8920 C   0  0  2  0  0  3  0  0  0  0  0  0
  181.2870  179.1170  141.6100 N   0  0  0  0  0  2  0  0  0  0  0  0
  184.0520  178.6100  141.0410 C   0  0  0  0  0  0  0  0  0  0  0  0
  181.7330  179.0860  140.2510 C   0  0  0  0  0  0  0  0  0  0  0  0
  185.3610  178.6140  140.7810 C   0  0  0  0  0  3  0  0  0  0  0  0
  182.9410  177.0650  139.4580 C   0  0  0  0  0  2  0  0  0  0  0  0
  183.6390  176.8490  138.2680 O   0  0  0  0  0  1  0  0  0  0  0  0
  2  7  1  0  0  0  0
  3  2  1  0  0  0  0
  3  4  1  0  0  0  0
  4  1  1  0  0  0  0
  4  6  1  0  0  0  0
  4  5  1  0  0  0  0
  5 30  1  1  0  0  0
  7 40  1  1  0  0  0
  7  5  1  0  0  0  0
  8 11  2  0  0  0  0
  8 10  1  0  0  0  0
  9 13  1  0  0  0  0
 10  9  2  0  0  0  0
 11 12  1  0  0  0  0
 12 13  2  0  0  0  0
 13  3  1  0  0  0  0
 14 28  1  6  0  0  0
 15 27  1  0  0  0  0
 16 10  1  0  0  0  0
 16 20  1  0  0  0  0
 17 28  1  6  0  0  0
 18 22  1  6  0  0  0
 18 20  1  0  0  0  0
 18 14  1  0  0  0  0
 19 17  1  0  0  0  0
 21 18  1  0  0  0  0
 21 15  1  1  0  0  0
 21 14  1  0  0  0  0
 23 22  1  0  0  0  0
 23 16  1  0  0  0  0
 24 25  1  0  0  0  0
 25 19  1  0  0  0  0
 26 24  1  0  0  0  0
 27 26  1  6  0  0  0
 27 17  1  0  0  0  0
 29 31  2  0  0  0  0
 30 29  1  0  0  0  0
 33 32  1  0  0  0  0
 34 39  2  0  0  0  0
 34 33  1  0  0  0  0
 35 32  1  0  0  0  0
 36 38  1  0  0  0  0
 36 35  1  0  0  0  0
 37 29  1  6  0  0  0
 37 34  1  0  0  0  0
 38 37  1  0  0  0  0
 41 48  2  0  0  0  0
 42 43  1  0  0  0  0
 43 44  2  0  0  0  0
 45 50  1  1  0  0  0
 45 48  1  0  0  0  0
 45 47  1  0  0  0  0
 46 43  1  0  0  0  0
 47 42  1  0  0  0  0
 48 46  1  0  0  0  0
 49 47  2  0  0  0  0
 49 40  1  0  0  0  0
 51 50  1  0  0  0  0
M  END
>  <MODEL>
1

>  <REMARK>
 VINA RESULT:      -8.4      0.000      0.000
  Name = 
  7 active torsions:
  status: ('A' for Active; 'I' for Inactive)
    1  A    between atoms: C_1  and  C_35
    2  A    between atoms: N_9  and  C_20
    3  A    between atoms: N_12  and  C_51
    4  A    between atoms: N_19  and  C_27
    5  A    between atoms: C_31  and  C_33
    6  A    between atoms: C_42  and  C_45
    7  A    between atoms: C_42  and  C_49
                            x       y       z     vdW  Elec       q    Type
                         _______ _______ _______ _____ _____    ______ ____

>  <TORSDO>
F 7

$$$$
=
 OpenBabel10222417133D

 51 58  0  0  1  0  0  0  0  0999 V2000
  189.5970  173.1850  137.0880 C   0  0  0  0  0  1  0  0  0  0  0  0
  188.4920  176.3810  138.1490 C   0  0  0  0  0  2  0  0  0  0  0  0
  188.2030  175.1760  137.3920 N   0  0  0  0  0  0  0  0  0  0  0  0
  189.3870  174.6430  136.7250 C   0  0  0  0  0  0  0  0  0  0  0  0
  190.5520  175.4640  137.2880 C   0  0  2  0  0  3  0  0  0  0  0  0
  189.2390  174.7850  135.2140 C   0  0  0  0  0  1  0  0  0  0  0  0
  189.9360  176.7400  137.8400 C   0  0  2  0  0  3  0  0  0  0  0  0
  184.3190  173.4570  137.2520 C   0  0  0  0  0  3  0  0  0  0  0  0
  185.7510  175.4020  137.1520 C   0  0  0  0  0  3  0  0  0  0  0  0
  184.4660  174.8430  137.1060 C   0  0  0  0  0  0  0  0  0  0  0  0
  185.4380  172.6440  137.4540 C   0  0  0  0  0  3  0  0  0  0  0  0
  186.7130  173.2130  137.5070 C   0  0  0  0  0  3  0  0  0  0  0  0
  186.8830  174.5970  137.3480 C   0  0  0  0  0  0  0  0  0  0  0  0
  181.9580  179.0620  136.6350 C   0  0  2  0  0  3  0  0  0  0  0  0
  182.6440  179.6080  138.9970 S   0  0  0  0  0  0  0  0  0  0  0  0
  183.3150  175.6820  136.9290 N   0  0  0  0  0  0  0  0  0  0  0  0
  180.8880  181.1640  137.2750 C   0  0  1  0  0  3  0  0  0  0  0  0
  182.0990  177.5910  136.9120 C   0  0  1  0  0  0  0  0  0  0  0  0
  179.5920  181.9850  137.2040 C   0  0  0  0  0  2  0  0  0  0  0  0
  183.4340  177.0750  137.0730 N   0  0  0  0  0  2  0  0  0  0  0  0
  181.6340  178.4830  138.0250 C   0  0  2  0  0  3  0  0  0  0  0  0
  180.9080  176.4080  136.2890 S   0  0  0  0  0  0  0  0  0  0  0  0
  182.0620  175.1060  136.6240 N   0  0  0  0  0  2  0  0  0  0  0  0
  179.2960  182.0220  139.7090 C   0  0  0  0  0  2  0  0  0  0  0  0
  179.4160  182.8710  138.4340 C   0  0  0  0  0  2  0  0  0  0  0  0
  180.2110  180.7890  139.7210 C   0  0  0  0  0  2  0  0  0  0  0  0
  181.3850  180.9470  138.7510 C   0  0  1  0  0  3  0  0  0  0  0  0
  180.6950  179.8650  136.4630 C   0  0  0  0  0  2  0  0  0  0  0  0
  192.9410  175.3450  136.4810 C   0  0  0  0  0  0  0  0  0  0  0  0
  191.5850  175.7640  136.3030 N   0  0  0  0  0  2  0  0  0  0  0  0
  193.3070  174.8010  137.5590 O   0  0  0  0  0  0  0  0  0  0  0  0
  196.7910  174.7680  134.9280 O   0  0  0  0  0  0  0  0  0  0  0  0
  196.4800  175.5620  136.0420 C   0  0  0  0  0  2  0  0  0  0  0  0
  195.1830  176.2740  135.7790 C   0  0  0  0  0  0  0  0  0  0  0  0
  196.3440  173.4590  135.2140 C   0  0  0  0  0  2  0  0  0  0  0  0
  194.8190  173.3800  135.3860 C   0  0  0  0  0  2  0  0  0  0  0  0
  193.9390  175.5160  135.3750 C   0  0  1  0  0  3  0  0  0  0  0  0
  194.1670  174.3510  134.5960 O   0  0  0  0  0  0  0  0  0  0  0  0
  195.1230  177.4830  135.9350 O   0  0  0  0  0  0  0  0  0  0  0  0
  190.6860  177.1650  139.0980 C   0  0  0  0  0  2  0  0  0  0  0  0
  188.8300  178.6370  144.6540 O   0  0  0  0  0  0  0  0  0  0  0  0
  190.7390  176.3350  141.8470 N   0  0  0  0  0  2  0  0  0  0  0  0
  190.9290  176.0660  143.2340 C   0  0  0  0  0  0  0  0  0  0  0  0
  191.7240  175.1590  143.5990 O   0  0  0  0  0  0  0  0  0  0  0  0
  188.7920  177.8940  142.3820 C   0  0  2  0  0  3  0  0  0  0  0  0
  190.2440  176.8520  144.2070 N   0  0  0  0  0  2  0  0  0  0  0  0
  189.7930  177.3180  141.4140 C   0  0  0  0  0  0  0  0  0  0  0  0
  189.2880  177.8350  143.8020 C   0  0  0  0  0  0  0  0  0  0  0  0
  189.7530  177.7050  140.1370 C   0  0  0  0  0  3  0  0  0  0  0  0
  187.4720  177.1410  142.2550 C   0  0  0  0  0  2  0  0  0  0  0  0
  186.4210  178.0410  142.0740 O   0  0  0  0  0  1  0  0  0  0  0  0
  3  2  1  0  0  0  0
  4  1  1  0  0  0  0
  4  5  1  0  0  0  0
  4  3  1  0  0  0  0
  5 30  1  6  0  0  0
  5  7  1  0  0  0  0
  6  4  1  0  0  0  0
  7  2  1  0  0  0  0
  7 40  1  1  0  0  0
  8 11  1  0  0  0  0
  9 13  2  0  0  0  0
 10  9  1  0  0  0  0
 10  8  2  0  0  0  0
 11 12  2  0  0  0  0
 13  3  1  0  0  0  0
 13 12  1  0  0  0  0
 14 28  1  6  0  0  0
 14 18  1  0  0  0  0
 14 21  1  0  0  0  0
 16 20  1  0  0  0  0
 16 10  1  0  0  0  0
 17 28  1  1  0  0  0
 17 27  1  0  0  0  0
 18 22  1  6  0  0  0
 18 20  1  0  0  0  0
 18 21  1  0  0  0  0
 19 17  1  0  0  0  0
 19 25  1  0  0  0  0
 21 15  1  1  0  0  0
 22 23  1  0  0  0  0
 23 16  1  0  0  0  0
 24 26  1  0  0  0  0
 25 24  1  0  0  0  0
 27 15  1  0  0  0  0
 27 26  1  1  0  0  0
 29 31  2  0  0  0  0
 30 29  1  0  0  0  0
 32 35  1  0  0  0  0
 32 33  1  0  0  0  0
 34 39  2  0  0  0  0
 34 33  1  0  0  0  0
 35 36  1  0  0  0  0
 37 34  1  0  0  0  0
 37 29  1  1  0  0  0
 38 37  1  0  0  0  0
 38 36  1  0  0  0  0
 40 49  1  0  0  0  0
 42 43  1  0  0  0  0
 43 44  2  0  0  0  0
 43 46  1  0  0  0  0
 45 50  1  1  0  0  0
 45 48  1  0  0  0  0
 47 42  1  0  0  0  0
 47 45  1  0  0  0  0
 48 46  1  0  0  0  0
 48 41  2  0  0  0  0
 49 47  2  0  0  0  0
 51 50  1  0  0  0  0
M  END
>  <MODEL>
2

>  <REMARK>
 VINA RESULT:      -7.7      4.860     11.180
  Name = 
  7 active torsions:
  status: ('A' for Active; 'I' for Inactive)
    1  A    between atoms: C_1  and  C_35
    2  A    between atoms: N_9  and  C_20
    3  A    between atoms: N_12  and  C_51
    4  A    between atoms: N_19  and  C_27
    5  A    between atoms: C_31  and  C_33
    6  A    between atoms: C_42  and  C_45
    7  A    between atoms: C_42  and  C_49
                            x       y       z     vdW  Elec       q    Type
                         _______ _______ _______ _____ _____    ______ ____

>  <TORSDO>
F 7

$$$$
=
 OpenBabel10222417133D

 51 58  0  0  1  0  0  0  0  0999 V2000
  184.8120  177.0640  134.9620 C   0  0  0  0  0  1  0  0  0  0  0  0
  184.9290  178.1270  138.3400 C   0  0  0  0  0  2  0  0  0  0  0  0
  185.4940  177.2810  137.3040 N   0  0  0  0  0  0  0  0  0  0  0  0
  184.4740  176.7480  136.4060 C   0  0  0  0  0  0  0  0  0  0  0  0
  183.1930  177.4960  136.7870 C   0  0  2  0  0  3  0  0  0  0  0  0
  184.3560  175.2390  136.5930 C   0  0  0  0  0  1  0  0  0  0  0  0
  183.4200  178.0250  138.1940 C   0  0  2  0  0  3  0  0  0  0  0  0
  189.6690  176.5530  136.9920 C   0  0  0  0  0  3  0  0  0  0  0  0
  187.7390  177.1180  138.3320 C   0  0  0  0  0  3  0  0  0  0  0  0
  189.1180  176.8820  138.2380 C   0  0  0  0  0  0  0  0  0  0  0  0
  188.8580  176.4760  135.8560 C   0  0  0  0  0  3  0  0  0  0  0  0
  187.4870  176.7230  135.9610 C   0  0  0  0  0  3  0  0  0  0  0  0
  186.9120  177.0390  137.2010 C   0  0  0  0  0  0  0  0  0  0  0  0
  190.6450  175.9480  142.8320 C   0  0  2  0  0  3  0  0  0  0  0  0
  188.4920  176.9770  143.6410 S   0  0  0  0  0  0  0  0  0  0  0  0
  189.9550  176.9910  139.3990 N   0  0  0  0  0  0  0  0  0  0  0  0
  190.6930  175.9980  145.2740 C   0  0  1  0  0  3  0  0  0  0  0  0
  190.5750  176.7490  141.5610 C   0  0  1  0  0  0  0  0  0  0  0  0
  191.5680  176.2680  146.5070 C   0  0  0  0  0  2  0  0  0  0  0  0
  189.5660  176.3790  140.6030 N   0  0  0  0  0  2  0  0  0  0  0  0
  190.0450  177.3660  142.8220 C   0  0  2  0  0  3  0  0  0  0  0  0
  192.0360  177.5080  140.8570 S   0  0  0  0  0  0  0  0  0  0  0  0
  191.1610  177.7230  139.3330 N   0  0  0  0  0  2  0  0  0  0  0  0
  190.1160  178.1660  147.3140 C   0  0  0  0  0  2  0  0  0  0  0  0
  190.7490  176.8130  147.6740 C   0  0  0  0  0  2  0  0  0  0  0  0
  189.6190  178.2520  145.8640 C   0  0  0  0  0  2  0  0  0  0  0  0
  189.3800  176.8640  145.2650 C   0  0  1  0  0  3  0  0  0  0  0  0
  191.5660  176.1370  144.0080 C   0  0  0  0  0  2  0  0  0  0  0  0
  181.5220  175.9380  137.8610 C   0  0  0  0  0  0  0  0  0  0  0  0
  181.9930  176.6700  136.7260 N   0  0  0  0  0  2  0  0  0  0  0  0
  182.2040  175.8930  138.9220 O   0  0  0  0  0  0  0  0  0  0  0  0
  178.9470  173.1150  136.1370 O   0  0  0  0  0  0  0  0  0  0  0  0
  179.4200  174.2720  135.5010 C   0  0  0  0  0  2  0  0  0  0  0  0
  179.4630  175.3910  136.5030 C   0  0  0  0  0  0  0  0  0  0  0  0
  180.0780  172.3550  136.5100 C   0  0  0  0  0  2  0  0  0  0  0  0
  180.9650  173.0790  137.5350 C   0  0  0  0  0  2  0  0  0  0  0  0
  180.1960  175.2400  137.8170 C   0  0  1  0  0  3  0  0  0  0  0  0
  180.1970  173.9280  138.3610 O   0  0  0  0  0  0  0  0  0  0  0  0
  178.9310  176.4550  136.2340 O   0  0  0  0  0  0  0  0  0  0  0  0
  182.7530  179.3890  138.3400 C   0  0  0  0  0  2  0  0  0  0  0  0
  179.3340  179.6250  143.3140 O   0  0  0  0  0  0  0  0  0  0  0  0
  182.7270  178.8180  141.1560 N   0  0  0  0  0  2  0  0  0  0  0  0
  182.7580  178.7470  142.5790 C   0  0  0  0  0  0  0  0  0  0  0  0
  183.8380  178.4910  143.1760 O   0  0  0  0  0  0  0  0  0  0  0  0
  180.1800  178.9450  141.1830 C   0  0  2  0  0  3  0  0  0  0  0  0
  181.5700  179.0030  143.3260 N   0  0  0  0  0  2  0  0  0  0  0  0
  181.4970  179.0450  140.4590 C   0  0  0  0  0  0  0  0  0  0  0  0
  180.3270  179.2250  142.6550 C   0  0  0  0  0  0  0  0  0  0  0  0
  181.4960  179.3020  139.1490 C   0  0  0  0  0  3  0  0  0  0  0  0
  179.5870  177.5570  140.9700 C   0  0  0  0  0  2  0  0  0  0  0  0
  179.3060  176.9600  142.2000 O   0  0  0  0  0  1  0  0  0  0  0  0
  1  4  1  0  0  0  0
  3  2  1  0  0  0  0
  4  6  1  0  0  0  0
  4  5  1  0  0  0  0
  4  3  1  0  0  0  0
  5 30  1  1  0  0  0
  5  7  1  0  0  0  0
  7  2  1  0  0  0  0
  7 40  1  6  0  0  0
  8 10  1  0  0  0  0
 10  9  2  0  0  0  0
 10 16  1  0  0  0  0
 11 12  1  0  0  0  0
 11  8  2  0  0  0  0
 12 13  2  0  0  0  0
 13  3  1  0  0  0  0
 13  9  1  0  0  0  0
 14 28  1  1  0  0  0
 15 27  1  0  0  0  0
 16 20  1  0  0  0  0
 17 28  1  6  0  0  0
 17 19  1  0  0  0  0
 18 20  1  6  0  0  0
 18 21  1  0  0  0  0
 18 14  1  0  0  0  0
 19 25  1  0  0  0  0
 21 14  1  0  0  0  0
 21 15  1  6  0  0  0
 22 18  1  0  0  0  0
 23 16  1  0  0  0  0
 23 22  1  0  0  0  0
 24 25  1  0  0  0  0
 26 24  1  0  0  0  0
 27 17  1  0  0  0  0
 27 26  1  6  0  0  0
 29 31  2  0  0  0  0
 30 29  1  0  0  0  0
 32 35  1  0  0  0  0
 33 32  1  0  0  0  0
 33 34  1  0  0  0  0
 34 37  1  0  0  0  0
 35 36  1  0  0  0  0
 36 38  1  0  0  0  0
 37 29  1  6  0  0  0
 37 38  1  0  0  0  0
 39 34  2  0  0  0  0
 40 49  1  0  0  0  0
 42 43  1  0  0  0  0
 43 44  2  0  0  0  0
 43 46  1  0  0  0  0
 45 50  1  1  0  0  0
 45 48  1  0  0  0  0
 47 42  1  0  0  0  0
 47 45  1  0  0  0  0
 48 41  2  0  0  0  0
 48 46  1  0  0  0  0
 49 47  2  0  0  0  0
 50 51  1  0  0  0  0
M  END
>  <MODEL>
3

>  <REMARK>
 VINA RESULT:      -7.4      4.738      8.946
  Name = 
  7 active torsions:
  status: ('A' for Active; 'I' for Inactive)
    1  A    between atoms: C_1  and  C_35
    2  A    between atoms: N_9  and  C_20
    3  A    between atoms: N_12  and  C_51
    4  A    between atoms: N_19  and  C_27
    5  A    between atoms: C_31  and  C_33
    6  A    between atoms: C_42  and  C_45
    7  A    between atoms: C_42  and  C_49
                            x       y       z     vdW  Elec       q    Type
                         _______ _______ _______ _____ _____    ______ ____

>  <TORSDO>
F 7

$$$$
=
 OpenBabel10222417133D

 51 58  0  0  1  0  0  0  0  0999 V2000
  189.5760  173.6960  137.2300 C   0  0  0  0  0  1  0  0  0  0  0  0
  187.9960  176.4620  135.6760 C   0  0  0  0  0  2  0  0  0  0  0  0
  188.0020  175.0280  135.9080 N   0  0  0  0  0  0  0  0  0  0  0  0
  189.3540  174.4790  135.9500 C   0  0  0  0  0  0  0  0  0  0  0  0
  190.2700  175.7070  135.9580 C   0  0  2  0  0  3  0  0  0  0  0  0
  189.5850  173.5770  134.7430 C   0  0  0  0  0  1  0  0  0  0  0  0
  189.4390  176.8540  135.4070 C   0  0  2  0  0  3  0  0  0  0  0  0
  184.4180  172.8040  136.4250 C   0  0  0  0  0  3  0  0  0  0  0  0
  185.6100  174.9040  136.5290 C   0  0  0  0  0  3  0  0  0  0  0  0
  184.4240  174.1780  136.7040 C   0  0  0  0  0  0  0  0  0  0  0  0
  185.5820  172.1650  135.9910 C   0  0  0  0  0  3  0  0  0  0  0  0
  186.7610  172.8970  135.8290 C   0  0  0  0  0  3  0  0  0  0  0  0
  186.7850  174.2760  136.0890 C   0  0  0  0  0  0  0  0  0  0  0  0
  181.6750  177.8650  138.4810 C   0  0  2  0  0  3  0  0  0  0  0  0
  183.0860  177.7680  140.5660 S   0  0  0  0  0  0  0  0  0  0  0  0
  183.2360  174.8290  137.1780 N   0  0  0  0  0  0  0  0  0  0  0  0
  180.7690  179.4640  140.0910 C   0  0  1  0  0  3  0  0  0  0  0  0
  181.9820  176.4240  138.1810 C   0  0  1  0  0  0  0  0  0  0  0  0
  179.4820  180.0430  140.6970 C   0  0  0  0  0  2  0  0  0  0  0  0
  183.3200  176.1110  137.7480 N   0  0  0  0  0  2  0  0  0  0  0  0
  181.8700  176.8440  139.6160 C   0  0  2  0  0  3  0  0  0  0  0  0
  180.7180  175.3090  137.5770 S   0  0  0  0  0  0  0  0  0  0  0  0
  181.9870  174.1760  137.0830 N   0  0  0  0  0  2  0  0  0  0  0  0
  180.0460  179.2630  143.0290 C   0  0  0  0  0  2  0  0  0  0  0  0
  179.6820  180.4690  142.1490 C   0  0  0  0  0  2  0  0  0  0  0  0
  180.9780  178.2530  142.3430 C   0  0  0  0  0  2  0  0  0  0  0  0
  181.7460  178.8920  141.1830 C   0  0  1  0  0  3  0  0  0  0  0  0
  180.3860  178.4630  138.9800 C   0  0  0  0  0  2  0  0  0  0  0  0
  192.7860  175.5700  135.7980 C   0  0  0  0  0  0  0  0  0  0  0  0
  191.4940  175.5290  135.1850 N   0  0  0  0  0  2  0  0  0  0  0  0
  192.9080  175.8810  137.0140 O   0  0  0  0  0  0  0  0  0  0  0  0
  196.5680  173.7780  135.5590 O   0  0  0  0  0  0  0  0  0  0  0  0
  196.2510  174.8970  136.3450 C   0  0  0  0  0  2  0  0  0  0  0  0
  195.2950  175.7680  135.5800 C   0  0  0  0  0  0  0  0  0  0  0  0
  195.7230  172.7260  135.9780 C   0  0  0  0  0  2  0  0  0  0  0  0
  194.2370  173.0250  135.7230 C   0  0  0  0  0  2  0  0  0  0  0  0
  194.0100  175.2110  135.0110 C   0  0  1  0  0  3  0  0  0  0  0  0
  194.0720  173.8550  134.5940 O   0  0  0  0  0  0  0  0  0  0  0  0
  195.5400  176.9570  135.4520 O   0  0  0  0  0  0  0  0  0  0  0  0
  189.8080  178.1450  136.1290 C   0  0  0  0  0  2  0  0  0  0  0  0
  187.2630  179.3280  141.4770 O   0  0  0  0  0  0  0  0  0  0  0  0
  189.6550  177.2670  138.8600 N   0  0  0  0  0  2  0  0  0  0  0  0
  189.7260  176.9880  140.2560 C   0  0  0  0  0  0  0  0  0  0  0  0
  190.5600  176.1500  140.6910 O   0  0  0  0  0  0  0  0  0  0  0  0
  187.5280  178.6310  139.2050 C   0  0  2  0  0  3  0  0  0  0  0  0
  188.8750  177.6880  141.1610 N   0  0  0  0  0  2  0  0  0  0  0  0
  188.6720  178.1690  138.3410 C   0  0  0  0  0  0  0  0  0  0  0  0
  187.8790  178.5890  140.6680 C   0  0  0  0  0  0  0  0  0  0  0  0
  188.7270  178.5760  137.0710 C   0  0  0  0  0  3  0  0  0  0  0  0
  186.3040  177.7640  138.9340 C   0  0  0  0  0  2  0  0  0  0  0  0
  185.4240  178.4290  138.0780 O   0  0  0  0  0  1  0  0  0  0  0  0
  2  3  1  0  0  0  0
  3  4  1  0  0  0  0
  3 13  1  0  0  0  0
  4  5  1  0  0  0  0
  4  1  1  0  0  0  0
  5 30  1  6  0  0  0
  6  4  1  0  0  0  0
  7  2  1  0  0  0  0
  7  5  1  0  0  0  0
  7 40  1  1  0  0  0
  8 10  1  0  0  0  0
  9 10  2  0  0  0  0
 10 16  1  0  0  0  0
 11  8  2  0  0  0  0
 12 11  1  0  0  0  0
 12 13  2  0  0  0  0
 13  9  1  0  0  0  0
 14 28  1  6  0  0  0
 14 21  1  0  0  0  0
 15 27  1  0  0  0  0
 16 20  1  0  0  0  0
 17 28  1  6  0  0  0
 17 19  1  0  0  0  0
 17 27  1  0  0  0  0
 18 22  1  6  0  0  0
 18 14  1  0  0  0  0
 18 21  1  0  0  0  0
 19 25  1  0  0  0  0
 20 18  1  0  0  0  0
 21 15  1  1  0  0  0
 23 16  1  0  0  0  0
 23 22  1  0  0  0  0
 25 24  1  0  0  0  0
 26 24  1  0  0  0  0
 27 26  1  1  0  0  0
 29 31  2  0  0  0  0
 30 29  1  0  0  0  0
 32 35  1  0  0  0  0
 32 33  1  0  0  0  0
 34 33  1  0  0  0  0
 36 35  1  0  0  0  0
 37 34  1  0  0  0  0
 37 29  1  1  0  0  0
 38 37  1  0  0  0  0
 38 36  1  0  0  0  0
 39 34  2  0  0  0  0
 40 49  1  0  0  0  0
 42 43  1  0  0  0  0
 43 44  2  0  0  0  0
 43 46  1  0  0  0  0
 45 50  1  1  0  0  0
 45 48  1  0  0  0  0
 47 42  1  0  0  0  0
 47 45  1  0  0  0  0
 48 46  1  0  0  0  0
 48 41  2  0  0  0  0
 49 47  2  0  0  0  0
 51 50  1  0  0  0  0
M  END
>  <MODEL>
4

>  <REMARK>
 VINA RESULT:      -7.4      4.758     10.917
  Name = 
  7 active torsions:
  status: ('A' for Active; 'I' for Inactive)
    1  A    between atoms: C_1  and  C_35
    2  A    between atoms: N_9  and  C_20
    3  A    between atoms: N_12  and  C_51
    4  A    between atoms: N_19  and  C_27
    5  A    between atoms: C_31  and  C_33
    6  A    between atoms: C_42  and  C_45
    7  A    between atoms: C_42  and  C_49
                            x       y       z     vdW  Elec       q    Type
                         _______ _______ _______ _____ _____    ______ ____

>  <TORSDO>
F 7

$$$$
=
 OpenBabel10222417133D

 51 58  0  0  1  0  0  0  0  0999 V2000
  188.8210  179.4070  138.4260 C   0  0  0  0  0  1  0  0  0  0  0  0
  189.8680  176.1170  137.6280 C   0  0  0  0  0  2  0  0  0  0  0  0
  188.7600  177.0380  137.8050 N   0  0  0  0  0  0  0  0  0  0  0  0
  188.9890  177.9760  138.9010 C   0  0  0  0  0  0  0  0  0  0  0  0
  190.4520  177.7580  139.2980 C   0  0  2  0  0  3  0  0  0  0  0  0
  188.0170  177.6900  140.0400 C   0  0  0  0  0  1  0  0  0  0  0  0
  190.8260  176.3790  138.7780 C   0  0  2  0  0  3  0  0  0  0  0  0
  185.3280  176.9520  135.3000 C   0  0  0  0  0  3  0  0  0  0  0  0
  186.3090  177.1720  137.4990 C   0  0  0  0  0  3  0  0  0  0  0  0
  185.1710  177.1430  136.6800 C   0  0  0  0  0  0  0  0  0  0  0  0
  186.6010  176.7780  134.7500 C   0  0  0  0  0  3  0  0  0  0  0  0
  187.7270  176.8000  135.5780 C   0  0  0  0  0  3  0  0  0  0  0  0
  187.5930  177.0050  136.9590 C   0  0  0  0  0  0  0  0  0  0  0  0
  181.6250  179.1870  139.4290 C   0  0  2  0  0  3  0  0  0  0  0  0
  183.0140  178.6170  141.4520 S   0  0  0  0  0  0  0  0  0  0  0  0
  183.8610  177.2900  137.2500 N   0  0  0  0  0  0  0  0  0  0  0  0
  180.3630  179.8180  141.4240 C   0  0  1  0  0  3  0  0  0  0  0  0
  182.2640  178.0720  138.6490 C   0  0  1  0  0  0  0  0  0  0  0  0
  178.9750  179.8280  142.0800 C   0  0  0  0  0  2  0  0  0  0  0  0
  183.6390  178.2460  138.2560 N   0  0  0  0  0  2  0  0  0  0  0  0
  182.0530  177.8810  140.1220 C   0  0  2  0  0  3  0  0  0  0  0  0
  181.3010  177.0220  137.5650 S   0  0  0  0  0  0  0  0  0  0  0  0
  182.8030  176.4660  136.8080 N   0  0  0  0  0  2  0  0  0  0  0  0
  179.7010  178.3660  144.0030 C   0  0  0  0  0  2  0  0  0  0  0  0
  179.0650  179.7050  143.5990 C   0  0  0  0  0  2  0  0  0  0  0  0
  180.8470  177.9210  143.0820 C   0  0  0  0  0  2  0  0  0  0  0  0
  181.4450  179.1020  142.3140 C   0  0  1  0  0  3  0  0  0  0  0  0
  180.2300  179.2550  139.9930 C   0  0  0  0  0  2  0  0  0  0  0  0
  190.5660  176.7270  141.5990 C   0  0  0  0  0  0  0  0  0  0  0  0
  190.6900  177.8580  140.7330 N   0  0  0  0  0  2  0  0  0  0  0  0
  190.1300  175.6280  141.1580 O   0  0  0  0  0  0  0  0  0  0  0  0
  189.9850  178.2240  145.4710 O   0  0  0  0  0  0  0  0  0  0  0  0
  190.3110  178.9970  144.3460 C   0  0  0  0  0  2  0  0  0  0  0  0
  191.2860  178.2280  143.4990 C   0  0  0  0  0  0  0  0  0  0  0  0
  188.7720  177.5610  145.1810 C   0  0  0  0  0  2  0  0  0  0  0  0
  188.9010  176.5780  144.0060 C   0  0  0  0  0  2  0  0  0  0  0  0
  190.9840  176.8210  143.0360 C   0  0  1  0  0  3  0  0  0  0  0  0
  190.2060  176.0430  143.9330 O   0  0  0  0  0  0  0  0  0  0  0  0
  192.3230  178.7660  143.1440 O   0  0  0  0  0  0  0  0  0  0  0  0
  192.2750  176.3890  138.3040 C   0  0  0  0  0  2  0  0  0  0  0  0
  195.3170  171.1930  137.8170 O   0  0  0  0  0  0  0  0  0  0  0  0
  194.8470  175.1710  138.6990 N   0  0  0  0  0  2  0  0  0  0  0  0
  196.0410  174.4960  139.0840 C   0  0  0  0  0  0  0  0  0  0  0  0
  196.9270  175.1040  139.7430 O   0  0  0  0  0  0  0  0  0  0  0  0
  194.1710  173.2060  137.2200 C   0  0  2  0  0  3  0  0  0  0  0  0
  196.2130  173.1190  138.7540 N   0  0  0  0  0  2  0  0  0  0  0  0
  193.8590  174.5150  137.8970 C   0  0  0  0  0  0  0  0  0  0  0  0
  195.2450  172.4410  137.9480 C   0  0  0  0  0  0  0  0  0  0  0  0
  192.6640  175.0750  137.6990 C   0  0  0  0  0  3  0  0  0  0  0  0
  194.5970  173.4670  135.7800 C   0  0  0  0  0  2  0  0  0  0  0  0
  195.9360  173.8590  135.7390 O   0  0  0  0  0  1  0  0  0  0  0  0
  1  4  1  0  0  0  0
  2  3  1  0  0  0  0
  2  7  1  0  0  0  0
  3  4  1  0  0  0  0
  4  5  1  0  0  0  0
  4  6  1  0  0  0  0
  5 30  1  1  0  0  0
  7 40  1  6  0  0  0
  7  5  1  0  0  0  0
  8 10  1  0  0  0  0
 10 16  1  0  0  0  0
 10  9  2  0  0  0  0
 11  8  2  0  0  0  0
 11 12  1  0  0  0  0
 12 13  2  0  0  0  0
 13  9  1  0  0  0  0
 13  3  1  0  0  0  0
 14 28  1  6  0  0  0
 14 21  1  0  0  0  0
 15 27  1  0  0  0  0
 16 20  1  0  0  0  0
 17 28  1  6  0  0  0
 17 19  1  0  0  0  0
 17 27  1  0  0  0  0
 18 22  1  6  0  0  0
 18 14  1  0  0  0  0
 18 21  1  0  0  0  0
 19 25  1  0  0  0  0
 20 18  1  0  0  0  0
 21 15  1  1  0  0  0
 23 16  1  0  0  0  0
 23 22  1  0  0  0  0
 25 24  1  0  0  0  0
 26 24  1  0  0  0  0
 27 26  1  6  0  0  0
 30 29  1  0  0  0  0
 31 29  2  0  0  0  0
 33 32  1  0  0  0  0
 34 33  1  0  0  0  0
 35 32  1  0  0  0  0
 36 35  1  0  0  0  0
 37 29  1  6  0  0  0
 37 34  1  0  0  0  0
 37 38  1  0  0  0  0
 38 36  1  0  0  0  0
 39 34  2  0  0  0  0
 41 48  2  0  0  0  0
 42 43  1  0  0  0  0
 43 44  2  0  0  0  0
 45 50  1  6  0  0  0
 45 47  1  0  0  0  0
 45 48  1  0  0  0  0
 46 43  1  0  0  0  0
 47 42  1  0  0  0  0
 48 46  1  0  0  0  0
 49 47  2  0  0  0  0
 49 40  1  0  0  0  0
 51 50  1  0  0  0  0
M  END
>  <MODEL>
5

>  <REMARK>
 VINA RESULT:      -7.4      4.206     11.152
  Name = 
  7 active torsions:
  status: ('A' for Active; 'I' for Inactive)
    1  A    between atoms: C_1  and  C_35
    2  A    between atoms: N_9  and  C_20
    3  A    between atoms: N_12  and  C_51
    4  A    between atoms: N_19  and  C_27
    5  A    between atoms: C_31  and  C_33
    6  A    between atoms: C_42  and  C_45
    7  A    between atoms: C_42  and  C_49
                            x       y       z     vdW  Elec       q    Type
                         _______ _______ _______ _____ _____    ______ ____

>  <TORSDO>
F 7

$$$$
=
 OpenBabel10222417133D

 51 58  0  0  1  0  0  0  0  0999 V2000
  187.0420  179.0190  136.6030 C   0  0  0  0  0  1  0  0  0  0  0  0
  188.3890  177.2710  139.3760 C   0  0  0  0  0  2  0  0  0  0  0  0
  188.1900  177.3160  137.9380 N   0  0  0  0  0  0  0  0  0  0  0  0
  186.8870  177.8660  137.5760 C   0  0  0  0  0  0  0  0  0  0  0  0
  186.3150  178.4050  138.8910 C   0  0  2  0  0  3  0  0  0  0  0  0
  186.0180  176.7770  136.9560 C   0  0  0  0  0  1  0  0  0  0  0  0
  187.0680  177.6880  140.0010 C   0  0  2  0  0  3  0  0  0  0  0  0
  191.1580  176.0040  135.1950 C   0  0  0  0  0  3  0  0  0  0  0  0
  190.4580  176.4490  137.4650 C   0  0  0  0  0  3  0  0  0  0  0  0
  191.4440  176.0170  136.5670 C   0  0  0  0  0  0  0  0  0  0  0  0
  189.9120  176.4290  134.7270 C   0  0  0  0  0  3  0  0  0  0  0  0
  188.9400  176.8680  135.6310 C   0  0  0  0  0  3  0  0  0  0  0  0
  189.2010  176.8740  137.0100 C   0  0  0  0  0  0  0  0  0  0  0  0
  195.9760  174.0920  136.3100 C   0  0  2  0  0  3  0  0  0  0  0  0
  194.8900  171.8800  135.7840 S   0  0  0  0  0  0  0  0  0  0  0  0
  192.7340  175.6080  137.0460 N   0  0  0  0  0  0  0  0  0  0  0  0
  197.7290  172.3970  136.1580 C   0  0  1  0  0  3  0  0  0  0  0  0
  194.7360  174.5540  137.0250 C   0  0  1  0  0  0  0  0  0  0  0  0
  199.0350  171.8820  136.7820 C   0  0  0  0  0  2  0  0  0  0  0  0
  193.5830  174.8540  136.2170 N   0  0  0  0  0  2  0  0  0  0  0  0
  195.0940  173.0990  137.0900 C   0  0  2  0  0  3  0  0  0  0  0  0
  194.8340  175.4680  138.5620 S   0  0  0  0  0  0  0  0  0  0  0  0
  193.1440  175.9540  138.3530 N   0  0  0  0  0  2  0  0  0  0  0  0
  198.0510  169.6340  137.3660 C   0  0  0  0  0  2  0  0  0  0  0  0
  199.1790  170.3700  136.6270 C   0  0  0  0  0  2  0  0  0  0  0  0
  196.6880  170.3340  137.2720 C   0  0  0  0  0  2  0  0  0  0  0  0
  196.6220  171.2830  136.0730 C   0  0  1  0  0  3  0  0  0  0  0  0
  197.2990  173.6800  136.9020 C   0  0  0  0  0  2  0  0  0  0  0  0
  183.9640  179.3120  139.0350 C   0  0  0  0  0  0  0  0  0  0  0  0
  184.8750  178.2110  139.0260 N   0  0  0  0  0  2  0  0  0  0  0  0
  184.3930  180.4990  139.0450 O   0  0  0  0  0  0  0  0  0  0  0  0
  180.7030  176.7310  138.5100 O   0  0  0  0  0  0  0  0  0  0  0  0
  181.6200  177.0890  137.5100 C   0  0  0  0  0  2  0  0  0  0  0  0
  181.9770  178.5390  137.6790 C   0  0  0  0  0  0  0  0  0  0  0  0
  181.4420  176.1320  139.5540 C   0  0  0  0  0  2  0  0  0  0  0  0
  182.4350  177.1050  140.2090 C   0  0  0  0  0  2  0  0  0  0  0  0
  182.4840  179.0730  139.0000 C   0  0  1  0  0  3  0  0  0  0  0  0
  181.9590  178.4320  140.1530 O   0  0  0  0  0  0  0  0  0  0  0  0
  181.8950  179.2900  136.7210 O   0  0  0  0  0  0  0  0  0  0  0  0
  187.2820  178.6420  141.1710 C   0  0  0  0  0  2  0  0  0  0  0  0
  190.6400  176.3940  145.6600 O   0  0  0  0  0  0  0  0  0  0  0  0
  187.3640  178.2300  144.0120 N   0  0  0  0  0  2  0  0  0  0  0  0
  187.3370  177.8230  145.3780 C   0  0  0  0  0  0  0  0  0  0  0  0
  186.2900  177.9760  146.0630 O   0  0  0  0  0  0  0  0  0  0  0  0
  189.8810  177.8340  143.9080 C   0  0  2  0  0  3  0  0  0  0  0  0
  188.4870  177.2080  145.9550 N   0  0  0  0  0  2  0  0  0  0  0  0
  188.5630  178.1210  143.2380 C   0  0  0  0  0  0  0  0  0  0  0  0
  189.7000  177.0930  145.2060 C   0  0  0  0  0  0  0  0  0  0  0  0
  188.5390  178.3200  141.9180 C   0  0  0  0  0  3  0  0  0  0  0  0
  190.6250  179.1430  144.1490 C   0  0  0  0  0  2  0  0  0  0  0  0
  191.9310  178.8830  144.5700 O   0  0  0  0  0  1  0  0  0  0  0  0
  1  4  1  0  0  0  0
  2  7  1  0  0  0  0
  3  2  1  0  0  0  0
  4  3  1  0  0  0  0
  4  5  1  0  0  0  0
  5 30  1  6  0  0  0
  5  7  1  0  0  0  0
  6  4  1  0  0  0  0
  7 40  1  1  0  0  0
  8 10  1  0  0  0  0
 10 16  1  0  0  0  0
 10  9  2  0  0  0  0
 11  8  2  0  0  0  0
 11 12  1  0  0  0  0
 12 13  2  0  0  0  0
 13  9  1  0  0  0  0
 13  3  1  0  0  0  0
 14 28  1  1  0  0  0
 14 18  1  0  0  0  0
 14 21  1  0  0  0  0
 15 27  1  0  0  0  0
 16 23  1  0  0  0  0
 17 19  1  1  0  0  0
 17 28  1  0  0  0  0
 18 20  1  6  0  0  0
 18 21  1  0  0  0  0
 18 22  1  0  0  0  0
 20 16  1  0  0  0  0
 21 15  1  6  0  0  0
 23 22  1  0  0  0  0
 25 19  1  0  0  0  0
 25 24  1  0  0  0  0
 26 24  1  0  0  0  0
 27 17  1  0  0  0  0
 27 26  1  1  0  0  0
 29 31  2  0  0  0  0
 30 29  1  0  0  0  0
 32 35  1  0  0  0  0
 33 34  1  0  0  0  0
 33 32  1  0  0  0  0
 34 37  1  0  0  0  0
 35 36  1  0  0  0  0
 37 29  1  6  0  0  0
 37 38  1  0  0  0  0
 38 36  1  0  0  0  0
 39 34  2  0  0  0  0
 40 49  1  0  0  0  0
 42 43  1  0  0  0  0
 43 46  1  0  0  0  0
 43 44  2  0  0  0  0
 45 50  1  1  0  0  0
 45 48  1  0  0  0  0
 47 45  1  0  0  0  0
 47 42  1  0  0  0  0
 48 41  2  0  0  0  0
 48 46  1  0  0  0  0
 49 47  2  0  0  0  0
 50 51  1  0  0  0  0
M  END
>  <MODEL>
6

>  <REMARK>
 VINA RESULT:      -7.3      1.974      6.640
  Name = 
  7 active torsions:
  status: ('A' for Active; 'I' for Inactive)
    1  A    between atoms: C_1  and  C_35
    2  A    between atoms: N_9  and  C_20
    3  A    between atoms: N_12  and  C_51
    4  A    between atoms: N_19  and  C_27
    5  A    between atoms: C_31  and  C_33
    6  A    between atoms: C_42  and  C_45
    7  A    between atoms: C_42  and  C_49
                            x       y       z     vdW  Elec       q    Type
                         _______ _______ _______ _____ _____    ______ ____

>  <TORSDO>
F 7

$$$$
=
 OpenBabel10222417133D

 51 58  0  0  1  0  0  0  0  0999 V2000
  184.6840  176.6890  134.5940 C   0  0  0  0  0  1  0  0  0  0  0  0
  184.4130  176.8460  138.1230 C   0  0  0  0  0  2  0  0  0  0  0  0
  185.2760  176.6620  136.9700 N   0  0  0  0  0  0  0  0  0  0  0  0
  184.6190  175.9190  135.8990 C   0  0  0  0  0  0  0  0  0  0  0  0
  183.1550  175.8180  136.3390 C   0  0  2  0  0  3  0  0  0  0  0  0
  185.2810  174.5570  135.7310 C   0  0  0  0  0  1  0  0  0  0  0  0
  183.1530  176.0440  137.8420 C   0  0  2  0  0  3  0  0  0  0  0  0
  189.2320  178.2070  136.8220 C   0  0  0  0  0  3  0  0  0  0  0  0
  187.4830  177.0460  138.0200 C   0  0  0  0  0  3  0  0  0  0  0  0
  188.7890  177.5540  137.9810 C   0  0  0  0  0  0  0  0  0  0  0  0
  188.3790  178.3610  135.7270 C   0  0  0  0  0  3  0  0  0  0  0  0
  187.0760  177.8590  135.7810 C   0  0  0  0  0  3  0  0  0  0  0  0
  186.6180  177.1890  136.9250 C   0  0  0  0  0  0  0  0  0  0  0  0
  190.1830  176.0700  142.4710 C   0  0  2  0  0  3  0  0  0  0  0  0
  188.3120  177.4800  143.4000 S   0  0  0  0  0  0  0  0  0  0  0  0
  189.6550  177.4220  139.1180 N   0  0  0  0  0  0  0  0  0  0  0  0
  190.2930  175.9740  144.9110 C   0  0  1  0  0  3  0  0  0  0  0  0
  190.2560  176.9380  141.2450 C   0  0  1  0  0  0  0  0  0  0  0  0
  191.2310  175.9880  146.1270 C   0  0  0  0  0  2  0  0  0  0  0  0
  189.1710  176.8390  140.3030 N   0  0  0  0  0  2  0  0  0  0  0  0
  189.8940  177.5800  142.5510 C   0  0  2  0  0  3  0  0  0  0  0  0
  191.8290  177.4120  140.5330 S   0  0  0  0  0  0  0  0  0  0  0  0
  190.9860  177.8890  139.0500 N   0  0  0  0  0  2  0  0  0  0  0  0
  190.2270  178.0990  147.0730 C   0  0  0  0  0  2  0  0  0  0  0  0
  190.5690  176.6260  147.3450 C   0  0  0  0  0  2  0  0  0  0  0  0
  189.7290  178.3670  145.6450 C   0  0  0  0  0  2  0  0  0  0  0  0
  189.1910  177.0940  144.9870 C   0  0  1  0  0  3  0  0  0  0  0  0
  191.1480  175.9980  143.6260 C   0  0  0  0  0  2  0  0  0  0  0  0
  181.2280  174.4780  135.4090 C   0  0  0  0  0  0  0  0  0  0  0  0
  182.5290  174.5450  136.0000 N   0  0  0  0  0  2  0  0  0  0  0  0
  180.5320  175.5220  135.2730 O   0  0  0  0  0  0  0  0  0  0  0  0
  179.7950  170.6100  136.1580 O   0  0  0  0  0  0  0  0  0  0  0  0
  181.1040  171.0500  136.4080 C   0  0  0  0  0  2  0  0  0  0  0  0
  181.5240  171.9710  135.2970 C   0  0  0  0  0  0  0  0  0  0  0  0
  178.9310  171.4410  136.9050 C   0  0  0  0  0  2  0  0  0  0  0  0
  178.9850  172.9090  136.4550 C   0  0  0  0  0  2  0  0  0  0  0  0
  180.6860  173.1700  134.9140 C   0  0  1  0  0  3  0  0  0  0  0  0
  179.2860  173.0080  135.0790 O   0  0  0  0  0  0  0  0  0  0  0  0
  182.5810  171.7710  134.7210 O   0  0  0  0  0  0  0  0  0  0  0  0
  181.9010  176.8180  138.2400 C   0  0  0  0  0  2  0  0  0  0  0  0
  181.4070  182.8030  137.5950 O   0  0  0  0  0  0  0  0  0  0  0  0
  180.6730  179.1680  139.3460 N   0  0  0  0  0  2  0  0  0  0  0  0
  180.2540  180.3650  139.9960 C   0  0  0  0  0  0  0  0  0  0  0  0
  179.7100  180.3110  141.1310 O   0  0  0  0  0  0  0  0  0  0  0  0
  181.1520  180.4590  137.1990 C   0  0  2  0  0  3  0  0  0  0  0  0
  180.4880  181.6270  139.3730 N   0  0  0  0  0  2  0  0  0  0  0  0
  181.2360  179.2050  138.0300 C   0  0  0  0  0  0  0  0  0  0  0  0
  181.0420  181.6920  138.0560 C   0  0  0  0  0  0  0  0  0  0  0  0
  181.8000  178.1170  137.5020 C   0  0  0  0  0  3  0  0  0  0  0  0
  179.9560  180.3660  136.2580 C   0  0  0  0  0  2  0  0  0  0  0  0
  180.3230  179.7140  135.0790 O   0  0  0  0  0  1  0  0  0  0  0  0
  1  4  1  0  0  0  0
  3  2  1  0  0  0  0
  4  5  1  0  0  0  0
  4  3  1  0  0  0  0
  5 30  1  1  0  0  0
  5  7  1  0  0  0  0
  6  4  1  0  0  0  0
  7  2  1  0  0  0  0
  7 40  1  6  0  0  0
  8 10  1  0  0  0  0
 10  9  2  0  0  0  0
 10 16  1  0  0  0  0
 11 12  1  0  0  0  0
 11  8  2  0  0  0  0
 12 13  2  0  0  0  0
 13  3  1  0  0  0  0
 13  9  1  0  0  0  0
 14 21  1  0  0  0  0
 14 28  1  1  0  0  0
 15 27  1  0  0  0  0
 16 20  1  0  0  0  0
 17 28  1  6  0  0  0
 17 27  1  0  0  0  0
 17 19  1  0  0  0  0
 18 20  1  6  0  0  0
 18 14  1  0  0  0  0
 18 21  1  0  0  0  0
 19 25  1  0  0  0  0
 21 15  1  6  0  0  0
 22 18  1  0  0  0  0
 23 16  1  0  0  0  0
 23 22  1  0  0  0  0
 24 25  1  0  0  0  0
 26 24  1  0  0  0  0
 27 26  1  6  0  0  0
 29 30  1  0  0  0  0
 31 29  2  0  0  0  0
 32 33  1  0  0  0  0
 32 35  1  0  0  0  0
 34 33  1  0  0  0  0
 36 35  1  0  0  0  0
 37 38  1  0  0  0  0
 37 34  1  0  0  0  0
 37 29  1  1  0  0  0
 38 36  1  0  0  0  0
 39 34  2  0  0  0  0
 41 48  2  0  0  0  0
 42 43  1  0  0  0  0
 43 44  2  0  0  0  0
 45 50  1  6  0  0  0
 45 47  1  0  0  0  0
 45 48  1  0  0  0  0
 46 43  1  0  0  0  0
 47 42  1  0  0  0  0
 48 46  1  0  0  0  0
 49 47  2  0  0  0  0
 49 40  1  0  0  0  0
 51 50  1  0  0  0  0
M  END
>  <MODEL>
7

>  <REMARK>
 VINA RESULT:      -7.1      5.820      9.475
  Name = 
  7 active torsions:
  status: ('A' for Active; 'I' for Inactive)
    1  A    between atoms: C_1  and  C_35
    2  A    between atoms: N_9  and  C_20
    3  A    between atoms: N_12  and  C_51
    4  A    between atoms: N_19  and  C_27
    5  A    between atoms: C_31  and  C_33
    6  A    between atoms: C_42  and  C_45
    7  A    between atoms: C_42  and  C_49
                            x       y       z     vdW  Elec       q    Type
                         _______ _______ _______ _____ _____    ______ ____

>  <TORSDO>
F 7

$$$$
=
 OpenBabel10222417133D

 51 58  0  0  1  0  0  0  0  0999 V2000
  184.4500  177.1290  139.4680 C   0  0  0  0  0  1  0  0  0  0  0  0
  184.8580  176.9280  135.9530 C   0  0  0  0  0  2  0  0  0  0  0  0
  185.4360  177.3000  137.2320 N   0  0  0  0  0  0  0  0  0  0  0  0
  184.4480  177.8690  138.1430 C   0  0  0  0  0  0  0  0  0  0  0  0
  183.1020  177.6340  137.4500 C   0  0  2  0  0  3  0  0  0  0  0  0
  184.7450  179.3460  138.3740 C   0  0  0  0  0  1  0  0  0  0  0  0
  183.4200  177.4200  135.9790 C   0  0  2  0  0  3  0  0  0  0  0  0
  189.5480  176.6770  138.1040 C   0  0  0  0  0  3  0  0  0  0  0  0
  187.3340  177.3290  138.8190 C   0  0  0  0  0  3  0  0  0  0  0  0
  188.6890  177.1280  139.1160 C   0  0  0  0  0  0  0  0  0  0  0  0
  189.0630  176.4430  136.8150 C   0  0  0  0  0  3  0  0  0  0  0  0
  187.7120  176.6560  136.5290 C   0  0  0  0  0  3  0  0  0  0  0  0
  186.8320  177.0940  137.5310 C   0  0  0  0  0  0  0  0  0  0  0  0
  189.1350  176.5980  143.9970 C   0  0  2  0  0  3  0  0  0  0  0  0
  186.7390  177.3560  144.1890 S   0  0  0  0  0  0  0  0  0  0  0  0
  189.1930  177.3970  140.4330 N   0  0  0  0  0  0  0  0  0  0  0  0
  188.5700  176.7530  146.3700 C   0  0  1  0  0  3  0  0  0  0  0  0
  189.2830  177.3310  142.6920 C   0  0  1  0  0  0  0  0  0  0  0  0
  189.0730  177.1900  147.7540 C   0  0  0  0  0  2  0  0  0  0  0  0
  188.5960  176.7870  141.5490 N   0  0  0  0  0  2  0  0  0  0  0  0
  188.3870  177.9200  143.7410 C   0  0  2  0  0  3  0  0  0  0  0  0
  190.7690  178.2520  142.3060 S   0  0  0  0  0  0  0  0  0  0  0  0
  190.2790  178.2840  140.6050 N   0  0  0  0  0  2  0  0  0  0  0  0
  187.2460  178.9030  148.0490 C   0  0  0  0  0  2  0  0  0  0  0  0
  187.9300  177.6650  148.6470 C   0  0  0  0  0  2  0  0  0  0  0  0
  187.1170  178.8620  146.5190 C   0  0  0  0  0  2  0  0  0  0  0  0
  187.2050  177.4310  145.9830 C   0  0  1  0  0  3  0  0  0  0  0  0
  189.7060  176.9590  145.3430 C   0  0  0  0  0  2  0  0  0  0  0  0
  180.7790  178.4940  137.9370 C   0  0  0  0  0  0  0  0  0  0  0  0
  182.1550  178.7290  137.6260 N   0  0  0  0  0  2  0  0  0  0  0  0
  180.3180  177.3190  137.9520 O   0  0  0  0  0  0  0  0  0  0  0  0
  179.8240  182.5710  137.7480 O   0  0  0  0  0  0  0  0  0  0  0  0
  180.9450  182.0330  138.3970 C   0  0  0  0  0  2  0  0  0  0  0  0
  180.5460  180.7450  139.0610 C   0  0  0  0  0  0  0  0  0  0  0  0
  179.9030  182.1800  136.3930 C   0  0  0  0  0  2  0  0  0  0  0  0
  179.8160  180.6570  136.2100 C   0  0  0  0  0  2  0  0  0  0  0  0
  179.8720  179.6370  138.2830 C   0  0  1  0  0  3  0  0  0  0  0  0
  179.0300  180.0680  137.2240 O   0  0  0  0  0  0  0  0  0  0  0  0
  180.8080  180.5740  140.2400 O   0  0  0  0  0  0  0  0  0  0  0  0
  182.4670  176.3820  135.3970 C   0  0  0  0  0  2  0  0  0  0  0  0
  182.5010  170.3930  136.1860 O   0  0  0  0  0  0  0  0  0  0  0  0
  181.3600  174.2520  136.9770 N   0  0  0  0  0  2  0  0  0  0  0  0
  180.6720  173.1680  137.5950 C   0  0  0  0  0  0  0  0  0  0  0  0
  179.6800  173.3920  138.3390 O   0  0  0  0  0  0  0  0  0  0  0  0
  183.2080  172.6780  136.1940 C   0  0  2  0  0  3  0  0  0  0  0  0
  181.0870  171.8280  137.3380 N   0  0  0  0  0  2  0  0  0  0  0  0
  182.5260  174.0220  136.1790 C   0  0  0  0  0  0  0  0  0  0  0  0
  182.2530  171.5700  136.5510 C   0  0  0  0  0  0  0  0  0  0  0  0
  183.0550  175.0050  135.4490 C   0  0  0  0  0  3  0  0  0  0  0  0
  184.3700  172.7080  137.1790 C   0  0  0  0  0  2  0  0  0  0  0  0
  185.5580  172.3620  136.5320 O   0  0  0  0  0  1  0  0  0  0  0  0
  2  7  1  0  0  0  0
  2  3  1  0  0  0  0
  3 13  1  0  0  0  0
  3  4  1  0  0  0  0
  4  6  1  0  0  0  0
  4  1  1  0  0  0  0
  5 30  1  6  0  0  0
  5  4  1  0  0  0  0
  7 40  1  1  0  0  0
  7  5  1  0  0  0  0
  8 10  1  0  0  0  0
  9 10  2  0  0  0  0
 10 16  1  0  0  0  0
 11  8  2  0  0  0  0
 12 11  1  0  0  0  0
 12 13  2  0  0  0  0
 13  9  1  0  0  0  0
 14 28  1  1  0  0  0
 15 27  1  0  0  0  0
 16 23  1  0  0  0  0
 16 20  1  0  0  0  0
 17 28  1  6  0  0  0
 17 19  1  0  0  0  0
 18 20  1  6  0  0  0
 18 21  1  0  0  0  0
 18 14  1  0  0  0  0
 19 25  1  0  0  0  0
 21 14  1  0  0  0  0
 21 15  1  6  0  0  0
 22 18  1  0  0  0  0
 23 22  1  0  0  0  0
 24 25  1  0  0  0  0
 26 24  1  0  0  0  0
 27 17  1  0  0  0  0
 27 26  1  6  0  0  0
 29 31  2  0  0  0  0
 30 29  1  0  0  0  0
 32 33  1  0  0  0  0
 33 34  1  0  0  0  0
 34 39  2  0  0  0  0
 35 32  1  0  0  0  0
 36 35  1  0  0  0  0
 36 38  1  0  0  0  0
 37 29  1  6  0  0  0
 37 34  1  0  0  0  0
 38 37  1  0  0  0  0
 40 49  1  0  0  0  0
 41 48  2  0  0  0  0
 42 43  1  0  0  0  0
 43 44  2  0  0  0  0
 45 48  1  0  0  0  0
 45 50  1  1  0  0  0
 46 43  1  0  0  0  0
 47 45  1  0  0  0  0
 47 42  1  0  0  0  0
 48 46  1  0  0  0  0
 49 47  2  0  0  0  0
 51 50  1  0  0  0  0
M  END
>  <MODEL>
8

>  <REMARK>
 VINA RESULT:      -7.0      5.737     10.040
  Name = 
  7 active torsions:
  status: ('A' for Active; 'I' for Inactive)
    1  A    between atoms: C_1  and  C_35
    2  A    between atoms: N_9  and  C_20
    3  A    between atoms: N_12  and  C_51
    4  A    between atoms: N_19  and  C_27
    5  A    between atoms: C_31  and  C_33
    6  A    between atoms: C_42  and  C_45
    7  A    between atoms: C_42  and  C_49
                            x       y       z     vdW  Elec       q    Type
                         _______ _______ _______ _____ _____    ______ ____

>  <TORSDO>
F 7

$$$$
=
 OpenBabel10222417133D

 51 58  0  0  1  0  0  0  0  0999 V2000
  184.4300  177.6150  139.9790 C   0  0  0  0  0  1  0  0  0  0  0  0
  185.0330  177.2030  136.5120 C   0  0  0  0  0  2  0  0  0  0  0  0
  185.5050  177.7250  137.7820 N   0  0  0  0  0  0  0  0  0  0  0  0
  184.4200  178.2520  138.6030 C   0  0  0  0  0  0  0  0  0  0  0  0
  183.1410  177.8280  137.8730 C   0  0  2  0  0  3  0  0  0  0  0  0
  184.5530  179.7660  138.7310 C   0  0  0  0  0  1  0  0  0  0  0  0
  183.5530  177.5420  136.4380 C   0  0  2  0  0  3  0  0  0  0  0  0
  189.6080  177.6360  138.8850 C   0  0  0  0  0  3  0  0  0  0  0  0
  187.8520  177.0960  137.3140 C   0  0  0  0  0  3  0  0  0  0  0  0
  189.2070  177.0610  137.6710 C   0  0  0  0  0  0  0  0  0  0  0  0
  188.6670  178.2240  139.7340 C   0  0  0  0  0  3  0  0  0  0  0  0
  187.3180  178.2460  139.3720 C   0  0  0  0  0  3  0  0  0  0  0  0
  186.8980  177.6890  138.1550 C   0  0  0  0  0  0  0  0  0  0  0  0
  192.8270  173.9520  136.4270 C   0  0  2  0  0  3  0  0  0  0  0  0
  194.3070  175.2030  138.0380 S   0  0  0  0  0  0  0  0  0  0  0  0
  190.1680  176.4290  136.8120 N   0  0  0  0  0  0  0  0  0  0  0  0
  195.0780  173.0130  136.2830 C   0  0  1  0  0  3  0  0  0  0  0  0
  191.9600  175.1680  136.2480 C   0  0  1  0  0  0  0  0  0  0  0  0
  196.1570  172.4800  135.3280 C   0  0  0  0  0  2  0  0  0  0  0  0
  191.1210  175.5490  137.3540 N   0  0  0  0  0  2  0  0  0  0  0  0
  193.4290  175.3680  136.4780 C   0  0  2  0  0  3  0  0  0  0  0  0
  191.3360  175.6360  134.6360 S   0  0  0  0  0  0  0  0  0  0  0  0
  190.1640  176.7030  135.4260 N   0  0  0  0  0  2  0  0  0  0  0  0
  197.8260  174.2570  135.9730 C   0  0  0  0  0  2  0  0  0  0  0  0
  197.5630  172.7470  135.8570 C   0  0  0  0  0  2  0  0  0  0  0  0
  196.6110  175.0630  136.4540 C   0  0  0  0  0  2  0  0  0  0  0  0
  195.6050  174.1800  137.1960 C   0  0  1  0  0  3  0  0  0  0  0  0
  193.8170  173.3570  135.4610 C   0  0  0  0  0  2  0  0  0  0  0  0
  180.7390  178.4870  138.2880 C   0  0  0  0  0  0  0  0  0  0  0  0
  182.0800  178.8270  137.9240 N   0  0  0  0  0  2  0  0  0  0  0  0
  180.4100  177.2810  138.4620 O   0  0  0  0  0  0  0  0  0  0  0  0
  179.4720  182.4560  137.8230 O   0  0  0  0  0  0  0  0  0  0  0  0
  180.5710  182.0420  138.5920 C   0  0  0  0  0  2  0  0  0  0  0  0
  180.2210  180.7520  139.2790 C   0  0  0  0  0  0  0  0  0  0  0  0
  179.7060  182.0190  136.5000 C   0  0  0  0  0  2  0  0  0  0  0  0
  179.7620  180.4880  136.3830 C   0  0  0  0  0  2  0  0  0  0  0  0
  179.7140  179.5610  138.4990 C   0  0  1  0  0  3  0  0  0  0  0  0
  178.9380  179.8740  137.3520 O   0  0  0  0  0  0  0  0  0  0  0  0
  180.3890  180.6520  140.4830 O   0  0  0  0  0  0  0  0  0  0  0  0
  182.7400  176.3700  135.8990 C   0  0  0  0  0  2  0  0  0  0  0  0
  183.5770  170.3970  136.2350 O   0  0  0  0  0  0  0  0  0  0  0  0
  181.7390  173.9610  137.1010 N   0  0  0  0  0  2  0  0  0  0  0  0
  181.1380  172.7340  137.5080 C   0  0  0  0  0  0  0  0  0  0  0  0
  180.0170  172.7410  138.0840 O   0  0  0  0  0  0  0  0  0  0  0  0
  183.9100  172.7460  136.5340 C   0  0  2  0  0  3  0  0  0  0  0  0
  181.7910  171.4980  137.2280 N   0  0  0  0  0  2  0  0  0  0  0  0
  183.0390  173.9760  136.5020 C   0  0  0  0  0  0  0  0  0  0  0  0
  183.0940  171.4850  136.6380 C   0  0  0  0  0  0  0  0  0  0  0  0
  183.5190  175.0920  135.9490 C   0  0  0  0  0  3  0  0  0  0  0  0
  184.8800  172.8420  137.7060 C   0  0  0  0  0  2  0  0  0  0  0  0
  186.1960  172.7310  137.2500 O   0  0  0  0  0  1  0  0  0  0  0  0
  2  3  1  0  0  0  0
  3 13  1  0  0  0  0
  3  4  1  0  0  0  0
  4  6  1  0  0  0  0
  4  1  1  0  0  0  0
  5 30  1  6  0  0  0
  5  4  1  0  0  0  0
  7 40  1  1  0  0  0
  7  2  1  0  0  0  0
  7  5  1  0  0  0  0
  8 11  1  0  0  0  0
  9 10  1  0  0  0  0
  9 13  2  0  0  0  0
 10  8  2  0  0  0  0
 12 11  2  0  0  0  0
 13 12  1  0  0  0  0
 14 28  1  6  0  0  0
 14 21  1  0  0  0  0
 16 20  1  0  0  0  0
 16 10  1  0  0  0  0
 17 19  1  6  0  0  0
 17 27  1  0  0  0  0
 18 22  1  6  0  0  0
 18 14  1  0  0  0  0
 18 21  1  0  0  0  0
 18 20  1  0  0  0  0
 19 25  1  0  0  0  0
 21 15  1  1  0  0  0
 22 23  1  0  0  0  0
 23 16  1  0  0  0  0
 24 26  1  0  0  0  0
 25 24  1  0  0  0  0
 27 26  1  6  0  0  0
 27 15  1  0  0  0  0
 28 17  1  0  0  0  0
 29 31  2  0  0  0  0
 30 29  1  0  0  0  0
 32 33  1  0  0  0  0
 33 34  1  0  0  0  0
 34 39  2  0  0  0  0
 35 32  1  0  0  0  0
 36 35  1  0  0  0  0
 36 38  1  0  0  0  0
 37 29  1  6  0  0  0
 37 34  1  0  0  0  0
 38 37  1  0  0  0  0
 40 49  1  0  0  0  0
 41 48  2  0  0  0  0
 42 43  1  0  0  0  0
 43 44  2  0  0  0  0
 45 48  1  0  0  0  0
 45 50  1  1  0  0  0
 46 43  1  0  0  0  0
 47 45  1  0  0  0  0
 47 42  1  0  0  0  0
 48 46  1  0  0  0  0
 49 47  2  0  0  0  0
 51 50  1  0  0  0  0
M  END
>  <MODEL>
9

>  <REMARK>
 VINA RESULT:      -6.8      4.421      7.675
  Name = 
  7 active torsions:
  status: ('A' for Active; 'I' for Inactive)
    1  A    between atoms: C_1  and  C_35
    2  A    between atoms: N_9  and  C_20
    3  A    between atoms: N_12  and  C_51
    4  A    between atoms: N_19  and  C_27
    5  A    between atoms: C_31  and  C_33
    6  A    between atoms: C_42  and  C_45
    7  A    between atoms: C_42  and  C_49
                            x       y       z     vdW  Elec       q    Type
                         _______ _______ _______ _____ _____    ______ ____

>  <TORSDO>
F 7

$$$$
