=
 OpenBabel10222420303D

 63 68  0  0  1  0  0  0  0  0999 V2000
  183.5290  177.3840  137.8900 C   0  0  0  0  0  2  0  0  0  0  0  0
  184.9760  177.4000  137.8570 N   0  0  0  0  0  2  0  0  0  0  0  0
  186.9910  176.7670  136.9360 O   0  0  0  0  0  0  0  0  0  0  0  0
  183.8680  175.5620  135.4610 C   0  0  0  0  0  0  0  0  0  0  0  0
  185.7500  176.5610  137.0030 C   0  0  0  0  0  0  0  0  0  0  0  0
  185.7930  174.3110  136.0940 N   0  0  0  0  0  0  0  0  0  0  0  0
  182.8920  176.5920  135.6750 N   0  0  0  0  0  2  0  0  0  0  0  0
  185.1530  175.4410  136.2120 C   0  0  0  0  0  0  0  0  0  0  0  0
  183.0270  177.7670  136.5170 C   0  0  1  0  0  3  0  0  0  0  0  0
  183.6030  174.6860  134.5950 O   0  0  0  0  0  0  0  0  0  0  0  0
  181.7230  178.4930  136.6180 C   0  0  0  0  0  0  0  0  0  0  0  0
  181.4680  179.4740  137.4770 C   0  0  0  0  0  0  0  0  0  0  0  0
  179.3730  178.8690  136.4940 C   0  0  0  0  0  3  0  0  0  0  0  0
  180.5120  178.0840  135.8560 C   0  0  0  0  0  3  0  0  0  0  0  0
  180.0200  179.8340  137.4880 C   0  0  2  0  0  3  0  0  0  0  0  0
  179.5320  181.4740  135.5660 C   0  0  0  0  0  2  0  0  0  0  0  0
  179.7400  181.2920  137.0870 C   0  0  2  0  0  3  0  0  0  0  0  0
  179.5720  184.4500  138.7720 O   0  0  0  0  0  1  0  0  0  0  0  0
  180.7770  182.2480  137.6710 C   0  0  0  0  0  2  0  0  0  0  0  0
  179.4310  182.9370  135.0880 C   0  0  0  0  0  2  0  0  0  0  0  0
  181.4650  184.9510  137.0230 O   0  0  0  0  0  0  0  0  0  0  0  0
  178.9340  183.8960  136.1640 C   0  0  0  0  0  2  0  0  0  0  0  0
  180.1830  183.9480  137.4820 P   0  0  2  0  0  0  0  0  0  0  0  0
  182.6240  179.6030  139.6420 C   0  0  0  0  0  0  0  0  0  0  0  0
  182.9010  179.1410  140.8340 C   0  0  0  0  0  0  0  0  0  0  0  0
  182.4190  180.0680  138.4380 C   0  0  0  0  0  3  0  0  0  0  0  0
  185.3420  179.4760  140.4830 O   0  0  0  0  0  0  0  0  0  0  0  0
  184.5860  178.2990  142.2930 O   0  0  0  0  0  1  0  0  0  0  0  0
  184.3070  178.9420  141.2440 C   0  0  0  0  0  0  0  0  0  0  0  0
  181.7890  178.6880  141.7230 C   0  0  0  0  0  2  0  0  0  0  0  0
  180.4490  179.1300  141.1720 C   0  0  0  0  0  2  0  0  0  0  0  0
  179.5810  177.9130  140.9300 C   0  0  0  0  0  2  0  0  0  0  0  0
  180.2860  176.9760  139.9600 C   0  0  0  0  0  2  0  0  0  0  0  0
  179.9080  175.2420  138.2040 C   0  0  0  0  0  1  0  0  0  0  0  0
  179.0630  174.9880  140.4080 O   0  0  0  0  0  1  0  0  0  0  0  0
  179.3180  175.9350  139.4200 C   0  0  1  0  0  3  0  0  0  0  0  0
  187.0340  173.9760  136.7830 C   0  0  0  0  0  2  0  0  0  0  0  0
  188.1150  173.6350  135.7770 C   0  0  2  0  0  3  0  0  0  0  0  0
  188.6330  172.2310  136.0620 C   0  0  0  0  0  2  0  0  0  0  0  0
  190.6080  173.4020  135.8160 C   0  0  0  0  0  0  0  0  0  0  0  0
  190.0680  172.2340  135.8510 N   0  0  0  0  0  0  0  0  0  0  0  0
  192.0100  173.5540  135.6050 N   0  0  0  0  0  2  0  0  0  0  0  0
  189.5090  174.7940  135.9700 S   0  0  0  0  0  0  0  0  0  0  0  0
  192.6080  174.8220  135.6510 N   0  0  0  0  0  2  0  0  0  0  0  0
  192.0850  175.1360  137.9440 N   0  0  0  0  0  0  0  0  0  0  0  0
  193.7610  177.3050  138.1350 N   0  0  0  0  0  0  0  0  0  0  0  0
  192.0510  175.9260  139.1780 C   0  0  1  0  0  3  0  0  0  0  0  0
  193.2090  176.9800  136.8310 C   0  0  0  0  0  2  0  0  0  0  0  0
  192.6090  175.6010  136.8440 C   0  0  0  0  0  0  0  0  0  0  0  0
  193.2470  176.8480  139.2270 C   0  0  0  0  0  3  0  0  0  0  0  0
  190.7600  176.7340  139.2330 C   0  0  0  0  0  2  0  0  0  0  0  0
  189.8550  176.0050  142.6670 C   0  0  0  0  0  2  0  0  0  0  0  0
  190.7390  175.9890  141.4480 C   0  0  0  0  0  2  0  0  0  0  0  0
  188.7940  177.5420  140.7260 S   0  0  0  0  0  0  0  0  0  0  0  0
  189.8990  176.2300  140.2890 N   0  0  0  0  0  0  0  0  0  0  0  0
  188.9230  177.1880  142.5100 C   0  0  2  0  0  3  0  0  0  0  0  0
  189.4680  178.4080  143.2630 C   0  0  2  0  0  3  0  0  0  0  0  0
  190.8160  178.7400  142.8140 N   0  0  0  0  0  2  0  0  0  0  0  0
  191.4590  179.4620  143.8990 C   0  0  0  0  0  1  0  0  0  0  0  0
  189.4420  178.2240  144.7200 N   0  0  0  0  0  2  0  0  0  0  0  0
  188.0680  178.0730  145.1950 C   0  0  0  0  0  2  0  0  0  0  0  0
  188.0420  177.2220  146.4520 C   0  0  0  0  0  2  0  0  0  0  0  0
  189.4490  176.8040  146.8390 C   0  0  0  0  0  1  0  0  0  0  0  0
  2  1  1  0  0  0  0
  3  5  2  0  0  0  0
  4  7  1  0  0  0  0
  4  8  1  0  0  0  0
  5  2  1  0  0  0  0
  6  8  2  0  0  0  0
  6 37  1  0  0  0  0
  7  9  1  0  0  0  0
  8  5  1  0  0  0  0
  9 11  1  1  0  0  0
  9  1  1  0  0  0  0
 10  4  2  0  0  0  0
 11 12  2  0  0  0  0
 12 15  1  0  0  0  0
 12 26  1  0  0  0  0
 14 13  2  0  0  0  0
 14 11  1  0  0  0  0
 15 13  1  6  0  0  0
 17 16  1  6  0  0  0
 17 15  1  0  0  0  0
 17 19  1  0  0  0  0
 20 16  1  0  0  0  0
 20 22  1  0  0  0  0
 22 23  1  0  0  0  0
 23 21  2  6  0  0  0
 23 19  1  0  0  0  0
 23 18  1  0  0  0  0
 24 25  2  0  0  0  0
 25 29  1  0  0  0  0
 25 30  1  0  0  0  0
 26 24  2  0  0  0  0
 27 29  2  0  0  0  0
 29 28  1  0  0  0  0
 31 30  1  0  0  0  0
 32 31  1  0  0  0  0
 33 32  1  0  0  0  0
 36 34  1  6  0  0  0
 36 33  1  0  0  0  0
 36 35  1  0  0  0  0
 38 43  1  0  0  0  0
 38 39  1  0  0  0  0
 38 37  1  1  0  0  0
 40 41  2  0  0  0  0
 40 43  1  0  0  0  0
 41 39  1  0  0  0  0
 42 44  1  0  0  0  0
 42 40  1  0  0  0  0
 44 49  1  0  0  0  0
 45 47  1  0  0  0  0
 46 50  2  0  0  0  0
 47 50  1  0  0  0  0
 47 51  1  6  0  0  0
 48 49  1  0  0  0  0
 48 46  1  0  0  0  0
 49 45  2  0  0  0  0
 51 55  1  0  0  0  0
 53 52  1  0  0  0  0
 54 56  1  0  0  0  0
 55 54  1  0  0  0  0
 55 53  1  0  0  0  0
 56 52  1  0  0  0  0
 56 57  1  1  0  0  0
 57 58  1  6  0  0  0
 57 60  1  0  0  0  0
 58 59  1  0  0  0  0
 60 61  1  0  0  0  0
 61 62  1  0  0  0  0
 62 63  1  0  0  0  0
M  END
>  <MODEL>
1

>  <REMARK>
 VINA RESULT:      -5.2      0.000      0.000
  Name = 
  19 active torsions:
  status: ('A' for Active; 'I' for Inactive)
    1  A    between atoms: C_3  and  C_5
    2  A    between atoms: C_3  and  N_59
    3  A    between atoms: C_7  and  C_53
    4  A    between atoms: C_8  and  C_16
    5  A    between atoms: C_8  and  C_55
    6  A    between atoms: C_9  and  C_19
    7  A    between atoms: C_10  and  N_40
    8  A    between atoms: C_10  and  C_46
    9  A    between atoms: C_14  and  C_48
   10  A    between atoms: C_16  and  C_25
   11  A    between atoms: N_17  and  C_47
   12  A    between atoms: C_18  and  C_44
   13  A    between atoms: C_18  and  C_56
   14  A    between atoms: C_25  and  C_56
   15  A    between atoms: C_28  and  C_33
   16  A    between atoms: N_31  and  N_54
   17  A    between atoms: C_33  and  N_39
   18  A    between atoms: C_47  and  N_59
   19  A    between atoms: C_47  and  C_63
                            x       y       z     vdW  Elec       q    Type
                         _______ _______ _______ _____ _____    ______ ____

>  <TORSDO>
F 19

$$$$
=
 OpenBabel10222420303D

 63 68  0  0  1  0  0  0  0  0999 V2000
  185.0200  177.5340  142.9960 C   0  0  0  0  0  2  0  0  0  0  0  0
  184.7540  178.0780  141.6820 N   0  0  0  0  0  2  0  0  0  0  0  0
  183.5010  179.3580  140.2310 O   0  0  0  0  0  0  0  0  0  0  0  0
  182.5050  179.1010  143.7420 C   0  0  0  0  0  0  0  0  0  0  0  0
  183.5620  178.7890  141.3540 C   0  0  0  0  0  0  0  0  0  0  0  0
  181.1750  178.7830  141.7930 N   0  0  0  0  0  0  0  0  0  0  0  0
  183.7140  178.9410  144.4980 N   0  0  0  0  0  2  0  0  0  0  0  0
  182.3850  178.8610  142.2730 C   0  0  0  0  0  0  0  0  0  0  0  0
  185.0460  178.6820  143.9790 C   0  0  1  0  0  3  0  0  0  0  0  0
  181.4700  179.4420  144.3740 O   0  0  0  0  0  0  0  0  0  0  0  0
  185.9980  178.3950  145.0970 C   0  0  0  0  0  0  0  0  0  0  0  0
  186.8930  177.4150  145.0940 C   0  0  0  0  0  0  0  0  0  0  0  0
  186.8460  178.2850  147.3220 C   0  0  0  0  0  3  0  0  0  0  0  0
  185.9370  179.0980  146.4070 C   0  0  0  0  0  3  0  0  0  0  0  0
  187.5300  177.2460  146.4330 C   0  0  2  0  0  3  0  0  0  0  0  0
  189.5620  178.1680  145.1530 C   0  0  0  0  0  2  0  0  0  0  0  0
  189.0530  177.4570  146.4280 C   0  0  2  0  0  3  0  0  0  0  0  0
  191.7910  176.6000  148.5740 O   0  0  0  0  0  1  0  0  0  0  0  0
  189.8040  176.1650  146.7360 C   0  0  0  0  0  2  0  0  0  0  0  0
  191.0960  178.2400  145.0090 C   0  0  0  0  0  2  0  0  0  0  0  0
  192.5400  175.4060  146.3580 O   0  0  0  0  0  0  0  0  0  0  0  0
  191.8340  178.1920  146.3420 C   0  0  0  0  0  2  0  0  0  0  0  0
  191.5370  176.5600  147.0830 P   0  0  2  0  0  0  0  0  0  0  0  0
  187.8800  176.7700  142.9370 C   0  0  0  0  0  0  0  0  0  0  0  0
  188.6350  177.0040  141.8960 C   0  0  0  0  0  0  0  0  0  0  0  0
  187.1610  176.4740  143.9880 C   0  0  0  0  0  3  0  0  0  0  0  0
  190.0730  175.9130  140.1810 O   0  0  0  0  0  0  0  0  0  0  0  0
  190.2600  175.3320  142.3860 O   0  0  0  0  0  1  0  0  0  0  0  0
  189.6890  176.0400  141.5120 C   0  0  0  0  0  0  0  0  0  0  0  0
  188.5180  178.3100  141.1820 C   0  0  0  0  0  2  0  0  0  0  0  0
  188.1800  178.0930  139.7210 C   0  0  0  0  0  2  0  0  0  0  0  0
  188.7610  179.2240  138.8990 C   0  0  0  0  0  2  0  0  0  0  0  0
  189.4180  178.6540  137.6510 C   0  0  0  0  0  2  0  0  0  0  0  0
  188.5750  177.7840  135.4670 C   0  0  0  0  0  1  0  0  0  0  0  0
  187.2820  179.2600  136.8020 O   0  0  0  0  0  1  0  0  0  0  0  0
  188.5870  178.9700  136.4150 C   0  0  1  0  0  3  0  0  0  0  0  0
  180.8440  178.5050  140.4000 C   0  0  0  0  0  2  0  0  0  0  0  0
  179.6900  177.5260  140.3220 C   0  0  2  0  0  3  0  0  0  0  0  0
  179.8820  176.4470  141.3800 C   0  0  0  0  0  2  0  0  0  0  0  0
  179.3680  175.1750  139.5230 C   0  0  0  0  0  0  0  0  0  0  0  0
  179.4670  175.1810  140.8060 N   0  0  0  0  0  0  0  0  0  0  0  0
  178.9590  174.0000  138.8260 N   0  0  0  0  0  2  0  0  0  0  0  0
  179.6930  176.7140  138.6900 S   0  0  0  0  0  0  0  0  0  0  0  0
  178.9320  173.9710  137.4240 N   0  0  0  0  0  2  0  0  0  0  0  0
  181.1890  173.2570  137.2600 N   0  0  0  0  0  0  0  0  0  0  0  0
  180.9100  172.6470  134.5950 N   0  0  0  0  0  0  0  0  0  0  0  0
  182.3940  172.9060  136.5040 C   0  0  1  0  0  3  0  0  0  0  0  0
  180.0270  173.6510  135.1640 C   0  0  0  0  0  2  0  0  0  0  0  0
  180.0830  173.6100  136.6650 C   0  0  0  0  0  0  0  0  0  0  0  0
  182.0060  172.2930  135.1790 C   0  0  0  0  0  3  0  0  0  0  0  0
  183.2400  174.1530  136.2800 C   0  0  0  0  0  2  0  0  0  0  0  0
  186.2750  172.7960  137.7270 C   0  0  0  0  0  2  0  0  0  0  0  0
  184.8340  172.7730  137.2890 C   0  0  0  0  0  2  0  0  0  0  0  0
  185.6800  175.0410  136.3640 S   0  0  0  0  0  0  0  0  0  0  0  0
  184.3850  174.1490  137.1750 N   0  0  0  0  0  0  0  0  0  0  0  0
  186.9630  173.8610  136.8990 C   0  0  2  0  0  3  0  0  0  0  0  0
  187.6580  173.2330  135.6830 C   0  0  2  0  0  3  0  0  0  0  0  0
  188.2880  171.9670  136.0370 N   0  0  0  0  0  2  0  0  0  0  0  0
  187.6370  170.9340  135.2490 C   0  0  0  0  0  1  0  0  0  0  0  0
  188.6360  174.1410  135.0690 N   0  0  0  0  0  2  0  0  0  0  0  0
  189.6520  174.5380  136.0420 C   0  0  0  0  0  2  0  0  0  0  0  0
  191.0340  174.1770  135.5290 C   0  0  0  0  0  2  0  0  0  0  0  0
  191.4930  172.8590  136.1250 C   0  0  0  0  0  1  0  0  0  0  0  0
  1  9  1  0  0  0  0
  2  1  1  0  0  0  0
  3  5  2  0  0  0  0
  4 10  2  0  0  0  0
  4  7  1  0  0  0  0
  5  2  1  0  0  0  0
  5  8  1  0  0  0  0
  6  8  2  0  0  0  0
  8  4  1  0  0  0  0
  9  7  1  0  0  0  0
  9 11  1  1  0  0  0
 11 14  1  0  0  0  0
 12 11  2  0  0  0  0
 12 15  1  0  0  0  0
 14 13  2  0  0  0  0
 15 13  1  1  0  0  0
 17 16  1  6  0  0  0
 17 15  1  0  0  0  0
 17 19  1  0  0  0  0
 19 23  1  0  0  0  0
 20 16  1  0  0  0  0
 20 22  1  0  0  0  0
 22 23  1  0  0  0  0
 23 21  2  6  0  0  0
 23 18  1  0  0  0  0
 24 26  2  0  0  0  0
 25 24  2  0  0  0  0
 26 12  1  0  0  0  0
 27 29  2  0  0  0  0
 29 25  1  0  0  0  0
 29 28  1  0  0  0  0
 30 25  1  0  0  0  0
 31 30  1  0  0  0  0
 32 31  1  0  0  0  0
 33 32  1  0  0  0  0
 36 34  1  6  0  0  0
 36 35  1  0  0  0  0
 36 33  1  0  0  0  0
 37  6  1  0  0  0  0
 38 37  1  6  0  0  0
 38 39  1  0  0  0  0
 40 41  2  0  0  0  0
 41 39  1  0  0  0  0
 42 40  1  0  0  0  0
 43 40  1  0  0  0  0
 43 38  1  0  0  0  0
 44 42  1  0  0  0  0
 46 48  1  0  0  0  0
 46 50  2  0  0  0  0
 47 51  1  6  0  0  0
 47 45  1  0  0  0  0
 48 49  1  0  0  0  0
 49 45  2  0  0  0  0
 49 44  1  0  0  0  0
 50 47  1  0  0  0  0
 51 55  1  0  0  0  0
 53 52  1  0  0  0  0
 54 56  1  0  0  0  0
 54 55  1  0  0  0  0
 55 53  1  0  0  0  0
 56 57  1  6  0  0  0
 56 52  1  0  0  0  0
 57 60  1  1  0  0  0
 57 58  1  0  0  0  0
 59 58  1  0  0  0  0
 60 61  1  0  0  0  0
 62 61  1  0  0  0  0
 62 63  1  0  0  0  0
M  END
>  <MODEL>
2

>  <REMARK>
 VINA RESULT:      -4.8      4.215     10.731
  Name = 
  19 active torsions:
  status: ('A' for Active; 'I' for Inactive)
    1  A    between atoms: C_3  and  C_5
    2  A    between atoms: C_3  and  N_59
    3  A    between atoms: C_7  and  C_53
    4  A    between atoms: C_8  and  C_16
    5  A    between atoms: C_8  and  C_55
    6  A    between atoms: C_9  and  C_19
    7  A    between atoms: C_10  and  N_40
    8  A    between atoms: C_10  and  C_46
    9  A    between atoms: C_14  and  C_48
   10  A    between atoms: C_16  and  C_25
   11  A    between atoms: N_17  and  C_47
   12  A    between atoms: C_18  and  C_44
   13  A    between atoms: C_18  and  C_56
   14  A    between atoms: C_25  and  C_56
   15  A    between atoms: C_28  and  C_33
   16  A    between atoms: N_31  and  N_54
   17  A    between atoms: C_33  and  N_39
   18  A    between atoms: C_47  and  N_59
   19  A    between atoms: C_47  and  C_63
                            x       y       z     vdW  Elec       q    Type
                         _______ _______ _______ _____ _____    ______ ____

>  <TORSDO>
F 19

$$$$
=
 OpenBabel10222420303D

 63 68  0  0  1  0  0  0  0  0999 V2000
  182.7580  175.7460  138.0460 C   0  0  0  0  0  2  0  0  0  0  0  0
  181.7290  175.7400  139.0630 N   0  0  0  0  0  2  0  0  0  0  0  0
  179.5840  176.1850  139.7810 O   0  0  0  0  0  0  0  0  0  0  0  0
  180.5530  177.0070  136.3500 C   0  0  0  0  0  0  0  0  0  0  0  0
  180.4670  176.3860  138.9040 C   0  0  0  0  0  0  0  0  0  0  0  0
  179.4720  178.3890  137.9610 N   0  0  0  0  0  0  0  0  0  0  0  0
  181.5340  176.0350  135.9590 N   0  0  0  0  0  2  0  0  0  0  0  0
  180.1650  177.3020  137.7620 C   0  0  0  0  0  0  0  0  0  0  0  0
  182.2010  175.0700  136.8150 C   0  0  1  0  0  3  0  0  0  0  0  0
  180.0020  177.6730  135.4330 O   0  0  0  0  0  0  0  0  0  0  0  0
  183.2870  174.3670  136.0630 C   0  0  0  0  0  0  0  0  0  0  0  0
  184.4230  174.9330  135.6720 C   0  0  0  0  0  0  0  0  0  0  0  0
  184.3190  172.8000  134.5940 C   0  0  0  0  0  3  0  0  0  0  0  0
  183.1400  172.9810  135.5420 C   0  0  0  0  0  3  0  0  0  0  0  0
  185.1930  174.0430  134.7540 C   0  0  2  0  0  3  0  0  0  0  0  0
  187.7310  174.4370  134.5940 C   0  0  0  0  0  2  0  0  0  0  0  0
  186.5860  173.6610  135.2840 C   0  0  2  0  0  3  0  0  0  0  0  0
  187.8980  171.3070  137.6450 O   0  0  0  0  0  1  0  0  0  0  0  0
  186.7970  172.1500  135.2800 C   0  0  0  0  0  2  0  0  0  0  0  0
  189.1540  173.9640  134.9540 C   0  0  0  0  0  2  0  0  0  0  0  0
  189.1640  170.5480  135.4730 O   0  0  0  0  0  0  0  0  0  0  0  0
  189.2460  173.2940  136.3190 C   0  0  0  0  0  2  0  0  0  0  0  0
  188.2750  171.7590  136.2510 P   0  0  2  0  0  0  0  0  0  0  0  0
  186.0060  176.6320  136.4790 C   0  0  0  0  0  0  0  0  0  0  0  0
  187.1670  176.9940  136.9590 C   0  0  0  0  0  0  0  0  0  0  0  0
  184.8540  176.3190  135.9460 C   0  0  0  0  0  3  0  0  0  0  0  0
  187.8480  179.3740  136.6910 O   0  0  0  0  0  1  0  0  0  0  0  0
  188.7360  177.7580  135.3360 O   0  0  0  0  0  0  0  0  0  0  0  0
  187.9530  178.0480  136.2820 C   0  0  0  0  0  0  0  0  0  0  0  0
  187.7520  176.2450  138.1090 C   0  0  0  0  0  2  0  0  0  0  0  0
  189.0110  176.9260  138.6070 C   0  0  0  0  0  2  0  0  0  0  0  0
  190.2160  176.0870  138.2350 C   0  0  0  0  0  2  0  0  0  0  0  0
  191.4380  176.9850  138.1210 C   0  0  0  0  0  2  0  0  0  0  0  0
  193.3590  176.1820  136.7430 C   0  0  0  0  0  1  0  0  0  0  0  0
  193.6040  176.6780  139.0510 O   0  0  0  0  0  1  0  0  0  0  0  0
  192.7140  176.1560  138.1170 C   0  0  1  0  0  3  0  0  0  0  0  0
  179.0410  178.8790  139.2650 C   0  0  0  0  0  2  0  0  0  0  0  0
  180.1550  179.6700  139.9200 C   0  0  2  0  0  3  0  0  0  0  0  0
  181.3730  179.6630  139.0050 C   0  0  0  0  0  2  0  0  0  0  0  0
  182.3300  179.1370  141.0400 C   0  0  0  0  0  0  0  0  0  0  0  0
  182.5540  179.5380  139.8380 N   0  0  0  0  0  0  0  0  0  0  0  0
  183.3990  178.9790  141.9700 N   0  0  0  0  0  0  0  0  0  0  0  0
  180.6280  178.8660  141.4860 S   0  0  0  0  0  0  0  0  0  0  0  0
  183.1630  178.4630  143.2520 N   0  0  0  0  0  0  0  0  0  0  0  0
  185.2600  179.1990  144.0820 N   0  0  0  0  0  0  0  0  0  0  0  0
  184.5180  178.7140  146.6830 N   0  0  0  0  0  0  0  0  0  0  0  0
  186.2860  179.3070  145.1240 C   0  0  1  0  0  3  0  0  0  0  0  0
  183.8650  177.9530  145.6320 C   0  0  0  0  0  2  0  0  0  0  0  0
  184.1350  178.5750  144.2890 C   0  0  0  0  0  0  0  0  0  0  0  0
  185.6320  179.3350  146.4850 C   0  0  0  0  0  3  0  0  0  0  0  0
  187.2440  178.1270  145.0230 C   0  0  0  0  0  2  0  0  0  0  0  0
  189.7120  176.8910  147.3730 C   0  0  0  0  0  2  0  0  0  0  0  0
  188.3420  177.0120  146.7590 C   0  0  0  0  0  2  0  0  0  0  0  0
  189.8300  178.3610  145.1200 S   0  0  0  0  0  0  0  0  0  0  0  0
  188.3030  178.2550  146.0090 N   0  0  0  0  0  0  0  0  0  0  0  0
  190.7050  177.2800  146.2990 C   0  0  2  0  0  3  0  0  0  0  0  0
  191.2470  176.0340  145.5870 C   0  0  2  0  0  3  0  0  0  0  0  0
  192.4050  175.4920  146.2890 N   0  0  0  0  0  2  0  0  0  0  0  0
  191.9240  174.9580  147.5510 C   0  0  0  0  0  1  0  0  0  0  0  0
  191.5720  176.2920  144.1790 N   0  0  0  0  0  2  0  0  0  0  0  0
  190.5540  175.7180  143.3010 C   0  0  0  0  0  2  0  0  0  0  0  0
  190.0620  176.7660  142.3180 C   0  0  0  0  0  2  0  0  0  0  0  0
  191.2330  177.5300  141.7280 C   0  0  0  0  0  1  0  0  0  0  0  0
  1  2  1  0  0  0  0
  4  8  1  0  0  0  0
  5  2  1  0  0  0  0
  5  3  2  0  0  0  0
  6 37  1  0  0  0  0
  7  4  1  0  0  0  0
  7  9  1  0  0  0  0
  8  6  2  0  0  0  0
  8  5  1  0  0  0  0
  9 11  1  6  0  0  0
  9  1  1  0  0  0  0
 10  4  2  0  0  0  0
 12 26  1  0  0  0  0
 12 11  2  0  0  0  0
 13 14  2  0  0  0  0
 14 11  1  0  0  0  0
 15 13  1  1  0  0  0
 15 17  1  0  0  0  0
 15 12  1  0  0  0  0
 16 20  1  0  0  0  0
 17 16  1  6  0  0  0
 19 17  1  0  0  0  0
 19 23  1  0  0  0  0
 20 22  1  0  0  0  0
 23 21  2  6  0  0  0
 23 22  1  0  0  0  0
 23 18  1  0  0  0  0
 24 25  2  0  0  0  0
 25 30  1  0  0  0  0
 26 24  2  0  0  0  0
 28 29  2  0  0  0  0
 29 27  1  0  0  0  0
 29 25  1  0  0  0  0
 30 31  1  0  0  0  0
 32 31  1  0  0  0  0
 33 32  1  0  0  0  0
 36 34  1  6  0  0  0
 36 33  1  0  0  0  0
 36 35  1  0  0  0  0
 38 37  1  6  0  0  0
 38 43  1  0  0  0  0
 39 41  1  0  0  0  0
 39 38  1  0  0  0  0
 40 43  1  0  0  0  0
 40 42  1  0  0  0  0
 41 40  2  0  0  0  0
 42 44  2  0  0  0  0
 44 49  1  0  0  0  0
 45 49  2  0  0  0  0
 45 47  1  0  0  0  0
 47 51  1  1  0  0  0
 47 50  1  0  0  0  0
 48 46  1  0  0  0  0
 49 48  1  0  0  0  0
 50 46  2  0  0  0  0
 51 55  1  0  0  0  0
 53 52  1  0  0  0  0
 54 55  1  0  0  0  0
 54 56  1  0  0  0  0
 55 53  1  0  0  0  0
 56 57  1  6  0  0  0
 56 52  1  0  0  0  0
 57 60  1  6  0  0  0
 57 58  1  0  0  0  0
 58 59  1  0  0  0  0
 61 60  1  0  0  0  0
 62 61  1  0  0  0  0
 63 62  1  0  0  0  0
M  END
>  <MODEL>
3

>  <REMARK>
 VINA RESULT:      -4.7      4.194      9.134
  Name = 
  19 active torsions:
  status: ('A' for Active; 'I' for Inactive)
    1  A    between atoms: C_3  and  C_5
    2  A    between atoms: C_3  and  N_59
    3  A    between atoms: C_7  and  C_53
    4  A    between atoms: C_8  and  C_16
    5  A    between atoms: C_8  and  C_55
    6  A    between atoms: C_9  and  C_19
    7  A    between atoms: C_10  and  N_40
    8  A    between atoms: C_10  and  C_46
    9  A    between atoms: C_14  and  C_48
   10  A    between atoms: C_16  and  C_25
   11  A    between atoms: N_17  and  C_47
   12  A    between atoms: C_18  and  C_44
   13  A    between atoms: C_18  and  C_56
   14  A    between atoms: C_25  and  C_56
   15  A    between atoms: C_28  and  C_33
   16  A    between atoms: N_31  and  N_54
   17  A    between atoms: C_33  and  N_39
   18  A    between atoms: C_47  and  N_59
   19  A    between atoms: C_47  and  C_63
                            x       y       z     vdW  Elec       q    Type
                         _______ _______ _______ _____ _____    ______ ____

>  <TORSDO>
F 19

$$$$
=
 OpenBabel10222420303D

 63 68  0  0  1  0  0  0  0  0999 V2000
  185.2140  177.4480  143.3600 C   0  0  0  0  0  2  0  0  0  0  0  0
  185.2700  177.9060  141.9890 N   0  0  0  0  0  2  0  0  0  0  0  0
  184.5310  179.2440  140.2640 O   0  0  0  0  0  0  0  0  0  0  0  0
  182.9530  179.4940  143.5550 C   0  0  0  0  0  0  0  0  0  0  0  0
  184.3020  178.7810  141.4140 C   0  0  0  0  0  0  0  0  0  0  0  0
  181.9170  179.2340  141.4270 N   0  0  0  0  0  0  0  0  0  0  0  0
  183.9720  179.1960  144.5200 N   0  0  0  0  0  2  0  0  0  0  0  0
  183.0270  179.1430  142.1060 C   0  0  0  0  0  0  0  0  0  0  0  0
  185.2970  178.6610  144.2590 C   0  0  1  0  0  3  0  0  0  0  0  0
  181.9120  180.0690  143.9730 O   0  0  0  0  0  0  0  0  0  0  0  0
  185.9850  178.3170  145.5430 C   0  0  0  0  0  0  0  0  0  0  0  0
  186.8080  177.2880  145.7070 C   0  0  0  0  0  0  0  0  0  0  0  0
  186.3580  178.1530  147.8910 C   0  0  0  0  0  3  0  0  0  0  0  0
  185.6990  179.0180  146.8240 C   0  0  0  0  0  3  0  0  0  0  0  0
  187.1500  177.0790  147.1450 C   0  0  2  0  0  3  0  0  0  0  0  0
  188.9780  178.3560  148.4280 C   0  0  0  0  0  2  0  0  0  0  0  0
  188.6520  177.2040  147.4500 C   0  0  2  0  0  3  0  0  0  0  0  0
  191.6550  175.5780  146.3650 O   0  0  0  0  0  1  0  0  0  0  0  0
  189.4870  177.2450  146.1730 C   0  0  0  0  0  2  0  0  0  0  0  0
  190.4810  178.6430  148.6250 C   0  0  0  0  0  2  0  0  0  0  0  0
  192.1890  178.0560  145.6800 O   0  0  0  0  0  0  0  0  0  0  0  0
  191.3710  177.4340  148.3640 C   0  0  0  0  0  2  0  0  0  0  0  0
  191.2310  177.0110  146.6020 P   0  0  2  0  0  0  0  0  0  0  0  0
  188.1170  176.6210  143.7360 C   0  0  0  0  0  0  0  0  0  0  0  0
  189.0270  176.8450  142.8230 C   0  0  0  0  0  0  0  0  0  0  0  0
  187.2420  176.3360  144.6640 C   0  0  0  0  0  3  0  0  0  0  0  0
  189.8690  174.5080  142.6530 O   0  0  0  0  0  1  0  0  0  0  0  0
  191.3000  176.2740  142.3960 O   0  0  0  0  0  0  0  0  0  0  0  0
  190.1240  175.8750  142.6180 C   0  0  0  0  0  0  0  0  0  0  0  0
  189.0270  178.1440  142.0890 C   0  0  0  0  0  2  0  0  0  0  0  0
  188.7740  177.9240  140.6110 C   0  0  0  0  0  2  0  0  0  0  0  0
  190.0990  177.8160  139.8860 C   0  0  0  0  0  2  0  0  0  0  0  0
  190.2090  176.4420  139.2420 C   0  0  0  0  0  2  0  0  0  0  0  0
  191.6650  175.8480  137.3020 C   0  0  0  0  0  1  0  0  0  0  0  0
  192.4110  177.3090  139.0180 O   0  0  0  0  0  1  0  0  0  0  0  0
  191.6360  176.1770  138.7850 C   0  0  1  0  0  3  0  0  0  0  0  0
  181.7690  178.8890  140.0170 C   0  0  0  0  0  2  0  0  0  0  0  0
  180.4080  178.2690  139.7720 C   0  0  2  0  0  3  0  0  0  0  0  0
  180.0980  177.2910  140.8970 C   0  0  0  0  0  2  0  0  0  0  0  0
  179.5490  176.0340  139.0400 C   0  0  0  0  0  0  0  0  0  0  0  0
  179.4310  176.1400  140.3170 N   0  0  0  0  0  0  0  0  0  0  0  0
  178.9360  174.9560  138.3360 N   0  0  0  0  0  2  0  0  0  0  0  0
  180.4440  177.3290  138.2100 S   0  0  0  0  0  0  0  0  0  0  0  0
  179.1330  174.7950  136.9570 N   0  0  0  0  0  2  0  0  0  0  0  0
  180.8320  173.1660  137.2530 N   0  0  0  0  0  0  0  0  0  0  0  0
  180.7630  172.4620  134.5980 N   0  0  0  0  0  0  0  0  0  0  0  0
  181.8650  172.2520  136.7550 C   0  0  1  0  0  3  0  0  0  0  0  0
  180.3350  173.8010  134.9620 C   0  0  0  0  0  2  0  0  0  0  0  0
  180.1150  173.8970  136.4460 C   0  0  0  0  0  0  0  0  0  0  0  0
  181.4740  171.7330  135.3920 C   0  0  0  0  0  3  0  0  0  0  0  0
  183.2000  172.9830  136.6780 C   0  0  0  0  0  2  0  0  0  0  0  0
  186.2940  171.6690  135.3190 C   0  0  0  0  0  2  0  0  0  0  0  0
  184.8910  172.2140  135.2600 C   0  0  0  0  0  2  0  0  0  0  0  0
  185.5100  172.4910  137.7610 S   0  0  0  0  0  0  0  0  0  0  0  0
  184.2890  172.0260  136.5670 N   0  0  0  0  0  0  0  0  0  0  0  0
  186.8930  172.1560  136.6220 C   0  0  2  0  0  3  0  0  0  0  0  0
  187.7210  173.4280  136.3920 C   0  0  2  0  0  3  0  0  0  0  0  0
  189.0720  173.2750  136.9220 N   0  0  0  0  0  2  0  0  0  0  0  0
  189.9420  172.9990  135.7910 C   0  0  0  0  0  1  0  0  0  0  0  0
  187.0790  174.6220  136.9570 N   0  0  0  0  0  2  0  0  0  0  0  0
  187.4700  175.8170  136.2130 C   0  0  0  0  0  2  0  0  0  0  0  0
  187.5630  177.0080  137.1510 C   0  0  0  0  0  2  0  0  0  0  0  0
  188.5290  178.0410  136.6010 C   0  0  0  0  0  1  0  0  0  0  0  0
  1  9  1  0  0  0  0
  2  1  1  0  0  0  0
  3  5  2  0  0  0  0
  4 10  2  0  0  0  0
  4  7  1  0  0  0  0
  5  2  1  0  0  0  0
  5  8  1  0  0  0  0
  6  8  2  0  0  0  0
  8  4  1  0  0  0  0
  9  7  1  0  0  0  0
  9 11  1  1  0  0  0
 11 12  2  0  0  0  0
 11 14  1  0  0  0  0
 12 15  1  0  0  0  0
 14 13  2  0  0  0  0
 15 17  1  0  0  0  0
 15 13  1  1  0  0  0
 16 20  1  0  0  0  0
 17 19  1  6  0  0  0
 17 16  1  0  0  0  0
 18 23  1  0  0  0  0
 19 23  1  0  0  0  0
 22 20  1  0  0  0  0
 23 21  2  6  0  0  0
 23 22  1  0  0  0  0
 24 26  2  0  0  0  0
 25 24  2  0  0  0  0
 26 12  1  0  0  0  0
 28 29  2  0  0  0  0
 29 27  1  0  0  0  0
 29 25  1  0  0  0  0
 30 25  1  0  0  0  0
 31 30  1  0  0  0  0
 32 31  1  0  0  0  0
 33 32  1  0  0  0  0
 36 34  1  6  0  0  0
 36 35  1  0  0  0  0
 36 33  1  0  0  0  0
 37  6  1  0  0  0  0
 38 37  1  1  0  0  0
 38 39  1  0  0  0  0
 40 41  2  0  0  0  0
 41 39  1  0  0  0  0
 42 40  1  0  0  0  0
 43 40  1  0  0  0  0
 43 38  1  0  0  0  0
 44 42  1  0  0  0  0
 46 48  1  0  0  0  0
 46 50  2  0  0  0  0
 47 51  1  6  0  0  0
 47 45  1  0  0  0  0
 48 49  1  0  0  0  0
 49 44  1  0  0  0  0
 49 45  2  0  0  0  0
 50 47  1  0  0  0  0
 52 56  1  0  0  0  0
 53 52  1  0  0  0  0
 53 55  1  0  0  0  0
 55 51  1  0  0  0  0
 55 54  1  0  0  0  0
 56 57  1  6  0  0  0
 56 54  1  0  0  0  0
 57 58  1  1  0  0  0
 57 60  1  0  0  0  0
 59 58  1  0  0  0  0
 61 60  1  0  0  0  0
 61 62  1  0  0  0  0
 63 62  1  0  0  0  0
M  END
>  <MODEL>
4

>  <REMARK>
 VINA RESULT:      -4.6      4.084     10.916
  Name = 
  19 active torsions:
  status: ('A' for Active; 'I' for Inactive)
    1  A    between atoms: C_3  and  C_5
    2  A    between atoms: C_3  and  N_59
    3  A    between atoms: C_7  and  C_53
    4  A    between atoms: C_8  and  C_16
    5  A    between atoms: C_8  and  C_55
    6  A    between atoms: C_9  and  C_19
    7  A    between atoms: C_10  and  N_40
    8  A    between atoms: C_10  and  C_46
    9  A    between atoms: C_14  and  C_48
   10  A    between atoms: C_16  and  C_25
   11  A    between atoms: N_17  and  C_47
   12  A    between atoms: C_18  and  C_44
   13  A    between atoms: C_18  and  C_56
   14  A    between atoms: C_25  and  C_56
   15  A    between atoms: C_28  and  C_33
   16  A    between atoms: N_31  and  N_54
   17  A    between atoms: C_33  and  N_39
   18  A    between atoms: C_47  and  N_59
   19  A    between atoms: C_47  and  C_63
                            x       y       z     vdW  Elec       q    Type
                         _______ _______ _______ _____ _____    ______ ____

>  <TORSDO>
F 19

$$$$
=
 OpenBabel10222420303D

 63 68  0  0  1  0  0  0  0  0999 V2000
  185.0660  177.6080  143.0640 C   0  0  0  0  0  2  0  0  0  0  0  0
  185.1770  178.1390  141.7230 N   0  0  0  0  0  2  0  0  0  0  0  0
  184.4660  179.5250  140.0240 O   0  0  0  0  0  0  0  0  0  0  0  0
  182.6880  179.5210  143.2210 C   0  0  0  0  0  0  0  0  0  0  0  0
  184.1970  178.9910  141.1330 C   0  0  0  0  0  0  0  0  0  0  0  0
  181.7940  179.3190  141.0230 N   0  0  0  0  0  0  0  0  0  0  0  0
  183.6650  179.2260  144.2310 N   0  0  0  0  0  2  0  0  0  0  0  0
  182.8660  179.2510  141.7630 C   0  0  0  0  0  0  0  0  0  0  0  0
  185.0300  178.7740  144.0250 C   0  0  1  0  0  3  0  0  0  0  0  0
  181.5950  180.0180  143.6030 O   0  0  0  0  0  0  0  0  0  0  0  0
  185.6600  178.4000  145.3290 C   0  0  0  0  0  0  0  0  0  0  0  0
  186.5380  177.4160  145.4890 C   0  0  0  0  0  0  0  0  0  0  0  0
  185.9000  178.1230  147.6840 C   0  0  0  0  0  3  0  0  0  0  0  0
  185.2510  179.0060  146.6250 C   0  0  0  0  0  3  0  0  0  0  0  0
  186.8050  177.1460  146.9330 C   0  0  2  0  0  3  0  0  0  0  0  0
  188.5510  178.7420  147.9450 C   0  0  0  0  0  2  0  0  0  0  0  0
  188.2740  177.3470  147.3400 C   0  0  2  0  0  3  0  0  0  0  0  0
  191.3000  175.4390  147.1290 O   0  0  0  0  0  1  0  0  0  0  0  0
  189.2300  176.9820  146.2080 C   0  0  0  0  0  2  0  0  0  0  0  0
  190.0380  179.0640  148.2000 C   0  0  0  0  0  2  0  0  0  0  0  0
  191.9970  177.5770  145.7740 O   0  0  0  0  0  0  0  0  0  0  0  0
  190.8990  177.8260  148.4180 C   0  0  0  0  0  2  0  0  0  0  0  0
  190.9130  176.8780  146.8680 P   0  0  2  0  0  0  0  0  0  0  0  0
  187.9010  176.9850  143.4900 C   0  0  0  0  0  0  0  0  0  0  0  0
  188.7490  177.3570  142.5670 C   0  0  0  0  0  0  0  0  0  0  0  0
  187.0960  176.5560  144.4270 C   0  0  0  0  0  3  0  0  0  0  0  0
  190.8690  176.9450  141.3280 O   0  0  0  0  0  0  0  0  0  0  0  0
  190.2460  175.5650  143.0430 O   0  0  0  0  0  1  0  0  0  0  0  0
  189.9800  176.5720  142.3320 C   0  0  0  0  0  0  0  0  0  0  0  0
  188.5360  178.6500  141.8520 C   0  0  0  0  0  2  0  0  0  0  0  0
  188.9850  178.5440  140.4090 C   0  0  0  0  0  2  0  0  0  0  0  0
  187.8950  177.8820  139.5920 C   0  0  0  0  0  2  0  0  0  0  0  0
  188.4980  176.7550  138.7680 C   0  0  0  0  0  2  0  0  0  0  0  0
  189.9920  176.6500  136.7700 C   0  0  0  0  0  1  0  0  0  0  0  0
  189.9210  178.5630  138.1720 O   0  0  0  0  0  1  0  0  0  0  0  0
  189.8410  177.1740  138.1870 C   0  0  1  0  0  3  0  0  0  0  0  0
  181.7460  179.0410  139.5920 C   0  0  0  0  0  2  0  0  0  0  0  0
  180.3980  178.4600  139.2180 C   0  0  2  0  0  3  0  0  0  0  0  0
  179.8970  177.5890  140.3620 C   0  0  0  0  0  2  0  0  0  0  0  0
  179.5260  176.2110  138.5470 C   0  0  0  0  0  0  0  0  0  0  0  0
  179.2520  176.4240  139.7870 N   0  0  0  0  0  0  0  0  0  0  0  0
  178.9520  175.1060  137.8520 N   0  0  0  0  0  2  0  0  0  0  0  0
  180.5840  177.3970  137.7480 S   0  0  0  0  0  0  0  0  0  0  0  0
  179.3160  174.8270  136.5260 N   0  0  0  0  0  2  0  0  0  0  0  0
  180.9460  173.2260  137.1670 N   0  0  0  0  0  0  0  0  0  0  0  0
  181.1940  172.2960  134.5940 N   0  0  0  0  0  0  0  0  0  0  0  0
  182.0210  172.2720  136.8810 C   0  0  1  0  0  3  0  0  0  0  0  0
  180.7410  173.6620  134.7870 C   0  0  0  0  0  2  0  0  0  0  0  0
  180.3420  173.8860  136.2190 C   0  0  0  0  0  0  0  0  0  0  0  0
  181.7930  171.6370  135.5290 C   0  0  0  0  0  3  0  0  0  0  0  0
  183.3640  172.9900  136.9060 C   0  0  0  0  0  2  0  0  0  0  0  0
  184.1940  176.4850  137.3940 C   0  0  0  0  0  2  0  0  0  0  0  0
  183.9240  175.0670  137.8210 C   0  0  0  0  0  2  0  0  0  0  0  0
  183.9270  174.8980  135.2350 S   0  0  0  0  0  0  0  0  0  0  0  0
  183.1680  174.4230  136.7620 N   0  0  0  0  0  0  0  0  0  0  0  0
  184.6240  176.4270  135.9430 C   0  0  2  0  0  3  0  0  0  0  0  0
  186.1540  176.4230  135.8330 C   0  0  2  0  0  3  0  0  0  0  0  0
  186.6290  177.5930  135.1040 N   0  0  0  0  0  2  0  0  0  0  0  0
  187.0970  178.5480  136.0940 C   0  0  0  0  0  1  0  0  0  0  0  0
  186.6670  175.1910  135.2190 N   0  0  0  0  0  2  0  0  0  0  0  0
  187.4130  174.4010  136.1960 C   0  0  0  0  0  2  0  0  0  0  0  0
  188.0880  173.2260  135.5100 C   0  0  0  0  0  2  0  0  0  0  0  0
  188.3840  172.1260  136.5120 C   0  0  0  0  0  1  0  0  0  0  0  0
  1  9  1  0  0  0  0
  2  1  1  0  0  0  0
  3  5  2  0  0  0  0
  4 10  2  0  0  0  0
  4  7  1  0  0  0  0
  5  2  1  0  0  0  0
  5  8  1  0  0  0  0
  6  8  2  0  0  0  0
  8  4  1  0  0  0  0
  9  7  1  0  0  0  0
  9 11  1  1  0  0  0
 11 12  2  0  0  0  0
 11 14  1  0  0  0  0
 12 15  1  0  0  0  0
 14 13  2  0  0  0  0
 15 17  1  0  0  0  0
 15 13  1  1  0  0  0
 16 20  1  0  0  0  0
 17 19  1  6  0  0  0
 17 16  1  0  0  0  0
 19 23  1  0  0  0  0
 20 22  1  0  0  0  0
 23 21  2  6  0  0  0
 23 18  1  0  0  0  0
 23 22  1  0  0  0  0
 24 26  2  0  0  0  0
 25 24  2  0  0  0  0
 26 12  1  0  0  0  0
 27 29  2  0  0  0  0
 29 25  1  0  0  0  0
 29 28  1  0  0  0  0
 30 25  1  0  0  0  0
 31 30  1  0  0  0  0
 32 31  1  0  0  0  0
 33 32  1  0  0  0  0
 35 36  1  0  0  0  0
 36 34  1  6  0  0  0
 36 33  1  0  0  0  0
 37  6  1  0  0  0  0
 38 37  1  1  0  0  0
 38 39  1  0  0  0  0
 40 41  2  0  0  0  0
 41 39  1  0  0  0  0
 42 40  1  0  0  0  0
 43 40  1  0  0  0  0
 43 38  1  0  0  0  0
 44 42  1  0  0  0  0
 46 48  1  0  0  0  0
 46 50  2  0  0  0  0
 47 51  1  6  0  0  0
 47 45  1  0  0  0  0
 48 49  1  0  0  0  0
 49 44  1  0  0  0  0
 49 45  2  0  0  0  0
 50 47  1  0  0  0  0
 52 53  1  0  0  0  0
 54 56  1  0  0  0  0
 54 55  1  0  0  0  0
 55 51  1  0  0  0  0
 55 53  1  0  0  0  0
 56 57  1  1  0  0  0
 56 52  1  0  0  0  0
 57 58  1  6  0  0  0
 58 59  1  0  0  0  0
 60 57  1  0  0  0  0
 60 61  1  0  0  0  0
 62 61  1  0  0  0  0
 62 63  1  0  0  0  0
M  END
>  <MODEL>
5

>  <REMARK>
 VINA RESULT:      -4.3      4.197     10.629
  Name = 
  19 active torsions:
  status: ('A' for Active; 'I' for Inactive)
    1  A    between atoms: C_3  and  C_5
    2  A    between atoms: C_3  and  N_59
    3  A    between atoms: C_7  and  C_53
    4  A    between atoms: C_8  and  C_16
    5  A    between atoms: C_8  and  C_55
    6  A    between atoms: C_9  and  C_19
    7  A    between atoms: C_10  and  N_40
    8  A    between atoms: C_10  and  C_46
    9  A    between atoms: C_14  and  C_48
   10  A    between atoms: C_16  and  C_25
   11  A    between atoms: N_17  and  C_47
   12  A    between atoms: C_18  and  C_44
   13  A    between atoms: C_18  and  C_56
   14  A    between atoms: C_25  and  C_56
   15  A    between atoms: C_28  and  C_33
   16  A    between atoms: N_31  and  N_54
   17  A    between atoms: C_33  and  N_39
   18  A    between atoms: C_47  and  N_59
   19  A    between atoms: C_47  and  C_63
                            x       y       z     vdW  Elec       q    Type
                         _______ _______ _______ _____ _____    ______ ____

>  <TORSDO>
F 19

$$$$
=
 OpenBabel10222420303D

 63 68  0  0  1  0  0  0  0  0999 V2000
  184.6300  177.4110  142.0440 C   0  0  0  0  0  2  0  0  0  0  0  0
  185.5390  177.4270  143.1700 N   0  0  0  0  0  2  0  0  0  0  0  0
  187.5370  178.0160  144.1570 O   0  0  0  0  0  0  0  0  0  0  0  0
  186.8740  178.9830  140.6910 C   0  0  0  0  0  0  0  0  0  0  0  0
  186.8830  177.8960  143.0860 C   0  0  0  0  0  0  0  0  0  0  0  0
  188.7960  177.9020  141.5910 N   0  0  0  0  0  0  0  0  0  0  0  0
  185.4570  179.1820  140.5870 N   0  0  0  0  0  2  0  0  0  0  0  0
  187.5470  178.2220  141.7870 C   0  0  0  0  0  0  0  0  0  0  0  0
  184.4480  178.8360  141.5730 C   0  0  1  0  0  3  0  0  0  0  0  0
  187.5940  179.4650  139.7760 O   0  0  0  0  0  0  0  0  0  0  0  0
  183.0760  179.0320  141.0100 C   0  0  0  0  0  0  0  0  0  0  0  0
  182.8080  179.2300  139.7240 C   0  0  0  0  0  0  0  0  0  0  0  0
  180.7810  179.6680  140.9160 C   0  0  0  0  0  3  0  0  0  0  0  0
  181.8660  179.1740  141.8640 C   0  0  0  0  0  3  0  0  0  0  0  0
  181.3830  179.6170  139.5110 C   0  0  2  0  0  3  0  0  0  0  0  0
  180.5590  177.2000  139.1940 C   0  0  0  0  0  2  0  0  0  0  0  0
  180.6000  178.6360  138.6230 C   0  0  2  0  0  3  0  0  0  0  0  0
  178.9310  178.7830  135.4550 O   0  0  0  0  0  1  0  0  0  0  0  0
  181.0670  178.6920  137.1710 C   0  0  0  0  0  2  0  0  0  0  0  0
  179.9470  176.1380  138.2570 C   0  0  0  0  0  2  0  0  0  0  0  0
  180.6930  176.8980  134.9700 O   0  0  0  0  0  0  0  0  0  0  0  0
  178.9550  176.7120  137.2520 C   0  0  0  0  0  2  0  0  0  0  0  0
  179.8720  177.8120  136.1330 P   0  0  2  0  0  0  0  0  0  0  0  0
  184.0550  178.1930  137.8770 C   0  0  0  0  0  0  0  0  0  0  0  0
  184.3180  177.1900  137.0800 C   0  0  0  0  0  0  0  0  0  0  0  0
  183.7840  179.2370  138.6150 C   0  0  0  0  0  3  0  0  0  0  0  0
  185.2110  176.7050  134.8070 O   0  0  0  0  0  0  0  0  0  0  0  0
  183.4650  178.1590  135.0770 O   0  0  0  0  0  1  0  0  0  0  0  0
  184.3040  177.3850  135.6140 C   0  0  0  0  0  0  0  0  0  0  0  0
  184.4960  175.8230  137.6520 C   0  0  0  0  0  2  0  0  0  0  0  0
  183.1690  175.0950  137.7230 C   0  0  0  0  0  2  0  0  0  0  0  0
  183.2960  173.7520  137.0350 C   0  0  0  0  0  2  0  0  0  0  0  0
  184.7460  173.2940  137.0900 C   0  0  0  0  0  2  0  0  0  0  0  0
  183.6480  171.5210  135.7170 C   0  0  0  0  0  1  0  0  0  0  0  0
  185.6620  172.5670  135.0210 O   0  0  0  0  0  1  0  0  0  0  0  0
  184.9740  172.1230  136.1470 C   0  0  1  0  0  3  0  0  0  0  0  0
  189.6120  177.1190  142.5120 C   0  0  0  0  0  2  0  0  0  0  0  0
  190.8070  176.5370  141.7850 C   0  0  2  0  0  3  0  0  0  0  0  0
  191.9670  177.5200  141.8690 C   0  0  0  0  0  2  0  0  0  0  0  0
  191.9950  176.9760  139.6250 C   0  0  0  0  0  0  0  0  0  0  0  0
  192.6580  177.5040  140.5930 N   0  0  0  0  0  0  0  0  0  0  0  0
  192.5580  176.8850  138.3180 N   0  0  0  0  0  2  0  0  0  0  0  0
  190.3930  176.3110  140.0240 S   0  0  0  0  0  0  0  0  0  0  0  0
  191.8030  176.3860  137.2460 N   0  0  0  0  0  2  0  0  0  0  0  0
  193.4600  174.7990  136.6420 N   0  0  0  0  0  0  0  0  0  0  0  0
  191.7300  173.4760  134.9680 N   0  0  0  0  0  0  0  0  0  0  0  0
  194.0050  173.7450  135.7810 C   0  0  1  0  0  3  0  0  0  0  0  0
  191.4830  174.8820  135.2340 C   0  0  0  0  0  2  0  0  0  0  0  0
  192.3000  175.3450  136.4080 C   0  0  0  0  0  0  0  0  0  0  0  0
  192.8770  172.9290  135.1970 C   0  0  0  0  0  3  0  0  0  0  0  0
  194.8360  174.3710  134.6680 C   0  0  0  0  0  2  0  0  0  0  0  0
  198.0030  174.0580  136.4040 C   0  0  0  0  0  2  0  0  0  0  0  0
  196.7910  174.7820  135.8800 C   0  0  0  0  0  2  0  0  0  0  0  0
  196.2490  172.3020  135.3570 S   0  0  0  0  0  0  0  0  0  0  0  0
  196.2300  173.9840  134.8050 N   0  0  0  0  0  0  0  0  0  0  0  0
  197.6160  172.5990  136.5270 C   0  0  2  0  0  3  0  0  0  0  0  0
  197.1770  172.2750  137.9610 C   0  0  2  0  0  3  0  0  0  0  0  0
  195.8190  171.7430  137.9850 N   0  0  0  0  0  2  0  0  0  0  0  0
  195.9260  170.3020  137.8320 C   0  0  0  0  0  1  0  0  0  0  0  0
  197.2920  173.4350  138.8550 N   0  0  0  0  0  2  0  0  0  0  0  0
  195.9900  174.0720  139.0410 C   0  0  0  0  0  2  0  0  0  0  0  0
  196.0780  175.1310  140.1260 C   0  0  0  0  0  2  0  0  0  0  0  0
  197.4690  175.1560  140.7310 C   0  0  0  0  0  1  0  0  0  0  0  0
  1  2  1  0  0  0  0
  4  8  1  0  0  0  0
  5  2  1  0  0  0  0
  5  3  2  0  0  0  0
  6  8  2  0  0  0  0
  6 37  1  0  0  0  0
  7  4  1  0  0  0  0
  7  9  1  0  0  0  0
  8  5  1  0  0  0  0
  9 11  1  6  0  0  0
  9  1  1  0  0  0  0
 10  4  2  0  0  0  0
 11 14  1  0  0  0  0
 12 11  2  0  0  0  0
 13 14  2  0  0  0  0
 15 12  1  0  0  0  0
 15 13  1  1  0  0  0
 17 19  1  6  0  0  0
 17 16  1  0  0  0  0
 17 15  1  0  0  0  0
 18 23  1  0  0  0  0
 20 16  1  0  0  0  0
 22 20  1  0  0  0  0
 23 21  2  6  0  0  0
 23 19  1  0  0  0  0
 23 22  1  0  0  0  0
 24 26  2  0  0  0  0
 25 30  1  0  0  0  0
 25 24  2  0  0  0  0
 26 12  1  0  0  0  0
 27 29  2  0  0  0  0
 28 29  1  0  0  0  0
 29 25  1  0  0  0  0
 30 31  1  0  0  0  0
 32 33  1  0  0  0  0
 32 31  1  0  0  0  0
 35 36  1  0  0  0  0
 36 34  1  6  0  0  0
 36 33  1  0  0  0  0
 38 39  1  0  0  0  0
 38 37  1  1  0  0  0
 40 43  1  0  0  0  0
 40 41  2  0  0  0  0
 41 39  1  0  0  0  0
 42 40  1  0  0  0  0
 43 38  1  0  0  0  0
 44 42  1  0  0  0  0
 46 50  2  0  0  0  0
 46 48  1  0  0  0  0
 47 51  1  6  0  0  0
 47 45  1  0  0  0  0
 48 49  1  0  0  0  0
 49 45  2  0  0  0  0
 49 44  1  0  0  0  0
 50 47  1  0  0  0  0
 51 55  1  0  0  0  0
 52 56  1  0  0  0  0
 53 52  1  0  0  0  0
 54 56  1  0  0  0  0
 55 54  1  0  0  0  0
 55 53  1  0  0  0  0
 56 57  1  1  0  0  0
 57 58  1  6  0  0  0
 57 60  1  0  0  0  0
 59 58  1  0  0  0  0
 60 61  1  0  0  0  0
 61 62  1  0  0  0  0
 62 63  1  0  0  0  0
M  END
>  <MODEL>
6

>  <REMARK>
 VINA RESULT:      -3.2      3.165      6.975
  Name = 
  19 active torsions:
  status: ('A' for Active; 'I' for Inactive)
    1  A    between atoms: C_3  and  C_5
    2  A    between atoms: C_3  and  N_59
    3  A    between atoms: C_7  and  C_53
    4  A    between atoms: C_8  and  C_16
    5  A    between atoms: C_8  and  C_55
    6  A    between atoms: C_9  and  C_19
    7  A    between atoms: C_10  and  N_40
    8  A    between atoms: C_10  and  C_46
    9  A    between atoms: C_14  and  C_48
   10  A    between atoms: C_16  and  C_25
   11  A    between atoms: N_17  and  C_47
   12  A    between atoms: C_18  and  C_44
   13  A    between atoms: C_18  and  C_56
   14  A    between atoms: C_25  and  C_56
   15  A    between atoms: C_28  and  C_33
   16  A    between atoms: N_31  and  N_54
   17  A    between atoms: C_33  and  N_39
   18  A    between atoms: C_47  and  N_59
   19  A    between atoms: C_47  and  C_63
                            x       y       z     vdW  Elec       q    Type
                         _______ _______ _______ _____ _____    ______ ____

>  <TORSDO>
F 19

$$$$
=
 OpenBabel10222420303D

 63 68  0  0  1  0  0  0  0  0999 V2000
  189.0590  178.8400  140.3900 C   0  0  0  0  0  2  0  0  0  0  0  0
  187.6560  178.9170  140.0450 N   0  0  0  0  0  2  0  0  0  0  0  0
  185.8180  178.2050  138.8510 O   0  0  0  0  0  0  0  0  0  0  0  0
  189.0570  176.5870  138.3260 C   0  0  0  0  0  0  0  0  0  0  0  0
  187.0730  178.1900  138.9650 C   0  0  0  0  0  0  0  0  0  0  0  0
  187.5500  177.4590  136.7010 N   0  0  0  0  0  0  0  0  0  0  0  0
  189.7510  176.6470  139.5800 N   0  0  0  0  0  2  0  0  0  0  0  0
  187.8880  177.4420  137.9600 C   0  0  0  0  0  0  0  0  0  0  0  0
  189.3700  177.4070  140.7580 C   0  0  1  0  0  3  0  0  0  0  0  0
  189.4860  175.7710  137.4670 O   0  0  0  0  0  0  0  0  0  0  0  0
  190.4520  177.3520  141.7900 C   0  0  0  0  0  0  0  0  0  0  0  0
  190.4250  178.0010  142.9480 C   0  0  0  0  0  0  0  0  0  0  0  0
  192.6410  177.1350  142.7060 C   0  0  0  0  0  3  0  0  0  0  0  0
  191.7550  176.6720  141.5560 C   0  0  0  0  0  3  0  0  0  0  0  0
  191.7390  177.9270  143.6510 C   0  0  2  0  0  3  0  0  0  0  0  0
  192.1850  175.7910  145.0140 C   0  0  0  0  0  2  0  0  0  0  0  0
  191.6690  177.2480  145.0290 C   0  0  2  0  0  3  0  0  0  0  0  0
  190.4780  178.1320  148.2910 O   0  0  0  0  0  1  0  0  0  0  0  0
  190.2860  177.3890  145.6590 C   0  0  0  0  0  2  0  0  0  0  0  0
  191.9680  175.0040  146.3220 C   0  0  0  0  0  2  0  0  0  0  0  0
  189.0180  176.0010  147.8190 O   0  0  0  0  0  0  0  0  0  0  0  0
  191.8780  175.8910  147.5580 C   0  0  0  0  0  2  0  0  0  0  0  0
  190.3820  176.9110  147.4030 P   0  0  2  0  0  0  0  0  0  0  0  0
  188.1520  178.3670  143.8090 C   0  0  0  0  0  0  0  0  0  0  0  0
  186.9880  177.9350  144.2200 C   0  0  0  0  0  0  0  0  0  0  0  0
  189.3210  178.8370  143.4600 C   0  0  0  0  0  3  0  0  0  0  0  0
  186.3710  177.4540  146.5830 O   0  0  0  0  0  1  0  0  0  0  0  0
  186.0980  179.5560  145.7220 O   0  0  0  0  0  0  0  0  0  0  0  0
  186.4600  178.3620  145.5330 C   0  0  0  0  0  0  0  0  0  0  0  0
  186.2630  176.9050  143.4200 C   0  0  0  0  0  2  0  0  0  0  0  0
  185.5050  177.5500  142.2770 C   0  0  0  0  0  2  0  0  0  0  0  0
  184.7930  178.7870  142.7820 C   0  0  0  0  0  2  0  0  0  0  0  0
  183.6820  178.3730  143.7350 C   0  0  0  0  0  2  0  0  0  0  0  0
  181.2140  178.7300  143.8610 C   0  0  0  0  0  1  0  0  0  0  0  0
  182.4090  179.0040  141.8290 O   0  0  0  0  0  1  0  0  0  0  0  0
  182.3600  178.2420  142.9930 C   0  0  1  0  0  3  0  0  0  0  0  0
  186.4740  178.2650  136.1340 C   0  0  0  0  0  2  0  0  0  0  0  0
  185.7040  177.4610  135.1070 C   0  0  2  0  0  3  0  0  0  0  0  0
  184.4260  178.2070  134.7480 C   0  0  0  0  0  2  0  0  0  0  0  0
  183.6210  176.0710  135.0950 C   0  0  0  0  0  0  0  0  0  0  0  0
  183.3670  177.2280  134.5940 N   0  0  0  0  0  0  0  0  0  0  0  0
  182.6720  175.0100  135.0060 N   0  0  0  0  0  2  0  0  0  0  0  0
  185.2290  175.8550  135.8270 S   0  0  0  0  0  0  0  0  0  0  0  0
  182.9180  173.7750  135.6240 N   0  0  0  0  0  2  0  0  0  0  0  0
  180.7530  173.6770  136.5910 N   0  0  0  0  0  0  0  0  0  0  0  0
  181.0650  171.0330  137.2710 N   0  0  0  0  0  0  0  0  0  0  0  0
  179.7300  173.0580  137.4400 C   0  0  1  0  0  3  0  0  0  0  0  0
  182.2590  171.8480  137.1280 C   0  0  0  0  0  2  0  0  0  0  0  0
  181.9320  173.1410  136.4350 C   0  0  0  0  0  0  0  0  0  0  0  0
  179.8950  171.5570  137.4260 C   0  0  0  0  0  3  0  0  0  0  0  0
  179.8540  173.5900  138.8620 C   0  0  0  0  0  2  0  0  0  0  0  0
  178.9310  176.9080  139.9930 C   0  0  0  0  0  2  0  0  0  0  0  0
  179.4980  175.5190  140.1310 C   0  0  0  0  0  2  0  0  0  0  0  0
  179.0200  175.6960  137.5900 S   0  0  0  0  0  0  0  0  0  0  0  0
  178.9490  174.7100  139.0580 N   0  0  0  0  0  0  0  0  0  0  0  0
  179.0050  177.2620  138.5230 C   0  0  2  0  0  3  0  0  0  0  0  0
  180.2710  178.0780  138.2280 C   0  0  2  0  0  3  0  0  0  0  0  0
  181.4130  177.2020  137.9900 N   0  0  0  0  0  2  0  0  0  0  0  0
  182.5580  178.0590  137.7320 C   0  0  0  0  0  1  0  0  0  0  0  0
  180.5750  179.0420  139.2920 N   0  0  0  0  0  2  0  0  0  0  0  0
  179.6360  180.1620  139.2560 C   0  0  0  0  0  2  0  0  0  0  0  0
  180.3590  181.4360  138.8540 C   0  0  0  0  0  2  0  0  0  0  0  0
  179.3930  182.4090  138.2030 C   0  0  0  0  0  1  0  0  0  0  0  0
  1  9  1  0  0  0  0
  2  1  1  0  0  0  0
  3  5  2  0  0  0  0
  4  7  1  0  0  0  0
  5  2  1  0  0  0  0
  6  8  2  0  0  0  0
  7  9  1  0  0  0  0
  8  4  1  0  0  0  0
  8  5  1  0  0  0  0
  9 11  1  1  0  0  0
 10  4  2  0  0  0  0
 11 12  2  0  0  0  0
 12 26  1  0  0  0  0
 12 15  1  0  0  0  0
 14 11  1  0  0  0  0
 14 13  2  0  0  0  0
 15 13  1  6  0  0  0
 15 17  1  0  0  0  0
 16 20  1  0  0  0  0
 17 16  1  6  0  0  0
 17 19  1  0  0  0  0
 19 23  1  0  0  0  0
 20 22  1  0  0  0  0
 23 22  1  0  0  0  0
 23 21  2  1  0  0  0
 23 18  1  0  0  0  0
 24 25  2  0  0  0  0
 25 29  1  0  0  0  0
 26 24  2  0  0  0  0
 29 28  2  0  0  0  0
 29 27  1  0  0  0  0
 30 25  1  0  0  0  0
 31 32  1  0  0  0  0
 31 30  1  0  0  0  0
 32 33  1  0  0  0  0
 35 36  1  0  0  0  0
 36 33  1  0  0  0  0
 36 34  1  1  0  0  0
 37  6  1  0  0  0  0
 38 43  1  0  0  0  0
 38 37  1  1  0  0  0
 39 38  1  0  0  0  0
 40 43  1  0  0  0  0
 41 39  1  0  0  0  0
 41 40  2  0  0  0  0
 42 40  1  0  0  0  0
 42 44  1  0  0  0  0
 44 49  1  0  0  0  0
 45 47  1  0  0  0  0
 46 50  2  0  0  0  0
 47 51  1  1  0  0  0
 48 46  1  0  0  0  0
 49 45  2  0  0  0  0
 49 48  1  0  0  0  0
 50 47  1  0  0  0  0
 51 55  1  0  0  0  0
 52 53  1  0  0  0  0
 54 56  1  0  0  0  0
 54 55  1  0  0  0  0
 55 53  1  0  0  0  0
 56 57  1  1  0  0  0
 56 52  1  0  0  0  0
 57 58  1  1  0  0  0
 57 60  1  0  0  0  0
 59 58  1  0  0  0  0
 61 60  1  0  0  0  0
 62 61  1  0  0  0  0
 63 62  1  0  0  0  0
M  END
>  <MODEL>
7

>  <REMARK>
 VINA RESULT:      -3.1      3.820     10.315
  Name = 
  19 active torsions:
  status: ('A' for Active; 'I' for Inactive)
    1  A    between atoms: C_3  and  C_5
    2  A    between atoms: C_3  and  N_59
    3  A    between atoms: C_7  and  C_53
    4  A    between atoms: C_8  and  C_16
    5  A    between atoms: C_8  and  C_55
    6  A    between atoms: C_9  and  C_19
    7  A    between atoms: C_10  and  N_40
    8  A    between atoms: C_10  and  C_46
    9  A    between atoms: C_14  and  C_48
   10  A    between atoms: C_16  and  C_25
   11  A    between atoms: N_17  and  C_47
   12  A    between atoms: C_18  and  C_44
   13  A    between atoms: C_18  and  C_56
   14  A    between atoms: C_25  and  C_56
   15  A    between atoms: C_28  and  C_33
   16  A    between atoms: N_31  and  N_54
   17  A    between atoms: C_33  and  N_39
   18  A    between atoms: C_47  and  N_59
   19  A    between atoms: C_47  and  C_63
                            x       y       z     vdW  Elec       q    Type
                         _______ _______ _______ _____ _____    ______ ____

>  <TORSDO>
F 19

$$$$
=
 OpenBabel10222420303D

 63 68  0  0  1  0  0  0  0  0999 V2000
  185.5390  177.5390  138.2520 C   0  0  0  0  0  2  0  0  0  0  0  0
  186.3880  178.6670  138.5680 N   0  0  0  0  0  2  0  0  0  0  0  0
  188.4560  179.6780  138.6940 O   0  0  0  0  0  0  0  0  0  0  0  0
  188.1910  176.2440  137.4600 C   0  0  0  0  0  0  0  0  0  0  0  0
  187.8130  178.6020  138.5620 C   0  0  0  0  0  0  0  0  0  0  0  0
  189.6420  177.1130  139.1370 N   0  0  0  0  0  0  0  0  0  0  0  0
  186.9170  176.1430  136.8060 N   0  0  0  0  0  2  0  0  0  0  0  0
  188.5630  177.3160  138.4310 C   0  0  0  0  0  0  0  0  0  0  0  0
  185.8380  177.1150  136.8330 C   0  0  1  0  0  3  0  0  0  0  0  0
  189.0400  175.3470  137.2130 O   0  0  0  0  0  0  0  0  0  0  0  0
  184.6130  176.5540  136.1820 C   0  0  0  0  0  0  0  0  0  0  0  0
  184.2290  175.2850  136.2600 C   0  0  0  0  0  0  0  0  0  0  0  0
  182.8530  176.3100  134.5940 C   0  0  0  0  0  3  0  0  0  0  0  0
  183.7660  177.3420  135.2460 C   0  0  0  0  0  3  0  0  0  0  0  0
  183.1040  174.9920  135.3240 C   0  0  2  0  0  3  0  0  0  0  0  0
  180.5720  174.5840  135.1220 C   0  0  0  0  0  2  0  0  0  0  0  0
  181.8240  174.5090  136.0260 C   0  0  2  0  0  3  0  0  0  0  0  0
  180.9460  173.3630  139.3060 O   0  0  0  0  0  1  0  0  0  0  0  0
  181.6290  175.1900  137.3790 C   0  0  0  0  0  2  0  0  0  0  0  0
  179.2330  174.2880  135.8290 C   0  0  0  0  0  2  0  0  0  0  0  0
  179.3440  175.4320  139.0870 O   0  0  0  0  0  0  0  0  0  0  0  0
  179.3770  173.3980  137.0570 C   0  0  0  0  0  2  0  0  0  0  0  0
  180.3380  174.3140  138.2980 P   0  0  2  0  0  0  0  0  0  0  0  0
  185.4970  173.1920  136.4930 C   0  0  0  0  0  0  0  0  0  0  0  0
  186.1610  172.1820  135.9960 C   0  0  0  0  0  0  0  0  0  0  0  0
  184.8890  174.2150  137.0350 C   0  0  0  0  0  3  0  0  0  0  0  0
  188.3630  171.0460  135.7560 O   0  0  0  0  0  0  0  0  0  0  0  0
  187.9320  172.3580  137.5800 O   0  0  0  0  0  1  0  0  0  0  0  0
  187.5190  171.8700  136.4920 C   0  0  0  0  0  0  0  0  0  0  0  0
  185.5990  171.4330  134.8330 C   0  0  0  0  0  2  0  0  0  0  0  0
  185.3310  169.9890  135.2040 C   0  0  0  0  0  2  0  0  0  0  0  0
  183.8570  169.8130  135.5030 C   0  0  0  0  0  2  0  0  0  0  0  0
  183.1400  171.1390  135.2970 C   0  0  0  0  0  2  0  0  0  0  0  0
  181.0420  169.7880  135.3910 C   0  0  0  0  0  1  0  0  0  0  0  0
  181.7570  171.1080  137.2300 O   0  0  0  0  0  1  0  0  0  0  0  0
  181.7200  171.0710  135.8390 C   0  0  1  0  0  3  0  0  0  0  0  0
  190.1460  178.0100  140.1710 C   0  0  0  0  0  2  0  0  0  0  0  0
  190.8360  177.2150  141.2610 C   0  0  2  0  0  3  0  0  0  0  0  0
  190.3280  175.7800  141.2260 C   0  0  0  0  0  2  0  0  0  0  0  0
  190.1860  176.2570  143.4810 C   0  0  0  0  0  0  0  0  0  0  0  0
  190.1910  175.3230  142.5960 N   0  0  0  0  0  0  0  0  0  0  0  0
  190.0680  175.9490  144.8690 N   0  0  0  0  0  2  0  0  0  0  0  0
  190.4070  177.9200  142.8870 S   0  0  0  0  0  0  0  0  0  0  0  0
  189.9810  176.9720  145.8240 N   0  0  0  0  0  2  0  0  0  0  0  0
  187.6220  177.1350  145.6300 N   0  0  0  0  0  0  0  0  0  0  0  0
  187.4400  178.6820  147.8940 N   0  0  0  0  0  0  0  0  0  0  0  0
  186.3250  177.7410  145.9490 C   0  0  1  0  0  3  0  0  0  0  0  0
  188.6890  178.6970  147.1540 C   0  0  0  0  0  2  0  0  0  0  0  0
  188.7300  177.5620  146.1690 C   0  0  0  0  0  0  0  0  0  0  0  0
  186.3390  178.2610  147.3670 C   0  0  0  0  0  3  0  0  0  0  0  0
  186.0360  178.8750  144.9740 C   0  0  0  0  0  2  0  0  0  0  0  0
  184.5580  177.4180  142.0020 C   0  0  0  0  0  2  0  0  0  0  0  0
  184.8920  177.5030  143.4680 C   0  0  0  0  0  2  0  0  0  0  0  0
  185.7590  179.7650  142.5490 S   0  0  0  0  0  0  0  0  0  0  0  0
  186.0420  178.3760  143.6090 N   0  0  0  0  0  0  0  0  0  0  0  0
  184.6400  178.8280  141.4560 C   0  0  2  0  0  3  0  0  0  0  0  0
  183.2500  179.4770  141.4250 C   0  0  2  0  0  3  0  0  0  0  0  0
  182.6800  179.5570  142.7660 N   0  0  0  0  0  2  0  0  0  0  0  0
  181.2590  179.2810  142.6400 C   0  0  0  0  0  1  0  0  0  0  0  0
  182.3290  178.7830  140.5160 N   0  0  0  0  0  2  0  0  0  0  0  0
  182.3280  179.4190  139.2000 C   0  0  0  0  0  2  0  0  0  0  0  0
  180.9500  179.3150  138.5710 C   0  0  0  0  0  2  0  0  0  0  0  0
  181.0110  178.4980  137.2940 C   0  0  0  0  0  1  0  0  0  0  0  0
  1  2  1  0  0  0  0
  4  8  1  0  0  0  0
  5  2  1  0  0  0  0
  5  3  2  0  0  0  0
  6 37  1  0  0  0  0
  7  9  1  0  0  0  0
  7  4  1  0  0  0  0
  8  5  1  0  0  0  0
  8  6  2  0  0  0  0
  9 11  1  1  0  0  0
  9  1  1  0  0  0  0
 10  4  2  0  0  0  0
 11 12  2  0  0  0  0
 12 26  1  0  0  0  0
 13 14  2  0  0  0  0
 14 11  1  0  0  0  0
 15 13  1  1  0  0  0
 15 17  1  0  0  0  0
 15 12  1  0  0  0  0
 16 20  1  0  0  0  0
 17 16  1  6  0  0  0
 17 19  1  0  0  0  0
 19 23  1  0  0  0  0
 20 22  1  0  0  0  0
 22 23  1  0  0  0  0
 23 21  2  1  0  0  0
 23 18  1  0  0  0  0
 24 26  2  0  0  0  0
 25 29  1  0  0  0  0
 25 24  2  0  0  0  0
 27 29  2  0  0  0  0
 29 28  1  0  0  0  0
 30 31  1  0  0  0  0
 30 25  1  0  0  0  0
 31 32  1  0  0  0  0
 33 32  1  0  0  0  0
 33 36  1  0  0  0  0
 36 34  1  1  0  0  0
 36 35  1  0  0  0  0
 38 37  1  6  0  0  0
 38 43  1  0  0  0  0
 39 38  1  0  0  0  0
 39 41  1  0  0  0  0
 40 42  1  0  0  0  0
 41 40  2  0  0  0  0
 42 44  1  0  0  0  0
 43 40  1  0  0  0  0
 44 49  1  0  0  0  0
 45 47  1  0  0  0  0
 45 49  2  0  0  0  0
 47 51  1  6  0  0  0
 47 50  1  0  0  0  0
 48 46  1  0  0  0  0
 49 48  1  0  0  0  0
 50 46  2  0  0  0  0
 52 53  1  0  0  0  0
 53 55  1  0  0  0  0
 54 55  1  0  0  0  0
 55 51  1  0  0  0  0
 56 57  1  1  0  0  0
 56 52  1  0  0  0  0
 56 54  1  0  0  0  0
 57 60  1  6  0  0  0
 57 58  1  0  0  0  0
 59 58  1  0  0  0  0
 61 60  1  0  0  0  0
 62 61  1  0  0  0  0
 63 62  1  0  0  0  0
M  END
>  <MODEL>
8

>  <REMARK>
 VINA RESULT:      -2.9      3.571      7.904
  Name = 
  19 active torsions:
  status: ('A' for Active; 'I' for Inactive)
    1  A    between atoms: C_3  and  C_5
    2  A    between atoms: C_3  and  N_59
    3  A    between atoms: C_7  and  C_53
    4  A    between atoms: C_8  and  C_16
    5  A    between atoms: C_8  and  C_55
    6  A    between atoms: C_9  and  C_19
    7  A    between atoms: C_10  and  N_40
    8  A    between atoms: C_10  and  C_46
    9  A    between atoms: C_14  and  C_48
   10  A    between atoms: C_16  and  C_25
   11  A    between atoms: N_17  and  C_47
   12  A    between atoms: C_18  and  C_44
   13  A    between atoms: C_18  and  C_56
   14  A    between atoms: C_25  and  C_56
   15  A    between atoms: C_28  and  C_33
   16  A    between atoms: N_31  and  N_54
   17  A    between atoms: C_33  and  N_39
   18  A    between atoms: C_47  and  N_59
   19  A    between atoms: C_47  and  C_63
                            x       y       z     vdW  Elec       q    Type
                         _______ _______ _______ _____ _____    ______ ____

>  <TORSDO>
F 19

$$$$
