=
 OpenBabel10222420413D

 42 49  0  0  1  0  0  0  0  0999 V2000
  184.3790  178.6840  144.4370 C   0  0  0  0  0  0  0  0  0  0  0  0
  185.8690  178.5060  142.5540 C   0  0  0  0  0  3  0  0  0  0  0  0
  185.6560  178.5310  143.9220 C   0  0  0  0  0  3  0  0  0  0  0  0
  182.8870  178.1750  139.1340 C   0  0  1  0  0  3  0  0  0  0  0  0
  181.3180  179.8250  139.3460 C   0  0  0  0  0  0  0  0  0  0  0  0
  180.8320  180.0280  136.7260 C   0  0  1  0  0  3  0  0  0  0  0  0
  184.3550  178.3090  139.1280 C   0  0  0  0  0  0  0  0  0  0  0  0
  181.8900  178.9300  144.0810 C   0  0  0  0  0  1  0  0  0  0  0  0
  180.4920  180.6180  139.8750 O   0  0  0  0  0  0  0  0  0  0  0  0
  185.1360  178.0940  138.0790 C   0  0  0  0  0  3  0  0  0  0  0  0
  181.3300  179.3250  137.9770 C   0  0  1  0  0  0  0  0  0  0  0  0
  182.3610  179.1910  140.0210 N   0  0  0  0  0  0  0  0  0  0  0  0
  184.8300  178.6280  141.6220 C   0  0  0  0  0  0  0  0  0  0  0  0
  183.4930  178.8260  142.1410 C   0  0  0  0  0  0  0  0  0  0  0  0
  185.1880  178.5180  140.3100 C   0  0  1  0  0  3  0  0  0  0  0  0
  187.8440  178.6160  140.4310 C   0  0  0  0  0  1  0  0  0  0  0  0
  186.5440  178.4160  139.7270 C   0  0  0  0  0  0  0  0  0  0  0  0
  182.3330  178.3510  137.8250 O   0  0  0  0  0  0  0  0  0  0  0  0
  182.4400  179.1120  141.4160 N   0  0  0  0  0  2  0  0  0  0  0  0
  179.9980  178.9270  137.3910 C   0  0  0  0  0  2  0  0  0  0  0  0
  186.5040  178.1860  138.4560 N   0  0  0  0  0  0  0  0  0  0  0  0
  183.2890  178.8170  143.5480 C   0  0  0  0  0  0  0  0  0  0  0  0
  179.6580  184.1560  136.3730 N   0  0  1  0  0  0  0  0  0  0  0  0
  181.3480  182.4360  137.1390 C   0  0  0  0  0  2  0  0  0  0  0  0
  179.4820  183.1430  135.3290 C   0  0  0  0  0  2  0  0  0  0  0  0
  180.2350  181.3960  137.0210 C   0  0  1  0  0  3  0  0  0  0  0  0
  180.7410  183.8280  137.3450 C   0  0  1  0  0  3  0  0  0  0  0  0
  179.2120  181.7670  135.9400 C   0  0  0  0  0  2  0  0  0  0  0  0
  181.0200  184.6850  136.1980 C   0  0  0  0  0  2  0  0  0  0  0  0
  184.2500  178.6950  145.8680 N   0  0  0  0  0  2  0  0  0  0  0  0
  185.2530  179.1290  146.7480 N   0  0  0  0  0  2  0  0  0  0  0  0
  185.8180  177.9450  147.3740 C   0  0  0  0  0  2  0  0  0  0  0  0
  187.2980  178.0760  147.4370 C   0  0  0  0  0  0  0  0  0  0  0  0
  188.1010  177.5490  146.3810 N   0  0  0  0  0  2  0  0  0  0  0  0
  187.8300  178.6800  148.4060 O   0  0  0  0  0  0  0  0  0  0  0  0
  189.4890  177.7470  146.3470 N   0  0  0  0  0  2  0  0  0  0  0  0
  189.3990  176.3130  142.8630 C   0  0  0  0  0  2  0  0  0  0  0  0
  191.2310  176.7150  144.9820 C   0  0  0  0  0  2  0  0  0  0  0  0
  188.8400  176.7570  144.2140 C   0  0  0  0  0  2  0  0  0  0  0  0
  189.9250  177.5090  144.9800 C   0  0  0  0  0  3  0  0  0  0  0  0
  191.5500  176.2810  143.5520 C   0  0  0  0  0  2  0  0  0  0  0  0
  190.5110  175.4720  143.0560 O   0  0  0  0  0  0  0  0  0  0  0  0
  1 30  1  0  0  0  0
  2  3  2  0  0  0  0
  3  1  1  0  0  0  0
  4 18  1  6  0  0  0
  4 12  1  0  0  0  0
  5  9  2  0  0  0  0
  5 12  1  0  0  0  0
  6 26  1  0  0  0  0
  6 20  1  1  0  0  0
  6 11  1  0  0  0  0
  7  4  1  0  0  0  0
 10 21  1  0  0  0  0
 10  7  2  0  0  0  0
 11 20  1  1  0  0  0
 11  5  1  0  0  0  0
 12 19  1  0  0  0  0
 13 14  2  0  0  0  0
 13  2  1  0  0  0  0
 14 22  1  0  0  0  0
 15  7  1  1  0  0  0
 15 13  1  0  0  0  0
 17 15  1  0  0  0  0
 17 16  1  0  0  0  0
 18 11  1  0  0  0  0
 19 14  1  0  0  0  0
 21 17  2  0  0  0  0
 22  8  1  0  0  0  0
 22  1  2  0  0  0  0
 23 25  1  6  0  0  0
 23 27  1  0  0  0  0
 24 27  1  0  0  0  0
 25 28  1  0  0  0  0
 26 28  1  6  0  0  0
 26 24  1  0  0  0  0
 27 29  1  6  0  0  0
 29 23  1  0  0  0  0
 30 31  1  0  0  0  0
 31 32  1  0  0  0  0
 32 33  1  0  0  0  0
 33 35  2  0  0  0  0
 34 33  1  0  0  0  0
 36 34  1  0  0  0  0
 37 42  1  0  0  0  0
 37 39  1  0  0  0  0
 39 40  1  0  0  0  0
 40 38  1  0  0  0  0
 40 36  1  0  0  0  0
 41 38  1  0  0  0  0
 42 41  1  0  0  0  0
M  END
>  <MODEL>
1

>  <REMARK>
 VINA RESULT:      -9.8      0.000      0.000
  Name = 
  7 active torsions:
  status: ('A' for Active; 'I' for Inactive)
    1  A    between atoms: N_5  and  N_15
    2  A    between atoms: N_5  and  C_25
    3  A    between atoms: C_6  and  C_20
    4  A    between atoms: C_7  and  N_22
    5  A    between atoms: C_11  and  C_14
    6  A    between atoms: C_14  and  N_35
    7  A    between atoms: N_22  and  N_35
                            x       y       z     vdW  Elec       q    Type
                         _______ _______ _______ _____ _____    ______ ____

>  <TORSDO>
F 7

$$$$
=
 OpenBabel10222420413D

 42 49  0  0  1  0  0  0  0  0999 V2000
  184.7910  178.7250  144.4280 C   0  0  0  0  0  0  0  0  0  0  0  0
  182.4030  178.9900  144.2750 C   0  0  0  0  0  3  0  0  0  0  0  0
  183.5660  178.9700  145.0270 C   0  0  0  0  0  3  0  0  0  0  0  0
  181.8350  179.0260  139.7610 C   0  0  1  0  0  3  0  0  0  0  0  0
  182.9670  177.2600  138.8490 C   0  0  0  0  0  0  0  0  0  0  0  0
  181.3210  176.9760  136.7630 C   0  0  1  0  0  3  0  0  0  0  0  0
  180.8530  179.0090  140.8600 C   0  0  0  0  0  0  0  0  0  0  0  0
  186.1640  178.2750  142.3550 C   0  0  0  0  0  1  0  0  0  0  0  0
  183.8770  176.4120  138.6410 O   0  0  0  0  0  0  0  0  0  0  0  0
  179.5590  179.2680  140.7290 C   0  0  0  0  0  3  0  0  0  0  0  0
  181.9550  177.7370  137.9140 C   0  0  1  0  0  0  0  0  0  0  0  0
  182.8060  177.9860  140.0300 N   0  0  0  0  0  0  0  0  0  0  0  0
  182.3900  178.7700  142.8910 C   0  0  0  0  0  0  0  0  0  0  0  0
  183.6560  178.4750  142.2540 C   0  0  0  0  0  0  0  0  0  0  0  0
  181.1760  178.8870  142.2790 C   0  0  1  0  0  3  0  0  0  0  0  0
  179.5020  179.0020  144.3440 C   0  0  0  0  0  1  0  0  0  0  0  0
  179.8450  179.0860  142.8950 C   0  0  0  0  0  0  0  0  0  0  0  0
  181.2160  178.7850  138.4920 O   0  0  0  0  0  0  0  0  0  0  0  0
  183.7990  178.0940  141.0090 N   0  0  0  0  0  2  0  0  0  0  0  0
  182.4160  178.0180  136.5060 C   0  0  0  0  0  2  0  0  0  0  0  0
  178.9310  179.2920  142.0050 N   0  0  0  0  0  0  0  0  0  0  0  0
  184.8430  178.4910  143.0350 C   0  0  0  0  0  0  0  0  0  0  0  0
  181.7300  172.8070  135.7660 N   0  0  1  0  0  0  0  0  0  0  0  0
  181.0510  174.5850  137.4320 C   0  0  0  0  0  2  0  0  0  0  0  0
  181.2480  173.8440  134.8500 C   0  0  0  0  0  2  0  0  0  0  0  0
  181.8820  175.5690  136.6100 C   0  0  1  0  0  3  0  0  0  0  0  0
  181.5600  173.1580  137.2060 C   0  0  1  0  0  3  0  0  0  0  0  0
  181.9330  175.1830  135.1270 C   0  0  0  0  0  2  0  0  0  0  0  0
  180.5520  172.3550  136.5230 C   0  0  0  0  0  2  0  0  0  0  0  0
  185.9460  178.7270  145.2830 N   0  0  0  0  0  2  0  0  0  0  0  0
  186.3190  177.6560  146.1090 N   0  0  0  0  0  2  0  0  0  0  0  0
  186.9330  178.2250  147.2980 C   0  0  0  0  0  2  0  0  0  0  0  0
  188.3790  177.8780  147.3230 C   0  0  0  0  0  0  0  0  0  0  0  0
  189.0100  177.3890  146.1390 N   0  0  0  0  0  2  0  0  0  0  0  0
  189.0440  178.0490  148.3790 O   0  0  0  0  0  0  0  0  0  0  0  0
  190.3910  177.1530  146.0880 N   0  0  0  0  0  2  0  0  0  0  0  0
  191.6890  177.6730  142.5880 C   0  0  0  0  0  2  0  0  0  0  0  0
  189.4390  176.5820  143.9140 C   0  0  0  0  0  2  0  0  0  0  0  0
  191.5490  177.9330  144.0880 C   0  0  0  0  0  2  0  0  0  0  0  0
  190.7210  176.8140  144.7130 C   0  0  0  0  0  3  0  0  0  0  0  0
  189.7940  176.4530  142.4340 C   0  0  0  0  0  2  0  0  0  0  0  0
  190.4170  177.6330  141.9870 O   0  0  0  0  0  0  0  0  0  0  0  0
  1  3  1  0  0  0  0
  1 30  1  0  0  0  0
  2  3  2  0  0  0  0
  4 18  1  6  0  0  0
  4 12  1  0  0  0  0
  4  7  1  0  0  0  0
  5 12  1  0  0  0  0
  6 20  1  6  0  0  0
  6 11  1  0  0  0  0
  8 22  1  0  0  0  0
  9  5  2  0  0  0  0
 10  7  2  0  0  0  0
 10 21  1  0  0  0  0
 11 20  1  6  0  0  0
 11 18  1  0  0  0  0
 11  5  1  0  0  0  0
 12 19  1  0  0  0  0
 13  2  1  0  0  0  0
 14 13  2  0  0  0  0
 14 22  1  0  0  0  0
 15  7  1  6  0  0  0
 15 13  1  0  0  0  0
 15 17  1  0  0  0  0
 17 16  1  0  0  0  0
 19 14  1  0  0  0  0
 21 17  2  0  0  0  0
 22  1  2  0  0  0  0
 23 25  1  6  0  0  0
 23 29  1  0  0  0  0
 23 27  1  0  0  0  0
 25 28  1  0  0  0  0
 26 28  1  6  0  0  0
 26  6  1  0  0  0  0
 26 24  1  0  0  0  0
 27 29  1  6  0  0  0
 27 24  1  0  0  0  0
 30 31  1  0  0  0  0
 31 32  1  0  0  0  0
 32 33  1  0  0  0  0
 33 35  2  0  0  0  0
 34 33  1  0  0  0  0
 36 34  1  0  0  0  0
 37 39  1  0  0  0  0
 38 40  1  0  0  0  0
 39 40  1  0  0  0  0
 40 36  1  0  0  0  0
 41 38  1  0  0  0  0
 42 41  1  0  0  0  0
 42 37  1  0  0  0  0
M  END
>  <MODEL>
2

>  <REMARK>
 VINA RESULT:      -9.0      2.778      5.105
  Name = 
  7 active torsions:
  status: ('A' for Active; 'I' for Inactive)
    1  A    between atoms: N_5  and  N_15
    2  A    between atoms: N_5  and  C_25
    3  A    between atoms: C_6  and  C_20
    4  A    between atoms: C_7  and  N_22
    5  A    between atoms: C_11  and  C_14
    6  A    between atoms: C_14  and  N_35
    7  A    between atoms: N_22  and  N_35
                            x       y       z     vdW  Elec       q    Type
                         _______ _______ _______ _____ _____    ______ ____

>  <TORSDO>
F 7

$$$$
=
 OpenBabel10222420413D

 42 49  0  0  1  0  0  0  0  0999 V2000
  190.3640  177.6860  141.5520 C   0  0  0  0  0  0  0  0  0  0  0  0
  188.1630  178.5900  141.9200 C   0  0  0  0  0  3  0  0  0  0  0  0
  189.4620  178.3740  142.3480 C   0  0  0  0  0  3  0  0  0  0  0  0
  186.2930  177.9770  137.8180 C   0  0  1  0  0  3  0  0  0  0  0  0
  186.6740  175.8280  137.1340 C   0  0  0  0  0  0  0  0  0  0  0  0
  184.4590  175.6560  135.6480 C   0  0  1  0  0  3  0  0  0  0  0  0
  185.7070  178.4380  139.0890 C   0  0  0  0  0  0  0  0  0  0  0  0
  190.9160  176.5000  139.3920 C   0  0  0  0  0  1  0  0  0  0  0  0
  187.2660  174.7330  136.9330 O   0  0  0  0  0  0  0  0  0  0  0  0
  184.5270  179.0290  139.2140 C   0  0  0  0  0  3  0  0  0  0  0  0
  185.5630  176.3980  136.3820 C   0  0  1  0  0  0  0  0  0  0  0  0
  187.0410  176.7690  138.0970 N   0  0  0  0  0  0  0  0  0  0  0  0
  187.6870  178.1390  140.6810 C   0  0  0  0  0  0  0  0  0  0  0  0
  188.6040  177.3850  139.8520 C   0  0  0  0  0  0  0  0  0  0  0  0
  186.4050  178.4850  140.3720 C   0  0  1  0  0  3  0  0  0  0  0  0
  185.4960  179.4420  142.6820 C   0  0  0  0  0  1  0  0  0  0  0  0
  185.3990  179.1640  141.2200 C   0  0  0  0  0  0  0  0  0  0  0  0
  185.2850  177.6990  136.8380 O   0  0  0  0  0  0  0  0  0  0  0  0
  188.2790  176.7620  138.7470 N   0  0  0  0  0  2  0  0  0  0  0  0
  185.6320  176.2790  134.8800 C   0  0  0  0  0  2  0  0  0  0  0  0
  184.3310  179.4580  140.5560 N   0  0  0  0  0  0  0  0  0  0  0  0
  189.9430  177.2020  140.2930 C   0  0  0  0  0  0  0  0  0  0  0  0
  183.6000  171.4520  136.0060 N   0  0  1  0  0  0  0  0  0  0  0  0
  184.2090  173.6460  137.1090 C   0  0  0  0  0  2  0  0  0  0  0  0
  182.8770  172.3840  135.1370 C   0  0  0  0  0  2  0  0  0  0  0  0
  184.6190  174.1450  135.7230 C   0  0  1  0  0  3  0  0  0  0  0  0
  184.2830  172.1170  137.1540 C   0  0  1  0  0  3  0  0  0  0  0  0
  183.8080  173.4750  134.6070 C   0  0  0  0  0  2  0  0  0  0  0  0
  182.9530  171.5430  137.3250 C   0  0  0  0  0  2  0  0  0  0  0  0
  191.6910  177.5120  142.0740 N   0  0  0  0  0  2  0  0  0  0  0  0
  192.0120  177.5280  143.4400 N   0  0  0  0  0  2  0  0  0  0  0  0
  191.8830  176.1650  143.9290 C   0  0  0  0  0  2  0  0  0  0  0  0
  191.5800  176.1880  145.3840 C   0  0  0  0  0  0  0  0  0  0  0  0
  190.6430  177.1340  145.8980 N   0  0  0  0  0  2  0  0  0  0  0  0
  192.1280  175.3500  146.1490 O   0  0  0  0  0  0  0  0  0  0  0  0
  190.2470  177.1190  147.2430 N   0  0  0  0  0  2  0  0  0  0  0  0
  186.7640  177.6880  145.9200 C   0  0  0  0  0  2  0  0  0  0  0  0
  188.3380  178.3090  148.1890 C   0  0  0  0  0  2  0  0  0  0  0  0
  188.2630  177.3940  145.8510 C   0  0  0  0  0  2  0  0  0  0  0  0
  188.7940  177.1810  147.2660 C   0  0  0  0  0  3  0  0  0  0  0  0
  186.8310  178.5050  148.0250 C   0  0  0  0  0  2  0  0  0  0  0  0
  186.5360  178.8440  146.6910 O   0  0  0  0  0  0  0  0  0  0  0  0
  1 30  1  0  0  0  0
  1  3  1  0  0  0  0
  2  3  2  0  0  0  0
  4 18  1  6  0  0  0
  4 12  1  0  0  0  0
  4  7  1  0  0  0  0
  5 12  1  0  0  0  0
  6 20  1  6  0  0  0
  6 26  1  0  0  0  0
  6 11  1  0  0  0  0
  7 10  2  0  0  0  0
  8 22  1  0  0  0  0
  9  5  2  0  0  0  0
 10 21  1  0  0  0  0
 11 20  1  6  0  0  0
 11 18  1  0  0  0  0
 11  5  1  0  0  0  0
 12 19  1  0  0  0  0
 13  2  1  0  0  0  0
 14 22  1  0  0  0  0
 14 13  2  0  0  0  0
 15  7  1  6  0  0  0
 15 13  1  0  0  0  0
 15 17  1  0  0  0  0
 17 16  1  0  0  0  0
 19 14  1  0  0  0  0
 21 17  2  0  0  0  0
 22  1  2  0  0  0  0
 23 25  1  6  0  0  0
 23 27  1  0  0  0  0
 23 29  1  0  0  0  0
 26 28  1  6  0  0  0
 26 24  1  0  0  0  0
 27 24  1  6  0  0  0
 27 29  1  0  0  0  0
 28 25  1  0  0  0  0
 30 31  1  0  0  0  0
 31 32  1  0  0  0  0
 32 33  1  0  0  0  0
 33 34  1  0  0  0  0
 33 35  2  0  0  0  0
 34 36  1  0  0  0  0
 36 40  1  0  0  0  0
 37 42  1  0  0  0  0
 39 37  1  0  0  0  0
 39 40  1  0  0  0  0
 40 38  1  0  0  0  0
 41 38  1  0  0  0  0
 42 41  1  0  0  0  0
M  END
>  <MODEL>
3

>  <REMARK>
 VINA RESULT:      -8.5      3.726      6.776
  Name = 
  7 active torsions:
  status: ('A' for Active; 'I' for Inactive)
    1  A    between atoms: N_5  and  N_15
    2  A    between atoms: N_5  and  C_25
    3  A    between atoms: C_6  and  C_20
    4  A    between atoms: C_7  and  N_22
    5  A    between atoms: C_11  and  C_14
    6  A    between atoms: C_14  and  N_35
    7  A    between atoms: N_22  and  N_35
                            x       y       z     vdW  Elec       q    Type
                         _______ _______ _______ _____ _____    ______ ____

>  <TORSDO>
F 7

$$$$
=
 OpenBabel10222420413D

 42 49  0  0  1  0  0  0  0  0999 V2000
  190.6580  177.6170  139.8460 C   0  0  0  0  0  0  0  0  0  0  0  0
  189.5290  177.4190  141.9630 C   0  0  0  0  0  3  0  0  0  0  0  0
  190.6800  177.3220  141.2000 C   0  0  0  0  0  3  0  0  0  0  0  0
  185.4920  179.2580  140.9530 C   0  0  1  0  0  3  0  0  0  0  0  0
  184.7080  178.3270  139.0160 C   0  0  0  0  0  0  0  0  0  0  0  0
  182.1260  178.6250  139.6380 C   0  0  1  0  0  3  0  0  0  0  0  0
  185.9660  178.5700  142.1670 C   0  0  0  0  0  0  0  0  0  0  0  0
  189.4040  178.3900  137.7940 C   0  0  0  0  0  1  0  0  0  0  0  0
  184.6910  177.8590  137.8450 O   0  0  0  0  0  0  0  0  0  0  0  0
  185.3490  178.5850  143.3410 C   0  0  0  0  0  2  0  0  0  0  0  0
  183.6090  178.9360  139.7550 C   0  0  1  0  0  0  0  0  0  0  0  0
  185.8450  178.4290  139.8180 N   0  0  0  0  0  0  0  0  0  0  0  0
  188.2950  177.8130  141.4290 C   0  0  0  0  0  0  0  0  0  0  0  0
  188.2440  178.0880  140.0080 C   0  0  0  0  0  0  0  0  0  0  0  0
  187.2670  177.9240  142.3180 C   0  0  0  0  0  0  0  0  0  0  0  0
  188.2780  176.7970  144.5060 C   0  0  0  0  0  1  0  0  0  0  0  0
  187.2420  177.5610  143.7530 C   0  0  0  0  0  0  0  0  0  0  0  0
  184.0740  179.4580  140.9740 O   0  0  0  0  0  0  0  0  0  0  0  0
  187.1490  178.3130  139.3260 N   0  0  0  0  0  2  0  0  0  0  0  0
  182.7190  179.8800  138.9850 C   0  0  0  0  0  2  0  0  0  0  0  0
  186.1430  177.9310  144.3230 N   0  0  0  0  0  0  0  0  0  0  0  0
  189.4420  178.0160  139.2470 C   0  0  0  0  0  0  0  0  0  0  0  0
  180.2680  175.4080  137.4610 N   0  0  1  0  0  0  0  0  0  0  0  0
  181.9410  176.1740  139.1980 C   0  0  0  0  0  2  0  0  0  0  0  0
  179.5610  176.5740  138.0000 C   0  0  0  0  0  2  0  0  0  0  0  0
  181.8300  177.5690  138.5830 C   0  0  1  0  0  3  0  0  0  0  0  0
  181.5530  175.1160  138.1600 C   0  0  1  0  0  3  0  0  0  0  0  0
  180.4490  177.8180  137.9650 C   0  0  0  0  0  2  0  0  0  0  0  0
  180.3290  174.4290  138.5580 C   0  0  0  0  0  2  0  0  0  0  0  0
  191.8990  177.4940  139.1320 N   0  0  0  0  0  2  0  0  0  0  0  0
  192.5430  176.2750  138.8690 N   0  0  0  0  0  2  0  0  0  0  0  0
  192.4280  176.0270  137.4410 C   0  0  0  0  0  2  0  0  0  0  0  0
  191.8030  174.6970  137.2180 C   0  0  0  0  0  0  0  0  0  0  0  0
  190.4340  174.4900  137.5710 N   0  0  0  0  0  2  0  0  0  0  0  0
  192.4740  173.7710  136.6900 O   0  0  0  0  0  0  0  0  0  0  0  0
  189.7750  173.2870  137.2770 N   0  0  0  0  0  2  0  0  0  0  0  0
  186.6450  175.2960  136.6670 C   0  0  0  0  0  2  0  0  0  0  0  0
  187.4360  172.6130  137.0980 C   0  0  0  0  0  2  0  0  0  0  0  0
  188.0860  175.0390  137.1080 C   0  0  0  0  0  2  0  0  0  0  0  0
  188.4940  173.6320  136.6800 C   0  0  0  0  0  3  0  0  0  0  0  0
  186.0620  173.1130  136.6530 C   0  0  0  0  0  2  0  0  0  0  0  0
  185.7850  174.3520  137.2600 O   0  0  0  0  0  0  0  0  0  0  0  0
  1  3  1  0  0  0  0
  3  2  2  0  0  0  0
  4 18  1  1  0  0  0
  4  7  1  0  0  0  0
  5 11  1  0  0  0  0
  5 12  1  0  0  0  0
  6 20  1  6  0  0  0
  6 11  1  0  0  0  0
  7 15  2  0  0  0  0
  7 10  1  0  0  0  0
  8 22  1  0  0  0  0
  9  5  2  0  0  0  0
 10 21  1  0  0  0  0
 11 20  1  6  0  0  0
 11 18  1  0  0  0  0
 12  4  1  0  0  0  0
 13  2  1  0  0  0  0
 13 15  1  0  0  0  0
 14 13  2  0  0  0  0
 15 17  1  0  0  0  0
 17 21  2  0  0  0  0
 17 16  1  0  0  0  0
 19 12  1  0  0  0  0
 19 14  1  0  0  0  0
 22  1  2  0  0  0  0
 22 14  1  0  0  0  0
 23 25  1  1  0  0  0
 23 27  1  0  0  0  0
 23 29  1  0  0  0  0
 26 28  1  1  0  0  0
 26 24  1  0  0  0  0
 26  6  1  0  0  0  0
 27 29  1  1  0  0  0
 27 24  1  0  0  0  0
 28 25  1  0  0  0  0
 30  1  1  0  0  0  0
 31 30  1  0  0  0  0
 32 31  1  0  0  0  0
 33 32  1  0  0  0  0
 33 34  1  0  0  0  0
 35 33  2  0  0  0  0
 36 34  1  0  0  0  0
 37 39  1  0  0  0  0
 37 42  1  0  0  0  0
 40 38  1  0  0  0  0
 40 39  1  0  0  0  0
 40 36  1  0  0  0  0
 41 38  1  0  0  0  0
 41 42  1  0  0  0  0
M  END
>  <MODEL>
4

>  <REMARK>
 VINA RESULT:      -8.5      3.668      7.369
  Name = 
  7 active torsions:
  status: ('A' for Active; 'I' for Inactive)
    1  A    between atoms: N_5  and  N_15
    2  A    between atoms: N_5  and  C_25
    3  A    between atoms: C_6  and  C_20
    4  A    between atoms: C_7  and  N_22
    5  A    between atoms: C_11  and  C_14
    6  A    between atoms: C_14  and  N_35
    7  A    between atoms: N_22  and  N_35
                            x       y       z     vdW  Elec       q    Type
                         _______ _______ _______ _____ _____    ______ ____

>  <TORSDO>
F 7

$$$$
=
 OpenBabel10222420413D

 42 49  0  0  1  0  0  0  0  0999 V2000
  190.6020  177.3680  139.8560 C   0  0  0  0  0  0  0  0  0  0  0  0
  189.5060  177.2650  141.9970 C   0  0  0  0  0  3  0  0  0  0  0  0
  190.6370  177.1010  141.2150 C   0  0  0  0  0  3  0  0  0  0  0  0
  185.5370  179.2640  141.0230 C   0  0  1  0  0  3  0  0  0  0  0  0
  184.6750  178.3310  139.1210 C   0  0  0  0  0  0  0  0  0  0  0  0
  182.1220  178.7580  139.7840 C   0  0  1  0  0  3  0  0  0  0  0  0
  186.0030  178.5810  142.2430 C   0  0  0  0  0  0  0  0  0  0  0  0
  189.3450  178.1560  137.8110 C   0  0  0  0  0  1  0  0  0  0  0  0
  184.6140  177.8410  137.9610 O   0  0  0  0  0  0  0  0  0  0  0  0
  185.4100  178.6480  143.4270 C   0  0  0  0  0  2  0  0  0  0  0  0
  183.6190  179.0040  139.8660 C   0  0  1  0  0  0  0  0  0  0  0  0
  185.8310  178.3980  139.9000 N   0  0  0  0  0  0  0  0  0  0  0  0
  188.2810  177.7040  141.4780 C   0  0  0  0  0  0  0  0  0  0  0  0
  188.2150  177.9520  140.0530 C   0  0  0  0  0  0  0  0  0  0  0  0
  187.2770  177.8800  142.3840 C   0  0  0  0  0  0  0  0  0  0  0  0
  188.2780  176.7530  144.5760 C   0  0  0  0  0  1  0  0  0  0  0  0
  187.2630  177.5470  143.8260 C   0  0  0  0  0  0  0  0  0  0  0  0
  184.1300  179.5290  141.0660 O   0  0  0  0  0  0  0  0  0  0  0  0
  187.1180  178.2130  139.3860 N   0  0  0  0  0  2  0  0  0  0  0  0
  182.7570  179.9720  139.0940 C   0  0  0  0  0  2  0  0  0  0  0  0
  186.1930  177.9780  144.4080 N   0  0  0  0  0  0  0  0  0  0  0  0
  189.3940  177.8100  139.2710 C   0  0  0  0  0  0  0  0  0  0  0  0
  180.0790  175.5860  137.7100 N   0  0  1  0  0  0  0  0  0  0  0  0
  181.8170  176.3100  139.4000 C   0  0  0  0  0  2  0  0  0  0  0  0
  179.4360  176.7930  138.2360 C   0  0  0  0  0  2  0  0  0  0  0  0
  181.7580  177.6950  138.7570 C   0  0  1  0  0  3  0  0  0  0  0  0
  181.3620  175.2500  138.3910 C   0  0  1  0  0  3  0  0  0  0  0  0
  180.3780  177.9950  138.1580 C   0  0  0  0  0  2  0  0  0  0  0  0
  180.1160  174.6280  138.8260 C   0  0  0  0  0  2  0  0  0  0  0  0
  191.8220  177.1750  139.1220 N   0  0  0  0  0  2  0  0  0  0  0  0
  192.1200  176.0270  138.3720 N   0  0  0  0  0  2  0  0  0  0  0  0
  193.0220  176.4320  137.3060 C   0  0  0  0  0  2  0  0  0  0  0  0
  194.0350  175.3670  137.0830 C   0  0  0  0  0  0  0  0  0  0  0  0
  194.4720  174.5650  138.1800 N   0  0  0  0  0  2  0  0  0  0  0  0
  194.4760  175.1580  135.9220 O   0  0  0  0  0  0  0  0  0  0  0  0
  195.3420  173.4810  137.9960 N   0  0  0  0  0  2  0  0  0  0  0  0
  197.5820  175.2520  140.4550 C   0  0  0  0  0  2  0  0  0  0  0  0
  197.6250  174.3160  137.7840 C   0  0  0  0  0  2  0  0  0  0  0  0
  196.2630  174.7810  139.8430 C   0  0  0  0  0  2  0  0  0  0  0  0
  196.5600  173.7740  138.7350 C   0  0  0  0  0  3  0  0  0  0  0  0
  198.8080  174.8290  138.6060 C   0  0  0  0  0  2  0  0  0  0  0  0
  198.3820  175.8570  139.4670 O   0  0  0  0  0  0  0  0  0  0  0  0
  1  3  1  0  0  0  0
  3  2  2  0  0  0  0
  4 18  1  1  0  0  0
  4  7  1  0  0  0  0
  5 11  1  0  0  0  0
  5 12  1  0  0  0  0
  6 20  1  6  0  0  0
  6 11  1  0  0  0  0
  7 15  2  0  0  0  0
  7 10  1  0  0  0  0
  8 22  1  0  0  0  0
  9  5  2  0  0  0  0
 10 21  1  0  0  0  0
 11 20  1  6  0  0  0
 11 18  1  0  0  0  0
 12  4  1  0  0  0  0
 13  2  1  0  0  0  0
 13 15  1  0  0  0  0
 14 13  2  0  0  0  0
 15 17  1  0  0  0  0
 17 21  2  0  0  0  0
 17 16  1  0  0  0  0
 19 12  1  0  0  0  0
 19 14  1  0  0  0  0
 22  1  2  0  0  0  0
 22 14  1  0  0  0  0
 23 25  1  1  0  0  0
 23 27  1  0  0  0  0
 23 29  1  0  0  0  0
 26 28  1  1  0  0  0
 26 24  1  0  0  0  0
 26  6  1  0  0  0  0
 27 29  1  1  0  0  0
 27 24  1  0  0  0  0
 28 25  1  0  0  0  0
 30  1  1  0  0  0  0
 31 30  1  0  0  0  0
 32 31  1  0  0  0  0
 33 32  1  0  0  0  0
 33 34  1  0  0  0  0
 35 33  2  0  0  0  0
 36 34  1  0  0  0  0
 36 40  1  0  0  0  0
 38 41  1  0  0  0  0
 38 40  1  0  0  0  0
 39 37  1  0  0  0  0
 40 39  1  0  0  0  0
 41 42  1  0  0  0  0
 42 37  1  0  0  0  0
M  END
>  <MODEL>
5

>  <REMARK>
 VINA RESULT:      -8.3      4.663      7.654
  Name = 
  7 active torsions:
  status: ('A' for Active; 'I' for Inactive)
    1  A    between atoms: N_5  and  N_15
    2  A    between atoms: N_5  and  C_25
    3  A    between atoms: C_6  and  C_20
    4  A    between atoms: C_7  and  N_22
    5  A    between atoms: C_11  and  C_14
    6  A    between atoms: C_14  and  N_35
    7  A    between atoms: N_22  and  N_35
                            x       y       z     vdW  Elec       q    Type
                         _______ _______ _______ _____ _____    ______ ____

>  <TORSDO>
F 7

$$$$
=
 OpenBabel10222420413D

 42 49  0  0  1  0  0  0  0  0999 V2000
  189.0730  177.7120  139.5760 C   0  0  0  0  0  0  0  0  0  0  0  0
  188.3540  177.0320  137.3820 C   0  0  0  0  0  3  0  0  0  0  0  0
  189.3530  177.1750  138.3300 C   0  0  0  0  0  3  0  0  0  0  0  0
  183.8410  177.4360  137.7980 C   0  0  1  0  0  3  0  0  0  0  0  0
  183.3530  179.4780  138.7070 C   0  0  0  0  0  0  0  0  0  0  0  0
  180.9710  179.7030  137.5160 C   0  0  1  0  0  3  0  0  0  0  0  0
  184.6820  177.1390  136.6250 C   0  0  0  0  0  0  0  0  0  0  0  0
  187.4140  178.6540  141.2320 C   0  0  0  0  0  1  0  0  0  0  0  0
  183.4260  180.4970  139.4450 O   0  0  0  0  0  0  0  0  0  0  0  0
  184.2370  176.6630  135.4700 C   0  0  0  0  0  3  0  0  0  0  0  0
  182.1760  178.9380  138.0370 C   0  0  1  0  0  0  0  0  0  0  0  0
  184.4060  178.5980  138.4550 N   0  0  0  0  0  0  0  0  0  0  0  0
  187.0250  177.4100  137.6150 C   0  0  0  0  0  0  0  0  0  0  0  0
  186.7210  178.0090  138.8980 C   0  0  0  0  0  0  0  0  0  0  0  0
  186.1430  177.1470  136.6090 C   0  0  1  0  0  3  0  0  0  0  0  0
  187.7510  176.4770  134.5980 C   0  0  0  0  0  1  0  0  0  0  0  0
  186.4180  176.6320  135.2490 C   0  0  0  0  0  0  0  0  0  0  0  0
  182.4860  177.7110  137.4250 O   0  0  0  0  0  0  0  0  0  0  0  0
  185.5760  178.5570  139.2190 N   0  0  0  0  0  2  0  0  0  0  0  0
  180.8950  178.9190  138.8320 C   0  0  0  0  0  2  0  0  0  0  0  0
  185.3280  176.3710  134.6050 N   0  0  0  0  0  0  0  0  0  0  0  0
  187.7520  178.1170  139.8720 C   0  0  0  0  0  0  0  0  0  0  0  0
  179.9500  183.8630  137.9580 N   0  0  1  0  0  0  0  0  0  0  0  0
  180.8160  181.9810  136.5050 C   0  0  0  0  0  2  0  0  0  0  0  0
  179.1650  182.7460  138.4920 C   0  0  0  0  0  2  0  0  0  0  0  0
  181.0600  181.1970  137.7940 C   0  0  1  0  0  3  0  0  0  0  0  0
  180.8150  183.4840  136.8030 C   0  0  1  0  0  3  0  0  0  0  0  0
  180.0720  181.5850  138.9000 C   0  0  0  0  0  2  0  0  0  0  0  0
  179.4920  184.0530  136.5720 C   0  0  0  0  0  2  0  0  0  0  0  0
  190.1690  177.8190  140.4990 N   0  0  0  0  0  2  0  0  0  0  0  0
  190.5000  176.8420  141.4510 N   0  0  0  0  0  2  0  0  0  0  0  0
  191.4950  177.4250  142.3370 C   0  0  0  0  0  2  0  0  0  0  0  0
  190.9660  177.4530  143.7250 C   0  0  0  0  0  0  0  0  0  0  0  0
  189.6640  176.9330  143.9980 N   0  0  0  0  0  2  0  0  0  0  0  0
  191.6820  177.9050  144.6580 O   0  0  0  0  0  0  0  0  0  0  0  0
  189.1700  176.8400  145.3070 N   0  0  0  0  0  2  0  0  0  0  0  0
  186.3190  178.6840  146.9430 C   0  0  0  0  0  2  0  0  0  0  0  0
  186.9290  177.3810  144.5050 C   0  0  0  0  0  2  0  0  0  0  0  0
  187.6070  177.8630  146.8760 C   0  0  0  0  0  2  0  0  0  0  0  0
  188.0780  177.7920  145.4250 C   0  0  0  0  0  3  0  0  0  0  0  0
  185.7130  178.2550  144.8100 C   0  0  0  0  0  2  0  0  0  0  0  0
  185.3230  178.0820  146.1510 O   0  0  0  0  0  0  0  0  0  0  0  0
  1 22  1  0  0  0  0
  1 30  1  0  0  0  0
  2 13  2  0  0  0  0
  2  3  1  0  0  0  0
  3  1  2  0  0  0  0
  4  7  1  6  0  0  0
  4 12  1  0  0  0  0
  5  9  2  0  0  0  0
  6 26  1  0  0  0  0
  6 11  1  0  0  0  0
  6 20  1  1  0  0  0
 10  7  2  0  0  0  0
 11  5  1  0  0  0  0
 11 20  1  1  0  0  0
 12  5  1  0  0  0  0
 12 19  1  0  0  0  0
 13 14  1  0  0  0  0
 14 19  1  0  0  0  0
 14 22  2  0  0  0  0
 15 17  1  1  0  0  0
 15  7  1  0  0  0  0
 15 13  1  0  0  0  0
 16 17  1  0  0  0  0
 18  4  1  0  0  0  0
 18 11  1  0  0  0  0
 21 17  2  0  0  0  0
 21 10  1  0  0  0  0
 22  8  1  0  0  0  0
 23 29  1  6  0  0  0
 23 25  1  0  0  0  0
 25 28  1  0  0  0  0
 26 24  1  6  0  0  0
 26 28  1  0  0  0  0
 27 24  1  1  0  0  0
 27 23  1  0  0  0  0
 29 27  1  0  0  0  0
 30 31  1  0  0  0  0
 31 32  1  0  0  0  0
 32 33  1  0  0  0  0
 33 34  1  0  0  0  0
 33 35  2  0  0  0  0
 34 36  1  0  0  0  0
 36 40  1  0  0  0  0
 38 41  1  0  0  0  0
 38 40  1  0  0  0  0
 39 37  1  0  0  0  0
 40 39  1  0  0  0  0
 41 42  1  0  0  0  0
 42 37  1  0  0  0  0
M  END
>  <MODEL>
6

>  <REMARK>
 VINA RESULT:      -8.2      2.307      4.446
  Name = 
  7 active torsions:
  status: ('A' for Active; 'I' for Inactive)
    1  A    between atoms: N_5  and  N_15
    2  A    between atoms: N_5  and  C_25
    3  A    between atoms: C_6  and  C_20
    4  A    between atoms: C_7  and  N_22
    5  A    between atoms: C_11  and  C_14
    6  A    between atoms: C_14  and  N_35
    7  A    between atoms: N_22  and  N_35
                            x       y       z     vdW  Elec       q    Type
                         _______ _______ _______ _____ _____    ______ ____

>  <TORSDO>
F 7

$$$$
=
 OpenBabel10222420413D

 42 49  0  0  1  0  0  0  0  0999 V2000
  188.5120  178.3020  140.1800 C   0  0  0  0  0  0  0  0  0  0  0  0
  186.6930  178.5740  141.7330 C   0  0  0  0  0  3  0  0  0  0  0  0
  188.0510  178.5030  141.4710 C   0  0  0  0  0  3  0  0  0  0  0  0
  183.1720  178.9230  138.8730 C   0  0  1  0  0  3  0  0  0  0  0  0
  183.2790  177.2270  137.3420 C   0  0  0  0  0  0  0  0  0  0  0  0
  180.6380  177.0860  136.9600 C   0  0  1  0  0  3  0  0  0  0  0  0
  183.2190  178.8280  140.3430 C   0  0  0  0  0  0  0  0  0  0  0  0
  188.0560  178.0000  137.7140 C   0  0  0  0  0  1  0  0  0  0  0  0
  183.7540  176.3970  136.5200 O   0  0  0  0  0  0  0  0  0  0  0  0
  182.2060  179.0940  141.1560 C   0  0  0  0  0  2  0  0  0  0  0  0
  181.9260  177.7670  137.3910 C   0  0  1  0  0  0  0  0  0  0  0  0
  184.0110  177.8690  138.3420 N   0  0  0  0  0  0  0  0  0  0  0  0
  185.7190  178.4510  140.7330 C   0  0  0  0  0  0  0  0  0  0  0  0
  186.1810  178.2030  139.3840 C   0  0  0  0  0  0  0  0  0  0  0  0
  184.4260  178.6080  141.1360 C   0  0  0  0  0  0  0  0  0  0  0  0
  184.6440  178.5770  143.7880 C   0  0  0  0  0  1  0  0  0  0  0  0
  183.8970  178.7620  142.5100 C   0  0  0  0  0  0  0  0  0  0  0  0
  181.8390  178.7700  138.3720 O   0  0  0  0  0  0  0  0  0  0  0  0
  185.4090  177.9090  138.3670 N   0  0  0  0  0  2  0  0  0  0  0  0
  181.3010  178.1460  136.0720 C   0  0  0  0  0  2  0  0  0  0  0  0
  182.6320  179.0280  142.5110 N   0  0  0  0  0  0  0  0  0  0  0  0
  187.5790  178.1660  139.1280 C   0  0  0  0  0  0  0  0  0  0  0  0
  180.1060  172.9540  135.8750 N   0  0  1  0  0  0  0  0  0  0  0  0
  180.9530  174.6740  137.5250 C   0  0  0  0  0  2  0  0  0  0  0  0
  179.1050  174.0060  135.6820 C   0  0  0  0  0  2  0  0  0  0  0  0
  180.8720  175.6950  136.3900 C   0  0  1  0  0  3  0  0  0  0  0  0
  181.0970  173.2630  136.9460 C   0  0  1  0  0  3  0  0  0  0  0  0
  179.7710  175.3490  135.3810 C   0  0  0  0  0  2  0  0  0  0  0  0
  179.9170  172.4600  137.2480 C   0  0  0  0  0  2  0  0  0  0  0  0
  189.9360  178.2470  139.9990 N   0  0  0  0  0  2  0  0  0  0  0  0
  190.7390  177.1590  140.3750 N   0  0  0  0  0  2  0  0  0  0  0  0
  191.4860  177.5640  141.5550 C   0  0  0  0  0  2  0  0  0  0  0  0
  191.0620  176.7400  142.7170 C   0  0  0  0  0  0  0  0  0  0  0  0
  191.2880  177.2170  144.0440 N   0  0  0  0  0  2  0  0  0  0  0  0
  190.4770  175.6420  142.5230 O   0  0  0  0  0  0  0  0  0  0  0  0
  190.8070  176.5250  145.1650 N   0  0  0  0  0  2  0  0  0  0  0  0
  188.6990  177.8570  147.9910 C   0  0  0  0  0  2  0  0  0  0  0  0
  188.4650  177.2080  145.2460 C   0  0  0  0  0  2  0  0  0  0  0  0
  189.8540  177.1010  147.3350 C   0  0  0  0  0  2  0  0  0  0  0  0
  189.8600  177.3990  145.8380 C   0  0  0  0  0  3  0  0  0  0  0  0
  187.4520  177.9580  146.1100 C   0  0  0  0  0  2  0  0  0  0  0  0
  187.4760  177.4520  147.4230 O   0  0  0  0  0  0  0  0  0  0  0  0
  1  3  1  0  0  0  0
  3  2  2  0  0  0  0
  4 18  1  6  0  0  0
  4  7  1  0  0  0  0
  5 11  1  0  0  0  0
  5 12  1  0  0  0  0
  6 20  1  6  0  0  0
  6 11  1  0  0  0  0
  7 15  2  0  0  0  0
  7 10  1  0  0  0  0
  8 22  1  0  0  0  0
  9  5  2  0  0  0  0
 10 21  1  0  0  0  0
 11 20  1  6  0  0  0
 11 18  1  0  0  0  0
 12 19  1  0  0  0  0
 12  4  1  0  0  0  0
 13 15  1  0  0  0  0
 13  2  1  0  0  0  0
 14 13  2  0  0  0  0
 15 17  1  0  0  0  0
 17 21  2  0  0  0  0
 17 16  1  0  0  0  0
 19 14  1  0  0  0  0
 22 14  1  0  0  0  0
 22  1  2  0  0  0  0
 23 25  1  1  0  0  0
 23 27  1  0  0  0  0
 23 29  1  0  0  0  0
 26 28  1  6  0  0  0
 26  6  1  0  0  0  0
 26 24  1  0  0  0  0
 27 29  1  1  0  0  0
 27 24  1  0  0  0  0
 28 25  1  0  0  0  0
 30  1  1  0  0  0  0
 30 31  1  0  0  0  0
 31 32  1  0  0  0  0
 32 33  1  0  0  0  0
 33 34  1  0  0  0  0
 34 36  1  0  0  0  0
 35 33  2  0  0  0  0
 36 40  1  0  0  0  0
 38 40  1  0  0  0  0
 38 41  1  0  0  0  0
 39 37  1  0  0  0  0
 40 39  1  0  0  0  0
 41 42  1  0  0  0  0
 42 37  1  0  0  0  0
M  END
>  <MODEL>
7

>  <REMARK>
 VINA RESULT:      -8.2      2.836      5.787
  Name = 
  7 active torsions:
  status: ('A' for Active; 'I' for Inactive)
    1  A    between atoms: N_5  and  N_15
    2  A    between atoms: N_5  and  C_25
    3  A    between atoms: C_6  and  C_20
    4  A    between atoms: C_7  and  N_22
    5  A    between atoms: C_11  and  C_14
    6  A    between atoms: C_14  and  N_35
    7  A    between atoms: N_22  and  N_35
                            x       y       z     vdW  Elec       q    Type
                         _______ _______ _______ _____ _____    ______ ____

>  <TORSDO>
F 7

$$$$
=
 OpenBabel10222420413D

 42 49  0  0  1  0  0  0  0  0999 V2000
  183.9860  178.9900  144.3940 C   0  0  0  0  0  0  0  0  0  0  0  0
  182.3170  178.5910  142.7060 C   0  0  0  0  0  3  0  0  0  0  0  0
  182.6660  178.7770  144.0330 C   0  0  0  0  0  3  0  0  0  0  0  0
  184.7620  179.2110  138.9200 C   0  0  1  0  0  3  0  0  0  0  0  0
  186.7040  178.0130  139.0790 C   0  0  0  0  0  0  0  0  0  0  0  0
  186.9570  177.6240  136.4460 C   0  0  1  0  0  3  0  0  0  0  0  0
  183.3800  178.7360  139.1130 C   0  0  0  0  0  0  0  0  0  0  0  0
  186.4100  179.2960  143.7490 C   0  0  0  0  0  1  0  0  0  0  0  0
  187.7490  177.5030  139.5670 O   0  0  0  0  0  0  0  0  0  0  0  0
  182.4690  178.6380  138.1550 C   0  0  0  0  0  3  0  0  0  0  0  0
  186.4300  178.3330  137.6830 C   0  0  1  0  0  0  0  0  0  0  0  0
  185.6100  178.4580  139.8210 N   0  0  0  0  0  0  0  0  0  0  0  0
  183.2540  178.6090  141.6650 C   0  0  0  0  0  0  0  0  0  0  0  0
  184.6440  178.7930  142.0260 C   0  0  0  0  0  0  0  0  0  0  0  0
  182.7490  178.4770  140.4050 C   0  0  1  0  0  3  0  0  0  0  0  0
  180.2260  177.7720  140.8680 C   0  0  0  0  0  1  0  0  0  0  0  0
  181.3570  178.1880  139.9910 C   0  0  0  0  0  0  0  0  0  0  0  0
  185.2080  179.0180  137.5730 O   0  0  0  0  0  0  0  0  0  0  0  0
  185.6550  178.6790  141.2020 N   0  0  0  0  0  2  0  0  0  0  0  0
  187.5560  178.9610  136.9000 C   0  0  0  0  0  2  0  0  0  0  0  0
  181.2110  178.2710  138.7100 N   0  0  0  0  0  0  0  0  0  0  0  0
  184.9800  179.0150  143.3890 C   0  0  0  0  0  0  0  0  0  0  0  0
  189.2820  174.0090  136.1840 N   0  0  1  0  0  0  0  0  0  0  0  0
  187.1250  175.1630  136.8330 C   0  0  0  0  0  2  0  0  0  0  0  0
  189.2270  175.0470  135.1510 C   0  0  0  0  0  2  0  0  0  0  0  0
  187.9010  176.4790  136.7840 C   0  0  1  0  0  3  0  0  0  0  0  0
  188.0910  174.0000  137.0830 C   0  0  1  0  0  3  0  0  0  0  0  0
  189.0530  176.4320  135.7730 C   0  0  0  0  0  2  0  0  0  0  0  0
  188.1420  173.1160  135.9230 C   0  0  0  0  0  2  0  0  0  0  0  0
  184.2580  179.1770  145.7920 N   0  0  0  0  0  2  0  0  0  0  0  0
  184.9570  178.2590  146.5920 N   0  0  0  0  0  2  0  0  0  0  0  0
  185.9560  179.0100  147.3350 C   0  0  0  0  0  2  0  0  0  0  0  0
  187.1860  178.1890  147.4790 C   0  0  0  0  0  0  0  0  0  0  0  0
  187.9210  177.8050  146.3160 N   0  0  0  0  0  2  0  0  0  0  0  0
  187.5910  177.8650  148.6270 O   0  0  0  0  0  0  0  0  0  0  0  0
  189.1440  177.1250  146.4120 N   0  0  0  0  0  2  0  0  0  0  0  0
  190.6850  178.4140  143.2240 C   0  0  0  0  0  2  0  0  0  0  0  0
  188.6350  176.6570  144.0710 C   0  0  0  0  0  2  0  0  0  0  0  0
  190.3050  178.4230  144.7040 C   0  0  0  0  0  2  0  0  0  0  0  0
  189.7110  177.0660  145.0740 C   0  0  0  0  0  3  0  0  0  0  0  0
  189.1870  176.8220  142.6560 C   0  0  0  0  0  2  0  0  0  0  0  0
  189.5460  178.1650  142.4360 O   0  0  0  0  0  0  0  0  0  0  0  0
  1 30  1  0  0  0  0
  2  3  2  0  0  0  0
  3  1  1  0  0  0  0
  4 18  1  6  0  0  0
  4  7  1  0  0  0  0
  4 12  1  0  0  0  0
  5  9  2  0  0  0  0
  5 12  1  0  0  0  0
  6 26  1  0  0  0  0
  6 20  1  6  0  0  0
  6 11  1  0  0  0  0
 10 21  1  0  0  0  0
 10  7  2  0  0  0  0
 11 20  1  6  0  0  0
 11  5  1  0  0  0  0
 12 19  1  0  0  0  0
 13 14  2  0  0  0  0
 13  2  1  0  0  0  0
 14 22  1  0  0  0  0
 15  7  1  6  0  0  0
 15 13  1  0  0  0  0
 17 15  1  0  0  0  0
 17 16  1  0  0  0  0
 18 11  1  0  0  0  0
 19 14  1  0  0  0  0
 21 17  2  0  0  0  0
 22  8  1  0  0  0  0
 22  1  2  0  0  0  0
 23 25  1  6  0  0  0
 23 27  1  0  0  0  0
 24 27  1  0  0  0  0
 25 28  1  0  0  0  0
 26 28  1  6  0  0  0
 26 24  1  0  0  0  0
 27 29  1  6  0  0  0
 29 23  1  0  0  0  0
 30 31  1  0  0  0  0
 31 32  1  0  0  0  0
 32 33  1  0  0  0  0
 33 35  2  0  0  0  0
 34 36  1  0  0  0  0
 34 33  1  0  0  0  0
 37 39  1  0  0  0  0
 38 40  1  0  0  0  0
 39 40  1  0  0  0  0
 40 36  1  0  0  0  0
 41 38  1  0  0  0  0
 42 41  1  0  0  0  0
 42 37  1  0  0  0  0
M  END
>  <MODEL>
8

>  <REMARK>
 VINA RESULT:      -8.1      2.751      5.896
  Name = 
  7 active torsions:
  status: ('A' for Active; 'I' for Inactive)
    1  A    between atoms: N_5  and  N_15
    2  A    between atoms: N_5  and  C_25
    3  A    between atoms: C_6  and  C_20
    4  A    between atoms: C_7  and  N_22
    5  A    between atoms: C_11  and  C_14
    6  A    between atoms: C_14  and  N_35
    7  A    between atoms: N_22  and  N_35
                            x       y       z     vdW  Elec       q    Type
                         _______ _______ _______ _____ _____    ______ ____

>  <TORSDO>
F 7

$$$$
=
 OpenBabel10222420413D

 42 49  0  0  1  0  0  0  0  0999 V2000
  190.6400  177.4760  139.8950 C   0  0  0  0  0  0  0  0  0  0  0  0
  189.5220  177.3220  142.0210 C   0  0  0  0  0  3  0  0  0  0  0  0
  190.6650  177.1910  141.2510 C   0  0  0  0  0  3  0  0  0  0  0  0
  185.5240  179.2520  141.0250 C   0  0  1  0  0  3  0  0  0  0  0  0
  184.7040  178.3260  139.1010 C   0  0  0  0  0  0  0  0  0  0  0  0
  182.1340  178.6930  139.7390 C   0  0  1  0  0  3  0  0  0  0  0  0
  185.9890  178.5620  142.2420 C   0  0  0  0  0  0  0  0  0  0  0  0
  189.3910  178.2640  137.8460 C   0  0  0  0  0  1  0  0  0  0  0  0
  184.6670  177.8500  137.9340 O   0  0  0  0  0  0  0  0  0  0  0  0
  185.3810  178.6010  143.4190 C   0  0  0  0  0  2  0  0  0  0  0  0
  183.6250  178.9680  139.8430 C   0  0  1  0  0  0  0  0  0  0  0  0
  185.8490  178.4070  139.8950 N   0  0  0  0  0  0  0  0  0  0  0  0
  188.2940  177.7420  141.4930 C   0  0  0  0  0  0  0  0  0  0  0  0
  188.2390  178.0070  140.0710 C   0  0  0  0  0  0  0  0  0  0  0  0
  187.2750  177.8850  142.3890 C   0  0  0  0  0  0  0  0  0  0  0  0
  188.2740  176.7500  144.5780 C   0  0  0  0  0  1  0  0  0  0  0  0
  187.2520  177.5330  143.8260 C   0  0  0  0  0  0  0  0  0  0  0  0
  184.1120  179.4880  141.0550 O   0  0  0  0  0  0  0  0  0  0  0  0
  187.1450  178.2550  139.3940 N   0  0  0  0  0  2  0  0  0  0  0  0
  182.7530  179.9280  139.0720 C   0  0  0  0  0  2  0  0  0  0  0  0
  186.1660  177.9350  144.4010 N   0  0  0  0  0  0  0  0  0  0  0  0
  189.4300  177.9000  139.3010 C   0  0  0  0  0  0  0  0  0  0  0  0
  180.1730  175.5170  137.5910 N   0  0  1  0  0  0  0  0  0  0  0  0
  181.8680  176.2440  139.3240 C   0  0  0  0  0  2  0  0  0  0  0  0
  179.5050  176.7110  138.1160 C   0  0  0  0  0  2  0  0  0  0  0  0
  181.8050  177.6360  138.6950 C   0  0  1  0  0  3  0  0  0  0  0  0
  181.4470  175.1900  138.2960 C   0  0  1  0  0  3  0  0  0  0  0  0
  180.4340  177.9250  138.0700 C   0  0  0  0  0  2  0  0  0  0  0  0
  180.2000  174.5480  138.6980 C   0  0  0  0  0  2  0  0  0  0  0  0
  191.8720  177.3170  139.1740 N   0  0  0  0  0  2  0  0  0  0  0  0
  192.3260  176.1000  138.6420 N   0  0  0  0  0  2  0  0  0  0  0  0
  192.5800  176.3170  137.2270 C   0  0  0  0  0  2  0  0  0  0  0  0
  194.0350  176.1740  136.9570 C   0  0  0  0  0  0  0  0  0  0  0  0
  194.8090  175.2500  137.7230 N   0  0  0  0  0  2  0  0  0  0  0  0
  194.5690  176.8430  136.0340 O   0  0  0  0  0  0  0  0  0  0  0  0
  196.1590  175.0040  137.4310 N   0  0  0  0  0  2  0  0  0  0  0  0
  195.9250  171.6240  135.7790 C   0  0  0  0  0  2  0  0  0  0  0  0
  195.4050  172.8430  138.2800 C   0  0  0  0  0  2  0  0  0  0  0  0
  195.9830  173.1500  135.8550 C   0  0  0  0  0  2  0  0  0  0  0  0
  196.3130  173.5650  137.2870 C   0  0  0  0  0  3  0  0  0  0  0  0
  195.4090  171.3480  137.9610 C   0  0  0  0  0  2  0  0  0  0  0  0
  194.9340  171.1370  136.6530 O   0  0  0  0  0  0  0  0  0  0  0  0
  1  3  1  0  0  0  0
  3  2  2  0  0  0  0
  4 18  1  1  0  0  0
  4  7  1  0  0  0  0
  5 11  1  0  0  0  0
  5 12  1  0  0  0  0
  6 20  1  6  0  0  0
  6 11  1  0  0  0  0
  7 15  2  0  0  0  0
  7 10  1  0  0  0  0
  8 22  1  0  0  0  0
  9  5  2  0  0  0  0
 10 21  1  0  0  0  0
 11 20  1  6  0  0  0
 11 18  1  0  0  0  0
 12  4  1  0  0  0  0
 13  2  1  0  0  0  0
 13 15  1  0  0  0  0
 14 13  2  0  0  0  0
 15 17  1  0  0  0  0
 17 21  2  0  0  0  0
 17 16  1  0  0  0  0
 19 12  1  0  0  0  0
 19 14  1  0  0  0  0
 22  1  2  0  0  0  0
 22 14  1  0  0  0  0
 23 25  1  1  0  0  0
 23 27  1  0  0  0  0
 23 29  1  0  0  0  0
 26 28  1  1  0  0  0
 26 24  1  0  0  0  0
 26  6  1  0  0  0  0
 27 29  1  1  0  0  0
 27 24  1  0  0  0  0
 28 25  1  0  0  0  0
 30  1  1  0  0  0  0
 31 30  1  0  0  0  0
 32 31  1  0  0  0  0
 33 32  1  0  0  0  0
 33 34  1  0  0  0  0
 35 33  2  0  0  0  0
 36 34  1  0  0  0  0
 37 39  1  0  0  0  0
 37 42  1  0  0  0  0
 39 40  1  0  0  0  0
 40 36  1  0  0  0  0
 40 38  1  0  0  0  0
 41 38  1  0  0  0  0
 42 41  1  0  0  0  0
M  END
>  <MODEL>
9

>  <REMARK>
 VINA RESULT:      -7.9      4.918      7.798
  Name = 
  7 active torsions:
  status: ('A' for Active; 'I' for Inactive)
    1  A    between atoms: N_5  and  N_15
    2  A    between atoms: N_5  and  C_25
    3  A    between atoms: C_6  and  C_20
    4  A    between atoms: C_7  and  N_22
    5  A    between atoms: C_11  and  C_14
    6  A    between atoms: C_14  and  N_35
    7  A    between atoms: N_22  and  N_35
                            x       y       z     vdW  Elec       q    Type
                         _______ _______ _______ _____ _____    ______ ____

>  <TORSDO>
F 7

$$$$
