=
 OpenBabel10222420083D

 48 52  0  0  1  0  0  0  0  0999 V2000
  185.9860  178.3750  141.9580 C   0  0  0  0  0  2  0  0  0  0  0  0
  183.3970  179.1590  143.1320 C   0  0  0  0  0  0  0  0  0  0  0  0
  185.9980  179.9820  142.7860 S   0  0  0  0  0  0  0  0  0  0  0  0
  179.6820  177.9800  141.6920 C   0  0  0  0  0  0  0  0  0  0  0  0
  181.0490  178.3800  141.9450 C   0  0  0  0  0  0  0  0  0  0  0  0
  178.9320  178.1600  142.7360 N   0  0  0  0  0  0  0  0  0  0  0  0
  184.7270  178.2140  141.1170 C   0  0  1  0  0  3  0  0  0  0  0  0
  182.2130  179.2830  143.7970 N   0  0  0  0  0  0  0  0  0  0  0  0
  179.7070  178.8020  143.8060 C   0  0  0  0  0  2  0  0  0  0  0  0
  183.4350  178.5480  141.8370 C   0  0  0  0  0  0  0  0  0  0  0  0
  179.2390  178.0010  139.1980 C   0  0  0  0  0  0  0  0  0  0  0  0
  178.9320  177.3180  138.1830 O   0  0  0  0  0  0  0  0  0  0  0  0
  184.6430  179.4850  143.9020 C   0  0  2  0  0  3  0  0  0  0  0  0
  181.0560  178.9190  143.1940 C   0  0  0  0  0  0  0  0  0  0  0  0
  179.1930  177.3780  140.4940 N   0  0  0  0  0  2  0  0  0  0  0  0
  182.2230  178.1550  141.2370 C   0  0  0  0  0  3  0  0  0  0  0  0
  180.3630  179.8300  137.8950 N   0  0  0  0  0  2  0  0  0  0  0  0
  179.1480  180.3050  139.8280 O   0  0  0  0  0  0  0  0  0  0  0  0
  179.5560  179.4320  139.0110 C   0  0  0  0  0  0  0  0  0  0  0  0
  180.4400  181.2230  137.4790 C   0  0  1  0  0  3  0  0  0  0  0  0
  181.5530  181.9230  138.2360 C   0  0  0  0  0  1  0  0  0  0  0  0
  180.6730  181.3000  136.0040 C   0  0  0  0  0  0  0  0  0  0  0  0
  180.5540  182.5240  135.3530 O   0  0  0  0  0  1  0  0  0  0  0  0
  180.9590  180.2660  135.3440 O   0  0  0  0  0  0  0  0  0  0  0  0
  185.0080  178.2840  144.7700 C   0  0  0  0  0  2  0  0  0  0  0  0
  187.1690  177.6590  145.8650 C   0  0  0  0  0  0  0  0  0  0  0  0
  186.6150  177.7450  146.9980 O   0  0  0  0  0  0  0  0  0  0  0  0
  186.4240  177.9570  144.6780 N   0  0  0  0  0  2  0  0  0  0  0  0
  188.9210  178.4320  147.8080 O   0  0  0  0  0  1  0  0  0  0  0  0
  190.2430  177.6310  144.1660 C   0  0  2  0  0  3  0  0  0  0  0  0
  188.5630  177.1130  145.7710 C   0  0  2  0  0  3  0  0  0  0  0  0
  189.4720  177.5820  146.8440 C   0  0  2  0  0  0  0  0  0  0  0  0
  190.4070  176.4810  147.3480 C   0  0  0  0  0  1  0  0  0  0  0  0
  191.0110  178.0500  145.2250 O   0  0  0  0  0  0  0  0  0  0  0  0
  189.6110  178.2320  145.4360 C   0  0  1  0  0  0  0  0  0  0  0  0
  190.4660  176.1460  144.0450 C   0  0  0  0  0  3  0  0  0  0  0  0
  190.5690  175.6020  142.8350 C   0  0  0  0  0  2  0  0  0  0  0  0
  184.8550  178.9620  139.7940 C   0  0  0  0  0  2  0  0  0  0  0  0
  185.5740  178.1000  138.7460 C   0  0  1  0  0  3  0  0  0  0  0  0
  183.4590  178.0190  137.8700 C   0  0  0  0  0  1  0  0  0  0  0  0
  184.8270  178.0020  137.5470 O   0  0  0  0  0  0  0  0  0  0  0  0
  186.9510  178.5440  138.4850 N   0  0  0  0  0  2  0  0  0  0  0  0
  188.1030  177.8100  138.8850 C   0  0  0  0  0  3  0  0  0  0  0  0
  189.3120  178.3160  138.6750 C   0  0  0  0  0  3  0  0  0  0  0  0
  190.7910  177.7470  140.4300 F   0  0  0  0  0  0  0  0  0  0  0  0
  190.5570  177.5890  139.0750 C   0  0  1  0  0  3  0  0  0  0  0  0
  190.4890  176.1060  138.7310 C   0  0  0  0  0  2  0  0  0  0  0  0
  190.7810  175.9210  137.3770 O   0  0  0  0  0  1  0  0  0  0  0  0
  1  3  1  0  0  0  0
  2  8  1  0  0  0  0
  2 13  1  0  0  0  0
  3 13  1  0  0  0  0
  4  5  1  0  0  0  0
  4  6  2  0  0  0  0
  5 14  1  0  0  0  0
  6  9  1  0  0  0  0
  7 38  1  6  0  0  0
  7 10  1  0  0  0  0
  7  1  1  0  0  0  0
 10  2  2  0  0  0  0
 11 15  1  0  0  0  0
 12 11  2  0  0  0  0
 13 25  1  6  0  0  0
 14  8  2  0  0  0  0
 14  9  1  0  0  0  0
 15  4  1  0  0  0  0
 16 10  1  0  0  0  0
 16  5  2  0  0  0  0
 17 19  1  0  0  0  0
 19 11  1  0  0  0  0
 19 18  2  0  0  0  0
 20 17  1  0  0  0  0
 20 21  1  1  0  0  0
 22 20  1  0  0  0  0
 23 22  1  0  0  0  0
 24 22  2  0  0  0  0
 26 27  2  0  0  0  0
 28 25  1  0  0  0  0
 28 26  1  0  0  0  0
 30 36  1  1  0  0  0
 30 34  1  0  0  0  0
 30 35  1  0  0  0  0
 31 26  1  1  0  0  0
 31 32  1  0  0  0  0
 32 33  1  1  0  0  0
 32 29  1  0  0  0  0
 35 34  1  6  0  0  0
 35 31  1  0  0  0  0
 35 32  1  0  0  0  0
 37 36  2  0  0  0  0
 39 38  1  1  0  0  0
 41 40  1  0  0  0  0
 41 39  1  0  0  0  0
 42 39  1  0  0  0  0
 42 43  1  0  0  0  0
 44 43  2  0  0  0  0
 44 46  1  0  0  0  0
 46 45  1  1  0  0  0
 47 46  1  0  0  0  0
 48 47  1  0  0  0  0
M  END
>  <MODEL>
1

>  <REMARK>
 VINA RESULT:      -7.0      0.000      0.000
  Name = 
  14 active torsions:
  status: ('A' for Active; 'I' for Inactive)
    1  A    between atoms: C_2  and  CA_42
    2  A    between atoms: C_3  and  C_22
    3  A    between atoms: C_4  and  C_14
    4  A    between atoms: N_6  and  CA_42
    5  A    between atoms: C_12  and  C_31
    6  A    between atoms: C_18  and  C_43
    7  A    between atoms: O_21  and  C_35
    8  A    between atoms: C_22  and  C_34
    9  A    between atoms: N_23  and  C_37
   10  A    between atoms: C_27  and  C_47
   11  A    between atoms: C_30  and  N_44
   12  A    between atoms: C_35  and  C_43
   13  A    between atoms: C_35  and  N_44
   14  A    between atoms: C_37  and  C_38
                            x       y       z     vdW  Elec       q    Type
                         _______ _______ _______ _____ _____    ______ ____

>  <TORSDO>
F 14

$$$$
=
 OpenBabel10222420083D

 48 52  0  0  1  0  0  0  0  0999 V2000
  189.8170  177.6830  143.0420 C   0  0  0  0  0  2  0  0  0  0  0  0
  189.0320  176.9510  140.2950 C   0  0  0  0  0  0  0  0  0  0  0  0
  190.1150  175.9510  142.6160 S   0  0  0  0  0  0  0  0  0  0  0  0
  185.9810  178.7640  138.1330 C   0  0  0  0  0  0  0  0  0  0  0  0
  186.8960  178.1840  139.0930 C   0  0  0  0  0  0  0  0  0  0  0  0
  186.3110  178.4580  136.9160 N   0  0  0  0  0  0  0  0  0  0  0  0
  188.4560  178.1340  142.5290 C   0  0  1  0  0  3  0  0  0  0  0  0
  188.8240  176.8190  138.9530 N   0  0  0  0  0  0  0  0  0  0  0  0
  187.4590  177.5420  136.9220 C   0  0  0  0  0  2  0  0  0  0  0  0
  188.1820  177.7980  141.0760 C   0  0  0  0  0  0  0  0  0  0  0  0
  183.7760  179.2810  139.2690 C   0  0  0  0  0  0  0  0  0  0  0  0
  182.9560  180.1790  139.6030 O   0  0  0  0  0  0  0  0  0  0  0  0
  190.2940  176.3530  140.8460 C   0  0  2  0  0  3  0  0  0  0  0  0
  187.7530  177.4120  138.3730 C   0  0  0  0  0  0  0  0  0  0  0  0
  184.8940  179.6370  138.4350 N   0  0  0  0  0  2  0  0  0  0  0  0
  187.0870  178.4230  140.4480 C   0  0  0  0  0  3  0  0  0  0  0  0
  182.7850  177.0220  138.8020 N   0  0  0  0  0  2  0  0  0  0  0  0
  183.8740  177.4620  140.8170 O   0  0  0  0  0  0  0  0  0  0  0  0
  183.5040  177.8910  139.6870 C   0  0  0  0  0  0  0  0  0  0  0  0
  182.7670  175.5810  139.0090 C   0  0  1  0  0  3  0  0  0  0  0  0
  181.3340  175.1030  139.1580 C   0  0  0  0  0  1  0  0  0  0  0  0
  183.4380  174.8950  137.8630 C   0  0  0  0  0  0  0  0  0  0  0  0
  184.6840  175.3370  137.4320 O   0  0  0  0  0  1  0  0  0  0  0  0
  182.8790  173.9300  137.2750 O   0  0  0  0  0  0  0  0  0  0  0  0
  191.4470  177.3160  140.5750 C   0  0  0  0  0  2  0  0  0  0  0  0
  192.9760  176.7740  138.6700 C   0  0  0  0  0  0  0  0  0  0  0  0
  193.7840  176.2330  139.4780 O   0  0  0  0  0  0  0  0  0  0  0  0
  191.7760  177.3840  139.1580 N   0  0  0  0  0  2  0  0  0  0  0  0
  191.6600  174.7640  137.3780 O   0  0  0  0  0  1  0  0  0  0  0  0
  195.2080  175.9480  136.0880 C   0  0  2  0  0  3  0  0  0  0  0  0
  193.2200  176.6470  137.1960 C   0  0  2  0  0  3  0  0  0  0  0  0
  192.4930  175.5280  136.5540 C   0  0  2  0  0  0  0  0  0  0  0  0
  191.9470  175.8930  135.1710 C   0  0  0  0  0  1  0  0  0  0  0  0
  194.4530  174.9360  135.5460 O   0  0  0  0  0  0  0  0  0  0  0  0
  194.0110  175.3390  136.8410 C   0  0  1  0  0  0  0  0  0  0  0  0
  195.0250  177.1410  135.1860 C   0  0  0  0  0  3  0  0  0  0  0  0
  196.0760  177.9060  134.9020 C   0  0  0  0  0  2  0  0  0  0  0  0
  187.3400  177.6530  143.4490 C   0  0  0  0  0  2  0  0  0  0  0  0
  187.4580  178.3000  144.8360 C   0  0  1  0  0  3  0  0  0  0  0  0
  185.2170  178.4840  144.3930 C   0  0  0  0  0  1  0  0  0  0  0  0
  186.2580  178.9520  145.2140 O   0  0  0  0  0  0  0  0  0  0  0  0
  187.9030  177.3580  145.8730 N   0  0  0  0  0  2  0  0  0  0  0  0
  189.0800  177.5450  146.6510 C   0  0  0  0  0  3  0  0  0  0  0  0
  190.1680  176.8320  146.3840 C   0  0  0  0  0  3  0  0  0  0  0  0
  191.1620  177.5400  148.4080 F   0  0  0  0  0  0  0  0  0  0  0  0
  191.4320  176.9870  147.1680 C   0  0  1  0  0  3  0  0  0  0  0  0
  192.1640  175.6620  147.3410 C   0  0  0  0  0  2  0  0  0  0  0  0
  193.1360  175.7860  148.3390 O   0  0  0  0  0  1  0  0  0  0  0  0
  2 13  1  0  0  0  0
  2 10  1  0  0  0  0
  3  1  1  0  0  0  0
  4 15  1  0  0  0  0
  4  5  1  0  0  0  0
  5 16  1  0  0  0  0
  6  9  1  0  0  0  0
  6  4  2  0  0  0  0
  7  1  1  0  0  0  0
  7 38  1  1  0  0  0
  8  2  2  0  0  0  0
  9 14  1  0  0  0  0
 10  7  1  0  0  0  0
 11 12  2  0  0  0  0
 11 19  1  0  0  0  0
 13 25  1  1  0  0  0
 13  3  1  0  0  0  0
 14  8  1  0  0  0  0
 14  5  2  0  0  0  0
 15 11  1  0  0  0  0
 16 10  2  0  0  0  0
 17 20  1  0  0  0  0
 17 19  1  0  0  0  0
 19 18  2  0  0  0  0
 20 21  1  6  0  0  0
 22 20  1  0  0  0  0
 23 22  1  0  0  0  0
 24 22  2  0  0  0  0
 26 28  1  0  0  0  0
 26 27  2  0  0  0  0
 28 25  1  0  0  0  0
 30 36  1  6  0  0  0
 30 35  1  0  0  0  0
 31 26  1  1  0  0  0
 32 33  1  6  0  0  0
 32 35  1  0  0  0  0
 32 31  1  0  0  0  0
 32 29  1  0  0  0  0
 34 30  1  0  0  0  0
 35 34  1  1  0  0  0
 35 31  1  0  0  0  0
 37 36  2  0  0  0  0
 39 38  1  6  0  0  0
 39 41  1  0  0  0  0
 39 42  1  0  0  0  0
 40 41  1  0  0  0  0
 42 43  1  0  0  0  0
 44 43  2  0  0  0  0
 44 46  1  0  0  0  0
 46 47  1  0  0  0  0
 46 45  1  1  0  0  0
 47 48  1  0  0  0  0
M  END
>  <MODEL>
2

>  <REMARK>
 VINA RESULT:      -7.0      3.409      7.989
  Name = 
  14 active torsions:
  status: ('A' for Active; 'I' for Inactive)
    1  A    between atoms: C_2  and  CA_42
    2  A    between atoms: C_3  and  C_22
    3  A    between atoms: C_4  and  C_14
    4  A    between atoms: N_6  and  CA_42
    5  A    between atoms: C_12  and  C_31
    6  A    between atoms: C_18  and  C_43
    7  A    between atoms: O_21  and  C_35
    8  A    between atoms: C_22  and  C_34
    9  A    between atoms: N_23  and  C_37
   10  A    between atoms: C_27  and  C_47
   11  A    between atoms: C_30  and  N_44
   12  A    between atoms: C_35  and  C_43
   13  A    between atoms: C_35  and  N_44
   14  A    between atoms: C_37  and  C_38
                            x       y       z     vdW  Elec       q    Type
                         _______ _______ _______ _____ _____    ______ ____

>  <TORSDO>
F 14

$$$$
=
 OpenBabel10222420083D

 48 52  0  0  1  0  0  0  0  0999 V2000
  188.0960  176.5910  137.1170 C   0  0  0  0  0  2  0  0  0  0  0  0
  186.4600  178.2300  138.9440 C   0  0  0  0  0  0  0  0  0  0  0  0
  188.6490  178.3040  137.2810 S   0  0  0  0  0  0  0  0  0  0  0  0
  182.4150  177.6400  139.6880 C   0  0  0  0  0  0  0  0  0  0  0  0
  183.7690  177.7570  139.1920 C   0  0  0  0  0  0  0  0  0  0  0  0
  182.2710  178.2460  140.8260 N   0  0  0  0  0  0  0  0  0  0  0  0
  186.5800  176.5280  136.9930 C   0  0  1  0  0  3  0  0  0  0  0  0
  185.7520  178.7920  139.9650 N   0  0  0  0  0  0  0  0  0  0  0  0
  183.5170  178.9330  141.1900 C   0  0  0  0  0  2  0  0  0  0  0  0
  185.8220  177.3250  138.0370 C   0  0  0  0  0  0  0  0  0  0  0  0
  180.8460  177.1420  137.7620 C   0  0  0  0  0  0  0  0  0  0  0  0
  180.0310  176.3200  137.2610 O   0  0  0  0  0  0  0  0  0  0  0  0
  187.9470  178.4350  138.9600 C   0  0  2  0  0  3  0  0  0  0  0  0
  184.4190  178.5720  140.0650 C   0  0  0  0  0  0  0  0  0  0  0  0
  181.3630  176.8920  139.0810 N   0  0  0  0  0  2  0  0  0  0  0  0
  184.4400  177.0920  138.1720 C   0  0  0  0  0  3  0  0  0  0  0  0
  180.5800  179.6120  137.3930 N   0  0  0  0  0  2  0  0  0  0  0  0
  181.9330  178.3280  135.9930 O   0  0  0  0  0  0  0  0  0  0  0  0
  181.1680  178.3650  136.9990 C   0  0  0  0  0  0  0  0  0  0  0  0
  181.0970  180.8800  136.8980 C   0  0  1  0  0  3  0  0  0  0  0  0
  180.3470  181.2830  135.6420 C   0  0  0  0  0  1  0  0  0  0  0  0
  180.9650  181.9300  137.9550 C   0  0  0  0  0  0  0  0  0  0  0  0
  181.8020  183.0400  137.9280 O   0  0  0  0  0  0  0  0  0  0  0  0
  180.1140  181.8100  138.8760 O   0  0  0  0  0  1  0  0  0  0  0  0
  188.5660  177.4370  139.9350 C   0  0  0  0  0  2  0  0  0  0  0  0
  189.0200  177.2580  142.3890 C   0  0  0  0  0  0  0  0  0  0  0  0
  188.7650  176.0200  142.3420 O   0  0  0  0  0  0  0  0  0  0  0  0
  188.9030  178.0600  141.2080 N   0  0  0  0  0  2  0  0  0  0  0  0
  191.6710  177.9030  142.3820 O   0  0  0  0  0  1  0  0  0  0  0  0
  189.9270  176.7620  145.7450 C   0  0  2  0  0  3  0  0  0  0  0  0
  189.5750  177.8430  143.6540 C   0  0  2  0  0  3  0  0  0  0  0  0
  191.0220  178.1560  143.5940 C   0  0  2  0  0  0  0  0  0  0  0  0
  191.3730  179.4660  144.3040 C   0  0  0  0  0  1  0  0  0  0  0  0
  191.2540  177.0900  145.5990 O   0  0  0  0  0  0  0  0  0  0  0  0
  190.5860  176.8700  144.3570 C   0  0  1  0  0  0  0  0  0  0  0  0
  189.2640  177.9560  146.3800 C   0  0  0  0  0  3  0  0  0  0  0  0
  188.3210  177.7620  147.2980 C   0  0  0  0  0  2  0  0  0  0  0  0
  186.1340  176.8700  135.5750 C   0  0  0  0  0  2  0  0  0  0  0  0
  186.5310  175.7580  134.5940 C   0  0  1  0  0  3  0  0  0  0  0  0
  188.0980  174.0870  134.5940 C   0  0  0  0  0  1  0  0  0  0  0  0
  187.9190  175.4800  134.6510 O   0  0  0  0  0  0  0  0  0  0  0  0
  185.7320  174.5350  134.7590 N   0  0  0  0  0  2  0  0  0  0  0  0
  184.3360  174.5400  135.0330 C   0  0  0  0  0  3  0  0  0  0  0  0
  183.8890  174.0660  136.1900 C   0  0  0  0  0  3  0  0  0  0  0  0
  181.6720  174.3020  135.4020 F   0  0  0  0  0  0  0  0  0  0  0  0
  182.4320  174.0460  136.5300 C   0  0  1  0  0  3  0  0  0  0  0  0
  182.0080  172.7200  137.1500 C   0  0  0  0  0  2  0  0  0  0  0  0
  182.5180  171.6610  136.3940 O   0  0  0  0  0  1  0  0  0  0  0  0
  1  3  1  0  0  0  0
  2 13  1  0  0  0  0
  2  8  1  0  0  0  0
  3 13  1  0  0  0  0
  4  6  2  0  0  0  0
  5  4  1  0  0  0  0
  5 14  1  0  0  0  0
  6  9  1  0  0  0  0
  7 38  1  6  0  0  0
  7  1  1  0  0  0  0
  7 10  1  0  0  0  0
  8 14  2  0  0  0  0
 10 16  1  0  0  0  0
 10  2  2  0  0  0  0
 11 15  1  0  0  0  0
 12 11  2  0  0  0  0
 13 25  1  1  0  0  0
 14  9  1  0  0  0  0
 15  4  1  0  0  0  0
 16  5  2  0  0  0  0
 18 19  2  0  0  0  0
 19 17  1  0  0  0  0
 19 11  1  0  0  0  0
 20 21  1  6  0  0  0
 20 17  1  0  0  0  0
 20 22  1  0  0  0  0
 22 24  1  0  0  0  0
 23 22  2  0  0  0  0
 25 28  1  0  0  0  0
 27 26  2  0  0  0  0
 28 26  1  0  0  0  0
 29 32  1  0  0  0  0
 30 36  1  6  0  0  0
 31 26  1  6  0  0  0
 31 35  1  0  0  0  0
 32 31  1  0  0  0  0
 32 33  1  1  0  0  0
 32 35  1  0  0  0  0
 34 30  1  0  0  0  0
 35 34  1  6  0  0  0
 35 30  1  0  0  0  0
 36 37  2  0  0  0  0
 39 41  1  0  0  0  0
 39 42  1  0  0  0  0
 39 38  1  1  0  0  0
 40 41  1  0  0  0  0
 42 43  1  0  0  0  0
 43 44  2  0  0  0  0
 44 46  1  0  0  0  0
 46 45  1  6  0  0  0
 46 47  1  0  0  0  0
 48 47  1  0  0  0  0
M  END
>  <MODEL>
3

>  <REMARK>
 VINA RESULT:      -6.4      3.347      5.087
  Name = 
  14 active torsions:
  status: ('A' for Active; 'I' for Inactive)
    1  A    between atoms: C_2  and  CA_42
    2  A    between atoms: C_3  and  C_22
    3  A    between atoms: C_4  and  C_14
    4  A    between atoms: N_6  and  CA_42
    5  A    between atoms: C_12  and  C_31
    6  A    between atoms: C_18  and  C_43
    7  A    between atoms: O_21  and  C_35
    8  A    between atoms: C_22  and  C_34
    9  A    between atoms: N_23  and  C_37
   10  A    between atoms: C_27  and  C_47
   11  A    between atoms: C_30  and  N_44
   12  A    between atoms: C_35  and  C_43
   13  A    between atoms: C_35  and  N_44
   14  A    between atoms: C_37  and  C_38
                            x       y       z     vdW  Elec       q    Type
                         _______ _______ _______ _____ _____    ______ ____

>  <TORSDO>
F 14

$$$$
=
 OpenBabel10222420083D

 48 52  0  0  1  0  0  0  0  0999 V2000
  187.5310  178.9920  141.3440 C   0  0  0  0  0  2  0  0  0  0  0  0
  186.7260  177.4610  138.9560 C   0  0  0  0  0  0  0  0  0  0  0  0
  188.1990  177.3130  141.2730 S   0  0  0  0  0  0  0  0  0  0  0  0
  183.1670  177.9980  136.8790 C   0  0  0  0  0  0  0  0  0  0  0  0
  184.2680  177.8800  137.8100 C   0  0  0  0  0  0  0  0  0  0  0  0
  183.4610  177.4820  135.7250 N   0  0  0  0  0  0  0  0  0  0  0  0
  186.0660  179.0040  140.9320 C   0  0  1  0  0  3  0  0  0  0  0  0
  186.4480  176.9650  137.7160 N   0  0  0  0  0  0  0  0  0  0  0  0
  184.7920  176.8610  135.7780 C   0  0  0  0  0  2  0  0  0  0  0  0
  185.7630  178.2720  139.6390 C   0  0  0  0  0  0  0  0  0  0  0  0
  181.0010  178.2960  138.1580 C   0  0  0  0  0  0  0  0  0  0  0  0
  180.0190  179.0530  138.3940 O   0  0  0  0  0  0  0  0  0  0  0  0
  188.1330  177.2990  139.4500 C   0  0  2  0  0  3  0  0  0  0  0  0
  185.2240  177.1550  137.1690 C   0  0  0  0  0  0  0  0  0  0  0  0
  181.9310  178.6670  137.1250 N   0  0  0  0  0  2  0  0  0  0  0  0
  184.5040  178.4780  139.0420 C   0  0  0  0  0  3  0  0  0  0  0  0
  180.3970  175.8740  138.4240 N   0  0  0  0  0  2  0  0  0  0  0  0
  181.7800  176.9410  139.9680 O   0  0  0  0  0  0  0  0  0  0  0  0
  181.1030  177.0250  138.9040 C   0  0  0  0  0  0  0  0  0  0  0  0
  180.7070  174.5390  138.9160 C   0  0  1  0  0  3  0  0  0  0  0  0
  179.6420  174.0960  139.9020 C   0  0  0  0  0  1  0  0  0  0  0  0
  180.7980  173.5830  137.7700 C   0  0  0  0  0  0  0  0  0  0  0  0
  180.4240  172.2560  137.9510 O   0  0  0  0  0  1  0  0  0  0  0  0
  181.2250  173.9640  136.6470 O   0  0  0  0  0  0  0  0  0  0  0  0
  188.9980  178.3890  138.8220 C   0  0  0  0  0  2  0  0  0  0  0  0
  190.9840  177.0700  138.0650 C   0  0  0  0  0  0  0  0  0  0  0  0
  191.3090  176.8730  139.2710 O   0  0  0  0  0  0  0  0  0  0  0  0
  189.8370  177.8670  137.7520 N   0  0  0  0  0  2  0  0  0  0  0  0
  190.2600  174.4830  137.5900 O   0  0  0  0  0  1  0  0  0  0  0  0
  193.9980  175.6270  136.9820 C   0  0  2  0  0  3  0  0  0  0  0  0
  191.7300  176.3490  136.9810 C   0  0  2  0  0  3  0  0  0  0  0  0
  191.3030  174.9440  136.7820 C   0  0  2  0  0  0  0  0  0  0  0  0
  191.2610  174.5430  135.3050 C   0  0  0  0  0  1  0  0  0  0  0  0
  193.5080  174.3560  136.8050 O   0  0  0  0  0  0  0  0  0  0  0  0
  192.6320  175.1990  137.5510 C   0  0  1  0  0  0  0  0  0  0  0  0
  194.1040  176.2330  135.6070 C   0  0  0  0  0  3  0  0  0  0  0  0
  195.0490  177.1400  135.3690 C   0  0  0  0  0  2  0  0  0  0  0  0
  185.1730  178.5360  142.0770 C   0  0  0  0  0  2  0  0  0  0  0  0
  185.7430  178.9820  143.4310 C   0  0  1  0  0  3  0  0  0  0  0  0
  183.6470  179.3810  144.2680 C   0  0  0  0  0  1  0  0  0  0  0  0
  184.9150  179.9490  144.0540 O   0  0  0  0  0  0  0  0  0  0  0  0
  186.0240  177.8570  144.3340 N   0  0  0  0  0  2  0  0  0  0  0  0
  187.0290  177.8910  145.3420 C   0  0  0  0  0  3  0  0  0  0  0  0
  188.2730  177.5360  145.0440 C   0  0  0  0  0  3  0  0  0  0  0  0
  189.0450  176.7310  147.1290 F   0  0  0  0  0  0  0  0  0  0  0  0
  189.3690  177.5530  146.0630 C   0  0  1  0  0  3  0  0  0  0  0  0
  190.7070  177.1290  145.4710 C   0  0  0  0  0  2  0  0  0  0  0  0
  191.6760  177.0830  146.4770 O   0  0  0  0  0  1  0  0  0  0  0  0
  2 13  1  0  0  0  0
  2 10  1  0  0  0  0
  3  1  1  0  0  0  0
  4 15  1  0  0  0  0
  4  5  1  0  0  0  0
  5 16  1  0  0  0  0
  6  9  1  0  0  0  0
  6  4  2  0  0  0  0
  7  1  1  0  0  0  0
  7 38  1  1  0  0  0
  8  2  2  0  0  0  0
  9 14  1  0  0  0  0
 10  7  1  0  0  0  0
 11 12  2  0  0  0  0
 11 19  1  0  0  0  0
 13 25  1  6  0  0  0
 13  3  1  0  0  0  0
 14  8  1  0  0  0  0
 14  5  2  0  0  0  0
 15 11  1  0  0  0  0
 16 10  2  0  0  0  0
 17 19  1  0  0  0  0
 17 20  1  0  0  0  0
 19 18  2  0  0  0  0
 20 21  1  1  0  0  0
 22 23  1  0  0  0  0
 22 20  1  0  0  0  0
 24 22  2  0  0  0  0
 26 27  2  0  0  0  0
 28 26  1  0  0  0  0
 28 25  1  0  0  0  0
 30 36  1  6  0  0  0
 30 35  1  0  0  0  0
 31 35  1  0  0  0  0
 31 26  1  1  0  0  0
 32 33  1  6  0  0  0
 32 31  1  0  0  0  0
 32 35  1  0  0  0  0
 32 29  1  0  0  0  0
 34 30  1  0  0  0  0
 35 34  1  1  0  0  0
 37 36  2  0  0  0  0
 39 38  1  6  0  0  0
 39 41  1  0  0  0  0
 39 42  1  0  0  0  0
 41 40  1  0  0  0  0
 42 43  1  0  0  0  0
 44 43  2  0  0  0  0
 44 46  1  0  0  0  0
 46 45  1  1  0  0  0
 47 46  1  0  0  0  0
 47 48  1  0  0  0  0
M  END
>  <MODEL>
4

>  <REMARK>
 VINA RESULT:      -6.3      2.903      7.169
  Name = 
  14 active torsions:
  status: ('A' for Active; 'I' for Inactive)
    1  A    between atoms: C_2  and  CA_42
    2  A    between atoms: C_3  and  C_22
    3  A    between atoms: C_4  and  C_14
    4  A    between atoms: N_6  and  CA_42
    5  A    between atoms: C_12  and  C_31
    6  A    between atoms: C_18  and  C_43
    7  A    between atoms: O_21  and  C_35
    8  A    between atoms: C_22  and  C_34
    9  A    between atoms: N_23  and  C_37
   10  A    between atoms: C_27  and  C_47
   11  A    between atoms: C_30  and  N_44
   12  A    between atoms: C_35  and  C_43
   13  A    between atoms: C_35  and  N_44
   14  A    between atoms: C_37  and  C_38
                            x       y       z     vdW  Elec       q    Type
                         _______ _______ _______ _____ _____    ______ ____

>  <TORSDO>
F 14

$$$$
=
 OpenBabel10222420083D

 48 52  0  0  1  0  0  0  0  0999 V2000
  188.8980  177.4850  139.6410 C   0  0  0  0  0  2  0  0  0  0  0  0
  189.8780  176.5790  137.0110 C   0  0  0  0  0  0  0  0  0  0  0  0
  188.9580  178.7790  138.3800 S   0  0  0  0  0  0  0  0  0  0  0  0
  192.5610  173.4610  136.4210 C   0  0  0  0  0  0  0  0  0  0  0  0
  191.7560  174.5850  136.8480 C   0  0  0  0  0  0  0  0  0  0  0  0
  192.3280  173.1510  135.1830 N   0  0  0  0  0  0  0  0  0  0  0  0
  190.1540  176.6260  139.5880 C   0  0  1  0  0  3  0  0  0  0  0  0
  190.1400  175.9730  135.8170 N   0  0  0  0  0  0  0  0  0  0  0  0
  191.3840  174.1100  134.5940 C   0  0  0  0  0  2  0  0  0  0  0  0
  190.5250  176.1260  138.2050 C   0  0  0  0  0  0  0  0  0  0  0  0
  194.5920  173.2530  137.9210 C   0  0  0  0  0  0  0  0  0  0  0  0
  195.2100  172.5340  138.7540 O   0  0  0  0  0  0  0  0  0  0  0  0
  188.7470  177.5650  137.0350 C   0  0  2  0  0  3  0  0  0  0  0  0
  191.0860  175.0070  135.7420 C   0  0  0  0  0  0  0  0  0  0  0  0
  193.4460  172.7040  137.2450 N   0  0  0  0  0  2  0  0  0  0  0  0
  191.4890  175.1040  138.1090 C   0  0  0  0  0  3  0  0  0  0  0  0
  196.1320  174.7460  136.6170 N   0  0  0  0  0  2  0  0  0  0  0  0
  194.7220  175.6170  138.2580 O   0  0  0  0  0  0  0  0  0  0  0  0
  195.1230  174.5990  137.6250 C   0  0  0  0  0  0  0  0  0  0  0  0
  196.4580  176.0520  136.0610 C   0  0  1  0  0  3  0  0  0  0  0  0
  197.6700  175.9350  135.1560 C   0  0  0  0  0  1  0  0  0  0  0  0
  195.2840  176.5900  135.3060 C   0  0  0  0  0  0  0  0  0  0  0  0
  194.4610  175.7170  134.6030 O   0  0  0  0  0  0  0  0  0  0  0  0
  195.0430  177.8260  135.2900 O   0  0  0  0  0  1  0  0  0  0  0  0
  187.4330  176.7950  137.1400 C   0  0  0  0  0  2  0  0  0  0  0  0
  184.9670  177.1480  137.3700 C   0  0  0  0  0  0  0  0  0  0  0  0
  184.7830  175.9010  137.2770 O   0  0  0  0  0  0  0  0  0  0  0  0
  186.2890  177.6880  137.2710 N   0  0  0  0  0  2  0  0  0  0  0  0
  185.0540  178.3760  139.8040 O   0  0  0  0  0  1  0  0  0  0  0  0
  181.5660  177.4000  138.2120 C   0  0  2  0  0  3  0  0  0  0  0  0
  183.8070  178.0340  137.7210 C   0  0  2  0  0  3  0  0  0  0  0  0
  183.9040  178.6580  139.0610 C   0  0  2  0  0  0  0  0  0  0  0  0
  183.4120  180.1070  139.0750 C   0  0  0  0  0  1  0  0  0  0  0  0
  181.7520  177.9980  139.4360 O   0  0  0  0  0  0  0  0  0  0  0  0
  182.9480  177.4410  138.8920 C   0  0  1  0  0  0  0  0  0  0  0  0
  181.1380  178.4940  137.2690 C   0  0  0  0  0  3  0  0  0  0  0  0
  180.1770  179.3340  137.6440 C   0  0  0  0  0  2  0  0  0  0  0  0
  191.3210  177.3250  140.2770 C   0  0  0  0  0  2  0  0  0  0  0  0
  191.2860  177.0830  141.7930 C   0  0  1  0  0  3  0  0  0  0  0  0
  191.8090  178.3420  143.6340 C   0  0  0  0  0  1  0  0  0  0  0  0
  190.9760  178.2680  142.5050 O   0  0  0  0  0  0  0  0  0  0  0  0
  190.3960  175.9790  142.1770 N   0  0  0  0  0  2  0  0  0  0  0  0
  189.3110  176.1240  143.0860 C   0  0  0  0  0  3  0  0  0  0  0  0
  188.7170  177.3040  143.2210 C   0  0  0  0  0  3  0  0  0  0  0  0
  186.8750  176.3310  144.3400 F   0  0  0  0  0  0  0  0  0  0  0  0
  187.5720  177.5140  144.1610 C   0  0  1  0  0  3  0  0  0  0  0  0
  188.0320  178.0530  145.5100 C   0  0  0  0  0  2  0  0  0  0  0  0
  188.4810  176.9990  146.3120 O   0  0  0  0  0  1  0  0  0  0  0  0
  2 13  1  0  0  0  0
  2 10  1  0  0  0  0
  3  1  1  0  0  0  0
  4  5  1  0  0  0  0
  4 15  1  0  0  0  0
  5 16  1  0  0  0  0
  6  4  2  0  0  0  0
  7  1  1  0  0  0  0
  7 38  1  6  0  0  0
  8  2  2  0  0  0  0
  9  6  1  0  0  0  0
  9 14  1  0  0  0  0
 10  7  1  0  0  0  0
 11 12  2  0  0  0  0
 13 25  1  1  0  0  0
 13  3  1  0  0  0  0
 14  8  1  0  0  0  0
 14  5  2  0  0  0  0
 15 11  1  0  0  0  0
 16 10  2  0  0  0  0
 17 19  1  0  0  0  0
 19 11  1  0  0  0  0
 19 18  2  0  0  0  0
 20 21  1  6  0  0  0
 20 17  1  0  0  0  0
 22 20  1  0  0  0  0
 23 22  2  0  0  0  0
 24 22  1  0  0  0  0
 25 28  1  0  0  0  0
 27 26  2  0  0  0  0
 28 26  1  0  0  0  0
 30 36  1  6  0  0  0
 30 35  1  0  0  0  0
 30 34  1  0  0  0  0
 31 26  1  1  0  0  0
 31 35  1  0  0  0  0
 31 32  1  0  0  0  0
 32 33  1  1  0  0  0
 32 29  1  0  0  0  0
 35 32  1  0  0  0  0
 35 34  1  1  0  0  0
 36 37  2  0  0  0  0
 39 38  1  6  0  0  0
 39 42  1  0  0  0  0
 39 41  1  0  0  0  0
 41 40  1  0  0  0  0
 42 43  1  0  0  0  0
 43 44  2  0  0  0  0
 44 46  1  0  0  0  0
 46 45  1  1  0  0  0
 46 47  1  0  0  0  0
 47 48  1  0  0  0  0
M  END
>  <MODEL>
5

>  <REMARK>
 VINA RESULT:      -6.3      4.081     11.447
  Name = 
  14 active torsions:
  status: ('A' for Active; 'I' for Inactive)
    1  A    between atoms: C_2  and  CA_42
    2  A    between atoms: C_3  and  C_22
    3  A    between atoms: C_4  and  C_14
    4  A    between atoms: N_6  and  CA_42
    5  A    between atoms: C_12  and  C_31
    6  A    between atoms: C_18  and  C_43
    7  A    between atoms: O_21  and  C_35
    8  A    between atoms: C_22  and  C_34
    9  A    between atoms: N_23  and  C_37
   10  A    between atoms: C_27  and  C_47
   11  A    between atoms: C_30  and  N_44
   12  A    between atoms: C_35  and  C_43
   13  A    between atoms: C_35  and  N_44
   14  A    between atoms: C_37  and  C_38
                            x       y       z     vdW  Elec       q    Type
                         _______ _______ _______ _____ _____    ______ ____

>  <TORSDO>
F 14

$$$$
=
 OpenBabel10222420083D

 48 52  0  0  1  0  0  0  0  0999 V2000
  189.9800  177.3450  137.6220 C   0  0  0  0  0  2  0  0  0  0  0  0
  187.5630  175.6910  137.2720 C   0  0  0  0  0  0  0  0  0  0  0  0
  190.1190  175.6700  138.2870 S   0  0  0  0  0  0  0  0  0  0  0  0
  183.6820  177.1650  137.0920 C   0  0  0  0  0  0  0  0  0  0  0  0
  185.0770  176.8510  137.3140 C   0  0  0  0  0  0  0  0  0  0  0  0
  183.0650  176.1930  136.4930 N   0  0  0  0  0  0  0  0  0  0  0  0
  188.6270  177.9500  137.9720 C   0  0  1  0  0  3  0  0  0  0  0  0
  186.4690  174.9940  136.8520 N   0  0  0  0  0  0  0  0  0  0  0  0
  183.9730  175.0510  136.3220 C   0  0  0  0  0  2  0  0  0  0  0  0
  187.4360  177.0620  137.6660 C   0  0  0  0  0  0  0  0  0  0  0  0
  182.9470  178.9640  138.7170 C   0  0  0  0  0  0  0  0  0  0  0  0
  182.5080  180.1390  138.8500 O   0  0  0  0  0  0  0  0  0  0  0  0
  188.8980  175.0290  137.0930 C   0  0  2  0  0  3  0  0  0  0  0  0
  185.2420  175.5660  136.9000 C   0  0  0  0  0  0  0  0  0  0  0  0
  183.0440  178.4040  137.3950 N   0  0  0  0  0  2  0  0  0  0  0  0
  186.1540  177.6460  137.6860 C   0  0  0  0  0  3  0  0  0  0  0  0
  184.0180  178.8160  140.9830 N   0  0  0  0  0  2  0  0  0  0  0  0
  182.9070  176.9860  140.0590 O   0  0  0  0  0  0  0  0  0  0  0  0
  183.2650  178.1910  139.9350 C   0  0  0  0  0  0  0  0  0  0  0  0
  184.0850  178.2310  142.3150 C   0  0  1  0  0  3  0  0  0  0  0  0
  185.5160  178.2650  142.8170 C   0  0  0  0  0  1  0  0  0  0  0  0
  183.1790  178.9770  143.2430 C   0  0  0  0  0  0  0  0  0  0  0  0
  181.8220  179.0650  142.9540 O   0  0  0  0  0  0  0  0  0  0  0  0
  183.6380  179.5380  144.2740 O   0  0  0  0  0  1  0  0  0  0  0  0
  189.3410  175.2120  135.6440 C   0  0  0  0  0  2  0  0  0  0  0  0
  191.6770  175.7760  134.9480 C   0  0  0  0  0  0  0  0  0  0  0  0
  191.2940  176.9330  134.6130 O   0  0  0  0  0  0  0  0  0  0  0  0
  190.7310  174.8240  135.4470 N   0  0  0  0  0  2  0  0  0  0  0  0
  192.4800  173.6540  136.4630 O   0  0  0  0  0  1  0  0  0  0  0  0
  194.9210  176.7180  135.9080 C   0  0  2  0  0  3  0  0  0  0  0  0
  193.1440  175.4610  134.9440 C   0  0  2  0  0  3  0  0  0  0  0  0
  193.5200  174.3110  135.7990 C   0  0  2  0  0  0  0  0  0  0  0  0
  194.5970  173.4290  135.1620 C   0  0  0  0  0  1  0  0  0  0  0  0
  195.1900  175.6030  136.6650 O   0  0  0  0  0  0  0  0  0  0  0  0
  193.8090  175.7430  136.3380 C   0  0  1  0  0  0  0  0  0  0  0  0
  195.6510  176.5290  134.6040 C   0  0  0  0  0  3  0  0  0  0  0  0
  196.9610  176.3020  134.6210 C   0  0  0  0  0  2  0  0  0  0  0  0
  188.6110  178.4540  139.4110 C   0  0  0  0  0  2  0  0  0  0  0  0
  189.4760  177.5620  140.3130 C   0  0  1  0  0  3  0  0  0  0  0  0
  191.7110  177.3680  140.7760 C   0  0  0  0  0  1  0  0  0  0  0  0
  190.6180  178.2520  140.7910 O   0  0  0  0  0  0  0  0  0  0  0  0
  188.7170  176.9550  141.4160 N   0  0  0  0  0  2  0  0  0  0  0  0
  188.7510  177.4400  142.7540 C   0  0  0  0  0  3  0  0  0  0  0  0
  189.3430  176.7210  143.7000 C   0  0  0  0  0  3  0  0  0  0  0  0
  190.2670  178.2620  145.2380 F   0  0  0  0  0  0  0  0  0  0  0  0
  189.4090  177.1820  145.1220 C   0  0  1  0  0  3  0  0  0  0  0  0
  188.0350  177.5520  145.6680 C   0  0  0  0  0  2  0  0  0  0  0  0
  187.9560  177.2130  147.0210 O   0  0  0  0  0  1  0  0  0  0  0  0
  1  7  1  0  0  0  0
  1  3  1  0  0  0  0
  2 10  1  0  0  0  0
  4  5  1  0  0  0  0
  4 15  1  0  0  0  0
  5 16  1  0  0  0  0
  6  4  2  0  0  0  0
  7 38  1  1  0  0  0
  8 14  1  0  0  0  0
  8  2  2  0  0  0  0
  9  6  1  0  0  0  0
  9 14  1  0  0  0  0
 10 16  2  0  0  0  0
 10  7  1  0  0  0  0
 11 12  2  0  0  0  0
 11 19  1  0  0  0  0
 13 25  1  6  0  0  0
 13  2  1  0  0  0  0
 13  3  1  0  0  0  0
 14  5  2  0  0  0  0
 15 11  1  0  0  0  0
 17 20  1  0  0  0  0
 19 18  2  0  0  0  0
 19 17  1  0  0  0  0
 20 21  1  1  0  0  0
 20 22  1  0  0  0  0
 22 24  1  0  0  0  0
 23 22  2  0  0  0  0
 26 28  1  0  0  0  0
 27 26  2  0  0  0  0
 28 25  1  0  0  0  0
 30 36  1  6  0  0  0
 30 35  1  0  0  0  0
 30 34  1  0  0  0  0
 31 26  1  1  0  0  0
 31 32  1  0  0  0  0
 31 35  1  0  0  0  0
 32 33  1  6  0  0  0
 32 35  1  0  0  0  0
 32 29  1  0  0  0  0
 35 34  1  1  0  0  0
 36 37  2  0  0  0  0
 39 38  1  1  0  0  0
 39 41  1  0  0  0  0
 39 42  1  0  0  0  0
 40 41  1  0  0  0  0
 42 43  1  0  0  0  0
 43 44  2  0  0  0  0
 44 46  1  0  0  0  0
 46 45  1  6  0  0  0
 46 47  1  0  0  0  0
 47 48  1  0  0  0  0
M  END
>  <MODEL>
6

>  <REMARK>
 VINA RESULT:      -5.8      3.630      8.264
  Name = 
  14 active torsions:
  status: ('A' for Active; 'I' for Inactive)
    1  A    between atoms: C_2  and  CA_42
    2  A    between atoms: C_3  and  C_22
    3  A    between atoms: C_4  and  C_14
    4  A    between atoms: N_6  and  CA_42
    5  A    between atoms: C_12  and  C_31
    6  A    between atoms: C_18  and  C_43
    7  A    between atoms: O_21  and  C_35
    8  A    between atoms: C_22  and  C_34
    9  A    between atoms: N_23  and  C_37
   10  A    between atoms: C_27  and  C_47
   11  A    between atoms: C_30  and  N_44
   12  A    between atoms: C_35  and  C_43
   13  A    between atoms: C_35  and  N_44
   14  A    between atoms: C_37  and  C_38
                            x       y       z     vdW  Elec       q    Type
                         _______ _______ _______ _____ _____    ______ ____

>  <TORSDO>
F 14

$$$$
=
 OpenBabel10222420083D

 48 52  0  0  1  0  0  0  0  0999 V2000
  182.0610  179.7550  141.9290 C   0  0  0  0  0  2  0  0  0  0  0  0
  184.6310  178.3120  142.0520 C   0  0  0  0  0  0  0  0  0  0  0  0
  182.0260  178.2500  142.9310 S   0  0  0  0  0  0  0  0  0  0  0  0
  187.5100  178.3280  139.0550 C   0  0  0  0  0  0  0  0  0  0  0  0
  186.3380  178.3440  139.9030 C   0  0  0  0  0  0  0  0  0  0  0  0
  188.5720  177.9820  139.7160 N   0  0  0  0  0  0  0  0  0  0  0  0
  182.8260  179.5180  140.6340 C   0  0  1  0  0  3  0  0  0  0  0  0
  185.9180  177.8820  142.1860 N   0  0  0  0  0  0  0  0  0  0  0  0
  188.2120  177.6300  141.0960 C   0  0  0  0  0  2  0  0  0  0  0  0
  184.1800  178.8580  140.8070 C   0  0  0  0  0  0  0  0  0  0  0  0
  186.8020  178.0860  136.6350 C   0  0  0  0  0  0  0  0  0  0  0  0
  186.7910  178.6140  135.4890 O   0  0  0  0  0  0  0  0  0  0  0  0
  183.8070  178.3840  143.3040 C   0  0  2  0  0  3  0  0  0  0  0  0
  186.7460  177.8780  141.1140 C   0  0  0  0  0  0  0  0  0  0  0  0
  187.5560  178.7190  137.6840 N   0  0  0  0  0  2  0  0  0  0  0  0
  185.0650  178.8660  139.7110 C   0  0  0  0  0  3  0  0  0  0  0  0
  184.6690  176.7740  136.8140 N   0  0  0  0  0  2  0  0  0  0  0  0
  186.7430  175.7250  137.0100 O   0  0  0  0  0  0  0  0  0  0  0  0
  186.1020  176.7990  136.8210 C   0  0  0  0  0  0  0  0  0  0  0  0
  183.9370  175.5230  136.6700 C   0  0  1  0  0  3  0  0  0  0  0  0
  183.4520  175.0550  138.0300 C   0  0  0  0  0  1  0  0  0  0  0  0
  182.7860  175.7130  135.7340 C   0  0  0  0  0  0  0  0  0  0  0  0
  181.5530  175.1470  136.0390 O   0  0  0  0  0  1  0  0  0  0  0  0
  182.9280  176.3670  134.6660 O   0  0  0  0  0  0  0  0  0  0  0  0
  184.1580  179.6720  144.0440 C   0  0  0  0  0  2  0  0  0  0  0  0
  185.6800  178.8180  145.8360 C   0  0  0  0  0  0  0  0  0  0  0  0
  184.7020  178.2360  146.3850 O   0  0  0  0  0  0  0  0  0  0  0  0
  185.4770  179.6040  144.6570 N   0  0  0  0  0  2  0  0  0  0  0  0
  187.1720  176.9770  144.4850 O   0  0  0  0  0  1  0  0  0  0  0  0
  187.7090  177.4810  148.3720 C   0  0  2  0  0  3  0  0  0  0  0  0
  187.0660  178.5630  146.3520 C   0  0  2  0  0  3  0  0  0  0  0  0
  187.8200  177.5410  145.5880 C   0  0  2  0  0  0  0  0  0  0  0  0
  189.2950  177.9070  145.4090 C   0  0  0  0  0  1  0  0  0  0  0  0
  188.3740  176.5760  147.5810 O   0  0  0  0  0  0  0  0  0  0  0  0
  187.2120  177.1230  146.9590 C   0  0  1  0  0  0  0  0  0  0  0  0
  188.6580  178.6310  148.5880 C   0  0  0  0  0  3  0  0  0  0  0  0
  189.9340  178.3750  148.8650 C   0  0  0  0  0  2  0  0  0  0  0  0
  181.9590  178.7870  139.6140 C   0  0  0  0  0  2  0  0  0  0  0  0
  181.4310  179.7580  138.5490 C   0  0  1  0  0  3  0  0  0  0  0  0
  181.2450  179.1060  136.3600 C   0  0  0  0  0  1  0  0  0  0  0  0
  180.5990  179.1020  137.6080 O   0  0  0  0  0  0  0  0  0  0  0  0
  180.7650  180.9350  139.1250 N   0  0  0  0  0  2  0  0  0  0  0  0
  180.4860  182.1190  138.3870 C   0  0  0  0  0  3  0  0  0  0  0  0
  181.4730  182.7640  137.7770 C   0  0  0  0  0  3  0  0  0  0  0  0
  180.9700  183.7030  135.6660 F   0  0  0  0  0  0  0  0  0  0  0  0
  181.2380  184.0130  136.9880 C   0  0  1  0  0  3  0  0  0  0  0  0
  180.1000  184.8480  137.5640 C   0  0  0  0  0  2  0  0  0  0  0  0
  179.4500  185.5340  136.5350 O   0  0  0  0  0  1  0  0  0  0  0  0
  1  3  1  0  0  0  0
  2  8  1  0  0  0  0
  2 13  1  0  0  0  0
  3 13  1  0  0  0  0
  4  6  2  0  0  0  0
  4  5  1  0  0  0  0
  5 14  1  0  0  0  0
  6  9  1  0  0  0  0
  7 38  1  6  0  0  0
  7 10  1  0  0  0  0
  7  1  1  0  0  0  0
  9 14  1  0  0  0  0
 10  2  2  0  0  0  0
 11 19  1  0  0  0  0
 11 15  1  0  0  0  0
 12 11  2  0  0  0  0
 13 25  1  6  0  0  0
 14  8  2  0  0  0  0
 15  4  1  0  0  0  0
 16  5  2  0  0  0  0
 16 10  1  0  0  0  0
 17 19  1  0  0  0  0
 19 18  2  0  0  0  0
 20 17  1  0  0  0  0
 20 21  1  1  0  0  0
 22 23  1  0  0  0  0
 22 20  1  0  0  0  0
 24 22  2  0  0  0  0
 25 28  1  0  0  0  0
 26 27  2  0  0  0  0
 28 26  1  0  0  0  0
 29 32  1  0  0  0  0
 30 36  1  6  0  0  0
 31 26  1  6  0  0  0
 31 35  1  0  0  0  0
 32 33  1  6  0  0  0
 32 31  1  0  0  0  0
 32 35  1  0  0  0  0
 34 30  1  0  0  0  0
 35 34  1  6  0  0  0
 35 30  1  0  0  0  0
 36 37  2  0  0  0  0
 39 42  1  0  0  0  0
 39 38  1  1  0  0  0
 40 41  1  0  0  0  0
 41 39  1  0  0  0  0
 43 42  1  0  0  0  0
 44 43  2  0  0  0  0
 46 45  1  6  0  0  0
 46 47  1  0  0  0  0
 46 44  1  0  0  0  0
 48 47  1  0  0  0  0
M  END
>  <MODEL>
7

>  <REMARK>
 VINA RESULT:      -5.6      3.008      6.637
  Name = 
  14 active torsions:
  status: ('A' for Active; 'I' for Inactive)
    1  A    between atoms: C_2  and  CA_42
    2  A    between atoms: C_3  and  C_22
    3  A    between atoms: C_4  and  C_14
    4  A    between atoms: N_6  and  CA_42
    5  A    between atoms: C_12  and  C_31
    6  A    between atoms: C_18  and  C_43
    7  A    between atoms: O_21  and  C_35
    8  A    between atoms: C_22  and  C_34
    9  A    between atoms: N_23  and  C_37
   10  A    between atoms: C_27  and  C_47
   11  A    between atoms: C_30  and  N_44
   12  A    between atoms: C_35  and  C_43
   13  A    between atoms: C_35  and  N_44
   14  A    between atoms: C_37  and  C_38
                            x       y       z     vdW  Elec       q    Type
                         _______ _______ _______ _____ _____    ______ ____

>  <TORSDO>
F 14

$$$$
=
 OpenBabel10222420083D

 48 52  0  0  1  0  0  0  0  0999 V2000
  188.0590  175.1130  135.5510 C   0  0  0  0  0  2  0  0  0  0  0  0
  189.9950  176.7740  137.0310 C   0  0  0  0  0  0  0  0  0  0  0  0
  188.4220  176.7060  134.7760 S   0  0  0  0  0  0  0  0  0  0  0  0
  190.5400  176.6880  141.1490 C   0  0  0  0  0  0  0  0  0  0  0  0
  190.1030  176.6620  139.7700 C   0  0  0  0  0  0  0  0  0  0  0  0
  191.7300  177.1910  141.2630 N   0  0  0  0  0  0  0  0  0  0  0  0
  187.8790  175.2770  137.0540 C   0  0  1  0  0  3  0  0  0  0  0  0
  191.0460  177.3250  137.7030 N   0  0  0  0  0  0  0  0  0  0  0  0
  192.2060  177.6550  139.9520 C   0  0  0  0  0  2  0  0  0  0  0  0
  188.9760  176.0640  137.7430 C   0  0  0  0  0  0  0  0  0  0  0  0
  188.5220  176.6130  142.6790 C   0  0  0  0  0  0  0  0  0  0  0  0
  187.9100  175.9680  143.5750 O   0  0  0  0  0  0  0  0  0  0  0  0
  190.0810  176.7650  135.5320 C   0  0  2  0  0  3  0  0  0  0  0  0
  191.0790  177.2860  139.0570 C   0  0  0  0  0  0  0  0  0  0  0  0
  189.8230  176.1600  142.2640 N   0  0  0  0  0  2  0  0  0  0  0  0
  189.0410  176.0160  139.1490 C   0  0  0  0  0  3  0  0  0  0  0  0
  186.4910  177.8750  141.9160 N   0  0  0  0  0  2  0  0  0  0  0  0
  188.5990  178.8710  141.8980 O   0  0  0  0  0  0  0  0  0  0  0  0
  187.9040  177.8480  142.1570 C   0  0  0  0  0  0  0  0  0  0  0  0
  185.7840  179.1320  141.7150 C   0  0  1  0  0  3  0  0  0  0  0  0
  185.1540  179.1510  140.3340 C   0  0  0  0  0  1  0  0  0  0  0  0
  184.7430  179.3050  142.7740 C   0  0  0  0  0  0  0  0  0  0  0  0
  184.9970  180.1380  143.8580 O   0  0  0  0  0  1  0  0  0  0  0  0
  183.6450  178.6900  142.7020 O   0  0  0  0  0  0  0  0  0  0  0  0
  190.9640  175.5970  135.1030 C   0  0  0  0  0  2  0  0  0  0  0  0
  192.7520  174.0710  135.9600 C   0  0  0  0  0  0  0  0  0  0  0  0
  192.7440  173.4490  134.8600 O   0  0  0  0  0  0  0  0  0  0  0  0
  191.8450  175.1580  136.1770 N   0  0  0  0  0  2  0  0  0  0  0  0
  194.3060  176.1450  136.8130 O   0  0  0  0  0  1  0  0  0  0  0  0
  195.8040  172.4860  136.6720 C   0  0  2  0  0  3  0  0  0  0  0  0
  193.8100  173.7490  136.9750 C   0  0  2  0  0  3  0  0  0  0  0  0
  194.6310  174.9120  137.3850 C   0  0  2  0  0  0  0  0  0  0  0  0
  194.9530  174.9090  138.8810 C   0  0  0  0  0  1  0  0  0  0  0  0
  196.4820  173.6180  137.0570 O   0  0  0  0  0  0  0  0  0  0  0  0
  195.2560  173.8960  136.3840 C   0  0  1  0  0  0  0  0  0  0  0  0
  195.4380  171.7610  137.9410 C   0  0  0  0  0  3  0  0  0  0  0  0
  195.2710  170.4420  137.9080 C   0  0  0  0  0  2  0  0  0  0  0  0
  186.4920  175.8190  137.3810 C   0  0  0  0  0  2  0  0  0  0  0  0
  185.4000  174.8450  136.9160 C   0  0  1  0  0  3  0  0  0  0  0  0
  185.2700  172.5660  136.7220 C   0  0  0  0  0  1  0  0  0  0  0  0
  185.4510  173.6220  137.6310 O   0  0  0  0  0  0  0  0  0  0  0  0
  184.0530  175.4320  136.9550 N   0  0  0  0  0  2  0  0  0  0  0  0
  183.5360  176.1380  138.0770 C   0  0  0  0  0  3  0  0  0  0  0  0
  182.2330  176.3800  138.1600 C   0  0  0  0  0  3  0  0  0  0  0  0
  182.4880  177.0760  140.4060 F   0  0  0  0  0  0  0  0  0  0  0  0
  181.6340  177.1170  139.3160 C   0  0  1  0  0  3  0  0  0  0  0  0
  181.3120  178.5650  138.9660 C   0  0  0  0  0  2  0  0  0  0  0  0
  181.5900  179.3880  140.0610 O   0  0  0  0  0  1  0  0  0  0  0  0
  1  7  1  0  0  0  0
  2  8  2  0  0  0  0
  2 10  1  0  0  0  0
  3 13  1  0  0  0  0
  3  1  1  0  0  0  0
  4  6  2  0  0  0  0
  4 15  1  0  0  0  0
  5  4  1  0  0  0  0
  7 38  1  6  0  0  0
  7 10  1  0  0  0  0
  8 14  1  0  0  0  0
  9  6  1  0  0  0  0
 10 16  2  0  0  0  0
 11 12  2  0  0  0  0
 13 25  1  1  0  0  0
 13  2  1  0  0  0  0
 14  5  2  0  0  0  0
 14  9  1  0  0  0  0
 15 11  1  0  0  0  0
 16  5  1  0  0  0  0
 17 19  1  0  0  0  0
 18 19  2  0  0  0  0
 19 11  1  0  0  0  0
 20 21  1  6  0  0  0
 20 17  1  0  0  0  0
 20 22  1  0  0  0  0
 22 23  1  0  0  0  0
 24 22  2  0  0  0  0
 25 28  1  0  0  0  0
 26 28  1  0  0  0  0
 27 26  2  0  0  0  0
 29 32  1  0  0  0  0
 30 34  1  0  0  0  0
 30 36  1  1  0  0  0
 31 26  1  6  0  0  0
 31 32  1  0  0  0  0
 32 33  1  1  0  0  0
 35 30  1  0  0  0  0
 35 31  1  0  0  0  0
 35 34  1  6  0  0  0
 35 32  1  0  0  0  0
 37 36  2  0  0  0  0
 39 42  1  0  0  0  0
 39 38  1  1  0  0  0
 39 41  1  0  0  0  0
 40 41  1  0  0  0  0
 42 43  1  0  0  0  0
 43 44  2  0  0  0  0
 44 46  1  0  0  0  0
 46 45  1  1  0  0  0
 47 46  1  0  0  0  0
 47 48  1  0  0  0  0
M  END
>  <MODEL>
8

>  <REMARK>
 VINA RESULT:      -5.6      4.272      9.417
  Name = 
  14 active torsions:
  status: ('A' for Active; 'I' for Inactive)
    1  A    between atoms: C_2  and  CA_42
    2  A    between atoms: C_3  and  C_22
    3  A    between atoms: C_4  and  C_14
    4  A    between atoms: N_6  and  CA_42
    5  A    between atoms: C_12  and  C_31
    6  A    between atoms: C_18  and  C_43
    7  A    between atoms: O_21  and  C_35
    8  A    between atoms: C_22  and  C_34
    9  A    between atoms: N_23  and  C_37
   10  A    between atoms: C_27  and  C_47
   11  A    between atoms: C_30  and  N_44
   12  A    between atoms: C_35  and  C_43
   13  A    between atoms: C_35  and  N_44
   14  A    between atoms: C_37  and  C_38
                            x       y       z     vdW  Elec       q    Type
                         _______ _______ _______ _____ _____    ______ ____

>  <TORSDO>
F 14

$$$$
=
 OpenBabel10222420083D

 48 52  0  0  1  0  0  0  0  0999 V2000
  182.2120  179.6210  141.5570 C   0  0  0  0  0  2  0  0  0  0  0  0
  184.8270  178.2710  141.7450 C   0  0  0  0  0  0  0  0  0  0  0  0
  182.1970  178.0950  142.5270 S   0  0  0  0  0  0  0  0  0  0  0  0
  187.8090  178.4580  138.8570 C   0  0  0  0  0  0  0  0  0  0  0  0
  186.6080  178.4120  139.6620 C   0  0  0  0  0  0  0  0  0  0  0  0
  188.8590  178.1370  139.5490 N   0  0  0  0  0  0  0  0  0  0  0  0
  183.0310  179.4400  140.2870 C   0  0  1  0  0  3  0  0  0  0  0  0
  186.1240  177.8850  141.9180 N   0  0  0  0  0  0  0  0  0  0  0  0
  188.4630  177.7410  140.9070 C   0  0  0  0  0  2  0  0  0  0  0  0
  184.4020  178.8270  140.4960 C   0  0  0  0  0  0  0  0  0  0  0  0
  187.1980  178.2430  136.4080 C   0  0  0  0  0  0  0  0  0  0  0  0
  187.2080  178.7950  135.2730 O   0  0  0  0  0  0  0  0  0  0  0  0
  183.9570  178.2850  142.9670 C   0  0  2  0  0  3  0  0  0  0  0  0
  186.9900  177.9350  140.8770 C   0  0  0  0  0  0  0  0  0  0  0  0
  187.8900  178.8800  137.4970 N   0  0  0  0  0  2  0  0  0  0  0  0
  185.3240  178.8920  139.4330 C   0  0  0  0  0  3  0  0  0  0  0  0
  187.3280  175.7350  136.4180 N   0  0  0  0  0  2  0  0  0  0  0  0
  185.2970  176.8320  136.7420 O   0  0  0  0  0  0  0  0  0  0  0  0
  186.5410  176.9270  136.5420 C   0  0  0  0  0  0  0  0  0  0  0  0
  186.8160  174.4440  136.8520 C   0  0  1  0  0  3  0  0  0  0  0  0
  185.8480  173.9020  135.8170 C   0  0  0  0  0  1  0  0  0  0  0  0
  187.9500  173.4920  137.0650 C   0  0  0  0  0  0  0  0  0  0  0  0
  187.6970  172.1270  137.1410 O   0  0  0  0  0  0  0  0  0  0  0  0
  189.1300  173.9180  137.1920 O   0  0  0  0  0  1  0  0  0  0  0  0
  184.2320  179.5680  143.7460 C   0  0  0  0  0  2  0  0  0  0  0  0
  185.6880  178.7650  145.6160 C   0  0  0  0  0  0  0  0  0  0  0  0
  184.6940  178.1770  146.1310 O   0  0  0  0  0  0  0  0  0  0  0  0
  185.5250  179.5300  144.4170 N   0  0  0  0  0  2  0  0  0  0  0  0
  187.2500  176.9010  144.3820 O   0  0  0  0  0  1  0  0  0  0  0  0
  187.6210  177.5230  148.2720 C   0  0  2  0  0  3  0  0  0  0  0  0
  187.0530  178.5390  146.1960 C   0  0  2  0  0  3  0  0  0  0  0  0
  187.8460  177.5040  145.4940 C   0  0  2  0  0  0  0  0  0  0  0  0
  189.3250  177.8790  145.3650 C   0  0  0  0  0  1  0  0  0  0  0  0
  188.3260  176.6020  147.5350 O   0  0  0  0  0  0  0  0  0  0  0  0
  187.1860  177.1200  146.8510 C   0  0  1  0  0  0  0  0  0  0  0  0
  188.5500  178.6880  148.4920 C   0  0  0  0  0  3  0  0  0  0  0  0
  189.8200  178.4530  148.8150 C   0  0  0  0  0  2  0  0  0  0  0  0
  182.2290  178.7010  139.2220 C   0  0  0  0  0  2  0  0  0  0  0  0
  181.9530  179.6090  138.0150 C   0  0  1  0  0  3  0  0  0  0  0  0
  181.4860  177.5060  137.2360 C   0  0  0  0  0  1  0  0  0  0  0  0
  181.5070  178.8690  136.8920 O   0  0  0  0  0  0  0  0  0  0  0  0
  181.0350  180.7140  138.3260 N   0  0  0  0  0  2  0  0  0  0  0  0
  181.4000  182.0870  138.2400 C   0  0  0  0  0  3  0  0  0  0  0  0
  180.7160  182.9020  137.4450 C   0  0  0  0  0  3  0  0  0  0  0  0
  181.5550  184.6180  136.0530 F   0  0  0  0  0  0  0  0  0  0  0  0
  181.0550  184.3530  137.3160 C   0  0  1  0  0  3  0  0  0  0  0  0
  179.8530  185.2480  137.5940 C   0  0  0  0  0  2  0  0  0  0  0  0
  179.1700  185.5060  136.4020 O   0  0  0  0  0  1  0  0  0  0  0  0
  1  3  1  0  0  0  0
  2  8  1  0  0  0  0
  2 13  1  0  0  0  0
  3 13  1  0  0  0  0
  4  6  2  0  0  0  0
  4  5  1  0  0  0  0
  5 14  1  0  0  0  0
  6  9  1  0  0  0  0
  7 38  1  6  0  0  0
  7 10  1  0  0  0  0
  7  1  1  0  0  0  0
 10  2  2  0  0  0  0
 11 19  1  0  0  0  0
 11 15  1  0  0  0  0
 12 11  2  0  0  0  0
 13 25  1  6  0  0  0
 14  9  1  0  0  0  0
 14  8  2  0  0  0  0
 15  4  1  0  0  0  0
 16  5  2  0  0  0  0
 16 10  1  0  0  0  0
 17 19  1  0  0  0  0
 17 20  1  0  0  0  0
 19 18  2  0  0  0  0
 20 21  1  6  0  0  0
 20 22  1  0  0  0  0
 22 23  2  0  0  0  0
 22 24  1  0  0  0  0
 25 28  1  0  0  0  0
 26 27  2  0  0  0  0
 28 26  1  0  0  0  0
 29 32  1  0  0  0  0
 30 36  1  6  0  0  0
 31 26  1  6  0  0  0
 31 35  1  0  0  0  0
 32 33  1  6  0  0  0
 32 31  1  0  0  0  0
 32 35  1  0  0  0  0
 34 30  1  0  0  0  0
 35 34  1  6  0  0  0
 35 30  1  0  0  0  0
 36 37  2  0  0  0  0
 39 42  1  0  0  0  0
 39 38  1  1  0  0  0
 41 40  1  0  0  0  0
 41 39  1  0  0  0  0
 43 42  1  0  0  0  0
 44 43  2  0  0  0  0
 46 45  1  6  0  0  0
 46 44  1  0  0  0  0
 46 47  1  0  0  0  0
 48 47  1  0  0  0  0
M  END
>  <MODEL>
9

>  <REMARK>
 VINA RESULT:      -5.5      2.999      7.282
  Name = 
  14 active torsions:
  status: ('A' for Active; 'I' for Inactive)
    1  A    between atoms: C_2  and  CA_42
    2  A    between atoms: C_3  and  C_22
    3  A    between atoms: C_4  and  C_14
    4  A    between atoms: N_6  and  CA_42
    5  A    between atoms: C_12  and  C_31
    6  A    between atoms: C_18  and  C_43
    7  A    between atoms: O_21  and  C_35
    8  A    between atoms: C_22  and  C_34
    9  A    between atoms: N_23  and  C_37
   10  A    between atoms: C_27  and  C_47
   11  A    between atoms: C_30  and  N_44
   12  A    between atoms: C_35  and  C_43
   13  A    between atoms: C_35  and  N_44
   14  A    between atoms: C_37  and  C_38
                            x       y       z     vdW  Elec       q    Type
                         _______ _______ _______ _____ _____    ______ ____

>  <TORSDO>
F 14

$$$$
