=
 OpenBabel10222417413D

 30 31  0  0  1  0  0  0  0  0999 V2000
  185.0420  179.2780  145.0330 C   0  0  2  0  0  3  0  0  0  0  0  0
  188.2120  177.3900  145.0190 C   0  0  2  0  0  3  0  0  0  0  0  0
  187.3190  178.2270  147.5490 N   0  0  0  0  0  0  0  0  0  0  0  0
  186.4840  178.2440  146.5530 C   0  0  0  0  0  0  0  0  0  0  0  0
  185.8230  177.9700  143.0380 C   0  0  0  0  0  2  0  0  0  0  0  0
  188.9600  177.0120  146.2750 C   0  0  0  0  0  3  0  0  0  0  0  0
  185.9020  178.2500  144.3400 C   0  0  0  0  0  0  0  0  0  0  0  0
  188.5250  177.4500  147.4660 C   0  0  0  0  0  3  0  0  0  0  0  0
  185.4770  179.2360  146.4220 N   0  0  0  0  0  2  0  0  0  0  0  0
  186.7060  177.4470  145.3140 C   0  0  1  0  0  3  0  0  0  0  0  0
  183.5640  178.9130  144.9600 C   0  0  0  0  0  2  0  0  0  0  0  0
  182.9060  179.7590  144.0680 O   0  0  0  0  0  0  0  0  0  0  0  0
  181.9180  178.9630  143.4910 C   0  0  0  0  0  2  0  0  0  0  0  0
  182.3020  178.6520  142.0620 C   0  0  0  0  0  2  0  0  0  0  0  0
  181.1750  179.0440  141.1300 C   0  0  0  0  0  2  0  0  0  0  0  0
  181.4170  178.5030  139.8670 O   0  0  0  0  0  0  0  0  0  0  0  0
  182.1020  179.5060  139.1760 C   0  0  0  0  0  2  0  0  0  0  0  0
  185.6800  178.5090  138.2920 N   0  0  0  0  0  1  0  0  0  0  0  0
  183.2600  178.9330  138.5030 N   0  0  0  0  0  2  0  0  0  0  0  0
  184.5920  179.1040  138.9900 C   0  0  0  0  0  0  0  0  0  0  0  0
  184.8120  179.7750  140.0340 O   0  0  0  0  0  0  0  0  0  0  0  0
  188.4820  176.4110  143.9820 N   0  0  0  0  0  2  0  0  0  0  0  0
  189.8050  177.0880  141.8430 C   0  0  0  0  0  0  0  0  0  0  0  0
  189.1930  176.7760  142.8320 C   0  0  0  0  0  0  0  0  0  0  0  0
  190.5470  177.4670  140.6370 C   0  0  0  0  0  2  0  0  0  0  0  0
  189.9450  176.7890  139.4180 C   0  0  2  0  0  3  0  0  0  0  0  0
  190.8490  175.8640  138.8870 O   0  0  0  0  0  1  0  0  0  0  0  0
  189.5910  177.8080  138.3870 C   0  0  0  0  0  0  0  0  0  0  0  0
  189.7770  177.5740  137.1630 O   0  0  0  0  0  0  0  0  0  0  0  0
  189.0720  179.0330  138.7830 O   0  0  0  0  0  1  0  0  0  0  0  0
  1 11  1  1  0  0  0
  1  9  1  0  0  0  0
  2 22  1  6  0  0  0
  2 10  1  0  0  0  0
  2  6  1  0  0  0  0
  4  3  2  0  0  0  0
  5  7  2  0  0  0  0
  6  8  2  0  0  0  0
  7  1  1  0  0  0  0
  8  3  1  0  0  0  0
  9  4  1  0  0  0  0
 10  7  1  6  0  0  0
 10  4  1  0  0  0  0
 12 11  1  0  0  0  0
 13 12  1  0  0  0  0
 14 13  1  0  0  0  0
 15 14  1  0  0  0  0
 16 15  1  0  0  0  0
 17 16  1  0  0  0  0
 18 20  1  0  0  0  0
 19 20  1  0  0  0  0
 19 17  1  0  0  0  0
 20 21  2  0  0  0  0
 23 24  3  0  0  0  0
 24 22  1  0  0  0  0
 25 23  1  0  0  0  0
 26 27  1  6  0  0  0
 26 25  1  0  0  0  0
 28 30  1  0  0  0  0
 28 26  1  0  0  0  0
 29 28  2  0  0  0  0
M  END
>  <MODEL>
1

>  <REMARK>
 VINA RESULT:      -7.2      0.000      0.000
  Name = 
  13 active torsions:
  status: ('A' for Active; 'I' for Inactive)
    1  A    between atoms: C_1  and  C_8
    2  A    between atoms: C_2  and  C_24
    3  A    between atoms: C_3  and  N_30
    4  A    between atoms: O_5  and  C_20
    5  A    between atoms: O_5  and  C_26
    6  A    between atoms: C_7  and  C_8
    7  A    between atoms: C_7  and  C_11
    8  A    between atoms: N_9  and  C_26
    9  A    between atoms: C_20  and  C_21
   10  A    between atoms: C_21  and  C_25
   11  A    between atoms: C_24  and  O_27
   12  A    between atoms: C_25  and  O_27
   13  A    between atoms: C_29  and  N_30
                            x       y       z     vdW  Elec       q    Type
                         _______ _______ _______ _____ _____    ______ ____

>  <TORSDO>
F 13

$$$$
=
 OpenBabel10222417413D

 30 31  0  0  1  0  0  0  0  0999 V2000
  187.4070  178.2050  146.0390 C   0  0  2  0  0  3  0  0  0  0  0  0
  190.4850  176.7740  144.5960 C   0  0  2  0  0  3  0  0  0  0  0  0
  190.5480  177.2160  147.3700 N   0  0  0  0  0  0  0  0  0  0  0  0
  189.3990  177.2240  146.7610 C   0  0  0  0  0  0  0  0  0  0  0  0
  187.4840  177.2280  143.7280 C   0  0  0  0  0  2  0  0  0  0  0  0
  191.6830  176.3720  145.4230 C   0  0  0  0  0  3  0  0  0  0  0  0
  188.0260  177.3800  144.9380 C   0  0  0  0  0  0  0  0  0  0  0  0
  191.6950  176.6220  146.7410 C   0  0  0  0  0  3  0  0  0  0  0  0
  188.3360  178.0790  147.1520 N   0  0  0  0  0  2  0  0  0  0  0  0
  189.2040  176.5960  145.4240 C   0  0  1  0  0  3  0  0  0  0  0  0
  186.0480  177.6540  146.4560 C   0  0  0  0  0  2  0  0  0  0  0  0
  185.1900  178.6990  146.7950 O   0  0  0  0  0  0  0  0  0  0  0  0
  184.8800  179.3090  145.5820 C   0  0  0  0  0  2  0  0  0  0  0  0
  183.5300  178.8180  145.1100 C   0  0  0  0  0  2  0  0  0  0  0  0
  183.4330  178.9490  143.6040 C   0  0  0  0  0  2  0  0  0  0  0  0
  184.7140  179.1210  143.0780 O   0  0  0  0  0  0  0  0  0  0  0  0
  184.7070  178.3980  141.8820 C   0  0  0  0  0  2  0  0  0  0  0  0
  183.9820  180.4270  138.7300 N   0  0  0  0  0  1  0  0  0  0  0  0
  184.8390  179.3130  140.7560 N   0  0  0  0  0  2  0  0  0  0  0  0
  183.7940  179.5100  139.8020 C   0  0  0  0  0  0  0  0  0  0  0  0
  182.7070  178.8810  139.9020 O   0  0  0  0  0  0  0  0  0  0  0  0
  190.4270  175.9520  143.4000 N   0  0  0  0  0  2  0  0  0  0  0  0
  190.8520  177.0060  141.0570 C   0  0  0  0  0  0  0  0  0  0  0  0
  190.6550  176.5200  142.1410 C   0  0  0  0  0  0  0  0  0  0  0  0
  191.0920  177.5960  139.7370 C   0  0  0  0  0  2  0  0  0  0  0  0
  189.9060  177.3370  138.8240 C   0  0  2  0  0  3  0  0  0  0  0  0
  190.3450  177.1060  137.5170 O   0  0  0  0  0  1  0  0  0  0  0  0
  188.9720  178.5010  138.8530 C   0  0  0  0  0  0  0  0  0  0  0  0
  188.9960  179.3640  137.9350 O   0  0  0  0  0  0  0  0  0  0  0  0
  188.0870  178.6440  139.9110 O   0  0  0  0  0  1  0  0  0  0  0  0
  1 11  1  1  0  0  0
  1  9  1  0  0  0  0
  2 22  1  6  0  0  0
  2  6  1  0  0  0  0
  2 10  1  0  0  0  0
  4  9  1  0  0  0  0
  4  3  2  0  0  0  0
  5  7  2  0  0  0  0
  6  8  2  0  0  0  0
  7  1  1  0  0  0  0
  8  3  1  0  0  0  0
 10  7  1  6  0  0  0
 10  4  1  0  0  0  0
 11 12  1  0  0  0  0
 13 12  1  0  0  0  0
 14 13  1  0  0  0  0
 15 14  1  0  0  0  0
 16 15  1  0  0  0  0
 17 16  1  0  0  0  0
 18 20  1  0  0  0  0
 19 17  1  0  0  0  0
 20 21  2  0  0  0  0
 20 19  1  0  0  0  0
 23 24  3  0  0  0  0
 24 22  1  0  0  0  0
 25 23  1  0  0  0  0
 26 27  1  6  0  0  0
 26 28  1  0  0  0  0
 26 25  1  0  0  0  0
 28 30  1  0  0  0  0
 29 28  2  0  0  0  0
M  END
>  <MODEL>
2

>  <REMARK>
 VINA RESULT:      -7.1      1.720      2.708
  Name = 
  13 active torsions:
  status: ('A' for Active; 'I' for Inactive)
    1  A    between atoms: C_1  and  C_8
    2  A    between atoms: C_2  and  C_24
    3  A    between atoms: C_3  and  N_30
    4  A    between atoms: O_5  and  C_20
    5  A    between atoms: O_5  and  C_26
    6  A    between atoms: C_7  and  C_8
    7  A    between atoms: C_7  and  C_11
    8  A    between atoms: N_9  and  C_26
    9  A    between atoms: C_20  and  C_21
   10  A    between atoms: C_21  and  C_25
   11  A    between atoms: C_24  and  O_27
   12  A    between atoms: C_25  and  O_27
   13  A    between atoms: C_29  and  N_30
                            x       y       z     vdW  Elec       q    Type
                         _______ _______ _______ _____ _____    ______ ____

>  <TORSDO>
F 13

$$$$
=
 OpenBabel10222417413D

 30 31  0  0  1  0  0  0  0  0999 V2000
  185.4790  179.0640  145.7100 C   0  0  2  0  0  3  0  0  0  0  0  0
  188.8410  177.5480  145.6080 C   0  0  2  0  0  3  0  0  0  0  0  0
  187.9420  178.3140  148.1580 N   0  0  0  0  0  0  0  0  0  0  0  0
  187.0780  178.2220  147.1900 C   0  0  0  0  0  0  0  0  0  0  0  0
  186.3380  177.8240  143.7030 C   0  0  0  0  0  2  0  0  0  0  0  0
  189.6680  177.2750  146.8420 C   0  0  0  0  0  3  0  0  0  0  0  0
  186.4270  178.1300  144.9990 C   0  0  0  0  0  0  0  0  0  0  0  0
  189.2250  177.6780  148.0420 C   0  0  0  0  0  3  0  0  0  0  0  0
  185.9600  179.0910  147.0840 N   0  0  0  0  0  2  0  0  0  0  0  0
  187.3490  177.4380  145.9530 C   0  0  1  0  0  3  0  0  0  0  0  0
  184.0510  178.5320  145.6910 C   0  0  0  0  0  2  0  0  0  0  0  0
  183.2030  179.4570  145.0820 O   0  0  0  0  0  0  0  0  0  0  0  0
  183.0070  178.9630  143.7950 C   0  0  0  0  0  2  0  0  0  0  0  0
  181.5240  178.8130  143.5410 C   0  0  0  0  0  2  0  0  0  0  0  0
  181.1970  179.2580  142.1310 C   0  0  0  0  0  2  0  0  0  0  0  0
  181.3830  178.1840  141.2580 O   0  0  0  0  0  0  0  0  0  0  0  0
  182.1070  178.7160  140.1890 C   0  0  0  0  0  2  0  0  0  0  0  0
  185.9180  178.7920  139.9720 N   0  0  0  0  0  1  0  0  0  0  0  0
  183.5160  178.3720  140.3320 N   0  0  0  0  0  2  0  0  0  0  0  0
  184.5620  179.1780  139.7870 C   0  0  0  0  0  0  0  0  0  0  0  0
  184.2930  180.2290  139.1460 O   0  0  0  0  0  0  0  0  0  0  0  0
  189.1870  176.5900  144.5730 N   0  0  0  0  0  2  0  0  0  0  0  0
  190.9230  177.2110  142.7330 C   0  0  0  0  0  0  0  0  0  0  0  0
  190.1200  176.9260  143.5830 C   0  0  0  0  0  0  0  0  0  0  0  0
  191.8990  177.5580  141.6950 C   0  0  0  0  0  2  0  0  0  0  0  0
  191.3140  177.2940  140.3180 C   0  0  2  0  0  3  0  0  0  0  0  0
  190.3860  176.2500  140.3800 O   0  0  0  0  0  1  0  0  0  0  0  0
  192.4030  176.9550  139.3550 C   0  0  0  0  0  0  0  0  0  0  0  0
  192.1470  176.3240  138.2940 O   0  0  0  0  0  0  0  0  0  0  0  0
  193.7100  177.3190  139.6420 O   0  0  0  0  0  1  0  0  0  0  0  0
  1 11  1  1  0  0  0
  1  9  1  0  0  0  0
  2 22  1  6  0  0  0
  2 10  1  0  0  0  0
  2  6  1  0  0  0  0
  4  3  2  0  0  0  0
  5  7  2  0  0  0  0
  6  8  2  0  0  0  0
  7  1  1  0  0  0  0
  8  3  1  0  0  0  0
  9  4  1  0  0  0  0
 10  7  1  6  0  0  0
 10  4  1  0  0  0  0
 12 11  1  0  0  0  0
 13 12  1  0  0  0  0
 14 13  1  0  0  0  0
 15 14  1  0  0  0  0
 16 15  1  0  0  0  0
 17 19  1  0  0  0  0
 17 16  1  0  0  0  0
 20 18  1  0  0  0  0
 20 19  1  0  0  0  0
 21 20  2  0  0  0  0
 23 24  3  0  0  0  0
 24 22  1  0  0  0  0
 25 23  1  0  0  0  0
 26 27  1  1  0  0  0
 26 25  1  0  0  0  0
 28 30  1  0  0  0  0
 28 26  1  0  0  0  0
 29 28  2  0  0  0  0
M  END
>  <MODEL>
3

>  <REMARK>
 VINA RESULT:      -7.1      1.442      1.667
  Name = 
  13 active torsions:
  status: ('A' for Active; 'I' for Inactive)
    1  A    between atoms: C_1  and  C_8
    2  A    between atoms: C_2  and  C_24
    3  A    between atoms: C_3  and  N_30
    4  A    between atoms: O_5  and  C_20
    5  A    between atoms: O_5  and  C_26
    6  A    between atoms: C_7  and  C_8
    7  A    between atoms: C_7  and  C_11
    8  A    between atoms: N_9  and  C_26
    9  A    between atoms: C_20  and  C_21
   10  A    between atoms: C_21  and  C_25
   11  A    between atoms: C_24  and  O_27
   12  A    between atoms: C_25  and  O_27
   13  A    between atoms: C_29  and  N_30
                            x       y       z     vdW  Elec       q    Type
                         _______ _______ _______ _____ _____    ______ ____

>  <TORSDO>
F 13

$$$$
=
 OpenBabel10222417413D

 30 31  0  0  1  0  0  0  0  0999 V2000
  190.4580  176.2500  142.7850 C   0  0  2  0  0  3  0  0  0  0  0  0
  189.3710  177.2130  146.1760 C   0  0  2  0  0  3  0  0  0  0  0  0
  191.8880  175.9740  146.0240 N   0  0  0  0  0  0  0  0  0  0  0  0
  191.3520  176.4370  144.9340 C   0  0  0  0  0  0  0  0  0  0  0  0
  188.5340  177.8110  143.1910 C   0  0  0  0  0  2  0  0  0  0  0  0
  190.2290  177.0360  147.4060 C   0  0  0  0  0  3  0  0  0  0  0  0
  189.6220  177.1780  143.6320 C   0  0  0  0  0  0  0  0  0  0  0  0
  191.4140  176.4160  147.3070 C   0  0  0  0  0  3  0  0  0  0  0  0
  191.5190  175.8040  143.6750 N   0  0  0  0  0  2  0  0  0  0  0  0
  190.2670  177.4580  144.9530 C   0  0  1  0  0  3  0  0  0  0  0  0
  191.0740  176.9810  141.5970 C   0  0  0  0  0  2  0  0  0  0  0  0
  190.7470  176.3260  140.4100 O   0  0  0  0  0  0  0  0  0  0  0  0
  190.6960  177.3370  139.4530 C   0  0  0  0  0  2  0  0  0  0  0  0
  189.3310  177.9880  139.4900 C   0  0  0  0  0  2  0  0  0  0  0  0
  188.6660  177.8650  138.1360 C   0  0  0  0  0  2  0  0  0  0  0  0
  187.6150  176.9510  138.2240 O   0  0  0  0  0  0  0  0  0  0  0  0
  186.6260  177.4660  137.3820 C   0  0  0  0  0  2  0  0  0  0  0  0
  184.3660  179.9590  139.1860 N   0  0  0  0  0  1  0  0  0  0  0  0
  186.0850  178.6920  137.9540 N   0  0  0  0  0  2  0  0  0  0  0  0
  184.8330  178.7310  138.6410 C   0  0  0  0  0  0  0  0  0  0  0  0
  184.1390  177.6870  138.7690 O   0  0  0  0  0  0  0  0  0  0  0  0
  188.4720  178.3370  146.3710 N   0  0  0  0  0  2  0  0  0  0  0  0
  186.0060  178.2090  145.5440 C   0  0  0  0  0  0  0  0  0  0  0  0
  187.1460  178.2670  145.9270 C   0  0  0  0  0  0  0  0  0  0  0  0
  184.6190  178.1400  145.0760 C   0  0  0  0  0  2  0  0  0  0  0  0
  184.3320  179.2840  144.1180 C   0  0  2  0  0  3  0  0  0  0  0  0
  182.9620  179.5640  144.0980 O   0  0  0  0  0  1  0  0  0  0  0  0
  184.8030  178.9350  142.7460 C   0  0  0  0  0  0  0  0  0  0  0  0
  184.3780  177.8990  142.1660 O   0  0  0  0  0  1  0  0  0  0  0  0
  185.7340  179.7460  142.1130 O   0  0  0  0  0  0  0  0  0  0  0  0
  1 11  1  6  0  0  0
  1  7  1  0  0  0  0
  1  9  1  0  0  0  0
  2 22  1  1  0  0  0
  2  6  1  0  0  0  0
  3  8  1  0  0  0  0
  4 10  1  0  0  0  0
  4  3  2  0  0  0  0
  5  7  2  0  0  0  0
  8  6  2  0  0  0  0
  9  4  1  0  0  0  0
 10  7  1  6  0  0  0
 10  2  1  0  0  0  0
 12 11  1  0  0  0  0
 13 14  1  0  0  0  0
 13 12  1  0  0  0  0
 15 16  1  0  0  0  0
 15 14  1  0  0  0  0
 17 19  1  0  0  0  0
 17 16  1  0  0  0  0
 19 20  1  0  0  0  0
 20 21  2  0  0  0  0
 20 18  1  0  0  0  0
 23 24  3  0  0  0  0
 24 22  1  0  0  0  0
 25 23  1  0  0  0  0
 26 27  1  6  0  0  0
 26 25  1  0  0  0  0
 28 26  1  0  0  0  0
 29 28  1  0  0  0  0
 30 28  2  0  0  0  0
M  END
>  <MODEL>
4

>  <REMARK>
 VINA RESULT:      -6.9      1.933      5.970
  Name = 
  13 active torsions:
  status: ('A' for Active; 'I' for Inactive)
    1  A    between atoms: C_1  and  C_8
    2  A    between atoms: C_2  and  C_24
    3  A    between atoms: C_3  and  N_30
    4  A    between atoms: O_5  and  C_20
    5  A    between atoms: O_5  and  C_26
    6  A    between atoms: C_7  and  C_8
    7  A    between atoms: C_7  and  C_11
    8  A    between atoms: N_9  and  C_26
    9  A    between atoms: C_20  and  C_21
   10  A    between atoms: C_21  and  C_25
   11  A    between atoms: C_24  and  O_27
   12  A    between atoms: C_25  and  O_27
   13  A    between atoms: C_29  and  N_30
                            x       y       z     vdW  Elec       q    Type
                         _______ _______ _______ _____ _____    ______ ____

>  <TORSDO>
F 13

$$$$
=
 OpenBabel10222417413D

 30 31  0  0  1  0  0  0  0  0999 V2000
  188.3510  178.4050  140.8850 C   0  0  2  0  0  3  0  0  0  0  0  0
  186.6040  178.1820  144.1270 C   0  0  2  0  0  3  0  0  0  0  0  0
  185.1640  179.4380  142.0650 N   0  0  0  0  0  0  0  0  0  0  0  0
  186.2090  178.7280  141.7570 C   0  0  0  0  0  0  0  0  0  0  0  0
  189.1400  176.9120  142.7420 C   0  0  0  0  0  2  0  0  0  0  0  0
  185.1850  178.6550  144.3410 C   0  0  0  0  0  3  0  0  0  0  0  0
  188.1860  177.6610  142.1880 C   0  0  0  0  0  0  0  0  0  0  0  0
  184.5340  179.2760  143.3470 C   0  0  0  0  0  3  0  0  0  0  0  0
  187.0720  179.0710  140.6850 N   0  0  0  0  0  2  0  0  0  0  0  0
  186.7730  177.7010  142.6780 C   0  0  1  0  0  3  0  0  0  0  0  0
  188.6050  177.4500  139.7250 C   0  0  0  0  0  2  0  0  0  0  0  0
  189.8250  177.7490  139.1170 O   0  0  0  0  0  0  0  0  0  0  0  0
  190.6220  176.6330  139.3570 C   0  0  0  0  0  2  0  0  0  0  0  0
  192.0010  177.0880  139.7790 C   0  0  0  0  0  2  0  0  0  0  0  0
  193.0080  176.7390  138.7030 C   0  0  0  0  0  2  0  0  0  0  0  0
  192.4370  175.8170  137.8240 O   0  0  0  0  0  0  0  0  0  0  0  0
  193.3140  174.7300  137.8310 C   0  0  0  0  0  2  0  0  0  0  0  0
  196.8970  174.8010  139.1480 N   0  0  0  0  0  1  0  0  0  0  0  0
  194.6470  175.1780  138.2150 N   0  0  0  0  0  2  0  0  0  0  0  0
  195.6090  174.3040  138.8060 C   0  0  0  0  0  0  0  0  0  0  0  0
  195.3280  173.0960  139.0270 O   0  0  0  0  0  0  0  0  0  0  0  0
  186.8970  177.1010  145.0500 N   0  0  0  0  0  2  0  0  0  0  0  0
  188.9470  177.2570  146.6500 C   0  0  0  0  0  0  0  0  0  0  0  0
  188.0000  177.1860  145.9090 C   0  0  0  0  0  0  0  0  0  0  0  0
  190.1000  177.3410  147.5510 C   0  0  0  0  0  2  0  0  0  0  0  0
  191.1890  176.3830  147.0980 C   0  0  2  0  0  3  0  0  0  0  0  0
  192.2880  176.4620  147.9580 O   0  0  0  0  0  1  0  0  0  0  0  0
  191.6070  176.7040  145.7020 C   0  0  0  0  0  0  0  0  0  0  0  0
  191.7680  175.7860  144.8530 O   0  0  0  0  0  0  0  0  0  0  0  0
  191.8420  178.0240  145.3430 O   0  0  0  0  0  1  0  0  0  0  0  0
  1 11  1  6  0  0  0
  1  7  1  0  0  0  0
  2  6  1  0  0  0  0
  2 22  1  1  0  0  0
  3  8  1  0  0  0  0
  4  3  2  0  0  0  0
  7 10  1  0  0  0  0
  7  5  2  0  0  0  0
  8  6  2  0  0  0  0
  9  1  1  0  0  0  0
  9  4  1  0  0  0  0
 10  4  1  6  0  0  0
 10  2  1  0  0  0  0
 12 13  1  0  0  0  0
 12 11  1  0  0  0  0
 13 14  1  0  0  0  0
 15 14  1  0  0  0  0
 16 17  1  0  0  0  0
 16 15  1  0  0  0  0
 17 19  1  0  0  0  0
 19 20  1  0  0  0  0
 20 21  2  0  0  0  0
 20 18  1  0  0  0  0
 22 24  1  0  0  0  0
 23 25  1  0  0  0  0
 24 23  3  0  0  0  0
 26 25  1  0  0  0  0
 26 27  1  1  0  0  0
 28 26  1  0  0  0  0
 29 28  2  0  0  0  0
 30 28  1  0  0  0  0
M  END
>  <MODEL>
5

>  <REMARK>
 VINA RESULT:      -6.8      4.097      8.112
  Name = 
  13 active torsions:
  status: ('A' for Active; 'I' for Inactive)
    1  A    between atoms: C_1  and  C_8
    2  A    between atoms: C_2  and  C_24
    3  A    between atoms: C_3  and  N_30
    4  A    between atoms: O_5  and  C_20
    5  A    between atoms: O_5  and  C_26
    6  A    between atoms: C_7  and  C_8
    7  A    between atoms: C_7  and  C_11
    8  A    between atoms: N_9  and  C_26
    9  A    between atoms: C_20  and  C_21
   10  A    between atoms: C_21  and  C_25
   11  A    between atoms: C_24  and  O_27
   12  A    between atoms: C_25  and  O_27
   13  A    between atoms: C_29  and  N_30
                            x       y       z     vdW  Elec       q    Type
                         _______ _______ _______ _____ _____    ______ ____

>  <TORSDO>
F 13

$$$$
=
 OpenBabel10222417413D

 30 31  0  0  1  0  0  0  0  0999 V2000
  186.7500  178.9810  141.4230 C   0  0  2  0  0  3  0  0  0  0  0  0
  186.0540  178.2610  144.9730 C   0  0  2  0  0  3  0  0  0  0  0  0
  184.0200  179.6300  143.6010 N   0  0  0  0  0  0  0  0  0  0  0  0
  184.9520  179.0410  142.9130 C   0  0  0  0  0  0  0  0  0  0  0  0
  188.1120  177.3500  142.7590 C   0  0  0  0  0  2  0  0  0  0  0  0
  184.7460  178.5980  145.6500 C   0  0  0  0  0  3  0  0  0  0  0  0
  187.0080  178.0840  142.6090 C   0  0  0  0  0  0  0  0  0  0  0  0
  183.8050  179.2770  144.9770 C   0  0  0  0  0  3  0  0  0  0  0  0
  185.4450  179.5680  141.6910 N   0  0  0  0  0  2  0  0  0  0  0  0
  185.8040  177.9620  143.4880 C   0  0  1  0  0  3  0  0  0  0  0  0
  186.6850  178.1860  140.1240 C   0  0  0  0  0  2  0  0  0  0  0  0
  187.6700  178.6290  139.2410 O   0  0  0  0  0  0  0  0  0  0  0  0
  187.6200  177.7310  138.1780 C   0  0  0  0  0  2  0  0  0  0  0  0
  188.6640  178.1150  137.1540 C   0  0  0  0  0  2  0  0  0  0  0  0
  189.4770  176.8960  136.7690 C   0  0  0  0  0  2  0  0  0  0  0  0
  189.7780  176.1650  137.9190 O   0  0  0  0  0  0  0  0  0  0  0  0
  190.9400  176.7550  138.4220 C   0  0  0  0  0  2  0  0  0  0  0  0
  191.6720  177.5920  142.0740 N   0  0  0  0  0  1  0  0  0  0  0  0
  190.7900  176.9910  139.8520 N   0  0  0  0  0  2  0  0  0  0  0  0
  191.8870  177.3660  140.6860 C   0  0  0  0  0  0  0  0  0  0  0  0
  193.0430  177.4990  140.2040 O   0  0  0  0  0  0  0  0  0  0  0  0
  186.6500  177.1070  145.6220 N   0  0  0  0  0  2  0  0  0  0  0  0
  188.8660  177.3550  146.9690 C   0  0  0  0  0  0  0  0  0  0  0  0
  187.8410  177.2410  146.3470 C   0  0  0  0  0  0  0  0  0  0  0  0
  190.1140  177.4950  147.7230 C   0  0  0  0  0  2  0  0  0  0  0  0
  191.1310  176.4700  147.2490 C   0  0  2  0  0  3  0  0  0  0  0  0
  192.2570  176.4910  148.0770 O   0  0  0  0  0  1  0  0  0  0  0  0
  191.5270  176.7540  145.8390 C   0  0  0  0  0  0  0  0  0  0  0  0
  191.6900  177.9400  145.4450 O   0  0  0  0  0  1  0  0  0  0  0  0
  191.6930  175.7030  144.9480 O   0  0  0  0  0  0  0  0  0  0  0  0
  1 11  1  6  0  0  0
  1  9  1  0  0  0  0
  1  7  1  0  0  0  0
  2 22  1  1  0  0  0
  2  6  1  0  0  0  0
  3  8  1  0  0  0  0
  4 10  1  0  0  0  0
  4  3  2  0  0  0  0
  7  5  2  0  0  0  0
  8  6  2  0  0  0  0
  9  4  1  0  0  0  0
 10  7  1  6  0  0  0
 10  2  1  0  0  0  0
 12 11  1  0  0  0  0
 13 12  1  0  0  0  0
 14 13  1  0  0  0  0
 15 14  1  0  0  0  0
 15 16  1  0  0  0  0
 16 17  1  0  0  0  0
 17 19  1  0  0  0  0
 19 20  1  0  0  0  0
 20 18  1  0  0  0  0
 21 20  2  0  0  0  0
 22 24  1  0  0  0  0
 23 25  1  0  0  0  0
 24 23  3  0  0  0  0
 26 25  1  0  0  0  0
 26 27  1  1  0  0  0
 28 26  1  0  0  0  0
 29 28  1  0  0  0  0
 30 28  2  0  0  0  0
M  END
>  <MODEL>
6

>  <REMARK>
 VINA RESULT:      -6.7      3.167      6.593
  Name = 
  13 active torsions:
  status: ('A' for Active; 'I' for Inactive)
    1  A    between atoms: C_1  and  C_8
    2  A    between atoms: C_2  and  C_24
    3  A    between atoms: C_3  and  N_30
    4  A    between atoms: O_5  and  C_20
    5  A    between atoms: O_5  and  C_26
    6  A    between atoms: C_7  and  C_8
    7  A    between atoms: C_7  and  C_11
    8  A    between atoms: N_9  and  C_26
    9  A    between atoms: C_20  and  C_21
   10  A    between atoms: C_21  and  C_25
   11  A    between atoms: C_24  and  O_27
   12  A    between atoms: C_25  and  O_27
   13  A    between atoms: C_29  and  N_30
                            x       y       z     vdW  Elec       q    Type
                         _______ _______ _______ _____ _____    ______ ____

>  <TORSDO>
F 13

$$$$
=
 OpenBabel10222417413D

 30 31  0  0  1  0  0  0  0  0999 V2000
  187.6270  176.8750  143.0530 C   0  0  2  0  0  3  0  0  0  0  0  0
  185.2950  178.5000  145.4030 C   0  0  2  0  0  3  0  0  0  0  0  0
  187.6590  177.5030  146.5480 N   0  0  0  0  0  0  0  0  0  0  0  0
  187.6000  177.6450  145.2570 C   0  0  0  0  0  0  0  0  0  0  0  0
  185.7090  178.2980  142.2800 C   0  0  0  0  0  2  0  0  0  0  0  0
  185.5960  178.6990  146.8700 C   0  0  0  0  0  3  0  0  0  0  0  0
  186.5310  177.8930  143.2500 C   0  0  0  0  0  0  0  0  0  0  0  0
  186.7190  178.1870  147.3930 C   0  0  0  0  0  3  0  0  0  0  0  0
  188.2480  176.7520  144.3640 N   0  0  0  0  0  2  0  0  0  0  0  0
  186.6020  178.5350  144.5990 C   0  0  1  0  0  3  0  0  0  0  0  0
  188.6670  177.3610  142.0500 C   0  0  0  0  0  2  0  0  0  0  0  0
  189.6620  176.3960  141.8870 O   0  0  0  0  0  0  0  0  0  0  0  0
  190.5110  176.9260  140.9180 C   0  0  0  0  0  2  0  0  0  0  0  0
  191.7370  177.5000  141.5910 C   0  0  0  0  0  2  0  0  0  0  0  0
  191.6680  177.2500  143.0830 C   0  0  0  0  0  2  0  0  0  0  0  0
  191.6520  178.4740  143.7520 O   0  0  0  0  0  0  0  0  0  0  0  0
  191.2340  178.1650  145.0480 C   0  0  0  0  0  2  0  0  0  0  0  0
  192.4550  175.2630  147.2080 N   0  0  0  0  0  1  0  0  0  0  0  0
  191.9980  177.0300  145.5520 N   0  0  0  0  0  2  0  0  0  0  0  0
  191.6760  176.3730  146.7780 C   0  0  0  0  0  0  0  0  0  0  0  0
  190.7080  176.7660  147.4820 O   0  0  0  0  0  0  0  0  0  0  0  0
  184.3990  179.5490  144.9480 N   0  0  0  0  0  2  0  0  0  0  0  0
  182.0540  178.9480  143.9870 C   0  0  0  0  0  0  0  0  0  0  0  0
  183.1390  179.2260  144.4300 C   0  0  0  0  0  0  0  0  0  0  0  0
  180.7330  178.6110  143.4500 C   0  0  0  0  0  2  0  0  0  0  0  0
  180.4710  179.3930  142.1740 C   0  0  2  0  0  3  0  0  0  0  0  0
  180.0300  180.6830  142.4820 O   0  0  0  0  0  1  0  0  0  0  0  0
  179.4540  178.6890  141.3400 C   0  0  0  0  0  0  0  0  0  0  0  0
  179.0080  179.2210  140.2880 O   0  0  0  0  0  0  0  0  0  0  0  0
  178.9790  177.4480  141.7400 O   0  0  0  0  0  1  0  0  0  0  0  0
  1 11  1  6  0  0  0
  1  7  1  0  0  0  0
  1  9  1  0  0  0  0
  2 22  1  6  0  0  0
  2  6  1  0  0  0  0
  3  8  1  0  0  0  0
  4  3  2  0  0  0  0
  5  7  2  0  0  0  0
  6  8  2  0  0  0  0
  9  4  1  0  0  0  0
 10  7  1  6  0  0  0
 10  4  1  0  0  0  0
 10  2  1  0  0  0  0
 12 11  1  0  0  0  0
 13 14  1  0  0  0  0
 13 12  1  0  0  0  0
 14 15  1  0  0  0  0
 15 16  1  0  0  0  0
 16 17  1  0  0  0  0
 17 19  1  0  0  0  0
 19 20  1  0  0  0  0
 20 18  1  0  0  0  0
 20 21  2  0  0  0  0
 23 24  3  0  0  0  0
 24 22  1  0  0  0  0
 25 23  1  0  0  0  0
 26 27  1  1  0  0  0
 26 25  1  0  0  0  0
 28 30  1  0  0  0  0
 28 26  1  0  0  0  0
 29 28  2  0  0  0  0
M  END
>  <MODEL>
7

>  <REMARK>
 VINA RESULT:      -6.6      2.886      8.252
  Name = 
  13 active torsions:
  status: ('A' for Active; 'I' for Inactive)
    1  A    between atoms: C_1  and  C_8
    2  A    between atoms: C_2  and  C_24
    3  A    between atoms: C_3  and  N_30
    4  A    between atoms: O_5  and  C_20
    5  A    between atoms: O_5  and  C_26
    6  A    between atoms: C_7  and  C_8
    7  A    between atoms: C_7  and  C_11
    8  A    between atoms: N_9  and  C_26
    9  A    between atoms: C_20  and  C_21
   10  A    between atoms: C_21  and  C_25
   11  A    between atoms: C_24  and  O_27
   12  A    between atoms: C_25  and  O_27
   13  A    between atoms: C_29  and  N_30
                            x       y       z     vdW  Elec       q    Type
                         _______ _______ _______ _____ _____    ______ ____

>  <TORSDO>
F 13

$$$$
=
 OpenBabel10222417413D

 30 31  0  0  1  0  0  0  0  0999 V2000
  187.9460  177.1860  145.3020 C   0  0  2  0  0  3  0  0  0  0  0  0
  184.7640  178.0510  143.6480 C   0  0  2  0  0  3  0  0  0  0  0  0
  184.9000  178.6540  146.3900 N   0  0  0  0  0  0  0  0  0  0  0  0
  186.0030  178.4020  145.7490 C   0  0  0  0  0  0  0  0  0  0  0  0
  187.7000  177.2530  142.8050 C   0  0  0  0  0  2  0  0  0  0  0  0
  183.6250  178.7510  144.3510 C   0  0  0  0  0  3  0  0  0  0  0  0
  187.2460  177.5640  144.0200 C   0  0  0  0  0  0  0  0  0  0  0  0
  183.7070  179.0000  145.6660 C   0  0  0  0  0  3  0  0  0  0  0  0
  187.0960  177.7290  146.3520 N   0  0  0  0  0  2  0  0  0  0  0  0
  186.0990  178.4940  144.2650 C   0  0  1  0  0  3  0  0  0  0  0  0
  189.3270  177.8250  145.3950 C   0  0  0  0  0  2  0  0  0  0  0  0
  190.3120  176.8380  145.3950 O   0  0  0  0  0  0  0  0  0  0  0  0
  191.2920  177.3180  144.5300 C   0  0  0  0  0  2  0  0  0  0  0  0
  191.3060  176.4720  143.2770 C   0  0  0  0  0  2  0  0  0  0  0  0
  191.1760  177.3600  142.0570 C   0  0  0  0  0  2  0  0  0  0  0  0
  190.6100  176.6240  141.0140 O   0  0  0  0  0  0  0  0  0  0  0  0
  190.6450  177.4840  139.9130 C   0  0  0  0  0  2  0  0  0  0  0  0
  187.1010  178.5830  139.0160 N   0  0  0  0  0  1  0  0  0  0  0  0
  189.3980  178.2350  139.8390 N   0  0  0  0  0  2  0  0  0  0  0  0
  188.2950  177.8110  139.0370 C   0  0  0  0  0  0  0  0  0  0  0  0
  188.3690  176.7580  138.3480 O   0  0  0  0  0  0  0  0  0  0  0  0
  184.7330  178.3780  142.2340 N   0  0  0  0  0  2  0  0  0  0  0  0
  182.5180  178.1530  140.8820 C   0  0  0  0  0  0  0  0  0  0  0  0
  183.5420  178.2560  141.5070 C   0  0  0  0  0  0  0  0  0  0  0  0
  181.2720  178.0300  140.1210 C   0  0  0  0  0  2  0  0  0  0  0  0
  180.3000  179.1240  140.5280 C   0  0  2  0  0  3  0  0  0  0  0  0
  180.8000  180.3760  140.1560 O   0  0  0  0  0  1  0  0  0  0  0  0
  180.0680  179.0830  142.0010 C   0  0  0  0  0  0  0  0  0  0  0  0
  180.3920  180.0590  142.7290 O   0  0  0  0  0  1  0  0  0  0  0  0
  179.5110  177.9490  142.5760 O   0  0  0  0  0  0  0  0  0  0  0  0
  1 11  1  6  0  0  0
  1  9  1  0  0  0  0
  2 22  1  6  0  0  0
  2 10  1  0  0  0  0
  2  6  1  0  0  0  0
  4  9  1  0  0  0  0
  4  3  2  0  0  0  0
  5  7  2  0  0  0  0
  6  8  2  0  0  0  0
  7  1  1  0  0  0  0
  8  3  1  0  0  0  0
 10  7  1  6  0  0  0
 10  4  1  0  0  0  0
 12 11  1  0  0  0  0
 13 12  1  0  0  0  0
 14 13  1  0  0  0  0
 15 14  1  0  0  0  0
 16 15  1  0  0  0  0
 17 16  1  0  0  0  0
 18 20  1  0  0  0  0
 19 17  1  0  0  0  0
 20 19  1  0  0  0  0
 21 20  2  0  0  0  0
 23 24  3  0  0  0  0
 24 22  1  0  0  0  0
 25 26  1  0  0  0  0
 25 23  1  0  0  0  0
 26 27  1  1  0  0  0
 26 28  1  0  0  0  0
 28 30  2  0  0  0  0
 28 29  1  0  0  0  0
M  END
>  <MODEL>
8

>  <REMARK>
 VINA RESULT:      -6.6      2.231      7.081
  Name = 
  13 active torsions:
  status: ('A' for Active; 'I' for Inactive)
    1  A    between atoms: C_1  and  C_8
    2  A    between atoms: C_2  and  C_24
    3  A    between atoms: C_3  and  N_30
    4  A    between atoms: O_5  and  C_20
    5  A    between atoms: O_5  and  C_26
    6  A    between atoms: C_7  and  C_8
    7  A    between atoms: C_7  and  C_11
    8  A    between atoms: N_9  and  C_26
    9  A    between atoms: C_20  and  C_21
   10  A    between atoms: C_21  and  C_25
   11  A    between atoms: C_24  and  O_27
   12  A    between atoms: C_25  and  O_27
   13  A    between atoms: C_29  and  N_30
                            x       y       z     vdW  Elec       q    Type
                         _______ _______ _______ _____ _____    ______ ____

>  <TORSDO>
F 13

$$$$
=
 OpenBabel10222417413D

 30 31  0  0  1  0  0  0  0  0999 V2000
  186.6770  177.3990  145.7530 C   0  0  2  0  0  3  0  0  0  0  0  0
  184.5100  178.3390  142.9190 C   0  0  2  0  0  3  0  0  0  0  0  0
  183.5190  178.9990  145.4640 N   0  0  0  0  0  0  0  0  0  0  0  0
  184.7770  178.6930  145.3420 C   0  0  0  0  0  0  0  0  0  0  0  0
  187.4950  177.4180  143.3790 C   0  0  0  0  0  2  0  0  0  0  0  0
  183.2120  179.0950  143.0790 C   0  0  0  0  0  3  0  0  0  0  0  0
  186.5900  177.7730  144.2930 C   0  0  0  0  0  0  0  0  0  0  0  0
  182.7510  179.3710  144.3070 C   0  0  0  0  0  3  0  0  0  0  0  0
  185.4910  177.9960  146.3500 N   0  0  0  0  0  2  0  0  0  0  0  0
  185.4850  178.7480  144.0320 C   0  0  1  0  0  3  0  0  0  0  0  0
  187.9200  177.9910  146.4080 C   0  0  0  0  0  2  0  0  0  0  0  0
  187.8020  177.9320  147.7970 O   0  0  0  0  0  0  0  0  0  0  0  0
  189.1110  177.8040  148.2560 C   0  0  0  0  0  2  0  0  0  0  0  0
  189.8700  176.8720  147.3380 C   0  0  0  0  0  2  0  0  0  0  0  0
  191.3580  177.0120  147.5830 C   0  0  0  0  0  2  0  0  0  0  0  0
  192.0430  176.7570  146.3930 O   0  0  0  0  0  0  0  0  0  0  0  0
  191.0530  176.7540  145.4070 C   0  0  0  0  0  2  0  0  0  0  0  0
  191.8100  177.4500  141.7300 N   0  0  0  0  0  1  0  0  0  0  0  0
  191.5790  177.3430  144.1820 N   0  0  0  0  0  2  0  0  0  0  0  0
  191.2730  176.8220  142.8880 C   0  0  0  0  0  0  0  0  0  0  0  0
  190.5290  175.8130  142.7630 O   0  0  0  0  0  0  0  0  0  0  0  0
  185.0840  178.6350  141.6180 N   0  0  0  0  0  2  0  0  0  0  0  0
  183.5740  178.6960  139.4970 C   0  0  0  0  0  0  0  0  0  0  0  0
  184.2710  178.6670  140.4780 C   0  0  0  0  0  0  0  0  0  0  0  0
  182.7270  178.7280  138.3010 C   0  0  0  0  0  2  0  0  0  0  0  0
  181.5760  179.7000  138.5010 C   0  0  2  0  0  3  0  0  0  0  0  0
  182.0690  180.9860  138.7440 O   0  0  0  0  0  1  0  0  0  0  0  0
  180.7210  179.2550  139.6410 C   0  0  0  0  0  0  0  0  0  0  0  0
  180.1430  178.1360  139.6090 O   0  0  0  0  0  0  0  0  0  0  0  0
  180.5440  180.0930  140.7330 O   0  0  0  0  0  1  0  0  0  0  0  0
  1  9  1  0  0  0  0
  1 11  1  1  0  0  0
  2 22  1  6  0  0  0
  2  6  1  0  0  0  0
  2 10  1  0  0  0  0
  4  3  2  0  0  0  0
  4  9  1  0  0  0  0
  5  7  2  0  0  0  0
  6  8  2  0  0  0  0
  7  1  1  0  0  0  0
  8  3  1  0  0  0  0
 10  7  1  1  0  0  0
 10  4  1  0  0  0  0
 11 12  1  0  0  0  0
 12 13  1  0  0  0  0
 14 15  1  0  0  0  0
 14 13  1  0  0  0  0
 16 15  1  0  0  0  0
 17 16  1  0  0  0  0
 18 20  1  0  0  0  0
 19 17  1  0  0  0  0
 20 19  1  0  0  0  0
 21 20  2  0  0  0  0
 23 24  3  0  0  0  0
 24 22  1  0  0  0  0
 25 26  1  0  0  0  0
 25 23  1  0  0  0  0
 26 27  1  1  0  0  0
 26 28  1  0  0  0  0
 28 30  1  0  0  0  0
 29 28  2  0  0  0  0
M  END
>  <MODEL>
9

>  <REMARK>
 VINA RESULT:      -6.6      2.704      7.537
  Name = 
  13 active torsions:
  status: ('A' for Active; 'I' for Inactive)
    1  A    between atoms: C_1  and  C_8
    2  A    between atoms: C_2  and  C_24
    3  A    between atoms: C_3  and  N_30
    4  A    between atoms: O_5  and  C_20
    5  A    between atoms: O_5  and  C_26
    6  A    between atoms: C_7  and  C_8
    7  A    between atoms: C_7  and  C_11
    8  A    between atoms: N_9  and  C_26
    9  A    between atoms: C_20  and  C_21
   10  A    between atoms: C_21  and  C_25
   11  A    between atoms: C_24  and  O_27
   12  A    between atoms: C_25  and  O_27
   13  A    between atoms: C_29  and  N_30
                            x       y       z     vdW  Elec       q    Type
                         _______ _______ _______ _____ _____    ______ ____

>  <TORSDO>
F 13

$$$$
