=
 OpenBabel10222416243D

 38 40  0  0  1  0  0  0  0  0999 V2000
  189.8640  177.0340  140.7360 C   0  0  0  0  0  0  0  0  0  0  0  0
  190.8130  176.5570  139.9150 C   0  0  0  0  0  3  0  0  0  0  0  0
  190.0910  177.0980  142.2030 C   0  0  0  0  0  0  0  0  0  0  0  0
  189.3220  177.4700  144.4960 C   0  0  0  0  0  0  0  0  0  0  0  0
  191.5170  177.0020  142.7280 C   0  0  0  0  0  3  0  0  0  0  0  0
  191.6600  176.9780  144.2450 C   0  0  0  0  0  3  0  0  0  0  0  0
  189.1000  177.3390  143.0800 C   0  0  0  0  0  0  0  0  0  0  0  0
  187.7330  177.5870  142.7950 N   0  0  0  0  0  0  0  0  0  0  0  0
  190.6500  177.2280  145.0890 C   0  0  0  0  0  0  0  0  0  0  0  0
  188.1630  177.7670  145.0650 C   0  0  0  0  0  2  0  0  0  0  0  0
  187.1930  177.8280  143.9510 C   0  0  0  0  0  0  0  0  0  0  0  0
  185.2460  178.4670  145.3730 C   0  0  0  0  0  3  0  0  0  0  0  0
  183.0940  178.9700  144.3810 C   0  0  0  0  0  3  0  0  0  0  0  0
  183.9120  178.8590  145.5100 C   0  0  0  0  0  3  0  0  0  0  0  0
  183.6060  178.6730  143.1150 C   0  0  0  0  0  3  0  0  0  0  0  0
  185.7740  178.1910  144.1030 C   0  0  0  0  0  0  0  0  0  0  0  0
  184.9440  178.2880  142.9760 C   0  0  0  0  0  3  0  0  0  0  0  0
  191.6290  176.1940  147.1330 C   0  0  0  0  0  1  0  0  0  0  0  0
  190.9040  177.2200  146.4680 O   0  0  0  0  0  0  0  0  0  0  0  0
  188.5800  177.5690  140.1760 C   0  0  0  0  0  2  0  0  0  0  0  0
  188.8290  178.6850  139.3800 O   0  0  0  0  0  0  0  0  0  0  0  0
  187.7670  178.7430  138.5380 N   0  0  0  0  0  2  0  0  0  0  0  0
  188.2290  179.3170  137.3450 N   0  0  0  0  0  2  0  0  0  0  0  0
  187.4870  178.6820  136.2650 C   0  0  0  0  0  2  0  0  0  0  0  0
  188.2340  177.4900  135.7690 C   0  0  0  0  0  3  0  0  0  0  0  0
  189.3880  177.6040  135.3880 O   0  0  0  0  0  0  0  0  0  0  0  0
  190.6610  176.4610  138.4310 C   0  0  0  0  0  2  0  0  0  0  0  0
  192.0290  176.5110  137.7730 C   0  0  0  0  0  2  0  0  0  0  0  0
  191.9860  175.7830  136.5190 N   0  0  0  0  0  2  0  0  0  0  0  0
  193.1550  174.9190  136.4950 C   0  0  0  0  0  2  0  0  0  0  0  0
  193.7920  174.8880  137.8750 C   0  0  0  0  0  2  0  0  0  0  0  0
  196.2000  174.2900  138.3510 C   0  0  0  0  0  0  0  0  0  0  0  0
  195.2180  175.1540  137.7710 N   0  0  0  0  0  2  0  0  0  0  0  0
  195.8490  173.3000  139.0470 O   0  0  0  0  0  0  0  0  0  0  0  0
  197.8450  175.5200  137.1540 O   0  0  0  0  0  1  0  0  0  0  0  0
  197.6560  174.5660  138.1550 C   0  0  1  0  0  3  0  0  0  0  0  0
  197.5230  175.9010  140.1550 O   0  0  0  0  0  1  0  0  0  0  0  0
  198.3300  175.0030  139.4520 C   0  0  0  0  0  2  0  0  0  0  0  0
  1  3  1  0  0  0  0
  2  1  2  0  0  0  0
  3  5  2  0  0  0  0
  3  7  1  0  0  0  0
  4 10  1  0  0  0  0
  4  9  1  0  0  0  0
  5  6  1  0  0  0  0
  6  9  2  0  0  0  0
  7  4  2  0  0  0  0
  8  7  1  0  0  0  0
  8 11  2  0  0  0  0
  9 19  1  0  0  0  0
 11 16  1  0  0  0  0
 11 10  1  0  0  0  0
 12 14  1  0  0  0  0
 13 14  2  0  0  0  0
 15 13  1  0  0  0  0
 16 12  2  0  0  0  0
 17 15  2  0  0  0  0
 17 16  1  0  0  0  0
 19 18  1  0  0  0  0
 20  1  1  0  0  0  0
 21 20  1  0  0  0  0
 22 21  1  0  0  0  0
 23 22  1  0  0  0  0
 24 23  1  0  0  0  0
 25 24  1  0  0  0  0
 26 25  2  0  0  0  0
 27  2  1  0  0  0  0
 28 27  1  0  0  0  0
 29 28  1  0  0  0  0
 30 29  1  0  0  0  0
 30 31  1  0  0  0  0
 32 34  2  0  0  0  0
 33 31  1  0  0  0  0
 33 32  1  0  0  0  0
 36 35  1  6  0  0  0
 36 32  1  0  0  0  0
 36 38  1  0  0  0  0
 38 37  1  0  0  0  0
M  END
>  <MODEL>
1

>  <REMARK>
 VINA RESULT:      -8.1      0.000      0.000
  Name = 
  17 active torsions:
  status: ('A' for Active; 'I' for Inactive)
    1  A    between atoms: C_1  and  C_11
    2  A    between atoms: C_3  and  C_38
    3  A    between atoms: N_4  and  C_23
    4  A    between atoms: C_5  and  C_6
    5  A    between atoms: C_5  and  N_7
    6  A    between atoms: C_6  and  C_21
    7  A    between atoms: N_7  and  C_31
    8  A    between atoms: C_11  and  C_27
    9  A    between atoms: N_18  and  N_20
   10  A    between atoms: N_18  and  O_36
   11  A    between atoms: C_19  and  C_32
   12  A    between atoms: N_20  and  C_32
   13  A    between atoms: C_23  and  C_31
   14  A    between atoms: C_24  and  C_38
   15  A    between atoms: O_26  and  C_28
   16  A    between atoms: C_27  and  O_36
   17  A    between atoms: C_30  and  C_35
                            x       y       z     vdW  Elec       q    Type
                         _______ _______ _______ _____ _____    ______ ____

>  <TORSDO>
F 17

$$$$
=
 OpenBabel10222416243D

 38 40  0  0  1  0  0  0  0  0999 V2000
  190.0270  177.6010  140.8080 C   0  0  0  0  0  0  0  0  0  0  0  0
  188.9410  178.1570  140.2490 C   0  0  0  0  0  3  0  0  0  0  0  0
  190.1470  177.4830  142.2840 C   0  0  0  0  0  0  0  0  0  0  0  0
  189.2110  177.5590  144.5430 C   0  0  0  0  0  0  0  0  0  0  0  0
  191.5340  177.3310  142.8950 C   0  0  0  0  0  3  0  0  0  0  0  0
  191.5680  177.1180  144.4040 C   0  0  0  0  0  3  0  0  0  0  0  0
  189.0930  177.6040  143.1090 C   0  0  0  0  0  0  0  0  0  0  0  0
  187.7460  177.8770  142.7580 N   0  0  0  0  0  0  0  0  0  0  0  0
  190.4970  177.2540  145.1970 C   0  0  0  0  0  0  0  0  0  0  0  0
  188.0090  177.7740  145.0580 C   0  0  0  0  0  2  0  0  0  0  0  0
  187.1210  177.9680  143.8930 C   0  0  0  0  0  0  0  0  0  0  0  0
  184.8890  178.3040  142.8340 C   0  0  0  0  0  3  0  0  0  0  0  0
  182.9440  178.8440  144.1740 C   0  0  0  0  0  3  0  0  0  0  0  0
  183.5210  178.5710  142.9290 C   0  0  0  0  0  3  0  0  0  0  0  0
  183.7400  178.8670  145.3220 C   0  0  0  0  0  3  0  0  0  0  0  0
  185.6890  178.3000  143.9850 C   0  0  0  0  0  0  0  0  0  0  0  0
  185.1090  178.5910  145.2290 C   0  0  0  0  0  3  0  0  0  0  0  0
  191.6410  176.2370  147.1620 C   0  0  0  0  0  1  0  0  0  0  0  0
  190.6520  177.0750  146.5790 O   0  0  0  0  0  0  0  0  0  0  0  0
  191.1130  177.0320  139.9440 C   0  0  0  0  0  2  0  0  0  0  0  0
  190.7830  175.7400  139.5420 O   0  0  0  0  0  0  0  0  0  0  0  0
  191.3210  175.6230  138.3020 N   0  0  0  0  0  2  0  0  0  0  0  0
  192.5400  176.3150  138.3240 N   0  0  0  0  0  2  0  0  0  0  0  0
  193.1120  176.1900  136.9910 C   0  0  0  0  0  2  0  0  0  0  0  0
  194.1060  175.0790  136.9670 C   0  0  0  0  0  3  0  0  0  0  0  0
  195.2980  175.3200  137.0580 O   0  0  0  0  0  0  0  0  0  0  0  0
  188.7460  178.3110  138.7750 C   0  0  0  0  0  2  0  0  0  0  0  0
  187.7040  177.3180  138.2900 C   0  0  0  0  0  2  0  0  0  0  0  0
  187.0770  177.8290  137.0870 N   0  0  0  0  0  2  0  0  0  0  0  0
  186.3540  176.7190  136.4870 C   0  0  0  0  0  2  0  0  0  0  0  0
  184.9790  176.6050  137.1250 C   0  0  0  0  0  2  0  0  0  0  0  0
  183.7450  178.0600  138.7820 C   0  0  0  0  0  0  0  0  0  0  0  0
  184.5450  177.9080  137.6050 N   0  0  0  0  0  2  0  0  0  0  0  0
  183.3210  177.0490  139.4020 O   0  0  0  0  0  0  0  0  0  0  0  0
  184.4390  180.3160  139.0710 O   0  0  0  0  0  1  0  0  0  0  0  0
  183.3850  179.4240  139.2760 C   0  0  1  0  0  3  0  0  0  0  0  0
  182.1330  181.3350  138.5130 O   0  0  0  0  0  1  0  0  0  0  0  0
  182.1060  179.9430  138.6270 C   0  0  0  0  0  2  0  0  0  0  0  0
  1  3  1  0  0  0  0
  2  1  2  0  0  0  0
  3  5  2  0  0  0  0
  3  7  1  0  0  0  0
  4 10  1  0  0  0  0
  4  9  1  0  0  0  0
  5  6  1  0  0  0  0
  6  9  2  0  0  0  0
  7  4  2  0  0  0  0
  8  7  1  0  0  0  0
  8 11  2  0  0  0  0
  9 19  1  0  0  0  0
 11 16  1  0  0  0  0
 11 10  1  0  0  0  0
 12 14  2  0  0  0  0
 12 16  1  0  0  0  0
 13 15  2  0  0  0  0
 14 13  1  0  0  0  0
 16 17  2  0  0  0  0
 17 15  1  0  0  0  0
 19 18  1  0  0  0  0
 20  1  1  0  0  0  0
 21 20  1  0  0  0  0
 22 23  1  0  0  0  0
 22 21  1  0  0  0  0
 24 23  1  0  0  0  0
 25 24  1  0  0  0  0
 25 26  2  0  0  0  0
 27  2  1  0  0  0  0
 28 27  1  0  0  0  0
 29 28  1  0  0  0  0
 30 29  1  0  0  0  0
 30 31  1  0  0  0  0
 31 33  1  0  0  0  0
 32 36  1  0  0  0  0
 32 34  2  0  0  0  0
 33 32  1  0  0  0  0
 36 35  1  6  0  0  0
 37 38  1  0  0  0  0
 38 36  1  0  0  0  0
M  END
>  <MODEL>
2

>  <REMARK>
 VINA RESULT:      -7.9      2.492      7.005
  Name = 
  17 active torsions:
  status: ('A' for Active; 'I' for Inactive)
    1  A    between atoms: C_1  and  C_11
    2  A    between atoms: C_3  and  C_38
    3  A    between atoms: N_4  and  C_23
    4  A    between atoms: C_5  and  C_6
    5  A    between atoms: C_5  and  N_7
    6  A    between atoms: C_6  and  C_21
    7  A    between atoms: N_7  and  C_31
    8  A    between atoms: C_11  and  C_27
    9  A    between atoms: N_18  and  N_20
   10  A    between atoms: N_18  and  O_36
   11  A    between atoms: C_19  and  C_32
   12  A    between atoms: N_20  and  C_32
   13  A    between atoms: C_23  and  C_31
   14  A    between atoms: C_24  and  C_38
   15  A    between atoms: O_26  and  C_28
   16  A    between atoms: C_27  and  O_36
   17  A    between atoms: C_30  and  C_35
                            x       y       z     vdW  Elec       q    Type
                         _______ _______ _______ _____ _____    ______ ____

>  <TORSDO>
F 17

$$$$
=
 OpenBabel10222416243D

 38 40  0  0  1  0  0  0  0  0999 V2000
  189.8640  177.6240  140.5410 C   0  0  0  0  0  0  0  0  0  0  0  0
  188.7970  178.2970  140.0830 C   0  0  0  0  0  3  0  0  0  0  0  0
  190.0760  177.4340  141.9990 C   0  0  0  0  0  0  0  0  0  0  0  0
  189.2850  177.4100  144.3140 C   0  0  0  0  0  0  0  0  0  0  0  0
  191.4970  177.2420  142.5120 C   0  0  0  0  0  3  0  0  0  0  0  0
  191.6240  176.9560  144.0040 C   0  0  0  0  0  3  0  0  0  0  0  0
  189.0770  177.5250  142.8940 C   0  0  0  0  0  0  0  0  0  0  0  0
  187.7140  177.8260  142.6430 N   0  0  0  0  0  0  0  0  0  0  0  0
  190.6070  177.0630  144.8690 C   0  0  0  0  0  0  0  0  0  0  0  0
  188.1220  177.6100  144.9150 C   0  0  0  0  0  2  0  0  0  0  0  0
  187.1640  177.8670  143.8190 C   0  0  0  0  0  0  0  0  0  0  0  0
  185.2580  178.4890  145.3030 C   0  0  0  0  0  3  0  0  0  0  0  0
  183.0620  178.9390  144.3830 C   0  0  0  0  0  3  0  0  0  0  0  0
  183.9220  178.8590  145.4830 C   0  0  0  0  0  3  0  0  0  0  0  0
  183.5330  178.6340  143.1040 C   0  0  0  0  0  3  0  0  0  0  0  0
  185.7440  178.2060  144.0180 C   0  0  0  0  0  0  0  0  0  0  0  0
  184.8730  178.2730  142.9200 C   0  0  0  0  0  3  0  0  0  0  0  0
  191.9670  176.0890  146.7140 C   0  0  0  0  0  1  0  0  0  0  0  0
  190.8470  176.8160  146.2290 O   0  0  0  0  0  0  0  0  0  0  0  0
  190.8300  176.9980  139.5790 C   0  0  0  0  0  2  0  0  0  0  0  0
  190.5580  175.6390  139.4380 O   0  0  0  0  0  0  0  0  0  0  0  0
  190.6550  175.4100  138.1050 N   0  0  0  0  0  2  0  0  0  0  0  0
  191.8180  174.6510  137.9090 N   0  0  0  0  0  2  0  0  0  0  0  0
  192.4230  175.1310  136.6750 C   0  0  0  0  0  2  0  0  0  0  0  0
  193.5010  176.1120  136.9860 C   0  0  0  0  0  3  0  0  0  0  0  0
  193.9820  176.1610  138.1060 O   0  0  0  0  0  0  0  0  0  0  0  0
  188.5130  178.5300  138.6340 C   0  0  0  0  0  2  0  0  0  0  0  0
  187.2460  177.7950  138.2360 C   0  0  0  0  0  2  0  0  0  0  0  0
  186.2030  178.7580  137.9430 N   0  0  0  0  0  2  0  0  0  0  0  0
  185.0070  178.3080  138.6390 C   0  0  0  0  0  2  0  0  0  0  0  0
  184.2180  179.5130  139.1220 C   0  0  0  0  0  2  0  0  0  0  0  0
  181.7410  179.0960  138.8480 C   0  0  0  0  0  0  0  0  0  0  0  0
  182.9300  179.0860  139.6450 N   0  0  0  0  0  2  0  0  0  0  0  0
  181.7620  179.5560  137.6750 O   0  0  0  0  0  0  0  0  0  0  0  0
  180.2140  177.2770  138.9640 O   0  0  0  0  0  1  0  0  0  0  0  0
  180.4550  178.5790  139.4070 C   0  0  1  0  0  3  0  0  0  0  0  0
  180.2090  179.9490  141.3730 O   0  0  0  0  0  1  0  0  0  0  0  0
  180.4340  178.6420  140.9310 C   0  0  0  0  0  2  0  0  0  0  0  0
  1  3  1  0  0  0  0
  2  1  2  0  0  0  0
  3  5  2  0  0  0  0
  3  7  1  0  0  0  0
  4  9  1  0  0  0  0
  4 10  1  0  0  0  0
  5  6  1  0  0  0  0
  6  9  2  0  0  0  0
  7  4  2  0  0  0  0
  8  7  1  0  0  0  0
  8 11  2  0  0  0  0
  9 19  1  0  0  0  0
 11 16  1  0  0  0  0
 11 10  1  0  0  0  0
 12 14  1  0  0  0  0
 13 14  2  0  0  0  0
 15 13  1  0  0  0  0
 16 12  2  0  0  0  0
 17 15  2  0  0  0  0
 17 16  1  0  0  0  0
 19 18  1  0  0  0  0
 20  1  1  0  0  0  0
 21 20  1  0  0  0  0
 22 21  1  0  0  0  0
 23 22  1  0  0  0  0
 24 25  1  0  0  0  0
 24 23  1  0  0  0  0
 25 26  2  0  0  0  0
 27  2  1  0  0  0  0
 28 27  1  0  0  0  0
 29 28  1  0  0  0  0
 29 30  1  0  0  0  0
 30 31  1  0  0  0  0
 31 33  1  0  0  0  0
 32 36  1  0  0  0  0
 32 33  1  0  0  0  0
 34 32  2  0  0  0  0
 36 35  1  1  0  0  0
 36 38  1  0  0  0  0
 38 37  1  0  0  0  0
M  END
>  <MODEL>
3

>  <REMARK>
 VINA RESULT:      -7.9      3.129      7.916
  Name = 
  17 active torsions:
  status: ('A' for Active; 'I' for Inactive)
    1  A    between atoms: C_1  and  C_11
    2  A    between atoms: C_3  and  C_38
    3  A    between atoms: N_4  and  C_23
    4  A    between atoms: C_5  and  C_6
    5  A    between atoms: C_5  and  N_7
    6  A    between atoms: C_6  and  C_21
    7  A    between atoms: N_7  and  C_31
    8  A    between atoms: C_11  and  C_27
    9  A    between atoms: N_18  and  N_20
   10  A    between atoms: N_18  and  O_36
   11  A    between atoms: C_19  and  C_32
   12  A    between atoms: N_20  and  C_32
   13  A    between atoms: C_23  and  C_31
   14  A    between atoms: C_24  and  C_38
   15  A    between atoms: O_26  and  C_28
   16  A    between atoms: C_27  and  O_36
   17  A    between atoms: C_30  and  C_35
                            x       y       z     vdW  Elec       q    Type
                         _______ _______ _______ _____ _____    ______ ____

>  <TORSDO>
F 17

$$$$
=
 OpenBabel10222416243D

 38 40  0  0  1  0  0  0  0  0999 V2000
  183.4130  178.0490  139.2420 C   0  0  0  0  0  0  0  0  0  0  0  0
  184.6320  178.5730  139.0410 C   0  0  0  0  0  3  0  0  0  0  0  0
  182.5570  178.5210  140.3600 C   0  0  0  0  0  0  0  0  0  0  0  0
  182.1670  179.0240  142.7230 C   0  0  0  0  0  0  0  0  0  0  0  0
  181.0810  178.7810  140.0910 C   0  0  0  0  0  3  0  0  0  0  0  0
  180.2900  179.3560  141.2600 C   0  0  0  0  0  3  0  0  0  0  0  0
  183.0080  178.6330  141.6220 C   0  0  0  0  0  0  0  0  0  0  0  0
  184.3020  178.3180  142.1100 N   0  0  0  0  0  0  0  0  0  0  0  0
  180.7700  179.4460  142.5070 C   0  0  0  0  0  0  0  0  0  0  0  0
  182.8930  178.9740  143.8290 C   0  0  0  0  0  2  0  0  0  0  0  0
  184.2310  178.5240  143.3900 C   0  0  0  0  0  0  0  0  0  0  0  0
  185.2670  178.5980  145.6570 C   0  0  0  0  0  3  0  0  0  0  0  0
  187.4760  177.6830  146.0450 C   0  0  0  0  0  3  0  0  0  0  0  0
  186.3200  178.3050  146.5270 C   0  0  0  0  0  3  0  0  0  0  0  0
  187.5870  177.3700  144.6880 C   0  0  0  0  0  3  0  0  0  0  0  0
  185.3600  178.2630  144.2990 C   0  0  0  0  0  0  0  0  0  0  0  0
  186.5290  177.6540  143.8170 C   0  0  0  0  0  3  0  0  0  0  0  0
  179.0820  179.1480  144.3150 C   0  0  0  0  0  1  0  0  0  0  0  0
  179.9390  179.9540  143.5170 O   0  0  0  0  0  0  0  0  0  0  0  0
  182.8710  177.0170  138.2990 C   0  0  0  0  0  2  0  0  0  0  0  0
  183.2380  175.7390  138.7180 O   0  0  0  0  0  0  0  0  0  0  0  0
  182.4410  174.9070  138.0030 N   0  0  0  0  0  2  0  0  0  0  0  0
  183.2250  174.3960  136.9590 N   0  0  0  0  0  2  0  0  0  0  0  0
  184.5320  174.1020  137.5270 C   0  0  0  0  0  2  0  0  0  0  0  0
  184.7880  172.6340  137.4800 C   0  0  0  0  0  3  0  0  0  0  0  0
  183.9010  171.8670  137.1420 O   0  0  0  0  0  0  0  0  0  0  0  0
  185.5520  178.1520  137.9400 C   0  0  0  0  0  2  0  0  0  0  0  0
  186.9940  178.3300  138.3820 C   0  0  0  0  0  2  0  0  0  0  0  0
  187.0690  178.2380  139.8270 N   0  0  0  0  0  2  0  0  0  0  0  0
  188.4530  178.4930  140.1930 C   0  0  0  0  0  2  0  0  0  0  0  0
  189.0350  177.2610  140.8660 C   0  0  0  0  0  2  0  0  0  0  0  0
  190.5460  176.7060  142.8130 C   0  0  0  0  0  0  0  0  0  0  0  0
  189.9430  177.6570  141.9300 N   0  0  0  0  0  2  0  0  0  0  0  0
  190.2410  175.4850  142.7430 O   0  0  0  0  0  0  0  0  0  0  0  0
  191.4180  178.5270  144.0680 O   0  0  0  0  0  1  0  0  0  0  0  0
  191.5300  177.1540  143.8450 C   0  0  1  0  0  3  0  0  0  0  0  0
  191.9440  177.0820  146.2170 O   0  0  0  0  0  1  0  0  0  0  0  0
  191.3750  176.3800  145.1500 C   0  0  0  0  0  2  0  0  0  0  0  0
  1  3  1  0  0  0  0
  2  1  2  0  0  0  0
  3  7  1  0  0  0  0
  4 10  1  0  0  0  0
  5  3  2  0  0  0  0
  5  6  1  0  0  0  0
  6  9  2  0  0  0  0
  7  8  1  0  0  0  0
  7  4  2  0  0  0  0
  8 11  2  0  0  0  0
  9  4  1  0  0  0  0
  9 19  1  0  0  0  0
 11 10  1  0  0  0  0
 11 16  1  0  0  0  0
 12 14  1  0  0  0  0
 13 14  2  0  0  0  0
 15 13  1  0  0  0  0
 16 12  2  0  0  0  0
 17 16  1  0  0  0  0
 17 15  2  0  0  0  0
 19 18  1  0  0  0  0
 20 21  1  0  0  0  0
 20  1  1  0  0  0  0
 22 21  1  0  0  0  0
 23 24  1  0  0  0  0
 23 22  1  0  0  0  0
 25 24  1  0  0  0  0
 26 25  2  0  0  0  0
 27 28  1  0  0  0  0
 27  2  1  0  0  0  0
 28 29  1  0  0  0  0
 29 30  1  0  0  0  0
 30 31  1  0  0  0  0
 31 33  1  0  0  0  0
 32 36  1  0  0  0  0
 33 32  1  0  0  0  0
 34 32  2  0  0  0  0
 36 35  1  1  0  0  0
 36 38  1  0  0  0  0
 38 37  1  0  0  0  0
M  END
>  <MODEL>
4

>  <REMARK>
 VINA RESULT:      -7.8      4.383      7.281
  Name = 
  17 active torsions:
  status: ('A' for Active; 'I' for Inactive)
    1  A    between atoms: C_1  and  C_11
    2  A    between atoms: C_3  and  C_38
    3  A    between atoms: N_4  and  C_23
    4  A    between atoms: C_5  and  C_6
    5  A    between atoms: C_5  and  N_7
    6  A    between atoms: C_6  and  C_21
    7  A    between atoms: N_7  and  C_31
    8  A    between atoms: C_11  and  C_27
    9  A    between atoms: N_18  and  N_20
   10  A    between atoms: N_18  and  O_36
   11  A    between atoms: C_19  and  C_32
   12  A    between atoms: N_20  and  C_32
   13  A    between atoms: C_23  and  C_31
   14  A    between atoms: C_24  and  C_38
   15  A    between atoms: O_26  and  C_28
   16  A    between atoms: C_27  and  O_36
   17  A    between atoms: C_30  and  C_35
                            x       y       z     vdW  Elec       q    Type
                         _______ _______ _______ _____ _____    ______ ____

>  <TORSDO>
F 17

$$$$
=
 OpenBabel10222416243D

 38 40  0  0  1  0  0  0  0  0999 V2000
  189.9720  177.6110  140.8620 C   0  0  0  0  0  0  0  0  0  0  0  0
  188.9410  178.2620  140.3000 C   0  0  0  0  0  3  0  0  0  0  0  0
  190.0180  177.3850  142.3300 C   0  0  0  0  0  0  0  0  0  0  0  0
  188.9830  177.3530  144.5470 C   0  0  0  0  0  0  0  0  0  0  0  0
  191.3660  177.1220  142.9870 C   0  0  0  0  0  3  0  0  0  0  0  0
  191.3210  176.8040  144.4770 C   0  0  0  0  0  3  0  0  0  0  0  0
  188.9340  177.5030  143.1160 C   0  0  0  0  0  0  0  0  0  0  0  0
  187.6180  177.8670  142.7290 N   0  0  0  0  0  0  0  0  0  0  0  0
  190.2220  176.9390  145.2310 C   0  0  0  0  0  0  0  0  0  0  0  0
  187.7710  177.5920  145.0250 C   0  0  0  0  0  2  0  0  0  0  0  0
  186.9470  177.9110  143.8400 C   0  0  0  0  0  0  0  0  0  0  0  0
  184.7680  178.3730  142.7180 C   0  0  0  0  0  3  0  0  0  0  0  0
  182.8090  178.9740  144.0090 C   0  0  0  0  0  3  0  0  0  0  0  0
  183.4120  178.7020  142.7770 C   0  0  0  0  0  3  0  0  0  0  0  0
  183.5660  178.9350  145.1820 C   0  0  0  0  0  3  0  0  0  0  0  0
  185.5300  178.3070  143.8940 C   0  0  0  0  0  0  0  0  0  0  0  0
  184.9240  178.5980  145.1260 C   0  0  0  0  0  3  0  0  0  0  0  0
  191.5280  176.5860  147.3230 C   0  0  0  0  0  1  0  0  0  0  0  0
  190.3050  176.6570  146.6030 O   0  0  0  0  0  0  0  0  0  0  0  0
  191.0650  177.0460  140.0060 C   0  0  0  0  0  2  0  0  0  0  0  0
  190.7240  175.7680  139.5680 O   0  0  0  0  0  0  0  0  0  0  0  0
  191.0780  175.7530  138.2590 N   0  0  0  0  0  2  0  0  0  0  0  0
  191.4540  174.4370  137.9560 N   0  0  0  0  0  2  0  0  0  0  0  0
  192.6510  174.5270  137.1340 C   0  0  0  0  0  2  0  0  0  0  0  0
  193.5090  175.6520  137.6060 C   0  0  0  0  0  3  0  0  0  0  0  0
  194.4700  175.4310  138.3250 O   0  0  0  0  0  0  0  0  0  0  0  0
  188.8220  178.5270  138.8330 C   0  0  0  0  0  2  0  0  0  0  0  0
  187.4620  178.0650  138.3390 C   0  0  0  0  0  2  0  0  0  0  0  0
  187.1650  178.7110  137.0750 N   0  0  0  0  0  2  0  0  0  0  0  0
  186.4770  177.7280  136.2530 C   0  0  0  0  0  2  0  0  0  0  0  0
  185.7920  176.7090  137.1470 C   0  0  0  0  0  2  0  0  0  0  0  0
  186.8890  174.4980  136.6060 C   0  0  0  0  0  0  0  0  0  0  0  0
  185.7870  175.4050  136.5030 N   0  0  0  0  0  2  0  0  0  0  0  0
  187.9450  174.8410  137.2020 O   0  0  0  0  0  0  0  0  0  0  0  0
  186.8260  173.2330  134.5940 O   0  0  0  0  0  1  0  0  0  0  0  0
  186.8080  173.1410  135.9870 C   0  0  1  0  0  3  0  0  0  0  0  0
  188.8780  172.0180  135.4820 O   0  0  0  0  0  1  0  0  0  0  0  0
  187.9230  172.2240  136.4810 C   0  0  0  0  0  2  0  0  0  0  0  0
  1  3  1  0  0  0  0
  2  1  2  0  0  0  0
  3  5  2  0  0  0  0
  3  7  1  0  0  0  0
  4 10  1  0  0  0  0
  4  9  1  0  0  0  0
  5  6  1  0  0  0  0
  6  9  2  0  0  0  0
  7  4  2  0  0  0  0
  8  7  1  0  0  0  0
  8 11  2  0  0  0  0
  9 19  1  0  0  0  0
 11 16  1  0  0  0  0
 11 10  1  0  0  0  0
 12 14  2  0  0  0  0
 12 16  1  0  0  0  0
 13 15  2  0  0  0  0
 14 13  1  0  0  0  0
 16 17  2  0  0  0  0
 17 15  1  0  0  0  0
 19 18  1  0  0  0  0
 20  1  1  0  0  0  0
 21 20  1  0  0  0  0
 22 21  1  0  0  0  0
 23 22  1  0  0  0  0
 24 25  1  0  0  0  0
 24 23  1  0  0  0  0
 25 26  2  0  0  0  0
 27  2  1  0  0  0  0
 28 27  1  0  0  0  0
 29 28  1  0  0  0  0
 30 29  1  0  0  0  0
 30 31  1  0  0  0  0
 32 34  2  0  0  0  0
 33 32  1  0  0  0  0
 33 31  1  0  0  0  0
 36 35  1  6  0  0  0
 36 38  1  0  0  0  0
 36 32  1  0  0  0  0
 37 38  1  0  0  0  0
M  END
>  <MODEL>
5

>  <REMARK>
 VINA RESULT:      -7.6      2.308      5.505
  Name = 
  17 active torsions:
  status: ('A' for Active; 'I' for Inactive)
    1  A    between atoms: C_1  and  C_11
    2  A    between atoms: C_3  and  C_38
    3  A    between atoms: N_4  and  C_23
    4  A    between atoms: C_5  and  C_6
    5  A    between atoms: C_5  and  N_7
    6  A    between atoms: C_6  and  C_21
    7  A    between atoms: N_7  and  C_31
    8  A    between atoms: C_11  and  C_27
    9  A    between atoms: N_18  and  N_20
   10  A    between atoms: N_18  and  O_36
   11  A    between atoms: C_19  and  C_32
   12  A    between atoms: N_20  and  C_32
   13  A    between atoms: C_23  and  C_31
   14  A    between atoms: C_24  and  C_38
   15  A    between atoms: O_26  and  C_28
   16  A    between atoms: C_27  and  O_36
   17  A    between atoms: C_30  and  C_35
                            x       y       z     vdW  Elec       q    Type
                         _______ _______ _______ _____ _____    ______ ____

>  <TORSDO>
F 17

$$$$
=
 OpenBabel10222416243D

 38 40  0  0  1  0  0  0  0  0999 V2000
  184.6170  178.4420  143.8520 C   0  0  0  0  0  0  0  0  0  0  0  0
  183.4030  178.8060  144.2940 C   0  0  0  0  0  3  0  0  0  0  0  0
  185.7120  178.1320  144.8080 C   0  0  0  0  0  0  0  0  0  0  0  0
  188.0320  177.5510  145.3230 C   0  0  0  0  0  0  0  0  0  0  0  0
  185.3660  177.9340  146.2770 C   0  0  0  0  0  2  0  0  0  0  0  0
  186.5530  177.7150  147.2080 C   0  0  0  0  0  3  0  0  0  0  0  0
  186.9800  177.9200  144.4130 C   0  0  0  0  0  0  0  0  0  0  0  0
  187.4870  177.9250  143.0880 N   0  0  0  0  0  0  0  0  0  0  0  0
  187.8030  177.5000  146.7790 C   0  0  0  0  0  0  0  0  0  0  0  0
  189.1340  177.3540  144.6150 C   0  0  0  0  0  3  0  0  0  0  0  0
  188.7390  177.6020  143.2130 C   0  0  0  0  0  0  0  0  0  0  0  0
  189.1030  177.2140  140.7760 C   0  0  0  0  0  3  0  0  0  0  0  0
  191.3360  177.2210  139.8360 C   0  0  0  0  0  3  0  0  0  0  0  0
  189.9510  177.1100  139.6710 C   0  0  0  0  0  3  0  0  0  0  0  0
  191.8740  177.4200  141.1100 C   0  0  0  0  0  3  0  0  0  0  0  0
  189.6340  177.4400  142.0550 C   0  0  0  0  0  0  0  0  0  0  0  0
  191.0250  177.5340  142.2170 C   0  0  0  0  0  3  0  0  0  0  0  0
  189.4640  178.3010  148.4540 C   0  0  0  0  0  1  0  0  0  0  0  0
  188.8130  177.2690  147.7250 O   0  0  0  0  0  0  0  0  0  0  0  0
  184.8690  178.2830  142.3830 C   0  0  0  0  0  2  0  0  0  0  0  0
  185.1920  179.5120  141.8120 O   0  0  0  0  0  0  0  0  0  0  0  0
  184.8800  179.3680  140.5000 N   0  0  0  0  0  2  0  0  0  0  0  0
  186.0290  178.8770  139.8640 N   0  0  0  0  0  2  0  0  0  0  0  0
  185.6180  178.4610  138.5300 C   0  0  0  0  0  2  0  0  0  0  0  0
  186.7990  177.9720  137.7640 C   0  0  0  0  0  3  0  0  0  0  0  0
  187.6290  178.7630  137.3450 O   0  0  0  0  0  0  0  0  0  0  0  0
  182.2520  179.1330  143.3980 C   0  0  0  0  0  2  0  0  0  0  0  0
  180.9640  178.6090  144.0080 C   0  0  0  0  0  2  0  0  0  0  0  0
  179.8580  178.8930  143.1140 N   0  0  0  0  0  2  0  0  0  0  0  0
  180.3730  179.7720  142.0760 C   0  0  0  0  0  2  0  0  0  0  0  0
  179.2130  180.4570  141.3720 C   0  0  0  0  0  2  0  0  0  0  0  0
  179.7890  180.9670  138.9650 C   0  0  0  0  0  0  0  0  0  0  0  0
  179.7160  181.3520  140.3410 N   0  0  0  0  0  2  0  0  0  0  0  0
  179.4890  179.7960  138.6120 O   0  0  0  0  0  0  0  0  0  0  0  0
  179.4180  183.0720  137.9230 O   0  0  0  0  0  1  0  0  0  0  0  0
  180.2450  181.9470  137.9320 C   0  0  1  0  0  3  0  0  0  0  0  0
  181.9090  183.6790  137.7600 O   0  0  0  0  0  1  0  0  0  0  0  0
  181.7020  182.3490  138.1360 C   0  0  0  0  0  2  0  0  0  0  0  0
  1  2  2  0  0  0  0
  1  3  1  0  0  0  0
  3  5  1  0  0  0  0
  4  9  1  0  0  0  0
  5  6  1  0  0  0  0
  7  3  2  0  0  0  0
  7  4  1  0  0  0  0
  8 11  2  0  0  0  0
  8  7  1  0  0  0  0
  9  6  2  0  0  0  0
  9 19  1  0  0  0  0
 10  4  2  0  0  0  0
 11 10  1  0  0  0  0
 12 16  1  0  0  0  0
 13 15  2  0  0  0  0
 14 13  1  0  0  0  0
 14 12  2  0  0  0  0
 15 17  1  0  0  0  0
 16 17  2  0  0  0  0
 16 11  1  0  0  0  0
 19 18  1  0  0  0  0
 20  1  1  0  0  0  0
 21 20  1  0  0  0  0
 22 21  1  0  0  0  0
 23 22  1  0  0  0  0
 24 23  1  0  0  0  0
 25 24  1  0  0  0  0
 26 25  2  0  0  0  0
 27 28  1  0  0  0  0
 27  2  1  0  0  0  0
 29 28  1  0  0  0  0
 30 29  1  0  0  0  0
 31 30  1  0  0  0  0
 32 33  1  0  0  0  0
 33 31  1  0  0  0  0
 34 32  2  0  0  0  0
 36 35  1  1  0  0  0
 36 38  1  0  0  0  0
 36 32  1  0  0  0  0
 37 38  1  0  0  0  0
M  END
>  <MODEL>
6

>  <REMARK>
 VINA RESULT:      -7.5      4.387     10.187
  Name = 
  17 active torsions:
  status: ('A' for Active; 'I' for Inactive)
    1  A    between atoms: C_1  and  C_11
    2  A    between atoms: C_3  and  C_38
    3  A    between atoms: N_4  and  C_23
    4  A    between atoms: C_5  and  C_6
    5  A    between atoms: C_5  and  N_7
    6  A    between atoms: C_6  and  C_21
    7  A    between atoms: N_7  and  C_31
    8  A    between atoms: C_11  and  C_27
    9  A    between atoms: N_18  and  N_20
   10  A    between atoms: N_18  and  O_36
   11  A    between atoms: C_19  and  C_32
   12  A    between atoms: N_20  and  C_32
   13  A    between atoms: C_23  and  C_31
   14  A    between atoms: C_24  and  C_38
   15  A    between atoms: O_26  and  C_28
   16  A    between atoms: C_27  and  O_36
   17  A    between atoms: C_30  and  C_35
                            x       y       z     vdW  Elec       q    Type
                         _______ _______ _______ _____ _____    ______ ____

>  <TORSDO>
F 17

$$$$
=
 OpenBabel10222416243D

 38 40  0  0  1  0  0  0  0  0999 V2000
  189.9870  177.5890  140.8540 C   0  0  0  0  0  0  0  0  0  0  0  0
  188.9200  178.2150  140.3340 C   0  0  0  0  0  3  0  0  0  0  0  0
  190.1110  177.3890  142.3220 C   0  0  0  0  0  0  0  0  0  0  0  0
  189.1920  177.3890  144.5890 C   0  0  0  0  0  0  0  0  0  0  0  0
  191.4930  177.1480  142.9130 C   0  0  0  0  0  3  0  0  0  0  0  0
  191.5270  176.8560  144.4080 C   0  0  0  0  0  3  0  0  0  0  0  0
  189.0670  177.5130  143.1600 C   0  0  0  0  0  0  0  0  0  0  0  0
  187.7310  177.8610  142.8350 N   0  0  0  0  0  0  0  0  0  0  0  0
  190.4680  176.9960  145.2150 C   0  0  0  0  0  0  0  0  0  0  0  0
  188.0040  177.6280  145.1250 C   0  0  0  0  0  2  0  0  0  0  0  0
  187.1180  177.9200  143.9780 C   0  0  0  0  0  0  0  0  0  0  0  0
  184.8700  178.3080  142.9690 C   0  0  0  0  0  3  0  0  0  0  0  0
  182.9850  178.9570  144.3450 C   0  0  0  0  0  3  0  0  0  0  0  0
  183.5160  178.6280  143.0940 C   0  0  0  0  0  3  0  0  0  0  0  0
  183.8120  178.9830  145.4700 C   0  0  0  0  0  3  0  0  0  0  0  0
  185.7020  178.3070  144.0990 C   0  0  0  0  0  0  0  0  0  0  0  0
  185.1670  178.6540  145.3490 C   0  0  0  0  0  3  0  0  0  0  0  0
  191.7060  175.9990  147.1330 C   0  0  0  0  0  1  0  0  0  0  0  0
  190.6230  176.7390  146.5860 O   0  0  0  0  0  0  0  0  0  0  0  0
  191.0450  177.0250  139.9540 C   0  0  0  0  0  2  0  0  0  0  0  0
  190.6160  175.8200  139.4010 O   0  0  0  0  0  0  0  0  0  0  0  0
  191.4620  175.6030  138.3630 N   0  0  0  0  0  2  0  0  0  0  0  0
  190.9990  174.4600  137.6970 N   0  0  0  0  0  2  0  0  0  0  0  0
  189.6310  174.7430  137.2880 C   0  0  0  0  0  2  0  0  0  0  0  0
  189.0550  173.5600  136.5870 C   0  0  0  0  0  3  0  0  0  0  0  0
  188.1680  172.9070  137.1120 O   0  0  0  0  0  0  0  0  0  0  0  0
  188.7230  178.4530  138.8710 C   0  0  0  0  0  2  0  0  0  0  0  0
  187.3920  177.8670  138.4320 C   0  0  0  0  0  2  0  0  0  0  0  0
  186.3120  178.6240  139.0330 N   0  0  0  0  0  2  0  0  0  0  0  0
  185.0730  177.9650  138.6500 C   0  0  0  0  0  2  0  0  0  0  0  0
  183.9100  178.9250  138.8360 C   0  0  0  0  0  2  0  0  0  0  0  0
  181.4890  178.5770  139.4750 C   0  0  0  0  0  0  0  0  0  0  0  0
  182.6500  178.2070  138.7220 N   0  0  0  0  0  2  0  0  0  0  0  0
  181.5500  179.5000  140.3300 O   0  0  0  0  0  0  0  0  0  0  0  0
  180.0940  177.3960  137.9540 O   0  0  0  0  0  1  0  0  0  0  0  0
  180.1970  177.8550  139.2690 C   0  0  1  0  0  3  0  0  0  0  0  0
  179.7310  175.5140  139.5890 O   0  0  0  0  0  1  0  0  0  0  0  0
  180.0260  176.7050  140.2560 C   0  0  0  0  0  2  0  0  0  0  0  0
  1  3  1  0  0  0  0
  2  1  2  0  0  0  0
  3  5  2  0  0  0  0
  3  7  1  0  0  0  0
  4 10  1  0  0  0  0
  4  9  1  0  0  0  0
  5  6  1  0  0  0  0
  6  9  2  0  0  0  0
  7  4  2  0  0  0  0
  8  7  1  0  0  0  0
  8 11  2  0  0  0  0
  9 19  1  0  0  0  0
 11 16  1  0  0  0  0
 11 10  1  0  0  0  0
 12 14  2  0  0  0  0
 12 16  1  0  0  0  0
 13 15  2  0  0  0  0
 14 13  1  0  0  0  0
 16 17  2  0  0  0  0
 17 15  1  0  0  0  0
 19 18  1  0  0  0  0
 20  1  1  0  0  0  0
 21 20  1  0  0  0  0
 22 21  1  0  0  0  0
 23 22  1  0  0  0  0
 24 23  1  0  0  0  0
 25 26  2  0  0  0  0
 25 24  1  0  0  0  0
 27  2  1  0  0  0  0
 28 27  1  0  0  0  0
 28 29  1  0  0  0  0
 30 31  1  0  0  0  0
 30 29  1  0  0  0  0
 32 34  2  0  0  0  0
 33 31  1  0  0  0  0
 33 32  1  0  0  0  0
 36 35  1  6  0  0  0
 36 32  1  0  0  0  0
 36 38  1  0  0  0  0
 37 38  1  0  0  0  0
M  END
>  <MODEL>
7

>  <REMARK>
 VINA RESULT:      -7.5      3.369      7.916
  Name = 
  17 active torsions:
  status: ('A' for Active; 'I' for Inactive)
    1  A    between atoms: C_1  and  C_11
    2  A    between atoms: C_3  and  C_38
    3  A    between atoms: N_4  and  C_23
    4  A    between atoms: C_5  and  C_6
    5  A    between atoms: C_5  and  N_7
    6  A    between atoms: C_6  and  C_21
    7  A    between atoms: N_7  and  C_31
    8  A    between atoms: C_11  and  C_27
    9  A    between atoms: N_18  and  N_20
   10  A    between atoms: N_18  and  O_36
   11  A    between atoms: C_19  and  C_32
   12  A    between atoms: N_20  and  C_32
   13  A    between atoms: C_23  and  C_31
   14  A    between atoms: C_24  and  C_38
   15  A    between atoms: O_26  and  C_28
   16  A    between atoms: C_27  and  O_36
   17  A    between atoms: C_30  and  C_35
                            x       y       z     vdW  Elec       q    Type
                         _______ _______ _______ _____ _____    ______ ____

>  <TORSDO>
F 17

$$$$
=
 OpenBabel10222416243D

 38 40  0  0  1  0  0  0  0  0999 V2000
  189.4870  177.5660  141.4700 C   0  0  0  0  0  0  0  0  0  0  0  0
  188.7620  178.4140  140.7240 C   0  0  0  0  0  3  0  0  0  0  0  0
  189.2600  177.4570  142.9350 C   0  0  0  0  0  0  0  0  0  0  0  0
  187.8260  177.5580  144.9140 C   0  0  0  0  0  0  0  0  0  0  0  0
  190.4650  177.2990  143.8520 C   0  0  0  0  0  2  0  0  0  0  0  0
  190.1470  177.0970  145.3280 C   0  0  0  0  0  3  0  0  0  0  0  0
  188.0440  177.5940  143.4920 C   0  0  0  0  0  0  0  0  0  0  0  0
  186.8180  177.8750  142.8370 N   0  0  0  0  0  0  0  0  0  0  0  0
  188.9220  177.2470  145.8500 C   0  0  0  0  0  0  0  0  0  0  0  0
  186.5400  177.7860  145.1360 C   0  0  0  0  0  3  0  0  0  0  0  0
  185.9480  177.9790  143.7960 C   0  0  0  0  0  0  0  0  0  0  0  0
  183.7010  178.6810  144.6180 C   0  0  0  0  0  3  0  0  0  0  0  0
  181.8740  179.0630  143.0740 C   0  0  0  0  0  3  0  0  0  0  0  0
  182.3760  179.0550  144.3790 C   0  0  0  0  0  3  0  0  0  0  0  0
  182.6930  178.6830  142.0080 C   0  0  0  0  0  3  0  0  0  0  0  0
  184.5370  178.3230  143.5510 C   0  0  0  0  0  0  0  0  0  0  0  0
  184.0230  178.3170  142.2450 C   0  0  0  0  0  3  0  0  0  0  0  0
  188.7070  178.1510  148.1610 C   0  0  0  0  0  1  0  0  0  0  0  0
  188.7510  177.0760  147.2310 O   0  0  0  0  0  0  0  0  0  0  0  0
  190.4980  176.6680  140.8240 C   0  0  0  0  0  2  0  0  0  0  0  0
  191.7180  177.3290  140.6930 O   0  0  0  0  0  0  0  0  0  0  0  0
  192.1430  177.0100  139.4450 N   0  0  0  0  0  2  0  0  0  0  0  0
  191.3110  175.9810  138.9850 N   0  0  0  0  0  2  0  0  0  0  0  0
  191.2380  176.1220  137.5380 C   0  0  0  0  0  2  0  0  0  0  0  0
  190.1870  175.2170  136.9910 C   0  0  0  0  0  3  0  0  0  0  0  0
  189.8460  175.3080  135.8230 O   0  0  0  0  0  0  0  0  0  0  0  0
  188.9290  178.5810  139.2480 C   0  0  0  0  0  2  0  0  0  0  0  0
  187.8900  177.7480  138.5180 C   0  0  0  0  0  2  0  0  0  0  0  0
  186.5650  178.2390  138.8440 N   0  0  0  0  0  2  0  0  0  0  0  0
  185.8110  178.2690  137.6010 C   0  0  0  0  0  2  0  0  0  0  0  0
  186.3590  177.2180  136.6500 C   0  0  0  0  0  2  0  0  0  0  0  0
  185.7200  174.7860  136.9050 C   0  0  0  0  0  0  0  0  0  0  0  0
  185.4070  176.1270  136.5120 N   0  0  0  0  0  2  0  0  0  0  0  0
  186.8750  174.4940  137.3140 O   0  0  0  0  0  0  0  0  0  0  0  0
  184.7100  172.9050  137.9510 O   0  0  0  0  0  1  0  0  0  0  0  0
  184.6840  173.7130  136.8130 C   0  0  1  0  0  3  0  0  0  0  0  0
  182.3130  173.4610  137.1510 O   0  0  0  0  0  1  0  0  0  0  0  0
  183.2890  174.2900  136.5930 C   0  0  0  0  0  2  0  0  0  0  0  0
  1  3  1  0  0  0  0
  2  1  2  0  0  0  0
  3  7  2  0  0  0  0
  3  5  1  0  0  0  0
  4 10  2  0  0  0  0
  4  9  1  0  0  0  0
  5  6  1  0  0  0  0
  6  9  2  0  0  0  0
  7  4  1  0  0  0  0
  8  7  1  0  0  0  0
  8 11  2  0  0  0  0
  9 19  1  0  0  0  0
 11 10  1  0  0  0  0
 13 14  2  0  0  0  0
 14 12  1  0  0  0  0
 15 17  2  0  0  0  0
 15 13  1  0  0  0  0
 16 11  1  0  0  0  0
 16 12  2  0  0  0  0
 17 16  1  0  0  0  0
 19 18  1  0  0  0  0
 20  1  1  0  0  0  0
 21 20  1  0  0  0  0
 22 21  1  0  0  0  0
 23 22  1  0  0  0  0
 24 23  1  0  0  0  0
 25 24  1  0  0  0  0
 26 25  2  0  0  0  0
 27  2  1  0  0  0  0
 28 29  1  0  0  0  0
 28 27  1  0  0  0  0
 30 29  1  0  0  0  0
 31 30  1  0  0  0  0
 32 34  2  0  0  0  0
 33 31  1  0  0  0  0
 33 32  1  0  0  0  0
 36 32  1  0  0  0  0
 36 35  1  1  0  0  0
 38 36  1  0  0  0  0
 38 37  1  0  0  0  0
M  END
>  <MODEL>
8

>  <REMARK>
 VINA RESULT:      -7.4      3.052      6.260
  Name = 
  17 active torsions:
  status: ('A' for Active; 'I' for Inactive)
    1  A    between atoms: C_1  and  C_11
    2  A    between atoms: C_3  and  C_38
    3  A    between atoms: N_4  and  C_23
    4  A    between atoms: C_5  and  C_6
    5  A    between atoms: C_5  and  N_7
    6  A    between atoms: C_6  and  C_21
    7  A    between atoms: N_7  and  C_31
    8  A    between atoms: C_11  and  C_27
    9  A    between atoms: N_18  and  N_20
   10  A    between atoms: N_18  and  O_36
   11  A    between atoms: C_19  and  C_32
   12  A    between atoms: N_20  and  C_32
   13  A    between atoms: C_23  and  C_31
   14  A    between atoms: C_24  and  C_38
   15  A    between atoms: O_26  and  C_28
   16  A    between atoms: C_27  and  O_36
   17  A    between atoms: C_30  and  C_35
                            x       y       z     vdW  Elec       q    Type
                         _______ _______ _______ _____ _____    ______ ____

>  <TORSDO>
F 17

$$$$
=
 OpenBabel10222416243D

 38 40  0  0  1  0  0  0  0  0999 V2000
  184.2560  178.6040  140.8650 C   0  0  0  0  0  0  0  0  0  0  0  0
  185.3470  178.6300  140.0840 C   0  0  0  0  0  3  0  0  0  0  0  0
  184.3800  178.6120  142.3460 C   0  0  0  0  0  0  0  0  0  0  0  0
  185.6550  178.2980  144.4100 C   0  0  0  0  0  0  0  0  0  0  0  0
  183.1230  178.8000  143.1840 C   0  0  0  0  0  2  0  0  0  0  0  0
  183.3440  178.8930  144.6890 C   0  0  0  0  0  3  0  0  0  0  0  0
  185.5400  178.3600  142.9770 C   0  0  0  0  0  0  0  0  0  0  0  0
  186.7910  178.0330  142.3920 N   0  0  0  0  0  0  0  0  0  0  0  0
  184.5150  178.6290  145.2850 C   0  0  0  0  0  0  0  0  0  0  0  0
  186.9040  177.9680  144.7060 C   0  0  0  0  0  3  0  0  0  0  0  0
  187.5790  177.8130  143.4010 C   0  0  0  0  0  0  0  0  0  0  0  0
  190.0060  178.3410  143.1730 C   0  0  0  0  0  3  0  0  0  0  0  0
  191.6530  176.5720  143.0080 C   0  0  0  0  0  3  0  0  0  0  0  0
  191.3380  177.9330  143.0640 C   0  0  0  0  0  3  0  0  0  0  0  0
  190.6340  175.6170  143.0430 C   0  0  0  0  0  3  0  0  0  0  0  0
  188.9790  177.3870  143.2350 C   0  0  0  0  0  0  0  0  0  0  0  0
  189.2990  176.0230  143.1610 C   0  0  0  0  0  3  0  0  0  0  0  0
  185.8150  178.6520  147.4090 C   0  0  0  0  0  1  0  0  0  0  0  0
  184.5950  178.7070  146.6830 O   0  0  0  0  0  0  0  0  0  0  0  0
  182.8880  178.6300  140.2520 C   0  0  0  0  0  2  0  0  0  0  0  0
  182.1730  177.4910  140.6170 O   0  0  0  0  0  0  0  0  0  0  0  0
  180.8920  177.7690  140.2690 N   0  0  0  0  0  2  0  0  0  0  0  0
  180.1240  177.6580  141.4370 N   0  0  0  0  0  2  0  0  0  0  0  0
  179.1890  178.7740  141.4250 C   0  0  0  0  0  2  0  0  0  0  0  0
  179.9340  180.0620  141.5160 C   0  0  0  0  0  3  0  0  0  0  0  0
  180.0960  180.6020  142.5980 O   0  0  0  0  0  0  0  0  0  0  0  0
  185.3040  178.6250  138.5900 C   0  0  0  0  0  2  0  0  0  0  0  0
  186.6480  178.1780  138.0410 C   0  0  0  0  0  2  0  0  0  0  0  0
  187.6890  178.4980  138.9990 N   0  0  0  0  0  2  0  0  0  0  0  0
  188.9310  178.6040  138.2500 C   0  0  0  0  0  2  0  0  0  0  0  0
  189.1160  177.3600  137.3970 C   0  0  0  0  0  2  0  0  0  0  0  0
  191.3170  176.2130  137.8720 C   0  0  0  0  0  0  0  0  0  0  0  0
  190.5300  177.1480  137.1270 N   0  0  0  0  0  2  0  0  0  0  0  0
  190.8200  175.5940  138.8490 O   0  0  0  0  0  0  0  0  0  0  0  0
  193.5960  176.6460  138.3930 O   0  0  0  0  0  1  0  0  0  0  0  0
  192.7480  175.9770  137.5090 C   0  0  1  0  0  3  0  0  0  0  0  0
  194.3550  174.2480  137.9880 O   0  0  0  0  0  1  0  0  0  0  0  0
  193.0830  174.4890  137.4630 C   0  0  0  0  0  2  0  0  0  0  0  0
  1  3  1  0  0  0  0
  2  1  2  0  0  0  0
  3  7  2  0  0  0  0
  3  5  1  0  0  0  0
  4 10  2  0  0  0  0
  4  9  1  0  0  0  0
  5  6  1  0  0  0  0
  6  9  2  0  0  0  0
  7  4  1  0  0  0  0
  8  7  1  0  0  0  0
  8 11  2  0  0  0  0
  9 19  1  0  0  0  0
 11 10  1  0  0  0  0
 12 16  1  0  0  0  0
 13 15  2  0  0  0  0
 13 14  1  0  0  0  0
 14 12  2  0  0  0  0
 15 17  1  0  0  0  0
 16 11  1  0  0  0  0
 17 16  2  0  0  0  0
 19 18  1  0  0  0  0
 20 21  1  0  0  0  0
 20  1  1  0  0  0  0
 22 21  1  0  0  0  0
 22 23  1  0  0  0  0
 24 23  1  0  0  0  0
 24 25  1  0  0  0  0
 25 26  2  0  0  0  0
 27  2  1  0  0  0  0
 28 27  1  0  0  0  0
 28 29  1  0  0  0  0
 30 29  1  0  0  0  0
 31 30  1  0  0  0  0
 32 34  2  0  0  0  0
 33 31  1  0  0  0  0
 33 32  1  0  0  0  0
 36 32  1  0  0  0  0
 36 35  1  1  0  0  0
 38 36  1  0  0  0  0
 38 37  1  0  0  0  0
M  END
>  <MODEL>
9

>  <REMARK>
 VINA RESULT:      -7.3      3.381      6.443
  Name = 
  17 active torsions:
  status: ('A' for Active; 'I' for Inactive)
    1  A    between atoms: C_1  and  C_11
    2  A    between atoms: C_3  and  C_38
    3  A    between atoms: N_4  and  C_23
    4  A    between atoms: C_5  and  C_6
    5  A    between atoms: C_5  and  N_7
    6  A    between atoms: C_6  and  C_21
    7  A    between atoms: N_7  and  C_31
    8  A    between atoms: C_11  and  C_27
    9  A    between atoms: N_18  and  N_20
   10  A    between atoms: N_18  and  O_36
   11  A    between atoms: C_19  and  C_32
   12  A    between atoms: N_20  and  C_32
   13  A    between atoms: C_23  and  C_31
   14  A    between atoms: C_24  and  C_38
   15  A    between atoms: O_26  and  C_28
   16  A    between atoms: C_27  and  O_36
   17  A    between atoms: C_30  and  C_35
                            x       y       z     vdW  Elec       q    Type
                         _______ _______ _______ _____ _____    ______ ____

>  <TORSDO>
F 17

$$$$
