=
 OpenBabel10222417353D

 57 64  0  0  1  0  0  0  0  0999 V2000
  182.2860  176.2270  135.5730 C   0  0  0  0  0  2  0  0  0  0  0  0
  181.7690  176.0310  136.9960 C   0  0  2  0  0  3  0  0  0  0  0  0
  182.6530  177.6870  135.2970 C   0  0  0  0  0  2  0  0  0  0  0  0
  183.0720  178.4770  136.5470 C   0  0  0  0  0  2  0  0  0  0  0  0
  183.7320  177.6070  137.6250 C   0  0  1  0  0  3  0  0  0  0  0  0
  182.8390  176.4260  138.0310 C   0  0  1  0  0  3  0  0  0  0  0  0
  181.6670  172.2280  137.1940 C   0  0  0  0  0  3  0  0  0  0  0  0
  179.9760  174.4140  137.6280 C   0  0  0  0  0  3  0  0  0  0  0  0
  180.3530  172.0190  137.6230 C   0  0  0  0  0  3  0  0  0  0  0  0
  182.1360  173.5290  136.9830 C   0  0  0  0  0  3  0  0  0  0  0  0
  179.5080  173.1120  137.8400 C   0  0  0  0  0  3  0  0  0  0  0  0
  181.2910  174.6280  137.2020 C   0  0  0  0  0  0  0  0  0  0  0  0
  186.4330  177.8410  137.5600 S   0  0  0  0  0  0  0  0  0  0  0  0
  185.0600  177.0930  137.1630 C   0  0  0  0  0  2  0  0  0  0  0  0
  187.6440  177.0150  136.5220 C   0  0  0  0  0  2  0  0  0  0  0  0
  189.7230  177.1100  137.7860 C   0  0  0  0  0  3  0  0  0  0  0  0
  188.6920  176.3820  137.3690 C   0  0  0  0  0  3  0  0  0  0  0  0
  190.8330  176.5590  138.6520 C   0  0  2  0  0  3  0  0  0  0  0  0
  191.8580  179.2640  143.3360 F   0  0  0  0  0  0  0  0  0  0  0  0
  191.8820  177.2230  140.6580 C   0  0  0  0  0  2  0  0  0  0  0  0
  188.9940  177.0560  142.4650 C   0  0  0  0  0  2  0  0  0  0  0  0
  188.6510  177.2510  140.9870 C   0  0  0  0  0  2  0  0  0  0  0  0
  191.1620  178.2100  142.8420 C   0  0  0  0  0  0  0  0  0  0  0  0
  191.9160  177.0920  142.1770 C   0  0  0  0  0  2  0  0  0  0  0  0
  189.7330  177.7630  140.2450 O   0  0  0  0  0  0  0  0  0  0  0  0
  190.6180  176.7390  140.0980 N   0  0  0  0  0  0  0  0  0  0  0  0
  189.8310  178.1810  142.9930 C   0  0  0  0  0  3  0  0  0  0  0  0
  192.1250  176.9390  138.2130 O   0  0  0  0  0  0  0  0  0  0  0  0
  192.6920  174.7410  137.4840 C   0  0  0  0  0  1  0  0  0  0  0  0
  192.4760  176.1860  137.0810 C   0  0  0  0  0  2  0  0  0  0  0  0
  182.3420  176.4860  139.4860 C   0  0  0  0  0  2  0  0  0  0  0  0
  182.5210  177.8110  140.2720 C   0  0  2  0  0  3  0  0  0  0  0  0
  185.0590  178.1120  143.7410 C   0  0  2  0  0  3  0  0  0  0  0  0
  185.7620  178.3160  142.3880 C   0  0  0  0  0  2  0  0  0  0  0  0
  183.2990  179.5370  144.6120 O   0  0  0  0  0  0  0  0  0  0  0  0
  183.7260  178.8150  143.6730 C   0  0  0  0  0  0  0  0  0  0  0  0
  182.9740  178.6710  142.5100 O   0  0  0  0  0  0  0  0  0  0  0  0
  183.4100  177.7560  141.5110 C   0  0  2  0  0  3  0  0  0  0  0  0
  184.8840  177.9940  141.1600 C   0  0  0  0  0  2  0  0  0  0  0  0
  187.5890  177.1060  148.5270 C   0  0  0  0  0  2  0  0  0  0  0  0
  187.8590  178.5820  148.7880 C   0  0  0  0  0  2  0  0  0  0  0  0
  188.0350  178.1470  146.2430 C   0  0  0  0  0  2  0  0  0  0  0  0
  185.1300  178.5270  146.2120 C   0  0  0  0  0  3  0  0  0  0  0  0
  185.9340  178.5520  144.9280 C   0  0  1  0  0  3  0  0  0  0  0  0
  185.7080  178.3740  147.4130 C   0  0  0  0  0  3  0  0  0  0  0  0
  187.1880  178.1450  147.5080 C   0  0  0  0  0  0  0  0  0  0  0  0
  187.1900  177.6740  145.0640 C   0  0  0  0  0  2  0  0  0  0  0  0
  180.3660  178.0120  141.2520 N   0  0  0  0  0  2  0  0  0  0  0  0
  180.4800  178.5540  139.2680 C   0  0  1  0  0  3  0  0  0  0  0  0
  181.3270  178.6630  140.4490 N   0  0  0  0  0  0  0  0  0  0  0  0
  179.4480  177.8840  140.1300 C   0  0  0  0  0  2  0  0  0  0  0  0
  179.9890  179.9300  138.8340 C   0  0  1  0  0  3  0  0  0  0  0  0
  181.0710  180.9950  139.0910 C   0  0  0  0  0  2  0  0  0  0  0  0
  180.5140  181.0810  136.8600 C   0  0  0  0  0  0  0  0  0  0  0  0
  179.7100  179.9400  137.3280 C   0  0  0  0  0  2  0  0  0  0  0  0
  181.2540  181.6590  137.8580 O   0  0  0  0  0  0  0  0  0  0  0  0
  180.5270  181.4860  135.6680 O   0  0  0  0  0  0  0  0  0  0  0  0
  1  2  1  0  0  0  0
  2 12  1  6  0  0  0
  2  6  1  0  0  0  0
  3  1  1  0  0  0  0
  3  4  1  0  0  0  0
  4  5  1  0  0  0  0
  5 14  1  6  0  0  0
  5  6  1  0  0  0  0
  6 31  1  1  0  0  0
  7  9  1  0  0  0  0
  8 11  1  0  0  0  0
  9 11  2  0  0  0  0
 10  7  2  0  0  0  0
 10 12  1  0  0  0  0
 12  8  2  0  0  0  0
 14 13  1  0  0  0  0
 15 17  1  0  0  0  0
 15 13  1  0  0  0  0
 17 16  2  0  0  0  0
 18 16  1  6  0  0  0
 18 26  1  0  0  0  0
 20 24  1  0  0  0  0
 21 27  1  0  0  0  0
 22 21  1  0  0  0  0
 23 27  2  0  0  0  0
 23 19  1  0  0  0  0
 24 23  1  0  0  0  0
 25 22  1  0  0  0  0
 26 25  1  0  0  0  0
 26 20  1  0  0  0  0
 28 18  1  0  0  0  0
 30 29  1  0  0  0  0
 30 28  1  0  0  0  0
 32 31  1  1  0  0  0
 32 50  1  0  0  0  0
 33 34  1  6  0  0  0
 33 44  1  0  0  0  0
 36 33  1  0  0  0  0
 36 35  2  0  0  0  0
 37 36  1  0  0  0  0
 38 32  1  6  0  0  0
 38 37  1  0  0  0  0
 39 38  1  0  0  0  0
 39 34  1  0  0  0  0
 40 41  1  0  0  0  0
 42 46  1  0  0  0  0
 43 45  2  0  0  0  0
 44 47  1  1  0  0  0
 44 43  1  0  0  0  0
 45 46  1  0  0  0  0
 46 40  1  0  0  0  0
 46 41  1  0  0  0  0
 47 42  1  0  0  0  0
 49 51  1  1  0  0  0
 49 50  1  0  0  0  0
 50 48  1  0  0  0  0
 51 48  1  0  0  0  0
 52 55  1  6  0  0  0
 52 53  1  0  0  0  0
 52 49  1  0  0  0  0
 54 55  1  0  0  0  0
 54 56  1  0  0  0  0
 56 53  1  0  0  0  0
 57 54  2  0  0  0  0
M  END
>  <MODEL>
1

>  <REMARK>
 VINA RESULT:      -8.3      0.000      0.000
  Name = 
  14 active torsions:
  status: ('A' for Active; 'I' for Inactive)
    1  A    between atoms: C_5  and  C_34
    2  A    between atoms: C_10  and  C_14
    3  A    between atoms: C_11  and  C_26
    4  A    between atoms: C_11  and  C_38
    5  A    between atoms: C_16  and  C_56
    6  A    between atoms: S_22  and  C_36
    7  A    between atoms: C_26  and  N_37
    8  A    between atoms: C_26  and  C_51
    9  A    between atoms: C_28  and  O_40
   10  A    between atoms: C_28  and  C_41
   11  A    between atoms: C_28  and  N_47
   12  A    between atoms: C_29  and  C_43
   13  A    between atoms: C_36  and  C_44
   14  A    between atoms: O_40  and  C_48
                            x       y       z     vdW  Elec       q    Type
                         _______ _______ _______ _____ _____    ______ ____

>  <TORSDO>
F 14

$$$$
=
 OpenBabel10222417353D

 57 64  0  0  1  0  0  0  0  0999 V2000
  181.4220  176.6470  135.9150 C   0  0  0  0  0  2  0  0  0  0  0  0
  181.0510  176.4810  137.3860 C   0  0  2  0  0  3  0  0  0  0  0  0
  181.9620  178.0480  135.6180 C   0  0  0  0  0  2  0  0  0  0  0  0
  182.6330  178.7300  136.8210 C   0  0  0  0  0  2  0  0  0  0  0  0
  183.2800  177.7420  137.8000 C   0  0  1  0  0  3  0  0  0  0  0  0
  182.2790  176.6880  138.2920 C   0  0  1  0  0  3  0  0  0  0  0  0
  179.8940  172.8770  136.9470 C   0  0  0  0  0  3  0  0  0  0  0  0
  179.6900  174.9500  138.8140 C   0  0  0  0  0  3  0  0  0  0  0  0
  179.1870  172.6780  138.1350 C   0  0  0  0  0  3  0  0  0  0  0  0
  180.5010  174.1130  136.6910 C   0  0  0  0  0  3  0  0  0  0  0  0
  179.0850  173.7150  139.0690 C   0  0  0  0  0  3  0  0  0  0  0  0
  180.4020  175.1540  137.6270 C   0  0  0  0  0  0  0  0  0  0  0  0
  185.9680  177.4940  137.5380 S   0  0  0  0  0  0  0  0  0  0  0  0
  184.4570  177.0600  137.1750 C   0  0  0  0  0  2  0  0  0  0  0  0
  186.9370  176.6000  136.3190 C   0  0  0  0  0  2  0  0  0  0  0  0
  188.7910  176.9620  137.8560 C   0  0  0  0  0  3  0  0  0  0  0  0
  188.2520  176.2140  136.8990 C   0  0  0  0  0  3  0  0  0  0  0  0
  190.1180  176.6490  138.5090 C   0  0  2  0  0  3  0  0  0  0  0  0
  195.1090  174.5020  137.6200 F   0  0  0  0  0  0  0  0  0  0  0  0
  192.3930  176.4710  137.9090 C   0  0  0  0  0  2  0  0  0  0  0  0
  191.8760  173.7250  135.9540 C   0  0  0  0  0  2  0  0  0  0  0  0
  190.7500  173.8260  136.9850 C   0  0  0  0  0  2  0  0  0  0  0  0
  193.9020  174.6810  137.0270 C   0  0  0  0  0  0  0  0  0  0  0  0
  193.3940  176.0820  136.8270 C   0  0  0  0  0  2  0  0  0  0  0  0
  191.0970  174.6350  138.0840 O   0  0  0  0  0  0  0  0  0  0  0  0
  191.0620  175.9220  137.6430 N   0  0  0  0  0  0  0  0  0  0  0  0
  193.2180  173.6080  136.6070 C   0  0  0  0  0  3  0  0  0  0  0  0
  189.9870  176.0950  139.8050 O   0  0  0  0  0  0  0  0  0  0  0  0
  189.2070  177.8040  141.2730 C   0  0  0  0  0  1  0  0  0  0  0  0
  190.4080  177.0330  140.7620 C   0  0  0  0  0  2  0  0  0  0  0  0
  181.9680  176.7710  139.7970 C   0  0  0  0  0  2  0  0  0  0  0  0
  182.3360  178.0740  140.5540 C   0  0  2  0  0  3  0  0  0  0  0  0
  185.2480  178.1740  143.7280 C   0  0  2  0  0  3  0  0  0  0  0  0
  185.7700  178.5830  142.3390 C   0  0  0  0  0  2  0  0  0  0  0  0
  183.5200  179.3530  144.9560 O   0  0  0  0  0  0  0  0  0  0  0  0
  183.8760  178.7770  143.8940 C   0  0  0  0  0  0  0  0  0  0  0  0
  182.9990  178.7080  142.8140 O   0  0  0  0  0  0  0  0  0  0  0  0
  183.3680  177.9470  141.6690 C   0  0  2  0  0  3  0  0  0  0  0  0
  184.7720  178.3350  141.1870 C   0  0  0  0  0  2  0  0  0  0  0  0
  188.2670  176.8640  148.1420 C   0  0  0  0  0  2  0  0  0  0  0  0
  188.5350  178.3210  148.4930 C   0  0  0  0  0  2  0  0  0  0  0  0
  188.4610  178.0930  145.9170 C   0  0  0  0  0  2  0  0  0  0  0  0
  185.5610  178.3960  146.2050 C   0  0  0  0  0  3  0  0  0  0  0  0
  186.2300  178.5430  144.8530 C   0  0  1  0  0  3  0  0  0  0  0  0
  186.2600  178.1650  147.3260 C   0  0  0  0  0  3  0  0  0  0  0  0
  187.7460  177.9690  147.2550 C   0  0  0  0  0  0  0  0  0  0  0  0
  187.5100  177.6910  144.7930 C   0  0  0  0  0  2  0  0  0  0  0  0
  180.2700  178.3660  141.6910 N   0  0  0  0  0  2  0  0  0  0  0  0
  180.3120  179.0710  139.7550 C   0  0  1  0  0  3  0  0  0  0  0  0
  181.2350  179.0030  140.8820 N   0  0  0  0  0  0  0  0  0  0  0  0
  179.2790  178.4150  140.6260 C   0  0  0  0  0  2  0  0  0  0  0  0
  179.9210  180.5170  139.4720 C   0  0  1  0  0  3  0  0  0  0  0  0
  181.1530  181.3370  139.0500 C   0  0  0  0  0  2  0  0  0  0  0  0
  179.5790  181.5240  137.3830 C   0  0  0  0  0  0  0  0  0  0  0  0
  178.9310  180.5750  138.3040 C   0  0  0  0  0  2  0  0  0  0  0  0
  180.8070  181.9430  137.8220 O   0  0  0  0  0  0  0  0  0  0  0  0
  179.0640  181.9110  136.3010 O   0  0  0  0  0  0  0  0  0  0  0  0
  1  2  1  0  0  0  0
  2 12  1  6  0  0  0
  2  6  1  0  0  0  0
  3  1  1  0  0  0  0
  3  4  1  0  0  0  0
  4  5  1  0  0  0  0
  5 14  1  6  0  0  0
  5  6  1  0  0  0  0
  6 31  1  1  0  0  0
  7  9  1  0  0  0  0
  8 11  1  0  0  0  0
  9 11  2  0  0  0  0
 10  7  2  0  0  0  0
 10 12  1  0  0  0  0
 12  8  2  0  0  0  0
 14 13  1  0  0  0  0
 15 17  1  0  0  0  0
 15 13  1  0  0  0  0
 17 16  2  0  0  0  0
 18 16  1  6  0  0  0
 18 28  1  0  0  0  0
 21 27  1  0  0  0  0
 21 22  1  0  0  0  0
 22 25  1  0  0  0  0
 23 19  1  0  0  0  0
 24 23  1  0  0  0  0
 24 20  1  0  0  0  0
 26 20  1  0  0  0  0
 26 25  1  0  0  0  0
 26 18  1  0  0  0  0
 27 23  2  0  0  0  0
 28 30  1  0  0  0  0
 30 29  1  0  0  0  0
 32 31  1  1  0  0  0
 32 50  1  0  0  0  0
 33 34  1  6  0  0  0
 33 36  1  0  0  0  0
 33 44  1  0  0  0  0
 36 35  2  0  0  0  0
 37 36  1  0  0  0  0
 38 32  1  6  0  0  0
 38 37  1  0  0  0  0
 39 38  1  0  0  0  0
 39 34  1  0  0  0  0
 40 41  1  0  0  0  0
 42 46  1  0  0  0  0
 43 45  2  0  0  0  0
 44 47  1  1  0  0  0
 44 43  1  0  0  0  0
 46 45  1  0  0  0  0
 46 40  1  0  0  0  0
 46 41  1  0  0  0  0
 47 42  1  0  0  0  0
 49 51  1  1  0  0  0
 49 50  1  0  0  0  0
 50 48  1  0  0  0  0
 51 48  1  0  0  0  0
 52 55  1  6  0  0  0
 52 49  1  0  0  0  0
 53 52  1  0  0  0  0
 54 56  1  0  0  0  0
 54 55  1  0  0  0  0
 56 53  1  0  0  0  0
 57 54  2  0  0  0  0
M  END
>  <MODEL>
2

>  <REMARK>
 VINA RESULT:      -8.2      1.533      2.798
  Name = 
  14 active torsions:
  status: ('A' for Active; 'I' for Inactive)
    1  A    between atoms: C_5  and  C_34
    2  A    between atoms: C_10  and  C_14
    3  A    between atoms: C_11  and  C_26
    4  A    between atoms: C_11  and  C_38
    5  A    between atoms: C_16  and  C_56
    6  A    between atoms: S_22  and  C_36
    7  A    between atoms: C_26  and  N_37
    8  A    between atoms: C_26  and  C_51
    9  A    between atoms: C_28  and  O_40
   10  A    between atoms: C_28  and  C_41
   11  A    between atoms: C_28  and  N_47
   12  A    between atoms: C_29  and  C_43
   13  A    between atoms: C_36  and  C_44
   14  A    between atoms: O_40  and  C_48
                            x       y       z     vdW  Elec       q    Type
                         _______ _______ _______ _____ _____    ______ ____

>  <TORSDO>
F 14

$$$$
=
 OpenBabel10222417353D

 57 64  0  0  1  0  0  0  0  0999 V2000
  182.6690  178.6070  143.0890 C   0  0  0  0  0  2  0  0  0  0  0  0
  184.0990  179.0720  142.8300 C   0  0  2  0  0  3  0  0  0  0  0  0
  181.6880  179.1800  142.0630 C   0  0  0  0  0  2  0  0  0  0  0  0
  182.3210  179.4980  140.6990 C   0  0  0  0  0  2  0  0  0  0  0  0
  183.5070  178.5890  140.3500 C   0  0  1  0  0  3  0  0  0  0  0  0
  184.5860  178.6140  141.4420 C   0  0  1  0  0  3  0  0  0  0  0  0
  186.7220  177.1060  144.7700 C   0  0  0  0  0  3  0  0  0  0  0  0
  185.0290  179.3030  145.1340 C   0  0  0  0  0  3  0  0  0  0  0  0
  186.7330  177.8020  145.9820 C   0  0  0  0  0  3  0  0  0  0  0  0
  185.8650  177.5080  143.7390 C   0  0  0  0  0  3  0  0  0  0  0  0
  185.8870  178.9000  146.1640 C   0  0  0  0  0  3  0  0  0  0  0  0
  185.0160  178.6120  143.9180 C   0  0  0  0  0  0  0  0  0  0  0  0
  181.9510  176.8210  139.0060 S   0  0  0  0  0  0  0  0  0  0  0  0
  183.0560  177.1790  140.1250 C   0  0  0  0  0  2  0  0  0  0  0  0
  181.5710  175.1030  139.3660 C   0  0  0  0  0  2  0  0  0  0  0  0
  181.8650  174.7010  136.9820 C   0  0  0  0  0  3  0  0  0  0  0  0
  181.2350  174.3820  138.1080 C   0  0  0  0  0  3  0  0  0  0  0  0
  181.5970  174.0230  135.6580 C   0  0  2  0  0  3  0  0  0  0  0  0
  186.6040  171.8270  136.3000 F   0  0  0  0  0  0  0  0  0  0  0  0
  183.9260  173.6930  135.4750 C   0  0  0  0  0  2  0  0  0  0  0  0
  183.6020  170.4060  134.6250 C   0  0  0  0  0  2  0  0  0  0  0  0
  182.3530  170.8530  135.3860 C   0  0  0  0  0  2  0  0  0  0  0  0
  185.4920  171.7420  135.5280 C   0  0  0  0  0  0  0  0  0  0  0  0
  185.0510  172.9560  134.7570 C   0  0  0  0  0  2  0  0  0  0  0  0
  182.5720  172.0200  136.1430 O   0  0  0  0  0  0  0  0  0  0  0  0
  182.6280  173.0510  135.2560 N   0  0  0  0  0  0  0  0  0  0  0  0
  184.8430  170.5730  135.4480 C   0  0  0  0  0  3  0  0  0  0  0  0
  181.2310  174.9260  134.6310 O   0  0  0  0  0  0  0  0  0  0  0  0
  180.3960  177.1550  134.7680 C   0  0  0  0  0  1  0  0  0  0  0  0
  181.5750  176.2330  135.0110 C   0  0  0  0  0  2  0  0  0  0  0  0
  185.9230  179.2250  140.9890 C   0  0  0  0  0  2  0  0  0  0  0  0
  186.9700  178.2940  140.3240 C   0  0  2  0  0  3  0  0  0  0  0  0
  190.3430  177.4940  142.8830 C   0  0  2  0  0  3  0  0  0  0  0  0
  189.6060  178.8170  143.1550 C   0  0  0  0  0  2  0  0  0  0  0  0
  189.3520  175.2910  143.1020 O   0  0  0  0  0  0  0  0  0  0  0  0
  189.3010  176.4420  142.5970 C   0  0  0  0  0  0  0  0  0  0  0  0
  188.2380  176.7890  141.7660 O   0  0  0  0  0  0  0  0  0  0  0  0
  188.2590  178.0490  141.1030 C   0  0  2  0  0  3  0  0  0  0  0  0
  188.5430  179.1820  142.0970 C   0  0  0  0  0  2  0  0  0  0  0  0
  191.4780  174.9400  147.6270 C   0  0  0  0  0  2  0  0  0  0  0  0
  192.7910  175.6900  147.8110 C   0  0  0  0  0  2  0  0  0  0  0  0
  192.4320  175.2610  145.2850 C   0  0  0  0  0  2  0  0  0  0  0  0
  190.8440  177.7230  145.3290 C   0  0  0  0  0  3  0  0  0  0  0  0
  191.3100  177.1180  144.0200 C   0  0  1  0  0  3  0  0  0  0  0  0
  191.1670  177.1890  146.5160 C   0  0  0  0  0  3  0  0  0  0  0  0
  191.9540  175.9130  146.5750 C   0  0  0  0  0  0  0  0  0  0  0  0
  191.4600  175.5940  144.1560 C   0  0  0  0  0  2  0  0  0  0  0  0
  186.0140  178.9050  138.2360 N   0  0  0  0  0  2  0  0  0  0  0  0
  187.0790  177.1410  138.2300 C   0  0  1  0  0  3  0  0  0  0  0  0
  187.1880  178.4460  138.8710 N   0  0  0  0  0  0  0  0  0  0  0  0
  185.8430  177.6400  137.5370 C   0  0  0  0  0  2  0  0  0  0  0  0
  188.2050  176.9450  137.2210 C   0  0  1  0  0  3  0  0  0  0  0  0
  189.5190  176.5890  137.9410 C   0  0  0  0  0  2  0  0  0  0  0  0
  189.0740  174.9200  136.4220 C   0  0  0  0  0  0  0  0  0  0  0  0
  187.8800  175.7720  136.2900 C   0  0  0  0  0  2  0  0  0  0  0  0
  189.9760  175.3980  137.3360 O   0  0  0  0  0  0  0  0  0  0  0  0
  189.2510  173.8590  135.7670 O   0  0  0  0  0  0  0  0  0  0  0  0
  2  1  1  0  0  0  0
  2 12  1  1  0  0  0
  3  1  1  0  0  0  0
  4  3  1  0  0  0  0
  5 14  1  1  0  0  0
  5  4  1  0  0  0  0
  5  6  1  0  0  0  0
  6 31  1  6  0  0  0
  6  2  1  0  0  0  0
  7  9  1  0  0  0  0
  8 11  1  0  0  0  0
  9 11  2  0  0  0  0
 10 12  1  0  0  0  0
 10  7  2  0  0  0  0
 12  8  2  0  0  0  0
 13 15  1  0  0  0  0
 13 14  1  0  0  0  0
 16 17  2  0  0  0  0
 17 15  1  0  0  0  0
 18 16  1  1  0  0  0
 21 22  1  0  0  0  0
 21 27  1  0  0  0  0
 22 25  1  0  0  0  0
 23 19  1  0  0  0  0
 24 20  1  0  0  0  0
 24 23  1  0  0  0  0
 26 20  1  0  0  0  0
 26 18  1  0  0  0  0
 26 25  1  0  0  0  0
 27 23  2  0  0  0  0
 28 30  1  0  0  0  0
 28 18  1  0  0  0  0
 29 30  1  0  0  0  0
 32 31  1  1  0  0  0
 33 34  1  1  0  0  0
 33 44  1  0  0  0  0
 36 33  1  0  0  0  0
 36 35  2  0  0  0  0
 37 36  1  0  0  0  0
 38 32  1  1  0  0  0
 38 37  1  0  0  0  0
 38 39  1  0  0  0  0
 39 34  1  0  0  0  0
 40 41  1  0  0  0  0
 42 46  1  0  0  0  0
 43 45  2  0  0  0  0
 44 47  1  1  0  0  0
 44 43  1  0  0  0  0
 45 46  1  0  0  0  0
 46 40  1  0  0  0  0
 46 41  1  0  0  0  0
 47 42  1  0  0  0  0
 48 50  1  0  0  0  0
 49 51  1  6  0  0  0
 49 50  1  0  0  0  0
 50 32  1  0  0  0  0
 51 48  1  0  0  0  0
 52 55  1  6  0  0  0
 52 53  1  0  0  0  0
 52 49  1  0  0  0  0
 54 56  1  0  0  0  0
 55 54  1  0  0  0  0
 56 53  1  0  0  0  0
 57 54  2  0  0  0  0
M  END
>  <MODEL>
3

>  <REMARK>
 VINA RESULT:      -7.6      3.439      8.315
  Name = 
  14 active torsions:
  status: ('A' for Active; 'I' for Inactive)
    1  A    between atoms: C_5  and  C_34
    2  A    between atoms: C_10  and  C_14
    3  A    between atoms: C_11  and  C_26
    4  A    between atoms: C_11  and  C_38
    5  A    between atoms: C_16  and  C_56
    6  A    between atoms: S_22  and  C_36
    7  A    between atoms: C_26  and  N_37
    8  A    between atoms: C_26  and  C_51
    9  A    between atoms: C_28  and  O_40
   10  A    between atoms: C_28  and  C_41
   11  A    between atoms: C_28  and  N_47
   12  A    between atoms: C_29  and  C_43
   13  A    between atoms: C_36  and  C_44
   14  A    between atoms: O_40  and  C_48
                            x       y       z     vdW  Elec       q    Type
                         _______ _______ _______ _____ _____    ______ ____

>  <TORSDO>
F 14

$$$$
=
 OpenBabel10222417353D

 57 64  0  0  1  0  0  0  0  0999 V2000
  188.9790  178.9210  139.4370 C   0  0  0  0  0  2  0  0  0  0  0  0
  189.8680  177.6980  139.2310 C   0  0  2  0  0  3  0  0  0  0  0  0
  188.5340  179.5340  138.1070 C   0  0  0  0  0  2  0  0  0  0  0  0
  188.4660  178.5300  136.9450 C   0  0  0  0  0  2  0  0  0  0  0  0
  188.1360  177.1000  137.3930 C   0  0  1  0  0  3  0  0  0  0  0  0
  189.1190  176.5950  138.4590 C   0  0  1  0  0  3  0  0  0  0  0  0
  190.1190  175.9940  142.6290 C   0  0  0  0  0  3  0  0  0  0  0  0
  191.7290  177.4650  140.8780 C   0  0  0  0  0  3  0  0  0  0  0  0
  191.4490  176.2620  142.9630 C   0  0  0  0  0  3  0  0  0  0  0  0
  189.5930  176.4610  141.4180 C   0  0  0  0  0  3  0  0  0  0  0  0
  192.2540  176.9970  142.0880 C   0  0  0  0  0  3  0  0  0  0  0  0
  190.3990  177.1970  140.5370 C   0  0  0  0  0  0  0  0  0  0  0  0
  185.5670  177.9680  137.3580 S   0  0  0  0  0  0  0  0  0  0  0  0
  186.7380  177.0110  137.9210 C   0  0  0  0  0  2  0  0  0  0  0  0
  184.2260  177.6650  138.5130 C   0  0  0  0  0  2  0  0  0  0  0  0
  184.0520  178.1780  140.8880 C   0  0  0  0  0  3  0  0  0  0  0  0
  184.3190  178.6100  139.6590 C   0  0  0  0  0  3  0  0  0  0  0  0
  184.1240  179.0590  142.1140 C   0  0  2  0  0  3  0  0  0  0  0  0
  188.7560  178.0410  144.9100 F   0  0  0  0  0  0  0  0  0  0  0  0
  186.1430  178.0410  142.7860 C   0  0  0  0  0  2  0  0  0  0  0  0
  185.2230  177.9090  146.0680 C   0  0  0  0  0  2  0  0  0  0  0  0
  184.4310  179.0150  145.3690 C   0  0  0  0  0  2  0  0  0  0  0  0
  187.4230  177.7860  144.9210 C   0  0  0  0  0  0  0  0  0  0  0  0
  186.8140  177.0670  143.7490 C   0  0  0  0  0  2  0  0  0  0  0  0
  185.0360  179.4350  144.1690 O   0  0  0  0  0  0  0  0  0  0  0  0
  184.8170  178.4460  143.2600 N   0  0  0  0  0  0  0  0  0  0  0  0
  186.7000  178.1480  145.9880 C   0  0  0  0  0  3  0  0  0  0  0  0
  182.8830  179.6550  142.4480 O   0  0  0  0  0  0  0  0  0  0  0  0
  181.2600  178.5160  143.7710 C   0  0  0  0  0  1  0  0  0  0  0  0
  181.8670  178.6870  142.3920 C   0  0  0  0  0  2  0  0  0  0  0  0
  189.9950  175.4170  137.9980 C   0  0  0  0  0  2  0  0  0  0  0  0
  189.9680  175.0220  136.4990 C   0  0  2  0  0  3  0  0  0  0  0  0
  186.4730  172.7070  135.5010 C   0  0  2  0  0  3  0  0  0  0  0  0
  187.0370  172.4770  136.9140 C   0  0  0  0  0  2  0  0  0  0  0  0
  185.5970  174.8200  134.6900 O   0  0  0  0  0  0  0  0  0  0  0  0
  186.5510  174.1860  135.2150 C   0  0  0  0  0  0  0  0  0  0  0  0
  187.7140  174.8590  135.5780 O   0  0  0  0  0  0  0  0  0  0  0  0
  188.8280  174.1110  136.0540 C   0  0  2  0  0  3  0  0  0  0  0  0
  188.4020  173.1500  137.1720 C   0  0  0  0  0  2  0  0  0  0  0  0
  181.0670  172.6870  136.5490 C   0  0  0  0  0  2  0  0  0  0  0  0
  180.8770  171.2940  135.9650 C   0  0  0  0  0  2  0  0  0  0  0  0
  182.6960  172.5210  134.5950 C   0  0  0  0  0  2  0  0  0  0  0  0
  184.5560  171.5710  136.6500 C   0  0  0  0  0  3  0  0  0  0  0  0
  185.0640  172.1140  135.3290 C   0  0  1  0  0  3  0  0  0  0  0  0
  183.2470  171.4630  136.9210 C   0  0  0  0  0  3  0  0  0  0  0  0
  182.2330  171.9550  135.9300 C   0  0  0  0  0  0  0  0  0  0  0  0
  184.0780  173.1480  134.7600 C   0  0  0  0  0  2  0  0  0  0  0  0
  191.1120  173.6080  134.9700 N   0  0  0  0  0  2  0  0  0  0  0  0
  192.0620  173.8970  136.7760 C   0  0  1  0  0  3  0  0  0  0  0  0
  191.2590  174.6950  135.8580 N   0  0  0  0  0  0  0  0  0  0  0  0
  191.9260  172.7480  135.8180 C   0  0  0  0  0  2  0  0  0  0  0  0
  193.5020  174.3960  136.7980 C   0  0  1  0  0  3  0  0  0  0  0  0
  193.6020  175.7220  137.5730 C   0  0  0  0  0  2  0  0  0  0  0  0
  195.0500  174.2250  138.5510 C   0  0  0  0  0  0  0  0  0  0  0  0
  194.3970  173.3890  137.5280 C   0  0  0  0  0  2  0  0  0  0  0  0
  194.6010  175.5190  138.5510 O   0  0  0  0  0  0  0  0  0  0  0  0
  195.9270  173.7980  139.3470 O   0  0  0  0  0  0  0  0  0  0  0  0
  2  1  1  0  0  0  0
  2 12  1  1  0  0  0
  3  1  1  0  0  0  0
  4  5  1  0  0  0  0
  4  3  1  0  0  0  0
  5 14  1  1  0  0  0
  5  6  1  0  0  0  0
  6 31  1  6  0  0  0
  6  2  1  0  0  0  0
  7  9  1  0  0  0  0
  8 11  1  0  0  0  0
 10  7  2  0  0  0  0
 11  9  2  0  0  0  0
 12  8  2  0  0  0  0
 12 10  1  0  0  0  0
 13 14  1  0  0  0  0
 13 15  1  0  0  0  0
 15 17  1  0  0  0  0
 17 16  2  0  0  0  0
 18 16  1  6  0  0  0
 18 28  1  0  0  0  0
 18 26  1  0  0  0  0
 19 23  1  0  0  0  0
 20 26  1  0  0  0  0
 20 24  1  0  0  0  0
 22 21  1  0  0  0  0
 23 27  2  0  0  0  0
 24 23  1  0  0  0  0
 25 22  1  0  0  0  0
 26 25  1  0  0  0  0
 27 21  1  0  0  0  0
 30 28  1  0  0  0  0
 30 29  1  0  0  0  0
 32 31  1  1  0  0  0
 33 34  1  1  0  0  0
 34 39  1  0  0  0  0
 35 36  2  0  0  0  0
 36 33  1  0  0  0  0
 36 37  1  0  0  0  0
 37 38  1  0  0  0  0
 38 32  1  1  0  0  0
 38 39  1  0  0  0  0
 41 40  1  0  0  0  0
 42 47  1  0  0  0  0
 42 46  1  0  0  0  0
 43 45  2  0  0  0  0
 44 47  1  1  0  0  0
 44 33  1  0  0  0  0
 44 43  1  0  0  0  0
 46 41  1  0  0  0  0
 46 40  1  0  0  0  0
 46 45  1  0  0  0  0
 48 51  1  0  0  0  0
 48 50  1  0  0  0  0
 49 51  1  6  0  0  0
 49 52  1  0  0  0  0
 50 32  1  0  0  0  0
 50 49  1  0  0  0  0
 52 55  1  1  0  0  0
 52 53  1  0  0  0  0
 53 56  1  0  0  0  0
 54 56  1  0  0  0  0
 54 57  2  0  0  0  0
 55 54  1  0  0  0  0
M  END
>  <MODEL>
4

>  <REMARK>
 VINA RESULT:      -7.2      2.819     10.489
  Name = 
  14 active torsions:
  status: ('A' for Active; 'I' for Inactive)
    1  A    between atoms: C_5  and  C_34
    2  A    between atoms: C_10  and  C_14
    3  A    between atoms: C_11  and  C_26
    4  A    between atoms: C_11  and  C_38
    5  A    between atoms: C_16  and  C_56
    6  A    between atoms: S_22  and  C_36
    7  A    between atoms: C_26  and  N_37
    8  A    between atoms: C_26  and  C_51
    9  A    between atoms: C_28  and  O_40
   10  A    between atoms: C_28  and  C_41
   11  A    between atoms: C_28  and  N_47
   12  A    between atoms: C_29  and  C_43
   13  A    between atoms: C_36  and  C_44
   14  A    between atoms: O_40  and  C_48
                            x       y       z     vdW  Elec       q    Type
                         _______ _______ _______ _____ _____    ______ ____

>  <TORSDO>
F 14

$$$$
=
 OpenBabel10222417353D

 57 64  0  0  1  0  0  0  0  0999 V2000
  186.4040  176.6190  134.8860 C   0  0  0  0  0  2  0  0  0  0  0  0
  185.0780  176.4920  135.6320 C   0  0  2  0  0  3  0  0  0  0  0  0
  187.0660  177.9770  135.1280 C   0  0  0  0  0  2  0  0  0  0  0  0
  186.7000  178.6230  136.4740 C   0  0  0  0  0  2  0  0  0  0  0  0
  186.3900  177.6020  137.5760 C   0  0  1  0  0  3  0  0  0  0  0  0
  185.2860  176.6230  137.1520 C   0  0  1  0  0  3  0  0  0  0  0  0
  184.4150  172.8250  134.8430 C   0  0  0  0  0  3  0  0  0  0  0  0
  183.0030  175.2300  135.0560 C   0  0  0  0  0  3  0  0  0  0  0  0
  183.0350  172.8440  134.6260 C   0  0  0  0  0  3  0  0  0  0  0  0
  185.0910  174.0070  135.1650 C   0  0  0  0  0  3  0  0  0  0  0  0
  182.3290  174.0470  134.7330 C   0  0  0  0  0  3  0  0  0  0  0  0
  184.3850  175.2150  135.2750 C   0  0  0  0  0  0  0  0  0  0  0  0
  188.9860  177.5900  138.3610 S   0  0  0  0  0  0  0  0  0  0  0  0
  187.6170  176.8360  137.9600 C   0  0  0  0  0  2  0  0  0  0  0  0
  190.1720  176.2430  138.4230 C   0  0  0  0  0  2  0  0  0  0  0  0
  191.7070  175.1170  136.9040 C   0  0  0  0  0  3  0  0  0  0  0  0
  190.6880  175.9570  137.0560 C   0  0  0  0  0  3  0  0  0  0  0  0
  192.2970  174.7610  135.5580 C   0  0  2  0  0  3  0  0  0  0  0  0
  195.0620  170.8010  138.2010 F   0  0  0  0  0  0  0  0  0  0  0  0
  194.0650  173.5770  136.5780 C   0  0  0  0  0  2  0  0  0  0  0  0
  193.3910  170.6970  134.8790 C   0  0  0  0  0  2  0  0  0  0  0  0
  192.1250  171.5550  134.9350 C   0  0  0  0  0  2  0  0  0  0  0  0
  194.6580  171.1770  136.9620 C   0  0  0  0  0  0  0  0  0  0  0  0
  195.1290  172.4970  136.4160 C   0  0  0  0  0  2  0  0  0  0  0  0
  192.1730  172.5200  135.9590 O   0  0  0  0  0  0  0  0  0  0  0  0
  193.0350  173.4860  135.5400 N   0  0  0  0  0  0  0  0  0  0  0  0
  193.8840  170.3470  136.2500 C   0  0  0  0  0  3  0  0  0  0  0  0
  192.9920  175.8340  134.9500 O   0  0  0  0  0  0  0  0  0  0  0  0
  195.0700  176.9910  135.1170 C   0  0  0  0  0  1  0  0  0  0  0  0
  193.9010  176.3850  135.8680 C   0  0  0  0  0  2  0  0  0  0  0  0
  183.9920  176.7420  137.9760 C   0  0  0  0  0  2  0  0  0  0  0  0
  183.5490  178.1480  138.4540 C   0  0  2  0  0  3  0  0  0  0  0  0
  185.1770  179.0170  142.3480 C   0  0  2  0  0  3  0  0  0  0  0  0
  184.2770  177.7720  142.2710 C   0  0  0  0  0  2  0  0  0  0  0  0
  187.2710  179.2830  141.1510 O   0  0  0  0  0  0  0  0  0  0  0  0
  186.0380  179.0340  141.1090 C   0  0  0  0  0  0  0  0  0  0  0  0
  185.4320  178.7330  139.8920 O   0  0  0  0  0  0  0  0  0  0  0  0
  184.0180  178.5770  139.8410 C   0  0  2  0  0  3  0  0  0  0  0  0
  183.5380  177.6040  140.9260 C   0  0  0  0  0  2  0  0  0  0  0  0
  186.4600  177.0680  147.3360 C   0  0  0  0  0  2  0  0  0  0  0  0
  187.2160  178.3310  147.7250 C   0  0  0  0  0  2  0  0  0  0  0  0
  187.5740  177.8990  145.1990 C   0  0  0  0  0  2  0  0  0  0  0  0
  185.0490  179.3400  144.8310 C   0  0  0  0  0  3  0  0  0  0  0  0
  185.9770  179.0800  143.6610 C   0  0  1  0  0  3  0  0  0  0  0  0
  185.3560  178.9640  146.0810 C   0  0  0  0  0  3  0  0  0  0  0  0
  186.6180  178.1960  146.3450 C   0  0  0  0  0  0  0  0  0  0  0  0
  186.7880  177.7950  143.8940 C   0  0  0  0  0  2  0  0  0  0  0  0
  182.1500  179.5630  137.1560 N   0  0  0  0  0  2  0  0  0  0  0  0
  181.7140  179.5080  139.1690 C   0  0  1  0  0  3  0  0  0  0  0  0
  182.1640  178.5640  138.1530 N   0  0  0  0  0  0  0  0  0  0  0  0
  181.6760  180.5640  138.1010 C   0  0  0  0  0  2  0  0  0  0  0  0
  180.3000  179.1690  139.6250 C   0  0  1  0  0  3  0  0  0  0  0  0
  180.0730  177.6470  139.5950 C   0  0  0  0  0  2  0  0  0  0  0  0
  179.6210  178.3840  141.7260 C   0  0  0  0  0  0  0  0  0  0  0  0
  180.0910  179.6190  141.0740 C   0  0  0  0  0  2  0  0  0  0  0  0
  179.6090  177.3040  140.8840 O   0  0  0  0  0  0  0  0  0  0  0  0
  179.2700  178.3220  142.9340 O   0  0  0  0  0  0  0  0  0  0  0  0
  1  3  1  0  0  0  0
  1  2  1  0  0  0  0
  2 12  1  1  0  0  0
  2  6  1  0  0  0  0
  3  4  1  0  0  0  0
  4  5  1  0  0  0  0
  5 14  1  6  0  0  0
  6  5  1  0  0  0  0
  6 31  1  1  0  0  0
  7 10  1  0  0  0  0
  8 12  1  0  0  0  0
  9 11  1  0  0  0  0
  9  7  2  0  0  0  0
 10 12  2  0  0  0  0
 11  8  2  0  0  0  0
 13 15  1  0  0  0  0
 14 13  1  0  0  0  0
 16 17  2  0  0  0  0
 17 15  1  0  0  0  0
 18 16  1  1  0  0  0
 21 22  1  0  0  0  0
 21 27  1  0  0  0  0
 22 25  1  0  0  0  0
 23 19  1  0  0  0  0
 24 20  1  0  0  0  0
 24 23  1  0  0  0  0
 26 18  1  0  0  0  0
 26 25  1  0  0  0  0
 26 20  1  0  0  0  0
 27 23  2  0  0  0  0
 28 18  1  0  0  0  0
 28 30  1  0  0  0  0
 29 30  1  0  0  0  0
 32 31  1  1  0  0  0
 33 34  1  1  0  0  0
 33 44  1  0  0  0  0
 36 35  2  0  0  0  0
 36 33  1  0  0  0  0
 37 36  1  0  0  0  0
 38 32  1  6  0  0  0
 38 37  1  0  0  0  0
 38 39  1  0  0  0  0
 39 34  1  0  0  0  0
 40 41  1  0  0  0  0
 42 46  1  0  0  0  0
 43 45  2  0  0  0  0
 44 47  1  1  0  0  0
 44 43  1  0  0  0  0
 45 46  1  0  0  0  0
 46 40  1  0  0  0  0
 46 41  1  0  0  0  0
 47 42  1  0  0  0  0
 48 51  1  0  0  0  0
 48 50  1  0  0  0  0
 49 51  1  6  0  0  0
 49 52  1  0  0  0  0
 50 32  1  0  0  0  0
 50 49  1  0  0  0  0
 52 53  1  1  0  0  0
 52 55  1  0  0  0  0
 53 56  1  0  0  0  0
 54 57  2  0  0  0  0
 55 54  1  0  0  0  0
 56 54  1  0  0  0  0
M  END
>  <MODEL>
5

>  <REMARK>
 VINA RESULT:      -6.2      2.995      4.701
  Name = 
  14 active torsions:
  status: ('A' for Active; 'I' for Inactive)
    1  A    between atoms: C_5  and  C_34
    2  A    between atoms: C_10  and  C_14
    3  A    between atoms: C_11  and  C_26
    4  A    between atoms: C_11  and  C_38
    5  A    between atoms: C_16  and  C_56
    6  A    between atoms: S_22  and  C_36
    7  A    between atoms: C_26  and  N_37
    8  A    between atoms: C_26  and  C_51
    9  A    between atoms: C_28  and  O_40
   10  A    between atoms: C_28  and  C_41
   11  A    between atoms: C_28  and  N_47
   12  A    between atoms: C_29  and  C_43
   13  A    between atoms: C_36  and  C_44
   14  A    between atoms: O_40  and  C_48
                            x       y       z     vdW  Elec       q    Type
                         _______ _______ _______ _____ _____    ______ ____

>  <TORSDO>
F 14

$$$$
=
 OpenBabel10222417353D

 57 64  0  0  1  0  0  0  0  0999 V2000
  189.2560  174.2010  136.6010 C   0  0  0  0  0  2  0  0  0  0  0  0
  189.8900  175.3270  137.4140 C   0  0  2  0  0  3  0  0  0  0  0  0
  188.0010  173.6450  137.2780 C   0  0  0  0  0  2  0  0  0  0  0  0
  187.2720  174.6580  138.1760 C   0  0  0  0  0  2  0  0  0  0  0  0
  187.4340  176.1110  137.7120 C   0  0  1  0  0  3  0  0  0  0  0  0
  188.9120  176.5060  137.5790 C   0  0  1  0  0  3  0  0  0  0  0  0
  193.5150  176.4200  136.9990 C   0  0  0  0  0  3  0  0  0  0  0  0
  191.2690  175.9020  135.4150 C   0  0  0  0  0  3  0  0  0  0  0  0
  193.5950  176.5560  135.6110 C   0  0  0  0  0  3  0  0  0  0  0  0
  192.3130  176.0260  137.5970 C   0  0  0  0  0  3  0  0  0  0  0  0
  192.4730  176.2960  134.8180 C   0  0  0  0  0  3  0  0  0  0  0  0
  191.1850  175.7630  136.8040 C   0  0  0  0  0  0  0  0  0  0  0  0
  185.7940  177.6310  136.1790 S   0  0  0  0  0  0  0  0  0  0  0  0
  186.7360  176.3420  136.4090 C   0  0  0  0  0  2  0  0  0  0  0  0
  184.9940  177.2580  134.6150 C   0  0  0  0  0  2  0  0  0  0  0  0
  183.0900  175.8890  135.2700 C   0  0  0  0  0  3  0  0  0  0  0  0
  184.2900  175.9500  134.7020 C   0  0  0  0  0  3  0  0  0  0  0  0
  182.2950  174.6090  135.4010 C   0  0  2  0  0  3  0  0  0  0  0  0
  179.4390  176.9720  139.4710 F   0  0  0  0  0  0  0  0  0  0  0  0
  181.7990  175.7140  137.4260 C   0  0  0  0  0  2  0  0  0  0  0  0
  179.4320  173.4310  138.3310 C   0  0  0  0  0  2  0  0  0  0  0  0
  179.6040  173.4000  136.8110 C   0  0  0  0  0  2  0  0  0  0  0  0
  179.8910  175.7660  139.0440 C   0  0  0  0  0  0  0  0  0  0  0  0
  181.3730  175.5650  138.8820 C   0  0  0  0  0  2  0  0  0  0  0  0
  180.2060  174.5720  136.3130 O   0  0  0  0  0  0  0  0  0  0  0  0
  181.5230  174.5020  136.6510 N   0  0  0  0  0  0  0  0  0  0  0  0
  179.0090  174.7850  138.8140 C   0  0  0  0  0  3  0  0  0  0  0  0
  183.0470  173.4500  135.0920 O   0  0  0  0  0  0  0  0  0  0  0  0
  184.5170  172.5130  136.7190 C   0  0  0  0  0  1  0  0  0  0  0  0
  183.0910  172.6050  136.2130 C   0  0  0  0  0  2  0  0  0  0  0  0
  189.3650  177.5890  138.5730 C   0  0  0  0  0  2  0  0  0  0  0  0
  189.0880  177.3670  140.0820 C   0  0  2  0  0  3  0  0  0  0  0  0
  185.0930  178.2770  141.4170 C   0  0  2  0  0  3  0  0  0  0  0  0
  186.1800  178.3210  142.5050 C   0  0  0  0  0  2  0  0  0  0  0  0
  185.0280  179.7240  139.4710 O   0  0  0  0  0  0  0  0  0  0  0  0
  185.6710  178.8990  140.1700 C   0  0  0  0  0  0  0  0  0  0  0  0
  186.9740  178.5560  139.8160 O   0  0  0  0  0  0  0  0  0  0  0  0
  187.6420  177.5300  140.5420 C   0  0  2  0  0  3  0  0  0  0  0  0
  187.5550  177.7870  142.0530 C   0  0  0  0  0  2  0  0  0  0  0  0
  180.1290  177.9890  143.7820 C   0  0  0  0  0  2  0  0  0  0  0  0
  179.7160  179.3630  143.2730 C   0  0  0  0  0  2  0  0  0  0  0  0
  182.2470  179.4070  143.8130 C   0  0  0  0  0  2  0  0  0  0  0  0
  182.6060  178.3450  141.1060 C   0  0  0  0  0  3  0  0  0  0  0  0
  183.7750  178.9220  141.8790 C   0  0  1  0  0  3  0  0  0  0  0  0
  181.3600  178.3310  141.6020 C   0  0  0  0  0  3  0  0  0  0  0  0
  181.1010  178.8310  142.9920 C   0  0  0  0  0  0  0  0  0  0  0  0
  183.5570  178.7470  143.3920 C   0  0  0  0  0  2  0  0  0  0  0  0
  191.3860  177.7120  140.5740 N   0  0  0  0  0  2  0  0  0  0  0  0
  190.2610  176.9590  142.1280 C   0  0  1  0  0  3  0  0  0  0  0  0
  190.0700  177.9120  141.0420 N   0  0  0  0  0  0  0  0  0  0  0  0
  191.6700  176.7650  141.6430 C   0  0  0  0  0  2  0  0  0  0  0  0
  190.2610  177.6740  143.4730 C   0  0  1  0  0  3  0  0  0  0  0  0
  189.1920  177.0730  144.4040 C   0  0  0  0  0  2  0  0  0  0  0  0
  191.2190  176.9420  145.4840 C   0  0  0  0  0  0  0  0  0  0  0  0
  191.6120  177.4830  144.1710 C   0  0  0  0  0  2  0  0  0  0  0  0
  189.8700  176.7310  145.5950 O   0  0  0  0  0  0  0  0  0  0  0  0
  192.0350  176.6920  146.4090 O   0  0  0  0  0  0  0  0  0  0  0  0
  1  3  1  0  0  0  0
  1  2  1  0  0  0  0
  2 12  1  6  0  0  0
  2  6  1  0  0  0  0
  3  4  1  0  0  0  0
  5 14  1  6  0  0  0
  5  4  1  0  0  0  0
  6  5  1  0  0  0  0
  6 31  1  1  0  0  0
  7 10  1  0  0  0  0
  8 12  1  0  0  0  0
  9  7  2  0  0  0  0
 11  8  2  0  0  0  0
 11  9  1  0  0  0  0
 12 10  2  0  0  0  0
 13 14  1  0  0  0  0
 15 17  1  0  0  0  0
 15 13  1  0  0  0  0
 17 16  2  0  0  0  0
 18 16  1  1  0  0  0
 18 26  1  0  0  0  0
 20 24  1  0  0  0  0
 21 27  1  0  0  0  0
 22 21  1  0  0  0  0
 23 19  1  0  0  0  0
 24 23  1  0  0  0  0
 25 26  1  0  0  0  0
 25 22  1  0  0  0  0
 26 20  1  0  0  0  0
 27 23  2  0  0  0  0
 28 18  1  0  0  0  0
 28 30  1  0  0  0  0
 30 29  1  0  0  0  0
 32 31  1  6  0  0  0
 32 50  1  0  0  0  0
 33 44  1  0  0  0  0
 33 34  1  1  0  0  0
 35 36  2  0  0  0  0
 36 33  1  0  0  0  0
 37 36  1  0  0  0  0
 37 38  1  0  0  0  0
 38 32  1  6  0  0  0
 38 39  1  0  0  0  0
 39 34  1  0  0  0  0
 41 40  1  0  0  0  0
 43 45  2  0  0  0  0
 44 43  1  6  0  0  0
 44 47  1  0  0  0  0
 45 46  1  0  0  0  0
 46 41  1  0  0  0  0
 46 40  1  0  0  0  0
 46 42  1  0  0  0  0
 47 42  1  0  0  0  0
 48 50  1  0  0  0  0
 48 51  1  0  0  0  0
 49 51  1  6  0  0  0
 49 52  1  0  0  0  0
 50 49  1  0  0  0  0
 52 55  1  1  0  0  0
 52 53  1  0  0  0  0
 53 56  1  0  0  0  0
 54 56  1  0  0  0  0
 54 57  2  0  0  0  0
 55 54  1  0  0  0  0
M  END
>  <MODEL>
6

>  <REMARK>
 VINA RESULT:      -5.8      3.355      9.257
  Name = 
  14 active torsions:
  status: ('A' for Active; 'I' for Inactive)
    1  A    between atoms: C_5  and  C_34
    2  A    between atoms: C_10  and  C_14
    3  A    between atoms: C_11  and  C_26
    4  A    between atoms: C_11  and  C_38
    5  A    between atoms: C_16  and  C_56
    6  A    between atoms: S_22  and  C_36
    7  A    between atoms: C_26  and  N_37
    8  A    between atoms: C_26  and  C_51
    9  A    between atoms: C_28  and  O_40
   10  A    between atoms: C_28  and  C_41
   11  A    between atoms: C_28  and  N_47
   12  A    between atoms: C_29  and  C_43
   13  A    between atoms: C_36  and  C_44
   14  A    between atoms: O_40  and  C_48
                            x       y       z     vdW  Elec       q    Type
                         _______ _______ _______ _____ _____    ______ ____

>  <TORSDO>
F 14

$$$$
=
 OpenBabel10222417353D

 57 64  0  0  1  0  0  0  0  0999 V2000
  188.8800  179.0420  139.3710 C   0  0  0  0  0  2  0  0  0  0  0  0
  189.7510  177.8050  139.1720 C   0  0  2  0  0  3  0  0  0  0  0  0
  188.4310  179.6440  138.0360 C   0  0  0  0  0  2  0  0  0  0  0  0
  188.3400  178.6260  136.8880 C   0  0  0  0  0  2  0  0  0  0  0  0
  187.9950  177.2070  137.3580 C   0  0  1  0  0  3  0  0  0  0  0  0
  188.9810  176.7020  138.4210 C   0  0  1  0  0  3  0  0  0  0  0  0
  192.1080  177.0270  142.0620 C   0  0  0  0  0  3  0  0  0  0  0  0
  189.4190  176.6780  141.3750 C   0  0  0  0  0  3  0  0  0  0  0  0
  191.2370  176.3950  142.9530 C   0  0  0  0  0  3  0  0  0  0  0  0
  191.6350  177.4850  140.8270 C   0  0  0  0  0  3  0  0  0  0  0  0
  189.8920  176.2200  142.6100 C   0  0  0  0  0  3  0  0  0  0  0  0
  190.2860  177.3140  140.4800 C   0  0  0  0  0  0  0  0  0  0  0  0
  185.3570  177.7690  137.0840 S   0  0  0  0  0  0  0  0  0  0  0  0
  186.6010  177.1430  137.8980 C   0  0  0  0  0  2  0  0  0  0  0  0
  184.0250  177.6950  138.2860 C   0  0  0  0  0  2  0  0  0  0  0  0
  181.8490  178.7530  138.0070 C   0  0  0  0  0  3  0  0  0  0  0  0
  182.7110  177.8280  137.5990 C   0  0  0  0  0  3  0  0  0  0  0  0
  180.4950  178.9680  137.3710 C   0  0  2  0  0  3  0  0  0  0  0  0
  181.8960  184.2910  137.4060 F   0  0  0  0  0  0  0  0  0  0  0  0
  180.8770  181.1670  138.1350 C   0  0  0  0  0  2  0  0  0  0  0  0
  179.1610  182.5840  135.5510 C   0  0  0  0  0  2  0  0  0  0  0  0
  179.6400  181.1930  135.1320 C   0  0  0  0  0  2  0  0  0  0  0  0
  180.8550  183.4630  137.1410 C   0  0  0  0  0  0  0  0  0  0  0  0
  180.3300  182.5850  138.2440 C   0  0  0  0  0  2  0  0  0  0  0  0
  180.7000  180.7240  135.9320 O   0  0  0  0  0  0  0  0  0  0  0  0
  180.1550  180.3810  137.1320 N   0  0  0  0  0  0  0  0  0  0  0  0
  180.3060  183.4770  135.9200 C   0  0  0  0  0  3  0  0  0  0  0  0
  179.4600  178.2280  137.9940 O   0  0  0  0  0  0  0  0  0  0  0  0
  179.9840  176.8360  139.8570 C   0  0  0  0  0  1  0  0  0  0  0  0
  179.6490  178.2370  139.3850 C   0  0  0  0  0  2  0  0  0  0  0  0
  189.8370  175.5070  137.9680 C   0  0  0  0  0  2  0  0  0  0  0  0
  189.8180  175.1150  136.4680 C   0  0  2  0  0  3  0  0  0  0  0  0
  186.1320  173.1770  135.3590 C   0  0  2  0  0  3  0  0  0  0  0  0
  186.6480  172.8580  136.7740 C   0  0  0  0  0  2  0  0  0  0  0  0
  185.4790  175.3850  134.5940 O   0  0  0  0  0  0  0  0  0  0  0  0
  186.3570  174.6490  135.1140 C   0  0  0  0  0  0  0  0  0  0  0  0
  187.5750  175.1960  135.5120 O   0  0  0  0  0  0  0  0  0  0  0  0
  188.6030  174.3310  135.9820 C   0  0  2  0  0  3  0  0  0  0  0  0
  188.0680  173.3880  137.0680 C   0  0  0  0  0  2  0  0  0  0  0  0
  181.2760  171.4500  137.2960 C   0  0  0  0  0  2  0  0  0  0  0  0
  180.7750  171.0520  135.9150 C   0  0  0  0  0  2  0  0  0  0  0  0
  182.2570  173.1590  135.6800 C   0  0  0  0  0  2  0  0  0  0  0  0
  184.5050  171.2820  135.5720 C   0  0  0  0  0  3  0  0  0  0  0  0
  184.6750  172.7290  135.1520 C   0  0  1  0  0  3  0  0  0  0  0  0
  183.3220  170.7890  135.9670 C   0  0  0  0  0  3  0  0  0  0  0  0
  182.1310  171.6950  136.0760 C   0  0  0  0  0  0  0  0  0  0  0  0
  183.6900  173.6290  135.9170 C   0  0  0  0  0  2  0  0  0  0  0  0
  190.9170  173.3910  135.2570 N   0  0  0  0  0  2  0  0  0  0  0  0
  191.9290  174.0800  136.9150 C   0  0  1  0  0  3  0  0  0  0  0  0
  191.0870  174.6510  135.8700 N   0  0  0  0  0  0  0  0  0  0  0  0
  191.7680  172.7440  136.2470 C   0  0  0  0  0  2  0  0  0  0  0  0
  193.3650  174.5700  136.7700 C   0  0  1  0  0  3  0  0  0  0  0  0
  193.5930  175.8330  137.6200 C   0  0  0  0  0  2  0  0  0  0  0  0
  195.1410  174.2600  138.2690 C   0  0  0  0  0  0  0  0  0  0  0  0
  194.3390  173.5070  137.2890 C   0  0  0  0  0  2  0  0  0  0  0  0
  194.7160  175.5530  138.4290 O   0  0  0  0  0  0  0  0  0  0  0  0
  196.1150  173.7710  138.8990 O   0  0  0  0  0  0  0  0  0  0  0  0
  2  1  1  0  0  0  0
  2 12  1  1  0  0  0
  3  1  1  0  0  0  0
  4  5  1  0  0  0  0
  4  3  1  0  0  0  0
  5 14  1  1  0  0  0
  5  6  1  0  0  0  0
  6 31  1  6  0  0  0
  6  2  1  0  0  0  0
  7  9  1  0  0  0  0
  8 11  1  0  0  0  0
 10  7  2  0  0  0  0
 11  9  2  0  0  0  0
 12 10  1  0  0  0  0
 12  8  2  0  0  0  0
 13 14  1  0  0  0  0
 13 15  1  0  0  0  0
 17 16  2  0  0  0  0
 17 15  1  0  0  0  0
 18 28  1  0  0  0  0
 18 16  1  1  0  0  0
 20 24  1  0  0  0  0
 21 27  1  0  0  0  0
 22 21  1  0  0  0  0
 22 25  1  0  0  0  0
 23 19  1  0  0  0  0
 23 24  1  0  0  0  0
 25 26  1  0  0  0  0
 26 18  1  0  0  0  0
 26 20  1  0  0  0  0
 27 23  2  0  0  0  0
 28 30  1  0  0  0  0
 30 29  1  0  0  0  0
 32 31  1  1  0  0  0
 33 34  1  1  0  0  0
 34 39  1  0  0  0  0
 35 36  2  0  0  0  0
 36 33  1  0  0  0  0
 36 37  1  0  0  0  0
 37 38  1  0  0  0  0
 38 32  1  1  0  0  0
 38 39  1  0  0  0  0
 41 46  1  0  0  0  0
 41 40  1  0  0  0  0
 42 47  1  0  0  0  0
 42 46  1  0  0  0  0
 43 45  2  0  0  0  0
 44 33  1  0  0  0  0
 44 43  1  1  0  0  0
 44 47  1  0  0  0  0
 45 46  1  0  0  0  0
 46 40  1  0  0  0  0
 48 50  1  0  0  0  0
 48 51  1  0  0  0  0
 49 51  1  6  0  0  0
 50 32  1  0  0  0  0
 50 49  1  0  0  0  0
 52 49  1  0  0  0  0
 52 55  1  1  0  0  0
 52 53  1  0  0  0  0
 53 56  1  0  0  0  0
 54 56  1  0  0  0  0
 54 57  2  0  0  0  0
 55 54  1  0  0  0  0
M  END
>  <MODEL>
7

>  <REMARK>
 VINA RESULT:      -5.5      3.785     11.408
  Name = 
  14 active torsions:
  status: ('A' for Active; 'I' for Inactive)
    1  A    between atoms: C_5  and  C_34
    2  A    between atoms: C_10  and  C_14
    3  A    between atoms: C_11  and  C_26
    4  A    between atoms: C_11  and  C_38
    5  A    between atoms: C_16  and  C_56
    6  A    between atoms: S_22  and  C_36
    7  A    between atoms: C_26  and  N_37
    8  A    between atoms: C_26  and  C_51
    9  A    between atoms: C_28  and  O_40
   10  A    between atoms: C_28  and  C_41
   11  A    between atoms: C_28  and  N_47
   12  A    between atoms: C_29  and  C_43
   13  A    between atoms: C_36  and  C_44
   14  A    between atoms: O_40  and  C_48
                            x       y       z     vdW  Elec       q    Type
                         _______ _______ _______ _____ _____    ______ ____

>  <TORSDO>
F 14

$$$$
