=
 OpenBabel10222418083D

 25 27  0  0  1  0  0  0  0  0999 V2000
  188.6300  178.3170  141.3200 C   0  0  0  0  0  2  0  0  0  0  0  0
  185.2800  179.5820  141.1390 N   0  0  0  0  0  2  0  0  0  0  0  0
  186.4860  178.0280  142.5900 C   0  0  0  0  0  2  0  0  0  0  0  0
  185.1520  178.7470  142.3490 C   0  0  2  0  0  0  0  0  0  0  0  0
  187.3300  178.5450  141.5060 C   0  0  0  0  0  0  0  0  0  0  0  0
  186.6080  179.4480  140.7120 N   0  0  0  0  0  0  0  0  0  0  0  0
  189.9470  178.5690  144.2980 C   0  0  0  0  0  3  0  0  0  0  0  0
  190.4590  175.4990  142.6020 N   0  0  0  0  0  0  0  0  0  0  0  0
  190.0020  177.5410  143.3590 C   0  0  0  0  0  0  0  0  0  0  0  0
  189.7470  176.1290  141.6720 N   0  0  0  0  0  0  0  0  0  0  0  0
  189.4650  177.3820  142.0970 C   0  0  0  0  0  0  0  0  0  0  0  0
  191.2570  176.1060  144.8410 C   0  0  0  0  0  3  0  0  0  0  0  0
  190.5890  178.3570  145.5300 C   0  0  0  0  0  2  0  0  0  0  0  0
  191.2500  177.1320  145.8050 C   0  0  0  0  0  0  0  0  0  0  0  0
  190.6170  176.3510  143.6290 C   0  0  0  0  0  0  0  0  0  0  0  0
  192.3360  175.6240  147.4370 C   0  0  0  0  0  1  0  0  0  0  0  0
  191.8950  176.9110  147.0250 O   0  0  0  0  0  0  0  0  0  0  0  0
  184.0270  177.7270  142.1240 C   0  0  0  0  0  2  0  0  0  0  0  0
  183.0210  178.1440  141.0560 C   0  0  0  0  0  2  0  0  0  0  0  0
  182.8990  177.0690  139.9940 C   0  0  0  0  0  1  0  0  0  0  0  0
  184.8570  179.6460  143.5510 C   0  0  0  0  0  2  0  0  0  0  0  0
  185.3370  179.0420  144.7860 N   0  0  0  0  0  2  0  0  0  0  0  0
  184.1690  178.8070  145.6150 C   0  0  0  0  0  2  0  0  0  0  0  0
  184.5760  178.4950  146.9110 O   0  0  0  0  0  0  0  0  0  0  0  0
  185.9560  178.6940  146.9020 C   0  0  0  0  0  1  0  0  0  0  0  0
  1  5  1  0  0  0  0
  1 11  1  0  0  0  0
  2  4  1  0  0  0  0
  4 18  1  6  0  0  0
  4  3  1  0  0  0  0
  4 21  1  0  0  0  0
  5  3  1  0  0  0  0
  6  2  1  0  0  0  0
  6  5  2  0  0  0  0
  7 13  1  0  0  0  0
  8 15  2  0  0  0  0
  9 15  1  0  0  0  0
  9  7  2  0  0  0  0
 10 11  2  0  0  0  0
 10  8  1  0  0  0  0
 11  9  1  0  0  0  0
 12 14  2  0  0  0  0
 13 14  1  0  0  0  0
 14 17  1  0  0  0  0
 15 12  1  0  0  0  0
 17 16  1  0  0  0  0
 19 18  1  0  0  0  0
 20 19  1  0  0  0  0
 21 22  1  0  0  0  0
 22 23  1  0  0  0  0
 23 24  1  0  0  0  0
 25 24  1  0  0  0  0
M  END
>  <MODEL>
1

>  <REMARK>
 VINA RESULT:      -6.7      0.000      0.000
  Name = 
  8 active torsions:
  status: ('A' for Active; 'I' for Inactive)
    1  A    between atoms: N_2  and  C_15
    2  A    between atoms: N_2  and  C_21
    3  A    between atoms: O_5  and  C_23
    4  A    between atoms: C_6  and  C_13
    5  A    between atoms: C_7  and  C_10
    6  A    between atoms: O_8  and  C_21
    7  A    between atoms: C_10  and  C_19
    8  A    between atoms: C_15  and  C_19
                            x       y       z     vdW  Elec       q    Type
                         _______ _______ _______ _____ _____    ______ ____

>  <TORSDO>
F 8

$$$$
=
 OpenBabel10222418083D

 25 27  0  0  1  0  0  0  0  0999 V2000
  188.3790  178.7150  141.0150 C   0  0  0  0  0  2  0  0  0  0  0  0
  189.0060  178.3670  137.5020 N   0  0  0  0  0  2  0  0  0  0  0  0
  189.1920  176.9190  139.4630 C   0  0  0  0  0  2  0  0  0  0  0  0
  189.3260  176.9940  137.9350 C   0  0  2  0  0  0  0  0  0  0  0  0
  188.7470  178.2740  139.8120 C   0  0  0  0  0  0  0  0  0  0  0  0
  188.6320  179.0640  138.6580 N   0  0  0  0  0  0  0  0  0  0  0  0
  190.8040  178.4390  143.1840 C   0  0  0  0  0  3  0  0  0  0  0  0
  187.7830  176.7630  143.9750 N   0  0  0  0  0  0  0  0  0  0  0  0
  189.5300  177.8750  143.1630 C   0  0  0  0  0  0  0  0  0  0  0  0
  187.4240  177.2890  142.8080 N   0  0  0  0  0  0  0  0  0  0  0  0
  188.4720  177.9610  142.2790 C   0  0  0  0  0  0  0  0  0  0  0  0
  189.8360  176.8280  145.3160 C   0  0  0  0  0  3  0  0  0  0  0  0
  191.6160  178.1630  144.2980 C   0  0  0  0  0  2  0  0  0  0  0  0
  191.1410  177.3540  145.3630 C   0  0  0  0  0  0  0  0  0  0  0  0
  189.0600  177.1150  144.1970 C   0  0  0  0  0  0  0  0  0  0  0  0
  191.6560  176.0030  147.3700 C   0  0  0  0  0  1  0  0  0  0  0  0
  191.9410  177.0690  146.4740 O   0  0  0  0  0  0  0  0  0  0  0  0
  190.7630  176.6660  137.5070 C   0  0  0  0  0  2  0  0  0  0  0  0
  191.7300  176.4930  138.6750 C   0  0  0  0  0  2  0  0  0  0  0  0
  193.1570  176.4160  138.1730 C   0  0  0  0  0  1  0  0  0  0  0  0
  188.3230  176.0220  137.3100 C   0  0  0  0  0  2  0  0  0  0  0  0
  187.4070  176.7180  136.4180 N   0  0  0  0  0  2  0  0  0  0  0  0
  186.0650  176.3730  136.8490 C   0  0  0  0  0  2  0  0  0  0  0  0
  185.2580  177.5090  136.8060 O   0  0  0  0  0  0  0  0  0  0  0  0
  185.2660  177.9930  138.1140 C   0  0  0  0  0  1  0  0  0  0  0  0
  1 11  1  0  0  0  0
  2  4  1  0  0  0  0
  2  6  1  0  0  0  0
  3  5  1  0  0  0  0
  4 21  1  6  0  0  0
  4  3  1  0  0  0  0
  5  1  1  0  0  0  0
  6  5  2  0  0  0  0
  7 13  1  0  0  0  0
  8 15  2  0  0  0  0
  9  7  2  0  0  0  0
  9 15  1  0  0  0  0
 10  8  1  0  0  0  0
 11 10  2  0  0  0  0
 11  9  1  0  0  0  0
 12 14  2  0  0  0  0
 13 14  1  0  0  0  0
 14 17  1  0  0  0  0
 15 12  1  0  0  0  0
 17 16  1  0  0  0  0
 18  4  1  0  0  0  0
 18 19  1  0  0  0  0
 20 19  1  0  0  0  0
 22 23  1  0  0  0  0
 22 21  1  0  0  0  0
 24 23  1  0  0  0  0
 24 25  1  0  0  0  0
M  END
>  <MODEL>
2

>  <REMARK>
 VINA RESULT:      -6.5      3.619      5.678
  Name = 
  8 active torsions:
  status: ('A' for Active; 'I' for Inactive)
    1  A    between atoms: N_2  and  C_15
    2  A    between atoms: N_2  and  C_21
    3  A    between atoms: O_5  and  C_23
    4  A    between atoms: C_6  and  C_13
    5  A    between atoms: C_7  and  C_10
    6  A    between atoms: O_8  and  C_21
    7  A    between atoms: C_10  and  C_19
    8  A    between atoms: C_15  and  C_19
                            x       y       z     vdW  Elec       q    Type
                         _______ _______ _______ _____ _____    ______ ____

>  <TORSDO>
F 8

$$$$
=
 OpenBabel10222418083D

 25 27  0  0  1  0  0  0  0  0999 V2000
  188.9740  177.2110  138.5560 C   0  0  0  0  0  3  0  0  0  0  0  0
  187.7380  178.6310  141.6080 N   0  0  0  0  0  0  0  0  0  0  0  0
  189.3090  176.8530  141.0170 C   0  0  0  0  0  2  0  0  0  0  0  0
  188.6900  177.6550  142.1710 C   0  0  2  0  0  0  0  0  0  0  0  0
  188.6940  177.4680  139.8350 C   0  0  0  0  0  0  0  0  0  0  0  0
  187.8190  178.4970  140.2160 N   0  0  0  0  0  0  0  0  0  0  0  0
  192.2240  176.9170  138.6580 C   0  0  0  0  0  3  0  0  0  0  0  0
  190.4400  174.2030  137.2390 N   0  0  0  0  0  0  0  0  0  0  0  0
  191.2480  176.0750  138.1300 C   0  0  0  0  0  0  0  0  0  0  0  0
  189.4100  174.9920  137.5330 N   0  0  0  0  0  0  0  0  0  0  0  0
  189.8700  176.1490  138.0640 C   0  0  0  0  0  0  0  0  0  0  0  0
  192.8690  174.3940  137.5210 C   0  0  0  0  0  3  0  0  0  0  0  0
  193.5600  176.4840  138.5880 C   0  0  0  0  0  2  0  0  0  0  0  0
  193.8890  175.2280  138.0160 C   0  0  0  0  0  0  0  0  0  0  0  0
  191.5580  174.8550  137.6000 C   0  0  0  0  0  0  0  0  0  0  0  0
  195.9320  174.3130  139.0680 C   0  0  0  0  0  1  0  0  0  0  0  0
  195.2140  174.7880  137.9380 O   0  0  0  0  0  0  0  0  0  0  0  0
  187.9290  176.7210  143.1230 C   0  0  0  0  0  2  0  0  0  0  0  0
  187.8880  177.2130  144.5670 C   0  0  0  0  0  2  0  0  0  0  0  0
  186.4790  177.6210  144.9460 C   0  0  0  0  0  1  0  0  0  0  0  0
  189.8080  178.4040  142.8990 C   0  0  0  0  0  2  0  0  0  0  0  0
  191.0920  177.7450  142.7060 N   0  0  0  0  0  2  0  0  0  0  0  0
  191.7140  177.6560  144.0140 C   0  0  0  0  0  2  0  0  0  0  0  0
  191.4680  176.3970  144.5600 O   0  0  0  0  0  0  0  0  0  0  0  0
  191.6320  176.5730  145.9330 C   0  0  0  0  0  1  0  0  0  0  0  0
  1  5  2  0  0  0  0
  2  4  1  0  0  0  0
  3  4  1  0  0  0  0
  4 21  1  1  0  0  0
  4 18  1  0  0  0  0
  5  6  1  0  0  0  0
  5  3  1  0  0  0  0
  6  2  2  0  0  0  0
  8 10  1  0  0  0  0
  8 15  2  0  0  0  0
  9  7  2  0  0  0  0
 10 11  2  0  0  0  0
 11  9  1  0  0  0  0
 11  1  1  0  0  0  0
 12 15  1  0  0  0  0
 12 14  2  0  0  0  0
 13  7  1  0  0  0  0
 14 13  1  0  0  0  0
 15  9  1  0  0  0  0
 17 14  1  0  0  0  0
 17 16  1  0  0  0  0
 18 19  1  0  0  0  0
 19 20  1  0  0  0  0
 22 21  1  0  0  0  0
 22 23  1  0  0  0  0
 23 24  1  0  0  0  0
 24 25  1  0  0  0  0
M  END
>  <MODEL>
3

>  <REMARK>
 VINA RESULT:      -6.4      4.219      6.047
  Name = 
  8 active torsions:
  status: ('A' for Active; 'I' for Inactive)
    1  A    between atoms: N_2  and  C_15
    2  A    between atoms: N_2  and  C_21
    3  A    between atoms: O_5  and  C_23
    4  A    between atoms: C_6  and  C_13
    5  A    between atoms: C_7  and  C_10
    6  A    between atoms: O_8  and  C_21
    7  A    between atoms: C_10  and  C_19
    8  A    between atoms: C_15  and  C_19
                            x       y       z     vdW  Elec       q    Type
                         _______ _______ _______ _____ _____    ______ ____

>  <TORSDO>
F 8

$$$$
=
 OpenBabel10222418083D

 25 27  0  0  1  0  0  0  0  0999 V2000
  185.2510  179.2760  142.0220 C   0  0  0  0  0  2  0  0  0  0  0  0
  183.6680  178.5220  138.8940 N   0  0  0  0  0  2  0  0  0  0  0  0
  183.1880  178.0760  141.2490 C   0  0  0  0  0  2  0  0  0  0  0  0
  182.6740  177.9310  139.8090 C   0  0  2  0  0  0  0  0  0  0  0  0
  184.4510  178.8000  141.0660 C   0  0  0  0  0  0  0  0  0  0  0  0
  184.6780  179.0560  139.7060 N   0  0  0  0  0  0  0  0  0  0  0  0
  187.2570  177.9290  144.2190 C   0  0  0  0  0  3  0  0  0  0  0  0
  184.1940  179.2120  145.4580 N   0  0  0  0  0  0  0  0  0  0  0  0
  185.9800  178.4700  144.3590 C   0  0  0  0  0  0  0  0  0  0  0  0
  184.0310  179.5040  144.1710 N   0  0  0  0  0  0  0  0  0  0  0  0
  185.0970  179.0510  143.4700 C   0  0  0  0  0  0  0  0  0  0  0  0
  185.9800  178.1370  146.7490 C   0  0  0  0  0  3  0  0  0  0  0  0
  187.8930  177.4610  145.3820 C   0  0  0  0  0  2  0  0  0  0  0  0
  187.2590  177.5560  146.6470 C   0  0  0  0  0  0  0  0  0  0  0  0
  185.3750  178.5850  145.5790 C   0  0  0  0  0  0  0  0  0  0  0  0
  188.2720  177.9540  148.8680 C   0  0  0  0  0  1  0  0  0  0  0  0
  187.8790  177.0900  147.8100 O   0  0  0  0  0  0  0  0  0  0  0  0
  182.4960  176.4490  139.4510 C   0  0  0  0  0  2  0  0  0  0  0  0
  181.1090  176.1050  138.9170 C   0  0  0  0  0  2  0  0  0  0  0  0
  180.4060  175.1420  139.8530 C   0  0  0  0  0  1  0  0  0  0  0  0
  181.3560  178.6970  139.6830 C   0  0  0  0  0  2  0  0  0  0  0  0
  180.7380  178.8970  140.9860 N   0  0  0  0  0  2  0  0  0  0  0  0
  180.0700  180.1830  140.9370 C   0  0  0  0  0  2  0  0  0  0  0  0
  180.0450  180.7420  142.2140 O   0  0  0  0  0  0  0  0  0  0  0  0
  179.2800  179.8540  142.9690 C   0  0  0  0  0  1  0  0  0  0  0  0
  1 11  1  0  0  0  0
  2  6  1  0  0  0  0
  2  4  1  0  0  0  0
  4 18  1  6  0  0  0
  4  3  1  0  0  0  0
  5  3  1  0  0  0  0
  5  1  1  0  0  0  0
  6  5  2  0  0  0  0
  7  9  2  0  0  0  0
  7 13  1  0  0  0  0
  8 15  2  0  0  0  0
  9 15  1  0  0  0  0
 10  8  1  0  0  0  0
 11 10  2  0  0  0  0
 11  9  1  0  0  0  0
 13 14  1  0  0  0  0
 14 12  2  0  0  0  0
 14 17  1  0  0  0  0
 15 12  1  0  0  0  0
 17 16  1  0  0  0  0
 19 18  1  0  0  0  0
 19 20  1  0  0  0  0
 21  4  1  0  0  0  0
 21 22  1  0  0  0  0
 23 22  1  0  0  0  0
 23 24  1  0  0  0  0
 24 25  1  0  0  0  0
M  END
>  <MODEL>
4

>  <REMARK>
 VINA RESULT:      -6.3      3.162      4.924
  Name = 
  8 active torsions:
  status: ('A' for Active; 'I' for Inactive)
    1  A    between atoms: N_2  and  C_15
    2  A    between atoms: N_2  and  C_21
    3  A    between atoms: O_5  and  C_23
    4  A    between atoms: C_6  and  C_13
    5  A    between atoms: C_7  and  C_10
    6  A    between atoms: O_8  and  C_21
    7  A    between atoms: C_10  and  C_19
    8  A    between atoms: C_15  and  C_19
                            x       y       z     vdW  Elec       q    Type
                         _______ _______ _______ _____ _____    ______ ____

>  <TORSDO>
F 8

$$$$
=
 OpenBabel10222418083D

 25 27  0  0  1  0  0  0  0  0999 V2000
  187.5360  176.5360  144.1850 C   0  0  0  0  0  2  0  0  0  0  0  0
  190.3390  176.0810  141.9950 N   0  0  0  0  0  2  0  0  0  0  0  0
  188.8850  177.9480  142.6100 C   0  0  0  0  0  2  0  0  0  0  0  0
  190.1190  177.5270  141.8000 C   0  0  2  0  0  0  0  0  0  0  0  0
  188.4950  176.6980  143.2730 C   0  0  0  0  0  0  0  0  0  0  0  0
  189.3660  175.6590  142.9120 N   0  0  0  0  0  0  0  0  0  0  0  0
  184.8700  177.7390  142.7330 C   0  0  0  0  0  3  0  0  0  0  0  0
  185.5920  178.9730  145.9760 N   0  0  0  0  0  0  0  0  0  0  0  0
  185.4560  178.0410  143.9600 C   0  0  0  0  0  0  0  0  0  0  0  0
  186.6180  178.1370  145.8440 N   0  0  0  0  0  2  0  0  0  0  0  0
  186.5720  177.5630  144.6190 C   0  0  0  0  0  0  0  0  0  0  0  0
  183.7010  179.5930  144.5420 C   0  0  0  0  0  3  0  0  0  0  0  0
  183.6780  178.4070  142.4020 C   0  0  0  0  0  3  0  0  0  0  0  0
  183.0930  179.3380  143.2980 C   0  0  0  0  0  0  0  0  0  0  0  0
  184.8830  178.9200  144.8370 C   0  0  0  0  0  0  0  0  0  0  0  0
  180.6340  179.3860  143.0270 C   0  0  0  0  0  1  0  0  0  0  0  0
  181.9100  180.0110  142.9790 O   0  0  0  0  0  0  0  0  0  0  0  0
  189.8920  177.7900  140.3040 C   0  0  0  0  0  2  0  0  0  0  0  0
  188.4460  178.1220  139.9490 C   0  0  0  0  0  2  0  0  0  0  0  0
  188.0790  177.5190  138.6080 C   0  0  0  0  0  1  0  0  0  0  0  0
  191.3330  178.2960  142.3240 C   0  0  0  0  0  2  0  0  0  0  0  0
  191.0760  178.8390  143.6500 N   0  0  0  0  0  2  0  0  0  0  0  0
  191.8010  178.0050  144.5890 C   0  0  0  0  0  2  0  0  0  0  0  0
  190.9080  177.4570  145.5090 O   0  0  0  0  0  0  0  0  0  0  0  0
  191.6570  176.5070  146.2000 C   0  0  0  0  0  1  0  0  0  0  0  0
  1 11  1  0  0  0  0
  2  6  1  0  0  0  0
  3  5  1  0  0  0  0
  4 18  1  6  0  0  0
  4  2  1  0  0  0  0
  4 21  1  0  0  0  0
  4  3  1  0  0  0  0
  5  1  1  0  0  0  0
  6  5  2  0  0  0  0
  7  9  1  0  0  0  0
  9 11  2  0  0  0  0
  9 15  1  0  0  0  0
 10  8  1  0  0  0  0
 11 10  1  0  0  0  0
 12 15  1  0  0  0  0
 13  7  2  0  0  0  0
 13 14  1  0  0  0  0
 14 12  2  0  0  0  0
 15  8  2  0  0  0  0
 17 16  1  0  0  0  0
 17 14  1  0  0  0  0
 19 18  1  0  0  0  0
 20 19  1  0  0  0  0
 21 22  1  0  0  0  0
 22 23  1  0  0  0  0
 23 24  1  0  0  0  0
 24 25  1  0  0  0  0
M  END
>  <MODEL>
5

>  <REMARK>
 VINA RESULT:      -6.3      2.286      6.696
  Name = 
  8 active torsions:
  status: ('A' for Active; 'I' for Inactive)
    1  A    between atoms: N_2  and  C_15
    2  A    between atoms: N_2  and  C_21
    3  A    between atoms: O_5  and  C_23
    4  A    between atoms: C_6  and  C_13
    5  A    between atoms: C_7  and  C_10
    6  A    between atoms: O_8  and  C_21
    7  A    between atoms: C_10  and  C_19
    8  A    between atoms: C_15  and  C_19
                            x       y       z     vdW  Elec       q    Type
                         _______ _______ _______ _____ _____    ______ ____

>  <TORSDO>
F 8

$$$$
=
 OpenBabel10222418083D

 25 27  0  0  1  0  0  0  0  0999 V2000
  183.3340  178.9840  144.0640 C   0  0  0  0  0  2  0  0  0  0  0  0
  180.4920  179.3470  141.9070 N   0  0  0  0  0  2  0  0  0  0  0  0
  182.7740  178.5040  141.6650 C   0  0  0  0  0  2  0  0  0  0  0  0
  181.4230  178.6990  140.9630 C   0  0  2  0  0  0  0  0  0  0  0  0
  182.5120  179.0200  143.0140 C   0  0  0  0  0  0  0  0  0  0  0  0
  181.1870  179.4720  143.1170 N   0  0  0  0  0  0  0  0  0  0  0  0
  185.4920  178.5730  146.4790 C   0  0  0  0  0  3  0  0  0  0  0  0
  186.5870  177.7040  143.2220 N   0  0  0  0  0  0  0  0  0  0  0  0
  185.6130  178.3820  145.1040 C   0  0  0  0  0  0  0  0  0  0  0  0
  185.3540  178.1020  142.9220 N   0  0  0  0  0  0  0  0  0  0  0  0
  184.7380  178.5360  144.0470 C   0  0  0  0  0  0  0  0  0  0  0  0
  187.8680  177.5450  145.3070 C   0  0  0  0  0  3  0  0  0  0  0  0
  186.6060  178.2590  147.2780 C   0  0  0  0  0  2  0  0  0  0  0  0
  187.7970  177.7520  146.6980 C   0  0  0  0  0  0  0  0  0  0  0  0
  186.7510  177.8710  144.5450 C   0  0  0  0  0  0  0  0  0  0  0  0
  190.1030  176.8870  146.9340 C   0  0  0  0  0  1  0  0  0  0  0  0
  188.9130  177.4400  147.4810 O   0  0  0  0  0  0  0  0  0  0  0  0
  181.5840  179.6050  139.7340 C   0  0  0  0  0  2  0  0  0  0  0  0
  182.5200  179.0410  138.6710 C   0  0  0  0  0  2  0  0  0  0  0  0
  181.7930  178.8940  137.3490 C   0  0  0  0  0  1  0  0  0  0  0  0
  180.8720  177.3260  140.5750 C   0  0  0  0  0  2  0  0  0  0  0  0
  179.4880  177.1770  141.0020 N   0  0  0  0  0  2  0  0  0  0  0  0
  179.0870  175.8290  140.6460 C   0  0  0  0  0  2  0  0  0  0  0  0
  179.1020  175.0250  141.7850 O   0  0  0  0  0  0  0  0  0  0  0  0
  179.4990  173.7710  141.3210 C   0  0  0  0  0  1  0  0  0  0  0  0
  2  6  1  0  0  0  0
  3  5  1  0  0  0  0
  4 18  1  6  0  0  0
  4  3  1  0  0  0  0
  4  2  1  0  0  0  0
  5  6  2  0  0  0  0
  5  1  1  0  0  0  0
  7 13  1  0  0  0  0
  8 15  2  0  0  0  0
  9  7  2  0  0  0  0
 10  8  1  0  0  0  0
 10 11  2  0  0  0  0
 11  1  1  0  0  0  0
 11  9  1  0  0  0  0
 12 14  2  0  0  0  0
 14 13  1  0  0  0  0
 14 17  1  0  0  0  0
 15  9  1  0  0  0  0
 15 12  1  0  0  0  0
 16 17  1  0  0  0  0
 19 18  1  0  0  0  0
 20 19  1  0  0  0  0
 21  4  1  0  0  0  0
 21 22  1  0  0  0  0
 23 22  1  0  0  0  0
 23 24  1  0  0  0  0
 25 24  1  0  0  0  0
M  END
>  <MODEL>
6

>  <REMARK>
 VINA RESULT:      -6.2      3.305      5.260
  Name = 
  8 active torsions:
  status: ('A' for Active; 'I' for Inactive)
    1  A    between atoms: N_2  and  C_15
    2  A    between atoms: N_2  and  C_21
    3  A    between atoms: O_5  and  C_23
    4  A    between atoms: C_6  and  C_13
    5  A    between atoms: C_7  and  C_10
    6  A    between atoms: O_8  and  C_21
    7  A    between atoms: C_10  and  C_19
    8  A    between atoms: C_15  and  C_19
                            x       y       z     vdW  Elec       q    Type
                         _______ _______ _______ _____ _____    ______ ____

>  <TORSDO>
F 8

$$$$
=
 OpenBabel10222418083D

 25 27  0  0  1  0  0  0  0  0999 V2000
  184.6480  178.9480  142.1460 C   0  0  0  0  0  2  0  0  0  0  0  0
  182.2510  178.8820  139.4790 N   0  0  0  0  0  2  0  0  0  0  0  0
  182.1710  178.6260  141.9090 C   0  0  0  0  0  2  0  0  0  0  0  0
  181.3360  178.7010  140.6230 C   0  0  2  0  0  0  0  0  0  0  0  0
  183.5390  178.8200  141.4150 C   0  0  0  0  0  0  0  0  0  0  0  0
  183.5390  178.9860  140.0220 N   0  0  0  0  0  0  0  0  0  0  0  0
  187.0500  177.7860  144.0280 C   0  0  0  0  0  3  0  0  0  0  0  0
  184.1740  178.9980  145.7090 N   0  0  0  0  0  0  0  0  0  0  0  0
  185.7890  178.2800  144.3580 C   0  0  0  0  0  0  0  0  0  0  0  0
  183.7870  179.2240  144.4570 N   0  0  0  0  0  0  0  0  0  0  0  0
  184.7440  178.7840  143.6070 C   0  0  0  0  0  0  0  0  0  0  0  0
  186.1980  178.0560  146.7260 C   0  0  0  0  0  3  0  0  0  0  0  0
  187.8900  177.3980  145.0870 C   0  0  0  0  0  2  0  0  0  0  0  0
  187.4690  177.5240  146.4350 C   0  0  0  0  0  0  0  0  0  0  0  0
  185.3880  178.4260  145.6560 C   0  0  0  0  0  0  0  0  0  0  0  0
  188.8020  178.0630  148.4480 C   0  0  0  0  0  1  0  0  0  0  0  0
  188.2940  177.1380  147.4960 O   0  0  0  0  0  0  0  0  0  0  0  0
  180.5470  177.4000  140.4200 C   0  0  0  0  0  2  0  0  0  0  0  0
  180.8770  176.6760  139.1180 C   0  0  0  0  0  2  0  0  0  0  0  0
  181.8180  175.5180  139.3800 C   0  0  0  0  0  1  0  0  0  0  0  0
  180.4030  179.9100  140.7170 C   0  0  0  0  0  2  0  0  0  0  0  0
  179.8340  180.2350  139.4170 N   0  0  0  0  0  2  0  0  0  0  0  0
  179.9430  181.6730  139.2640 C   0  0  0  0  0  2  0  0  0  0  0  0
  181.1010  181.9770  138.5490 O   0  0  0  0  0  0  0  0  0  0  0  0
  180.8110  181.6010  137.2380 C   0  0  0  0  0  1  0  0  0  0  0  0
  1 11  1  0  0  0  0
  2  6  1  0  0  0  0
  2  4  1  0  0  0  0
  4 18  1  6  0  0  0
  4 21  1  0  0  0  0
  4  3  1  0  0  0  0
  5  3  1  0  0  0  0
  5  1  1  0  0  0  0
  6  5  2  0  0  0  0
  7  9  2  0  0  0  0
  7 13  1  0  0  0  0
  9 15  1  0  0  0  0
 10  8  1  0  0  0  0
 11  9  1  0  0  0  0
 11 10  2  0  0  0  0
 13 14  1  0  0  0  0
 14 12  2  0  0  0  0
 14 17  1  0  0  0  0
 15  8  2  0  0  0  0
 15 12  1  0  0  0  0
 17 16  1  0  0  0  0
 19 20  1  0  0  0  0
 19 18  1  0  0  0  0
 22 21  1  0  0  0  0
 23 22  1  0  0  0  0
 24 23  1  0  0  0  0
 25 24  1  0  0  0  0
M  END
>  <MODEL>
7

>  <REMARK>
 VINA RESULT:      -6.0      3.344      5.627
  Name = 
  8 active torsions:
  status: ('A' for Active; 'I' for Inactive)
    1  A    between atoms: N_2  and  C_15
    2  A    between atoms: N_2  and  C_21
    3  A    between atoms: O_5  and  C_23
    4  A    between atoms: C_6  and  C_13
    5  A    between atoms: C_7  and  C_10
    6  A    between atoms: O_8  and  C_21
    7  A    between atoms: C_10  and  C_19
    8  A    between atoms: C_15  and  C_19
                            x       y       z     vdW  Elec       q    Type
                         _______ _______ _______ _____ _____    ______ ____

>  <TORSDO>
F 8

$$$$
=
 OpenBabel10222418083D

 25 27  0  0  1  0  0  0  0  0999 V2000
  188.1470  178.3790  141.5360 C   0  0  0  0  0  2  0  0  0  0  0  0
  186.7540  178.3070  138.2320 N   0  0  0  0  0  2  0  0  0  0  0  0
  188.8080  177.4960  139.2820 C   0  0  0  0  0  2  0  0  0  0  0  0
  187.9880  177.5370  137.9850 C   0  0  2  0  0  0  0  0  0  0  0  0
  187.9490  178.2200  140.2270 C   0  0  0  0  0  0  0  0  0  0  0  0
  186.7730  178.6470  139.5920 N   0  0  0  0  0  0  0  0  0  0  0  0
  188.6130  177.8000  144.7160 C   0  0  0  0  0  3  0  0  0  0  0  0
  191.4000  177.2680  142.5920 N   0  0  0  0  0  0  0  0  0  0  0  0
  189.4950  177.7410  143.6390 C   0  0  0  0  0  0  0  0  0  0  0  0
  190.5190  177.6600  141.6760 N   0  0  0  0  0  0  0  0  0  0  0  0
  189.3500  177.9710  142.2840 C   0  0  0  0  0  0  0  0  0  0  0  0
  191.3070  176.9480  145.0220 C   0  0  0  0  0  3  0  0  0  0  0  0
  189.1110  177.4420  145.9810 C   0  0  0  0  0  2  0  0  0  0  0  0
  190.4570  177.0220  146.1420 C   0  0  0  0  0  0  0  0  0  0  0  0
  190.7850  177.3150  143.7850 C   0  0  0  0  0  0  0  0  0  0  0  0
  192.0800  175.8010  147.5530 C   0  0  0  0  0  1  0  0  0  0  0  0
  190.9650  176.6670  147.3950 O   0  0  0  0  0  0  0  0  0  0  0  0
  188.7850  178.2330  136.8710 C   0  0  0  0  0  2  0  0  0  0  0  0
  189.7010  177.2950  136.0910 C   0  0  0  0  0  2  0  0  0  0  0  0
  189.4450  177.4220  134.6030 C   0  0  0  0  0  1  0  0  0  0  0  0
  187.6190  176.1050  137.5950 C   0  0  0  0  0  2  0  0  0  0  0  0
  186.2630  176.0390  137.0680 N   0  0  0  0  0  2  0  0  0  0  0  0
  186.3730  175.5800  135.6960 C   0  0  0  0  0  2  0  0  0  0  0  0
  187.3640  174.6030  135.6110 O   0  0  0  0  0  0  0  0  0  0  0  0
  186.6740  173.4330  135.2970 C   0  0  0  0  0  1  0  0  0  0  0  0
  1 11  1  0  0  0  0
  2  6  1  0  0  0  0
  3  5  1  0  0  0  0
  4 18  1  6  0  0  0
  4  2  1  0  0  0  0
  4  3  1  0  0  0  0
  5  1  1  0  0  0  0
  6  5  2  0  0  0  0
  7 13  1  0  0  0  0
  8 15  2  0  0  0  0
  9 15  1  0  0  0  0
  9  7  2  0  0  0  0
 10 11  2  0  0  0  0
 10  8  1  0  0  0  0
 11  9  1  0  0  0  0
 12 14  2  0  0  0  0
 13 14  1  0  0  0  0
 14 17  1  0  0  0  0
 15 12  1  0  0  0  0
 17 16  1  0  0  0  0
 19 18  1  0  0  0  0
 20 19  1  0  0  0  0
 21  4  1  0  0  0  0
 22 21  1  0  0  0  0
 23 22  1  0  0  0  0
 24 23  1  0  0  0  0
 25 24  1  0  0  0  0
M  END
>  <MODEL>
8

>  <REMARK>
 VINA RESULT:      -6.0      4.093      5.740
  Name = 
  8 active torsions:
  status: ('A' for Active; 'I' for Inactive)
    1  A    between atoms: N_2  and  C_15
    2  A    between atoms: N_2  and  C_21
    3  A    between atoms: O_5  and  C_23
    4  A    between atoms: C_6  and  C_13
    5  A    between atoms: C_7  and  C_10
    6  A    between atoms: O_8  and  C_21
    7  A    between atoms: C_10  and  C_19
    8  A    between atoms: C_15  and  C_19
                            x       y       z     vdW  Elec       q    Type
                         _______ _______ _______ _____ _____    ______ ____

>  <TORSDO>
F 8

$$$$
=
 OpenBabel10222418083D

 25 27  0  0  1  0  0  0  0  0999 V2000
  188.4380  178.6300  140.9600 C   0  0  0  0  0  2  0  0  0  0  0  0
  189.0430  178.3230  137.4390 N   0  0  0  0  0  2  0  0  0  0  0  0
  189.2670  176.8610  139.3850 C   0  0  0  0  0  2  0  0  0  0  0  0
  189.3870  176.9510  137.8580 C   0  0  2  0  0  0  0  0  0  0  0  0
  188.8040  178.2060  139.7500 C   0  0  0  0  0  0  0  0  0  0  0  0
  188.6660  179.0040  138.6040 N   0  0  0  0  0  0  0  0  0  0  0  0
  190.8630  178.4190  143.1360 C   0  0  0  0  0  3  0  0  0  0  0  0
  187.9020  176.6270  143.8970 N   0  0  0  0  0  0  0  0  0  0  0  0
  189.6110  177.8100  143.1040 C   0  0  0  0  0  0  0  0  0  0  0  0
  187.5280  177.1520  142.7340 N   0  0  0  0  0  0  0  0  0  0  0  0
  188.5540  177.8670  142.2160 C   0  0  0  0  0  0  0  0  0  0  0  0
  189.9460  176.7520  145.2470 C   0  0  0  0  0  3  0  0  0  0  0  0
  191.6810  178.1600  144.2510 C   0  0  0  0  0  2  0  0  0  0  0  0
  191.2310  177.3240  145.3050 C   0  0  0  0  0  0  0  0  0  0  0  0
  189.1640  177.0230  144.1280 C   0  0  0  0  0  0  0  0  0  0  0  0
  191.7350  176.0290  147.3510 C   0  0  0  0  0  1  0  0  0  0  0  0
  192.0360  177.0570  146.4160 O   0  0  0  0  0  0  0  0  0  0  0  0
  190.8270  176.6510  137.4150 C   0  0  0  0  0  2  0  0  0  0  0  0
  191.6750  175.9790  138.4910 C   0  0  0  0  0  2  0  0  0  0  0  0
  192.9580  176.7540  138.7130 C   0  0  0  0  0  1  0  0  0  0  0  0
  188.3950  175.9690  137.2320 C   0  0  0  0  0  2  0  0  0  0  0  0
  189.0750  175.0230  136.3590 N   0  0  0  0  0  2  0  0  0  0  0  0
  188.7390  173.6970  136.8430 C   0  0  0  0  0  2  0  0  0  0  0  0
  189.0480  172.7540  135.8630 O   0  0  0  0  0  0  0  0  0  0  0  0
  189.1250  173.4900  134.6820 C   0  0  0  0  0  1  0  0  0  0  0  0
  1 11  1  0  0  0  0
  2  4  1  0  0  0  0
  2  6  1  0  0  0  0
  3  5  1  0  0  0  0
  4 21  1  6  0  0  0
  4  3  1  0  0  0  0
  5  1  1  0  0  0  0
  6  5  2  0  0  0  0
  7 13  1  0  0  0  0
  8 15  2  0  0  0  0
  9  7  2  0  0  0  0
  9 15  1  0  0  0  0
 10  8  1  0  0  0  0
 11 10  2  0  0  0  0
 11  9  1  0  0  0  0
 12 14  2  0  0  0  0
 13 14  1  0  0  0  0
 14 17  1  0  0  0  0
 15 12  1  0  0  0  0
 17 16  1  0  0  0  0
 18  4  1  0  0  0  0
 18 19  1  0  0  0  0
 19 20  1  0  0  0  0
 22 23  1  0  0  0  0
 22 21  1  0  0  0  0
 24 23  1  0  0  0  0
 25 24  1  0  0  0  0
M  END
>  <MODEL>
9

>  <REMARK>
 VINA RESULT:      -6.0      4.264      6.466
  Name = 
  8 active torsions:
  status: ('A' for Active; 'I' for Inactive)
    1  A    between atoms: N_2  and  C_15
    2  A    between atoms: N_2  and  C_21
    3  A    between atoms: O_5  and  C_23
    4  A    between atoms: C_6  and  C_13
    5  A    between atoms: C_7  and  C_10
    6  A    between atoms: O_8  and  C_21
    7  A    between atoms: C_10  and  C_19
    8  A    between atoms: C_15  and  C_19
                            x       y       z     vdW  Elec       q    Type
                         _______ _______ _______ _____ _____    ______ ____

>  <TORSDO>
F 8

$$$$
