=
 OpenBabel10222417493D

 53 60  0  0  1  0  0  0  0  0999 V2000
  189.5870  177.1780  143.8780 C   0  0  0  0  0  0  0  0  0  0  0  0
  190.2080  176.8270  142.7860 N   0  0  0  0  0  0  0  0  0  0  0  0
  188.2700  178.4610  140.2480 C   0  0  0  0  0  3  0  0  0  0  0  0
  187.4690  178.4670  141.3230 C   0  0  0  0  0  0  0  0  0  0  0  0
  188.2530  177.7920  143.6310 C   0  0  0  0  0  3  0  0  0  0  0  0
  189.2560  177.1030  141.7790 C   0  0  0  0  0  0  0  0  0  0  0  0
  188.0810  177.6270  142.3320 C   0  0  0  0  0  0  0  0  0  0  0  0
  189.4380  177.6080  140.5680 C   0  0  0  0  0  0  0  0  0  0  0  0
  191.6570  176.8830  146.7810 O   0  0  0  0  0  0  0  0  0  0  0  0
  190.5010  176.9690  147.3700 N   0  0  0  0  0  0  0  0  0  0  0  0
  190.2070  177.0810  145.2030 C   0  0  0  0  0  0  0  0  0  0  0  0
  191.5510  176.9440  145.4730 C   0  0  0  0  0  3  0  0  0  0  0  0
  189.5570  177.0920  146.4190 C   0  0  0  0  0  3  0  0  0  0  0  0
  186.2050  179.2430  141.4720 C   0  0  0  0  0  2  0  0  0  0  0  0
  185.0360  178.8830  140.1140 S   0  0  0  0  0  0  0  0  0  0  0  0
  183.6410  178.3040  141.1500 C   0  0  1  0  0  3  0  0  0  0  0  0
  181.8620  177.0820  140.1990 O   0  0  0  0  0  0  0  0  0  0  0  0
  183.0160  177.0680  140.5910 C   0  0  0  0  0  3  0  0  0  0  0  0
  184.0590  178.0840  142.5250 N   0  0  0  0  0  2  0  0  0  0  0  0
  182.0580  179.2610  142.5960 O   0  0  0  0  0  1  0  0  0  0  0  0
  183.0090  178.6130  143.3840 C   0  0  2  0  0  3  0  0  0  0  0  0
  183.5960  179.5930  144.3940 C   0  0  2  0  0  3  0  0  0  0  0  0
  184.7420  180.1900  143.8650 O   0  0  0  0  0  1  0  0  0  0  0  0
  183.9450  178.8880  145.6180 N   0  0  0  0  0  2  0  0  0  0  0  0
  185.8530  179.2940  147.0520 C   0  0  0  0  0  2  0  0  0  0  0  0
  185.8070  177.8150  146.7330 C   0  0  0  0  0  2  0  0  0  0  0  0
  185.3960  178.8280  145.6840 C   0  0  0  0  0  3  0  0  0  0  0  0
  190.7120  177.5590  139.7930 C   0  0  0  0  0  2  0  0  0  0  0  0
  187.6990  177.4550  137.1960 C   0  0  2  0  0  3  0  0  0  0  0  0
  190.4440  177.1820  138.3450 C   0  0  1  0  0  3  0  0  0  0  0  0
  189.4370  176.0610  138.2950 C   0  0  0  0  0  2  0  0  0  0  0  0
  189.0840  177.7240  136.6400 C   0  0  2  0  0  3  0  0  0  0  0  0
  188.6850  176.3130  137.0220 C   0  0  2  0  0  3  0  0  0  0  0  0
  189.9000  178.2710  137.6480 O   0  0  0  0  0  0  0  0  0  0  0  0
  185.4050  176.9660  136.2780 C   0  0  0  0  0  0  0  0  0  0  0  0
  184.4880  177.0430  135.1850 N   0  0  0  0  0  2  0  0  0  0  0  0
  185.0360  176.4880  137.3860 O   0  0  0  0  0  0  0  0  0  0  0  0
  186.7390  177.4410  136.1050 N   0  0  0  0  0  2  0  0  0  0  0  0
  181.6560  175.9710  137.1500 C   0  0  1  0  0  3  0  0  0  0  0  0
  182.3380  174.7230  136.6250 C   0  0  0  0  0  2  0  0  0  0  0  0
  183.0970  176.6320  135.2970 C   0  0  2  0  0  3  0  0  0  0  0  0
  182.5320  177.0990  136.6270 C   0  0  1  0  0  3  0  0  0  0  0  0
  182.9980  175.1130  135.3130 C   0  0  0  0  0  2  0  0  0  0  0  0
  181.8610  178.4400  136.5660 C   0  0  0  0  0  0  0  0  0  0  0  0
  180.5930  180.9390  136.5280 C   0  0  0  0  0  3  0  0  0  0  0  0
  181.1830  178.8710  135.4160 C   0  0  0  0  0  3  0  0  0  0  0  0
  180.5520  180.1180  135.3970 C   0  0  0  0  0  3  0  0  0  0  0  0
  181.2630  180.5110  137.6780 C   0  0  0  0  0  3  0  0  0  0  0  0
  181.8930  179.2630  137.6980 C   0  0  0  0  0  3  0  0  0  0  0  0
  180.3420  176.0550  136.6050 O   0  0  0  0  0  0  0  0  0  0  0  0
  178.9310  174.3440  137.7340 C   0  0  0  0  0  1  0  0  0  0  0  0
  179.2130  174.4520  135.3780 O   0  0  0  0  0  0  0  0  0  0  0  0
  179.4980  174.9470  136.5010 C   0  0  0  0  0  0  0  0  0  0  0  0
  1 11  1  0  0  0  0
  2  1  2  0  0  0  0
  3  8  1  0  0  0  0
  3  4  2  0  0  0  0
  4 14  1  0  0  0  0
  4  7  1  0  0  0  0
  5  1  1  0  0  0  0
  6  7  1  0  0  0  0
  6  2  1  0  0  0  0
  7  5  2  0  0  0  0
  8  6  2  0  0  0  0
  9 10  1  0  0  0  0
 11 12  2  0  0  0  0
 11 13  1  0  0  0  0
 12  9  1  0  0  0  0
 13 10  2  0  0  0  0
 15 16  1  0  0  0  0
 15 14  1  0  0  0  0
 16 18  1  6  0  0  0
 16 19  1  0  0  0  0
 17 18  2  0  0  0  0
 19 21  1  0  0  0  0
 21 20  1  6  0  0  0
 21 22  1  0  0  0  0
 22 23  1  6  0  0  0
 22 24  1  0  0  0  0
 24 27  1  0  0  0  0
 26 25  1  0  0  0  0
 27 26  1  0  0  0  0
 27 25  1  0  0  0  0
 28  8  1  0  0  0  0
 29 38  1  6  0  0  0
 30 28  1  1  0  0  0
 31 30  1  0  0  0  0
 32 33  1  0  0  0  0
 32 29  1  0  0  0  0
 32 34  1  1  0  0  0
 33 29  1  0  0  0  0
 33 31  1  1  0  0  0
 34 30  1  0  0  0  0
 35 37  2  0  0  0  0
 36 35  1  0  0  0  0
 38 35  1  0  0  0  0
 39 50  1  6  0  0  0
 40 39  1  0  0  0  0
 41 36  1  1  0  0  0
 41 43  1  0  0  0  0
 41 42  1  0  0  0  0
 42 44  1  6  0  0  0
 42 39  1  0  0  0  0
 43 40  1  0  0  0  0
 44 49  1  0  0  0  0
 45 48  1  0  0  0  0
 46 44  2  0  0  0  0
 47 46  1  0  0  0  0
 47 45  2  0  0  0  0
 48 49  2  0  0  0  0
 52 53  2  0  0  0  0
 53 50  1  0  0  0  0
 53 51  1  0  0  0  0
M  END
>  <MODEL>
1

>  <REMARK>
 VINA RESULT:      -7.7      0.000      0.000
  Name = 
  17 active torsions:
  status: ('A' for Active; 'I' for Inactive)
    1  A    between atoms: C_1  and  N_37
    2  A    between atoms: C_5  and  C_7
    3  A    between atoms: O_6  and  C_9
    4  A    between atoms: O_6  and  C_51
    5  A    between atoms: C_7  and  N_43
    6  A    between atoms: C_7  and  S_44
    7  A    between atoms: C_8  and  C_36
    8  A    between atoms: C_10  and  C_17
    9  A    between atoms: C_12  and  C_42
   10  A    between atoms: N_15  and  C_38
   11  A    between atoms: N_15  and  C_45
   12  A    between atoms: C_23  and  C_29
   13  A    between atoms: N_25  and  C_39
   14  A    between atoms: C_29  and  S_44
   15  A    between atoms: C_30  and  N_43
   16  A    between atoms: C_30  and  C_45
   17  A    between atoms: C_36  and  C_49
                            x       y       z     vdW  Elec       q    Type
                         _______ _______ _______ _____ _____    ______ ____

>  <TORSDO>
F 17

$$$$
=
 OpenBabel10222417493D

 53 60  0  0  1  0  0  0  0  0999 V2000
  181.6020  179.9290  137.7290 C   0  0  0  0  0  0  0  0  0  0  0  0
  181.5040  178.6980  137.3090 N   0  0  0  0  0  0  0  0  0  0  0  0
  182.5390  176.8240  140.1860 C   0  0  0  0  0  3  0  0  0  0  0  0
  182.9840  178.0640  140.4290 C   0  0  0  0  0  0  0  0  0  0  0  0
  182.3480  180.0600  139.0110 C   0  0  0  0  0  3  0  0  0  0  0  0
  182.2760  177.9800  138.2490 C   0  0  0  0  0  0  0  0  0  0  0  0
  182.8080  178.8400  139.2180 C   0  0  0  0  0  0  0  0  0  0  0  0
  182.0500  176.7920  138.7880 C   0  0  0  0  0  0  0  0  0  0  0  0
  179.8580  182.2280  135.6150 O   0  0  0  0  0  0  0  0  0  0  0  0
  180.1540  183.0390  136.5880 N   0  0  0  0  0  0  0  0  0  0  0  0
  180.9330  181.0470  137.0570 C   0  0  0  0  0  0  0  0  0  0  0  0
  180.2990  181.0110  135.8350 C   0  0  0  0  0  3  0  0  0  0  0  0
  180.8330  182.3430  137.5180 C   0  0  0  0  0  3  0  0  0  0  0  0
  183.5120  178.5690  141.7280 C   0  0  0  0  0  2  0  0  0  0  0  0
  185.3190  178.3270  141.8550 S   0  0  0  0  0  0  0  0  0  0  0  0
  185.4680  178.6010  143.6600 C   0  0  1  0  0  3  0  0  0  0  0  0
  184.0450  178.9870  145.5000 O   0  0  0  0  0  0  0  0  0  0  0  0
  184.1310  178.7640  144.3040 C   0  0  0  0  0  3  0  0  0  0  0  0
  186.2110  177.5260  144.2990 N   0  0  0  0  0  2  0  0  0  0  0  0
  187.6730  175.9970  143.3380 O   0  0  0  0  0  1  0  0  0  0  0  0
  187.4500  177.3570  143.5520 C   0  0  2  0  0  3  0  0  0  0  0  0
  188.6200  177.9560  144.3260 C   0  0  2  0  0  3  0  0  0  0  0  0
  189.6480  178.2940  143.4440 O   0  0  0  0  0  1  0  0  0  0  0  0
  189.1150  176.9890  145.2940 N   0  0  0  0  0  2  0  0  0  0  0  0
  188.8510  177.1730  147.6940 C   0  0  0  0  0  2  0  0  0  0  0  0
  190.2890  176.8030  147.4030 C   0  0  0  0  0  2  0  0  0  0  0  0
  189.5440  177.7330  146.4670 C   0  0  0  0  0  3  0  0  0  0  0  0
  181.2010  175.7190  138.1930 C   0  0  0  0  0  2  0  0  0  0  0  0
  184.6120  175.7080  136.1460 C   0  0  2  0  0  3  0  0  0  0  0  0
  182.0430  174.7740  137.3530 C   0  0  1  0  0  3  0  0  0  0  0  0
  182.1670  175.3180  135.9520 C   0  0  0  0  0  2  0  0  0  0  0  0
  184.1880  174.4030  136.7930 C   0  0  2  0  0  3  0  0  0  0  0  0
  183.5250  174.8610  135.5100 C   0  0  2  0  0  3  0  0  0  0  0  0
  183.3390  174.6710  137.8830 O   0  0  0  0  0  0  0  0  0  0  0  0
  187.1040  175.3330  136.1230 C   0  0  0  0  0  0  0  0  0  0  0  0
  188.2890  175.0690  135.3720 N   0  0  0  0  0  2  0  0  0  0  0  0
  187.1500  175.4060  137.3820 O   0  0  0  0  0  0  0  0  0  0  0  0
  185.8640  175.5060  135.4370 N   0  0  0  0  0  2  0  0  0  0  0  0
  191.7730  175.8800  135.8550 C   0  0  1  0  0  3  0  0  0  0  0  0
  191.7050  174.8040  134.7890 C   0  0  0  0  0  2  0  0  0  0  0  0
  189.5790  174.8260  135.9990 C   0  0  2  0  0  3  0  0  0  0  0  0
  190.3120  176.1420  136.1860 C   0  0  1  0  0  3  0  0  0  0  0  0
  190.4580  173.9860  135.0830 C   0  0  0  0  0  2  0  0  0  0  0  0
  190.0760  176.7860  137.5210 C   0  0  0  0  0  0  0  0  0  0  0  0
  189.6410  178.0580  139.9800 C   0  0  0  0  0  3  0  0  0  0  0  0
  190.5060  176.1840  138.7140 C   0  0  0  0  0  3  0  0  0  0  0  0
  190.2870  176.8190  139.9400 C   0  0  0  0  0  3  0  0  0  0  0  0
  189.2150  178.6630  138.7940 C   0  0  0  0  0  3  0  0  0  0  0  0
  189.4350  178.0290  137.5670 C   0  0  0  0  0  3  0  0  0  0  0  0
  192.4680  175.3740  136.9920 O   0  0  0  0  0  0  0  0  0  0  0  0
  194.4740  174.0840  137.7040 C   0  0  0  0  0  1  0  0  0  0  0  0
  194.5990  176.1360  136.5140 O   0  0  0  0  0  0  0  0  0  0  0  0
  193.8590  175.2590  137.0340 C   0  0  0  0  0  0  0  0  0  0  0  0
  1  5  1  0  0  0  0
  2  1  2  0  0  0  0
  2  6  1  0  0  0  0
  3  4  2  0  0  0  0
  4 14  1  0  0  0  0
  5  7  2  0  0  0  0
  6  8  2  0  0  0  0
  6  7  1  0  0  0  0
  7  4  1  0  0  0  0
  8  3  1  0  0  0  0
  9 12  1  0  0  0  0
  9 10  1  0  0  0  0
 10 13  2  0  0  0  0
 11 13  1  0  0  0  0
 11  1  1  0  0  0  0
 12 11  2  0  0  0  0
 14 15  1  0  0  0  0
 15 16  1  0  0  0  0
 16 19  1  0  0  0  0
 16 18  1  1  0  0  0
 18 17  2  0  0  0  0
 21 20  1  1  0  0  0
 21 19  1  0  0  0  0
 21 22  1  0  0  0  0
 22 23  1  6  0  0  0
 22 24  1  0  0  0  0
 24 27  1  0  0  0  0
 26 25  1  0  0  0  0
 27 26  1  0  0  0  0
 27 25  1  0  0  0  0
 28  8  1  0  0  0  0
 29 38  1  6  0  0  0
 29 32  1  0  0  0  0
 30 34  1  0  0  0  0
 30 28  1  1  0  0  0
 31 30  1  0  0  0  0
 32 34  1  1  0  0  0
 33 31  1  1  0  0  0
 33 29  1  0  0  0  0
 33 32  1  0  0  0  0
 35 37  2  0  0  0  0
 36 35  1  0  0  0  0
 38 35  1  0  0  0  0
 39 42  1  0  0  0  0
 39 50  1  1  0  0  0
 40 43  1  0  0  0  0
 40 39  1  0  0  0  0
 41 36  1  6  0  0  0
 41 42  1  0  0  0  0
 42 44  1  1  0  0  0
 43 41  1  0  0  0  0
 44 49  2  0  0  0  0
 44 46  1  0  0  0  0
 46 47  2  0  0  0  0
 47 45  1  0  0  0  0
 48 45  2  0  0  0  0
 49 48  1  0  0  0  0
 50 53  1  0  0  0  0
 52 53  2  0  0  0  0
 53 51  1  0  0  0  0
M  END
>  <MODEL>
2

>  <REMARK>
 VINA RESULT:      -7.4      2.695      8.746
  Name = 
  17 active torsions:
  status: ('A' for Active; 'I' for Inactive)
    1  A    between atoms: C_1  and  N_37
    2  A    between atoms: C_5  and  C_7
    3  A    between atoms: O_6  and  C_9
    4  A    between atoms: O_6  and  C_51
    5  A    between atoms: C_7  and  N_43
    6  A    between atoms: C_7  and  S_44
    7  A    between atoms: C_8  and  C_36
    8  A    between atoms: C_10  and  C_17
    9  A    between atoms: C_12  and  C_42
   10  A    between atoms: N_15  and  C_38
   11  A    between atoms: N_15  and  C_45
   12  A    between atoms: C_23  and  C_29
   13  A    between atoms: N_25  and  C_39
   14  A    between atoms: C_29  and  S_44
   15  A    between atoms: C_30  and  N_43
   16  A    between atoms: C_30  and  C_45
   17  A    between atoms: C_36  and  C_49
                            x       y       z     vdW  Elec       q    Type
                         _______ _______ _______ _____ _____    ______ ____

>  <TORSDO>
F 17

$$$$
=
 OpenBabel10222417493D

 53 60  0  0  1  0  0  0  0  0999 V2000
  192.5430  173.7060  136.6940 C   0  0  0  0  0  0  0  0  0  0  0  0
  191.4930  173.0590  136.2670 N   0  0  0  0  0  0  0  0  0  0  0  0
  188.8570  175.4240  136.8320 C   0  0  0  0  0  3  0  0  0  0  0  0
  189.8650  175.8740  137.5920 C   0  0  0  0  0  0  0  0  0  0  0  0
  192.2090  174.9300  137.4730 C   0  0  0  0  0  3  0  0  0  0  0  0
  190.4220  173.7790  136.8430 C   0  0  0  0  0  0  0  0  0  0  0  0
  190.8970  174.8560  137.6010 C   0  0  0  0  0  0  0  0  0  0  0  0
  189.2440  174.0880  136.3240 C   0  0  0  0  0  0  0  0  0  0  0  0
  195.7250  172.1940  136.0730 O   0  0  0  0  0  0  0  0  0  0  0  0
  195.9670  173.3740  135.5810 N   0  0  0  0  0  0  0  0  0  0  0  0
  193.9090  173.3200  136.3280 C   0  0  0  0  0  0  0  0  0  0  0  0
  194.5020  172.0950  136.5400 C   0  0  0  0  0  3  0  0  0  0  0  0
  194.8550  174.1190  135.7210 C   0  0  0  0  0  3  0  0  0  0  0  0
  189.9360  177.2050  138.2600 C   0  0  0  0  0  2  0  0  0  0  0  0
  190.1420  177.0350  140.0680 S   0  0  0  0  0  0  0  0  0  0  0  0
  188.9090  178.2950  140.5650 C   0  0  1  0  0  3  0  0  0  0  0  0
  186.6250  178.6440  140.0900 O   0  0  0  0  0  0  0  0  0  0  0  0
  187.7100  178.2740  139.6740 C   0  0  0  0  0  3  0  0  0  0  0  0
  188.5110  178.1260  141.9540 N   0  0  0  0  0  2  0  0  0  0  0  0
  188.4100  175.9900  142.8600 O   0  0  0  0  0  1  0  0  0  0  0  0
  189.2820  177.0140  142.4900 C   0  0  2  0  0  3  0  0  0  0  0  0
  190.0900  177.4650  143.7020 C   0  0  2  0  0  3  0  0  0  0  0  0
  190.7610  176.3740  144.2570 O   0  0  0  0  0  1  0  0  0  0  0  0
  189.2010  178.0390  144.7000 N   0  0  0  0  0  2  0  0  0  0  0  0
  189.1170  177.9100  147.1170 C   0  0  0  0  0  2  0  0  0  0  0  0
  187.8510  177.2920  146.5660 C   0  0  0  0  0  2  0  0  0  0  0  0
  189.1610  177.1180  145.8240 C   0  0  0  0  0  3  0  0  0  0  0  0
  188.5700  173.3560  135.2120 C   0  0  0  0  0  2  0  0  0  0  0  0
  185.4130  174.7350  137.2030 C   0  0  2  0  0  3  0  0  0  0  0  0
  187.1800  172.9080  135.6310 C   0  0  1  0  0  3  0  0  0  0  0  0
  187.0850  172.8990  137.1360 C   0  0  0  0  0  2  0  0  0  0  0  0
  185.1470  173.7610  136.0710 C   0  0  2  0  0  3  0  0  0  0  0  0
  185.6520  173.2490  137.4060 C   0  0  2  0  0  3  0  0  0  0  0  0
  186.2110  173.8040  135.1510 O   0  0  0  0  0  0  0  0  0  0  0  0
  183.8100  176.4770  138.0660 C   0  0  0  0  0  0  0  0  0  0  0  0
  182.5250  176.7880  138.6060 N   0  0  0  0  0  2  0  0  0  0  0  0
  184.6320  177.3970  137.8060 O   0  0  0  0  0  0  0  0  0  0  0  0
  184.1510  175.1140  137.8160 N   0  0  0  0  0  2  0  0  0  0  0  0
  180.0590  179.1600  139.7590 C   0  0  1  0  0  3  0  0  0  0  0  0
  179.8490  178.9810  138.2670 C   0  0  0  0  0  2  0  0  0  0  0  0
  182.0810  178.1550  138.8370 C   0  0  2  0  0  3  0  0  0  0  0  0
  181.1990  178.2030  140.0720 C   0  0  1  0  0  3  0  0  0  0  0  0
  181.2060  178.6240  137.6830 C   0  0  0  0  0  2  0  0  0  0  0  0
  181.9430  178.5060  141.3400 C   0  0  0  0  0  0  0  0  0  0  0  0
  183.3920  179.0290  143.6810 C   0  0  0  0  0  3  0  0  0  0  0  0
  181.2740  178.6890  142.5590 C   0  0  0  0  0  3  0  0  0  0  0  0
  181.9970  178.9510  143.7260 C   0  0  0  0  0  3  0  0  0  0  0  0
  184.0640  178.8420  142.4690 C   0  0  0  0  0  3  0  0  0  0  0  0
  183.3410  178.5780  141.3020 C   0  0  0  0  0  3  0  0  0  0  0  0
  180.4400  180.5070  140.0230 O   0  0  0  0  0  0  0  0  0  0  0  0
  181.0720  182.1020  138.2200 C   0  0  0  0  0  1  0  0  0  0  0  0
  178.9300  182.0790  139.2480 O   0  0  0  0  0  0  0  0  0  0  0  0
  180.0810  181.5680  139.1890 C   0  0  0  0  0  0  0  0  0  0  0  0
  1  5  1  0  0  0  0
  2  1  2  0  0  0  0
  2  6  1  0  0  0  0
  3  4  2  0  0  0  0
  4  7  1  0  0  0  0
  4 14  1  0  0  0  0
  5  7  2  0  0  0  0
  6  7  1  0  0  0  0
  8  3  1  0  0  0  0
  8  6  2  0  0  0  0
  9 12  1  0  0  0  0
 10 13  2  0  0  0  0
 10  9  1  0  0  0  0
 11 12  2  0  0  0  0
 11  1  1  0  0  0  0
 13 11  1  0  0  0  0
 14 15  1  0  0  0  0
 15 16  1  0  0  0  0
 16 18  1  6  0  0  0
 16 19  1  0  0  0  0
 18 17  2  0  0  0  0
 19 21  1  0  0  0  0
 21 20  1  1  0  0  0
 21 22  1  0  0  0  0
 22 23  1  1  0  0  0
 22 24  1  0  0  0  0
 24 27  1  0  0  0  0
 26 25  1  0  0  0  0
 27 26  1  0  0  0  0
 27 25  1  0  0  0  0
 28  8  1  0  0  0  0
 29 33  1  0  0  0  0
 29 38  1  1  0  0  0
 30 28  1  1  0  0  0
 30 31  1  0  0  0  0
 32 34  1  6  0  0  0
 32 29  1  0  0  0  0
 32 33  1  0  0  0  0
 33 31  1  6  0  0  0
 34 30  1  0  0  0  0
 35 36  1  0  0  0  0
 37 35  2  0  0  0  0
 38 35  1  0  0  0  0
 39 50  1  6  0  0  0
 39 42  1  0  0  0  0
 40 39  1  0  0  0  0
 41 36  1  6  0  0  0
 41 42  1  0  0  0  0
 42 44  1  1  0  0  0
 43 40  1  0  0  0  0
 43 41  1  0  0  0  0
 44 46  1  0  0  0  0
 45 47  1  0  0  0  0
 46 47  2  0  0  0  0
 48 45  2  0  0  0  0
 49 44  2  0  0  0  0
 49 48  1  0  0  0  0
 51 53  1  0  0  0  0
 53 52  2  0  0  0  0
 53 50  1  0  0  0  0
M  END
>  <MODEL>
3

>  <REMARK>
 VINA RESULT:      -7.0      3.525      6.553
  Name = 
  17 active torsions:
  status: ('A' for Active; 'I' for Inactive)
    1  A    between atoms: C_1  and  N_37
    2  A    between atoms: C_5  and  C_7
    3  A    between atoms: O_6  and  C_9
    4  A    between atoms: O_6  and  C_51
    5  A    between atoms: C_7  and  N_43
    6  A    between atoms: C_7  and  S_44
    7  A    between atoms: C_8  and  C_36
    8  A    between atoms: C_10  and  C_17
    9  A    between atoms: C_12  and  C_42
   10  A    between atoms: N_15  and  C_38
   11  A    between atoms: N_15  and  C_45
   12  A    between atoms: C_23  and  C_29
   13  A    between atoms: N_25  and  C_39
   14  A    between atoms: C_29  and  S_44
   15  A    between atoms: C_30  and  N_43
   16  A    between atoms: C_30  and  C_45
   17  A    between atoms: C_36  and  C_49
                            x       y       z     vdW  Elec       q    Type
                         _______ _______ _______ _____ _____    ______ ____

>  <TORSDO>
F 17

$$$$
=
 OpenBabel10222417493D

 53 60  0  0  1  0  0  0  0  0999 V2000
  184.2980  173.6640  135.8460 C   0  0  0  0  0  0  0  0  0  0  0  0
  185.1560  174.2660  135.0700 N   0  0  0  0  0  0  0  0  0  0  0  0
  185.2920  177.5570  136.4890 C   0  0  0  0  0  3  0  0  0  0  0  0
  184.1670  177.0320  136.9930 C   0  0  0  0  0  0  0  0  0  0  0  0
  183.5440  174.5950  136.7300 C   0  0  0  0  0  3  0  0  0  0  0  0
  184.9230  175.6330  135.3400 C   0  0  0  0  0  0  0  0  0  0  0  0
  183.9130  175.7870  136.2980 C   0  0  0  0  0  0  0  0  0  0  0  0
  185.7910  176.6270  135.4500 C   0  0  0  0  0  0  0  0  0  0  0  0
  184.5520  170.1020  135.6300 O   0  0  0  0  0  0  0  0  0  0  0  0
  183.4840  170.1810  136.3690 N   0  0  0  0  0  0  0  0  0  0  0  0
  184.1880  172.2040  135.9160 C   0  0  0  0  0  0  0  0  0  0  0  0
  185.0260  171.2870  135.3220 C   0  0  0  0  0  3  0  0  0  0  0  0
  183.2140  171.4830  136.5740 C   0  0  0  0  0  3  0  0  0  0  0  0
  183.3550  177.6000  138.1070 C   0  0  0  0  0  2  0  0  0  0  0  0
  181.9580  178.5960  137.4760 S   0  0  0  0  0  0  0  0  0  0  0  0
  180.8230  178.3330  138.8880 C   0  0  1  0  0  3  0  0  0  0  0  0
  179.8560  176.4350  137.8750 O   0  0  0  0  0  0  0  0  0  0  0  0
  180.2740  176.9440  138.9020 C   0  0  0  0  0  3  0  0  0  0  0  0
  181.4740  178.6330  140.1540 N   0  0  0  0  0  2  0  0  0  0  0  0
  180.3690  180.3930  141.1930 O   0  0  0  0  0  1  0  0  0  0  0  0
  180.4280  179.0030  141.0970 C   0  0  2  0  0  3  0  0  0  0  0  0
  180.7190  178.4030  142.4700 C   0  0  2  0  0  3  0  0  0  0  0  0
  179.5260  178.2410  143.1780 O   0  0  0  0  0  1  0  0  0  0  0  0
  181.6030  179.2860  143.2150 N   0  0  0  0  0  2  0  0  0  0  0  0
  184.0190  179.2640  143.3800 C   0  0  0  0  0  2  0  0  0  0  0  0
  183.4480  179.2100  144.7800 C   0  0  0  0  0  2  0  0  0  0  0  0
  182.7410  178.4930  143.6480 C   0  0  0  0  0  3  0  0  0  0  0  0
  187.1560  176.6540  134.8480 C   0  0  0  0  0  2  0  0  0  0  0  0
  187.9520  178.3280  138.3690 C   0  0  2  0  0  3  0  0  0  0  0  0
  188.2200  176.6180  135.9330 C   0  0  1  0  0  3  0  0  0  0  0  0
  188.8420  177.9840  136.0750 C   0  0  0  0  0  2  0  0  0  0  0  0
  188.4380  176.9080  138.1510 C   0  0  2  0  0  3  0  0  0  0  0  0
  189.1910  178.0680  137.5310 C   0  0  2  0  0  3  0  0  0  0  0  0
  187.6460  176.2830  137.1700 O   0  0  0  0  0  0  0  0  0  0  0  0
  188.8200  177.8610  140.6880 C   0  0  0  0  0  0  0  0  0  0  0  0
  189.2560  178.3680  141.9490 N   0  0  0  0  0  2  0  0  0  0  0  0
  188.8590  176.6230  140.4500 O   0  0  0  0  0  0  0  0  0  0  0  0
  188.3450  178.7710  139.6960 N   0  0  0  0  0  2  0  0  0  0  0  0
  191.0820  177.9130  145.0310 C   0  0  1  0  0  3  0  0  0  0  0  0
  192.0690  177.7380  143.8930 C   0  0  0  0  0  2  0  0  0  0  0  0
  189.8050  177.5130  142.9910 C   0  0  2  0  0  3  0  0  0  0  0  0
  189.7790  178.2470  144.3200 C   0  0  1  0  0  3  0  0  0  0  0  0
  191.2720  177.2170  142.7090 C   0  0  0  0  0  2  0  0  0  0  0  0
  188.5400  177.9970  145.1290 C   0  0  0  0  0  0  0  0  0  0  0  0
  186.2700  177.5160  146.7000 C   0  0  0  0  0  3  0  0  0  0  0  0
  187.3790  177.4620  144.5490 C   0  0  0  0  0  3  0  0  0  0  0  0
  186.2470  177.2230  145.3330 C   0  0  0  0  0  3  0  0  0  0  0  0
  187.4250  178.0440  147.2840 C   0  0  0  0  0  3  0  0  0  0  0  0
  188.5590  178.2810  146.4990 C   0  0  0  0  0  3  0  0  0  0  0  0
  190.9680  176.6860  145.7480 O   0  0  0  0  0  0  0  0  0  0  0  0
  192.4380  175.1880  147.0850 C   0  0  0  0  0  1  0  0  0  0  0  0
  191.6280  177.2730  147.8860 O   0  0  0  0  0  0  0  0  0  0  0  0
  191.6580  176.4440  146.9380 C   0  0  0  0  0  0  0  0  0  0  0  0
  1 11  1  0  0  0  0
  1  5  1  0  0  0  0
  2  6  1  0  0  0  0
  2  1  2  0  0  0  0
  3  4  2  0  0  0  0
  4 14  1  0  0  0  0
  6  8  2  0  0  0  0
  6  7  1  0  0  0  0
  7  5  2  0  0  0  0
  7  4  1  0  0  0  0
  8  3  1  0  0  0  0
  9 10  1  0  0  0  0
 10 13  2  0  0  0  0
 11 13  1  0  0  0  0
 12  9  1  0  0  0  0
 12 11  2  0  0  0  0
 15 14  1  0  0  0  0
 15 16  1  0  0  0  0
 16 18  1  1  0  0  0
 16 19  1  0  0  0  0
 17 18  2  0  0  0  0
 19 21  1  0  0  0  0
 21 20  1  1  0  0  0
 21 22  1  0  0  0  0
 22 23  1  1  0  0  0
 22 24  1  0  0  0  0
 24 27  1  0  0  0  0
 25 27  1  0  0  0  0
 25 26  1  0  0  0  0
 27 26  1  0  0  0  0
 28  8  1  0  0  0  0
 29 38  1  1  0  0  0
 30 28  1  6  0  0  0
 30 31  1  0  0  0  0
 30 34  1  0  0  0  0
 32 34  1  6  0  0  0
 32 29  1  0  0  0  0
 33 31  1  6  0  0  0
 33 32  1  0  0  0  0
 33 29  1  0  0  0  0
 35 36  1  0  0  0  0
 37 35  2  0  0  0  0
 38 35  1  0  0  0  0
 39 50  1  6  0  0  0
 40 39  1  0  0  0  0
 41 36  1  6  0  0  0
 41 42  1  0  0  0  0
 42 39  1  0  0  0  0
 42 44  1  1  0  0  0
 43 41  1  0  0  0  0
 43 40  1  0  0  0  0
 44 49  1  0  0  0  0
 45 48  1  0  0  0  0
 46 44  2  0  0  0  0
 46 47  1  0  0  0  0
 47 45  2  0  0  0  0
 49 48  2  0  0  0  0
 50 53  1  0  0  0  0
 53 51  1  0  0  0  0
 53 52  2  0  0  0  0
M  END
>  <MODEL>
4

>  <REMARK>
 VINA RESULT:      -6.9      2.485      9.039
  Name = 
  17 active torsions:
  status: ('A' for Active; 'I' for Inactive)
    1  A    between atoms: C_1  and  N_37
    2  A    between atoms: C_5  and  C_7
    3  A    between atoms: O_6  and  C_9
    4  A    between atoms: O_6  and  C_51
    5  A    between atoms: C_7  and  N_43
    6  A    between atoms: C_7  and  S_44
    7  A    between atoms: C_8  and  C_36
    8  A    between atoms: C_10  and  C_17
    9  A    between atoms: C_12  and  C_42
   10  A    between atoms: N_15  and  C_38
   11  A    between atoms: N_15  and  C_45
   12  A    between atoms: C_23  and  C_29
   13  A    between atoms: N_25  and  C_39
   14  A    between atoms: C_29  and  S_44
   15  A    between atoms: C_30  and  N_43
   16  A    between atoms: C_30  and  C_45
   17  A    between atoms: C_36  and  C_49
                            x       y       z     vdW  Elec       q    Type
                         _______ _______ _______ _____ _____    ______ ____

>  <TORSDO>
F 17

$$$$
=
 OpenBabel10222417493D

 53 60  0  0  1  0  0  0  0  0999 V2000
  187.7240  177.5870  144.7010 C   0  0  0  0  0  0  0  0  0  0  0  0
  188.6210  177.4210  143.7680 N   0  0  0  0  0  0  0  0  0  0  0  0
  186.9110  178.6090  140.8480 C   0  0  0  0  0  3  0  0  0  0  0  0
  185.9290  178.3980  141.7350 C   0  0  0  0  0  0  0  0  0  0  0  0
  186.3630  177.8720  144.1710 C   0  0  0  0  0  3  0  0  0  0  0  0
  187.8570  177.4880  142.5800 C   0  0  0  0  0  0  0  0  0  0  0  0
  186.5040  177.7030  142.8690 C   0  0  0  0  0  0  0  0  0  0  0  0
  188.1570  178.0510  141.4200 C   0  0  0  0  0  0  0  0  0  0  0  0
  189.1510  177.4650  147.9800 O   0  0  0  0  0  0  0  0  0  0  0  0
  187.9300  177.7750  148.3050 N   0  0  0  0  0  0  0  0  0  0  0  0
  188.0660  177.6090  146.1260 C   0  0  0  0  0  0  0  0  0  0  0  0
  189.3000  177.3490  146.6800 C   0  0  0  0  0  3  0  0  0  0  0  0
  187.2100  177.8740  147.1740 C   0  0  0  0  0  3  0  0  0  0  0  0
  184.5140  178.8460  141.6030 C   0  0  0  0  0  2  0  0  0  0  0  0
  184.1240  179.3340  139.8850 S   0  0  0  0  0  0  0  0  0  0  0  0
  182.3310  178.9630  139.9360 C   0  0  1  0  0  3  0  0  0  0  0  0
  181.0920  179.3750  141.9000 O   0  0  0  0  0  0  0  0  0  0  0  0
  181.8740  178.6410  141.3210 C   0  0  0  0  0  3  0  0  0  0  0  0
  181.5490  180.0600  139.3870 N   0  0  0  0  0  2  0  0  0  0  0  0
  181.9400  178.9660  137.3750 O   0  0  0  0  0  1  0  0  0  0  0  0
  180.9550  179.5850  138.1450 C   0  0  2  0  0  3  0  0  0  0  0  0
  180.3500  180.7500  137.3680 C   0  0  2  0  0  3  0  0  0  0  0  0
  180.6950  180.6490  136.0190 O   0  0  0  0  0  1  0  0  0  0  0  0
  180.8510  182.0080  137.8990 N   0  0  0  0  0  2  0  0  0  0  0  0
  180.0860  184.2930  137.6560 C   0  0  0  0  0  2  0  0  0  0  0  0
  181.4940  184.2040  137.1080 C   0  0  0  0  0  2  0  0  0  0  0  0
  180.5370  183.0420  136.9270 C   0  0  0  0  0  3  0  0  0  0  0  0
  189.5370  178.3270  140.9230 C   0  0  0  0  0  2  0  0  0  0  0  0
  187.2120  177.2260  137.8880 C   0  0  2  0  0  3  0  0  0  0  0  0
  189.6320  178.0570  139.4310 C   0  0  1  0  0  3  0  0  0  0  0  0
  189.2620  176.6220  139.1530 C   0  0  0  0  0  2  0  0  0  0  0  0
  188.3710  178.1510  137.5730 C   0  0  2  0  0  3  0  0  0  0  0  0
  188.6220  176.6740  137.7970 C   0  0  2  0  0  3  0  0  0  0  0  0
  188.7300  178.8710  138.7280 O   0  0  0  0  0  0  0  0  0  0  0  0
  185.6060  175.8110  136.5590 C   0  0  0  0  0  0  0  0  0  0  0  0
  184.8730  175.6110  135.3500 N   0  0  0  0  0  2  0  0  0  0  0  0
  185.4670  175.0150  137.5280 O   0  0  0  0  0  0  0  0  0  0  0  0
  186.4910  176.9260  136.6630 N   0  0  0  0  0  2  0  0  0  0  0  0
  183.0260  172.7940  136.6510 C   0  0  1  0  0  3  0  0  0  0  0  0
  184.2700  172.2450  135.9790 C   0  0  0  0  0  2  0  0  0  0  0  0
  183.9100  174.5320  135.1850 C   0  0  2  0  0  3  0  0  0  0  0  0
  183.1750  174.2990  136.4930 C   0  0  1  0  0  3  0  0  0  0  0  0
  184.6320  173.2270  134.8770 C   0  0  0  0  0  2  0  0  0  0  0  0
  181.8950  175.0740  136.6180 C   0  0  0  0  0  0  0  0  0  0  0  0
  179.4850  176.4740  136.9090 C   0  0  0  0  0  3  0  0  0  0  0  0
  181.2690  175.6430  135.4980 C   0  0  0  0  0  3  0  0  0  0  0  0
  180.0680  176.3430  135.6440 C   0  0  0  0  0  3  0  0  0  0  0  0
  180.1030  175.9040  138.0260 C   0  0  0  0  0  3  0  0  0  0  0  0
  181.3040  175.2030  137.8800 C   0  0  0  0  0  3  0  0  0  0  0  0
  181.8720  172.3230  135.9610 O   0  0  0  0  0  0  0  0  0  0  0  0
  180.1630  170.5200  135.8060 C   0  0  0  0  0  1  0  0  0  0  0  0
  180.5870  171.7460  137.7960 O   0  0  0  0  0  0  0  0  0  0  0  0
  180.8810  171.5620  136.5850 C   0  0  0  0  0  0  0  0  0  0  0  0
  1 11  1  0  0  0  0
  2  1  2  0  0  0  0
  3  8  1  0  0  0  0
  3  4  2  0  0  0  0
  4  7  1  0  0  0  0
  5  1  1  0  0  0  0
  6  7  1  0  0  0  0
  6  2  1  0  0  0  0
  7  5  2  0  0  0  0
  8  6  2  0  0  0  0
  9 10  1  0  0  0  0
 11 12  2  0  0  0  0
 11 13  1  0  0  0  0
 12  9  1  0  0  0  0
 13 10  2  0  0  0  0
 14  4  1  0  0  0  0
 15 16  1  0  0  0  0
 15 14  1  0  0  0  0
 16 18  1  1  0  0  0
 18 17  2  0  0  0  0
 19 16  1  0  0  0  0
 21 20  1  6  0  0  0
 21 19  1  0  0  0  0
 22 23  1  6  0  0  0
 22 24  1  0  0  0  0
 22 21  1  0  0  0  0
 26 25  1  0  0  0  0
 27 26  1  0  0  0  0
 27 25  1  0  0  0  0
 27 24  1  0  0  0  0
 28  8  1  0  0  0  0
 29 38  1  6  0  0  0
 30 28  1  1  0  0  0
 31 30  1  0  0  0  0
 32 33  1  0  0  0  0
 32 29  1  0  0  0  0
 32 34  1  1  0  0  0
 33 29  1  0  0  0  0
 33 31  1  1  0  0  0
 34 30  1  0  0  0  0
 35 38  1  0  0  0  0
 35 37  2  0  0  0  0
 36 35  1  0  0  0  0
 39 50  1  6  0  0  0
 40 39  1  0  0  0  0
 41 36  1  1  0  0  0
 41 42  1  0  0  0  0
 42 44  1  6  0  0  0
 42 39  1  0  0  0  0
 43 41  1  0  0  0  0
 43 40  1  0  0  0  0
 44 49  1  0  0  0  0
 45 48  1  0  0  0  0
 46 47  1  0  0  0  0
 46 44  2  0  0  0  0
 47 45  2  0  0  0  0
 49 48  2  0  0  0  0
 50 53  1  0  0  0  0
 51 53  1  0  0  0  0
 53 52  2  0  0  0  0
M  END
>  <MODEL>
5

>  <REMARK>
 VINA RESULT:      -6.9      2.324      4.387
  Name = 
  17 active torsions:
  status: ('A' for Active; 'I' for Inactive)
    1  A    between atoms: C_1  and  N_37
    2  A    between atoms: C_5  and  C_7
    3  A    between atoms: O_6  and  C_9
    4  A    between atoms: O_6  and  C_51
    5  A    between atoms: C_7  and  N_43
    6  A    between atoms: C_7  and  S_44
    7  A    between atoms: C_8  and  C_36
    8  A    between atoms: C_10  and  C_17
    9  A    between atoms: C_12  and  C_42
   10  A    between atoms: N_15  and  C_38
   11  A    between atoms: N_15  and  C_45
   12  A    between atoms: C_23  and  C_29
   13  A    between atoms: N_25  and  C_39
   14  A    between atoms: C_29  and  S_44
   15  A    between atoms: C_30  and  N_43
   16  A    between atoms: C_30  and  C_45
   17  A    between atoms: C_36  and  C_49
                            x       y       z     vdW  Elec       q    Type
                         _______ _______ _______ _____ _____    ______ ____

>  <TORSDO>
F 17

$$$$
=
 OpenBabel10222417493D

 53 60  0  0  1  0  0  0  0  0999 V2000
  189.7010  176.9780  143.8810 C   0  0  0  0  0  0  0  0  0  0  0  0
  190.2760  176.6640  142.7530 N   0  0  0  0  0  0  0  0  0  0  0  0
  188.2310  178.3740  140.3540 C   0  0  0  0  0  3  0  0  0  0  0  0
  187.4760  178.3440  141.4600 C   0  0  0  0  0  0  0  0  0  0  0  0
  188.3580  177.5970  143.7110 C   0  0  0  0  0  3  0  0  0  0  0  0
  189.2820  176.9700  141.7960 C   0  0  0  0  0  0  0  0  0  0  0  0
  188.1310  177.4730  142.4150 C   0  0  0  0  0  0  0  0  0  0  0  0
  189.4120  177.5140  140.5960 C   0  0  0  0  0  0  0  0  0  0  0  0
  191.8620  176.4530  146.6840 O   0  0  0  0  0  0  0  0  0  0  0  0
  190.7860  176.8030  147.3250 N   0  0  0  0  0  0  0  0  0  0  0  0
  190.3770  176.8410  145.1750 C   0  0  0  0  0  0  0  0  0  0  0  0
  191.6830  176.4560  145.3830 C   0  0  0  0  0  3  0  0  0  0  0  0
  189.8240  177.0540  146.4190 C   0  0  0  0  0  3  0  0  0  0  0  0
  186.2180  179.1110  141.6880 C   0  0  0  0  0  2  0  0  0  0  0  0
  185.0970  178.9980  140.2490 S   0  0  0  0  0  0  0  0  0  0  0  0
  183.5850  178.5180  141.1650 C   0  0  1  0  0  3  0  0  0  0  0  0
  181.6330  177.2570  140.7590 O   0  0  0  0  0  0  0  0  0  0  0  0
  182.7640  177.5360  140.3960 C   0  0  0  0  0  3  0  0  0  0  0  0
  183.9100  177.9870  142.4800 N   0  0  0  0  0  2  0  0  0  0  0  0
  182.2510  179.5850  142.7780 O   0  0  0  0  0  1  0  0  0  0  0  0
  182.9880  178.5960  143.4280 C   0  0  2  0  0  3  0  0  0  0  0  0
  183.7580  179.2100  144.5930 C   0  0  2  0  0  3  0  0  0  0  0  0
  184.1780  180.4980  144.2570 O   0  0  0  0  0  1  0  0  0  0  0  0
  184.9210  178.3910  144.9000 N   0  0  0  0  0  2  0  0  0  0  0  0
  186.2660  177.5310  146.7210 C   0  0  0  0  0  2  0  0  0  0  0  0
  186.2240  179.0390  146.8350 C   0  0  0  0  0  2  0  0  0  0  0  0
  185.0040  178.2840  146.3480 C   0  0  0  0  0  3  0  0  0  0  0  0
  190.6520  177.4950  139.7660 C   0  0  0  0  0  2  0  0  0  0  0  0
  187.4700  177.1190  137.4070 C   0  0  2  0  0  3  0  0  0  0  0  0
  190.3170  177.2250  138.3090 C   0  0  1  0  0  3  0  0  0  0  0  0
  189.5140  175.9530  138.2030 C   0  0  0  0  0  2  0  0  0  0  0  0
  188.7310  177.6880  136.7850 C   0  0  2  0  0  3  0  0  0  0  0  0
  188.6140  176.1960  137.0280 C   0  0  2  0  0  3  0  0  0  0  0  0
  189.5330  178.2660  137.7860 O   0  0  0  0  0  0  0  0  0  0  0  0
  185.5150  175.9510  136.3300 C   0  0  0  0  0  0  0  0  0  0  0  0
  184.4700  175.9710  135.3580 N   0  0  0  0  0  2  0  0  0  0  0  0
  185.6270  174.9780  137.1260 O   0  0  0  0  0  0  0  0  0  0  0  0
  186.4280  177.0460  136.3970 N   0  0  0  0  0  2  0  0  0  0  0  0
  182.4560  173.3750  136.8550 C   0  0  1  0  0  3  0  0  0  0  0  0
  183.6970  172.7120  136.2890 C   0  0  0  0  0  2  0  0  0  0  0  0
  183.4660  174.9210  135.2620 C   0  0  2  0  0  3  0  0  0  0  0  0
  182.6760  174.8500  136.5570 C   0  0  1  0  0  3  0  0  0  0  0  0
  184.1400  173.5640  135.1110 C   0  0  0  0  0  2  0  0  0  0  0  0
  181.4290  175.6850  136.5550 C   0  0  0  0  0  0  0  0  0  0  0  0
  179.0740  177.2030  136.6110 C   0  0  0  0  0  3  0  0  0  0  0  0
  180.8920  176.2000  135.3650 C   0  0  0  0  0  3  0  0  0  0  0  0
  179.7180  176.9590  135.3940 C   0  0  0  0  0  3  0  0  0  0  0  0
  179.6020  176.6860  137.7980 C   0  0  0  0  0  3  0  0  0  0  0  0
  180.7760  175.9260  137.7690 C   0  0  0  0  0  3  0  0  0  0  0  0
  181.3060  172.8860  136.1700 O   0  0  0  0  0  0  0  0  0  0  0  0
  180.8130  170.5420  135.4930 C   0  0  0  0  0  1  0  0  0  0  0  0
  180.1070  171.4770  137.5590 O   0  0  0  0  0  0  0  0  0  0  0  0
  180.7170  171.6550  136.4710 C   0  0  0  0  0  0  0  0  0  0  0  0
  1 11  1  0  0  0  0
  2  1  2  0  0  0  0
  3  8  1  0  0  0  0
  3  4  2  0  0  0  0
  4 14  1  0  0  0  0
  4  7  1  0  0  0  0
  5  1  1  0  0  0  0
  6  7  1  0  0  0  0
  6  2  1  0  0  0  0
  7  5  2  0  0  0  0
  8  6  2  0  0  0  0
  9 10  1  0  0  0  0
 11 12  2  0  0  0  0
 11 13  1  0  0  0  0
 12  9  1  0  0  0  0
 13 10  2  0  0  0  0
 15 16  1  0  0  0  0
 15 14  1  0  0  0  0
 16 18  1  6  0  0  0
 16 19  1  0  0  0  0
 18 17  2  0  0  0  0
 19 21  1  0  0  0  0
 21 20  1  6  0  0  0
 21 22  1  0  0  0  0
 22 23  1  6  0  0  0
 22 24  1  0  0  0  0
 24 27  1  0  0  0  0
 25 26  1  0  0  0  0
 27 25  1  0  0  0  0
 27 26  1  0  0  0  0
 28  8  1  0  0  0  0
 29 38  1  6  0  0  0
 30 28  1  1  0  0  0
 31 30  1  0  0  0  0
 32 33  1  0  0  0  0
 32 29  1  0  0  0  0
 32 34  1  1  0  0  0
 33 29  1  0  0  0  0
 33 31  1  1  0  0  0
 34 30  1  0  0  0  0
 35 38  1  0  0  0  0
 35 37  2  0  0  0  0
 36 35  1  0  0  0  0
 39 50  1  6  0  0  0
 40 39  1  0  0  0  0
 41 36  1  1  0  0  0
 41 42  1  0  0  0  0
 42 44  1  6  0  0  0
 42 39  1  0  0  0  0
 43 41  1  0  0  0  0
 43 40  1  0  0  0  0
 44 49  1  0  0  0  0
 45 48  1  0  0  0  0
 46 47  1  0  0  0  0
 46 44  2  0  0  0  0
 47 45  2  0  0  0  0
 49 48  2  0  0  0  0
 50 53  1  0  0  0  0
 51 53  1  0  0  0  0
 53 52  2  0  0  0  0
M  END
>  <MODEL>
6

>  <REMARK>
 VINA RESULT:      -6.8      1.478      1.814
  Name = 
  17 active torsions:
  status: ('A' for Active; 'I' for Inactive)
    1  A    between atoms: C_1  and  N_37
    2  A    between atoms: C_5  and  C_7
    3  A    between atoms: O_6  and  C_9
    4  A    between atoms: O_6  and  C_51
    5  A    between atoms: C_7  and  N_43
    6  A    between atoms: C_7  and  S_44
    7  A    between atoms: C_8  and  C_36
    8  A    between atoms: C_10  and  C_17
    9  A    between atoms: C_12  and  C_42
   10  A    between atoms: N_15  and  C_38
   11  A    between atoms: N_15  and  C_45
   12  A    between atoms: C_23  and  C_29
   13  A    between atoms: N_25  and  C_39
   14  A    between atoms: C_29  and  S_44
   15  A    between atoms: C_30  and  N_43
   16  A    between atoms: C_30  and  C_45
   17  A    between atoms: C_36  and  C_49
                            x       y       z     vdW  Elec       q    Type
                         _______ _______ _______ _____ _____    ______ ____

>  <TORSDO>
F 17

$$$$
=
 OpenBabel10222417493D

 53 60  0  0  1  0  0  0  0  0999 V2000
  189.9690  176.9230  144.1290 C   0  0  0  0  0  0  0  0  0  0  0  0
  190.7000  176.6150  143.0940 N   0  0  0  0  0  0  0  0  0  0  0  0
  188.8180  178.0200  140.3840 C   0  0  0  0  0  3  0  0  0  0  0  0
  187.9410  177.9680  141.3960 C   0  0  0  0  0  0  0  0  0  0  0  0
  188.6070  177.4060  143.7710 C   0  0  0  0  0  3  0  0  0  0  0  0
  189.8060  176.7840  142.0130 C   0  0  0  0  0  0  0  0  0  0  0  0
  188.5500  177.2050  142.4670 C   0  0  0  0  0  0  0  0  0  0  0  0
  190.0320  177.2850  140.8080 C   0  0  0  0  0  0  0  0  0  0  0  0
  191.8150  176.7270  147.1880 O   0  0  0  0  0  0  0  0  0  0  0  0
  190.6420  177.0010  147.6800 N   0  0  0  0  0  0  0  0  0  0  0  0
  190.4940  176.9070  145.4980 C   0  0  0  0  0  0  0  0  0  0  0  0
  191.7940  176.6560  145.8770 C   0  0  0  0  0  3  0  0  0  0  0  0
  189.7780  177.1210  146.6560 C   0  0  0  0  0  3  0  0  0  0  0  0
  186.6030  178.6240  141.4340 C   0  0  0  0  0  2  0  0  0  0  0  0
  185.7160  178.2450  142.9860 S   0  0  0  0  0  0  0  0  0  0  0  0
  184.0140  178.3490  142.3170 C   0  0  1  0  0  3  0  0  0  0  0  0
  183.3850  179.8090  144.0600 O   0  0  0  0  0  0  0  0  0  0  0  0
  183.0570  178.8900  143.3280 C   0  0  0  0  0  3  0  0  0  0  0  0
  183.9710  179.1460  141.1010 N   0  0  0  0  0  2  0  0  0  0  0  0
  182.9740  177.3620  139.9970 O   0  0  0  0  0  1  0  0  0  0  0  0
  182.8120  178.7040  140.3390 C   0  0  2  0  0  3  0  0  0  0  0  0
  182.6590  179.5440  139.0750 C   0  0  2  0  0  3  0  0  0  0  0  0
  183.6480  180.5290  139.0380 O   0  0  0  0  0  1  0  0  0  0  0  0
  181.3490  180.1770  139.0610 N   0  0  0  0  0  2  0  0  0  0  0  0
  179.8610  181.2330  137.4680 C   0  0  0  0  0  2  0  0  0  0  0  0
  180.5600  182.3200  138.2560 C   0  0  0  0  0  2  0  0  0  0  0  0
  181.3030  181.0490  137.8980 C   0  0  0  0  0  3  0  0  0  0  0  0
  191.3600  177.3440  140.1300 C   0  0  0  0  0  2  0  0  0  0  0  0
  188.5390  176.5080  137.4520 C   0  0  2  0  0  3  0  0  0  0  0  0
  191.2320  176.9530  138.6670 C   0  0  1  0  0  3  0  0  0  0  0  0
  190.5680  175.6030  138.5620 C   0  0  0  0  0  2  0  0  0  0  0  0
  189.8090  177.1600  136.9400 C   0  0  2  0  0  3  0  0  0  0  0  0
  189.8000  175.6820  137.2760 C   0  0  2  0  0  3  0  0  0  0  0  0
  190.4260  177.8750  137.9830 O   0  0  0  0  0  0  0  0  0  0  0  0
  186.4860  175.4370  136.4580 C   0  0  0  0  0  0  0  0  0  0  0  0
  185.6030  175.2970  135.3440 N   0  0  0  0  0  2  0  0  0  0  0  0
  186.2450  174.8370  137.5410 O   0  0  0  0  0  0  0  0  0  0  0  0
  187.6390  176.2680  136.3360 N   0  0  0  0  0  2  0  0  0  0  0  0
  183.0040  173.6360  137.2200 C   0  0  1  0  0  3  0  0  0  0  0  0
  184.0560  172.5960  136.8910 C   0  0  0  0  0  2  0  0  0  0  0  0
  184.3780  174.5140  135.4070 C   0  0  2  0  0  3  0  0  0  0  0  0
  183.5770  174.9160  136.6320 C   0  0  1  0  0  3  0  0  0  0  0  0
  184.7080  173.0390  135.5910 C   0  0  0  0  0  2  0  0  0  0  0  0
  182.5660  175.9950  136.3700 C   0  0  0  0  0  0  0  0  0  0  0  0
  180.7380  178.0570  135.8630 C   0  0  0  0  0  3  0  0  0  0  0  0
  181.3700  176.0740  137.1000 C   0  0  0  0  0  3  0  0  0  0  0  0
  180.4580  177.1020  136.8450 C   0  0  0  0  0  3  0  0  0  0  0  0
  181.9310  177.9860  135.1380 C   0  0  0  0  0  3  0  0  0  0  0  0
  182.8440  176.9580  135.3930 C   0  0  0  0  0  3  0  0  0  0  0  0
  181.7790  173.2870  136.5790 O   0  0  0  0  0  0  0  0  0  0  0  0
  180.8490  171.1460  135.7170 C   0  0  0  0  0  1  0  0  0  0  0  0
  180.7290  171.7930  137.9990 O   0  0  0  0  0  0  0  0  0  0  0  0
  181.1120  172.0870  136.8350 C   0  0  0  0  0  0  0  0  0  0  0  0
  1 11  1  0  0  0  0
  2  1  2  0  0  0  0
  3  8  1  0  0  0  0
  3  4  2  0  0  0  0
  4 14  1  0  0  0  0
  4  7  1  0  0  0  0
  5  1  1  0  0  0  0
  6  7  1  0  0  0  0
  6  2  1  0  0  0  0
  7  5  2  0  0  0  0
  8  6  2  0  0  0  0
  9 10  1  0  0  0  0
 11 12  2  0  0  0  0
 11 13  1  0  0  0  0
 12  9  1  0  0  0  0
 13 10  2  0  0  0  0
 14 15  1  0  0  0  0
 16 15  1  0  0  0  0
 16 18  1  1  0  0  0
 18 17  2  0  0  0  0
 19 16  1  0  0  0  0
 21 20  1  6  0  0  0
 21 19  1  0  0  0  0
 22 23  1  1  0  0  0
 22 21  1  0  0  0  0
 24 22  1  0  0  0  0
 25 27  1  0  0  0  0
 25 26  1  0  0  0  0
 27 26  1  0  0  0  0
 27 24  1  0  0  0  0
 28  8  1  0  0  0  0
 29 38  1  6  0  0  0
 30 28  1  1  0  0  0
 31 30  1  0  0  0  0
 32 33  1  0  0  0  0
 32 29  1  0  0  0  0
 32 34  1  1  0  0  0
 33 29  1  0  0  0  0
 33 31  1  1  0  0  0
 34 30  1  0  0  0  0
 35 37  2  0  0  0  0
 36 35  1  0  0  0  0
 38 35  1  0  0  0  0
 39 50  1  6  0  0  0
 40 39  1  0  0  0  0
 41 36  1  1  0  0  0
 41 43  1  0  0  0  0
 41 42  1  0  0  0  0
 42 44  1  6  0  0  0
 42 39  1  0  0  0  0
 43 40  1  0  0  0  0
 44 46  1  0  0  0  0
 45 47  1  0  0  0  0
 47 46  2  0  0  0  0
 48 49  1  0  0  0  0
 48 45  2  0  0  0  0
 49 44  2  0  0  0  0
 50 53  1  0  0  0  0
 51 53  1  0  0  0  0
 53 52  2  0  0  0  0
M  END
>  <MODEL>
7

>  <REMARK>
 VINA RESULT:      -6.8      1.791      3.599
  Name = 
  17 active torsions:
  status: ('A' for Active; 'I' for Inactive)
    1  A    between atoms: C_1  and  N_37
    2  A    between atoms: C_5  and  C_7
    3  A    between atoms: O_6  and  C_9
    4  A    between atoms: O_6  and  C_51
    5  A    between atoms: C_7  and  N_43
    6  A    between atoms: C_7  and  S_44
    7  A    between atoms: C_8  and  C_36
    8  A    between atoms: C_10  and  C_17
    9  A    between atoms: C_12  and  C_42
   10  A    between atoms: N_15  and  C_38
   11  A    between atoms: N_15  and  C_45
   12  A    between atoms: C_23  and  C_29
   13  A    between atoms: N_25  and  C_39
   14  A    between atoms: C_29  and  S_44
   15  A    between atoms: C_30  and  N_43
   16  A    between atoms: C_30  and  C_45
   17  A    between atoms: C_36  and  C_49
                            x       y       z     vdW  Elec       q    Type
                         _______ _______ _______ _____ _____    ______ ____

>  <TORSDO>
F 17

$$$$
=
 OpenBabel10222417493D

 53 60  0  0  1  0  0  0  0  0999 V2000
  181.4800  180.2340  137.9440 C   0  0  0  0  0  0  0  0  0  0  0  0
  181.6560  179.2850  137.0660 N   0  0  0  0  0  0  0  0  0  0  0  0
  183.1830  176.7030  139.0320 C   0  0  0  0  0  3  0  0  0  0  0  0
  183.3360  177.8090  139.7730 C   0  0  0  0  0  0  0  0  0  0  0  0
  182.2130  180.0070  139.2190 C   0  0  0  0  0  3  0  0  0  0  0  0
  182.6020  178.4450  137.6950 C   0  0  0  0  0  0  0  0  0  0  0  0
  182.9490  178.9420  138.9570 C   0  0  0  0  0  0  0  0  0  0  0  0
  182.6730  177.1220  137.7060 C   0  0  0  0  0  0  0  0  0  0  0  0
  179.0990  182.9020  138.0490 O   0  0  0  0  0  0  0  0  0  0  0  0
  179.3460  182.9070  136.7720 N   0  0  0  0  0  0  0  0  0  0  0  0
  180.5500  181.3460  137.7250 C   0  0  0  0  0  0  0  0  0  0  0  0
  179.7920  181.9850  138.6820 C   0  0  0  0  0  3  0  0  0  0  0  0
  180.2500  181.9440  136.5190 C   0  0  0  0  0  3  0  0  0  0  0  0
  183.7710  177.8580  141.1980 C   0  0  0  0  0  2  0  0  0  0  0  0
  184.8860  179.2730  141.5080 S   0  0  0  0  0  0  0  0  0  0  0  0
  186.4210  178.3110  141.7750 C   0  0  1  0  0  3  0  0  0  0  0  0
  187.1630  178.6310  139.5600 O   0  0  0  0  0  0  0  0  0  0  0  0
  187.4550  178.6240  140.7440 C   0  0  0  0  0  3  0  0  0  0  0  0
  186.9560  178.5280  143.1110 N   0  0  0  0  0  2  0  0  0  0  0  0
  186.5170  176.6190  144.3600 O   0  0  0  0  0  1  0  0  0  0  0  0
  187.4810  177.2520  143.5760 C   0  0  2  0  0  3  0  0  0  0  0  0
  188.7500  177.4690  144.3940 C   0  0  2  0  0  3  0  0  0  0  0  0
  189.7060  176.5130  144.0470 O   0  0  0  0  0  1  0  0  0  0  0  0
  188.4460  177.3510  145.8120 N   0  0  0  0  0  2  0  0  0  0  0  0
  189.3370  177.7320  148.0320 C   0  0  0  0  0  2  0  0  0  0  0  0
  190.2490  176.7590  147.3170 C   0  0  0  0  0  2  0  0  0  0  0  0
  189.5850  177.8810  146.5440 C   0  0  0  0  0  3  0  0  0  0  0  0
  182.0780  176.2150  136.6820 C   0  0  0  0  0  2  0  0  0  0  0  0
  185.9730  176.6450  135.9930 C   0  0  2  0  0  3  0  0  0  0  0  0
  183.1300  175.7800  135.6750 C   0  0  1  0  0  3  0  0  0  0  0  0
  183.7210  176.9950  135.0060 C   0  0  0  0  0  2  0  0  0  0  0  0
  185.3310  175.3420  135.5560 C   0  0  2  0  0  3  0  0  0  0  0  0
  185.1390  176.5950  134.7260 C   0  0  2  0  0  3  0  0  0  0  0  0
  184.1760  175.1030  136.3230 O   0  0  0  0  0  0  0  0  0  0  0  0
  188.3280  175.8320  136.3710 C   0  0  0  0  0  0  0  0  0  0  0  0
  189.6880  175.8000  135.9400 N   0  0  0  0  0  2  0  0  0  0  0  0
  187.9610  175.1630  137.3760 O   0  0  0  0  0  0  0  0  0  0  0  0
  187.3840  176.6240  135.6490 N   0  0  0  0  0  2  0  0  0  0  0  0
  193.1360  175.0040  136.6600 C   0  0  1  0  0  3  0  0  0  0  0  0
  192.7180  174.1600  135.4720 C   0  0  0  0  0  2  0  0  0  0  0  0
  190.6980  174.9750  136.5870 C   0  0  2  0  0  3  0  0  0  0  0  0
  191.8950  175.8320  136.9590 C   0  0  1  0  0  3  0  0  0  0  0  0
  191.2230  173.9280  135.6140 C   0  0  0  0  0  2  0  0  0  0  0  0
  191.8330  176.3920  138.3510 C   0  0  0  0  0  0  0  0  0  0  0  0
  191.6430  177.4520  140.9380 C   0  0  0  0  0  3  0  0  0  0  0  0
  192.9250  177.0640  138.9210 C   0  0  0  0  0  3  0  0  0  0  0  0
  192.8300  177.5910  140.2120 C   0  0  0  0  0  3  0  0  0  0  0  0
  190.5500  176.7870  140.3710 C   0  0  0  0  0  3  0  0  0  0  0  0
  190.6450  176.2610  139.0790 C   0  0  0  0  0  3  0  0  0  0  0  0
  193.4520  174.1510  137.7570 O   0  0  0  0  0  0  0  0  0  0  0  0
  195.3080  172.5990  138.3420 C   0  0  0  0  0  1  0  0  0  0  0  0
  195.4740  174.9610  138.5350 O   0  0  0  0  0  0  0  0  0  0  0  0
  194.7580  173.9740  138.2200 C   0  0  0  0  0  0  0  0  0  0  0  0
  1  5  1  0  0  0  0
  2  6  1  0  0  0  0
  2  1  2  0  0  0  0
  3  4  2  0  0  0  0
  4 14  1  0  0  0  0
  6  8  2  0  0  0  0
  6  7  1  0  0  0  0
  7  5  2  0  0  0  0
  7  4  1  0  0  0  0
  8  3  1  0  0  0  0
  9 12  1  0  0  0  0
 10  9  1  0  0  0  0
 11  1  1  0  0  0  0
 11 12  2  0  0  0  0
 13 10  2  0  0  0  0
 13 11  1  0  0  0  0
 14 15  1  0  0  0  0
 15 16  1  0  0  0  0
 16 18  1  6  0  0  0
 16 19  1  0  0  0  0
 17 18  2  0  0  0  0
 19 21  1  0  0  0  0
 21 20  1  1  0  0  0
 21 22  1  0  0  0  0
 22 23  1  6  0  0  0
 22 24  1  0  0  0  0
 24 27  1  0  0  0  0
 26 25  1  0  0  0  0
 27 26  1  0  0  0  0
 27 25  1  0  0  0  0
 28  8  1  0  0  0  0
 29 38  1  6  0  0  0
 30 34  1  0  0  0  0
 30 28  1  1  0  0  0
 31 30  1  0  0  0  0
 32 29  1  0  0  0  0
 32 34  1  1  0  0  0
 33 31  1  1  0  0  0
 33 32  1  0  0  0  0
 33 29  1  0  0  0  0
 35 37  2  0  0  0  0
 36 35  1  0  0  0  0
 38 35  1  0  0  0  0
 39 42  1  0  0  0  0
 39 50  1  1  0  0  0
 40 43  1  0  0  0  0
 40 39  1  0  0  0  0
 41 36  1  6  0  0  0
 41 42  1  0  0  0  0
 42 44  1  1  0  0  0
 43 41  1  0  0  0  0
 44 46  2  0  0  0  0
 44 49  1  0  0  0  0
 46 47  1  0  0  0  0
 47 45  2  0  0  0  0
 48 45  1  0  0  0  0
 49 48  2  0  0  0  0
 50 53  1  0  0  0  0
 53 51  1  0  0  0  0
 53 52  2  0  0  0  0
M  END
>  <MODEL>
8

>  <REMARK>
 VINA RESULT:      -6.8      2.977      9.154
  Name = 
  17 active torsions:
  status: ('A' for Active; 'I' for Inactive)
    1  A    between atoms: C_1  and  N_37
    2  A    between atoms: C_5  and  C_7
    3  A    between atoms: O_6  and  C_9
    4  A    between atoms: O_6  and  C_51
    5  A    between atoms: C_7  and  N_43
    6  A    between atoms: C_7  and  S_44
    7  A    between atoms: C_8  and  C_36
    8  A    between atoms: C_10  and  C_17
    9  A    between atoms: C_12  and  C_42
   10  A    between atoms: N_15  and  C_38
   11  A    between atoms: N_15  and  C_45
   12  A    between atoms: C_23  and  C_29
   13  A    between atoms: N_25  and  C_39
   14  A    between atoms: C_29  and  S_44
   15  A    between atoms: C_30  and  N_43
   16  A    between atoms: C_30  and  C_45
   17  A    between atoms: C_36  and  C_49
                            x       y       z     vdW  Elec       q    Type
                         _______ _______ _______ _____ _____    ______ ____

>  <TORSDO>
F 17

$$$$
=
 OpenBabel10222417493D

 53 60  0  0  1  0  0  0  0  0999 V2000
  184.0380  176.3150  137.8670 C   0  0  0  0  0  0  0  0  0  0  0  0
  185.1170  176.8300  137.3480 N   0  0  0  0  0  0  0  0  0  0  0  0
  186.4130  174.1020  135.4150 C   0  0  0  0  0  3  0  0  0  0  0  0
  185.5450  173.5220  136.2540 C   0  0  0  0  0  0  0  0  0  0  0  0
  183.9580  174.8350  137.7220 C   0  0  0  0  0  3  0  0  0  0  0  0
  185.8440  175.6920  136.9330 C   0  0  0  0  0  0  0  0  0  0  0  0
  185.1400  174.5170  137.2250 C   0  0  0  0  0  0  0  0  0  0  0  0
  186.5700  175.5120  135.8400 C   0  0  0  0  0  0  0  0  0  0  0  0
  181.6450  178.1370  139.8040 O   0  0  0  0  0  0  0  0  0  0  0  0
  181.2060  178.4340  138.6160 N   0  0  0  0  0  0  0  0  0  0  0  0
  182.9600  177.1380  138.4250 C   0  0  0  0  0  0  0  0  0  0  0  0
  182.7010  177.3590  139.7590 C   0  0  0  0  0  3  0  0  0  0  0  0
  181.9990  177.8260  137.7160 C   0  0  0  0  0  3  0  0  0  0  0  0
  185.0440  172.1200  136.1690 C   0  0  0  0  0  2  0  0  0  0  0  0
  183.5860  171.8650  137.2420 S   0  0  0  0  0  0  0  0  0  0  0  0
  182.3100  171.9430  135.9310 C   0  0  1  0  0  3  0  0  0  0  0  0
  181.0040  170.0310  135.4800 O   0  0  0  0  0  0  0  0  0  0  0  0
  182.0690  170.6020  135.3170 C   0  0  0  0  0  3  0  0  0  0  0  0
  181.0650  172.5010  136.4360 N   0  0  0  0  0  2  0  0  0  0  0  0
  181.8570  174.1750  135.0340 O   0  0  0  0  0  1  0  0  0  0  0  0
  180.6980  173.5990  135.5540 C   0  0  2  0  0  3  0  0  0  0  0  0
  179.9000  174.6480  136.3200 C   0  0  2  0  0  3  0  0  0  0  0  0
  180.0560  175.8970  135.7160 O   0  0  0  0  0  1  0  0  0  0  0  0
  180.3720  174.7180  137.6950 N   0  0  0  0  0  2  0  0  0  0  0  0
  179.1960  173.8140  139.6100 C   0  0  0  0  0  2  0  0  0  0  0  0
  179.6570  175.2130  139.9550 C   0  0  0  0  0  2  0  0  0  0  0  0
  179.2050  174.8930  138.5440 C   0  0  0  0  0  3  0  0  0  0  0  0
  187.1930  176.5970  135.0270 C   0  0  0  0  0  2  0  0  0  0  0  0
  188.0080  178.1320  138.6060 C   0  0  2  0  0  3  0  0  0  0  0  0
  188.3520  177.2300  135.7780 C   0  0  1  0  0  3  0  0  0  0  0  0
  187.9880  178.6380  136.1740 C   0  0  0  0  0  2  0  0  0  0  0  0
  189.1440  177.4480  137.8700 C   0  0  2  0  0  3  0  0  0  0  0  0
  188.7170  178.8450  137.4690 C   0  0  2  0  0  3  0  0  0  0  0  0
  188.6210  176.5150  136.9560 O   0  0  0  0  0  0  0  0  0  0  0  0
  188.8710  177.7660  140.9450 C   0  0  0  0  0  0  0  0  0  0  0  0
  189.4090  178.3220  142.1450 N   0  0  0  0  0  2  0  0  0  0  0  0
  188.7340  176.5180  140.8260 O   0  0  0  0  0  0  0  0  0  0  0  0
  188.4960  178.6370  139.8780 N   0  0  0  0  0  2  0  0  0  0  0  0
  190.9770  177.9610  145.3770 C   0  0  1  0  0  3  0  0  0  0  0  0
  192.0510  177.7450  144.3290 C   0  0  0  0  0  2  0  0  0  0  0  0
  189.8660  177.5000  143.2550 C   0  0  2  0  0  3  0  0  0  0  0  0
  189.7380  178.2770  144.5530 C   0  0  1  0  0  3  0  0  0  0  0  0
  191.3490  177.1880  143.1020 C   0  0  0  0  0  2  0  0  0  0  0  0
  188.4360  178.0600  145.2670 C   0  0  0  0  0  0  0  0  0  0  0  0
  185.9670  177.6690  146.5340 C   0  0  0  0  0  3  0  0  0  0  0  0
  188.2840  178.3650  146.6280 C   0  0  0  0  0  3  0  0  0  0  0  0
  187.0530  178.1690  147.2600 C   0  0  0  0  0  3  0  0  0  0  0  0
  186.1120  177.3680  145.1760 C   0  0  0  0  0  3  0  0  0  0  0  0
  187.3440  177.5660  144.5440 C   0  0  0  0  0  3  0  0  0  0  0  0
  190.7970  176.7600  146.1220 O   0  0  0  0  0  0  0  0  0  0  0  0
  192.2610  174.9670  147.0360 C   0  0  0  0  0  1  0  0  0  0  0  0
  192.0420  177.1090  148.0410 O   0  0  0  0  0  0  0  0  0  0  0  0
  191.6990  176.3400  147.1020 C   0  0  0  0  0  0  0  0  0  0  0  0
  1 11  1  0  0  0  0
  2  1  2  0  0  0  0
  3  8  1  0  0  0  0
  3  4  2  0  0  0  0
  4  7  1  0  0  0  0
  5  1  1  0  0  0  0
  6  7  1  0  0  0  0
  6  2  1  0  0  0  0
  7  5  2  0  0  0  0
  8  6  2  0  0  0  0
 10  9  1  0  0  0  0
 11 12  2  0  0  0  0
 12  9  1  0  0  0  0
 13 11  1  0  0  0  0
 13 10  2  0  0  0  0
 14  4  1  0  0  0  0
 14 15  1  0  0  0  0
 16 18  1  1  0  0  0
 16 19  1  0  0  0  0
 16 15  1  0  0  0  0
 18 17  2  0  0  0  0
 21 20  1  1  0  0  0
 21 22  1  0  0  0  0
 21 19  1  0  0  0  0
 22 23  1  6  0  0  0
 22 24  1  0  0  0  0
 24 27  1  0  0  0  0
 25 26  1  0  0  0  0
 27 25  1  0  0  0  0
 27 26  1  0  0  0  0
 28  8  1  0  0  0  0
 29 38  1  1  0  0  0
 30 28  1  1  0  0  0
 30 31  1  0  0  0  0
 30 34  1  0  0  0  0
 32 34  1  6  0  0  0
 32 29  1  0  0  0  0
 33 31  1  6  0  0  0
 33 32  1  0  0  0  0
 33 29  1  0  0  0  0
 35 36  1  0  0  0  0
 37 35  2  0  0  0  0
 38 35  1  0  0  0  0
 39 50  1  6  0  0  0
 40 39  1  0  0  0  0
 41 36  1  6  0  0  0
 41 42  1  0  0  0  0
 42 44  1  1  0  0  0
 42 39  1  0  0  0  0
 43 41  1  0  0  0  0
 43 40  1  0  0  0  0
 44 46  1  0  0  0  0
 45 47  1  0  0  0  0
 46 47  2  0  0  0  0
 48 45  2  0  0  0  0
 49 48  1  0  0  0  0
 49 44  2  0  0  0  0
 50 53  1  0  0  0  0
 51 53  1  0  0  0  0
 53 52  2  0  0  0  0
M  END
>  <MODEL>
9

>  <REMARK>
 VINA RESULT:      -6.7      2.685      9.766
  Name = 
  17 active torsions:
  status: ('A' for Active; 'I' for Inactive)
    1  A    between atoms: C_1  and  N_37
    2  A    between atoms: C_5  and  C_7
    3  A    between atoms: O_6  and  C_9
    4  A    between atoms: O_6  and  C_51
    5  A    between atoms: C_7  and  N_43
    6  A    between atoms: C_7  and  S_44
    7  A    between atoms: C_8  and  C_36
    8  A    between atoms: C_10  and  C_17
    9  A    between atoms: C_12  and  C_42
   10  A    between atoms: N_15  and  C_38
   11  A    between atoms: N_15  and  C_45
   12  A    between atoms: C_23  and  C_29
   13  A    between atoms: N_25  and  C_39
   14  A    between atoms: C_29  and  S_44
   15  A    between atoms: C_30  and  N_43
   16  A    between atoms: C_30  and  C_45
   17  A    between atoms: C_36  and  C_49
                            x       y       z     vdW  Elec       q    Type
                         _______ _______ _______ _____ _____    ______ ____

>  <TORSDO>
F 17

$$$$
