=
 OpenBabel10222417253D

 28 31  0  0  1  0  0  0  0  0999 V2000
  188.2520  177.3070  143.0340 C   0  0  1  0  0  0  0  0  0  0  0  0
  188.2610  175.9380  142.7460 O   0  0  0  0  0  1  0  0  0  0  0  0
  185.8840  177.9210  142.5250 N   0  0  0  0  0  0  0  0  0  0  0  0
  186.8430  177.7020  143.4690 C   0  0  0  0  0  0  0  0  0  0  0  0
  183.6770  178.5260  141.8520 C   0  0  0  0  0  3  0  0  0  0  0  0
  184.2820  178.5310  144.2040 C   0  0  0  0  0  0  0  0  0  0  0  0
  182.0710  179.1370  143.5150 N   0  0  0  0  0  0  0  0  0  0  0  0
  182.3910  178.9380  142.2070 C   0  0  0  0  0  3  0  0  0  0  0  0
  186.5360  177.9170  144.8230 C   0  0  0  0  0  3  0  0  0  0  0  0
  184.6280  178.3200  142.8530 C   0  0  0  0  0  0  0  0  0  0  0  0
  184.9610  178.5370  146.6430 C   0  0  0  0  0  1  0  0  0  0  0  0
  185.2540  178.3250  145.1950 C   0  0  0  0  0  0  0  0  0  0  0  0
  182.9790  178.9450  144.5100 C   0  0  0  0  0  3  0  0  0  0  0  0
  192.1810  179.6010  144.3780 C   0  0  0  0  0  1  0  0  0  0  0  0
  191.3100  178.4710  143.8540 C   0  0  2  0  0  3  0  0  0  0  0  0
  190.2810  176.4360  144.3210 C   0  0  0  0  0  2  0  0  0  0  0  0
  189.9480  178.7880  143.9880 O   0  0  0  0  0  0  0  0  0  0  0  0
  191.5760  177.1460  144.5390 C   0  0  2  0  0  3  0  0  0  0  0  0
  189.2680  177.5640  144.1700 C   0  0  1  0  0  3  0  0  0  0  0  0
  191.7660  177.3220  145.9140 O   0  0  0  0  0  1  0  0  0  0  0  0
  188.7490  178.0430  141.7600 C   0  0  2  0  0  3  0  0  0  0  0  0
  188.0360  178.6990  139.5840 O   0  0  0  0  0  1  0  0  0  0  0  0
  188.0410  177.6280  140.4810 C   0  0  1  0  0  3  0  0  0  0  0  0
  189.4640  177.1390  140.7680 C   0  0  1  0  0  3  0  0  0  0  0  0
  190.4270  177.8840  140.0620 O   0  0  0  0  0  0  0  0  0  0  0  0
  191.4190  176.8540  138.2210 O   0  0  0  0  0  1  0  0  0  0  0  0
  191.4390  177.0070  139.6120 C   0  0  1  0  0  3  0  0  0  0  0  0
  192.8240  177.4120  140.1000 C   0  0  0  0  0  1  0  0  0  0  0  0
  1  2  1  6  0  0  0
  1  4  1  0  0  0  0
  3 10  2  0  0  0  0
  3  4  1  0  0  0  0
  4  9  2  0  0  0  0
  5  8  2  0  0  0  0
  5 10  1  0  0  0  0
  6 13  1  0  0  0  0
  6 12  2  0  0  0  0
  7 13  2  0  0  0  0
  8  7  1  0  0  0  0
  9 12  1  0  0  0  0
 10  6  1  0  0  0  0
 12 11  1  0  0  0  0
 15 17  1  0  0  0  0
 15 14  1  1  0  0  0
 15 18  1  0  0  0  0
 16 18  1  0  0  0  0
 17 19  1  0  0  0  0
 18 20  1  1  0  0  0
 19  1  1  6  0  0  0
 19 16  1  0  0  0  0
 21  1  1  1  0  0  0
 23 22  1  6  0  0  0
 23 24  1  0  0  0  0
 23 21  1  0  0  0  0
 24 25  1  6  0  0  0
 24 21  1  0  0  0  0
 26 27  1  0  0  0  0
 27 25  1  0  0  0  0
 27 28  1  6  0  0  0
M  END
>  <MODEL>
1

>  <REMARK>
 VINA RESULT:      -8.4      0.000      0.000
  Name = 
  5 active torsions:
  status: ('A' for Active; 'I' for Inactive)
    1  A    between atoms: C_2  and  C_8
    2  A    between atoms: C_5  and  O_12
    3  A    between atoms: C_6  and  C_8
    4  A    between atoms: C_8  and  C_22
    5  A    between atoms: O_12  and  C_18
                            x       y       z     vdW  Elec       q    Type
                         _______ _______ _______ _____ _____    ______ ____

>  <TORSDO>
F 5

$$$$
=
 OpenBabel10222417253D

 28 31  0  0  1  0  0  0  0  0999 V2000
  187.5510  177.5500  143.6430 C   0  0  1  0  0  0  0  0  0  0  0  0
  187.6610  176.1560  143.6780 O   0  0  0  0  0  1  0  0  0  0  0  0
  185.7980  177.9940  141.9180 N   0  0  0  0  0  0  0  0  0  0  0  0
  186.1240  177.9150  143.2400 C   0  0  0  0  0  0  0  0  0  0  0  0
  184.2680  178.4210  140.1390 C   0  0  0  0  0  3  0  0  0  0  0  0
  183.5620  178.6830  142.4470 C   0  0  0  0  0  0  0  0  0  0  0  0
  182.0370  179.1100  140.6520 N   0  0  0  0  0  0  0  0  0  0  0  0
  182.9880  178.8010  139.7300 C   0  0  0  0  0  3  0  0  0  0  0  0
  185.1600  178.2440  144.2060 C   0  0  0  0  0  3  0  0  0  0  0  0
  184.5580  178.3600  141.5020 C   0  0  0  0  0  0  0  0  0  0  0  0
  182.8730  178.9590  144.8680 C   0  0  0  0  0  1  0  0  0  0  0  0
  183.8750  178.6220  143.8140 C   0  0  0  0  0  0  0  0  0  0  0  0
  182.2930  179.0590  141.9880 C   0  0  0  0  0  3  0  0  0  0  0  0
  190.4070  177.2710  147.4200 C   0  0  0  0  0  1  0  0  0  0  0  0
  189.1930  177.0200  146.5420 C   0  0  2  0  0  3  0  0  0  0  0  0
  186.9570  177.5240  146.1290 C   0  0  0  0  0  2  0  0  0  0  0  0
  189.2220  177.8440  145.4040 O   0  0  0  0  0  0  0  0  0  0  0  0
  187.8790  177.2300  147.2660 C   0  0  2  0  0  3  0  0  0  0  0  0
  187.8760  178.0910  145.0540 C   0  0  1  0  0  3  0  0  0  0  0  0
  187.9380  178.3540  148.0980 O   0  0  0  0  0  1  0  0  0  0  0  0
  188.6370  178.0680  142.6600 C   0  0  2  0  0  3  0  0  0  0  0  0
  189.0900  178.3030  140.3340 O   0  0  0  0  0  1  0  0  0  0  0  0
  188.6070  177.4080  141.2910 C   0  0  1  0  0  3  0  0  0  0  0  0
  189.6890  177.0290  142.3070 C   0  0  1  0  0  3  0  0  0  0  0  0
  190.9120  177.6720  142.0340 O   0  0  0  0  0  0  0  0  0  0  0  0
  191.8860  178.3930  144.0250 O   0  0  0  0  0  1  0  0  0  0  0  0
  191.8230  177.3710  143.0710 C   0  0  1  0  0  3  0  0  0  0  0  0
  191.5420  176.0250  143.7250 C   0  0  0  0  0  1  0  0  0  0  0  0
  1  2  1  1  0  0  0
  3  4  1  0  0  0  0
  4  1  1  0  0  0  0
  4  9  2  0  0  0  0
  5 10  1  0  0  0  0
  6 12  2  0  0  0  0
  7 13  2  0  0  0  0
  8  5  2  0  0  0  0
  8  7  1  0  0  0  0
 10  3  2  0  0  0  0
 10  6  1  0  0  0  0
 12  9  1  0  0  0  0
 12 11  1  0  0  0  0
 13  6  1  0  0  0  0
 15 18  1  0  0  0  0
 15 14  1  1  0  0  0
 16 18  1  0  0  0  0
 17 15  1  0  0  0  0
 18 20  1  1  0  0  0
 19  1  1  6  0  0  0
 19 17  1  0  0  0  0
 19 16  1  0  0  0  0
 21  1  1  1  0  0  0
 23 22  1  6  0  0  0
 23 24  1  0  0  0  0
 23 21  1  0  0  0  0
 24 25  1  6  0  0  0
 24 21  1  0  0  0  0
 25 27  1  0  0  0  0
 27 28  1  1  0  0  0
 27 26  1  0  0  0  0
M  END
>  <MODEL>
2

>  <REMARK>
 VINA RESULT:      -7.7      1.806      2.791
  Name = 
  5 active torsions:
  status: ('A' for Active; 'I' for Inactive)
    1  A    between atoms: C_2  and  C_8
    2  A    between atoms: C_5  and  O_12
    3  A    between atoms: C_6  and  C_8
    4  A    between atoms: C_8  and  C_22
    5  A    between atoms: O_12  and  C_18
                            x       y       z     vdW  Elec       q    Type
                         _______ _______ _______ _____ _____    ______ ____

>  <TORSDO>
F 5

$$$$
=
 OpenBabel10222417253D

 28 31  0  0  1  0  0  0  0  0999 V2000
  187.3960  177.6550  143.4680 C   0  0  1  0  0  0  0  0  0  0  0  0
  187.4370  176.2570  143.5200 O   0  0  0  0  0  1  0  0  0  0  0  0
  184.9770  178.1910  143.7900 N   0  0  0  0  0  0  0  0  0  0  0  0
  186.0310  178.0800  142.9320 C   0  0  0  0  0  0  0  0  0  0  0  0
  182.6830  178.6270  144.2760 C   0  0  0  0  0  3  0  0  0  0  0  0
  183.4910  178.7480  141.9900 C   0  0  0  0  0  0  0  0  0  0  0  0
  181.1910  179.1820  142.4920 N   0  0  0  0  0  0  0  0  0  0  0  0
  181.4080  178.9640  143.8180 C   0  0  0  0  0  3  0  0  0  0  0  0
  185.8240  178.2870  141.5590 C   0  0  0  0  0  3  0  0  0  0  0  0
  183.7300  178.5190  143.3610 C   0  0  0  0  0  0  0  0  0  0  0  0
  184.3740  178.8480  139.6190 C   0  0  0  0  0  1  0  0  0  0  0  0
  184.5570  178.6280  141.0840 C   0  0  0  0  0  0  0  0  0  0  0  0
  182.1950  179.0830  141.5780 C   0  0  0  0  0  3  0  0  0  0  0  0
  190.0430  177.4660  147.4000 C   0  0  0  0  0  1  0  0  0  0  0  0
  188.8930  177.1680  146.4520 C   0  0  2  0  0  3  0  0  0  0  0  0
  186.6640  177.5730  145.9150 C   0  0  0  0  0  2  0  0  0  0  0  0
  188.9490  178.0050  145.3240 O   0  0  0  0  0  0  0  0  0  0  0  0
  187.5320  177.3090  147.1010 C   0  0  2  0  0  3  0  0  0  0  0  0
  187.6150  178.1940  144.8990 C   0  0  1  0  0  3  0  0  0  0  0  0
  187.4910  178.4250  147.9440 O   0  0  0  0  0  1  0  0  0  0  0  0
  188.5910  178.1120  142.5860 C   0  0  2  0  0  3  0  0  0  0  0  0
  189.3620  178.0990  140.3330 O   0  0  0  0  0  1  0  0  0  0  0  0
  188.7810  177.2970  141.3180 C   0  0  1  0  0  3  0  0  0  0  0  0
  189.7210  177.0980  142.5110 C   0  0  1  0  0  3  0  0  0  0  0  0
  190.9450  177.7700  142.3310 O   0  0  0  0  0  0  0  0  0  0  0  0
  191.9040  178.3510  144.3740 O   0  0  0  0  0  1  0  0  0  0  0  0
  191.8290  177.3860  143.3630 C   0  0  1  0  0  3  0  0  0  0  0  0
  191.4990  176.0140  143.9370 C   0  0  0  0  0  1  0  0  0  0  0  0
  1  2  1  1  0  0  0
  4  1  1  0  0  0  0
  4  3  2  0  0  0  0
  6 10  1  0  0  0  0
  7  8  2  0  0  0  0
  8  5  1  0  0  0  0
  9  4  1  0  0  0  0
 10  3  1  0  0  0  0
 10  5  2  0  0  0  0
 11 12  1  0  0  0  0
 12  9  2  0  0  0  0
 12  6  1  0  0  0  0
 13  6  2  0  0  0  0
 13  7  1  0  0  0  0
 15 18  1  0  0  0  0
 15 14  1  1  0  0  0
 16 18  1  0  0  0  0
 17 15  1  0  0  0  0
 18 20  1  1  0  0  0
 19  1  1  6  0  0  0
 19 17  1  0  0  0  0
 19 16  1  0  0  0  0
 21  1  1  1  0  0  0
 23 22  1  6  0  0  0
 23 24  1  0  0  0  0
 23 21  1  0  0  0  0
 24 25  1  6  0  0  0
 24 21  1  0  0  0  0
 25 27  1  0  0  0  0
 27 28  1  1  0  0  0
 27 26  1  0  0  0  0
M  END
>  <MODEL>
3

>  <REMARK>
 VINA RESULT:      -7.7      1.781      3.285
  Name = 
  5 active torsions:
  status: ('A' for Active; 'I' for Inactive)
    1  A    between atoms: C_2  and  C_8
    2  A    between atoms: C_5  and  O_12
    3  A    between atoms: C_6  and  C_8
    4  A    between atoms: C_8  and  C_22
    5  A    between atoms: O_12  and  C_18
                            x       y       z     vdW  Elec       q    Type
                         _______ _______ _______ _____ _____    ______ ____

>  <TORSDO>
F 5

$$$$
=
 OpenBabel10222417253D

 28 31  0  0  1  0  0  0  0  0999 V2000
  188.0180  177.6780  142.5540 C   0  0  1  0  0  0  0  0  0  0  0  0
  187.4080  176.4710  142.1960 O   0  0  0  0  0  1  0  0  0  0  0  0
  189.8510  176.9720  144.0990 N   0  0  0  0  0  0  0  0  0  0  0  0
  188.6140  177.5260  143.9510 C   0  0  0  0  0  0  0  0  0  0  0  0
  191.6810  176.2050  145.4220 C   0  0  0  0  0  3  0  0  0  0  0  0
  189.7030  177.1250  146.4880 C   0  0  0  0  0  0  0  0  0  0  0  0
  191.5460  176.3510  147.8040 N   0  0  0  0  0  0  0  0  0  0  0  0
  192.2390  176.0030  146.6860 C   0  0  0  0  0  3  0  0  0  0  0  0
  187.8780  177.8780  145.0950 C   0  0  0  0  0  3  0  0  0  0  0  0
  190.4090  176.7700  145.3200 C   0  0  0  0  0  0  0  0  0  0  0  0
  187.6150  178.0770  147.5580 C   0  0  0  0  0  1  0  0  0  0  0  0
  188.4220  177.6860  146.3660 C   0  0  0  0  0  0  0  0  0  0  0  0
  190.3040  176.9020  147.7340 C   0  0  0  0  0  3  0  0  0  0  0  0
  189.0280  178.6280  138.0170 C   0  0  0  0  0  1  0  0  0  0  0  0
  188.8400  177.8110  139.2850 C   0  0  2  0  0  3  0  0  0  0  0  0
  189.8720  176.7320  141.0710 C   0  0  0  0  0  2  0  0  0  0  0  0
  188.6030  178.6490  140.3870 O   0  0  0  0  0  0  0  0  0  0  0  0
  190.0190  176.9120  139.5960 C   0  0  2  0  0  3  0  0  0  0  0  0
  189.1230  177.9820  141.5170 C   0  0  1  0  0  3  0  0  0  0  0  0
  191.2290  177.5660  139.3420 O   0  0  0  0  0  1  0  0  0  0  0  0
  186.9320  178.7850  142.4470 C   0  0  2  0  0  3  0  0  0  0  0  0
  184.8830  179.4920  143.4340 O   0  0  0  0  0  1  0  0  0  0  0  0
  185.5630  178.3680  142.9560 C   0  0  1  0  0  3  0  0  0  0  0  0
  185.8280  178.4670  141.4510 C   0  0  1  0  0  3  0  0  0  0  0  0
  185.3260  179.6640  140.9070 O   0  0  0  0  0  0  0  0  0  0  0  0
  184.1800  180.5030  139.0590 O   0  0  0  0  0  1  0  0  0  0  0  0
  184.5470  179.3550  139.7710 C   0  0  1  0  0  3  0  0  0  0  0  0
  185.2190  178.3360  138.8600 C   0  0  0  0  0  1  0  0  0  0  0  0
  1  2  1  6  0  0  0
  1  4  1  0  0  0  0
  3 10  1  0  0  0  0
  4  3  2  0  0  0  0
  4  9  1  0  0  0  0
  5  8  1  0  0  0  0
  6 13  2  0  0  0  0
  8  7  2  0  0  0  0
  9 12  2  0  0  0  0
 10  5  2  0  0  0  0
 10  6  1  0  0  0  0
 12  6  1  0  0  0  0
 12 11  1  0  0  0  0
 13  7  1  0  0  0  0
 15 14  1  6  0  0  0
 15 18  1  0  0  0  0
 15 17  1  0  0  0  0
 16 19  1  0  0  0  0
 17 19  1  0  0  0  0
 18 20  1  1  0  0  0
 18 16  1  0  0  0  0
 19  1  1  1  0  0  0
 21  1  1  6  0  0  0
 21 23  1  0  0  0  0
 23 22  1  1  0  0  0
 24 25  1  1  0  0  0
 24 21  1  0  0  0  0
 24 23  1  0  0  0  0
 26 27  1  0  0  0  0
 27 28  1  6  0  0  0
 27 25  1  0  0  0  0
M  END
>  <MODEL>
4

>  <REMARK>
 VINA RESULT:      -7.7      2.800      5.874
  Name = 
  5 active torsions:
  status: ('A' for Active; 'I' for Inactive)
    1  A    between atoms: C_2  and  C_8
    2  A    between atoms: C_5  and  O_12
    3  A    between atoms: C_6  and  C_8
    4  A    between atoms: C_8  and  C_22
    5  A    between atoms: O_12  and  C_18
                            x       y       z     vdW  Elec       q    Type
                         _______ _______ _______ _____ _____    ______ ____

>  <TORSDO>
F 5

$$$$
=
 OpenBabel10222417253D

 28 31  0  0  1  0  0  0  0  0999 V2000
  187.8790  177.7570  142.5980 C   0  0  1  0  0  0  0  0  0  0  0  0
  187.2880  176.5350  142.2560 O   0  0  0  0  0  1  0  0  0  0  0  0
  187.5620  177.9670  145.0680 N   0  0  0  0  0  0  0  0  0  0  0  0
  188.3950  177.6620  144.0320 C   0  0  0  0  0  0  0  0  0  0  0  0
  187.0920  178.2600  147.3870 C   0  0  0  0  0  3  0  0  0  0  0  0
  189.3170  177.6120  146.6650 C   0  0  0  0  0  0  0  0  0  0  0  0
  188.8320  177.9100  148.9890 N   0  0  0  0  0  0  0  0  0  0  0  0
  187.5410  178.2350  148.7090 C   0  0  0  0  0  3  0  0  0  0  0  0
  189.7350  177.3390  144.2990 C   0  0  0  0  0  3  0  0  0  0  0  0
  187.9820  177.9470  146.3590 C   0  0  0  0  0  0  0  0  0  0  0  0
  191.6270  176.9510  145.8640 C   0  0  0  0  0  1  0  0  0  0  0  0
  190.1990  177.3050  145.6150 C   0  0  0  0  0  0  0  0  0  0  0  0
  189.7210  177.6010  148.0060 C   0  0  0  0  0  3  0  0  0  0  0  0
  189.1300  178.6820  138.1160 C   0  0  0  0  0  1  0  0  0  0  0  0
  188.8510  177.8680  139.3690 C   0  0  2  0  0  3  0  0  0  0  0  0
  189.7560  176.7400  141.1940 C   0  0  0  0  0  2  0  0  0  0  0  0
  188.6000  178.7120  140.4650 O   0  0  0  0  0  0  0  0  0  0  0  0
  189.9770  176.9200  139.7280 C   0  0  2  0  0  3  0  0  0  0  0  0
  189.0410  178.0180  141.6140 C   0  0  1  0  0  3  0  0  0  0  0  0
  191.2230  177.5240  139.5320 O   0  0  0  0  0  1  0  0  0  0  0  0
  186.8030  178.8580  142.3850 C   0  0  2  0  0  3  0  0  0  0  0  0
  184.7270  179.6330  143.2580 O   0  0  0  0  0  1  0  0  0  0  0  0
  185.4150  178.4790  142.8750 C   0  0  1  0  0  3  0  0  0  0  0  0
  185.7300  178.4790  141.3760 C   0  0  1  0  0  3  0  0  0  0  0  0
  185.2510  179.6410  140.7410 O   0  0  0  0  0  0  0  0  0  0  0  0
  184.0290  180.3710  138.8960 O   0  0  0  0  0  1  0  0  0  0  0  0
  184.5210  179.2620  139.5930 C   0  0  1  0  0  3  0  0  0  0  0  0
  185.3120  178.3410  138.6730 C   0  0  0  0  0  1  0  0  0  0  0  0
  1  2  1  6  0  0  0
  1  4  1  0  0  0  0
  3 10  1  0  0  0  0
  4  9  1  0  0  0  0
  4  3  2  0  0  0  0
  5  8  1  0  0  0  0
  6 13  2  0  0  0  0
  8  7  2  0  0  0  0
  9 12  2  0  0  0  0
 10  6  1  0  0  0  0
 10  5  2  0  0  0  0
 12 11  1  0  0  0  0
 12  6  1  0  0  0  0
 13  7  1  0  0  0  0
 15 14  1  6  0  0  0
 15 18  1  0  0  0  0
 15 17  1  0  0  0  0
 16 19  1  0  0  0  0
 17 19  1  0  0  0  0
 18 20  1  1  0  0  0
 18 16  1  0  0  0  0
 19  1  1  1  0  0  0
 21  1  1  1  0  0  0
 21 23  1  0  0  0  0
 23 22  1  6  0  0  0
 24 25  1  6  0  0  0
 24 21  1  0  0  0  0
 24 23  1  0  0  0  0
 26 27  1  0  0  0  0
 27 28  1  6  0  0  0
 27 25  1  0  0  0  0
M  END
>  <MODEL>
5

>  <REMARK>
 VINA RESULT:      -7.7      2.683      5.497
  Name = 
  5 active torsions:
  status: ('A' for Active; 'I' for Inactive)
    1  A    between atoms: C_2  and  C_8
    2  A    between atoms: C_5  and  O_12
    3  A    between atoms: C_6  and  C_8
    4  A    between atoms: C_8  and  C_22
    5  A    between atoms: O_12  and  C_18
                            x       y       z     vdW  Elec       q    Type
                         _______ _______ _______ _____ _____    ______ ____

>  <TORSDO>
F 5

$$$$
=
 OpenBabel10222417253D

 28 31  0  0  1  0  0  0  0  0999 V2000
  188.3700  177.4730  143.7660 C   0  0  1  0  0  0  0  0  0  0  0  0
  188.1210  176.1190  144.0150 O   0  0  0  0  0  1  0  0  0  0  0  0
  186.6840  178.2630  142.1000 N   0  0  0  0  0  0  0  0  0  0  0  0
  187.9410  177.7900  142.3360 C   0  0  0  0  0  0  0  0  0  0  0  0
  184.9420  179.0060  140.6510 C   0  0  0  0  0  3  0  0  0  0  0  0
  187.0690  178.2840  139.7320 C   0  0  0  0  0  0  0  0  0  0  0  0
  185.3110  179.0310  138.2890 N   0  0  0  0  0  0  0  0  0  0  0  0
  184.4940  179.2610  139.3530 C   0  0  0  0  0  3  0  0  0  0  0  0
  188.7940  177.5330  141.2500 C   0  0  0  0  0  3  0  0  0  0  0  0
  186.2340  178.5170  140.8440 C   0  0  0  0  0  0  0  0  0  0  0  0
  189.2980  177.5060  138.8160 C   0  0  0  0  0  1  0  0  0  0  0  0
  188.3640  177.7850  139.9460 C   0  0  0  0  0  0  0  0  0  0  0  0
  186.5760  178.5530  138.4490 C   0  0  0  0  0  3  0  0  0  0  0  0
  187.5720  178.4550  148.3380 C   0  0  0  0  0  1  0  0  0  0  0  0
  187.3870  177.8070  146.9760 C   0  0  2  0  0  3  0  0  0  0  0  0
  186.1520  177.7500  145.0040 C   0  0  0  0  0  2  0  0  0  0  0  0
  188.2220  178.4100  146.0200 O   0  0  0  0  0  0  0  0  0  0  0  0
  185.9570  177.8570  146.4800 C   0  0  2  0  0  3  0  0  0  0  0  0
  187.5530  178.3040  144.7800 C   0  0  1  0  0  3  0  0  0  0  0  0
  185.3690  179.0940  146.7670 O   0  0  0  0  0  1  0  0  0  0  0  0
  189.8800  177.7150  144.0410 C   0  0  2  0  0  3  0  0  0  0  0  0
  192.0360  177.3130  143.1120 O   0  0  0  0  0  1  0  0  0  0  0  0
  190.8060  176.7070  143.3810 C   0  0  1  0  0  3  0  0  0  0  0  0
  190.5310  176.6320  144.8860 C   0  0  1  0  0  3  0  0  0  0  0  0
  191.5820  177.1900  145.6390 O   0  0  0  0  0  0  0  0  0  0  0  0
  190.2040  176.3200  147.3050 O   0  0  0  0  0  1  0  0  0  0  0  0
  191.5070  176.6940  146.9600 C   0  0  1  0  0  3  0  0  0  0  0  0
  192.4900  175.5580  147.2140 C   0  0  0  0  0  1  0  0  0  0  0  0
  1  2  1  1  0  0  0
  3  4  1  0  0  0  0
  4  1  1  0  0  0  0
  5 10  1  0  0  0  0
  6 12  2  0  0  0  0
  6 10  1  0  0  0  0
  7 13  2  0  0  0  0
  7  8  1  0  0  0  0
  8  5  2  0  0  0  0
  9  4  2  0  0  0  0
 10  3  2  0  0  0  0
 11 12  1  0  0  0  0
 12  9  1  0  0  0  0
 13  6  1  0  0  0  0
 15 14  1  1  0  0  0
 16 18  1  0  0  0  0
 17 15  1  0  0  0  0
 18 20  1  6  0  0  0
 18 15  1  0  0  0  0
 19  1  1  6  0  0  0
 19 16  1  0  0  0  0
 19 17  1  0  0  0  0
 21  1  1  6  0  0  0
 21 24  1  0  0  0  0
 23 22  1  1  0  0  0
 23 21  1  0  0  0  0
 23 24  1  0  0  0  0
 24 25  1  1  0  0  0
 25 27  1  0  0  0  0
 27 28  1  6  0  0  0
 27 26  1  0  0  0  0
M  END
>  <MODEL>
6

>  <REMARK>
 VINA RESULT:      -7.6      2.481      5.185
  Name = 
  5 active torsions:
  status: ('A' for Active; 'I' for Inactive)
    1  A    between atoms: C_2  and  C_8
    2  A    between atoms: C_5  and  O_12
    3  A    between atoms: C_6  and  C_8
    4  A    between atoms: C_8  and  C_22
    5  A    between atoms: O_12  and  C_18
                            x       y       z     vdW  Elec       q    Type
                         _______ _______ _______ _____ _____    ______ ____

>  <TORSDO>
F 5

$$$$
=
 OpenBabel10222417253D

 28 31  0  0  1  0  0  0  0  0999 V2000
  188.3770  177.4090  143.6630 C   0  0  1  0  0  0  0  0  0  0  0  0
  188.1330  176.0590  143.9400 O   0  0  0  0  0  1  0  0  0  0  0  0
  188.9120  177.4810  141.2230 N   0  0  0  0  0  0  0  0  0  0  0  0
  187.9940  177.6830  142.2110 C   0  0  0  0  0  0  0  0  0  0  0  0
  189.6100  177.5250  138.9440 C   0  0  0  0  0  3  0  0  0  0  0  0
  187.3830  178.2730  139.5530 C   0  0  0  0  0  0  0  0  0  0  0  0
  188.0970  178.3120  137.2690 N   0  0  0  0  0  0  0  0  0  0  0  0
  189.3160  177.8120  137.6090 C   0  0  0  0  0  3  0  0  0  0  0  0
  186.7360  178.2140  141.8810 C   0  0  0  0  0  3  0  0  0  0  0  0
  188.6420  177.7540  139.9210 C   0  0  0  0  0  0  0  0  0  0  0  0
  185.0750  179.0590  140.2370 C   0  0  0  0  0  1  0  0  0  0  0  0
  186.4230  178.5030  140.5520 C   0  0  0  0  0  0  0  0  0  0  0  0
  187.1340  178.5470  138.2020 C   0  0  0  0  0  3  0  0  0  0  0  0
  187.4330  178.5280  148.1760 C   0  0  0  0  0  1  0  0  0  0  0  0
  187.2990  177.8310  146.8320 C   0  0  2  0  0  3  0  0  0  0  0  0
  186.1200  177.6830  144.8300 C   0  0  0  0  0  2  0  0  0  0  0  0
  188.1480  178.4180  145.8790 O   0  0  0  0  0  0  0  0  0  0  0  0
  185.8820  177.8360  146.2960 C   0  0  2  0  0  3  0  0  0  0  0  0
  187.5160  178.2580  144.6260 C   0  0  1  0  0  3  0  0  0  0  0  0
  185.2630  179.0700  146.5250 O   0  0  0  0  0  1  0  0  0  0  0  0
  189.8740  177.6760  143.9830 C   0  0  2  0  0  3  0  0  0  0  0  0
  192.0650  177.2570  143.1490 O   0  0  0  0  0  1  0  0  0  0  0  0
  190.8300  176.6510  143.3970 C   0  0  1  0  0  3  0  0  0  0  0  0
  190.5010  176.6320  144.8930 C   0  0  1  0  0  3  0  0  0  0  0  0
  191.5190  177.2290  145.6610 O   0  0  0  0  0  0  0  0  0  0  0  0
  190.1500  176.3220  147.3150 O   0  0  0  0  0  1  0  0  0  0  0  0
  191.4480  176.7250  146.9790 C   0  0  1  0  0  3  0  0  0  0  0  0
  192.4530  175.6100  147.2350 C   0  0  0  0  0  1  0  0  0  0  0  0
  1  2  1  1  0  0  0
  3  4  1  0  0  0  0
  4  1  1  0  0  0  0
  5 10  1  0  0  0  0
  6 10  1  0  0  0  0
  6 12  2  0  0  0  0
  7  8  1  0  0  0  0
  7 13  2  0  0  0  0
  8  5  2  0  0  0  0
  9  4  2  0  0  0  0
 10  3  2  0  0  0  0
 11 12  1  0  0  0  0
 12  9  1  0  0  0  0
 13  6  1  0  0  0  0
 15 14  1  1  0  0  0
 16 18  1  0  0  0  0
 17 15  1  0  0  0  0
 18 20  1  6  0  0  0
 18 15  1  0  0  0  0
 19  1  1  6  0  0  0
 19 16  1  0  0  0  0
 19 17  1  0  0  0  0
 21  1  1  6  0  0  0
 21 24  1  0  0  0  0
 23 22  1  1  0  0  0
 23 21  1  0  0  0  0
 23 24  1  0  0  0  0
 24 25  1  1  0  0  0
 25 27  1  0  0  0  0
 27 28  1  6  0  0  0
 27 26  1  0  0  0  0
M  END
>  <MODEL>
7

>  <REMARK>
 VINA RESULT:      -7.5      2.765      5.567
  Name = 
  5 active torsions:
  status: ('A' for Active; 'I' for Inactive)
    1  A    between atoms: C_2  and  C_8
    2  A    between atoms: C_5  and  O_12
    3  A    between atoms: C_6  and  C_8
    4  A    between atoms: C_8  and  C_22
    5  A    between atoms: O_12  and  C_18
                            x       y       z     vdW  Elec       q    Type
                         _______ _______ _______ _____ _____    ______ ____

>  <TORSDO>
F 5

$$$$
=
 OpenBabel10222417253D

 28 31  0  0  1  0  0  0  0  0999 V2000
  185.0030  178.7100  143.4370 C   0  0  1  0  0  0  0  0  0  0  0  0
  185.4010  180.0440  143.5730 O   0  0  0  0  0  1  0  0  0  0  0  0
  183.3610  178.6440  141.5540 N   0  0  0  0  0  0  0  0  0  0  0  0
  183.5740  178.6810  142.9010 C   0  0  0  0  0  0  0  0  0  0  0  0
  181.9420  178.6190  139.6380 C   0  0  0  0  0  3  0  0  0  0  0  0
  180.9840  178.7380  141.8650 C   0  0  0  0  0  0  0  0  0  0  0  0
  179.5710  178.7130  139.9330 N   0  0  0  0  0  0  0  0  0  0  0  0
  180.6510  178.6430  139.1070 C   0  0  0  0  0  3  0  0  0  0  0  0
  182.4730  178.7680  143.7680 C   0  0  0  0  0  3  0  0  0  0  0  0
  182.1120  178.6650  141.0220 C   0  0  0  0  0  0  0  0  0  0  0  0
  180.0290  178.8760  144.2060 C   0  0  0  0  0  1  0  0  0  0  0  0
  181.1750  178.7900  143.2550 C   0  0  0  0  0  0  0  0  0  0  0  0
  179.7080  178.7600  141.2860 C   0  0  0  0  0  3  0  0  0  0  0  0
  189.1360  176.4460  142.8870 C   0  0  0  0  0  1  0  0  0  0  0  0
  188.1430  177.5960  142.9020 C   0  0  2  0  0  3  0  0  0  0  0  0
  186.7950  179.0150  141.6400 C   0  0  0  0  0  2  0  0  0  0  0  0
  186.8370  177.1230  143.1150 O   0  0  0  0  0  0  0  0  0  0  0  0
  188.1650  178.4210  141.6310 C   0  0  2  0  0  3  0  0  0  0  0  0
  185.9720  178.0200  142.4490 C   0  0  1  0  0  3  0  0  0  0  0  0
  188.2910  177.6020  140.5040 O   0  0  0  0  0  1  0  0  0  0  0  0
  185.1690  178.0410  144.8290 C   0  0  2  0  0  3  0  0  0  0  0  0
  184.5040  178.2760  147.1040 O   0  0  0  0  0  1  0  0  0  0  0  0
  184.9860  178.9880  146.0030 C   0  0  1  0  0  3  0  0  0  0  0  0
  186.3880  178.5230  145.5990 C   0  0  1  0  0  3  0  0  0  0  0  0
  186.8570  177.4890  146.4320 O   0  0  0  0  0  0  0  0  0  0  0  0
  187.9760  177.9190  148.4310 O   0  0  0  0  0  1  0  0  0  0  0  0
  188.0650  177.9050  147.0350 C   0  0  1  0  0  3  0  0  0  0  0  0
  189.2630  177.0860  146.5700 C   0  0  0  0  0  1  0  0  0  0  0  0
  1  2  1  1  0  0  0
  3  4  1  0  0  0  0
  4  1  1  0  0  0  0
  4  9  2  0  0  0  0
  5 10  1  0  0  0  0
  6 12  2  0  0  0  0
  7 13  2  0  0  0  0
  8  5  2  0  0  0  0
  8  7  1  0  0  0  0
 10  3  2  0  0  0  0
 10  6  1  0  0  0  0
 12  9  1  0  0  0  0
 12 11  1  0  0  0  0
 13  6  1  0  0  0  0
 15 14  1  6  0  0  0
 15 17  1  0  0  0  0
 16 19  1  0  0  0  0
 18 20  1  6  0  0  0
 18 16  1  0  0  0  0
 18 15  1  0  0  0  0
 19 17  1  0  0  0  0
 19  1  1  1  0  0  0
 21  1  1  6  0  0  0
 21 24  1  0  0  0  0
 21 23  1  0  0  0  0
 23 22  1  1  0  0  0
 24 23  1  0  0  0  0
 24 25  1  1  0  0  0
 25 27  1  0  0  0  0
 27 28  1  1  0  0  0
 27 26  1  0  0  0  0
M  END
>  <MODEL>
8

>  <REMARK>
 VINA RESULT:      -7.5      2.668      5.427
  Name = 
  5 active torsions:
  status: ('A' for Active; 'I' for Inactive)
    1  A    between atoms: C_2  and  C_8
    2  A    between atoms: C_5  and  O_12
    3  A    between atoms: C_6  and  C_8
    4  A    between atoms: C_8  and  C_22
    5  A    between atoms: O_12  and  C_18
                            x       y       z     vdW  Elec       q    Type
                         _______ _______ _______ _____ _____    ______ ____

>  <TORSDO>
F 5

$$$$
=
 OpenBabel10222417253D

 28 31  0  0  1  0  0  0  0  0999 V2000
  189.0300  176.5660  142.4170 C   0  0  1  0  0  0  0  0  0  0  0  0
  188.9520  175.2210  142.7910 O   0  0  0  0  0  1  0  0  0  0  0  0
  187.4810  177.2640  144.2490 N   0  0  0  0  0  0  0  0  0  0  0  0
  187.7800  177.2840  142.9180 C   0  0  0  0  0  0  0  0  0  0  0  0
  186.0960  177.8050  146.1130 C   0  0  0  0  0  3  0  0  0  0  0  0
  185.4490  178.4850  143.8740 C   0  0  0  0  0  0  0  0  0  0  0  0
  184.0680  179.0210  145.7540 N   0  0  0  0  0  0  0  0  0  0  0  0
  184.9350  178.4060  146.6050 C   0  0  0  0  0  3  0  0  0  0  0  0
  186.8900  177.9000  142.0230 C   0  0  0  0  0  3  0  0  0  0  0  0
  186.3570  177.8450  144.7430 C   0  0  0  0  0  0  0  0  0  0  0  0
  184.8070  179.1600  141.5200 C   0  0  0  0  0  1  0  0  0  0  0  0
  185.7270  178.5090  142.4980 C   0  0  0  0  0  0  0  0  0  0  0  0
  184.2980  179.0730  144.4140 C   0  0  0  0  0  3  0  0  0  0  0  0
  191.8380  176.7120  146.2370 C   0  0  0  0  0  1  0  0  0  0  0  0
  190.7390  177.1220  145.2720 C   0  0  2  0  0  3  0  0  0  0  0  0
  190.0830  178.5830  143.5820 C   0  0  0  0  0  2  0  0  0  0  0  0
  190.7910  176.3500  144.1000 O   0  0  0  0  0  0  0  0  0  0  0  0
  190.7900  178.5890  144.8960 C   0  0  2  0  0  3  0  0  0  0  0  0
  190.3010  177.1680  143.0580 C   0  0  1  0  0  3  0  0  0  0  0  0
  192.1100  179.0090  144.6950 O   0  0  0  0  0  1  0  0  0  0  0  0
  189.2010  176.6000  140.8730 C   0  0  2  0  0  3  0  0  0  0  0  0
  190.7360  176.0080  139.1500 O   0  0  0  0  0  1  0  0  0  0  0  0
  190.6460  176.6190  140.4030 C   0  0  1  0  0  3  0  0  0  0  0  0
  189.8000  177.8950  140.3500 C   0  0  1  0  0  3  0  0  0  0  0  0
  189.3150  178.1480  139.0530 O   0  0  0  0  0  0  0  0  0  0  0  0
  187.0630  178.7410  138.9480 O   0  0  0  0  0  1  0  0  0  0  0  0
  187.9830  177.6860  138.9690 C   0  0  1  0  0  3  0  0  0  0  0  0
  187.7630  176.7420  137.7930 C   0  0  0  0  0  1  0  0  0  0  0  0
  1  2  1  1  0  0  0
  1  4  1  0  0  0  0
  3 10  1  0  0  0  0
  4  3  2  0  0  0  0
  5  8  1  0  0  0  0
  6 13  2  0  0  0  0
  6 10  1  0  0  0  0
  7  8  2  0  0  0  0
  9 12  2  0  0  0  0
  9  4  1  0  0  0  0
 10  5  2  0  0  0  0
 11 12  1  0  0  0  0
 12  6  1  0  0  0  0
 13  7  1  0  0  0  0
 15 14  1  1  0  0  0
 16 18  1  0  0  0  0
 17 15  1  0  0  0  0
 18 20  1  6  0  0  0
 18 15  1  0  0  0  0
 19  1  1  1  0  0  0
 19 16  1  0  0  0  0
 19 17  1  0  0  0  0
 21  1  1  1  0  0  0
 23 22  1  6  0  0  0
 23 21  1  0  0  0  0
 24 25  1  6  0  0  0
 24 23  1  0  0  0  0
 24 21  1  0  0  0  0
 26 27  1  0  0  0  0
 27 28  1  6  0  0  0
 27 25  1  0  0  0  0
M  END
>  <MODEL>
9

>  <REMARK>
 VINA RESULT:      -7.4      1.558      3.020
  Name = 
  5 active torsions:
  status: ('A' for Active; 'I' for Inactive)
    1  A    between atoms: C_2  and  C_8
    2  A    between atoms: C_5  and  O_12
    3  A    between atoms: C_6  and  C_8
    4  A    between atoms: C_8  and  C_22
    5  A    between atoms: O_12  and  C_18
                            x       y       z     vdW  Elec       q    Type
                         _______ _______ _______ _____ _____    ______ ____

>  <TORSDO>
F 5

$$$$
