=
 OpenBabel10222416543D

 28 33  0  0  1  0  0  0  0  0999 V2000
  183.7990  178.7740  145.4980 O   0  0  0  0  0  1  0  0  0  0  0  0
  181.4830  178.9790  136.8950 C   0  0  0  0  0  2  0  0  0  0  0  0
  181.7050  179.0220  142.5350 C   0  0  0  0  0  0  0  0  0  0  0  0
  180.6350  175.0060  138.7580 C   0  0  0  0  0  0  0  0  0  0  0  0
  183.3730  178.7450  144.1770 C   0  0  0  0  0  0  0  0  0  0  0  0
  181.5540  178.8480  140.5850 C   0  0  1  0  0  0  0  0  0  0  0  0
  181.6980  177.1900  138.5820 C   0  0  0  0  0  0  0  0  0  0  0  0
  181.1990  180.3530  137.5030 C   0  0  2  0  0  3  0  0  0  0  0  0
  182.0280  179.0810  143.8760 C   0  0  0  0  0  3  0  0  0  0  0  0
  180.1670  175.3320  140.0270 C   0  0  0  0  0  3  0  0  0  0  0  0
  180.4570  176.5780  140.5780 C   0  0  0  0  0  3  0  0  0  0  0  0
  183.9340  178.3240  141.7840 C   0  0  0  0  0  3  0  0  0  0  0  0
  180.7420  180.2440  138.9500 C   0  0  0  0  0  2  0  0  0  0  0  0
  180.3400  173.7600  138.2160 O   0  0  0  0  0  1  0  0  0  0  0  0
  181.2100  177.5330  139.8730 C   0  0  0  0  0  0  0  0  0  0  0  0
  181.8530  175.5880  136.7620 O   0  0  0  0  0  1  0  0  0  0  0  0
  182.4620  178.1650  137.7340 C   0  0  0  0  0  2  0  0  0  0  0  0
  181.3970  175.9280  138.0330 C   0  0  0  0  0  0  0  0  0  0  0  0
  184.3020  178.3750  143.1520 C   0  0  0  0  0  3  0  0  0  0  0  0
  180.6060  179.2110  141.5860 N   0  0  0  0  0  2  0  0  0  0  0  0
  182.6180  178.6580  141.5310 C   0  0  0  0  0  0  0  0  0  0  0  0
  181.8580  179.9480  139.7500 O   0  0  0  0  0  0  0  0  0  0  0  0
  180.1280  181.0620  136.6950 C   0  0  0  0  0  2  0  0  0  0  0  0
  180.7430  183.0560  135.6270 C   0  0  1  0  0  3  0  0  0  0  0  0
  180.2300  182.4990  136.8870 N   0  0  0  0  0  0  0  0  0  0  0  0
  179.3840  184.6270  136.0550 C   0  0  0  0  0  2  0  0  0  0  0  0
  179.3120  183.1200  135.9210 C   0  0  1  0  0  3  0  0  0  0  0  0
  180.8590  184.5600  135.7520 C   0  0  0  0  0  2  0  0  0  0  0  0
  2  8  1  0  0  0  0
  2 17  1  0  0  0  0
  3  9  1  0  0  0  0
  4 10  1  0  0  0  0
  5  1  1  0  0  0  0
  6 22  1  6  0  0  0
  6 21  1  0  0  0  0
  6 20  1  0  0  0  0
  7 15  2  0  0  0  0
  8 23  1  6  0  0  0
  8 13  1  0  0  0  0
  9  5  2  0  0  0  0
 10 11  2  0  0  0  0
 12 19  2  0  0  0  0
 13 22  1  0  0  0  0
 14  4  1  0  0  0  0
 15 11  1  0  0  0  0
 15  6  1  0  0  0  0
 16 18  1  0  0  0  0
 17  7  1  0  0  0  0
 18  7  1  0  0  0  0
 18  4  2  0  0  0  0
 19  5  1  0  0  0  0
 20  3  1  0  0  0  0
 21 12  1  0  0  0  0
 21  3  2  0  0  0  0
 23 25  1  0  0  0  0
 24 28  1  1  0  0  0
 24 27  1  0  0  0  0
 24 25  1  0  0  0  0
 27 26  1  1  0  0  0
 27 25  1  0  0  0  0
 28 26  1  0  0  0  0
M  END
>  <MODEL>
1

>  <REMARK>
 VINA RESULT:      -7.0      0.000      0.000
  Name = 
  2 active torsions:
  status: ('A' for Active; 'I' for Inactive)
    1  A    between atoms: N_3  and  C_10
    2  A    between atoms: C_10  and  C_12
                            x       y       z     vdW  Elec       q    Type
                         _______ _______ _______ _____ _____    ______ ____

>  <TORSDO>
F 2

$$$$
=
 OpenBabel10222416543D

 28 33  0  0  1  0  0  0  0  0999 V2000
  186.4990  174.9960  136.5170 O   0  0  0  0  0  1  0  0  0  0  0  0
  180.3510  180.2670  140.2350 C   0  0  0  0  0  2  0  0  0  0  0  0
  184.9730  177.9690  137.9510 C   0  0  0  0  0  0  0  0  0  0  0  0
  183.2650  178.7180  143.2490 C   0  0  0  0  0  0  0  0  0  0  0  0
  185.6040  175.8410  137.1580 C   0  0  0  0  0  0  0  0  0  0  0  0
  183.4490  178.7630  138.8990 C   0  0  1  0  0  0  0  0  0  0  0  0
  182.0850  178.7490  141.1190 C   0  0  0  0  0  0  0  0  0  0  0  0
  180.6770  180.8150  138.8450 C   0  0  2  0  0  3  0  0  0  0  0  0
  185.9280  177.2150  137.2990 C   0  0  0  0  0  3  0  0  0  0  0  0
  184.4840  178.7600  142.5780 C   0  0  0  0  0  3  0  0  0  0  0  0
  184.5120  178.7960  141.1860 C   0  0  0  0  0  3  0  0  0  0  0  0
  183.4180  176.1080  138.3270 C   0  0  0  0  0  3  0  0  0  0  0  0
  182.1420  180.6090  138.4890 C   0  0  0  0  0  2  0  0  0  0  0  0
  183.2480  178.6830  144.6380 O   0  0  0  0  0  1  0  0  0  0  0  0
  183.3270  178.8050  140.4290 C   0  0  0  0  0  0  0  0  0  0  0  0
  180.8570  178.6790  143.2140 O   0  0  0  0  0  1  0  0  0  0  0  0
  180.7700  178.8100  140.3980 C   0  0  0  0  0  2  0  0  0  0  0  0
  182.0670  178.7140  142.5270 C   0  0  0  0  0  0  0  0  0  0  0  0
  184.3760  175.3040  137.6620 C   0  0  0  0  0  3  0  0  0  0  0  0
  184.6670  179.3230  138.4160 N   0  0  0  0  0  2  0  0  0  0  0  0
  183.7690  177.4390  138.4460 C   0  0  0  0  0  0  0  0  0  0  0  0
  182.3390  179.2540  138.1740 O   0  0  0  0  0  0  0  0  0  0  0  0
  180.3540  182.2960  138.7860 C   0  0  0  0  0  2  0  0  0  0  0  0
  180.1190  183.0870  136.5910 C   0  0  1  0  0  3  0  0  0  0  0  0
  181.0790  182.9200  137.6920 N   0  0  0  0  0  0  0  0  0  0  0  0
  181.1420  184.9220  136.3040 C   0  0  0  0  0  2  0  0  0  0  0  0
  180.4430  184.2240  137.4520 C   0  0  1  0  0  3  0  0  0  0  0  0
  180.8080  183.7500  135.4180 C   0  0  0  0  0  2  0  0  0  0  0  0
  1  5  1  0  0  0  0
  2 17  1  0  0  0  0
  3 20  1  0  0  0  0
  3 21  1  0  0  0  0
  4 14  1  0  0  0  0
  5  9  1  0  0  0  0
  5 19  2  0  0  0  0
  6 22  1  6  0  0  0
  6 15  1  0  0  0  0
  7 18  1  0  0  0  0
  8 23  1  1  0  0  0
  8  2  1  0  0  0  0
  9  3  2  0  0  0  0
 10  4  1  0  0  0  0
 11 10  2  0  0  0  0
 12 21  2  0  0  0  0
 13  8  1  0  0  0  0
 15  7  2  0  0  0  0
 15 11  1  0  0  0  0
 17  7  1  0  0  0  0
 18 16  1  0  0  0  0
 18  4  2  0  0  0  0
 19 12  1  0  0  0  0
 20  6  1  0  0  0  0
 21  6  1  0  0  0  0
 22 13  1  0  0  0  0
 24 28  1  6  0  0  0
 24 27  1  0  0  0  0
 24 25  1  0  0  0  0
 25 23  1  0  0  0  0
 27 26  1  6  0  0  0
 27 25  1  0  0  0  0
 28 26  1  0  0  0  0
M  END
>  <MODEL>
2

>  <REMARK>
 VINA RESULT:      -7.0      2.277      4.932
  Name = 
  2 active torsions:
  status: ('A' for Active; 'I' for Inactive)
    1  A    between atoms: N_3  and  C_10
    2  A    between atoms: C_10  and  C_12
                            x       y       z     vdW  Elec       q    Type
                         _______ _______ _______ _____ _____    ______ ____

>  <TORSDO>
F 2

$$$$
=
 OpenBabel10222416543D

 28 33  0  0  1  0  0  0  0  0999 V2000
  194.8800  173.8380  135.0920 O   0  0  0  0  0  1  0  0  0  0  0  0
  188.7310  178.4850  139.5640 C   0  0  0  0  0  2  0  0  0  0  0  0
  191.9570  174.5400  137.1390 C   0  0  0  0  0  0  0  0  0  0  0  0
  187.2320  177.1430  135.5730 C   0  0  0  0  0  0  0  0  0  0  0  0
  193.8580  174.5130  135.7460 C   0  0  0  0  0  0  0  0  0  0  0  0
  190.7140  175.8770  137.8600 C   0  0  1  0  0  0  0  0  0  0  0  0
  188.9250  177.6680  137.2440 C   0  0  0  0  0  0  0  0  0  0  0  0
  189.5290  177.6540  140.5680 C   0  0  2  0  0  3  0  0  0  0  0  0
  192.9340  173.7770  136.5310 C   0  0  0  0  0  3  0  0  0  0  0  0
  187.7560  175.8600  135.4410 C   0  0  0  0  0  3  0  0  0  0  0  0
  188.8560  175.4740  136.2030 C   0  0  0  0  0  3  0  0  0  0  0  0
  192.7450  176.6860  136.2490 C   0  0  0  0  0  3  0  0  0  0  0  0
  189.9460  176.3130  139.9820 C   0  0  0  0  0  2  0  0  0  0  0  0
  186.1330  177.5170  134.8100 O   0  0  0  0  0  1  0  0  0  0  0  0
  189.4550  176.3530  137.1220 C   0  0  0  0  0  0  0  0  0  0  0  0
  187.2710  179.3240  136.5950 O   0  0  0  0  0  1  0  0  0  0  0  0
  189.4630  178.6540  138.2380 C   0  0  0  0  0  2  0  0  0  0  0  0
  187.8110  178.0470  136.4710 C   0  0  0  0  0  0  0  0  0  0  0  0
  193.7630  175.9350  135.6110 C   0  0  0  0  0  3  0  0  0  0  0  0
  190.7790  174.4600  138.0050 N   0  0  0  0  0  2  0  0  0  0  0  0
  191.8650  175.9350  137.0040 C   0  0  0  0  0  0  0  0  0  0  0  0
  191.0020  176.5270  139.0820 O   0  0  0  0  0  0  0  0  0  0  0  0
  188.6990  177.4150  141.8160 C   0  0  0  0  0  2  0  0  0  0  0  0
  190.0540  178.2670  143.5290 C   0  0  1  0  0  3  0  0  0  0  0  0
  189.5600  177.0230  142.9190 N   0  0  0  0  0  0  0  0  0  0  0  0
  189.8020  177.1890  145.3380 C   0  0  0  0  0  2  0  0  0  0  0  0
  188.9400  177.5460  144.1460 C   0  0  1  0  0  3  0  0  0  0  0  0
  190.9500  177.9310  144.7020 C   0  0  0  0  0  2  0  0  0  0  0  0
  1  5  1  0  0  0  0
  2  8  1  0  0  0  0
  3 20  1  0  0  0  0
  4 18  1  0  0  0  0
  5  9  1  0  0  0  0
  6 21  1  6  0  0  0
  6 20  1  0  0  0  0
  6 22  1  0  0  0  0
  7 17  1  0  0  0  0
  8 23  1  1  0  0  0
  9  3  2  0  0  0  0
 10  4  2  0  0  0  0
 10 11  1  0  0  0  0
 11 15  2  0  0  0  0
 12 21  2  0  0  0  0
 13  8  1  0  0  0  0
 14  4  1  0  0  0  0
 15  7  1  0  0  0  0
 15  6  1  0  0  0  0
 17  2  1  0  0  0  0
 18 16  1  0  0  0  0
 18  7  2  0  0  0  0
 19  5  2  0  0  0  0
 19 12  1  0  0  0  0
 21  3  1  0  0  0  0
 22 13  1  0  0  0  0
 23 25  1  0  0  0  0
 24 27  1  0  0  0  0
 24 28  1  1  0  0  0
 25 24  1  0  0  0  0
 25 27  1  0  0  0  0
 27 26  1  1  0  0  0
 28 26  1  0  0  0  0
M  END
>  <MODEL>
3

>  <REMARK>
 VINA RESULT:      -6.8      8.220     11.074
  Name = 
  2 active torsions:
  status: ('A' for Active; 'I' for Inactive)
    1  A    between atoms: N_3  and  C_10
    2  A    between atoms: C_10  and  C_12
                            x       y       z     vdW  Elec       q    Type
                         _______ _______ _______ _____ _____    ______ ____

>  <TORSDO>
F 2

$$$$
=
 OpenBabel10222416543D

 28 33  0  0  1  0  0  0  0  0999 V2000
  194.9820  174.2000  134.8210 O   0  0  0  0  0  1  0  0  0  0  0  0
  187.6440  177.8720  138.2970 C   0  0  0  0  0  2  0  0  0  0  0  0
  192.2880  174.8690  137.1710 C   0  0  0  0  0  0  0  0  0  0  0  0
  186.8050  173.8870  136.4560 C   0  0  0  0  0  0  0  0  0  0  0  0
  193.8080  174.6880  135.3790 C   0  0  0  0  0  0  0  0  0  0  0  0
  190.5810  175.7670  137.5320 C   0  0  1  0  0  0  0  0  0  0  0  0
  188.0750  175.9290  136.8370 C   0  0  0  0  0  0  0  0  0  0  0  0
  188.8320  178.2360  139.1880 C   0  0  2  0  0  3  0  0  0  0  0  0
  193.4740  174.3330  136.7110 C   0  0  0  0  0  3  0  0  0  0  0  0
  187.9180  173.1260  136.8000 C   0  0  0  0  0  3  0  0  0  0  0  0
  189.1070  173.7550  137.1620 C   0  0  0  0  0  3  0  0  0  0  0  0
  191.7500  176.0680  135.1000 C   0  0  0  0  0  3  0  0  0  0  0  0
  189.8540  177.1100  139.2500 C   0  0  0  0  0  2  0  0  0  0  0  0
  185.6230  173.2510  136.0970 O   0  0  0  0  0  1  0  0  0  0  0  0
  189.2120  175.1560  137.2020 C   0  0  0  0  0  0  0  0  0  0  0  0
  185.7520  176.0300  136.1330 O   0  0  0  0  0  1  0  0  0  0  0  0
  188.0770  177.4280  136.9040 C   0  0  0  0  0  2  0  0  0  0  0  0
  186.8770  175.2840  136.4740 C   0  0  0  0  0  0  0  0  0  0  0  0
  192.9620  175.5370  134.5940 C   0  0  0  0  0  3  0  0  0  0  0  0
  191.3980  174.9170  138.3330 N   0  0  0  0  0  2  0  0  0  0  0  0
  191.4600  175.7000  136.3990 C   0  0  0  0  0  0  0  0  0  0  0  0
  190.5670  177.0870  138.0400 O   0  0  0  0  0  0  0  0  0  0  0  0
  188.3470  178.5460  140.5920 C   0  0  0  0  0  2  0  0  0  0  0  0
  189.0980  177.9450  142.7300 C   0  0  1  0  0  3  0  0  0  0  0  0
  188.5830  177.4070  141.4630 N   0  0  0  0  0  0  0  0  0  0  0  0
  187.9010  176.4160  143.5820 C   0  0  0  0  0  2  0  0  0  0  0  0
  187.6900  177.5660  142.6200 C   0  0  1  0  0  3  0  0  0  0  0  0
  189.3520  176.8070  143.6950 C   0  0  0  0  0  2  0  0  0  0  0  0
  1  5  1  0  0  0  0
  2  8  1  0  0  0  0
  3 20  1  0  0  0  0
  4 18  2  0  0  0  0
  4 10  1  0  0  0  0
  5  9  2  0  0  0  0
  6 21  1  6  0  0  0
  6 22  1  0  0  0  0
  6 20  1  0  0  0  0
  7 17  1  0  0  0  0
  7 15  2  0  0  0  0
  8 13  1  0  0  0  0
  8 23  1  1  0  0  0
  9  3  1  0  0  0  0
 10 11  2  0  0  0  0
 11 15  1  0  0  0  0
 12 21  1  0  0  0  0
 14  4  1  0  0  0  0
 15  6  1  0  0  0  0
 16 18  1  0  0  0  0
 17  2  1  0  0  0  0
 18  7  1  0  0  0  0
 19 12  2  0  0  0  0
 19  5  1  0  0  0  0
 21  3  2  0  0  0  0
 22 13  1  0  0  0  0
 23 25  1  0  0  0  0
 24 28  1  1  0  0  0
 25 27  1  0  0  0  0
 25 24  1  0  0  0  0
 26 28  1  0  0  0  0
 27 24  1  0  0  0  0
 27 26  1  1  0  0  0
M  END
>  <MODEL>
4

>  <REMARK>
 VINA RESULT:      -6.8      7.970     10.486
  Name = 
  2 active torsions:
  status: ('A' for Active; 'I' for Inactive)
    1  A    between atoms: N_3  and  C_10
    2  A    between atoms: C_10  and  C_12
                            x       y       z     vdW  Elec       q    Type
                         _______ _______ _______ _____ _____    ______ ____

>  <TORSDO>
F 2

$$$$
=
 OpenBabel10222416543D

 28 33  0  0  1  0  0  0  0  0999 V2000
  190.2530  177.3090  136.4300 O   0  0  0  0  0  1  0  0  0  0  0  0
  186.5650  177.4630  144.5410 C   0  0  0  0  0  2  0  0  0  0  0  0
  188.9340  178.6280  139.5520 C   0  0  0  0  0  0  0  0  0  0  0  0
  191.0100  177.8950  144.7190 C   0  0  0  0  0  0  0  0  0  0  0  0
  189.7470  177.3870  137.7200 C   0  0  0  0  0  0  0  0  0  0  0  0
  188.2650  178.2620  141.3610 C   0  0  1  0  0  0  0  0  0  0  0  0
  188.8800  177.2970  143.7010 C   0  0  0  0  0  0  0  0  0  0  0  0
  185.6170  178.1630  143.5680 C   0  0  2  0  0  3  0  0  0  0  0  0
  189.4310  178.6580  138.2640 C   0  0  0  0  0  3  0  0  0  0  0  0
  191.3040  178.7130  143.6330 C   0  0  0  0  0  3  0  0  0  0  0  0
  190.3960  178.8300  142.5830 C   0  0  0  0  0  3  0  0  0  0  0  0
  189.0460  176.1880  139.7910 C   0  0  0  0  0  3  0  0  0  0  0  0
  186.3760  178.9240  142.4920 C   0  0  0  0  0  2  0  0  0  0  0  0
  191.9210  177.7860  145.7630 O   0  0  0  0  0  1  0  0  0  0  0  0
  189.1700  178.1430  142.5950 C   0  0  0  0  0  0  0  0  0  0  0  0
  189.5230  176.3780  145.8560 O   0  0  0  0  0  1  0  0  0  0  0  0
  187.5740  176.5700  143.8260 C   0  0  0  0  0  2  0  0  0  0  0  0
  189.8030  177.1880  144.7590 C   0  0  0  0  0  0  0  0  0  0  0  0
  189.5570  176.1810  138.4700 C   0  0  0  0  0  3  0  0  0  0  0  0
  188.4520  179.4780  140.6410 N   0  0  0  0  0  2  0  0  0  0  0  0
  188.7510  177.4430  140.2860 C   0  0  0  0  0  0  0  0  0  0  0  0
  186.8910  177.9990  141.5690 O   0  0  0  0  0  0  0  0  0  0  0  0
  184.7240  179.1290  144.3240 C   0  0  0  0  0  2  0  0  0  0  0  0
  183.0390  178.3420  142.8970 C   0  0  1  0  0  3  0  0  0  0  0  0
  183.6260  179.5600  143.4760 N   0  0  0  0  0  0  0  0  0  0  0  0
  181.2120  179.3780  143.1930 C   0  0  0  0  0  2  0  0  0  0  0  0
  182.3990  178.9820  144.0460 C   0  0  1  0  0  3  0  0  0  0  0  0
  181.8720  178.7190  142.0090 C   0  0  0  0  0  2  0  0  0  0  0  0
  1  5  1  0  0  0  0
  3 21  1  0  0  0  0
  3 20  1  0  0  0  0
  4 18  1  0  0  0  0
  4 14  1  0  0  0  0
  5  9  1  0  0  0  0
  5 19  2  0  0  0  0
  6 21  1  6  0  0  0
  6 22  1  0  0  0  0
  6 15  1  0  0  0  0
  7 17  1  0  0  0  0
  7 18  2  0  0  0  0
  8 23  1  1  0  0  0
  8  2  1  0  0  0  0
  9  3  2  0  0  0  0
 10  4  2  0  0  0  0
 11 15  2  0  0  0  0
 11 10  1  0  0  0  0
 12 21  2  0  0  0  0
 13  8  1  0  0  0  0
 15  7  1  0  0  0  0
 17  2  1  0  0  0  0
 18 16  1  0  0  0  0
 19 12  1  0  0  0  0
 20  6  1  0  0  0  0
 22 13  1  0  0  0  0
 24 28  1  6  0  0  0
 24 25  1  0  0  0  0
 24 27  1  0  0  0  0
 25 27  1  0  0  0  0
 25 23  1  0  0  0  0
 27 26  1  6  0  0  0
 28 26  1  0  0  0  0
M  END
>  <MODEL>
5

>  <REMARK>
 VINA RESULT:      -6.3      5.281      9.234
  Name = 
  2 active torsions:
  status: ('A' for Active; 'I' for Inactive)
    1  A    between atoms: N_3  and  C_10
    2  A    between atoms: C_10  and  C_12
                            x       y       z     vdW  Elec       q    Type
                         _______ _______ _______ _____ _____    ______ ____

>  <TORSDO>
F 2

$$$$
=
 OpenBabel10222416543D

 28 33  0  0  1  0  0  0  0  0999 V2000
  188.8350  178.0640  140.3970 O   0  0  0  0  0  1  0  0  0  0  0  0
  180.7850  179.6440  136.9150 C   0  0  0  0  0  2  0  0  0  0  0  0
  185.2850  178.8370  140.2250 C   0  0  0  0  0  0  0  0  0  0  0  0
  181.1340  175.4760  138.4900 C   0  0  0  0  0  0  0  0  0  0  0  0
  187.5470  178.2500  139.9140 C   0  0  0  0  0  0  0  0  0  0  0  0
  183.6620  178.9620  139.1300 C   0  0  1  0  0  0  0  0  0  0  0  0
  181.9670  177.6160  137.6800 C   0  0  0  0  0  0  0  0  0  0  0  0
  181.2740  180.9220  137.5960 C   0  0  2  0  0  3  0  0  0  0  0  0
  186.5300  178.6830  140.8030 C   0  0  0  0  0  3  0  0  0  0  0  0
  181.8720  175.6280  139.6610 C   0  0  0  0  0  3  0  0  0  0  0  0
  182.6540  176.7650  139.8480 C   0  0  0  0  0  3  0  0  0  0  0  0
  185.9860  178.1680  137.9710 C   0  0  0  0  0  3  0  0  0  0  0  0
  182.0940  180.6180  138.8410 C   0  0  0  0  0  2  0  0  0  0  0  0
  180.3560  174.3380  138.3130 O   0  0  0  0  0  1  0  0  0  0  0  0
  182.7110  177.7830  138.8800 C   0  0  0  0  0  0  0  0  0  0  0  0
  180.4280  176.2980  136.3380 O   0  0  0  0  0  1  0  0  0  0  0  0
  181.9230  178.6740  136.6170 C   0  0  0  0  0  2  0  0  0  0  0  0
  181.1770  176.4640  137.5010 C   0  0  0  0  0  0  0  0  0  0  0  0
  187.2770  178.0000  138.5300 C   0  0  0  0  0  3  0  0  0  0  0  0
  183.8990  179.2100  140.5130 N   0  0  0  0  0  2  0  0  0  0  0  0
  185.0230  178.5890  138.8680 C   0  0  0  0  0  0  0  0  0  0  0  0
  183.3600  180.1600  138.4420 O   0  0  0  0  0  0  0  0  0  0  0  0
  180.0880  181.7870  137.9800 C   0  0  0  0  0  2  0  0  0  0  0  0
  180.7760  183.5310  136.5720 C   0  0  1  0  0  3  0  0  0  0  0  0
  180.4710  183.1890  137.9690 N   0  0  0  0  0  0  0  0  0  0  0  0
  179.8310  185.3630  137.0720 C   0  0  0  0  0  2  0  0  0  0  0  0
  179.4780  183.8920  137.1420 C   0  0  1  0  0  3  0  0  0  0  0  0
  181.1680  184.9900  136.4840 C   0  0  0  0  0  2  0  0  0  0  0  0
  2  8  1  0  0  0  0
  3 20  1  0  0  0  0
  3  9  1  0  0  0  0
  4 10  1  0  0  0  0
  5  1  1  0  0  0  0
  5  9  2  0  0  0  0
  6 22  1  6  0  0  0
  6 20  1  0  0  0  0
  7 15  2  0  0  0  0
  8 23  1  1  0  0  0
  8 13  1  0  0  0  0
 10 11  2  0  0  0  0
 12 19  2  0  0  0  0
 12 21  1  0  0  0  0
 14  4  1  0  0  0  0
 15  6  1  0  0  0  0
 15 11  1  0  0  0  0
 16 18  1  0  0  0  0
 17  2  1  0  0  0  0
 17  7  1  0  0  0  0
 18  7  1  0  0  0  0
 18  4  2  0  0  0  0
 19  5  1  0  0  0  0
 21  6  1  0  0  0  0
 21  3  2  0  0  0  0
 22 13  1  0  0  0  0
 24 28  1  1  0  0  0
 24 27  1  0  0  0  0
 24 25  1  0  0  0  0
 25 23  1  0  0  0  0
 27 26  1  1  0  0  0
 27 25  1  0  0  0  0
 28 26  1  0  0  0  0
M  END
>  <MODEL>
6

>  <REMARK>
 VINA RESULT:      -6.2      2.507      3.001
  Name = 
  2 active torsions:
  status: ('A' for Active; 'I' for Inactive)
    1  A    between atoms: N_3  and  C_10
    2  A    between atoms: C_10  and  C_12
                            x       y       z     vdW  Elec       q    Type
                         _______ _______ _______ _____ _____    ______ ____

>  <TORSDO>
F 2

$$$$
=
 OpenBabel10222416543D

 28 33  0  0  1  0  0  0  0  0999 V2000
  179.4680  178.2890  144.1160 O   0  0  0  0  0  1  0  0  0  0  0  0
  183.6000  177.5020  136.2600 C   0  0  0  0  0  2  0  0  0  0  0  0
  181.8550  178.9020  141.4420 C   0  0  0  0  0  0  0  0  0  0  0  0
  180.8050  180.9890  136.3340 C   0  0  0  0  0  0  0  0  0  0  0  0
  180.1060  178.2570  142.8830 C   0  0  0  0  0  0  0  0  0  0  0  0
  182.3940  178.5670  139.5840 C   0  0  1  0  0  0  0  0  0  0  0  0
  181.7100  178.8570  137.0870 C   0  0  0  0  0  0  0  0  0  0  0  0
  184.5770  177.0900  137.3610 C   0  0  2  0  0  3  0  0  0  0  0  0
  181.3000  179.0010  142.7020 C   0  0  0  0  0  3  0  0  0  0  0  0
  180.9710  181.5150  137.6130 C   0  0  0  0  0  3  0  0  0  0  0  0
  181.5030  180.7240  138.6280 C   0  0  0  0  0  3  0  0  0  0  0  0
  180.1380  177.3980  140.5430 C   0  0  0  0  0  3  0  0  0  0  0  0
  184.3770  177.9100  138.6260 C   0  0  0  0  0  2  0  0  0  0  0  0
  180.2750  181.7870  135.3280 O   0  0  0  0  0  1  0  0  0  0  0  0
  181.8940  179.3940  138.3910 C   0  0  0  0  0  0  0  0  0  0  0  0
  181.0070  179.1580  134.7810 O   0  0  0  0  0  1  0  0  0  0  0  0
  182.1490  177.4680  136.7290 C   0  0  0  0  0  2  0  0  0  0  0  0
  181.1730  179.6660  136.0670 C   0  0  0  0  0  0  0  0  0  0  0  0
  179.5410  177.4740  141.8250 C   0  0  0  0  0  3  0  0  0  0  0  0
  182.9730  179.3620  140.6160 N   0  0  0  0  0  2  0  0  0  0  0  0
  181.2980  178.1350  140.4050 C   0  0  0  0  0  0  0  0  0  0  0  0
  183.2150  177.4590  139.2720 O   0  0  0  0  0  0  0  0  0  0  0  0
  186.0040  177.2650  136.8750 C   0  0  0  0  0  2  0  0  0  0  0  0
  188.0340  176.8360  137.9670 C   0  0  1  0  0  3  0  0  0  0  0  0
  186.8510  177.7090  137.9680 N   0  0  0  0  0  0  0  0  0  0  0  0
  189.0540  178.6280  138.4600 C   0  0  0  0  0  2  0  0  0  0  0  0
  188.1130  178.1670  137.3670 C   0  0  1  0  0  3  0  0  0  0  0  0
  188.9720  177.2560  139.0780 C   0  0  0  0  0  2  0  0  0  0  0  0
  2 17  1  0  0  0  0
  2  8  1  0  0  0  0
  3  9  1  0  0  0  0
  4 10  1  0  0  0  0
  5  1  1  0  0  0  0
  6 15  1  6  0  0  0
  6 21  1  0  0  0  0
  6 20  1  0  0  0  0
  7 15  2  0  0  0  0
  8 23  1  6  0  0  0
  8 13  1  0  0  0  0
  9  5  2  0  0  0  0
 10 11  2  0  0  0  0
 12 19  2  0  0  0  0
 13 22  1  0  0  0  0
 14  4  1  0  0  0  0
 15 11  1  0  0  0  0
 16 18  1  0  0  0  0
 17  7  1  0  0  0  0
 18  4  2  0  0  0  0
 18  7  1  0  0  0  0
 19  5  1  0  0  0  0
 20  3  1  0  0  0  0
 21 12  1  0  0  0  0
 21  3  2  0  0  0  0
 22  6  1  0  0  0  0
 23 25  1  0  0  0  0
 24 25  1  0  0  0  0
 24 28  1  1  0  0  0
 26 28  1  0  0  0  0
 27 24  1  0  0  0  0
 27 25  1  0  0  0  0
 27 26  1  1  0  0  0
M  END
>  <MODEL>
7

>  <REMARK>
 VINA RESULT:      -6.0      3.359      5.854
  Name = 
  2 active torsions:
  status: ('A' for Active; 'I' for Inactive)
    1  A    between atoms: N_3  and  C_10
    2  A    between atoms: C_10  and  C_12
                            x       y       z     vdW  Elec       q    Type
                         _______ _______ _______ _____ _____    ______ ____

>  <TORSDO>
F 2

$$$$
=
 OpenBabel10222416543D

 28 33  0  0  1  0  0  0  0  0999 V2000
  185.2600  179.6820  144.9240 O   0  0  0  0  0  1  0  0  0  0  0  0
  180.6060  176.5200  138.0140 C   0  0  0  0  0  2  0  0  0  0  0  0
  184.4830  178.6320  141.5300 C   0  0  0  0  0  0  0  0  0  0  0  0
  180.8250  180.9840  137.9760 C   0  0  0  0  0  0  0  0  0  0  0  0
  184.5620  179.2620  143.8000 C   0  0  0  0  0  0  0  0  0  0  0  0
  183.1230  178.0580  140.2370 C   0  0  1  0  0  0  0  0  0  0  0  0
  180.9570  178.7660  138.9750 C   0  0  0  0  0  0  0  0  0  0  0  0
  181.7520  175.5510  138.3060 C   0  0  2  0  0  3  0  0  0  0  0  0
  185.2670  179.0480  142.5880 C   0  0  0  0  0  3  0  0  0  0  0  0
  182.1260  181.2520  138.3910 C   0  0  0  0  0  3  0  0  0  0  0  0
  182.8460  180.2880  139.0930 C   0  0  0  0  0  3  0  0  0  0  0  0
  182.3740  178.6300  142.7840 C   0  0  0  0  0  3  0  0  0  0  0  0
  182.9980  176.2810  138.7850 C   0  0  0  0  0  2  0  0  0  0  0  0
  180.1150  181.9510  137.2760 O   0  0  0  0  0  1  0  0  0  0  0  0
  182.2910  179.0300  139.3880 C   0  0  0  0  0  0  0  0  0  0  0  0
  178.9370  179.4920  137.8360 O   0  0  0  0  0  1  0  0  0  0  0  0
  180.3040  177.4340  139.1960 C   0  0  0  0  0  2  0  0  0  0  0  0
  180.2380  179.7460  138.2630 C   0  0  0  0  0  0  0  0  0  0  0  0
  183.1480  179.0570  143.8920 C   0  0  0  0  0  3  0  0  0  0  0  0
  184.5280  178.2630  140.1140 N   0  0  0  0  0  2  0  0  0  0  0  0
  183.0960  178.4330  141.6230 C   0  0  0  0  0  0  0  0  0  0  0  0
  182.7950  176.6880  140.1130 O   0  0  0  0  0  0  0  0  0  0  0  0
  182.0890  174.7590  137.0560 C   0  0  0  0  0  2  0  0  0  0  0  0
  182.7800  172.5870  136.5070 C   0  0  1  0  0  3  0  0  0  0  0  0
  183.0820  173.7440  137.3630 N   0  0  0  0  0  0  0  0  0  0  0  0
  184.8910  172.4450  136.3740 C   0  0  0  0  0  2  0  0  0  0  0  0
  183.8460  173.5130  136.1270 C   0  0  1  0  0  3  0  0  0  0  0  0
  183.7920  171.4910  136.7640 C   0  0  0  0  0  2  0  0  0  0  0  0
  2  8  1  0  0  0  0
  2 17  1  0  0  0  0
  3 21  2  0  0  0  0
  3  9  1  0  0  0  0
  4 18  2  0  0  0  0
  4 10  1  0  0  0  0
  5 19  1  0  0  0  0
  5  1  1  0  0  0  0
  6 15  1  6  0  0  0
  6 21  1  0  0  0  0
  7 17  1  0  0  0  0
  7 15  2  0  0  0  0
  8 23  1  6  0  0  0
  8 13  1  0  0  0  0
  9  5  2  0  0  0  0
 10 11  2  0  0  0  0
 11 15  1  0  0  0  0
 12 19  2  0  0  0  0
 13 22  1  0  0  0  0
 14  4  1  0  0  0  0
 16 18  1  0  0  0  0
 18  7  1  0  0  0  0
 20  6  1  0  0  0  0
 20  3  1  0  0  0  0
 21 12  1  0  0  0  0
 22  6  1  0  0  0  0
 23 25  1  0  0  0  0
 24 28  1  1  0  0  0
 24 25  1  0  0  0  0
 26 28  1  0  0  0  0
 27 26  1  1  0  0  0
 27 24  1  0  0  0  0
 27 25  1  0  0  0  0
M  END
>  <MODEL>
8

>  <REMARK>
 VINA RESULT:      -5.9      2.833      6.143
  Name = 
  2 active torsions:
  status: ('A' for Active; 'I' for Inactive)
    1  A    between atoms: N_3  and  C_10
    2  A    between atoms: C_10  and  C_12
                            x       y       z     vdW  Elec       q    Type
                         _______ _______ _______ _____ _____    ______ ____

>  <TORSDO>
F 2

$$$$
=
 OpenBabel10222416543D

 28 33  0  0  1  0  0  0  0  0999 V2000
  188.3030  178.9280  141.2400 O   0  0  0  0  0  1  0  0  0  0  0  0
  179.6390  177.0930  140.2430 C   0  0  0  0  0  2  0  0  0  0  0  0
  185.1560  178.1070  139.6120 C   0  0  0  0  0  0  0  0  0  0  0  0
  180.5780  181.3350  139.1950 C   0  0  0  0  0  0  0  0  0  0  0  0
  186.9500  178.7050  141.0180 C   0  0  0  0  0  0  0  0  0  0  0  0
  183.2080  177.9120  139.7600 C   0  0  1  0  0  0  0  0  0  0  0  0
  180.9760  179.1680  140.2340 C   0  0  0  0  0  0  0  0  0  0  0  0
  180.4420  175.8540  139.8470 C   0  0  2  0  0  3  0  0  0  0  0  0
  186.5170  178.3030  139.7290 C   0  0  0  0  0  3  0  0  0  0  0  0
  181.8010  181.2470  138.5360 C   0  0  0  0  0  3  0  0  0  0  0  0
  182.6120  180.1290  138.7170 C   0  0  0  0  0  3  0  0  0  0  0  0
  184.6340  178.6770  141.9410 C   0  0  0  0  0  3  0  0  0  0  0  0
  181.7580  176.2260  139.1800 C   0  0  0  0  0  2  0  0  0  0  0  0
  179.7760  182.4530  139.0070 O   0  0  0  0  0  1  0  0  0  0  0  0
  182.2190  179.0670  139.5510 C   0  0  0  0  0  0  0  0  0  0  0  0
  178.9330  180.4030  140.6890 O   0  0  0  0  0  1  0  0  0  0  0  0
  180.4500  178.0600  141.0990 C   0  0  0  0  0  2  0  0  0  0  0  0
  180.1620  180.3010  140.0420 C   0  0  0  0  0  0  0  0  0  0  0  0
  186.0270  178.8860  142.0980 C   0  0  0  0  0  3  0  0  0  0  0  0
  184.1030  177.7330  138.6660 N   0  0  0  0  0  2  0  0  0  0  0  0
  184.2510  178.2870  140.6720 C   0  0  0  0  0  0  0  0  0  0  0  0
  182.6470  176.6790  140.1670 O   0  0  0  0  0  0  0  0  0  0  0  0
  179.6280  174.9950  138.8980 C   0  0  0  0  0  2  0  0  0  0  0  0
  179.6810  172.8490  137.9540 C   0  0  1  0  0  3  0  0  0  0  0  0
  180.4940  174.0450  138.2190 N   0  0  0  0  0  0  0  0  0  0  0  0
  180.7620  172.8200  136.1300 C   0  0  0  0  0  2  0  0  0  0  0  0
  179.9140  173.8210  136.8860 C   0  0  1  0  0  3  0  0  0  0  0  0
  180.5220  171.8190  137.2300 C   0  0  0  0  0  2  0  0  0  0  0  0
  2 17  1  0  0  0  0
  3  9  2  0  0  0  0
  3 21  1  0  0  0  0
  4 18  1  0  0  0  0
  5  1  1  0  0  0  0
  5 19  2  0  0  0  0
  6 20  1  6  0  0  0
  6 22  1  0  0  0  0
  6 21  1  0  0  0  0
  7 17  1  0  0  0  0
  8 23  1  6  0  0  0
  8  2  1  0  0  0  0
  9  5  1  0  0  0  0
 10 11  1  0  0  0  0
 10  4  2  0  0  0  0
 11 15  2  0  0  0  0
 12 19  1  0  0  0  0
 13  8  1  0  0  0  0
 13 22  1  0  0  0  0
 14  4  1  0  0  0  0
 15  6  1  0  0  0  0
 15  7  1  0  0  0  0
 18  7  2  0  0  0  0
 18 16  1  0  0  0  0
 20  3  1  0  0  0  0
 21 12  2  0  0  0  0
 24 28  1  6  0  0  0
 24 25  1  0  0  0  0
 25 23  1  0  0  0  0
 26 28  1  0  0  0  0
 27 26  1  6  0  0  0
 27 24  1  0  0  0  0
 27 25  1  0  0  0  0
M  END
>  <MODEL>
9

>  <REMARK>
 VINA RESULT:      -5.6      3.074      6.337
  Name = 
  2 active torsions:
  status: ('A' for Active; 'I' for Inactive)
    1  A    between atoms: N_3  and  C_10
    2  A    between atoms: C_10  and  C_12
                            x       y       z     vdW  Elec       q    Type
                         _______ _______ _______ _____ _____    ______ ____

>  <TORSDO>
F 2

$$$$
