=
 OpenBabel10222421073D

 29 30  0  0  1  0  0  0  0  0999 V2000
  187.3270  174.3760  134.9890 N   0  0  0  0  0  0  0  0  0  0  0  0
  190.2900  177.0100  138.5480 C   0  0  2  0  0  3  0  0  0  0  0  0
  188.9490  176.9310  137.8020 C   0  0  2  0  0  3  0  0  0  0  0  0
  188.6130  175.4840  137.3700 C   0  0  2  0  0  3  0  0  0  0  0  0
  186.5480  174.6830  136.1470 C   0  0  0  0  0  0  0  0  0  0  0  0
  189.3600  174.9810  136.1540 C   0  0  0  0  0  0  0  0  0  0  0  0
  191.5590  175.1760  137.3240 C   0  0  1  0  0  3  0  0  0  0  0  0
  188.6170  174.5110  134.9730 C   0  0  0  0  0  3  0  0  0  0  0  0
  191.4990  176.6620  137.6700 C   0  0  0  0  0  2  0  0  0  0  0  0
  185.3070  174.4750  136.1430 O   0  0  0  0  0  0  0  0  0  0  0  0
  187.1700  175.2580  137.2980 N   0  0  0  0  0  2  0  0  0  0  0  0
  190.6880  174.8560  136.1490 C   0  0  0  0  0  3  0  0  0  0  0  0
  189.3360  177.6780  135.5360 F   0  0  0  0  0  0  0  0  0  0  0  0
  188.8000  178.0670  136.7520 C   0  0  0  0  0  0  0  0  0  0  0  0
  189.5180  179.1650  137.2000 F   0  0  0  0  0  0  0  0  0  0  0  0
  187.3470  178.5200  136.5460 C   0  0  0  0  0  0  0  0  0  0  0  0
  186.7760  177.8510  135.4770 F   0  0  0  0  0  0  0  0  0  0  0  0
  186.6100  178.2440  137.6840 F   0  0  0  0  0  0  0  0  0  0  0  0
  187.2890  179.8810  136.3230 F   0  0  0  0  0  0  0  0  0  0  0  0
  193.8010  175.9980  136.6130 C   0  0  0  0  0  1  0  0  0  0  0  0
  192.9880  174.7780  137.0020 C   0  0  0  0  0  2  0  0  0  0  0  0
  190.2600  176.2030  139.7600 N   0  0  0  0  0  2  0  0  0  0  0  0
  190.5430  177.0860  140.8780 C   0  0  0  0  0  2  0  0  0  0  0  0
  189.2420  177.5140  141.5250 C   0  0  0  0  0  2  0  0  0  0  0  0
  189.4470  177.7740  143.0180 C   0  0  0  0  0  2  0  0  0  0  0  0
  188.1240  175.9010  143.1720 O   0  0  0  0  0  1  0  0  0  0  0  0
  188.9840  176.6760  143.8770 N   0  0  0  0  0  0  0  0  0  0  0  0
  186.7850  177.3670  144.6640 C   0  0  0  0  0  1  0  0  0  0  0  0
  188.2520  177.2180  145.0160 C   0  0  0  0  0  2  0  0  0  0  0  0
  1  5  1  0  0  0  0
  2 22  1  1  0  0  0
  3 14  1  6  0  0  0
  3  2  1  0  0  0  0
  4  6  1  6  0  0  0
  4  3  1  0  0  0  0
  5 11  1  0  0  0  0
  7 21  1  6  0  0  0
  7  9  1  0  0  0  0
  8  1  2  0  0  0  0
  8  6  1  0  0  0  0
  9  2  1  0  0  0  0
 10  5  2  0  0  0  0
 11  4  1  0  0  0  0
 12  6  2  0  0  0  0
 12  7  1  0  0  0  0
 13 14  1  0  0  0  0
 14 15  1  0  0  0  0
 16 14  1  0  0  0  0
 16 18  1  0  0  0  0
 17 16  1  0  0  0  0
 19 16  1  0  0  0  0
 20 21  1  0  0  0  0
 22 23  1  0  0  0  0
 23 24  1  0  0  0  0
 24 25  1  0  0  0  0
 25 27  1  0  0  0  0
 26 27  1  0  0  0  0
 27 29  1  0  0  0  0
 28 29  1  0  0  0  0
M  END
>  <MODEL>
1

>  <REMARK>
 VINA RESULT:      -5.6      0.000      0.000
  Name = 
  9 active torsions:
  status: ('A' for Active; 'I' for Inactive)
    1  A    between atoms: C_4  and  N_29
    2  A    between atoms: C_5  and  C_8
    3  A    between atoms: C_5  and  C_16
    4  A    between atoms: C_7  and  C_17
    5  A    between atoms: C_10  and  N_11
    6  A    between atoms: C_10  and  C_21
    7  A    between atoms: N_11  and  C_27
    8  A    between atoms: C_21  and  C_24
    9  A    between atoms: C_24  and  N_29
                            x       y       z     vdW  Elec       q    Type
                         _______ _______ _______ _____ _____    ______ ____

>  <TORSDO>
F 9

$$$$
=
 OpenBabel10222421073D

 29 30  0  0  1  0  0  0  0  0999 V2000
  179.6290  180.0650  138.9900 N   0  0  0  0  0  0  0  0  0  0  0  0
  184.4190  178.2540  140.4610 C   0  0  2  0  0  3  0  0  0  0  0  0
  183.4190  178.4520  139.3100 C   0  0  2  0  0  3  0  0  0  0  0  0
  182.4620  179.6380  139.5740 C   0  0  2  0  0  3  0  0  0  0  0  0
  180.6260  180.5000  138.0630 C   0  0  0  0  0  0  0  0  0  0  0  0
  181.3390  179.3590  140.5500 C   0  0  0  0  0  0  0  0  0  0  0  0
  182.9520  178.9570  142.4160 C   0  0  1  0  0  3  0  0  0  0  0  0
  179.9380  179.5350  140.1340 C   0  0  0  0  0  3  0  0  0  0  0  0
  183.7580  177.8280  141.7780 C   0  0  0  0  0  2  0  0  0  0  0  0
  180.2840  181.0700  136.9940 O   0  0  0  0  0  0  0  0  0  0  0  0
  182.0080  180.2590  138.3310 N   0  0  0  0  0  2  0  0  0  0  0  0
  181.5790  179.0460  141.8240 C   0  0  0  0  0  3  0  0  0  0  0  0
  181.5210  177.2940  138.3610 F   0  0  0  0  0  0  0  0  0  0  0  0
  182.8100  177.1050  138.8320 C   0  0  0  0  0  0  0  0  0  0  0  0
  182.7410  176.2510  139.9220 F   0  0  0  0  0  0  0  0  0  0  0  0
  183.6480  176.4060  137.7510 C   0  0  0  0  0  0  0  0  0  0  0  0
  184.7660  177.1590  137.4390 F   0  0  0  0  0  0  0  0  0  0  0  0
  184.0640  175.1700  138.2150 F   0  0  0  0  0  0  0  0  0  0  0  0
  182.8970  176.2000  136.6100 F   0  0  0  0  0  0  0  0  0  0  0  0
  184.1700  178.9370  144.5900 C   0  0  0  0  0  1  0  0  0  0  0  0
  182.8300  178.7240  143.9110 C   0  0  0  0  0  2  0  0  0  0  0  0
  185.2500  179.4370  140.6370 N   0  0  0  0  0  2  0  0  0  0  0  0
  186.4360  179.0300  141.3690 C   0  0  0  0  0  2  0  0  0  0  0  0
  187.3940  178.3300  140.4270 C   0  0  0  0  0  2  0  0  0  0  0  0
  188.5680  177.7330  141.2050 C   0  0  0  0  0  2  0  0  0  0  0  0
  189.7170  178.3250  143.1050 O   0  0  0  0  0  1  0  0  0  0  0  0
  188.4920  177.9600  142.6540 N   0  0  0  0  0  0  0  0  0  0  0  0
  187.4460  177.0310  144.6470 C   0  0  0  0  0  1  0  0  0  0  0  0
  188.1280  176.7200  143.3290 C   0  0  0  0  0  2  0  0  0  0  0  0
  1  8  2  0  0  0  0
  2 22  1  1  0  0  0
  2  9  1  0  0  0  0
  3 14  1  1  0  0  0
  3  4  1  0  0  0  0
  3  2  1  0  0  0  0
  4 11  1  6  0  0  0
  4  6  1  0  0  0  0
  5 11  1  0  0  0  0
  5  1  1  0  0  0  0
  6 12  2  0  0  0  0
  7 21  1  1  0  0  0
  8  6  1  0  0  0  0
  9  7  1  0  0  0  0
 10  5  2  0  0  0  0
 12  7  1  0  0  0  0
 13 14  1  0  0  0  0
 14 15  1  0  0  0  0
 16 18  1  0  0  0  0
 16 14  1  0  0  0  0
 17 16  1  0  0  0  0
 19 16  1  0  0  0  0
 21 20  1  0  0  0  0
 22 23  1  0  0  0  0
 24 25  1  0  0  0  0
 24 23  1  0  0  0  0
 25 27  1  0  0  0  0
 27 26  1  0  0  0  0
 27 29  1  0  0  0  0
 29 28  1  0  0  0  0
M  END
>  <MODEL>
2

>  <REMARK>
 VINA RESULT:      -5.4      5.112      7.555
  Name = 
  9 active torsions:
  status: ('A' for Active; 'I' for Inactive)
    1  A    between atoms: C_4  and  N_29
    2  A    between atoms: C_5  and  C_8
    3  A    between atoms: C_5  and  C_16
    4  A    between atoms: C_7  and  C_17
    5  A    between atoms: C_10  and  N_11
    6  A    between atoms: C_10  and  C_21
    7  A    between atoms: N_11  and  C_27
    8  A    between atoms: C_21  and  C_24
    9  A    between atoms: C_24  and  N_29
                            x       y       z     vdW  Elec       q    Type
                         _______ _______ _______ _____ _____    ______ ____

>  <TORSDO>
F 9

$$$$
=
 OpenBabel10222421073D

 29 30  0  0  1  0  0  0  0  0999 V2000
  178.9960  176.9440  141.3290 N   0  0  0  0  0  0  0  0  0  0  0  0
  183.4350  178.3820  138.7580 C   0  0  2  0  0  3  0  0  0  0  0  0
  182.1850  178.8500  139.5200 C   0  0  2  0  0  3  0  0  0  0  0  0
  181.6780  177.7750  140.5110 C   0  0  2  0  0  3  0  0  0  0  0  0
  179.6980  177.9380  142.0780 C   0  0  0  0  0  0  0  0  0  0  0  0
  180.9140  176.6280  139.8870 C   0  0  0  0  0  0  0  0  0  0  0  0
  182.9150  175.8990  138.5800 C   0  0  1  0  0  3  0  0  0  0  0  0
  179.5370  176.3360  140.3180 C   0  0  0  0  0  3  0  0  0  0  0  0
  183.1730  177.1980  137.8200 C   0  0  0  0  0  2  0  0  0  0  0  0
  179.1630  178.4560  143.0920 O   0  0  0  0  0  0  0  0  0  0  0  0
  180.9940  178.3710  141.6570 N   0  0  0  0  0  2  0  0  0  0  0  0
  181.4850  175.7970  139.0130 C   0  0  0  0  0  3  0  0  0  0  0  0
  179.8750  179.4250  139.1020 F   0  0  0  0  0  0  0  0  0  0  0  0
  181.1530  179.5310  138.5800 C   0  0  0  0  0  0  0  0  0  0  0  0
  181.1700  178.8640  137.3640 F   0  0  0  0  0  0  0  0  0  0  0  0
  181.4670  181.0080  138.2990 C   0  0  0  0  0  0  0  0  0  0  0  0
  181.2630  181.3030  136.9620 F   0  0  0  0  0  0  0  0  0  0  0  0
  180.6340  181.8110  139.0590 F   0  0  0  0  0  0  0  0  0  0  0  0
  182.7700  181.3030  138.6430 F   0  0  0  0  0  0  0  0  0  0  0  0
  182.0730  174.3690  136.8020 C   0  0  0  0  0  1  0  0  0  0  0  0
  183.2490  174.7090  137.6980 C   0  0  0  0  0  2  0  0  0  0  0  0
  184.5310  178.1040  139.6780 N   0  0  0  0  0  2  0  0  0  0  0  0
  184.8290  179.3370  140.3850 C   0  0  0  0  0  2  0  0  0  0  0  0
  185.5620  179.0150  141.6710 C   0  0  0  0  0  2  0  0  0  0  0  0
  184.7050  178.1160  142.5640 C   0  0  0  0  0  2  0  0  0  0  0  0
  184.5430  179.9420  143.9500 O   0  0  0  0  0  1  0  0  0  0  0  0
  184.6030  178.5880  143.9510 N   0  0  0  0  0  0  0  0  0  0  0  0
  185.6410  178.5760  146.1530 C   0  0  0  0  0  1  0  0  0  0  0  0
  185.7970  178.2020  144.6930 C   0  0  0  0  0  2  0  0  0  0  0  0
  1  5  1  0  0  0  0
  2  3  1  0  0  0  0
  2 22  1  1  0  0  0
  3 14  1  6  0  0  0
  3  4  1  0  0  0  0
  4  6  1  6  0  0  0
  4 11  1  0  0  0  0
  5 10  2  0  0  0  0
  6  8  1  0  0  0  0
  7 21  1  6  0  0  0
  7 12  1  0  0  0  0
  8  1  2  0  0  0  0
  9  7  1  0  0  0  0
  9  2  1  0  0  0  0
 11  5  1  0  0  0  0
 12  6  2  0  0  0  0
 14 13  1  0  0  0  0
 15 14  1  0  0  0  0
 16 14  1  0  0  0  0
 16 19  1  0  0  0  0
 16 18  1  0  0  0  0
 17 16  1  0  0  0  0
 20 21  1  0  0  0  0
 22 23  1  0  0  0  0
 23 24  1  0  0  0  0
 24 25  1  0  0  0  0
 25 27  1  0  0  0  0
 26 27  1  0  0  0  0
 27 29  1  0  0  0  0
 29 28  1  0  0  0  0
M  END
>  <MODEL>
3

>  <REMARK>
 VINA RESULT:      -5.2      6.266      7.886
  Name = 
  9 active torsions:
  status: ('A' for Active; 'I' for Inactive)
    1  A    between atoms: C_4  and  N_29
    2  A    between atoms: C_5  and  C_8
    3  A    between atoms: C_5  and  C_16
    4  A    between atoms: C_7  and  C_17
    5  A    between atoms: C_10  and  N_11
    6  A    between atoms: C_10  and  C_21
    7  A    between atoms: N_11  and  C_27
    8  A    between atoms: C_21  and  C_24
    9  A    between atoms: C_24  and  N_29
                            x       y       z     vdW  Elec       q    Type
                         _______ _______ _______ _____ _____    ______ ____

>  <TORSDO>
F 9

$$$$
=
 OpenBabel10222421073D

 29 30  0  0  1  0  0  0  0  0999 V2000
  180.8860  175.1620  137.6730 N   0  0  0  0  0  0  0  0  0  0  0  0
  183.3960  178.9120  140.5050 C   0  0  2  0  0  3  0  0  0  0  0  0
  182.0670  178.1970  140.2160 C   0  0  2  0  0  3  0  0  0  0  0  0
  182.2880  176.7630  139.6790 C   0  0  2  0  0  3  0  0  0  0  0  0
  180.5200  175.0650  139.0510 C   0  0  0  0  0  0  0  0  0  0  0  0
  182.6950  176.6720  138.2240 C   0  0  0  0  0  0  0  0  0  0  0  0
  184.8270  177.9010  138.6600 C   0  0  1  0  0  3  0  0  0  0  0  0
  181.8790  175.8970  137.2750 C   0  0  0  0  0  3  0  0  0  0  0  0
  184.2330  179.1800  139.2480 C   0  0  0  0  0  2  0  0  0  0  0  0
  179.5950  174.2890  139.4020 O   0  0  0  0  0  0  0  0  0  0  0  0
  181.1800  175.8740  140.0260 N   0  0  0  0  0  2  0  0  0  0  0  0
  183.8390  177.1970  137.7820 C   0  0  0  0  0  3  0  0  0  0  0  0
  181.1450  178.9170  138.1010 F   0  0  0  0  0  0  0  0  0  0  0  0
  181.0630  179.1170  139.4690 C   0  0  0  0  0  0  0  0  0  0  0  0
  181.4120  180.4350  139.7250 F   0  0  0  0  0  0  0  0  0  0  0  0
  179.6080  178.9290  139.9240 C   0  0  0  0  0  0  0  0  0  0  0  0
  178.9310  180.1360  139.9020 F   0  0  0  0  0  0  0  0  0  0  0  0
  178.9670  178.0480  139.0710 F   0  0  0  0  0  0  0  0  0  0  0  0
  179.5610  178.3970  141.1970 F   0  0  0  0  0  0  0  0  0  0  0  0
  186.4240  177.0730  136.9370 C   0  0  0  0  0  1  0  0  0  0  0  0
  186.0630  178.2340  137.8450 C   0  0  0  0  0  2  0  0  0  0  0  0
  184.1630  178.1950  141.5150 N   0  0  0  0  0  2  0  0  0  0  0  0
  183.7160  178.6630  142.8150 C   0  0  0  0  0  2  0  0  0  0  0  0
  184.8880  178.6830  143.7750 C   0  0  0  0  0  2  0  0  0  0  0  0
  184.3960  178.8350  145.2160 C   0  0  0  0  0  2  0  0  0  0  0  0
  185.5110  179.3980  147.1450 O   0  0  0  0  0  1  0  0  0  0  0  0
  185.3800  178.4140  146.2220 N   0  0  0  0  0  0  0  0  0  0  0  0
  187.6180  177.5140  146.5460 C   0  0  0  0  0  1  0  0  0  0  0  0
  186.6810  178.2270  145.5920 C   0  0  0  0  0  2  0  0  0  0  0  0
  1  5  1  0  0  0  0
  2 22  1  1  0  0  0
  3 14  1  6  0  0  0
  3  2  1  0  0  0  0
  4  6  1  6  0  0  0
  4 11  1  0  0  0  0
  4  3  1  0  0  0  0
  5 10  2  0  0  0  0
  5 11  1  0  0  0  0
  7 21  1  6  0  0  0
  7  9  1  0  0  0  0
  8  1  2  0  0  0  0
  8  6  1  0  0  0  0
  9  2  1  0  0  0  0
 12  6  2  0  0  0  0
 12  7  1  0  0  0  0
 13 14  1  0  0  0  0
 14 15  1  0  0  0  0
 14 16  1  0  0  0  0
 16 19  1  0  0  0  0
 17 16  1  0  0  0  0
 18 16  1  0  0  0  0
 20 21  1  0  0  0  0
 22 23  1  0  0  0  0
 23 24  1  0  0  0  0
 24 25  1  0  0  0  0
 25 27  1  0  0  0  0
 27 26  1  0  0  0  0
 29 27  1  0  0  0  0
 29 28  1  0  0  0  0
M  END
>  <MODEL>
4

>  <REMARK>
 VINA RESULT:      -5.2      5.491      7.118
  Name = 
  9 active torsions:
  status: ('A' for Active; 'I' for Inactive)
    1  A    between atoms: C_4  and  N_29
    2  A    between atoms: C_5  and  C_8
    3  A    between atoms: C_5  and  C_16
    4  A    between atoms: C_7  and  C_17
    5  A    between atoms: C_10  and  N_11
    6  A    between atoms: C_10  and  C_21
    7  A    between atoms: N_11  and  C_27
    8  A    between atoms: C_21  and  C_24
    9  A    between atoms: C_24  and  N_29
                            x       y       z     vdW  Elec       q    Type
                         _______ _______ _______ _____ _____    ______ ____

>  <TORSDO>
F 9

$$$$
=
 OpenBabel10222421073D

 29 30  0  0  1  0  0  0  0  0999 V2000
  190.3860  174.7430  136.1070 N   0  0  0  0  0  0  0  0  0  0  0  0
  188.6100  178.0770  139.8630 C   0  0  2  0  0  3  0  0  0  0  0  0
  188.3970  177.5000  138.4550 C   0  0  2  0  0  3  0  0  0  0  0  0
  189.0130  176.0890  138.3100 C   0  0  2  0  0  3  0  0  0  0  0  0
  188.9740  174.5940  136.2700 C   0  0  0  0  0  0  0  0  0  0  0  0
  190.5160  176.0520  138.1370 C   0  0  0  0  0  0  0  0  0  0  0  0
  190.8810  177.0620  140.3940 C   0  0  1  0  0  3  0  0  0  0  0  0
  191.1080  175.4120  136.9510 C   0  0  0  0  0  3  0  0  0  0  0  0
  190.0830  178.3490  140.1960 C   0  0  0  0  0  2  0  0  0  0  0  0
  188.3200  173.8800  135.4650 O   0  0  0  0  0  0  0  0  0  0  0  0
  188.2980  175.2800  137.3250 N   0  0  0  0  0  2  0  0  0  0  0  0
  191.3420  176.5030  139.0830 C   0  0  0  0  0  3  0  0  0  0  0  0
  189.6920  178.0990  136.5030 F   0  0  0  0  0  0  0  0  0  0  0  0
  188.6900  178.5490  137.3470 C   0  0  0  0  0  0  0  0  0  0  0  0
  189.1400  179.7090  137.9580 F   0  0  0  0  0  0  0  0  0  0  0  0
  187.4530  178.9180  136.5140 C   0  0  0  0  0  0  0  0  0  0  0  0
  187.3910  180.2860  136.3140 F   0  0  0  0  0  0  0  0  0  0  0  0
  187.5230  178.2950  135.2800 F   0  0  0  0  0  0  0  0  0  0  0  0
  186.2990  178.4900  137.1400 F   0  0  0  0  0  0  0  0  0  0  0  0
  191.6570  177.8200  142.6370 C   0  0  0  0  0  1  0  0  0  0  0  0
  192.0930  177.3350  141.2670 C   0  0  0  0  0  2  0  0  0  0  0  0
  187.9800  177.2350  140.8710 N   0  0  0  0  0  2  0  0  0  0  0  0
  187.9450  177.9920  142.1100 C   0  0  0  0  0  2  0  0  0  0  0  0
  187.7300  177.0450  143.2730 C   0  0  0  0  0  2  0  0  0  0  0  0
  188.5690  177.4790  144.4770 C   0  0  0  0  0  2  0  0  0  0  0  0
  188.1830  177.3230  146.7370 O   0  0  0  0  0  1  0  0  0  0  0  0
  187.7690  177.9570  145.6120 N   0  0  0  0  0  0  0  0  0  0  0  0
  185.4920  178.4540  146.3160 C   0  0  0  0  0  1  0  0  0  0  0  0
  186.3670  177.6150  145.4050 C   0  0  0  0  0  2  0  0  0  0  0  0
  1  5  1  0  0  0  0
  1  8  2  0  0  0  0
  2  9  1  0  0  0  0
  2 22  1  1  0  0  0
  3 14  1  6  0  0  0
  3  2  1  0  0  0  0
  4 11  1  6  0  0  0
  4  3  1  0  0  0  0
  5 11  1  0  0  0  0
  6  4  1  0  0  0  0
  6 12  2  0  0  0  0
  7 21  1  1  0  0  0
  8  6  1  0  0  0  0
  9  7  1  0  0  0  0
 10  5  2  0  0  0  0
 12  7  1  0  0  0  0
 13 14  1  0  0  0  0
 14 15  1  0  0  0  0
 16 19  1  0  0  0  0
 16 14  1  0  0  0  0
 17 16  1  0  0  0  0
 18 16  1  0  0  0  0
 21 20  1  0  0  0  0
 22 23  1  0  0  0  0
 23 24  1  0  0  0  0
 24 25  1  0  0  0  0
 25 27  1  0  0  0  0
 27 26  1  0  0  0  0
 29 27  1  0  0  0  0
 29 28  1  0  0  0  0
M  END
>  <MODEL>
5

>  <REMARK>
 VINA RESULT:      -5.0      1.720      2.848
  Name = 
  9 active torsions:
  status: ('A' for Active; 'I' for Inactive)
    1  A    between atoms: C_4  and  N_29
    2  A    between atoms: C_5  and  C_8
    3  A    between atoms: C_5  and  C_16
    4  A    between atoms: C_7  and  C_17
    5  A    between atoms: C_10  and  N_11
    6  A    between atoms: C_10  and  C_21
    7  A    between atoms: N_11  and  C_27
    8  A    between atoms: C_21  and  C_24
    9  A    between atoms: C_24  and  N_29
                            x       y       z     vdW  Elec       q    Type
                         _______ _______ _______ _____ _____    ______ ____

>  <TORSDO>
F 9

$$$$
=
 OpenBabel10222421073D

 29 30  0  0  1  0  0  0  0  0999 V2000
  192.7030  176.1810  138.0980 N   0  0  0  0  0  0  0  0  0  0  0  0
  188.7100  177.5790  141.3360 C   0  0  2  0  0  3  0  0  0  0  0  0
  189.1230  177.1510  139.9190 C   0  0  2  0  0  3  0  0  0  0  0  0
  190.4240  176.3140  139.9250 C   0  0  2  0  0  3  0  0  0  0  0  0
  191.6020  175.2840  137.9370 C   0  0  0  0  0  0  0  0  0  0  0  0
  191.7020  177.1050  140.0980 C   0  0  0  0  0  0  0  0  0  0  0  0
  191.0130  177.8760  142.3740 C   0  0  1  0  0  3  0  0  0  0  0  0
  192.7630  177.0260  139.0810 C   0  0  0  0  0  3  0  0  0  0  0  0
  189.6980  178.5510  141.9930 C   0  0  0  0  0  2  0  0  0  0  0  0
  191.6130  174.4350  137.0090 O   0  0  0  0  0  0  0  0  0  0  0  0
  190.4720  175.3730  138.8070 N   0  0  0  0  0  2  0  0  0  0  0  0
  191.9470  177.8090  141.2040 C   0  0  0  0  0  3  0  0  0  0  0  0
  190.2380  178.6100  138.3480 F   0  0  0  0  0  0  0  0  0  0  0  0
  189.0020  178.3180  138.9010 C   0  0  0  0  0  0  0  0  0  0  0  0
  188.5670  179.4430  139.5840 F   0  0  0  0  0  0  0  0  0  0  0  0
  187.9940  178.0440  137.7750 C   0  0  0  0  0  0  0  0  0  0  0  0
  188.5480  178.3380  136.5420 F   0  0  0  0  0  0  0  0  0  0  0  0
  187.6360  176.7070  137.7900 F   0  0  0  0  0  0  0  0  0  0  0  0
  186.8470  178.7910  137.9560 F   0  0  0  0  0  0  0  0  0  0  0  0
  191.5670  177.8810  144.8030 C   0  0  0  0  0  1  0  0  0  0  0  0
  191.6840  178.6450  143.4970 C   0  0  0  0  0  2  0  0  0  0  0  0
  188.4610  176.4170  142.1790 N   0  0  0  0  0  2  0  0  0  0  0  0
  187.4540  176.7950  143.1550 C   0  0  0  0  0  2  0  0  0  0  0  0
  187.9460  176.4510  144.5460 C   0  0  0  0  0  2  0  0  0  0  0  0
  187.9160  177.6890  145.4440 C   0  0  0  0  0  2  0  0  0  0  0  0
  186.5470  178.7110  146.9820 O   0  0  0  0  0  1  0  0  0  0  0  0
  187.1030  177.5190  146.6560 N   0  0  0  0  0  0  0  0  0  0  0  0
  189.1960  177.9850  147.8110 C   0  0  0  0  0  1  0  0  0  0  0  0
  187.9560  177.1140  147.7670 C   0  0  0  0  0  2  0  0  0  0  0  0
  1  8  2  0  0  0  0
  2  9  1  0  0  0  0
  2 22  1  1  0  0  0
  3 14  1  6  0  0  0
  3  4  1  0  0  0  0
  3  2  1  0  0  0  0
  4 11  1  6  0  0  0
  4  6  1  0  0  0  0
  5  1  1  0  0  0  0
  5 11  1  0  0  0  0
  6 12  2  0  0  0  0
  7 21  1  1  0  0  0
  8  6  1  0  0  0  0
  9  7  1  0  0  0  0
 10  5  2  0  0  0  0
 12  7  1  0  0  0  0
 13 14  1  0  0  0  0
 14 15  1  0  0  0  0
 16 18  1  0  0  0  0
 16 19  1  0  0  0  0
 16 14  1  0  0  0  0
 17 16  1  0  0  0  0
 21 20  1  0  0  0  0
 22 23  1  0  0  0  0
 23 24  1  0  0  0  0
 24 25  1  0  0  0  0
 25 27  1  0  0  0  0
 27 26  1  0  0  0  0
 27 29  1  0  0  0  0
 29 28  1  0  0  0  0
M  END
>  <MODEL>
6

>  <REMARK>
 VINA RESULT:      -5.0      2.646      4.491
  Name = 
  9 active torsions:
  status: ('A' for Active; 'I' for Inactive)
    1  A    between atoms: C_4  and  N_29
    2  A    between atoms: C_5  and  C_8
    3  A    between atoms: C_5  and  C_16
    4  A    between atoms: C_7  and  C_17
    5  A    between atoms: C_10  and  N_11
    6  A    between atoms: C_10  and  C_21
    7  A    between atoms: N_11  and  C_27
    8  A    between atoms: C_21  and  C_24
    9  A    between atoms: C_24  and  N_29
                            x       y       z     vdW  Elec       q    Type
                         _______ _______ _______ _____ _____    ______ ____

>  <TORSDO>
F 9

$$$$
=
 OpenBabel10222421073D

 29 30  0  0  1  0  0  0  0  0999 V2000
  179.4960  182.1010  138.1240 N   0  0  0  0  0  0  0  0  0  0  0  0
  182.8880  178.4890  140.0810 C   0  0  2  0  0  3  0  0  0  0  0  0
  182.4830  179.3450  138.8710 C   0  0  2  0  0  3  0  0  0  0  0  0
  181.7340  180.6300  139.2980 C   0  0  2  0  0  3  0  0  0  0  0  0
  180.8400  182.4610  137.7980 C   0  0  0  0  0  0  0  0  0  0  0  0
  180.2860  180.4360  139.6920 C   0  0  0  0  0  0  0  0  0  0  0  0
  180.9220  178.9780  141.6190 C   0  0  1  0  0  3  0  0  0  0  0  0
  179.2240  181.1720  138.9870 C   0  0  0  0  0  3  0  0  0  0  0  0
  181.6930  177.9090  140.8480 C   0  0  0  0  0  2  0  0  0  0  0  0
  181.0620  183.4130  137.0060 O   0  0  0  0  0  0  0  0  0  0  0  0
  181.9330  181.7190  138.3430 N   0  0  0  0  0  2  0  0  0  0  0  0
  179.9390  179.6820  140.7360 C   0  0  0  0  0  3  0  0  0  0  0  0
  181.3060  179.2940  136.7600 F   0  0  0  0  0  0  0  0  0  0  0  0
  181.8770  178.4850  137.7280 C   0  0  0  0  0  0  0  0  0  0  0  0
  180.8730  177.6950  138.2670 F   0  0  0  0  0  0  0  0  0  0  0  0
  182.8970  177.5450  137.0660 C   0  0  0  0  0  0  0  0  0  0  0  0
  184.1890  177.9310  137.3790 F   0  0  0  0  0  0  0  0  0  0  0  0
  182.7000  176.2540  137.5230 F   0  0  0  0  0  0  0  0  0  0  0  0
  182.7350  177.5400  135.6950 F   0  0  0  0  0  0  0  0  0  0  0  0
  179.6530  179.4100  143.7200 C   0  0  0  0  0  1  0  0  0  0  0  0
  180.1760  178.3410  142.7780 C   0  0  0  0  0  2  0  0  0  0  0  0
  183.7830  179.2270  140.9640 N   0  0  0  0  0  2  0  0  0  0  0  0
  184.4560  178.2570  141.8090 C   0  0  0  0  0  2  0  0  0  0  0  0
  184.3110  178.6670  143.2610 C   0  0  0  0  0  2  0  0  0  0  0  0
  185.4400  178.0660  144.1010 C   0  0  0  0  0  2  0  0  0  0  0  0
  184.5980  179.3730  145.7940 O   0  0  0  0  0  1  0  0  0  0  0  0
  185.2320  178.2000  145.5490 N   0  0  0  0  0  0  0  0  0  0  0  0
  187.6280  177.8770  145.2620 C   0  0  0  0  0  1  0  0  0  0  0  0
  186.5210  178.2480  146.2290 C   0  0  0  0  0  2  0  0  0  0  0  0
  1  8  2  0  0  0  0
  2  9  1  0  0  0  0
  2 22  1  1  0  0  0
  3 14  1  6  0  0  0
  3  4  1  0  0  0  0
  3  2  1  0  0  0  0
  4 11  1  6  0  0  0
  4  6  1  0  0  0  0
  5  1  1  0  0  0  0
  5 11  1  0  0  0  0
  6 12  2  0  0  0  0
  7 21  1  1  0  0  0
  8  6  1  0  0  0  0
  9  7  1  0  0  0  0
 10  5  2  0  0  0  0
 12  7  1  0  0  0  0
 13 14  1  0  0  0  0
 14 15  1  0  0  0  0
 16 17  1  0  0  0  0
 16 18  1  0  0  0  0
 16 14  1  0  0  0  0
 19 16  1  0  0  0  0
 21 20  1  0  0  0  0
 22 23  1  0  0  0  0
 23 24  1  0  0  0  0
 24 25  1  0  0  0  0
 25 27  1  0  0  0  0
 27 26  1  0  0  0  0
 27 29  1  0  0  0  0
 28 29  1  0  0  0  0
M  END
>  <MODEL>
7

>  <REMARK>
 VINA RESULT:      -4.9      6.424      8.727
  Name = 
  9 active torsions:
  status: ('A' for Active; 'I' for Inactive)
    1  A    between atoms: C_4  and  N_29
    2  A    between atoms: C_5  and  C_8
    3  A    between atoms: C_5  and  C_16
    4  A    between atoms: C_7  and  C_17
    5  A    between atoms: C_10  and  N_11
    6  A    between atoms: C_10  and  C_21
    7  A    between atoms: N_11  and  C_27
    8  A    between atoms: C_21  and  C_24
    9  A    between atoms: C_24  and  N_29
                            x       y       z     vdW  Elec       q    Type
                         _______ _______ _______ _____ _____    ______ ____

>  <TORSDO>
F 9

$$$$
=
 OpenBabel10222421073D

 29 30  0  0  1  0  0  0  0  0999 V2000
  189.3460  176.9310  147.7620 N   0  0  0  0  0  0  0  0  0  0  0  0
  188.7940  177.7650  142.5300 C   0  0  2  0  0  3  0  0  0  0  0  0
  189.7660  177.6330  143.7130 C   0  0  2  0  0  3  0  0  0  0  0  0
  189.1790  176.7620  144.8480 C   0  0  2  0  0  3  0  0  0  0  0  0
  190.2840  176.1350  147.0360 C   0  0  0  0  0  0  0  0  0  0  0  0
  188.1500  177.4450  145.7220 C   0  0  0  0  0  0  0  0  0  0  0  0
  186.5870  177.7380  143.7940 C   0  0  1  0  0  3  0  0  0  0  0  0
  188.3630  177.5420  147.1760 C   0  0  0  0  0  3  0  0  0  0  0  0
  187.5110  178.5320  142.8750 C   0  0  0  0  0  2  0  0  0  0  0  0
  191.1830  175.5040  147.6500 O   0  0  0  0  0  0  0  0  0  0  0  0
  190.2250  176.0810  145.6090 N   0  0  0  0  0  2  0  0  0  0  0  0
  186.9910  177.8850  145.2290 C   0  0  0  0  0  3  0  0  0  0  0  0
  189.8980  179.4640  145.2850 F   0  0  0  0  0  0  0  0  0  0  0  0
  190.4120  178.9950  144.0880 C   0  0  0  0  0  0  0  0  0  0  0  0
  190.0890  179.9130  143.1000 F   0  0  0  0  0  0  0  0  0  0  0  0
  191.9440  178.9390  144.1800 C   0  0  0  0  0  0  0  0  0  0  0  0
  192.4600  180.1860  144.4860 F   0  0  0  0  0  0  0  0  0  0  0  0
  192.3150  178.0520  145.1760 F   0  0  0  0  0  0  0  0  0  0  0  0
  192.4870  178.4940  142.9910 F   0  0  0  0  0  0  0  0  0  0  0  0
  184.6570  178.8330  144.9280 C   0  0  0  0  0  1  0  0  0  0  0  0
  185.1570  178.2210  143.6330 C   0  0  0  0  0  2  0  0  0  0  0  0
  188.4980  176.4600  141.9520 N   0  0  0  0  0  2  0  0  0  0  0  0
  189.3960  176.2690  140.8270 C   0  0  0  0  0  2  0  0  0  0  0  0
  189.9480  177.6100  140.3890 C   0  0  0  0  0  2  0  0  0  0  0  0
  189.8280  177.7680  138.8720 C   0  0  0  0  0  2  0  0  0  0  0  0
  187.7330  178.7040  138.9900 O   0  0  0  0  0  1  0  0  0  0  0  0
  188.9670  178.8850  138.4610 N   0  0  0  0  0  0  0  0  0  0  0  0
  187.3750  178.6710  136.6320 C   0  0  0  0  0  1  0  0  0  0  0  0
  188.8270  178.8910  137.0100 C   0  0  0  0  0  2  0  0  0  0  0  0
  2 22  1  1  0  0  0
  2  9  1  0  0  0  0
  2  3  1  0  0  0  0
  3 14  1  1  0  0  0
  3  4  1  0  0  0  0
  4 11  1  1  0  0  0
  4  6  1  0  0  0  0
  5 10  2  0  0  0  0
  5  1  1  0  0  0  0
  6  8  1  0  0  0  0
  7 21  1  1  0  0  0
  7 12  1  0  0  0  0
  8  1  2  0  0  0  0
  9  7  1  0  0  0  0
 11  5  1  0  0  0  0
 12  6  2  0  0  0  0
 14 16  1  0  0  0  0
 14 13  1  0  0  0  0
 15 14  1  0  0  0  0
 16 17  1  0  0  0  0
 16 18  1  0  0  0  0
 19 16  1  0  0  0  0
 21 20  1  0  0  0  0
 23 22  1  0  0  0  0
 24 23  1  0  0  0  0
 25 24  1  0  0  0  0
 27 25  1  0  0  0  0
 27 26  1  0  0  0  0
 28 29  1  0  0  0  0
 29 27  1  0  0  0  0
M  END
>  <MODEL>
8

>  <REMARK>
 VINA RESULT:      -4.9      4.329      8.716
  Name = 
  9 active torsions:
  status: ('A' for Active; 'I' for Inactive)
    1  A    between atoms: C_4  and  N_29
    2  A    between atoms: C_5  and  C_8
    3  A    between atoms: C_5  and  C_16
    4  A    between atoms: C_7  and  C_17
    5  A    between atoms: C_10  and  N_11
    6  A    between atoms: C_10  and  C_21
    7  A    between atoms: N_11  and  C_27
    8  A    between atoms: C_21  and  C_24
    9  A    between atoms: C_24  and  N_29
                            x       y       z     vdW  Elec       q    Type
                         _______ _______ _______ _____ _____    ______ ____

>  <TORSDO>
F 9

$$$$
=
 OpenBabel10222421073D

 29 30  0  0  1  0  0  0  0  0999 V2000
  185.5720  178.5700  139.0490 N   0  0  0  0  0  0  0  0  0  0  0  0
  180.5320  178.6340  140.7750 C   0  0  2  0  0  3  0  0  0  0  0  0
  181.4760  178.7350  139.5670 C   0  0  2  0  0  3  0  0  0  0  0  0
  182.8090  177.9900  139.8110 C   0  0  2  0  0  3  0  0  0  0  0  0
  184.7540  177.7490  138.2120 C   0  0  0  0  0  0  0  0  0  0  0  0
  183.8030  178.7130  140.6940 C   0  0  0  0  0  0  0  0  0  0  0  0
  182.2510  178.6280  142.6510 C   0  0  1  0  0  3  0  0  0  0  0  0
  185.1500  179.0250  140.1890 C   0  0  0  0  0  3  0  0  0  0  0  0
  181.0600  179.3500  142.0250 C   0  0  0  0  0  2  0  0  0  0  0  0
  185.2240  177.2740  137.1460 O   0  0  0  0  0  0  0  0  0  0  0  0
  183.3940  177.4950  138.5660 N   0  0  0  0  0  2  0  0  0  0  0  0
  183.5320  178.9990  141.9680 C   0  0  0  0  0  3  0  0  0  0  0  0
  182.8400  180.6340  138.9520 F   0  0  0  0  0  0  0  0  0  0  0  0
  181.5320  180.1780  138.9930 C   0  0  0  0  0  0  0  0  0  0  0  0
  180.8210  181.0090  139.8440 F   0  0  0  0  0  0  0  0  0  0  0  0
  180.9060  180.3040  137.5960 C   0  0  0  0  0  0  0  0  0  0  0  0
  181.5650  179.4900  136.6920 F   0  0  0  0  0  0  0  0  0  0  0  0
  179.5780  179.9190  137.6490 F   0  0  0  0  0  0  0  0  0  0  0  0
  180.9520  181.6120  137.1580 F   0  0  0  0  0  0  0  0  0  0  0  0
  183.8080  179.0030  144.5590 C   0  0  0  0  0  1  0  0  0  0  0  0
  182.3560  178.9830  144.1230 C   0  0  0  0  0  2  0  0  0  0  0  0
  180.1950  177.2450  141.0580 N   0  0  0  0  0  2  0  0  0  0  0  0
  178.9390  176.9580  140.3870 C   0  0  0  0  0  2  0  0  0  0  0  0
  178.9390  175.5190  139.9130 C   0  0  0  0  0  2  0  0  0  0  0  0
  180.3530  175.0850  139.5210 C   0  0  0  0  0  2  0  0  0  0  0  0
  181.7200  174.4660  137.7810 O   0  0  0  0  0  1  0  0  0  0  0  0
  180.4310  174.4520  138.1980 N   0  0  0  0  0  0  0  0  0  0  0  0
  180.4870  176.3590  136.6870 C   0  0  0  0  0  1  0  0  0  0  0  0
  179.6500  175.2210  137.2370 C   0  0  0  0  0  2  0  0  0  0  0  0
  1  8  2  0  0  0  0
  2 22  1  1  0  0  0
  2  9  1  0  0  0  0
  3 14  1  1  0  0  0
  3  4  1  0  0  0  0
  3  2  1  0  0  0  0
  4 11  1  6  0  0  0
  4  6  1  0  0  0  0
  5 11  1  0  0  0  0
  5  1  1  0  0  0  0
  6 12  2  0  0  0  0
  7 21  1  1  0  0  0
  8  6  1  0  0  0  0
  9  7  1  0  0  0  0
 10  5  2  0  0  0  0
 12  7  1  0  0  0  0
 13 14  1  0  0  0  0
 14 15  1  0  0  0  0
 16 18  1  0  0  0  0
 16 14  1  0  0  0  0
 17 16  1  0  0  0  0
 19 16  1  0  0  0  0
 21 20  1  0  0  0  0
 23 22  1  0  0  0  0
 24 23  1  0  0  0  0
 25 24  1  0  0  0  0
 26 27  1  0  0  0  0
 27 25  1  0  0  0  0
 28 29  1  0  0  0  0
 29 27  1  0  0  0  0
M  END
>  <MODEL>
9

>  <REMARK>
 VINA RESULT:      -4.8      6.037      9.099
  Name = 
  9 active torsions:
  status: ('A' for Active; 'I' for Inactive)
    1  A    between atoms: C_4  and  N_29
    2  A    between atoms: C_5  and  C_8
    3  A    between atoms: C_5  and  C_16
    4  A    between atoms: C_7  and  C_17
    5  A    between atoms: C_10  and  N_11
    6  A    between atoms: C_10  and  C_21
    7  A    between atoms: N_11  and  C_27
    8  A    between atoms: C_21  and  C_24
    9  A    between atoms: C_24  and  N_29
                            x       y       z     vdW  Elec       q    Type
                         _______ _______ _______ _____ _____    ______ ____

>  <TORSDO>
F 9

$$$$
