=
 OpenBabel10222418233D

 34 38  0  0  1  0  0  0  0  0999 V2000
  188.3770  178.3280  143.2120 O   0  0  0  0  0  0  0  0  0  0  0  0
  190.1360  177.6670  139.5570 C   0  0  2  0  0  3  0  0  0  0  0  0
  188.5230  177.7230  141.9500 C   0  0  2  0  0  3  0  0  0  0  0  0
  189.9080  176.7620  144.2280 C   0  0  0  0  0  2  0  0  0  0  0  0
  190.0750  176.6250  140.5000 O   0  0  0  0  0  0  0  0  0  0  0  0
  186.6830  178.6330  140.6420 N   0  0  0  0  0  1  0  0  0  0  0  0
  188.8490  178.4620  139.5490 C   0  0  0  0  0  0  0  0  0  0  0  0
  188.4690  177.2970  144.1650 C   0  0  1  0  0  3  0  0  0  0  0  0
  190.3040  176.2200  142.8570 C   0  0  2  0  0  3  0  0  0  0  0  0
  188.4730  179.0100  138.5240 O   0  0  0  0  0  0  0  0  0  0  0  0
  191.7880  175.9110  142.8480 C   0  0  0  0  0  1  0  0  0  0  0  0
  189.9690  177.2320  141.7610 C   0  0  2  0  0  3  0  0  0  0  0  0
  188.1200  178.7110  140.8490 C   0  0  2  0  0  3  0  0  0  0  0  0
  188.7340  177.1620  146.6790 C   0  0  0  0  0  1  0  0  0  0  0  0
  187.9660  177.7910  145.5230 C   0  0  2  0  0  3  0  0  0  0  0  0
  186.4720  177.5470  145.6660 C   0  0  0  0  0  2  0  0  0  0  0  0
  185.7670  178.8160  146.1120 C   0  0  0  0  0  2  0  0  0  0  0  0
  182.7430  178.9820  144.2820 C   0  0  0  0  0  2  0  0  0  0  0  0
  184.8190  179.2960  145.0290 C   0  0  1  0  0  3  0  0  0  0  0  0
  183.6060  178.2500  143.2820 C   0  0  2  0  0  3  0  0  0  0  0  0
  185.0020  178.4580  143.7860 C   0  0  0  0  0  2  0  0  0  0  0  0
  183.4480  178.8810  141.9140 C   0  0  0  0  0  1  0  0  0  0  0  0
  183.4880  179.1680  145.4560 O   0  0  0  0  0  0  0  0  0  0  0  0
  190.3940  177.1280  138.2650 O   0  0  0  0  0  0  0  0  0  0  0  0
  194.4130  173.5340  137.5180 N   0  0  0  0  0  0  0  0  0  0  0  0
  193.5910  175.4100  138.2100 C   0  0  0  0  0  0  0  0  0  0  0  0
  191.3800  176.1640  138.0420 C   0  0  0  0  0  0  0  0  0  0  0  0
  192.6730  176.3770  138.4480 N   0  0  0  0  0  0  0  0  0  0  0  0
  195.3740  174.2570  138.0870 N   0  0  0  0  0  0  0  0  0  0  0  0
  194.5970  172.2150  136.9380 C   0  0  0  0  0  1  0  0  0  0  0  0
  194.8990  175.4240  138.5260 N   0  0  0  0  0  0  0  0  0  0  0  0
  193.2840  174.2490  137.5870 C   0  0  0  0  0  0  0  0  0  0  0  0
  191.9960  173.9660  137.1480 C   0  0  0  0  0  3  0  0  0  0  0  0
  191.0250  174.9580  137.3870 C   0  0  0  0  0  3  0  0  0  0  0  0
  1  8  1  0  0  0  0
  2 24  1  6  0  0  0
  2  5  1  0  0  0  0
  3  1  1  1  0  0  0
  7  2  1  0  0  0  0
  7 13  1  0  0  0  0
  8  4  1  0  0  0  0
  8 15  1  1  0  0  0
  9 11  1  1  0  0  0
  9  4  1  0  0  0  0
 10  7  2  0  0  0  0
 12  5  1  6  0  0  0
 12  3  1  0  0  0  0
 12  9  1  0  0  0  0
 13  6  1  6  0  0  0
 13  3  1  0  0  0  0
 15 16  1  0  0  0  0
 15 14  1  1  0  0  0
 16 17  1  0  0  0  0
 18 23  1  0  0  0  0
 19 23  1  0  0  0  0
 19 17  1  1  0  0  0
 20 22  1  6  0  0  0
 20 21  1  0  0  0  0
 20 18  1  0  0  0  0
 21 19  1  0  0  0  0
 25 32  1  0  0  0  0
 25 29  1  0  0  0  0
 26 28  1  0  0  0  0
 26 31  1  0  0  0  0
 27 24  1  0  0  0  0
 27 28  2  0  0  0  0
 29 31  2  0  0  0  0
 30 25  1  0  0  0  0
 32 26  2  0  0  0  0
 33 34  2  0  0  0  0
 33 32  1  0  0  0  0
 34 27  1  0  0  0  0
M  END
>  <MODEL>
1

>  <REMARK>
 VINA RESULT:      -9.4      0.000      0.000
  Name = 
  6 active torsions:
  status: ('A' for Active; 'I' for Inactive)
    1  A    between atoms: C_3  and  C_13
    2  A    between atoms: C_3  and  C_14
    3  A    between atoms: C_6  and  O_21
    4  A    between atoms: C_7  and  O_21
    5  A    between atoms: C_8  and  C_13
    6  A    between atoms: C_8  and  C_27
                            x       y       z     vdW  Elec       q    Type
                         _______ _______ _______ _____ _____    ______ ____

>  <TORSDO>
F 6

$$$$
=
 OpenBabel10222418233D

 34 38  0  0  1  0  0  0  0  0999 V2000
  186.3270  177.7860  143.0810 O   0  0  0  0  0  0  0  0  0  0  0  0
  188.9970  177.4270  139.9790 C   0  0  2  0  0  3  0  0  0  0  0  0
  187.3800  178.1940  142.2430 C   0  0  2  0  0  3  0  0  0  0  0  0
  184.6700  178.6480  141.5510 C   0  0  0  0  0  2  0  0  0  0  0  0
  188.0440  178.4610  139.9610 O   0  0  0  0  0  0  0  0  0  0  0  0
  189.3550  178.0380  143.6570 N   0  0  0  0  0  1  0  0  0  0  0  0
  189.5550  177.2320  141.3710 C   0  0  0  0  0  0  0  0  0  0  0  0
  185.3080  178.7480  142.9450 C   0  0  1  0  0  3  0  0  0  0  0  0
  185.7390  178.8890  140.4880 C   0  0  2  0  0  3  0  0  0  0  0  0
  190.6950  176.8220  141.5230 O   0  0  0  0  0  0  0  0  0  0  0  0
  185.1730  178.5600  139.1210 C   0  0  0  0  0  1  0  0  0  0  0  0
  186.9770  178.0350  140.7670 C   0  0  2  0  0  3  0  0  0  0  0  0
  188.6450  177.3900  142.5670 C   0  0  2  0  0  3  0  0  0  0  0  0
  182.8860  179.0070  143.6330 C   0  0  0  0  0  1  0  0  0  0  0  0
  184.2850  178.5930  144.0720 C   0  0  2  0  0  3  0  0  0  0  0  0
  184.7200  179.3710  145.3050 C   0  0  0  0  0  2  0  0  0  0  0  0
  185.1130  178.4190  146.4210 C   0  0  0  0  0  2  0  0  0  0  0  0
  188.2890  176.9180  146.8500 C   0  0  0  0  0  2  0  0  0  0  0  0
  186.6240  178.3700  146.5580 C   0  0  1  0  0  3  0  0  0  0  0  0
  188.1300  177.5710  148.2040 C   0  0  2  0  0  3  0  0  0  0  0  0
  187.0080  178.5450  148.0080 C   0  0  0  0  0  2  0  0  0  0  0  0
  189.4020  178.3090  148.5660 C   0  0  0  0  0  1  0  0  0  0  0  0
  187.1120  177.1300  146.1170 O   0  0  0  0  0  0  0  0  0  0  0  0
  190.0440  177.7270  139.0620 O   0  0  0  0  0  0  0  0  0  0  0  0
  193.2910  173.9840  136.8110 N   0  0  0  0  0  0  0  0  0  0  0  0
  192.8980  175.8090  137.8990 C   0  0  0  0  0  0  0  0  0  0  0  0
  190.8200  176.7320  138.4640 C   0  0  0  0  0  0  0  0  0  0  0  0
  192.1900  176.8000  138.4930 N   0  0  0  0  0  0  0  0  0  0  0  0
  194.4440  174.5580  137.1450 N   0  0  0  0  0  0  0  0  0  0  0  0
  193.1660  172.7390  136.0710 C   0  0  0  0  0  1  0  0  0  0  0  0
  194.2360  175.6900  137.8190 N   0  0  0  0  0  0  0  0  0  0  0  0
  192.3090  174.7610  137.2800 C   0  0  0  0  0  0  0  0  0  0  0  0
  190.9270  174.6280  137.2100 C   0  0  0  0  0  3  0  0  0  0  0  0
  190.1720  175.6470  137.8220 C   0  0  0  0  0  3  0  0  0  0  0  0
  2 24  1  6  0  0  0
  2  7  1  0  0  0  0
  3 13  1  0  0  0  0
  3  1  1  1  0  0  0
  4  8  1  0  0  0  0
  5  2  1  0  0  0  0
  7 10  2  0  0  0  0
  7 13  1  0  0  0  0
  8  1  1  0  0  0  0
  8 15  1  1  0  0  0
  9 11  1  6  0  0  0
  9 12  1  0  0  0  0
  9  4  1  0  0  0  0
 12  5  1  6  0  0  0
 12  3  1  0  0  0  0
 13  6  1  1  0  0  0
 15 14  1  6  0  0  0
 15 16  1  0  0  0  0
 16 17  1  0  0  0  0
 18 20  1  0  0  0  0
 19 17  1  1  0  0  0
 19 21  1  0  0  0  0
 20 22  1  6  0  0  0
 21 20  1  0  0  0  0
 23 19  1  0  0  0  0
 23 18  1  0  0  0  0
 25 29  1  0  0  0  0
 25 32  1  0  0  0  0
 26 28  1  0  0  0  0
 27 28  2  0  0  0  0
 27 24  1  0  0  0  0
 29 31  2  0  0  0  0
 30 25  1  0  0  0  0
 31 26  1  0  0  0  0
 32 26  2  0  0  0  0
 33 32  1  0  0  0  0
 33 34  2  0  0  0  0
 34 27  1  0  0  0  0
M  END
>  <MODEL>
2

>  <REMARK>
 VINA RESULT:      -8.9      1.632      3.911
  Name = 
  6 active torsions:
  status: ('A' for Active; 'I' for Inactive)
    1  A    between atoms: C_3  and  C_13
    2  A    between atoms: C_3  and  C_14
    3  A    between atoms: C_6  and  O_21
    4  A    between atoms: C_7  and  O_21
    5  A    between atoms: C_8  and  C_13
    6  A    between atoms: C_8  and  C_27
                            x       y       z     vdW  Elec       q    Type
                         _______ _______ _______ _____ _____    ______ ____

>  <TORSDO>
F 6

$$$$
=
 OpenBabel10222418233D

 34 38  0  0  1  0  0  0  0  0999 V2000
  183.2110  179.3270  142.1350 O   0  0  0  0  0  0  0  0  0  0  0  0
  187.2340  178.4950  142.2340 C   0  0  2  0  0  3  0  0  0  0  0  0
  184.3550  178.5170  142.0220 C   0  0  2  0  0  3  0  0  0  0  0  0
  183.0760  178.9430  144.5150 C   0  0  0  0  0  2  0  0  0  0  0  0
  186.3650  177.8440  143.1290 O   0  0  0  0  0  0  0  0  0  0  0  0
  184.5670  178.1220  139.6290 N   0  0  0  0  0  1  0  0  0  0  0  0
  186.6060  178.6110  140.8630 C   0  0  0  0  0  0  0  0  0  0  0  0
  182.4110  178.7550  143.1420 C   0  0  1  0  0  3  0  0  0  0  0  0
  184.4430  178.2650  144.5080 C   0  0  2  0  0  3  0  0  0  0  0  0
  187.3100  178.6250  139.8650 O   0  0  0  0  0  0  0  0  0  0  0  0
  185.1990  178.6440  145.7670 C   0  0  0  0  0  1  0  0  0  0  0  0
  185.2420  178.6730  143.2700 C   0  0  2  0  0  3  0  0  0  0  0  0
  185.1220  178.8740  140.7440 C   0  0  2  0  0  3  0  0  0  0  0  0
  180.0690  178.6850  144.0990 C   0  0  0  0  0  1  0  0  0  0  0  0
  180.9990  179.3430  143.0880 C   0  0  2  0  0  3  0  0  0  0  0  0
  180.4290  179.2480  141.6810 C   0  0  0  0  0  2  0  0  0  0  0  0
  179.1880  178.3740  141.6700 C   0  0  0  0  0  2  0  0  0  0  0  0
  179.7270  175.1390  140.3410 C   0  0  0  0  0  2  0  0  0  0  0  0
  179.3060  177.3120  140.5910 C   0  0  1  0  0  3  0  0  0  0  0  0
  181.0050  175.8120  139.8980 C   0  0  2  0  0  3  0  0  0  0  0  0
  180.7230  177.2740  140.0690 C   0  0  0  0  0  2  0  0  0  0  0  0
  181.2650  175.5020  138.4380 C   0  0  0  0  0  1  0  0  0  0  0  0
  178.9940  176.0490  141.1170 O   0  0  0  0  0  0  0  0  0  0  0  0
  188.4630  177.7810  142.1580 O   0  0  0  0  0  0  0  0  0  0  0  0
  191.1300  176.5470  146.7390 N   0  0  0  0  0  0  0  0  0  0  0  0
  189.5350  177.4740  145.6120 C   0  0  0  0  0  0  0  0  0  0  0  0
  189.1940  177.4290  143.2950 C   0  0  0  0  0  0  0  0  0  0  0  0
  188.7930  177.8410  144.5400 N   0  0  0  0  0  0  0  0  0  0  0  0
  190.3110  177.1860  147.5710 N   0  0  0  0  0  0  0  0  0  0  0  0
  192.3150  175.8090  147.1420 C   0  0  0  0  0  1  0  0  0  0  0  0
  189.3140  177.7700  146.9050 N   0  0  0  0  0  0  0  0  0  0  0  0
  190.6530  176.7200  145.5010 C   0  0  0  0  0  0  0  0  0  0  0  0
  191.1190  176.2690  144.2720 C   0  0  0  0  0  3  0  0  0  0  0  0
  190.3620  176.6390  143.1450 C   0  0  0  0  0  3  0  0  0  0  0  0
  1  8  1  0  0  0  0
  2 24  1  6  0  0  0
  2  5  1  0  0  0  0
  3  1  1  1  0  0  0
  3 12  1  0  0  0  0
  7  2  1  0  0  0  0
  8 15  1  1  0  0  0
  8  4  1  0  0  0  0
  9  4  1  0  0  0  0
  9 11  1  1  0  0  0
 10  7  2  0  0  0  0
 12  5  1  6  0  0  0
 12  9  1  0  0  0  0
 13  6  1  6  0  0  0
 13  7  1  0  0  0  0
 13  3  1  0  0  0  0
 15 14  1  1  0  0  0
 16 15  1  0  0  0  0
 17 16  1  0  0  0  0
 18 23  1  0  0  0  0
 19 23  1  0  0  0  0
 19 17  1  1  0  0  0
 20 22  1  6  0  0  0
 20 21  1  0  0  0  0
 20 18  1  0  0  0  0
 21 19  1  0  0  0  0
 24 27  1  0  0  0  0
 25 30  1  0  0  0  0
 25 29  1  0  0  0  0
 26 31  1  0  0  0  0
 27 28  2  0  0  0  0
 28 26  1  0  0  0  0
 31 29  2  0  0  0  0
 32 26  2  0  0  0  0
 32 25  1  0  0  0  0
 33 32  1  0  0  0  0
 34 27  1  0  0  0  0
 34 33  2  0  0  0  0
M  END
>  <MODEL>
3

>  <REMARK>
 VINA RESULT:      -8.9      4.492      6.917
  Name = 
  6 active torsions:
  status: ('A' for Active; 'I' for Inactive)
    1  A    between atoms: C_3  and  C_13
    2  A    between atoms: C_3  and  C_14
    3  A    between atoms: C_6  and  O_21
    4  A    between atoms: C_7  and  O_21
    5  A    between atoms: C_8  and  C_13
    6  A    between atoms: C_8  and  C_27
                            x       y       z     vdW  Elec       q    Type
                         _______ _______ _______ _____ _____    ______ ____

>  <TORSDO>
F 6

$$$$
=
 OpenBabel10222418233D

 34 38  0  0  1  0  0  0  0  0999 V2000
  186.8500  177.6800  144.0020 O   0  0  0  0  0  0  0  0  0  0  0  0
  185.0610  178.9910  140.5420 C   0  0  2  0  0  3  0  0  0  0  0  0
  186.5580  178.6010  142.9790 C   0  0  2  0  0  3  0  0  0  0  0  0
  184.8930  178.3330  145.2570 C   0  0  0  0  0  2  0  0  0  0  0  0
  184.7820  179.6380  141.7600 O   0  0  0  0  0  0  0  0  0  0  0  0
  188.6180  178.7220  141.6880 N   0  0  0  0  0  1  0  0  0  0  0  0
  186.5280  178.6340  140.4460 C   0  0  0  0  0  0  0  0  0  0  0  0
  186.4270  178.2710  145.2080 C   0  0  1  0  0  3  0  0  0  0  0  0
  184.3840  179.1630  144.0810 C   0  0  2  0  0  3  0  0  0  0  0  0
  187.0770  178.5820  139.3570 O   0  0  0  0  0  0  0  0  0  0  0  0
  182.8760  179.0330  143.9880 C   0  0  0  0  0  1  0  0  0  0  0  0
  185.0360  178.7040  142.7760 C   0  0  2  0  0  3  0  0  0  0  0  0
  187.2670  178.1840  141.6850 C   0  0  2  0  0  3  0  0  0  0  0  0
  187.1910  178.4170  147.6160 C   0  0  0  0  0  1  0  0  0  0  0  0
  187.0230  177.5170  146.3980 C   0  0  2  0  0  3  0  0  0  0  0  0
  188.3430  176.8650  146.0180 C   0  0  0  0  0  2  0  0  0  0  0  0
  189.3920  177.9230  145.7220 C   0  0  0  0  0  2  0  0  0  0  0  0
  192.0580  175.6020  145.8840 C   0  0  0  0  0  2  0  0  0  0  0  0
  190.7720  177.4100  146.0910 C   0  0  1  0  0  3  0  0  0  0  0  0
  191.5950  175.5580  147.3210 C   0  0  2  0  0  3  0  0  0  0  0  0
  190.7270  176.7720  147.4600 C   0  0  0  0  0  2  0  0  0  0  0  0
  192.7900  175.6670  148.2450 C   0  0  0  0  0  1  0  0  0  0  0  0
  191.1940  176.4420  145.1660 O   0  0  0  0  0  0  0  0  0  0  0  0
  184.6830  179.8310  139.4570 O   0  0  0  0  0  0  0  0  0  0  0  0
  179.8120  179.6130  137.0380 N   0  0  0  0  0  0  0  0  0  0  0  0
  181.3530  180.5690  138.2150 C   0  0  0  0  0  0  0  0  0  0  0  0
  183.4490  179.7110  138.8140 C   0  0  0  0  0  0  0  0  0  0  0  0
  182.5360  180.7340  138.8550 N   0  0  0  0  0  0  0  0  0  0  0  0
  179.4040  180.8250  137.4050 N   0  0  0  0  0  0  0  0  0  0  0  0
  179.0370  178.6810  136.2380 C   0  0  0  0  0  1  0  0  0  0  0  0
  180.3340  181.4430  138.1350 N   0  0  0  0  0  0  0  0  0  0  0  0
  181.0390  179.4380  137.5420 C   0  0  0  0  0  0  0  0  0  0  0  0
  181.9140  178.3620  137.4600 C   0  0  0  0  0  3  0  0  0  0  0  0
  183.1500  178.5130  138.1180 C   0  0  0  0  0  3  0  0  0  0  0  0
  1  8  1  0  0  0  0
  2 24  1  6  0  0  0
  2  5  1  0  0  0  0
  3  1  1  1  0  0  0
  7  2  1  0  0  0  0
  7 13  1  0  0  0  0
  8  4  1  0  0  0  0
  8 15  1  1  0  0  0
  9 11  1  6  0  0  0
  9  4  1  0  0  0  0
 10  7  2  0  0  0  0
 12  5  1  6  0  0  0
 12  3  1  0  0  0  0
 12  9  1  0  0  0  0
 13  6  1  1  0  0  0
 13  3  1  0  0  0  0
 15 14  1  1  0  0  0
 16 15  1  0  0  0  0
 17 16  1  0  0  0  0
 18 20  1  0  0  0  0
 19 17  1  6  0  0  0
 19 21  1  0  0  0  0
 20 21  1  0  0  0  0
 20 22  1  1  0  0  0
 23 18  1  0  0  0  0
 23 19  1  0  0  0  0
 25 29  1  0  0  0  0
 25 32  1  0  0  0  0
 26 28  1  0  0  0  0
 27 28  2  0  0  0  0
 27 24  1  0  0  0  0
 29 31  2  0  0  0  0
 30 25  1  0  0  0  0
 31 26  1  0  0  0  0
 32 26  2  0  0  0  0
 33 32  1  0  0  0  0
 33 34  2  0  0  0  0
 34 27  1  0  0  0  0
M  END
>  <MODEL>
4

>  <REMARK>
 VINA RESULT:      -8.8      4.664      8.857
  Name = 
  6 active torsions:
  status: ('A' for Active; 'I' for Inactive)
    1  A    between atoms: C_3  and  C_13
    2  A    between atoms: C_3  and  C_14
    3  A    between atoms: C_6  and  O_21
    4  A    between atoms: C_7  and  O_21
    5  A    between atoms: C_8  and  C_13
    6  A    between atoms: C_8  and  C_27
                            x       y       z     vdW  Elec       q    Type
                         _______ _______ _______ _____ _____    ______ ____

>  <TORSDO>
F 6

$$$$
=
 OpenBabel10222418233D

 34 38  0  0  1  0  0  0  0  0999 V2000
  187.6690  178.0830  142.4950 O   0  0  0  0  0  0  0  0  0  0  0  0
  190.1820  177.7880  139.2570 C   0  0  2  0  0  3  0  0  0  0  0  0
  188.1110  177.5830  141.2570 C   0  0  2  0  0  3  0  0  0  0  0  0
  189.0580  176.5260  143.7110 C   0  0  0  0  0  2  0  0  0  0  0  0
  189.9970  176.6760  140.0990 O   0  0  0  0  0  0  0  0  0  0  0  0
  186.5240  178.4920  139.6520 N   0  0  0  0  0  1  0  0  0  0  0  0
  188.8760  178.5150  139.0290 C   0  0  0  0  0  0  0  0  0  0  0  0
  187.6300  176.9900  143.3810 C   0  0  1  0  0  3  0  0  0  0  0  0
  189.7620  176.1090  142.4220 C   0  0  2  0  0  3  0  0  0  0  0  0
  188.6830  179.1170  137.9850 O   0  0  0  0  0  0  0  0  0  0  0  0
  191.2340  175.8770  142.7060 C   0  0  0  0  0  1  0  0  0  0  0  0
  189.5940  177.1820  141.3450 C   0  0  2  0  0  3  0  0  0  0  0  0
  187.8800  178.6280  140.1600 C   0  0  2  0  0  3  0  0  0  0  0  0
  185.6290  178.2350  144.3020 C   0  0  0  0  0  1  0  0  0  0  0  0
  186.8280  177.3560  144.6310 C   0  0  2  0  0  3  0  0  0  0  0  0
  187.7200  178.0200  145.6690 C   0  0  0  0  0  2  0  0  0  0  0  0
  187.3960  177.5000  147.0580 C   0  0  0  0  0  2  0  0  0  0  0  0
  190.6370  177.9270  148.4130 C   0  0  0  0  0  2  0  0  0  0  0  0
  188.6720  177.0940  147.7750 C   0  0  1  0  0  3  0  0  0  0  0  0
  190.9740  177.0730  147.2130 C   0  0  2  0  0  3  0  0  0  0  0  0
  189.6510  176.5160  146.7810 C   0  0  0  0  0  2  0  0  0  0  0  0
  191.8990  175.9490  147.6300 C   0  0  0  0  0  1  0  0  0  0  0  0
  189.2650  178.2130  148.3810 O   0  0  0  0  0  0  0  0  0  0  0  0
  190.7360  177.3610  138.0170 O   0  0  0  0  0  0  0  0  0  0  0  0
  194.5530  173.4850  137.8300 N   0  0  0  0  0  0  0  0  0  0  0  0
  193.7900  175.4330  138.3760 C   0  0  0  0  0  0  0  0  0  0  0  0
  191.6700  176.3260  137.9340 C   0  0  0  0  0  0  0  0  0  0  0  0
  192.9200  176.4660  138.4830 N   0  0  0  0  0  0  0  0  0  0  0  0
  195.4900  174.1600  138.4910 N   0  0  0  0  0  0  0  0  0  0  0  0
  194.7100  172.1390  137.3070 C   0  0  0  0  0  1  0  0  0  0  0  0
  195.0510  175.3690  138.8430 N   0  0  0  0  0  0  0  0  0  0  0  0
  193.4760  174.2750  137.7510 C   0  0  0  0  0  0  0  0  0  0  0  0
  192.2310  174.0650  137.1710 C   0  0  0  0  0  3  0  0  0  0  0  0
  191.3100  175.1260  137.2710 C   0  0  0  0  0  3  0  0  0  0  0  0
  1  8  1  0  0  0  0
  2 24  1  6  0  0  0
  2  5  1  0  0  0  0
  3 12  1  0  0  0  0
  3  1  1  1  0  0  0
  7  2  1  0  0  0  0
  7 13  1  0  0  0  0
  8  4  1  0  0  0  0
  8 15  1  1  0  0  0
  9 11  1  1  0  0  0
  9  4  1  0  0  0  0
 10  7  2  0  0  0  0
 12  5  1  6  0  0  0
 12  9  1  0  0  0  0
 13  6  1  6  0  0  0
 13  3  1  0  0  0  0
 15 14  1  6  0  0  0
 15 16  1  0  0  0  0
 16 17  1  0  0  0  0
 19 17  1  6  0  0  0
 19 23  1  0  0  0  0
 20 22  1  1  0  0  0
 20 18  1  0  0  0  0
 21 20  1  0  0  0  0
 21 19  1  0  0  0  0
 23 18  1  0  0  0  0
 25 29  1  0  0  0  0
 26 28  1  0  0  0  0
 26 31  1  0  0  0  0
 27 24  1  0  0  0  0
 27 28  2  0  0  0  0
 29 31  2  0  0  0  0
 30 25  1  0  0  0  0
 32 25  1  0  0  0  0
 32 26  2  0  0  0  0
 33 34  2  0  0  0  0
 33 32  1  0  0  0  0
 34 27  1  0  0  0  0
M  END
>  <MODEL>
5

>  <REMARK>
 VINA RESULT:      -8.7      1.439      3.446
  Name = 
  6 active torsions:
  status: ('A' for Active; 'I' for Inactive)
    1  A    between atoms: C_3  and  C_13
    2  A    between atoms: C_3  and  C_14
    3  A    between atoms: C_6  and  O_21
    4  A    between atoms: C_7  and  O_21
    5  A    between atoms: C_8  and  C_13
    6  A    between atoms: C_8  and  C_27
                            x       y       z     vdW  Elec       q    Type
                         _______ _______ _______ _____ _____    ______ ____

>  <TORSDO>
F 6

$$$$
=
 OpenBabel10222418233D

 34 38  0  0  1  0  0  0  0  0999 V2000
  182.8760  179.2470  141.9040 O   0  0  0  0  0  0  0  0  0  0  0  0
  186.9390  178.6290  141.9050 C   0  0  2  0  0  3  0  0  0  0  0  0
  184.0570  178.4910  141.7980 C   0  0  2  0  0  3  0  0  0  0  0  0
  182.8430  179.0060  144.3070 C   0  0  0  0  0  2  0  0  0  0  0  0
  186.1370  177.9920  142.8690 O   0  0  0  0  0  0  0  0  0  0  0  0
  184.2080  177.9590  139.4280 N   0  0  0  0  0  1  0  0  0  0  0  0
  186.2590  178.6280  140.5530 C   0  0  0  0  0  0  0  0  0  0  0  0
  182.1420  178.6990  142.9740 C   0  0  1  0  0  3  0  0  0  0  0  0
  184.2430  178.4000  144.2910 C   0  0  2  0  0  3  0  0  0  0  0  0
  186.9270  178.6150  139.5310 O   0  0  0  0  0  0  0  0  0  0  0  0
  185.0200  178.8950  145.4960 C   0  0  0  0  0  1  0  0  0  0  0  0
  184.9760  178.7700  143.0010 C   0  0  2  0  0  3  0  0  0  0  0  0
  184.7610  178.8060  140.4730 C   0  0  2  0  0  3  0  0  0  0  0  0
  179.8470  178.5880  144.0350 C   0  0  0  0  0  1  0  0  0  0  0  0
  180.7000  179.2100  142.9370 C   0  0  2  0  0  3  0  0  0  0  0  0
  180.0800  178.9740  141.5680 C   0  0  0  0  0  2  0  0  0  0  0  0
  179.5470  180.2750  140.9960 C   0  0  0  0  0  2  0  0  0  0  0  0
  181.7740  180.6060  138.2660 C   0  0  0  0  0  2  0  0  0  0  0  0
  179.9570  180.4140  139.5410 C   0  0  1  0  0  3  0  0  0  0  0  0
  181.1980  182.0030  138.2960 C   0  0  2  0  0  3  0  0  0  0  0  0
  179.9780  181.8740  139.1560 C   0  0  0  0  0  2  0  0  0  0  0  0
  180.8040  182.4210  136.8940 C   0  0  0  0  0  1  0  0  0  0  0  0
  181.2430  179.8860  139.3460 O   0  0  0  0  0  0  0  0  0  0  0  0
  188.2010  177.9760  141.8260 O   0  0  0  0  0  0  0  0  0  0  0  0
  190.8170  176.6500  146.4110 N   0  0  0  0  0  0  0  0  0  0  0  0
  189.1770  177.5020  145.2900 C   0  0  0  0  0  0  0  0  0  0  0  0
  188.9240  177.6090  142.9640 C   0  0  0  0  0  0  0  0  0  0  0  0
  188.4390  177.8790  144.2180 N   0  0  0  0  0  0  0  0  0  0  0  0
  189.9090  177.1360  147.2530 N   0  0  0  0  0  0  0  0  0  0  0  0
  192.0560  176.0020  146.8070 C   0  0  0  0  0  1  0  0  0  0  0  0
  188.8810  177.6710  146.5920 N   0  0  0  0  0  0  0  0  0  0  0  0
  190.3690  176.8730  145.1710 C   0  0  0  0  0  0  0  0  0  0  0  0
  190.9210  176.5690  143.9320 C   0  0  0  0  0  3  0  0  0  0  0  0
  190.1700  176.9520  142.8040 C   0  0  0  0  0  3  0  0  0  0  0  0
  1  8  1  0  0  0  0
  2 24  1  6  0  0  0
  2  5  1  0  0  0  0
  3  1  1  1  0  0  0
  3 12  1  0  0  0  0
  7  2  1  0  0  0  0
  8 15  1  1  0  0  0
  8  4  1  0  0  0  0
  9  4  1  0  0  0  0
  9 11  1  1  0  0  0
 10  7  2  0  0  0  0
 12  5  1  6  0  0  0
 12  9  1  0  0  0  0
 13  6  1  6  0  0  0
 13  7  1  0  0  0  0
 13  3  1  0  0  0  0
 15 14  1  1  0  0  0
 16 15  1  0  0  0  0
 17 16  1  0  0  0  0
 18 20  1  0  0  0  0
 18 23  1  0  0  0  0
 19 17  1  1  0  0  0
 20 22  1  6  0  0  0
 20 21  1  0  0  0  0
 21 19  1  0  0  0  0
 23 19  1  0  0  0  0
 24 27  1  0  0  0  0
 25 30  1  0  0  0  0
 25 29  1  0  0  0  0
 26 31  1  0  0  0  0
 27 28  2  0  0  0  0
 28 26  1  0  0  0  0
 31 29  2  0  0  0  0
 32 26  2  0  0  0  0
 32 25  1  0  0  0  0
 33 32  1  0  0  0  0
 34 27  1  0  0  0  0
 34 33  2  0  0  0  0
M  END
>  <MODEL>
6

>  <REMARK>
 VINA RESULT:      -8.7      4.468      7.082
  Name = 
  6 active torsions:
  status: ('A' for Active; 'I' for Inactive)
    1  A    between atoms: C_3  and  C_13
    2  A    between atoms: C_3  and  C_14
    3  A    between atoms: C_6  and  O_21
    4  A    between atoms: C_7  and  O_21
    5  A    between atoms: C_8  and  C_13
    6  A    between atoms: C_8  and  C_27
                            x       y       z     vdW  Elec       q    Type
                         _______ _______ _______ _____ _____    ______ ____

>  <TORSDO>
F 6

$$$$
=
 OpenBabel10222418233D

 34 38  0  0  1  0  0  0  0  0999 V2000
  188.3530  178.3530  143.2540 O   0  0  0  0  0  0  0  0  0  0  0  0
  190.3320  177.5720  139.7380 C   0  0  2  0  0  3  0  0  0  0  0  0
  188.5650  177.7200  142.0160 C   0  0  2  0  0  3  0  0  0  0  0  0
  189.7680  176.7660  144.3980 C   0  0  0  0  0  2  0  0  0  0  0  0
  190.1780  176.5510  140.6930 O   0  0  0  0  0  0  0  0  0  0  0  0
  186.8430  178.6530  140.5720 N   0  0  0  0  0  1  0  0  0  0  0  0
  189.0720  178.4020  139.6290 C   0  0  0  0  0  0  0  0  0  0  0  0
  188.3520  177.3380  144.2300 C   0  0  1  0  0  3  0  0  0  0  0  0
  190.2390  176.1870  143.0670 C   0  0  2  0  0  3  0  0  0  0  0  0
  188.7800  178.9390  138.5720 O   0  0  0  0  0  0  0  0  0  0  0  0
  191.7110  175.8360  143.1630 C   0  0  0  0  0  1  0  0  0  0  0  0
  190.0060  177.1860  141.9320 C   0  0  2  0  0  3  0  0  0  0  0  0
  188.2650  178.6960  140.8730 C   0  0  2  0  0  3  0  0  0  0  0  0
  188.5970  177.4340  146.7470 C   0  0  0  0  0  1  0  0  0  0  0  0
  187.7750  177.8730  145.5420 C   0  0  2  0  0  3  0  0  0  0  0  0
  186.3190  177.4610  145.6980 C   0  0  0  0  0  2  0  0  0  0  0  0
  185.4020  178.6400  145.4250 C   0  0  0  0  0  2  0  0  0  0  0  0
  183.5130  178.6270  142.4320 C   0  0  0  0  0  2  0  0  0  0  0  0
  184.2850  178.2270  144.4840 C   0  0  1  0  0  3  0  0  0  0  0  0
  182.5550  179.3690  143.3350 C   0  0  2  0  0  3  0  0  0  0  0  0
  183.0760  179.1030  144.7150 C   0  0  0  0  0  2  0  0  0  0  0  0
  181.1630  178.7920  143.1850 C   0  0  0  0  0  1  0  0  0  0  0  0
  184.6930  178.3780  143.1490 O   0  0  0  0  0  0  0  0  0  0  0  0
  190.6600  177.0010  138.4760 O   0  0  0  0  0  0  0  0  0  0  0  0
  187.6690  172.9610  136.3900 N   0  0  0  0  0  0  0  0  0  0  0  0
  187.9530  174.9400  137.2130 C   0  0  0  0  0  0  0  0  0  0  0  0
  189.9510  175.9260  137.9360 C   0  0  0  0  0  0  0  0  0  0  0  0
  188.5950  176.0090  137.7400 N   0  0  0  0  0  0  0  0  0  0  0  0
  186.4990  173.5930  136.4390 N   0  0  0  0  0  0  0  0  0  0  0  0
  187.8630  171.6100  135.8930 C   0  0  0  0  0  1  0  0  0  0  0  0
  186.6400  174.8200  136.9440 N   0  0  0  0  0  0  0  0  0  0  0  0
  188.5940  173.7970  136.8740 C   0  0  0  0  0  0  0  0  0  0  0  0
  189.9640  173.6420  137.0450 C   0  0  0  0  0  3  0  0  0  0  0  0
  190.6520  174.7430  137.5920 C   0  0  0  0  0  3  0  0  0  0  0  0
  1  8  1  0  0  0  0
  2 24  1  6  0  0  0
  2  5  1  0  0  0  0
  3  1  1  1  0  0  0
  7  2  1  0  0  0  0
  7 13  1  0  0  0  0
  8  4  1  0  0  0  0
  8 15  1  1  0  0  0
  9 11  1  1  0  0  0
  9  4  1  0  0  0  0
 10  7  2  0  0  0  0
 12  5  1  6  0  0  0
 12  3  1  0  0  0  0
 12  9  1  0  0  0  0
 13  6  1  6  0  0  0
 13  3  1  0  0  0  0
 15 16  1  0  0  0  0
 15 14  1  1  0  0  0
 17 16  1  0  0  0  0
 18 23  1  0  0  0  0
 18 20  1  0  0  0  0
 19 21  1  0  0  0  0
 19 17  1  1  0  0  0
 20 22  1  1  0  0  0
 20 21  1  0  0  0  0
 23 19  1  0  0  0  0
 25 29  1  0  0  0  0
 25 32  1  0  0  0  0
 26 28  1  0  0  0  0
 27 24  1  0  0  0  0
 28 27  2  0  0  0  0
 29 31  2  0  0  0  0
 30 25  1  0  0  0  0
 31 26  1  0  0  0  0
 32 33  1  0  0  0  0
 32 26  2  0  0  0  0
 33 34  2  0  0  0  0
 34 27  1  0  0  0  0
M  END
>  <MODEL>
7

>  <REMARK>
 VINA RESULT:      -8.5      2.447      3.233
  Name = 
  6 active torsions:
  status: ('A' for Active; 'I' for Inactive)
    1  A    between atoms: C_3  and  C_13
    2  A    between atoms: C_3  and  C_14
    3  A    between atoms: C_6  and  O_21
    4  A    between atoms: C_7  and  O_21
    5  A    between atoms: C_8  and  C_13
    6  A    between atoms: C_8  and  C_27
                            x       y       z     vdW  Elec       q    Type
                         _______ _______ _______ _____ _____    ______ ____

>  <TORSDO>
F 6

$$$$
=
 OpenBabel10222418233D

 34 38  0  0  1  0  0  0  0  0999 V2000
  185.2610  178.7730  145.0970 O   0  0  0  0  0  0  0  0  0  0  0  0
  184.0520  178.8210  141.1690 C   0  0  2  0  0  3  0  0  0  0  0  0
  184.6490  178.2620  143.9380 C   0  0  2  0  0  3  0  0  0  0  0  0
  187.4240  177.9420  144.4170 C   0  0  0  0  0  2  0  0  0  0  0  0
  184.9690  177.8460  141.6040 O   0  0  0  0  0  0  0  0  0  0  0  0
  182.2680  178.3650  144.4330 N   0  0  0  0  0  1  0  0  0  0  0  0
  182.9750  179.0470  142.2070 C   0  0  0  0  0  0  0  0  0  0  0  0
  186.2840  177.8700  145.4440 C   0  0  1  0  0  3  0  0  0  0  0  0
  186.8820  177.5860  143.0350 C   0  0  2  0  0  3  0  0  0  0  0  0
  181.8550  179.3940  141.8630 O   0  0  0  0  0  0  0  0  0  0  0  0
  187.9370  177.8830  141.9880 C   0  0  0  0  0  1  0  0  0  0  0  0
  185.6060  178.3760  142.7380 C   0  0  2  0  0  3  0  0  0  0  0  0
  183.3330  179.0020  143.6740 C   0  0  2  0  0  3  0  0  0  0  0  0
  185.9820  179.2730  147.5280 C   0  0  0  0  0  1  0  0  0  0  0  0
  186.7610  178.1410  146.8720 C   0  0  2  0  0  3  0  0  0  0  0  0
  188.2550  178.4240  146.8960 C   0  0  0  0  0  2  0  0  0  0  0  0
  188.9670  177.4400  147.8070 C   0  0  0  0  0  2  0  0  0  0  0  0
  192.0040  176.0850  146.6000 C   0  0  0  0  0  2  0  0  0  0  0  0
  189.8540  176.5180  146.9900 C   0  0  1  0  0  3  0  0  0  0  0  0
  191.5530  176.8350  145.3680 C   0  0  2  0  0  3  0  0  0  0  0  0
  190.1070  177.1290  145.6320 C   0  0  0  0  0  2  0  0  0  0  0  0
  191.6870  175.9440  144.1510 C   0  0  0  0  0  1  0  0  0  0  0  0
  191.0890  176.3380  147.6320 O   0  0  0  0  0  0  0  0  0  0  0  0
  183.4730  178.4140  139.9340 O   0  0  0  0  0  0  0  0  0  0  0  0
  186.6750  177.1060  135.7310 N   0  0  0  0  0  0  0  0  0  0  0  0
  186.1530  178.2480  137.4910 C   0  0  0  0  0  0  0  0  0  0  0  0
  184.2480  178.0300  138.8370 C   0  0  0  0  0  0  0  0  0  0  0  0
  185.4370  178.6580  138.5660 N   0  0  0  0  0  0  0  0  0  0  0  0
  187.6250  178.0050  135.9760 N   0  0  0  0  0  0  0  0  0  0  0  0
  186.6880  176.1620  134.6270 C   0  0  0  0  0  1  0  0  0  0  0  0
  187.3320  178.7280  137.0580 N   0  0  0  0  0  0  0  0  0  0  0  0
  185.7410  177.2480  136.6780 C   0  0  0  0  0  0  0  0  0  0  0  0
  184.5480  176.5680  136.8920 C   0  0  0  0  0  3  0  0  0  0  0  0
  183.7880  176.9780  138.0050 C   0  0  0  0  0  3  0  0  0  0  0  0
  1  8  1  0  0  0  0
  2 24  1  6  0  0  0
  2  5  1  0  0  0  0
  2  7  1  0  0  0  0
  3  1  1  1  0  0  0
  4  8  1  0  0  0  0
  7 13  1  0  0  0  0
  8 15  1  1  0  0  0
  9 11  1  6  0  0  0
  9  4  1  0  0  0  0
 10  7  2  0  0  0  0
 12  5  1  6  0  0  0
 12  9  1  0  0  0  0
 12  3  1  0  0  0  0
 13  3  1  0  0  0  0
 13  6  1  1  0  0  0
 15 16  1  0  0  0  0
 15 14  1  6  0  0  0
 16 17  1  0  0  0  0
 18 23  1  0  0  0  0
 19 23  1  0  0  0  0
 19 17  1  1  0  0  0
 20 22  1  6  0  0  0
 20 21  1  0  0  0  0
 20 18  1  0  0  0  0
 21 19  1  0  0  0  0
 25 29  1  0  0  0  0
 25 32  1  0  0  0  0
 26 28  1  0  0  0  0
 27 24  1  0  0  0  0
 28 27  2  0  0  0  0
 29 31  2  0  0  0  0
 30 25  1  0  0  0  0
 31 26  1  0  0  0  0
 32 33  1  0  0  0  0
 32 26  2  0  0  0  0
 33 34  2  0  0  0  0
 34 27  1  0  0  0  0
M  END
>  <MODEL>
8

>  <REMARK>
 VINA RESULT:      -8.4      4.425      6.602
  Name = 
  6 active torsions:
  status: ('A' for Active; 'I' for Inactive)
    1  A    between atoms: C_3  and  C_13
    2  A    between atoms: C_3  and  C_14
    3  A    between atoms: C_6  and  O_21
    4  A    between atoms: C_7  and  O_21
    5  A    between atoms: C_8  and  C_13
    6  A    between atoms: C_8  and  C_27
                            x       y       z     vdW  Elec       q    Type
                         _______ _______ _______ _____ _____    ______ ____

>  <TORSDO>
F 6

$$$$
=
 OpenBabel10222418233D

 34 38  0  0  1  0  0  0  0  0999 V2000
  183.1410  178.6350  141.3320 O   0  0  0  0  0  0  0  0  0  0  0  0
  185.6530  178.3760  144.5730 C   0  0  2  0  0  3  0  0  0  0  0  0
  183.8960  179.1290  142.4110 C   0  0  2  0  0  3  0  0  0  0  0  0
  185.0530  178.7040  139.8590 C   0  0  0  0  0  2  0  0  0  0  0  0
  186.0570  179.0970  143.4350 O   0  0  0  0  0  0  0  0  0  0  0  0
  182.2220  179.7860  144.0510 N   0  0  0  0  0  1  0  0  0  0  0  0
  184.1910  178.6190  144.8750 C   0  0  0  0  0  0  0  0  0  0  0  0
  183.6500  179.2470  140.1710 C   0  0  1  0  0  3  0  0  0  0  0  0
  185.9800  178.9990  141.0360 C   0  0  2  0  0  3  0  0  0  0  0  0
  183.7840  178.5630  146.0250 O   0  0  0  0  0  0  0  0  0  0  0  0
  187.2920  178.2650  140.8390 C   0  0  0  0  0  1  0  0  0  0  0  0
  185.3300  178.5750  142.3530 C   0  0  2  0  0  3  0  0  0  0  0  0
  183.2110  178.7680  143.7340 C   0  0  2  0  0  3  0  0  0  0  0  0
  183.2580  178.1710  137.9140 C   0  0  0  0  0  1  0  0  0  0  0  0
  182.6750  179.0580  139.0070 C   0  0  2  0  0  3  0  0  0  0  0  0
  182.2430  180.4030  138.4420 C   0  0  0  0  0  2  0  0  0  0  0  0
  181.1650  180.2140  137.3890 C   0  0  0  0  0  2  0  0  0  0  0  0
  180.7750  183.2710  135.6490 C   0  0  0  0  0  2  0  0  0  0  0  0
  180.5320  181.5500  137.0440 C   0  0  1  0  0  3  0  0  0  0  0  0
  181.2940  183.7930  136.9690 C   0  0  2  0  0  3  0  0  0  0  0  0
  181.1340  182.6350  137.9060 C   0  0  0  0  0  2  0  0  0  0  0  0
  180.4380  184.9550  137.4290 C   0  0  0  0  0  1  0  0  0  0  0  0
  180.7740  181.8690  135.6990 O   0  0  0  0  0  0  0  0  0  0  0  0
  186.4580  178.7500  145.6860 O   0  0  0  0  0  0  0  0  0  0  0  0
  191.2860  176.3730  146.4980 N   0  0  0  0  0  0  0  0  0  0  0  0
  189.7490  177.2750  145.2750 C   0  0  0  0  0  0  0  0  0  0  0  0
  187.6820  178.1360  145.9630 C   0  0  0  0  0  0  0  0  0  0  0  0
  188.5750  177.8710  144.9560 N   0  0  0  0  0  0  0  0  0  0  0  0
  191.6790  176.3820  145.2270 N   0  0  0  0  0  0  0  0  0  0  0  0
  192.0640  175.8420  147.6040 C   0  0  0  0  0  1  0  0  0  0  0  0
  190.7500  176.9340  144.4440 N   0  0  0  0  0  0  0  0  0  0  0  0
  190.0720  176.9320  146.5430 C   0  0  0  0  0  0  0  0  0  0  0  0
  189.2160  177.1690  147.6120 C   0  0  0  0  0  3  0  0  0  0  0  0
  187.9900  177.7890  147.3020 C   0  0  0  0  0  3  0  0  0  0  0  0
  2  7  1  0  0  0  0
  2 24  1  1  0  0  0
  3  1  1  6  0  0  0
  3 13  1  0  0  0  0
  4  8  1  0  0  0  0
  4  9  1  0  0  0  0
  5  2  1  0  0  0  0
  7 10  2  0  0  0  0
  8 15  1  6  0  0  0
  8  1  1  0  0  0  0
  9 11  1  6  0  0  0
  9 12  1  0  0  0  0
 12  3  1  0  0  0  0
 12  5  1  1  0  0  0
 13  6  1  1  0  0  0
 13  7  1  0  0  0  0
 15 14  1  6  0  0  0
 16 15  1  0  0  0  0
 17 16  1  0  0  0  0
 18 23  1  0  0  0  0
 18 20  1  0  0  0  0
 19 17  1  1  0  0  0
 19 21  1  0  0  0  0
 20 22  1  1  0  0  0
 20 21  1  0  0  0  0
 23 19  1  0  0  0  0
 24 27  1  0  0  0  0
 25 32  1  0  0  0  0
 25 30  1  0  0  0  0
 26 32  2  0  0  0  0
 27 34  1  0  0  0  0
 28 26  1  0  0  0  0
 28 27  2  0  0  0  0
 29 25  1  0  0  0  0
 31 29  2  0  0  0  0
 31 26  1  0  0  0  0
 32 33  1  0  0  0  0
 34 33  2  0  0  0  0
M  END
>  <MODEL>
9

>  <REMARK>
 VINA RESULT:      -8.4      4.786      8.291
  Name = 
  6 active torsions:
  status: ('A' for Active; 'I' for Inactive)
    1  A    between atoms: C_3  and  C_13
    2  A    between atoms: C_3  and  C_14
    3  A    between atoms: C_6  and  O_21
    4  A    between atoms: C_7  and  O_21
    5  A    between atoms: C_8  and  C_13
    6  A    between atoms: C_8  and  C_27
                            x       y       z     vdW  Elec       q    Type
                         _______ _______ _______ _____ _____    ______ ____

>  <TORSDO>
F 6

$$$$
