=
 OpenBabel10222415273D

 31 35  0  0  1  0  0  0  0  0999 V2000
  188.2690  177.9530  146.7280 C   0  0  2  0  0  3  0  0  0  0  0  0
  191.6380  176.7680  145.5930 C   0  0  0  0  0  1  0  0  0  0  0  0
  187.3240  177.9140  142.7630 C   0  0  0  0  0  0  0  0  0  0  0  0
  186.5080  178.2230  145.0870 C   0  0  0  0  0  0  0  0  0  0  0  0
  190.3220  177.0750  146.2150 C   0  0  0  0  0  0  0  0  0  0  0  0
  184.8720  178.4330  143.2490 C   0  0  0  0  0  0  0  0  0  0  0  0
  189.3730  178.1120  145.7110 C   0  0  1  0  0  3  0  0  0  0  0  0
  188.6690  177.0880  147.6500 C   0  0  2  0  0  3  0  0  0  0  0  0
  185.9630  178.1810  142.2490 C   0  0  0  0  0  0  0  0  0  0  0  0
  189.5150  177.7490  143.2410 N   0  0  0  0  0  0  0  0  0  0  0  0
  185.7210  178.2190  141.0160 O   0  0  0  0  0  0  0  0  0  0  0  0
  188.6110  177.7730  142.2220 C   0  0  0  0  0  0  0  0  0  0  0  0
  186.8430  178.2100  146.3860 C   0  0  0  0  0  3  0  0  0  0  0  0
  189.9450  176.5450  147.3320 N   0  0  0  0  0  0  0  0  0  0  0  0
  187.5410  177.9410  144.0970 C   0  0  0  0  0  0  0  0  0  0  0  0
  185.1400  178.4540  144.5810 C   0  0  0  0  0  3  0  0  0  0  0  0
  187.7910  176.5000  148.7010 C   0  0  0  0  0  1  0  0  0  0  0  0
  188.8380  177.8190  144.3780 N   0  0  0  0  0  0  0  0  0  0  0  0
  189.7600  177.5000  138.1380 N   0  0  0  0  0  0  0  0  0  0  0  0
  188.5130  178.6010  139.8510 C   0  0  0  0  0  3  0  0  0  0  0  0
  188.9010  178.4840  138.5150 C   0  0  0  0  0  3  0  0  0  0  0  0
  189.8900  176.6960  140.3820 C   0  0  0  0  0  3  0  0  0  0  0  0
  190.2570  176.6090  139.0380 C   0  0  0  0  0  3  0  0  0  0  0  0
  189.0150  177.7060  140.8020 C   0  0  0  0  0  0  0  0  0  0  0  0
  183.5020  178.6690  142.7570 C   0  0  0  0  0  3  0  0  0  0  0  0
  182.4510  178.7910  143.5620 C   0  0  0  0  0  3  0  0  0  0  0  0
  180.8260  179.0750  142.8780 P   0  0  1  0  0  0  0  0  0  0  0  0
  180.5040  180.5520  142.9550 O   0  0  0  0  0  1  0  0  0  0  0  0
  180.8090  178.5740  141.2610 O   0  0  0  0  0  0  0  0  0  0  0  0
  178.9360  179.1390  144.4640 C   0  0  0  0  0  1  0  0  0  0  0  0
  179.6930  178.1880  143.7750 O   0  0  0  0  0  0  0  0  0  0  0  0
  1 13  1  6  0  0  0
  1  8  1  0  0  0  0
  2  5  1  0  0  0  0
  3 15  2  0  0  0  0
  4 13  2  0  0  0  0
  5 14  2  0  0  0  0
  6 16  2  0  0  0  0
  7  5  1  1  0  0  0
  7  1  1  0  0  0  0
  8 17  1  6  0  0  0
  9  3  1  0  0  0  0
  9  6  1  0  0  0  0
 10 18  1  0  0  0  0
 11  9  2  0  0  0  0
 12  3  1  0  0  0  0
 12 10  2  0  0  0  0
 14  8  1  0  0  0  0
 15 18  1  0  0  0  0
 15  4  1  0  0  0  0
 16  4  1  0  0  0  0
 18  7  1  0  0  0  0
 19 21  2  0  0  0  0
 19 23  1  0  0  0  0
 20 24  2  0  0  0  0
 21 20  1  0  0  0  0
 22 24  1  0  0  0  0
 23 22  2  0  0  0  0
 24 12  1  0  0  0  0
 25  6  1  0  0  0  0
 25 26  2  0  0  0  0
 27 29  2  6  0  0  0
 27 28  1  0  0  0  0
 27 26  1  0  0  0  0
 27 31  1  0  0  0  0
 31 30  1  0  0  0  0
M  END
>  <MODEL>
1

>  <REMARK>
 VINA RESULT:      -9.5      0.000      0.000
  Name = 
  4 active torsions:
  status: ('A' for Active; 'I' for Inactive)
    1  A    between atoms: P_3  and  C_17
    2  A    between atoms: P_3  and  O_31
    3  A    between atoms: C_8  and  C_14
    4  A    between atoms: C_20  and  C_29
                            x       y       z     vdW  Elec       q    Type
                         _______ _______ _______ _____ _____    ______ ____

>  <TORSDO>
F 4

$$$$
=
 OpenBabel10222415273D

 31 35  0  0  1  0  0  0  0  0999 V2000
  188.2440  177.1450  146.1940 C   0  0  2  0  0  3  0  0  0  0  0  0
  184.8460  178.5180  146.9780 C   0  0  0  0  0  1  0  0  0  0  0  0
  187.2860  177.9790  142.3200 C   0  0  0  0  0  0  0  0  0  0  0  0
  189.0370  177.2160  143.9060 C   0  0  0  0  0  0  0  0  0  0  0  0
  186.2690  178.0990  146.8540 C   0  0  0  0  0  0  0  0  0  0  0  0
  189.6350  177.3840  141.5160 C   0  0  0  0  0  0  0  0  0  0  0  0
  186.7900  177.1880  145.7920 C   0  0  1  0  0  3  0  0  0  0  0  0
  188.3850  177.8070  147.3340 C   0  0  2  0  0  3  0  0  0  0  0  0
  188.2360  177.8260  141.1970 C   0  0  0  0  0  0  0  0  0  0  0  0
  185.5740  178.0360  143.7780 N   0  0  0  0  0  0  0  0  0  0  0  0
  187.8870  178.0360  140.0070 O   0  0  0  0  0  0  0  0  0  0  0  0
  185.9120  178.2190  142.4710 C   0  0  0  0  0  0  0  0  0  0  0  0
  189.3300  176.9680  145.1910 C   0  0  0  0  0  3  0  0  0  0  0  0
  187.1570  178.3970  147.7450 N   0  0  0  0  0  0  0  0  0  0  0  0
  187.6970  177.6860  143.5740 C   0  0  0  0  0  0  0  0  0  0  0  0
  190.0000  177.0970  142.7920 C   0  0  0  0  0  3  0  0  0  0  0  0
  189.6920  178.1780  147.9460 C   0  0  0  0  0  1  0  0  0  0  0  0
  186.6850  177.7430  144.4400 N   0  0  0  0  0  0  0  0  0  0  0  0
  183.0000  179.2580  139.5530 N   0  0  0  0  0  0  0  0  0  0  0  0
  185.2940  179.0840  140.1930 C   0  0  0  0  0  3  0  0  0  0  0  0
  184.3160  179.4240  139.2550 C   0  0  0  0  0  3  0  0  0  0  0  0
  183.5500  178.4170  141.7180 C   0  0  0  0  0  3  0  0  0  0  0  0
  182.6010  178.7670  140.7570 C   0  0  0  0  0  3  0  0  0  0  0  0
  184.9150  178.5660  141.4360 C   0  0  0  0  0  0  0  0  0  0  0  0
  190.6050  177.2570  140.4130 C   0  0  0  0  0  3  0  0  0  0  0  0
  190.5780  176.2640  139.5300 C   0  0  0  0  0  3  0  0  0  0  0  0
  191.7950  176.1880  138.2260 P   0  0  1  0  0  0  0  0  0  0  0  0
  191.2560  176.8940  137.0000 O   0  0  0  0  0  0  0  0  0  0  0  0
  193.2120  176.9550  138.7440 O   0  0  0  0  0  1  0  0  0  0  0  0
  193.4830  174.4930  137.6190 C   0  0  0  0  0  1  0  0  0  0  0  0
  192.1100  174.5610  137.8660 O   0  0  0  0  0  0  0  0  0  0  0  0
  1 13  1  6  0  0  0
  1  8  1  0  0  0  0
  3 12  1  0  0  0  0
  3 15  2  0  0  0  0
  4 13  2  0  0  0  0
  5  2  1  0  0  0  0
  5 14  2  0  0  0  0
  6 16  2  0  0  0  0
  7  1  1  0  0  0  0
  7  5  1  1  0  0  0
  8 14  1  0  0  0  0
  8 17  1  6  0  0  0
  9  6  1  0  0  0  0
  9  3  1  0  0  0  0
 10 18  1  0  0  0  0
 11  9  2  0  0  0  0
 12 10  2  0  0  0  0
 15  4  1  0  0  0  0
 15 18  1  0  0  0  0
 16  4  1  0  0  0  0
 18  7  1  0  0  0  0
 19 23  1  0  0  0  0
 20 24  2  0  0  0  0
 21 19  2  0  0  0  0
 21 20  1  0  0  0  0
 23 22  2  0  0  0  0
 24 22  1  0  0  0  0
 24 12  1  0  0  0  0
 25  6  1  0  0  0  0
 26 25  2  0  0  0  0
 27 28  2  6  0  0  0
 27 29  1  0  0  0  0
 27 26  1  0  0  0  0
 30 31  1  0  0  0  0
 31 27  1  0  0  0  0
M  END
>  <MODEL>
2

>  <REMARK>
 VINA RESULT:      -8.9      4.034      7.026
  Name = 
  4 active torsions:
  status: ('A' for Active; 'I' for Inactive)
    1  A    between atoms: P_3  and  C_17
    2  A    between atoms: P_3  and  O_31
    3  A    between atoms: C_8  and  C_14
    4  A    between atoms: C_20  and  C_29
                            x       y       z     vdW  Elec       q    Type
                         _______ _______ _______ _____ _____    ______ ____

>  <TORSDO>
F 4

$$$$
=
 OpenBabel10222415273D

 31 35  0  0  1  0  0  0  0  0999 V2000
  185.2210  178.9630  141.0080 C   0  0  2  0  0  3  0  0  0  0  0  0
  183.9190  178.6530  144.5080 C   0  0  0  0  0  1  0  0  0  0  0  0
  188.7100  177.5440  142.5700 C   0  0  0  0  0  0  0  0  0  0  0  0
  187.4680  178.1980  140.5220 C   0  0  0  0  0  0  0  0  0  0  0  0
  184.2280  178.6810  143.0530 C   0  0  0  0  0  0  0  0  0  0  0  0
  189.7780  177.3650  140.2580 C   0  0  0  0  0  0  0  0  0  0  0  0
  185.5100  179.1820  142.4730 C   0  0  1  0  0  3  0  0  0  0  0  0
  183.9660  178.5570  140.8830 C   0  0  2  0  0  3  0  0  0  0  0  0
  189.8930  177.2120  141.7470 C   0  0  0  0  0  0  0  0  0  0  0  0
  187.1780  178.2240  144.0710 N   0  0  0  0  0  0  0  0  0  0  0  0
  190.9730  176.8330  142.2700 O   0  0  0  0  0  0  0  0  0  0  0  0
  188.4210  177.6800  143.9360 C   0  0  0  0  0  0  0  0  0  0  0  0
  186.3030  178.6480  140.0340 C   0  0  0  0  0  3  0  0  0  0  0  0
  183.3480  178.3850  142.1530 N   0  0  0  0  0  0  0  0  0  0  0  0
  187.5920  178.0010  141.9620 C   0  0  0  0  0  0  0  0  0  0  0  0
  188.6350  177.8330  139.6930 C   0  0  0  0  0  3  0  0  0  0  0  0
  183.3640  178.0290  139.6260 C   0  0  0  0  0  1  0  0  0  0  0  0
  186.6770  178.3810  142.8540 N   0  0  0  0  0  0  0  0  0  0  0  0
  190.8260  176.7040  147.3040 N   0  0  0  0  0  0  0  0  0  0  0  0
  190.6550  177.1700  144.9680 C   0  0  0  0  0  3  0  0  0  0  0  0
  191.4210  176.8430  146.0880 C   0  0  0  0  0  3  0  0  0  0  0  0
  188.6890  177.2010  146.3620 C   0  0  0  0  0  3  0  0  0  0  0  0
  189.4860  176.8740  147.4600 C   0  0  0  0  0  3  0  0  0  0  0  0
  189.2760  177.3610  145.0990 C   0  0  0  0  0  0  0  0  0  0  0  0
  190.9370  177.0080  139.4190 C   0  0  0  0  0  3  0  0  0  0  0  0
  190.8520  176.2010  138.3660 C   0  0  0  0  0  3  0  0  0  0  0  0
  192.3090  175.8210  137.4060 P   0  0  1  0  0  0  0  0  0  0  0  0
  192.0000  176.0120  135.9370 O   0  0  0  0  0  0  0  0  0  0  0  0
  193.5610  176.8650  137.8620 O   0  0  0  0  0  1  0  0  0  0  0  0
  194.1490  174.2130  137.7430 C   0  0  0  0  0  1  0  0  0  0  0  0
  192.7530  174.2120  137.7000 O   0  0  0  0  0  0  0  0  0  0  0  0
  1 13  1  1  0  0  0
  1  7  1  0  0  0  0
  3 12  1  0  0  0  0
  4 15  1  0  0  0  0
  5  2  1  0  0  0  0
  6  9  1  0  0  0  0
  7 18  1  0  0  0  0
  7  5  1  1  0  0  0
  8 17  1  1  0  0  0
  8  1  1  0  0  0  0
  8 14  1  0  0  0  0
  9 11  2  0  0  0  0
  9  3  1  0  0  0  0
 12 10  2  0  0  0  0
 12 24  1  0  0  0  0
 13  4  2  0  0  0  0
 14  5  2  0  0  0  0
 15  3  2  0  0  0  0
 15 18  1  0  0  0  0
 16  6  2  0  0  0  0
 16  4  1  0  0  0  0
 18 10  1  0  0  0  0
 19 23  1  0  0  0  0
 20 24  2  0  0  0  0
 20 21  1  0  0  0  0
 21 19  2  0  0  0  0
 22 23  2  0  0  0  0
 24 22  1  0  0  0  0
 25  6  1  0  0  0  0
 26 25  2  0  0  0  0
 27 28  2  6  0  0  0
 27 31  1  0  0  0  0
 27 29  1  0  0  0  0
 27 26  1  0  0  0  0
 31 30  1  0  0  0  0
M  END
>  <MODEL>
3

>  <REMARK>
 VINA RESULT:      -8.9      4.634      8.420
  Name = 
  4 active torsions:
  status: ('A' for Active; 'I' for Inactive)
    1  A    between atoms: P_3  and  C_17
    2  A    between atoms: P_3  and  O_31
    3  A    between atoms: C_8  and  C_14
    4  A    between atoms: C_20  and  C_29
                            x       y       z     vdW  Elec       q    Type
                         _______ _______ _______ _____ _____    ______ ____

>  <TORSDO>
F 4

$$$$
=
 OpenBabel10222415273D

 31 35  0  0  1  0  0  0  0  0999 V2000
  184.6830  179.2250  142.4260 C   0  0  2  0  0  3  0  0  0  0  0  0
  184.2080  178.5880  146.0890 C   0  0  0  0  0  1  0  0  0  0  0  0
  188.3740  177.5870  142.9930 C   0  0  0  0  0  0  0  0  0  0  0  0
  186.7240  178.4690  141.3610 C   0  0  0  0  0  0  0  0  0  0  0  0
  184.1760  178.7570  144.6110 C   0  0  0  0  0  0  0  0  0  0  0  0
  188.8740  177.6220  140.4890 C   0  0  0  0  0  0  0  0  0  0  0  0
  185.3100  179.2880  143.7980 C   0  0  1  0  0  3  0  0  0  0  0  0
  183.4160  178.8580  142.5600 C   0  0  2  0  0  3  0  0  0  0  0  0
  189.3210  177.3170  141.8890 C   0  0  0  0  0  0  0  0  0  0  0  0
  187.2580  178.1410  144.8660 N   0  0  0  0  0  0  0  0  0  0  0  0
  190.4750  176.8660  142.1080 O   0  0  0  0  0  0  0  0  0  0  0  0
  188.4120  177.5890  144.3950 C   0  0  0  0  0  0  0  0  0  0  0  0
  185.4970  178.9890  141.2020 C   0  0  0  0  0  3  0  0  0  0  0  0
  183.1010  178.5700  143.9170 N   0  0  0  0  0  0  0  0  0  0  0  0
  187.1670  178.1250  142.7070 C   0  0  0  0  0  0  0  0  0  0  0  0
  187.6520  178.1670  140.2520 C   0  0  0  0  0  3  0  0  0  0  0  0
  182.5200  178.4720  141.4330 C   0  0  0  0  0  1  0  0  0  0  0  0
  186.4980  178.4310  143.8190 N   0  0  0  0  0  0  0  0  0  0  0  0
  191.5840  176.3430  146.9370 N   0  0  0  0  0  0  0  0  0  0  0  0
  189.3040  177.0000  146.6700 C   0  0  0  0  0  3  0  0  0  0  0  0
  190.3650  176.5960  147.4830 C   0  0  0  0  0  3  0  0  0  0  0  0
  190.7680  176.8810  144.7590 C   0  0  0  0  0  3  0  0  0  0  0  0
  191.8050  176.4780  145.6020 C   0  0  0  0  0  3  0  0  0  0  0  0
  189.4980  177.1370  145.2910 C   0  0  0  0  0  0  0  0  0  0  0  0
  189.7920  177.3290  139.3740 C   0  0  0  0  0  3  0  0  0  0  0  0
  189.5550  176.3900  138.4640 C   0  0  0  0  0  3  0  0  0  0  0  0
  190.7250  176.1020  137.1450 P   0  0  1  0  0  0  0  0  0  0  0  0
  190.2630  176.8300  135.9020 O   0  0  0  0  0  0  0  0  0  0  0  0
  192.2430  176.6870  137.6130 O   0  0  0  0  0  1  0  0  0  0  0  0
  189.5180  173.9510  137.0630 C   0  0  0  0  0  1  0  0  0  0  0  0
  190.8090  174.4360  136.8430 O   0  0  0  0  0  0  0  0  0  0  0  0
  1 13  1  6  0  0  0
  1  8  1  0  0  0  0
  1  7  1  0  0  0  0
  3 12  1  0  0  0  0
  4 15  1  0  0  0  0
  5  2  1  0  0  0  0
  6  9  1  0  0  0  0
  7 18  1  0  0  0  0
  7  5  1  1  0  0  0
  8 17  1  6  0  0  0
  8 14  1  0  0  0  0
  9 11  2  0  0  0  0
  9  3  1  0  0  0  0
 12 10  2  0  0  0  0
 12 24  1  0  0  0  0
 13  4  2  0  0  0  0
 14  5  2  0  0  0  0
 15  3  2  0  0  0  0
 15 18  1  0  0  0  0
 16  6  2  0  0  0  0
 16  4  1  0  0  0  0
 18 10  1  0  0  0  0
 19 21  1  0  0  0  0
 20 21  2  0  0  0  0
 22 24  2  0  0  0  0
 22 23  1  0  0  0  0
 23 19  2  0  0  0  0
 24 20  1  0  0  0  0
 25  6  1  0  0  0  0
 26 25  2  0  0  0  0
 27 28  2  6  0  0  0
 27 29  1  0  0  0  0
 27 26  1  0  0  0  0
 31 30  1  0  0  0  0
 31 27  1  0  0  0  0
M  END
>  <MODEL>
4

>  <REMARK>
 VINA RESULT:      -8.6      4.451      7.572
  Name = 
  4 active torsions:
  status: ('A' for Active; 'I' for Inactive)
    1  A    between atoms: P_3  and  C_17
    2  A    between atoms: P_3  and  O_31
    3  A    between atoms: C_8  and  C_14
    4  A    between atoms: C_20  and  C_29
                            x       y       z     vdW  Elec       q    Type
                         _______ _______ _______ _____ _____    ______ ____

>  <TORSDO>
F 4

$$$$
=
 OpenBabel10222415273D

 31 35  0  0  1  0  0  0  0  0999 V2000
  190.0190  177.8960  138.7980 C   0  0  2  0  0  3  0  0  0  0  0  0
  187.0520  178.4490  136.5770 C   0  0  0  0  0  1  0  0  0  0  0  0
  187.2850  177.8390  141.8220 C   0  0  0  0  0  0  0  0  0  0  0  0
  189.6580  177.5190  141.1640 C   0  0  0  0  0  0  0  0  0  0  0  0
  188.3020  178.0760  137.2920 C   0  0  0  0  0  0  0  0  0  0  0  0
  189.0570  177.1650  143.5330 C   0  0  0  0  0  0  0  0  0  0  0  0
  188.7120  178.6290  138.6180 C   0  0  1  0  0  3  0  0  0  0  0  0
  190.2730  177.2110  137.6920 C   0  0  2  0  0  3  0  0  0  0  0  0
  187.6330  177.5250  143.2250 C   0  0  0  0  0  0  0  0  0  0  0  0
  186.5360  178.6160  139.8490 N   0  0  0  0  0  0  0  0  0  0  0  0
  186.7730  177.5750  144.1430 O   0  0  0  0  0  0  0  0  0  0  0  0
  186.1710  178.3390  141.1330 C   0  0  0  0  0  0  0  0  0  0  0  0
  190.5320  177.5270  140.1460 C   0  0  0  0  0  3  0  0  0  0  0  0
  189.2080  177.3250  136.7560 N   0  0  0  0  0  0  0  0  0  0  0  0
  188.2600  177.8250  140.8850 C   0  0  0  0  0  0  0  0  0  0  0  0
  190.0020  177.1690  142.5570 C   0  0  0  0  0  3  0  0  0  0  0  0
  191.3520  176.1920  137.5520 C   0  0  0  0  0  1  0  0  0  0  0  0
  187.8060  178.2640  139.7100 N   0  0  0  0  0  0  0  0  0  0  0  0
  182.2290  179.0170  142.5740 N   0  0  0  0  0  0  0  0  0  0  0  0
  184.5900  179.1240  142.9210 C   0  0  0  0  0  3  0  0  0  0  0  0
  183.2850  179.3300  143.3730 C   0  0  0  0  0  3  0  0  0  0  0  0
  183.7010  178.2770  140.8470 C   0  0  0  0  0  3  0  0  0  0  0  0
  182.4110  178.4980  141.3310 C   0  0  0  0  0  3  0  0  0  0  0  0
  184.8080  178.6010  141.6430 C   0  0  0  0  0  0  0  0  0  0  0  0
  189.4150  176.8170  144.9200 C   0  0  0  0  0  3  0  0  0  0  0  0
  189.7020  177.7250  145.8470 C   0  0  0  0  0  3  0  0  0  0  0  0
  190.1270  177.2120  147.5050 P   0  0  1  0  0  0  0  0  0  0  0  0
  189.5190  175.8530  147.7770 O   0  0  0  0  0  1  0  0  0  0  0  0
  191.8110  177.1170  147.6410 O   0  0  0  0  0  0  0  0  0  0  0  0
  188.1260  178.2620  148.4960 C   0  0  0  0  0  1  0  0  0  0  0  0
  189.5160  178.3500  148.6030 O   0  0  0  0  0  0  0  0  0  0  0  0
  1 13  1  1  0  0  0
  2  5  1  0  0  0  0
  3  9  1  0  0  0  0
  4 16  1  0  0  0  0
  6 25  1  0  0  0  0
  7  5  1  6  0  0  0
  7  1  1  0  0  0  0
  7 18  1  0  0  0  0
  8 17  1  1  0  0  0
  8  1  1  0  0  0  0
  9  6  1  0  0  0  0
  9 11  2  0  0  0  0
 10 12  2  0  0  0  0
 12 24  1  0  0  0  0
 12  3  1  0  0  0  0
 13  4  2  0  0  0  0
 14  5  2  0  0  0  0
 14  8  1  0  0  0  0
 15  4  1  0  0  0  0
 15  3  2  0  0  0  0
 16  6  2  0  0  0  0
 18 10  1  0  0  0  0
 18 15  1  0  0  0  0
 19 21  1  0  0  0  0
 20 21  2  0  0  0  0
 22 23  1  0  0  0  0
 22 24  2  0  0  0  0
 23 19  2  0  0  0  0
 24 20  1  0  0  0  0
 25 26  2  0  0  0  0
 26 27  1  0  0  0  0
 27 29  2  1  0  0  0
 27 28  1  0  0  0  0
 27 31  1  0  0  0  0
 30 31  1  0  0  0  0
M  END
>  <MODEL>
5

>  <REMARK>
 VINA RESULT:      -8.4      3.838      7.788
  Name = 
  4 active torsions:
  status: ('A' for Active; 'I' for Inactive)
    1  A    between atoms: P_3  and  C_17
    2  A    between atoms: P_3  and  O_31
    3  A    between atoms: C_8  and  C_14
    4  A    between atoms: C_20  and  C_29
                            x       y       z     vdW  Elec       q    Type
                         _______ _______ _______ _____ _____    ______ ____

>  <TORSDO>
F 4

$$$$
=
 OpenBabel10222415273D

 31 35  0  0  1  0  0  0  0  0999 V2000
  180.8550  178.9700  140.8300 C   0  0  2  0  0  3  0  0  0  0  0  0
  179.8230  178.2670  144.3630 C   0  0  0  0  0  1  0  0  0  0  0  0
  184.6520  178.4500  142.2220 C   0  0  0  0  0  0  0  0  0  0  0  0
  183.1990  178.8110  140.2410 C   0  0  0  0  0  0  0  0  0  0  0  0
  180.0530  178.4030  142.9000 C   0  0  0  0  0  0  0  0  0  0  0  0
  185.6310  178.5960  139.8680 C   0  0  0  0  0  0  0  0  0  0  0  0
  181.1410  179.2240  142.2900 C   0  0  1  0  0  3  0  0  0  0  0  0
  179.7380  178.2630  140.7380 C   0  0  2  0  0  3  0  0  0  0  0  0
  185.8440  178.4460  141.3470 C   0  0  0  0  0  0  0  0  0  0  0  0
  183.0640  178.6880  143.7960 N   0  0  0  0  0  0  0  0  0  0  0  0
  187.0060  178.3420  141.8180 O   0  0  0  0  0  0  0  0  0  0  0  0
  184.3960  178.4790  143.6010 C   0  0  0  0  0  0  0  0  0  0  0  0
  181.9380  178.9610  139.8080 C   0  0  0  0  0  3  0  0  0  0  0  0
  179.2390  177.9120  142.0230 N   0  0  0  0  0  0  0  0  0  0  0  0
  183.4300  178.6220  141.6680 C   0  0  0  0  0  0  0  0  0  0  0  0
  184.3840  178.7700  139.3590 C   0  0  0  0  0  3  0  0  0  0  0  0
  179.2360  177.6260  139.4870 C   0  0  0  0  0  1  0  0  0  0  0  0
  182.4880  178.7380  142.6040 N   0  0  0  0  0  0  0  0  0  0  0  0
  187.0850  178.1360  146.8760 N   0  0  0  0  0  0  0  0  0  0  0  0
  186.4680  177.5210  144.6530 C   0  0  0  0  0  3  0  0  0  0  0  0
  187.3310  177.4210  145.7460 C   0  0  0  0  0  3  0  0  0  0  0  0
  185.1190  179.0790  145.9030 C   0  0  0  0  0  3  0  0  0  0  0  0
  186.0030  178.9550  146.9760 C   0  0  0  0  0  3  0  0  0  0  0  0
  185.3530  178.3630  144.7210 C   0  0  0  0  0  0  0  0  0  0  0  0
  186.8060  178.5620  138.9770 C   0  0  0  0  0  3  0  0  0  0  0  0
  186.8870  177.7750  137.9100 C   0  0  0  0  0  3  0  0  0  0  0  0
  188.3500  177.7980  136.8860 P   0  0  1  0  0  0  0  0  0  0  0  0
  187.9410  177.7030  135.4320 O   0  0  0  0  0  0  0  0  0  0  0  0
  189.1860  179.2460  137.1470 O   0  0  0  0  0  1  0  0  0  0  0  0
  190.2810  176.3840  136.2830 C   0  0  0  0  0  1  0  0  0  0  0  0
  189.3280  176.4760  137.3000 O   0  0  0  0  0  0  0  0  0  0  0  0
  1 13  1  1  0  0  0
  1  7  1  0  0  0  0
  3 12  1  0  0  0  0
  4 15  1  0  0  0  0
  5  2  1  0  0  0  0
  6  9  1  0  0  0  0
  7 18  1  0  0  0  0
  7  5  1  1  0  0  0
  8 17  1  6  0  0  0
  8  1  1  0  0  0  0
  8 14  1  0  0  0  0
  9 11  2  0  0  0  0
  9  3  1  0  0  0  0
 12 10  2  0  0  0  0
 12 24  1  0  0  0  0
 13  4  2  0  0  0  0
 14  5  2  0  0  0  0
 15  3  2  0  0  0  0
 15 18  1  0  0  0  0
 16  6  2  0  0  0  0
 16  4  1  0  0  0  0
 18 10  1  0  0  0  0
 19 23  1  0  0  0  0
 20 24  2  0  0  0  0
 20 21  1  0  0  0  0
 21 19  2  0  0  0  0
 22 23  2  0  0  0  0
 24 22  1  0  0  0  0
 25  6  1  0  0  0  0
 26 25  2  0  0  0  0
 27 28  2  6  0  0  0
 27 29  1  0  0  0  0
 27 31  1  0  0  0  0
 27 26  1  0  0  0  0
 30 31  1  0  0  0  0
M  END
>  <MODEL>
6

>  <REMARK>
 VINA RESULT:      -8.3      4.011      8.450
  Name = 
  4 active torsions:
  status: ('A' for Active; 'I' for Inactive)
    1  A    between atoms: P_3  and  C_17
    2  A    between atoms: P_3  and  O_31
    3  A    between atoms: C_8  and  C_14
    4  A    between atoms: C_20  and  C_29
                            x       y       z     vdW  Elec       q    Type
                         _______ _______ _______ _____ _____    ______ ____

>  <TORSDO>
F 4

$$$$
=
 OpenBabel10222415273D

 31 35  0  0  1  0  0  0  0  0999 V2000
  188.3240  178.0180  146.3630 C   0  0  2  0  0  3  0  0  0  0  0  0
  191.6690  176.6630  145.3510 C   0  0  0  0  0  1  0  0  0  0  0  0
  187.4960  177.9470  142.3710 C   0  0  0  0  0  0  0  0  0  0  0  0
  186.6270  178.3350  144.6640 C   0  0  0  0  0  0  0  0  0  0  0  0
  190.3500  177.0400  145.9270 C   0  0  0  0  0  0  0  0  0  0  0  0
  185.0570  178.5840  142.7740 C   0  0  0  0  0  0  0  0  0  0  0  0
  189.4640  178.1080  145.3770 C   0  0  1  0  0  3  0  0  0  0  0  0
  188.6580  177.1530  147.3110 C   0  0  2  0  0  3  0  0  0  0  0  0
  186.1650  178.2660  141.8120 C   0  0  0  0  0  0  0  0  0  0  0  0
  189.6630  177.6940  142.9190 N   0  0  0  0  0  0  0  0  0  0  0  0
  185.9610  178.2920  140.5710 O   0  0  0  0  0  0  0  0  0  0  0  0
  188.7910  177.7400  141.8730 C   0  0  0  0  0  0  0  0  0  0  0  0
  186.9220  178.3320  145.9730 C   0  0  0  0  0  3  0  0  0  0  0  0
  189.9160  176.5480  147.0420 N   0  0  0  0  0  0  0  0  0  0  0  0
  187.6740  177.9890  143.7110 C   0  0  0  0  0  0  0  0  0  0  0  0
  185.2860  178.6170  144.1120 C   0  0  0  0  0  3  0  0  0  0  0  0
  187.7230  176.6240  148.3450 C   0  0  0  0  0  1  0  0  0  0  0  0
  188.9560  177.8150  144.0340 N   0  0  0  0  0  0  0  0  0  0  0  0
  190.0800  177.5010  137.8280 N   0  0  0  0  0  0  0  0  0  0  0  0
  190.1260  176.6340  140.0530 C   0  0  0  0  0  3  0  0  0  0  0  0
  190.5390  176.5830  138.7200 C   0  0  0  0  0  3  0  0  0  0  0  0
  188.7860  178.5670  139.5280 C   0  0  0  0  0  3  0  0  0  0  0  0
  189.2200  178.4850  138.2030 C   0  0  0  0  0  3  0  0  0  0  0  0
  189.2340  177.6280  140.4670 C   0  0  0  0  0  0  0  0  0  0  0  0
  183.7140  178.8720  142.2360 C   0  0  0  0  0  3  0  0  0  0  0  0
  183.0260  178.0080  141.4970 C   0  0  0  0  0  3  0  0  0  0  0  0
  181.4050  178.4410  140.8860 P   0  0  1  0  0  0  0  0  0  0  0  0
  180.8130  177.2540  140.1580 O   0  0  0  0  0  0  0  0  0  0  0  0
  180.4130  178.8570  142.1920 O   0  0  0  0  0  1  0  0  0  0  0  0
  181.9840  179.2100  138.6130 C   0  0  0  0  0  1  0  0  0  0  0  0
  181.5540  179.7560  139.8250 O   0  0  0  0  0  0  0  0  0  0  0  0
  1 13  1  6  0  0  0
  1  8  1  0  0  0  0
  2  5  1  0  0  0  0
  3 15  2  0  0  0  0
  4 13  2  0  0  0  0
  5 14  2  0  0  0  0
  6 16  2  0  0  0  0
  7  5  1  1  0  0  0
  7  1  1  0  0  0  0
  8 17  1  6  0  0  0
  9  3  1  0  0  0  0
  9  6  1  0  0  0  0
 10 18  1  0  0  0  0
 11  9  2  0  0  0  0
 12  3  1  0  0  0  0
 12 10  2  0  0  0  0
 14  8  1  0  0  0  0
 15 18  1  0  0  0  0
 15  4  1  0  0  0  0
 16  4  1  0  0  0  0
 18  7  1  0  0  0  0
 19 23  2  0  0  0  0
 19 21  1  0  0  0  0
 20 24  1  0  0  0  0
 21 20  2  0  0  0  0
 22 24  2  0  0  0  0
 23 22  1  0  0  0  0
 24 12  1  0  0  0  0
 25  6  1  0  0  0  0
 26 25  2  0  0  0  0
 27 28  2  6  0  0  0
 27 26  1  0  0  0  0
 27 29  1  0  0  0  0
 30 31  1  0  0  0  0
 31 27  1  0  0  0  0
M  END
>  <MODEL>
7

>  <REMARK>
 VINA RESULT:      -8.3      1.236      1.985
  Name = 
  4 active torsions:
  status: ('A' for Active; 'I' for Inactive)
    1  A    between atoms: P_3  and  C_17
    2  A    between atoms: P_3  and  O_31
    3  A    between atoms: C_8  and  C_14
    4  A    between atoms: C_20  and  C_29
                            x       y       z     vdW  Elec       q    Type
                         _______ _______ _______ _____ _____    ______ ____

>  <TORSDO>
F 4

$$$$
=
 OpenBabel10222415273D

 31 35  0  0  1  0  0  0  0  0999 V2000
  189.4920  177.0120  144.2420 C   0  0  2  0  0  3  0  0  0  0  0  0
  187.1480  177.8420  147.0450 C   0  0  0  0  0  1  0  0  0  0  0  0
  186.4340  178.1970  141.8200 C   0  0  0  0  0  0  0  0  0  0  0  0
  188.8020  177.4650  141.9650 C   0  0  0  0  0  0  0  0  0  0  0  0
  188.2440  177.6220  146.0640 C   0  0  0  0  0  0  0  0  0  0  0  0
  187.8920  178.0040  139.7330 C   0  0  0  0  0  0  0  0  0  0  0  0
  188.0750  176.9230  144.7550 C   0  0  1  0  0  3  0  0  0  0  0  0
  190.2510  177.5380  145.1940 C   0  0  2  0  0  3  0  0  0  0  0  0
  186.5570  178.3040  140.3500 C   0  0  0  0  0  0  0  0  0  0  0  0
  185.8910  177.8580  143.9760 N   0  0  0  0  0  0  0  0  0  0  0  0
  185.5750  178.6160  139.6290 O   0  0  0  0  0  0  0  0  0  0  0  0
  185.3990  178.2430  142.7650 C   0  0  0  0  0  0  0  0  0  0  0  0
  189.7960  177.0970  142.7870 C   0  0  0  0  0  3  0  0  0  0  0  0
  189.4760  177.9150  146.3250 N   0  0  0  0  0  0  0  0  0  0  0  0
  187.5070  177.8020  142.5430 C   0  0  0  0  0  0  0  0  0  0  0  0
  188.9400  177.6070  140.5010 C   0  0  0  0  0  3  0  0  0  0  0  0
  191.6590  177.9890  145.0050 C   0  0  0  0  0  1  0  0  0  0  0  0
  187.1870  177.6250  143.8250 N   0  0  0  0  0  0  0  0  0  0  0  0
  181.2950  179.1680  142.1450 N   0  0  0  0  0  0  0  0  0  0  0  0
  183.1920  179.1150  143.5950 C   0  0  0  0  0  3  0  0  0  0  0  0
  181.8450  179.4030  143.3670 C   0  0  0  0  0  3  0  0  0  0  0  0
  183.3790  178.3490  141.3180 C   0  0  0  0  0  3  0  0  0  0  0  0
  182.0300  178.6490  141.1250 C   0  0  0  0  0  3  0  0  0  0  0  0
  183.9760  178.5900  142.5620 C   0  0  0  0  0  0  0  0  0  0  0  0
  188.0420  178.1370  138.2720 C   0  0  0  0  0  3  0  0  0  0  0  0
  187.9450  177.1100  137.4340 C   0  0  0  0  0  3  0  0  0  0  0  0
  188.1430  177.3630  135.6770 P   0  0  1  0  0  0  0  0  0  0  0  0
  189.4610  178.0600  135.4200 O   0  0  0  0  0  1  0  0  0  0  0  0
  188.1330  175.8610  134.8970 O   0  0  0  0  0  0  0  0  0  0  0  0
  185.7850  177.4460  134.9540 C   0  0  0  0  0  1  0  0  0  0  0  0
  186.8620  178.3210  135.1160 O   0  0  0  0  0  0  0  0  0  0  0  0
  1 13  1  6  0  0  0
  1  7  1  0  0  0  0
  1  8  1  0  0  0  0
  3 15  2  0  0  0  0
  3 12  1  0  0  0  0
  4 15  1  0  0  0  0
  4 13  2  0  0  0  0
  5 14  2  0  0  0  0
  5  2  1  0  0  0  0
  6  9  1  0  0  0  0
  6 16  2  0  0  0  0
  7  5  1  1  0  0  0
  8 17  1  6  0  0  0
  8 14  1  0  0  0  0
  9  3  1  0  0  0  0
 11  9  2  0  0  0  0
 12 10  2  0  0  0  0
 15 18  1  0  0  0  0
 16  4  1  0  0  0  0
 18 10  1  0  0  0  0
 18  7  1  0  0  0  0
 19 21  1  0  0  0  0
 21 20  2  0  0  0  0
 22 24  2  0  0  0  0
 23 22  1  0  0  0  0
 23 19  2  0  0  0  0
 24 12  1  0  0  0  0
 24 20  1  0  0  0  0
 25  6  1  0  0  0  0
 26 25  2  0  0  0  0
 27 29  2  6  0  0  0
 27 26  1  0  0  0  0
 28 27  1  0  0  0  0
 30 31  1  0  0  0  0
 31 27  1  0  0  0  0
M  END
>  <MODEL>
8

>  <REMARK>
 VINA RESULT:      -8.1      3.474      6.484
  Name = 
  4 active torsions:
  status: ('A' for Active; 'I' for Inactive)
    1  A    between atoms: P_3  and  C_17
    2  A    between atoms: P_3  and  O_31
    3  A    between atoms: C_8  and  C_14
    4  A    between atoms: C_20  and  C_29
                            x       y       z     vdW  Elec       q    Type
                         _______ _______ _______ _____ _____    ______ ____

>  <TORSDO>
F 4

$$$$
=
 OpenBabel10222415273D

 31 35  0  0  1  0  0  0  0  0999 V2000
  188.3840  177.6360  139.5580 C   0  0  2  0  0  3  0  0  0  0  0  0
  191.6510  177.3160  141.3650 C   0  0  0  0  0  1  0  0  0  0  0  0
  186.7960  178.1650  143.2760 C   0  0  0  0  0  0  0  0  0  0  0  0
  186.3910  178.1730  140.8260 C   0  0  0  0  0  0  0  0  0  0  0  0
  190.4740  177.5780  140.4940 C   0  0  0  0  0  0  0  0  0  0  0  0
  184.4960  178.7170  142.3140 C   0  0  0  0  0  0  0  0  0  0  0  0
  189.1000  177.0510  140.7500 C   0  0  1  0  0  3  0  0  0  0  0  0
  189.2780  178.2280  138.7790 C   0  0  2  0  0  3  0  0  0  0  0  0
  185.3770  178.5090  143.5120 C   0  0  0  0  0  0  0  0  0  0  0  0
  188.9030  177.3790  143.2210 N   0  0  0  0  0  0  0  0  0  0  0  0
  184.9090  178.6070  144.6750 O   0  0  0  0  0  0  0  0  0  0  0  0
  187.8930  177.7630  144.0520 C   0  0  0  0  0  0  0  0  0  0  0  0
  186.9440  178.0120  139.6150 C   0  0  0  0  0  3  0  0  0  0  0  0
  190.5760  178.1900  139.3590 N   0  0  0  0  0  0  0  0  0  0  0  0
  187.2350  178.0170  142.0050 C   0  0  0  0  0  0  0  0  0  0  0  0
  184.9820  178.5530  141.0560 C   0  0  0  0  0  3  0  0  0  0  0  0
  188.9470  179.1070  137.6210 C   0  0  0  0  0  1  0  0  0  0  0  0
  188.4920  177.5740  141.9760 N   0  0  0  0  0  0  0  0  0  0  0  0
  188.2960  177.5730  148.2800 N   0  0  0  0  0  0  0  0  0  0  0  0
  187.0130  178.1990  146.3660 C   0  0  0  0  0  3  0  0  0  0  0  0
  187.1740  178.1310  147.7510 C   0  0  0  0  0  3  0  0  0  0  0  0
  189.1560  177.1290  146.0980 C   0  0  0  0  0  3  0  0  0  0  0  0
  189.2830  177.0770  147.4870 C   0  0  0  0  0  3  0  0  0  0  0  0
  188.0060  177.6870  145.5240 C   0  0  0  0  0  0  0  0  0  0  0  0
  183.0870  179.0930  142.5300 C   0  0  0  0  0  3  0  0  0  0  0  0
  182.0940  178.6700  141.7530 C   0  0  0  0  0  3  0  0  0  0  0  0
  180.4150  179.1770  142.0870 P   0  0  1  0  0  0  0  0  0  0  0  0
  180.4310  180.5030  142.8170 O   0  0  0  0  0  1  0  0  0  0  0  0
  179.5850  179.3470  140.6220 O   0  0  0  0  0  0  0  0  0  0  0  0
  179.6630  178.5180  144.3430 C   0  0  0  0  0  1  0  0  0  0  0  0
  179.6680  177.9960  143.0480 O   0  0  0  0  0  0  0  0  0  0  0  0
  1 13  1  1  0  0  0
  1  7  1  0  0  0  0
  3  9  1  0  0  0  0
  3 12  1  0  0  0  0
  4 16  1  0  0  0  0
  4 15  1  0  0  0  0
  5  2  1  0  0  0  0
  6 25  1  0  0  0  0
  6  9  1  0  0  0  0
  7  5  1  6  0  0  0
  7 18  1  0  0  0  0
  8 17  1  1  0  0  0
  8 14  1  0  0  0  0
  8  1  1  0  0  0  0
  9 11  2  0  0  0  0
 10 12  2  0  0  0  0
 12 24  1  0  0  0  0
 13  4  2  0  0  0  0
 14  5  2  0  0  0  0
 15  3  2  0  0  0  0
 16  6  2  0  0  0  0
 18 15  1  0  0  0  0
 18 10  1  0  0  0  0
 20 21  2  0  0  0  0
 21 19  1  0  0  0  0
 22 23  1  0  0  0  0
 23 19  2  0  0  0  0
 24 22  2  0  0  0  0
 24 20  1  0  0  0  0
 26 27  1  0  0  0  0
 26 25  2  0  0  0  0
 27 29  2  6  0  0  0
 27 28  1  0  0  0  0
 27 31  1  0  0  0  0
 31 30  1  0  0  0  0
M  END
>  <MODEL>
9

>  <REMARK>
 VINA RESULT:      -8.0      1.380      5.364
  Name = 
  4 active torsions:
  status: ('A' for Active; 'I' for Inactive)
    1  A    between atoms: P_3  and  C_17
    2  A    between atoms: P_3  and  O_31
    3  A    between atoms: C_8  and  C_14
    4  A    between atoms: C_20  and  C_29
                            x       y       z     vdW  Elec       q    Type
                         _______ _______ _______ _____ _____    ______ ____

>  <TORSDO>
F 4

$$$$
