=
 OpenBabel10222418243D

 58 64  0  0  1  0  0  0  0  0999 V2000
  189.0130  177.3140  140.5600 S   0  0  0  0  0  0  0  0  0  0  0  0
  192.1550  177.3280  141.1840 C   0  0  0  0  0  2  0  0  0  0  0  0
  191.1540  177.9590  142.1420 C   0  0  0  0  0  2  0  0  0  0  0  0
  191.6380  177.3540  139.7520 C   0  0  0  0  0  2  0  0  0  0  0  0
  190.3730  176.5110  139.6240 C   0  0  2  0  0  3  0  0  0  0  0  0
  189.8610  177.1590  142.1690 C   0  0  1  0  0  3  0  0  0  0  0  0
  190.4700  174.9070  137.5260 C   0  0  1  0  0  3  0  0  0  0  0  0
  191.2670  176.1720  137.2580 C   0  0  0  0  0  2  0  0  0  0  0  0
  190.0320  176.2390  138.1420 C   0  0  2  0  0  0  0  0  0  0  0  0
  188.2820  179.0890  136.3500 C   0  0  0  0  0  3  0  0  0  0  0  0
  189.1550  178.4430  137.1230 C   0  0  0  0  0  3  0  0  0  0  0  0
  186.6180  177.2040  136.5750 C   0  0  0  0  0  2  0  0  0  0  0  0
  187.7600  176.4350  137.1820 C   0  0  0  0  0  3  0  0  0  0  0  0
  188.9130  177.0350  137.5120 C   0  0  0  0  0  0  0  0  0  0  0  0
  187.0860  178.4270  135.9210 N   0  0  0  0  0  2  0  0  0  0  0  0
  189.7040  174.5080  136.2710 C   0  0  0  0  0  2  0  0  0  0  0  0
  189.6460  172.9940  136.1500 C   0  0  0  0  0  2  0  0  0  0  0  0
  188.5380  172.4710  136.9390 N   0  0  0  0  0  2  0  0  0  0  0  0
  187.4350  170.6610  135.0340 C   0  0  0  0  0  2  0  0  0  0  0  0
  186.3470  173.4560  137.2270 C   0  0  0  0  0  2  0  0  0  0  0  0
  187.3080  172.8090  136.2380 C   0  0  2  0  0  3  0  0  0  0  0  0
  186.6670  171.5830  135.6170 C   0  0  0  0  0  0  0  0  0  0  0  0
  184.4810  172.8800  135.6870 C   0  0  0  0  0  0  0  0  0  0  0  0
  182.2480  171.7420  135.5520 C   0  0  2  0  0  3  0  0  0  0  0  0
  182.9890  170.4920  135.0420 C   0  0  0  0  0  2  0  0  0  0  0  0
  183.0570  173.0070  135.2050 C   0  0  1  0  0  3  0  0  0  0  0  0
  184.4250  170.4080  135.5850 C   0  0  0  0  0  2  0  0  0  0  0  0
  185.2170  171.6570  135.1890 C   0  0  2  0  0  3  0  0  0  0  0  0
  185.0030  173.7080  136.6070 C   0  0  0  0  0  3  0  0  0  0  0  0
  182.3710  174.3060  135.5260 C   0  0  0  0  0  0  0  0  0  0  0  0
  181.7150  174.9020  134.6280 O   0  0  0  0  0  0  0  0  0  0  0  0
  182.5140  174.8980  136.7730 O   0  0  0  0  0  1  0  0  0  0  0  0
  180.4940  171.7920  137.3350 C   0  0  0  0  0  1  0  0  0  0  0  0
  181.9730  171.6260  137.0520 C   0  0  0  0  0  2  0  0  0  0  0  0
  188.9640  177.6940  143.2720 C   0  0  0  0  0  2  0  0  0  0  0  0
  189.7390  177.9500  144.4770 N   0  0  0  0  0  2  0  0  0  0  0  0
  188.2480  176.3690  148.2270 F   0  0  0  0  0  0  0  0  0  0  0  0
  188.2490  177.7200  147.9250 C   0  0  0  0  0  0  0  0  0  0  0  0
  189.0930  177.2400  145.5720 C   0  0  1  0  0  3  0  0  0  0  0  0
  186.8550  178.1220  147.4010 C   0  0  1  0  0  3  0  0  0  0  0  0
  188.5420  178.4240  149.0820 F   0  0  0  0  0  0  0  0  0  0  0  0
  186.4800  179.3640  147.8800 F   0  0  0  0  0  0  0  0  0  0  0  0
  189.3350  178.0010  146.8860 C   0  0  0  0  0  2  0  0  0  0  0  0
  186.7370  178.1130  145.8710 C   0  0  1  0  0  3  0  0  0  0  0  0
  187.6070  177.0170  145.2560 C   0  0  0  0  0  2  0  0  0  0  0  0
  185.4020  177.9210  145.5060 O   0  0  0  0  0  0  0  0  0  0  0  0
  185.4940  179.6880  143.8760 C   0  0  0  0  0  2  0  0  0  0  0  0
  183.3080  179.0480  142.8720 C   0  0  0  0  0  2  0  0  0  0  0  0
  184.9110  179.1960  145.2080 C   0  0  1  0  0  3  0  0  0  0  0  0
  183.3820  179.1700  145.1170 C   0  0  0  0  0  2  0  0  0  0  0  0
  182.9730  178.3540  144.0490 O   0  0  0  0  0  0  0  0  0  0  0  0
  184.8390  179.0450  142.6430 C   0  0  2  0  0  0  0  0  0  0  0  0
  185.3710  177.6180  142.5170 C   0  0  0  0  0  1  0  0  0  0  0  0
  185.2330  179.8230  141.5210 O   0  0  0  0  0  0  0  0  0  0  0  0
  185.9980  178.5550  139.2870 O   0  0  0  0  0  1  0  0  0  0  0  0
  183.6820  177.8670  140.2890 O   0  0  0  0  0  1  0  0  0  0  0  0
  184.7960  179.1120  140.0200 P   0  0  0  0  0  0  0  0  0  0  0  0
  184.0640  180.2940  139.0520 O   0  0  0  0  0  0  0  0  0  0  0  0
  1  6  1  0  0  0  0
  2  3  1  0  0  0  0
  3  6  1  0  0  0  0
  4  2  1  0  0  0  0
  5  4  1  6  0  0  0
  5  1  1  0  0  0  0
  6 35  1  1  0  0  0
  7 16  1  6  0  0  0
  7  9  1  0  0  0  0
  8  7  1  0  0  0  0
  8  9  1  0  0  0  0
  9 14  1  6  0  0  0
  9  5  1  0  0  0  0
 10 11  2  0  0  0  0
 11 14  1  0  0  0  0
 12 13  1  0  0  0  0
 13 14  2  0  0  0  0
 15 10  1  0  0  0  0
 15 12  1  0  0  0  0
 17 16  1  0  0  0  0
 17 18  1  0  0  0  0
 19 22  2  0  0  0  0
 21 18  1  1  0  0  0
 21 20  1  0  0  0  0
 22 21  1  0  0  0  0
 23 29  2  0  0  0  0
 24 34  1  1  0  0  0
 25 24  1  0  0  0  0
 25 27  1  0  0  0  0
 26 30  1  1  0  0  0
 26 24  1  0  0  0  0
 26 23  1  0  0  0  0
 28 27  1  1  0  0  0
 28 22  1  0  0  0  0
 28 23  1  0  0  0  0
 29 20  1  0  0  0  0
 30 32  1  0  0  0  0
 31 30  2  0  0  0  0
 34 33  1  0  0  0  0
 35 36  1  0  0  0  0
 38 37  1  0  0  0  0
 38 41  1  0  0  0  0
 39 36  1  6  0  0  0
 39 43  1  0  0  0  0
 40 42  1  6  0  0  0
 40 38  1  0  0  0  0
 43 38  1  0  0  0  0
 44 46  1  1  0  0  0
 44 40  1  0  0  0  0
 45 39  1  0  0  0  0
 45 44  1  0  0  0  0
 47 49  1  0  0  0  0
 48 51  1  0  0  0  0
 49 46  1  6  0  0  0
 50 49  1  0  0  0  0
 51 50  1  0  0  0  0
 52 53  1  6  0  0  0
 52 48  1  0  0  0  0
 52 47  1  0  0  0  0
 54 52  1  0  0  0  0
 55 57  1  0  0  0  0
 57 56  1  0  0  0  0
 57 54  1  0  0  0  0
 58 57  2  0  0  0  0
M  END
>  <MODEL>
1

>  <REMARK>
 VINA RESULT:      -8.5      0.000      0.000
  Name = 
  15 active torsions:
  status: ('A' for Active; 'I' for Inactive)
    1  A    between atoms: N_3  and  C_4
    2  A    between atoms: N_3  and  C_15
    3  A    between atoms: C_4  and  C_20
    4  A    between atoms: C_7  and  C_47
    5  A    between atoms: C_11  and  C_34
    6  A    between atoms: N_13  and  C_25
    7  A    between atoms: N_13  and  C_37
    8  A    between atoms: O_19  and  C_26
    9  A    between atoms: O_19  and  C_55
   10  A    between atoms: C_20  and  C_22
   11  A    between atoms: C_25  and  C_53
   12  A    between atoms: P_31  and  O_50
   13  A    between atoms: C_40  and  O_50
   14  A    between atoms: C_42  and  C_57
   15  A    between atoms: C_43  and  C_57
                            x       y       z     vdW  Elec       q    Type
                         _______ _______ _______ _____ _____    ______ ____

>  <TORSDO>
F 15

$$$$
=
 OpenBabel10222418243D

 58 64  0  0  1  0  0  0  0  0999 V2000
  190.3970  176.4420  141.1570 S   0  0  0  0  0  0  0  0  0  0  0  0
  188.4890  179.0130  141.0790 C   0  0  0  0  0  2  0  0  0  0  0  0
  188.8080  178.3040  142.3870 C   0  0  0  0  0  2  0  0  0  0  0  0
  188.5620  178.0530  139.8990 C   0  0  0  0  0  2  0  0  0  0  0  0
  189.9820  177.5200  139.7300 C   0  0  2  0  0  3  0  0  0  0  0  0
  190.2380  177.7880  142.3800 C   0  0  1  0  0  3  0  0  0  0  0  0
  189.3700  177.3740  137.1640 C   0  0  1  0  0  3  0  0  0  0  0  0
  188.8990  176.1250  137.8880 C   0  0  0  0  0  2  0  0  0  0  0  0
  190.1600  176.8330  138.3580 C   0  0  2  0  0  0  0  0  0  0  0  0
  192.3420  173.9520  137.2010 C   0  0  0  0  0  3  0  0  0  0  0  0
  191.2730  174.6160  137.6410 C   0  0  0  0  0  3  0  0  0  0  0  0
  193.8760  175.7670  138.0510 C   0  0  0  0  0  2  0  0  0  0  0  0
  192.6170  176.5680  138.2450 C   0  0  0  0  0  3  0  0  0  0  0  0
  191.4050  176.0060  138.1340 C   0  0  0  0  0  0  0  0  0  0  0  0
  193.6310  174.5760  137.2370 N   0  0  0  0  0  2  0  0  0  0  0  0
  189.9410  176.9940  135.8030 C   0  0  0  0  0  2  0  0  0  0  0  0
  188.8160  176.7710  134.8050 C   0  0  0  0  0  2  0  0  0  0  0  0
  188.4310  175.3660  134.7890 N   0  0  0  0  0  2  0  0  0  0  0  0
  187.0810  172.8560  134.7900 C   0  0  0  0  0  2  0  0  0  0  0  0
  186.3570  176.4490  135.4090 C   0  0  0  0  0  2  0  0  0  0  0  0
  186.9880  175.3140  134.6110 C   0  0  2  0  0  3  0  0  0  0  0  0
  186.4190  173.9820  135.0630 C   0  0  0  0  0  0  0  0  0  0  0  0
  184.2060  175.2000  135.3550 C   0  0  0  0  0  0  0  0  0  0  0  0
  182.3600  174.2900  136.7910 C   0  0  2  0  0  3  0  0  0  0  0  0
  183.0910  172.9340  136.7560 C   0  0  0  0  0  2  0  0  0  0  0  0
  182.7110  175.1050  135.5310 C   0  0  1  0  0  3  0  0  0  0  0  0
  184.6110  173.0990  136.5970 C   0  0  0  0  0  2  0  0  0  0  0  0
  184.9310  173.8740  135.3170 C   0  0  2  0  0  3  0  0  0  0  0  0
  184.8580  176.3750  135.3840 C   0  0  0  0  0  3  0  0  0  0  0  0
  181.9510  176.3930  135.3780 C   0  0  0  0  0  0  0  0  0  0  0  0
  182.5590  177.4930  135.4910 O   0  0  0  0  0  1  0  0  0  0  0  0
  180.5760  176.3910  135.1910 O   0  0  0  0  0  0  0  0  0  0  0  0
  181.4280  175.5260  138.7570 C   0  0  0  0  0  1  0  0  0  0  0  0
  182.6950  175.0440  138.0780 C   0  0  0  0  0  2  0  0  0  0  0  0
  190.5890  177.2640  143.7630 C   0  0  0  0  0  2  0  0  0  0  0  0
  190.0870  178.1660  144.7890 N   0  0  0  0  0  2  0  0  0  0  0  0
  188.1370  176.3130  148.1860 F   0  0  0  0  0  0  0  0  0  0  0  0
  188.1210  177.6780  147.9600 C   0  0  0  0  0  0  0  0  0  0  0  0
  189.3210  177.3700  145.7360 C   0  0  1  0  0  3  0  0  0  0  0  0
  186.8020  178.0590  147.2570 C   0  0  1  0  0  3  0  0  0  0  0  0
  188.2090  178.3220  149.1830 F   0  0  0  0  0  0  0  0  0  0  0  0
  186.3050  179.2550  147.7400 F   0  0  0  0  0  0  0  0  0  0  0  0
  189.3340  178.0600  147.1110 C   0  0  0  0  0  2  0  0  0  0  0  0
  186.9100  178.1360  145.7270 C   0  0  1  0  0  3  0  0  0  0  0  0
  187.9090  177.1110  145.1920 C   0  0  0  0  0  2  0  0  0  0  0  0
  185.6530  177.9160  145.1590 O   0  0  0  0  0  0  0  0  0  0  0  0
  185.5670  179.6730  143.5180 C   0  0  0  0  0  2  0  0  0  0  0  0
  183.2860  179.0260  142.7590 C   0  0  0  0  0  2  0  0  0  0  0  0
  185.1310  179.1900  144.9070 C   0  0  1  0  0  3  0  0  0  0  0  0
  183.6010  179.1620  144.9820 C   0  0  0  0  0  2  0  0  0  0  0  0
  183.0810  178.3400  143.9690 O   0  0  0  0  0  0  0  0  0  0  0  0
  184.7840  179.0220  142.3660 C   0  0  2  0  0  0  0  0  0  0  0  0
  185.3010  177.5940  142.1930 C   0  0  0  0  0  1  0  0  0  0  0  0
  185.0540  179.7930  141.2040 O   0  0  0  0  0  0  0  0  0  0  0  0
  183.3030  178.0810  140.1140 O   0  0  0  0  0  1  0  0  0  0  0  0
  183.5360  180.4150  138.9550 O   0  0  0  0  0  1  0  0  0  0  0  0
  184.3110  179.1640  139.7890 P   0  0  0  0  0  0  0  0  0  0  0  0
  185.5130  178.5090  138.7900 O   0  0  0  0  0  0  0  0  0  0  0  0
  1  6  1  0  0  0  0
  2  3  1  0  0  0  0
  4  2  1  0  0  0  0
  5  4  1  1  0  0  0
  5  1  1  0  0  0  0
  6  3  1  0  0  0  0
  6 35  1  1  0  0  0
  7 16  1  6  0  0  0
  7  8  1  0  0  0  0
  7  9  1  0  0  0  0
  8  9  1  0  0  0  0
  9 14  1  6  0  0  0
  9  5  1  0  0  0  0
 10 15  1  0  0  0  0
 10 11  2  0  0  0  0
 11 14  1  0  0  0  0
 12 13  1  0  0  0  0
 14 13  2  0  0  0  0
 15 12  1  0  0  0  0
 17 16  1  0  0  0  0
 18 17  1  0  0  0  0
 19 22  2  0  0  0  0
 21 18  1  1  0  0  0
 21 22  1  0  0  0  0
 21 20  1  0  0  0  0
 22 28  1  0  0  0  0
 23 29  2  0  0  0  0
 23 26  1  0  0  0  0
 24 34  1  1  0  0  0
 25 24  1  0  0  0  0
 26 30  1  1  0  0  0
 26 24  1  0  0  0  0
 27 25  1  0  0  0  0
 28 23  1  0  0  0  0
 28 27  1  1  0  0  0
 29 20  1  0  0  0  0
 30 31  1  0  0  0  0
 32 30  2  0  0  0  0
 34 33  1  0  0  0  0
 35 36  1  0  0  0  0
 38 37  1  0  0  0  0
 38 41  1  0  0  0  0
 39 36  1  6  0  0  0
 39 43  1  0  0  0  0
 40 42  1  1  0  0  0
 40 38  1  0  0  0  0
 43 38  1  0  0  0  0
 44 46  1  6  0  0  0
 44 40  1  0  0  0  0
 45 44  1  0  0  0  0
 45 39  1  0  0  0  0
 47 49  1  0  0  0  0
 48 51  1  0  0  0  0
 49 50  1  0  0  0  0
 49 46  1  6  0  0  0
 51 50  1  0  0  0  0
 52 53  1  6  0  0  0
 52 48  1  0  0  0  0
 52 47  1  0  0  0  0
 54 52  1  0  0  0  0
 56 57  1  0  0  0  0
 57 55  1  0  0  0  0
 57 54  1  0  0  0  0
 58 57  2  0  0  0  0
M  END
>  <MODEL>
2

>  <REMARK>
 VINA RESULT:      -8.3      1.683      2.811
  Name = 
  15 active torsions:
  status: ('A' for Active; 'I' for Inactive)
    1  A    between atoms: N_3  and  C_4
    2  A    between atoms: N_3  and  C_15
    3  A    between atoms: C_4  and  C_20
    4  A    between atoms: C_7  and  C_47
    5  A    between atoms: C_11  and  C_34
    6  A    between atoms: N_13  and  C_25
    7  A    between atoms: N_13  and  C_37
    8  A    between atoms: O_19  and  C_26
    9  A    between atoms: O_19  and  C_55
   10  A    between atoms: C_20  and  C_22
   11  A    between atoms: C_25  and  C_53
   12  A    between atoms: P_31  and  O_50
   13  A    between atoms: C_40  and  O_50
   14  A    between atoms: C_42  and  C_57
   15  A    between atoms: C_43  and  C_57
                            x       y       z     vdW  Elec       q    Type
                         _______ _______ _______ _____ _____    ______ ____

>  <TORSDO>
F 15

$$$$
=
 OpenBabel10222418243D

 58 64  0  0  1  0  0  0  0  0999 V2000
  185.6770  178.2170  142.6170 S   0  0  0  0  0  0  0  0  0  0  0  0
  184.0010  179.0500  145.2160 C   0  0  0  0  0  2  0  0  0  0  0  0
  183.4800  179.3320  143.8130 C   0  0  0  0  0  2  0  0  0  0  0  0
  185.5230  179.0130  145.2420 C   0  0  0  0  0  2  0  0  0  0  0  0
  186.0450  177.8670  144.3810 C   0  0  2  0  0  3  0  0  0  0  0  0
  183.8690  178.2100  142.8630 C   0  0  1  0  0  3  0  0  0  0  0  0
  188.5460  177.8160  143.5310 C   0  0  1  0  0  3  0  0  0  0  0  0
  188.0790  176.4120  143.8730 C   0  0  0  0  0  2  0  0  0  0  0  0
  187.5390  177.5940  144.6630 C   0  0  2  0  0  0  0  0  0  0  0  0
  189.8190  177.0740  147.6520 C   0  0  0  0  0  3  0  0  0  0  0  0
  189.2590  176.8910  146.4560 C   0  0  0  0  0  3  0  0  0  0  0  0
  187.7800  178.3200  148.4650 C   0  0  0  0  0  2  0  0  0  0  0  0
  187.3580  178.3220  147.0200 C   0  0  0  0  0  3  0  0  0  0  0  0
  188.0020  177.5880  146.1010 C   0  0  0  0  0  0  0  0  0  0  0  0
  189.1810  177.9250  148.6110 N   0  0  0  0  0  2  0  0  0  0  0  0
  189.9860  178.0040  143.9940 C   0  0  0  0  0  2  0  0  0  0  0  0
  190.8520  178.4760  142.8370 C   0  0  0  0  0  2  0  0  0  0  0  0
  191.1920  177.3520  141.9750 N   0  0  0  0  0  2  0  0  0  0  0  0
  192.9110  177.0120  139.7270 C   0  0  0  0  0  2  0  0  0  0  0  0
  189.2800  177.1830  140.5000 C   0  0  0  0  0  2  0  0  0  0  0  0
  190.7170  177.6730  140.6370 C   0  0  2  0  0  3  0  0  0  0  0  0
  191.5860  177.0360  139.5690 C   0  0  0  0  0  0  0  0  0  0  0  0
  189.5720  177.2270  138.0300 C   0  0  0  0  0  0  0  0  0  0  0  0
  189.3500  175.8520  135.9430 C   0  0  2  0  0  3  0  0  0  0  0  0
  190.8550  175.5440  136.0650 C   0  0  0  0  0  2  0  0  0  0  0  0
  189.0360  177.2000  136.6200 C   0  0  1  0  0  3  0  0  0  0  0  0
  191.3340  175.5650  137.5260 C   0  0  0  0  0  2  0  0  0  0  0  0
  191.0480  176.9290  138.1600 C   0  0  2  0  0  3  0  0  0  0  0  0
  188.7680  177.3560  139.1000 C   0  0  0  0  0  3  0  0  0  0  0  0
  187.6230  177.6820  136.4470 C   0  0  0  0  0  0  0  0  0  0  0  0
  186.6850  176.8420  136.3640 O   0  0  0  0  0  1  0  0  0  0  0  0
  187.3440  179.0330  136.2990 O   0  0  0  0  0  0  0  0  0  0  0  0
  187.9370  173.8560  135.4160 C   0  0  0  0  0  1  0  0  0  0  0  0
  188.5210  174.7060  136.5250 C   0  0  0  0  0  2  0  0  0  0  0  0
  183.1720  178.4190  141.5290 C   0  0  0  0  0  2  0  0  0  0  0  0
  184.1170  178.2640  140.4340 N   0  0  0  0  0  2  0  0  0  0  0  0
  181.9450  175.4660  137.9360 F   0  0  0  0  0  0  0  0  0  0  0  0
  181.4410  175.9640  139.1250 C   0  0  0  0  0  0  0  0  0  0  0  0
  183.4520  177.5030  139.3860 C   0  0  1  0  0  3  0  0  0  0  0  0
  180.5040  177.1510  138.8180 C   0  0  1  0  0  3  0  0  0  0  0  0
  180.7340  174.9530  139.7550 F   0  0  0  0  0  0  0  0  0  0  0  0
  179.3940  177.1370  139.6420 F   0  0  0  0  0  0  0  0  0  0  0  0
  182.6020  176.3910  140.0230 C   0  0  0  0  0  2  0  0  0  0  0  0
  181.1860  178.5240  138.9100 C   0  0  1  0  0  3  0  0  0  0  0  0
  182.6490  178.4440  138.4760 C   0  0  0  0  0  2  0  0  0  0  0  0
  180.5020  179.4400  138.1080 O   0  0  0  0  0  0  0  0  0  0  0  0
  181.1670  181.5280  137.1150 C   0  0  0  0  0  2  0  0  0  0  0  0
  179.1440  182.7150  137.9480 C   0  0  0  0  0  2  0  0  0  0  0  0
  181.0740  180.6840  138.3930 C   0  0  1  0  0  3  0  0  0  0  0  0
  180.2360  181.4290  139.4370 C   0  0  0  0  0  2  0  0  0  0  0  0
  178.9610  181.7150  138.9200 O   0  0  0  0  0  0  0  0  0  0  0  0
  179.8250  182.1390  136.6820 C   0  0  2  0  0  0  0  0  0  0  0  0
  178.9780  181.0270  136.0620 C   0  0  0  0  0  1  0  0  0  0  0  0
  180.1250  183.1340  135.7130 O   0  0  0  0  0  0  0  0  0  0  0  0
  179.7300  185.3440  137.1790 O   0  0  0  0  0  1  0  0  0  0  0  0
  182.0570  184.1740  137.4260 O   0  0  0  0  0  1  0  0  0  0  0  0
  180.7720  184.5700  136.3990 P   0  0  0  0  0  0  0  0  0  0  0  0
  181.3600  185.5510  135.1490 O   0  0  0  0  0  0  0  0  0  0  0  0
  1  6  1  0  0  0  0
  1  5  1  0  0  0  0
  2  4  1  0  0  0  0
  3  2  1  0  0  0  0
  5  9  1  0  0  0  0
  5  4  1  1  0  0  0
  6 35  1  6  0  0  0
  6  3  1  0  0  0  0
  7  8  1  0  0  0  0
  7 16  1  1  0  0  0
  7  9  1  0  0  0  0
  8  9  1  0  0  0  0
  9 14  1  1  0  0  0
 10 15  1  0  0  0  0
 11 10  2  0  0  0  0
 12 15  1  0  0  0  0
 13 12  1  0  0  0  0
 14 11  1  0  0  0  0
 14 13  2  0  0  0  0
 17 16  1  0  0  0  0
 18 17  1  0  0  0  0
 20 21  1  0  0  0  0
 21 18  1  1  0  0  0
 22 19  2  0  0  0  0
 22 21  1  0  0  0  0
 23 28  1  0  0  0  0
 23 29  2  0  0  0  0
 24 25  1  0  0  0  0
 24 34  1  1  0  0  0
 24 26  1  0  0  0  0
 25 27  1  0  0  0  0
 26 30  1  1  0  0  0
 26 23  1  0  0  0  0
 28 27  1  1  0  0  0
 28 22  1  0  0  0  0
 29 20  1  0  0  0  0
 31 30  1  0  0  0  0
 32 30  2  0  0  0  0
 33 34  1  0  0  0  0
 36 35  1  0  0  0  0
 37 38  1  0  0  0  0
 38 41  1  0  0  0  0
 38 43  1  0  0  0  0
 39 43  1  0  0  0  0
 39 36  1  1  0  0  0
 40 44  1  0  0  0  0
 40 38  1  0  0  0  0
 40 42  1  1  0  0  0
 44 46  1  6  0  0  0
 45 44  1  0  0  0  0
 45 39  1  0  0  0  0
 47 49  1  0  0  0  0
 48 51  1  0  0  0  0
 49 46  1  6  0  0  0
 49 50  1  0  0  0  0
 51 50  1  0  0  0  0
 52 53  1  6  0  0  0
 52 47  1  0  0  0  0
 52 48  1  0  0  0  0
 54 57  1  0  0  0  0
 54 52  1  0  0  0  0
 57 55  1  0  0  0  0
 57 56  1  0  0  0  0
 58 57  2  0  0  0  0
M  END
>  <MODEL>
3

>  <REMARK>
 VINA RESULT:      -7.9      4.444      8.541
  Name = 
  15 active torsions:
  status: ('A' for Active; 'I' for Inactive)
    1  A    between atoms: N_3  and  C_4
    2  A    between atoms: N_3  and  C_15
    3  A    between atoms: C_4  and  C_20
    4  A    between atoms: C_7  and  C_47
    5  A    between atoms: C_11  and  C_34
    6  A    between atoms: N_13  and  C_25
    7  A    between atoms: N_13  and  C_37
    8  A    between atoms: O_19  and  C_26
    9  A    between atoms: O_19  and  C_55
   10  A    between atoms: C_20  and  C_22
   11  A    between atoms: C_25  and  C_53
   12  A    between atoms: P_31  and  O_50
   13  A    between atoms: C_40  and  O_50
   14  A    between atoms: C_42  and  C_57
   15  A    between atoms: C_43  and  C_57
                            x       y       z     vdW  Elec       q    Type
                         _______ _______ _______ _____ _____    ______ ____

>  <TORSDO>
F 15

$$$$
=
 OpenBabel10222418243D

 58 64  0  0  1  0  0  0  0  0999 V2000
  186.0740  178.3910  142.3900 S   0  0  0  0  0  0  0  0  0  0  0  0
  184.1200  178.8280  144.8900 C   0  0  0  0  0  2  0  0  0  0  0  0
  183.7250  179.2720  143.4890 C   0  0  0  0  0  2  0  0  0  0  0  0
  185.6330  178.8370  145.0650 C   0  0  0  0  0  2  0  0  0  0  0  0
  186.2860  177.8280  144.1250 C   0  0  2  0  0  3  0  0  0  0  0  0
  184.2530  178.2950  142.4500 C   0  0  1  0  0  3  0  0  0  0  0  0
  188.8440  177.7910  143.4640 C   0  0  1  0  0  3  0  0  0  0  0  0
  188.3620  176.3850  143.7810 C   0  0  0  0  0  2  0  0  0  0  0  0
  187.7570  177.5690  144.5190 C   0  0  2  0  0  0  0  0  0  0  0  0
  189.8370  177.1650  147.6670 C   0  0  0  0  0  3  0  0  0  0  0  0
  189.3820  176.9600  146.4310 C   0  0  0  0  0  3  0  0  0  0  0  0
  187.6650  178.2640  148.3330 C   0  0  0  0  0  2  0  0  0  0  0  0
  187.3530  178.2550  146.8610 C   0  0  0  0  0  3  0  0  0  0  0  0
  188.1110  177.5770  145.9880 C   0  0  0  0  0  0  0  0  0  0  0  0
  189.0750  177.9610  148.5820 N   0  0  0  0  0  2  0  0  0  0  0  0
  190.2440  177.9930  144.0310 C   0  0  0  0  0  2  0  0  0  0  0  0
  191.2320  178.2640  142.9080 C   0  0  0  0  0  2  0  0  0  0  0  0
  191.2910  177.1200  142.0080 N   0  0  0  0  0  2  0  0  0  0  0  0
  193.1370  177.0130  139.8380 C   0  0  0  0  0  2  0  0  0  0  0  0
  189.4680  177.1240  140.4170 C   0  0  0  0  0  2  0  0  0  0  0  0
  190.8940  177.5860  140.6870 C   0  0  2  0  0  3  0  0  0  0  0  0
  191.8240  177.0630  139.6090 C   0  0  0  0  0  0  0  0  0  0  0  0
  189.9010  177.4330  137.9870 C   0  0  0  0  0  0  0  0  0  0  0  0
  189.8000  176.2920  135.7540 C   0  0  2  0  0  3  0  0  0  0  0  0
  191.2950  175.9630  135.9280 C   0  0  0  0  0  2  0  0  0  0  0  0
  189.4480  177.5620  136.5540 C   0  0  1  0  0  3  0  0  0  0  0  0
  191.6890  175.8230  137.4070 C   0  0  0  0  0  2  0  0  0  0  0  0
  191.3680  177.1120  138.1670 C   0  0  2  0  0  3  0  0  0  0  0  0
  189.0380  177.4510  139.0170 C   0  0  0  0  0  3  0  0  0  0  0  0
  188.0470  178.0690  136.3530 C   0  0  0  0  0  0  0  0  0  0  0  0
  187.2090  177.3550  135.7370 O   0  0  0  0  0  0  0  0  0  0  0  0
  187.6850  179.3430  136.7670 O   0  0  0  0  0  1  0  0  0  0  0  0
  189.1210  173.9530  135.1820 C   0  0  0  0  0  1  0  0  0  0  0  0
  188.9380  175.0960  136.1600 C   0  0  0  0  0  2  0  0  0  0  0  0
  183.6780  178.6530  141.0890 C   0  0  0  0  0  2  0  0  0  0  0  0
  182.7000  177.6580  140.6740 N   0  0  0  0  0  2  0  0  0  0  0  0
  179.7160  180.4110  139.1580 F   0  0  0  0  0  0  0  0  0  0  0  0
  180.9040  180.1480  138.4980 C   0  0  0  0  0  0  0  0  0  0  0  0
  181.5170  178.3710  140.2150 C   0  0  1  0  0  3  0  0  0  0  0  0
  180.6520  179.0860  137.4080 C   0  0  1  0  0  3  0  0  0  0  0  0
  181.3490  181.3250  137.9190 F   0  0  0  0  0  0  0  0  0  0  0  0
  181.3670  179.3700  136.2590 F   0  0  0  0  0  0  0  0  0  0  0  0
  181.9450  179.6700  139.5100 C   0  0  0  0  0  2  0  0  0  0  0  0
  180.9610  177.6490  137.8540 C   0  0  1  0  0  3  0  0  0  0  0  0
  180.6530  177.4540  139.3380 C   0  0  0  0  0  2  0  0  0  0  0  0
  180.2110  176.7510  137.0910 O   0  0  0  0  0  0  0  0  0  0  0  0
  182.1380  175.7150  136.0900 C   0  0  0  0  0  2  0  0  0  0  0  0
  180.7820  173.9070  135.0480 C   0  0  0  0  0  2  0  0  0  0  0  0
  180.9100  176.6130  135.8870 C   0  0  1  0  0  3  0  0  0  0  0  0
  180.0040  176.0040  134.8120 C   0  0  0  0  0  2  0  0  0  0  0  0
  179.6280  174.7000  135.1760 O   0  0  0  0  0  0  0  0  0  0  0  0
  181.7980  174.2180  136.1740 C   0  0  2  0  0  0  0  0  0  0  0  0
  181.1900  173.9490  137.5500 C   0  0  0  0  0  1  0  0  0  0  0  0
  183.0230  173.5150  136.0250 O   0  0  0  0  0  0  0  0  0  0  0  0
  185.3710  174.7470  136.4140 O   0  0  0  0  0  0  0  0  0  0  0  0
  183.5540  175.0770  138.2670 O   0  0  0  0  0  1  0  0  0  0  0  0
  184.2380  174.0350  137.1220 P   0  0  0  0  0  0  0  0  0  0  0  0
  184.8600  172.6800  137.9260 O   0  0  0  0  0  1  0  0  0  0  0  0
  1  6  1  0  0  0  0
  1  5  1  0  0  0  0
  2  4  1  0  0  0  0
  3  2  1  0  0  0  0
  5  9  1  0  0  0  0
  5  4  1  1  0  0  0
  6 35  1  6  0  0  0
  6  3  1  0  0  0  0
  7  8  1  0  0  0  0
  7 16  1  1  0  0  0
  7  9  1  0  0  0  0
  8  9  1  0  0  0  0
  9 14  1  1  0  0  0
 10 15  1  0  0  0  0
 11 10  2  0  0  0  0
 12 15  1  0  0  0  0
 13 12  1  0  0  0  0
 14 11  1  0  0  0  0
 14 13  2  0  0  0  0
 17 16  1  0  0  0  0
 18 17  1  0  0  0  0
 20 21  1  0  0  0  0
 21 18  1  1  0  0  0
 22 19  2  0  0  0  0
 22 21  1  0  0  0  0
 23 28  1  0  0  0  0
 23 29  2  0  0  0  0
 24 25  1  0  0  0  0
 24 34  1  1  0  0  0
 24 26  1  0  0  0  0
 25 27  1  0  0  0  0
 26 30  1  1  0  0  0
 26 23  1  0  0  0  0
 28 27  1  1  0  0  0
 28 22  1  0  0  0  0
 29 20  1  0  0  0  0
 30 32  1  0  0  0  0
 31 30  2  0  0  0  0
 33 34  1  0  0  0  0
 36 35  1  0  0  0  0
 38 37  1  0  0  0  0
 38 43  1  0  0  0  0
 39 36  1  6  0  0  0
 40 42  1  6  0  0  0
 40 44  1  0  0  0  0
 40 38  1  0  0  0  0
 41 38  1  0  0  0  0
 43 39  1  0  0  0  0
 44 46  1  6  0  0  0
 44 45  1  0  0  0  0
 45 39  1  0  0  0  0
 47 52  1  0  0  0  0
 48 51  1  0  0  0  0
 48 52  1  0  0  0  0
 49 47  1  0  0  0  0
 49 46  1  1  0  0  0
 50 51  1  0  0  0  0
 50 49  1  0  0  0  0
 52 53  1  1  0  0  0
 54 52  1  0  0  0  0
 54 57  1  0  0  0  0
 55 57  2  0  0  0  0
 57 58  1  0  0  0  0
 57 56  1  0  0  0  0
M  END
>  <MODEL>
4

>  <REMARK>
 VINA RESULT:      -7.5      4.140      8.909
  Name = 
  15 active torsions:
  status: ('A' for Active; 'I' for Inactive)
    1  A    between atoms: N_3  and  C_4
    2  A    between atoms: N_3  and  C_15
    3  A    between atoms: C_4  and  C_20
    4  A    between atoms: C_7  and  C_47
    5  A    between atoms: C_11  and  C_34
    6  A    between atoms: N_13  and  C_25
    7  A    between atoms: N_13  and  C_37
    8  A    between atoms: O_19  and  C_26
    9  A    between atoms: O_19  and  C_55
   10  A    between atoms: C_20  and  C_22
   11  A    between atoms: C_25  and  C_53
   12  A    between atoms: P_31  and  O_50
   13  A    between atoms: C_40  and  O_50
   14  A    between atoms: C_42  and  C_57
   15  A    between atoms: C_43  and  C_57
                            x       y       z     vdW  Elec       q    Type
                         _______ _______ _______ _____ _____    ______ ____

>  <TORSDO>
F 15

$$$$
=
 OpenBabel10222418243D

 58 64  0  0  1  0  0  0  0  0999 V2000
  183.2060  175.3810  138.3460 S   0  0  0  0  0  0  0  0  0  0  0  0
  182.7890  177.0540  135.6470 C   0  0  0  0  0  2  0  0  0  0  0  0
  183.3070  175.6230  135.6200 C   0  0  0  0  0  2  0  0  0  0  0  0
  183.1550  177.7480  136.9530 C   0  0  0  0  0  2  0  0  0  0  0  0
  182.4820  177.0550  138.1340 C   0  0  2  0  0  3  0  0  0  0  0  0
  182.6470  174.7950  136.7110 C   0  0  1  0  0  3  0  0  0  0  0  0
  183.8310  177.8930  140.2460 C   0  0  1  0  0  3  0  0  0  0  0  0
  182.6080  177.1040  140.6820 C   0  0  0  0  0  2  0  0  0  0  0  0
  182.5510  177.9290  139.4060 C   0  0  2  0  0  0  0  0  0  0  0  0
  180.8280  181.1910  138.5210 C   0  0  0  0  0  3  0  0  0  0  0  0
  181.7810  180.2640  138.6210 C   0  0  0  0  0  3  0  0  0  0  0  0
  179.5780  180.1810  140.4670 C   0  0  0  0  0  2  0  0  0  0  0  0
  180.5300  179.0250  140.3170 C   0  0  0  0  0  3  0  0  0  0  0  0
  181.6020  179.0990  139.5160 C   0  0  0  0  0  0  0  0  0  0  0  0
  179.6380  181.0760  139.3100 N   0  0  0  0  0  2  0  0  0  0  0  0
  184.0180  179.0960  141.1630 C   0  0  0  0  0  2  0  0  0  0  0  0
  184.0600  178.6470  142.6150 C   0  0  0  0  0  2  0  0  0  0  0  0
  185.0190  177.5620  142.7760 N   0  0  0  0  0  2  0  0  0  0  0  0
  185.1430  178.2860  145.5300 C   0  0  0  0  0  2  0  0  0  0  0  0
  187.4330  177.3940  142.7430 C   0  0  0  0  0  2  0  0  0  0  0  0
  186.2380  178.1380  143.3260 C   0  0  2  0  0  3  0  0  0  0  0  0
  186.2610  178.0520  144.8400 C   0  0  0  0  0  0  0  0  0  0  0  0
  188.7910  178.2140  144.6590 C   0  0  0  0  0  0  0  0  0  0  0  0
  190.3130  177.4870  146.5160 C   0  0  2  0  0  3  0  0  0  0  0  0
  189.0830  177.5080  147.4440 C   0  0  0  0  0  2  0  0  0  0  0  0
  190.1060  178.4740  145.3510 C   0  0  1  0  0  3  0  0  0  0  0  0
  187.7800  177.2160  146.6840 C   0  0  0  0  0  2  0  0  0  0  0  0
  187.5780  178.2360  145.5600 C   0  0  2  0  0  3  0  0  0  0  0  0
  188.7210  177.8430  143.3690 C   0  0  0  0  0  3  0  0  0  0  0  0
  191.2970  178.6500  144.4510 C   0  0  0  0  0  0  0  0  0  0  0  0
  191.7850  179.8010  144.2810 O   0  0  0  0  0  1  0  0  0  0  0  0
  191.8190  177.5770  143.7420 O   0  0  0  0  0  0  0  0  0  0  0  0
  191.9170  175.5670  146.5590 C   0  0  0  0  0  1  0  0  0  0  0  0
  190.5890  176.0650  146.0260 C   0  0  0  0  0  2  0  0  0  0  0  0
  183.0310  173.3350  136.5340 C   0  0  0  0  0  2  0  0  0  0  0  0
  184.2150  173.2210  135.6940 N   0  0  0  0  0  2  0  0  0  0  0  0
  187.6590  171.6510  137.8050 F   0  0  0  0  0  0  0  0  0  0  0  0
  187.6110  171.7770  136.4280 C   0  0  0  0  0  0  0  0  0  0  0  0
  185.3430  172.9240  136.5650 C   0  0  1  0  0  3  0  0  0  0  0  0
  188.3100  173.0900  136.0170 C   0  0  1  0  0  3  0  0  0  0  0  0
  188.2700  170.6940  135.8690 F   0  0  0  0  0  0  0  0  0  0  0  0
  189.0540  172.9200  134.8630 F   0  0  0  0  0  0  0  0  0  0  0  0
  186.1520  171.7580  135.9710 C   0  0  0  0  0  2  0  0  0  0  0  0
  187.3520  174.2750  135.8320 C   0  0  1  0  0  3  0  0  0  0  0  0
  186.1760  174.1910  136.8040 C   0  0  0  0  0  2  0  0  0  0  0  0
  188.0470  175.4720  136.0280 O   0  0  0  0  0  0  0  0  0  0  0  0
  188.3380  176.4410  138.2110 C   0  0  0  0  0  2  0  0  0  0  0  0
  188.3950  178.7610  137.3120 C   0  0  0  0  0  2  0  0  0  0  0  0
  187.3700  176.1280  137.0620 C   0  0  1  0  0  3  0  0  0  0  0  0
  186.7490  177.4310  136.5490 C   0  0  0  0  0  2  0  0  0  0  0  0
  187.7570  178.3200  136.1390 O   0  0  0  0  0  0  0  0  0  0  0  0
  189.2620  177.6370  137.9280 C   0  0  2  0  0  0  0  0  0  0  0  0
  190.3410  177.1780  136.9480 C   0  0  0  0  0  1  0  0  0  0  0  0
  189.8440  178.0040  139.1710 O   0  0  0  0  0  0  0  0  0  0  0  0
  192.2740  177.4590  140.1620 O   0  0  0  0  0  1  0  0  0  0  0  0
  190.2800  176.0580  141.1140 O   0  0  0  0  0  1  0  0  0  0  0  0
  190.9510  176.8350  139.7690 P   0  0  0  0  0  0  0  0  0  0  0  0
  191.2290  175.6820  138.5590 O   0  0  0  0  0  0  0  0  0  0  0  0
  2  4  1  0  0  0  0
  3  2  1  0  0  0  0
  3  6  1  0  0  0  0
  5  4  1  6  0  0  0
  5  1  1  0  0  0  0
  5  9  1  0  0  0  0
  6 35  1  6  0  0  0
  6  1  1  0  0  0  0
  7  8  1  0  0  0  0
  7 16  1  1  0  0  0
  9 14  1  1  0  0  0
  9  7  1  0  0  0  0
  9  8  1  0  0  0  0
 10 11  2  0  0  0  0
 10 15  1  0  0  0  0
 11 14  1  0  0  0  0
 13 12  1  0  0  0  0
 14 13  2  0  0  0  0
 15 12  1  0  0  0  0
 16 17  1  0  0  0  0
 17 18  1  0  0  0  0
 20 21  1  0  0  0  0
 20 29  1  0  0  0  0
 21 18  1  6  0  0  0
 21 22  1  0  0  0  0
 22 19  2  0  0  0  0
 22 28  1  0  0  0  0
 23 26  1  0  0  0  0
 23 28  1  0  0  0  0
 24 34  1  6  0  0  0
 24 25  1  0  0  0  0
 26 30  1  6  0  0  0
 26 24  1  0  0  0  0
 27 25  1  0  0  0  0
 28 27  1  1  0  0  0
 29 23  2  0  0  0  0
 31 30  1  0  0  0  0
 32 30  2  0  0  0  0
 34 33  1  0  0  0  0
 36 35  1  0  0  0  0
 38 37  1  0  0  0  0
 39 36  1  6  0  0  0
 39 45  1  0  0  0  0
 40 42  1  6  0  0  0
 40 38  1  0  0  0  0
 41 38  1  0  0  0  0
 43 38  1  0  0  0  0
 43 39  1  0  0  0  0
 44 40  1  0  0  0  0
 44 46  1  1  0  0  0
 44 45  1  0  0  0  0
 48 52  1  0  0  0  0
 49 46  1  6  0  0  0
 49 47  1  0  0  0  0
 50 49  1  0  0  0  0
 51 50  1  0  0  0  0
 51 48  1  0  0  0  0
 52 53  1  6  0  0  0
 52 47  1  0  0  0  0
 52 54  1  0  0  0  0
 54 57  1  0  0  0  0
 57 55  1  0  0  0  0
 57 56  1  0  0  0  0
 58 57  2  0  0  0  0
M  END
>  <MODEL>
5

>  <REMARK>
 VINA RESULT:      -7.5      4.521     10.454
  Name = 
  15 active torsions:
  status: ('A' for Active; 'I' for Inactive)
    1  A    between atoms: N_3  and  C_4
    2  A    between atoms: N_3  and  C_15
    3  A    between atoms: C_4  and  C_20
    4  A    between atoms: C_7  and  C_47
    5  A    between atoms: C_11  and  C_34
    6  A    between atoms: N_13  and  C_25
    7  A    between atoms: N_13  and  C_37
    8  A    between atoms: O_19  and  C_26
    9  A    between atoms: O_19  and  C_55
   10  A    between atoms: C_20  and  C_22
   11  A    between atoms: C_25  and  C_53
   12  A    between atoms: P_31  and  O_50
   13  A    between atoms: C_40  and  O_50
   14  A    between atoms: C_42  and  C_57
   15  A    between atoms: C_43  and  C_57
                            x       y       z     vdW  Elec       q    Type
                         _______ _______ _______ _____ _____    ______ ____

>  <TORSDO>
F 15

$$$$
=
 OpenBabel10222418243D

 58 64  0  0  1  0  0  0  0  0999 V2000
  186.3680  174.9690  137.1020 S   0  0  0  0  0  0  0  0  0  0  0  0
  187.7180  172.2090  136.1960 C   0  0  0  0  0  2  0  0  0  0  0  0
  186.2510  172.2790  136.5960 C   0  0  0  0  0  2  0  0  0  0  0  0
  188.5320  173.2900  136.8960 C   0  0  0  0  0  2  0  0  0  0  0  0
  188.0640  174.6760  136.4650 C   0  0  2  0  0  3  0  0  0  0  0  0
  185.6370  173.5960  136.1470 C   0  0  1  0  0  3  0  0  0  0  0  0
  188.6910  176.7370  137.9940 C   0  0  1  0  0  3  0  0  0  0  0  0
  188.6100  177.1670  136.5400 C   0  0  0  0  0  2  0  0  0  0  0  0
  189.0810  175.7620  136.8800 C   0  0  2  0  0  0  0  0  0  0  0  0
  192.5670  174.2700  137.0170 C   0  0  0  0  0  3  0  0  0  0  0  0
  191.3640  174.6830  137.4160 C   0  0  0  0  0  3  0  0  0  0  0  0
  192.4870  175.8190  135.0250 C   0  0  0  0  0  2  0  0  0  0  0  0
  191.0360  176.0020  135.3840 C   0  0  0  0  0  3  0  0  0  0  0  0
  190.5360  175.5410  136.5390 C   0  0  0  0  0  0  0  0  0  0  0  0
  193.0750  174.6890  135.7450 N   0  0  0  0  0  2  0  0  0  0  0  0
  189.8680  177.4300  138.6700 C   0  0  0  0  0  2  0  0  0  0  0  0
  190.1880  176.7530  139.9920 C   0  0  0  0  0  2  0  0  0  0  0  0
  190.0180  177.6940  141.0910 N   0  0  0  0  0  2  0  0  0  0  0  0
  189.5880  175.8410  143.2140 C   0  0  0  0  0  2  0  0  0  0  0  0
  187.9930  178.8530  141.7320 C   0  0  0  0  0  2  0  0  0  0  0  0
  188.6800  177.4960  141.6280 C   0  0  2  0  0  3  0  0  0  0  0  0
  188.7190  176.8280  142.9890 C   0  0  0  0  0  0  0  0  0  0  0  0
  186.4290  177.8570  143.3900 C   0  0  0  0  0  0  0  0  0  0  0  0
  185.4760  178.1400  145.6940 C   0  0  2  0  0  3  0  0  0  0  0  0
  186.5500  177.1510  146.1880 C   0  0  0  0  0  2  0  0  0  0  0  0
  185.1620  177.8710  144.2100 C   0  0  1  0  0  3  0  0  0  0  0  0
  187.8210  177.1990  145.3260 C   0  0  0  0  0  2  0  0  0  0  0  0
  187.4870  176.8880  143.8650 C   0  0  2  0  0  3  0  0  0  0  0  0
  186.6560  178.7440  142.4060 C   0  0  0  0  0  3  0  0  0  0  0  0
  184.0270  178.6800  143.6460 C   0  0  0  0  0  0  0  0  0  0  0  0
  183.6890  179.7570  144.2100 O   0  0  0  0  0  1  0  0  0  0  0  0
  183.2940  178.2190  142.5610 O   0  0  0  0  0  0  0  0  0  0  0  0
  186.4380  179.7450  147.3540 C   0  0  0  0  0  1  0  0  0  0  0  0
  185.9240  179.5810  145.9380 C   0  0  0  0  0  2  0  0  0  0  0  0
  184.1360  173.5540  136.3810 C   0  0  0  0  0  2  0  0  0  0  0  0
  183.5070  174.7570  135.8550 N   0  0  0  0  0  2  0  0  0  0  0  0
  179.5510  173.0690  135.3270 F   0  0  0  0  0  0  0  0  0  0  0  0
  180.3800  172.7320  136.3820 C   0  0  0  0  0  0  0  0  0  0  0  0
  182.0980  174.4590  135.6450 C   0  0  1  0  0  3  0  0  0  0  0  0
  179.9890  173.5680  137.6190 C   0  0  1  0  0  3  0  0  0  0  0  0
  180.2140  171.3830  136.6510 F   0  0  0  0  0  0  0  0  0  0  0  0
  180.0580  172.8130  138.7750 F   0  0  0  0  0  0  0  0  0  0  0  0
  181.8330  172.9810  135.9790 C   0  0  0  0  0  2  0  0  0  0  0  0
  180.8240  174.8440  137.7970 C   0  0  1  0  0  3  0  0  0  0  0  0
  181.2240  175.4350  136.4460 C   0  0  0  0  0  2  0  0  0  0  0  0
  180.0920  175.7830  138.5280 O   0  0  0  0  0  0  0  0  0  0  0  0
  181.6470  177.0850  139.8220 C   0  0  0  0  0  2  0  0  0  0  0  0
  179.8360  178.1910  141.1220 C   0  0  0  0  0  2  0  0  0  0  0  0
  180.7250  175.8590  139.7740 C   0  0  1  0  0  3  0  0  0  0  0  0
  179.6850  175.9580  140.8940 C   0  0  0  0  0  2  0  0  0  0  0  0
  178.9540  177.1520  140.7740 O   0  0  0  0  0  0  0  0  0  0  0  0
  180.8970  178.4120  140.0160 C   0  0  2  0  0  0  0  0  0  0  0  0
  180.2360  178.7790  138.6880 C   0  0  0  0  0  1  0  0  0  0  0  0
  181.8720  179.3820  140.3700 O   0  0  0  0  0  0  0  0  0  0  0  0
  182.6020  179.0060  137.8190 O   0  0  0  0  0  0  0  0  0  0  0  0
  182.6820  181.4650  138.7090 O   0  0  0  0  0  1  0  0  0  0  0  0
  182.8920  179.8230  139.0600 P   0  0  0  0  0  0  0  0  0  0  0  0
  184.5040  179.5690  139.5180 O   0  0  0  0  0  1  0  0  0  0  0  0
  2  3  1  0  0  0  0
  2  4  1  0  0  0  0
  5  9  1  0  0  0  0
  5  4  1  1  0  0  0
  5  1  1  0  0  0  0
  6 35  1  1  0  0  0
  6  3  1  0  0  0  0
  6  1  1  0  0  0  0
  7 16  1  1  0  0  0
  8  9  1  0  0  0  0
  8  7  1  0  0  0  0
  9 14  1  6  0  0  0
  9  7  1  0  0  0  0
 10 11  2  0  0  0  0
 12 13  1  0  0  0  0
 12 15  1  0  0  0  0
 13 14  2  0  0  0  0
 14 11  1  0  0  0  0
 15 10  1  0  0  0  0
 16 17  1  0  0  0  0
 17 18  1  0  0  0  0
 20 29  1  0  0  0  0
 21 18  1  1  0  0  0
 21 20  1  0  0  0  0
 21 22  1  0  0  0  0
 22 19  2  0  0  0  0
 22 28  1  0  0  0  0
 23 28  1  0  0  0  0
 23 26  1  0  0  0  0
 24 34  1  6  0  0  0
 24 25  1  0  0  0  0
 26 30  1  6  0  0  0
 26 24  1  0  0  0  0
 27 25  1  0  0  0  0
 28 27  1  1  0  0  0
 29 23  2  0  0  0  0
 30 31  1  0  0  0  0
 32 30  2  0  0  0  0
 34 33  1  0  0  0  0
 36 35  1  0  0  0  0
 37 38  1  0  0  0  0
 38 41  1  0  0  0  0
 38 40  1  0  0  0  0
 39 36  1  1  0  0  0
 39 43  1  0  0  0  0
 39 45  1  0  0  0  0
 40 44  1  0  0  0  0
 40 42  1  1  0  0  0
 43 38  1  0  0  0  0
 44 46  1  6  0  0  0
 45 44  1  0  0  0  0
 47 52  1  0  0  0  0
 49 46  1  6  0  0  0
 49 47  1  0  0  0  0
 49 50  1  0  0  0  0
 51 50  1  0  0  0  0
 51 48  1  0  0  0  0
 52 53  1  6  0  0  0
 52 54  1  0  0  0  0
 52 48  1  0  0  0  0
 55 57  2  0  0  0  0
 56 57  1  0  0  0  0
 57 58  1  0  0  0  0
 57 54  1  0  0  0  0
M  END
>  <MODEL>
6

>  <REMARK>
 VINA RESULT:      -7.3      4.117      8.893
  Name = 
  15 active torsions:
  status: ('A' for Active; 'I' for Inactive)
    1  A    between atoms: N_3  and  C_4
    2  A    between atoms: N_3  and  C_15
    3  A    between atoms: C_4  and  C_20
    4  A    between atoms: C_7  and  C_47
    5  A    between atoms: C_11  and  C_34
    6  A    between atoms: N_13  and  C_25
    7  A    between atoms: N_13  and  C_37
    8  A    between atoms: O_19  and  C_26
    9  A    between atoms: O_19  and  C_55
   10  A    between atoms: C_20  and  C_22
   11  A    between atoms: C_25  and  C_53
   12  A    between atoms: P_31  and  O_50
   13  A    between atoms: C_40  and  O_50
   14  A    between atoms: C_42  and  C_57
   15  A    between atoms: C_43  and  C_57
                            x       y       z     vdW  Elec       q    Type
                         _______ _______ _______ _____ _____    ______ ____

>  <TORSDO>
F 15

$$$$
=
 OpenBabel10222418243D

 58 64  0  0  1  0  0  0  0  0999 V2000
  187.1880  175.4140  136.8290 S   0  0  0  0  0  0  0  0  0  0  0  0
  186.8840  178.2630  135.3970 C   0  0  0  0  0  2  0  0  0  0  0  0
  186.0540  177.0640  134.9600 C   0  0  0  0  0  2  0  0  0  0  0  0
  188.2130  177.8230  135.9980 C   0  0  0  0  0  2  0  0  0  0  0  0
  187.9820  177.0100  137.2680 C   0  0  2  0  0  3  0  0  0  0  0  0
  185.6850  176.2030  136.1580 C   0  0  1  0  0  3  0  0  0  0  0  0
  189.2560  177.1300  139.5800 C   0  0  1  0  0  3  0  0  0  0  0  0
  189.8040  178.1740  138.6230 C   0  0  0  0  0  2  0  0  0  0  0  0
  189.2900  176.8520  138.0740 C   0  0  2  0  0  0  0  0  0  0  0  0
  191.1330  173.7510  136.8980 C   0  0  0  0  0  3  0  0  0  0  0  0
  190.3210  174.5310  137.6120 C   0  0  0  0  0  3  0  0  0  0  0  0
  192.4730  175.7550  136.1490 C   0  0  0  0  0  2  0  0  0  0  0  0
  191.3490  176.5680  136.7330 C   0  0  0  0  0  3  0  0  0  0  0  0
  190.3920  176.0040  137.4840 C   0  0  0  0  0  0  0  0  0  0  0  0
  192.1030  174.3440  136.0270 N   0  0  0  0  0  2  0  0  0  0  0  0
  190.4010  176.5020  140.3650 C   0  0  0  0  0  2  0  0  0  0  0  0
  191.4860  177.5340  140.6270 C   0  0  0  0  0  2  0  0  0  0  0  0
  191.7580  177.6220  142.0560 N   0  0  0  0  0  2  0  0  0  0  0  0
  191.7360  175.5200  143.9810 C   0  0  0  0  0  2  0  0  0  0  0  0
  189.8040  178.5750  143.1180 C   0  0  0  0  0  2  0  0  0  0  0  0
  190.5260  177.2840  142.7540 C   0  0  2  0  0  3  0  0  0  0  0  0
  190.8010  176.4710  144.0050 C   0  0  0  0  0  0  0  0  0  0  0  0
  188.5550  177.3060  144.8550 C   0  0  0  0  0  0  0  0  0  0  0  0
  187.9500  177.2690  147.2900 C   0  0  2  0  0  3  0  0  0  0  0  0
  189.1290  176.3000  147.5000 C   0  0  0  0  0  2  0  0  0  0  0  0
  187.4270  177.1500  145.8450 C   0  0  1  0  0  3  0  0  0  0  0  0
  190.2520  176.5220  146.4750 C   0  0  0  0  0  2  0  0  0  0  0  0
  189.7140  176.3560  145.0520 C   0  0  2  0  0  3  0  0  0  0  0  0
  188.5910  178.3100  143.9620 C   0  0  0  0  0  3  0  0  0  0  0  0
  186.1850  177.9450  145.5540 C   0  0  0  0  0  0  0  0  0  0  0  0
  185.4520  178.3270  146.5070 O   0  0  0  0  0  1  0  0  0  0  0  0
  185.7920  178.1980  144.2470 O   0  0  0  0  0  0  0  0  0  0  0  0
  189.4590  178.6940  148.6870 C   0  0  0  0  0  1  0  0  0  0  0  0
  188.3660  178.6990  147.6380 C   0  0  0  0  0  2  0  0  0  0  0  0
  184.6990  175.1330  135.7210 C   0  0  0  0  0  2  0  0  0  0  0  0
  183.8160  175.6490  134.6860 N   0  0  0  0  0  2  0  0  0  0  0  0
  180.7430  172.5950  134.7870 F   0  0  0  0  0  0  0  0  0  0  0  0
  181.7790  172.6530  135.7020 C   0  0  0  0  0  0  0  0  0  0  0  0
  182.6050  174.8410  134.6990 C   0  0  1  0  0  3  0  0  0  0  0  0
  181.2860  173.3620  136.9800 C   0  0  1  0  0  3  0  0  0  0  0  0
  182.1690  171.3570  136.0000 F   0  0  0  0  0  0  0  0  0  0  0  0
  181.7950  172.7590  138.1150 F   0  0  0  0  0  0  0  0  0  0  0  0
  182.9610  173.3940  135.0770 C   0  0  0  0  0  2  0  0  0  0  0  0
  181.6000  174.8640  137.0210 C   0  0  1  0  0  3  0  0  0  0  0  0
  181.5540  175.4760  135.6210 C   0  0  0  0  0  2  0  0  0  0  0  0
  180.6830  175.5110  137.8530 O   0  0  0  0  0  0  0  0  0  0  0  0
  182.4070  176.0600  139.4390 C   0  0  0  0  0  2  0  0  0  0  0  0
  180.9470  177.6600  140.6640 C   0  0  0  0  0  2  0  0  0  0  0  0
  181.1250  175.2640  139.1570 C   0  0  1  0  0  3  0  0  0  0  0  0
  180.0460  175.6590  140.1690 C   0  0  0  0  0  2  0  0  0  0  0  0
  179.8100  177.0430  140.1110 O   0  0  0  0  0  0  0  0  0  0  0  0
  182.1580  177.5540  139.7050 C   0  0  2  0  0  0  0  0  0  0  0  0
  181.8580  178.2280  138.3670 C   0  0  0  0  0  1  0  0  0  0  0  0
  183.3550  178.0720  140.2660 O   0  0  0  0  0  0  0  0  0  0  0  0
  184.1560  178.2820  137.7160 O   0  0  0  0  0  0  0  0  0  0  0  0
  184.0430  180.5020  139.0950 O   0  0  0  0  0  1  0  0  0  0  0  0
  184.3640  178.8410  139.1080 P   0  0  0  0  0  0  0  0  0  0  0  0
  185.9820  178.6060  139.5550 O   0  0  0  0  0  1  0  0  0  0  0  0
  1  5  1  0  0  0  0
  2  4  1  0  0  0  0
  3  2  1  0  0  0  0
  3  6  1  0  0  0  0
  5  4  1  6  0  0  0
  5  9  1  0  0  0  0
  6 35  1  6  0  0  0
  6  1  1  0  0  0  0
  7 16  1  1  0  0  0
  8  7  1  0  0  0  0
  9 14  1  6  0  0  0
  9  8  1  0  0  0  0
  9  7  1  0  0  0  0
 10 11  2  0  0  0  0
 12 13  1  0  0  0  0
 13 14  2  0  0  0  0
 14 11  1  0  0  0  0
 15 12  1  0  0  0  0
 15 10  1  0  0  0  0
 16 17  1  0  0  0  0
 17 18  1  0  0  0  0
 19 22  2  0  0  0  0
 20 29  1  0  0  0  0
 21 18  1  1  0  0  0
 21 20  1  0  0  0  0
 21 22  1  0  0  0  0
 22 28  1  0  0  0  0
 23 28  1  0  0  0  0
 23 26  1  0  0  0  0
 24 25  1  0  0  0  0
 24 34  1  6  0  0  0
 26 30  1  6  0  0  0
 26 24  1  0  0  0  0
 27 25  1  0  0  0  0
 28 27  1  1  0  0  0
 29 23  2  0  0  0  0
 30 31  1  0  0  0  0
 32 30  2  0  0  0  0
 34 33  1  0  0  0  0
 36 35  1  0  0  0  0
 37 38  1  0  0  0  0
 38 41  1  0  0  0  0
 38 40  1  0  0  0  0
 39 36  1  1  0  0  0
 39 43  1  0  0  0  0
 39 45  1  0  0  0  0
 40 44  1  0  0  0  0
 40 42  1  1  0  0  0
 43 38  1  0  0  0  0
 44 46  1  1  0  0  0
 45 44  1  0  0  0  0
 47 52  1  0  0  0  0
 49 46  1  6  0  0  0
 49 47  1  0  0  0  0
 49 50  1  0  0  0  0
 51 50  1  0  0  0  0
 51 48  1  0  0  0  0
 52 53  1  6  0  0  0
 52 54  1  0  0  0  0
 52 48  1  0  0  0  0
 55 57  2  0  0  0  0
 56 57  1  0  0  0  0
 57 58  1  0  0  0  0
 57 54  1  0  0  0  0
M  END
>  <MODEL>
7

>  <REMARK>
 VINA RESULT:      -7.2      3.918      9.399
  Name = 
  15 active torsions:
  status: ('A' for Active; 'I' for Inactive)
    1  A    between atoms: N_3  and  C_4
    2  A    between atoms: N_3  and  C_15
    3  A    between atoms: C_4  and  C_20
    4  A    between atoms: C_7  and  C_47
    5  A    between atoms: C_11  and  C_34
    6  A    between atoms: N_13  and  C_25
    7  A    between atoms: N_13  and  C_37
    8  A    between atoms: O_19  and  C_26
    9  A    between atoms: O_19  and  C_55
   10  A    between atoms: C_20  and  C_22
   11  A    between atoms: C_25  and  C_53
   12  A    between atoms: P_31  and  O_50
   13  A    between atoms: C_40  and  O_50
   14  A    between atoms: C_42  and  C_57
   15  A    between atoms: C_43  and  C_57
                            x       y       z     vdW  Elec       q    Type
                         _______ _______ _______ _____ _____    ______ ____

>  <TORSDO>
F 15

$$$$
=
 OpenBabel10222418243D

 58 64  0  0  1  0  0  0  0  0999 V2000
  186.8960  176.0690  137.5790 S   0  0  0  0  0  0  0  0  0  0  0  0
  187.1640  173.1850  136.2120 C   0  0  0  0  0  2  0  0  0  0  0  0
  185.8520  173.6510  136.8290 C   0  0  0  0  0  2  0  0  0  0  0  0
  188.3570  173.8480  136.8890 C   0  0  0  0  0  2  0  0  0  0  0  0
  188.3240  175.3580  136.6720 C   0  0  2  0  0  3  0  0  0  0  0  0
  185.6580  175.1430  136.6100 C   0  0  1  0  0  3  0  0  0  0  0  0
  189.7510  176.8830  138.2900 C   0  0  1  0  0  3  0  0  0  0  0  0
  189.6600  177.5190  136.9130 C   0  0  0  0  0  2  0  0  0  0  0  0
  189.6790  176.0030  137.0390 C   0  0  2  0  0  0  0  0  0  0  0  0
  192.4120  173.4450  136.4200 C   0  0  0  0  0  3  0  0  0  0  0  0
  191.4610  174.1360  137.0500 C   0  0  0  0  0  3  0  0  0  0  0  0
  192.7560  175.3300  134.7770 C   0  0  0  0  0  2  0  0  0  0  0  0
  191.4910  175.9010  135.3580 C   0  0  0  0  0  3  0  0  0  0  0  0
  190.9360  175.3910  136.4670 C   0  0  0  0  0  0  0  0  0  0  0  0
  192.9520  173.9390  135.1890 N   0  0  0  0  0  2  0  0  0  0  0  0
  191.1560  177.0720  138.8500 C   0  0  0  0  0  2  0  0  0  0  0  0
  191.1890  176.6980  140.3230 C   0  0  0  0  0  2  0  0  0  0  0  0
  190.6980  177.8050  141.1320 N   0  0  0  0  0  2  0  0  0  0  0  0
  190.0890  175.9570  143.2150 C   0  0  0  0  0  2  0  0  0  0  0  0
  188.5200  178.8170  141.4330 C   0  0  0  0  0  2  0  0  0  0  0  0
  189.3120  177.5150  141.4690 C   0  0  2  0  0  3  0  0  0  0  0  0
  189.1940  176.8720  142.8380 C   0  0  0  0  0  0  0  0  0  0  0  0
  186.8010  177.7300  142.8660 C   0  0  0  0  0  0  0  0  0  0  0  0
  185.4940  177.9740  144.9940 C   0  0  2  0  0  3  0  0  0  0  0  0
  186.5510  177.0770  145.6680 C   0  0  0  0  0  2  0  0  0  0  0  0
  185.4280  177.6600  143.4870 C   0  0  1  0  0  3  0  0  0  0  0  0
  187.9310  177.2090  145.0040 C   0  0  0  0  0  2  0  0  0  0  0  0
  187.8430  176.8510  143.5190 C   0  0  2  0  0  3  0  0  0  0  0  0
  187.1090  178.6170  141.9040 C   0  0  0  0  0  3  0  0  0  0  0  0
  184.3340  178.3720  142.7400 C   0  0  0  0  0  0  0  0  0  0  0  0
  183.8620  179.4470  143.2020 O   0  0  0  0  0  1  0  0  0  0  0  0
  183.7830  177.8230  141.5910 O   0  0  0  0  0  0  0  0  0  0  0  0
  186.0510  179.6770  146.7410 C   0  0  0  0  0  1  0  0  0  0  0  0
  185.7940  179.4490  145.2650 C   0  0  0  0  0  2  0  0  0  0  0  0
  184.2600  175.5370  137.0580 C   0  0  0  0  0  2  0  0  0  0  0  0
  183.5610  176.2290  135.9850 N   0  0  0  0  0  2  0  0  0  0  0  0
  179.6890  174.3660  136.5530 F   0  0  0  0  0  0  0  0  0  0  0  0
  180.6210  174.4920  137.5680 C   0  0  0  0  0  0  0  0  0  0  0  0
  182.1610  175.8350  136.0500 C   0  0  1  0  0  3  0  0  0  0  0  0
  180.2810  175.7370  138.4140 C   0  0  1  0  0  3  0  0  0  0  0  0
  180.5640  173.3550  138.3560 F   0  0  0  0  0  0  0  0  0  0  0  0
  180.4910  175.5000  139.7600 F   0  0  0  0  0  0  0  0  0  0  0  0
  182.0180  174.6020  136.9570 C   0  0  0  0  0  2  0  0  0  0  0  0
  181.0450  177.0020  137.9980 C   0  0  1  0  0  3  0  0  0  0  0  0
  181.2950  177.0250  136.4910 C   0  0  0  0  0  2  0  0  0  0  0  0
  180.3170  178.1330  138.3750 O   0  0  0  0  0  0  0  0  0  0  0  0
  181.8210  179.9980  138.5930 C   0  0  0  0  0  2  0  0  0  0  0  0
  180.0980  181.4240  139.6850 C   0  0  0  0  0  2  0  0  0  0  0  0
  181.1330  178.8140  139.2850 C   0  0  1  0  0  3  0  0  0  0  0  0
  180.3030  179.3250  140.4670 C   0  0  0  0  0  2  0  0  0  0  0  0
  179.3640  180.2730  140.0260 O   0  0  0  0  0  0  0  0  0  0  0  0
  180.8950  181.2060  138.3760 C   0  0  2  0  0  0  0  0  0  0  0  0
  179.9600  180.8800  137.2120 C   0  0  0  0  0  1  0  0  0  0  0  0
  181.7320  182.3060  138.0480 O   0  0  0  0  0  0  0  0  0  0  0  0
  179.5900  183.9110  137.9140 O   0  0  0  0  0  1  0  0  0  0  0  0
  181.8780  184.9480  137.1820 O   0  0  0  0  0  1  0  0  0  0  0  0
  180.8990  183.5690  137.2340 P   0  0  0  0  0  0  0  0  0  0  0  0
  180.5770  183.0720  135.6460 O   0  0  0  0  0  0  0  0  0  0  0  0
  2  3  1  0  0  0  0
  2  4  1  0  0  0  0
  5  4  1  1  0  0  0
  5  9  1  0  0  0  0
  5  1  1  0  0  0  0
  6  3  1  0  0  0  0
  6 35  1  1  0  0  0
  6  1  1  0  0  0  0
  7 16  1  6  0  0  0
  8  9  1  0  0  0  0
  8  7  1  0  0  0  0
  9 14  1  6  0  0  0
  9  7  1  0  0  0  0
 10 11  2  0  0  0  0
 12 15  1  0  0  0  0
 12 13  1  0  0  0  0
 13 14  2  0  0  0  0
 14 11  1  0  0  0  0
 15 10  1  0  0  0  0
 16 17  1  0  0  0  0
 17 18  1  0  0  0  0
 20 21  1  0  0  0  0
 20 29  1  0  0  0  0
 21 18  1  1  0  0  0
 21 22  1  0  0  0  0
 22 19  2  0  0  0  0
 22 28  1  0  0  0  0
 23 26  1  0  0  0  0
 23 28  1  0  0  0  0
 24 34  1  6  0  0  0
 24 25  1  0  0  0  0
 26 30  1  6  0  0  0
 26 24  1  0  0  0  0
 27 25  1  0  0  0  0
 28 27  1  1  0  0  0
 29 23  2  0  0  0  0
 30 31  1  0  0  0  0
 32 30  2  0  0  0  0
 34 33  1  0  0  0  0
 36 35  1  0  0  0  0
 37 38  1  0  0  0  0
 38 41  1  0  0  0  0
 38 40  1  0  0  0  0
 39 36  1  1  0  0  0
 39 45  1  0  0  0  0
 39 43  1  0  0  0  0
 40 42  1  1  0  0  0
 43 38  1  0  0  0  0
 44 46  1  6  0  0  0
 44 40  1  0  0  0  0
 45 44  1  0  0  0  0
 47 49  1  0  0  0  0
 48 51  1  0  0  0  0
 49 46  1  6  0  0  0
 49 50  1  0  0  0  0
 51 50  1  0  0  0  0
 52 53  1  6  0  0  0
 52 47  1  0  0  0  0
 52 48  1  0  0  0  0
 54 52  1  0  0  0  0
 56 57  1  0  0  0  0
 57 55  1  0  0  0  0
 57 54  1  0  0  0  0
 58 57  2  0  0  0  0
M  END
>  <MODEL>
8

>  <REMARK>
 VINA RESULT:      -7.2      4.182      8.626
  Name = 
  15 active torsions:
  status: ('A' for Active; 'I' for Inactive)
    1  A    between atoms: N_3  and  C_4
    2  A    between atoms: N_3  and  C_15
    3  A    between atoms: C_4  and  C_20
    4  A    between atoms: C_7  and  C_47
    5  A    between atoms: C_11  and  C_34
    6  A    between atoms: N_13  and  C_25
    7  A    between atoms: N_13  and  C_37
    8  A    between atoms: O_19  and  C_26
    9  A    between atoms: O_19  and  C_55
   10  A    between atoms: C_20  and  C_22
   11  A    between atoms: C_25  and  C_53
   12  A    between atoms: P_31  and  O_50
   13  A    between atoms: C_40  and  O_50
   14  A    between atoms: C_42  and  C_57
   15  A    between atoms: C_43  and  C_57
                            x       y       z     vdW  Elec       q    Type
                         _______ _______ _______ _____ _____    ______ ____

>  <TORSDO>
F 15

$$$$
=
 OpenBabel10222418243D

 58 64  0  0  1  0  0  0  0  0999 V2000
  188.7260  177.4000  139.3760 S   0  0  0  0  0  0  0  0  0  0  0  0
  191.8170  176.8480  140.0050 C   0  0  0  0  0  2  0  0  0  0  0  0
  191.0130  177.8570  140.8120 C   0  0  0  0  0  2  0  0  0  0  0  0
  191.2650  176.7070  138.5920 C   0  0  0  0  0  2  0  0  0  0  0  0
  189.8440  176.1530  138.6260 C   0  0  2  0  0  3  0  0  0  0  0  0
  189.5800  177.3800  140.9890 C   0  0  1  0  0  3  0  0  0  0  0  0
  189.7360  174.2470  136.7990 C   0  0  1  0  0  3  0  0  0  0  0  0
  190.5690  175.4120  136.2940 C   0  0  0  0  0  2  0  0  0  0  0  0
  189.3970  175.6780  137.2250 C   0  0  2  0  0  0  0  0  0  0  0  0
  187.5920  177.7360  134.5970 C   0  0  0  0  0  3  0  0  0  0  0  0
  188.5780  177.2650  135.3610 C   0  0  0  0  0  3  0  0  0  0  0  0
  185.8680  176.9800  136.2800 C   0  0  0  0  0  2  0  0  0  0  0  0
  187.0050  176.2310  136.9210 C   0  0  0  0  0  3  0  0  0  0  0  0
  188.2770  176.4290  136.5450 C   0  0  0  0  0  0  0  0  0  0  0  0
  186.2300  177.4570  134.9440 N   0  0  0  0  0  2  0  0  0  0  0  0
  188.8730  173.7050  135.6650 C   0  0  0  0  0  2  0  0  0  0  0  0
  188.8040  172.1880  135.7370 C   0  0  0  0  0  2  0  0  0  0  0  0
  187.7290  171.7780  136.6290 N   0  0  0  0  0  2  0  0  0  0  0  0
  186.1790  170.5180  134.5950 C   0  0  0  0  0  2  0  0  0  0  0  0
  185.7550  172.9820  137.3440 C   0  0  0  0  0  2  0  0  0  0  0  0
  186.5050  172.4030  136.1500 C   0  0  2  0  0  3  0  0  0  0  0  0
  185.6240  171.4120  135.4150 C   0  0  0  0  0  0  0  0  0  0  0  0
  183.6840  172.9600  135.9680 C   0  0  0  0  0  0  0  0  0  0  0  0
  181.2980  172.1820  135.9170 C   0  0  2  0  0  3  0  0  0  0  0  0
  181.7830  170.9580  135.1170 C   0  0  0  0  0  2  0  0  0  0  0  0
  182.2570  173.3670  135.6910 C   0  0  1  0  0  3  0  0  0  0  0  0
  183.2340  170.5810  135.4590 C   0  0  0  0  0  2  0  0  0  0  0  0
  184.1690  171.7610  135.1850 C   0  0  2  0  0  3  0  0  0  0  0  0
  184.4140  173.5250  136.9440 C   0  0  0  0  0  3  0  0  0  0  0  0
  181.8160  174.6650  136.3080 C   0  0  0  0  0  0  0  0  0  0  0  0
  181.1000  175.4600  135.6400 O   0  0  0  0  0  0  0  0  0  0  0  0
  182.2510  175.0370  137.5720 O   0  0  0  0  0  1  0  0  0  0  0  0
  179.8590  172.3890  137.9530 C   0  0  0  0  0  1  0  0  0  0  0  0
  181.1540  171.8300  137.3980 C   0  0  0  0  0  2  0  0  0  0  0  0
  188.8610  178.3020  141.9580 C   0  0  0  0  0  2  0  0  0  0  0  0
  189.1970  177.9560  143.3320 N   0  0  0  0  0  2  0  0  0  0  0  0
  185.9650  176.5510  145.8550 F   0  0  0  0  0  0  0  0  0  0  0  0
  186.4120  177.8600  145.8610 C   0  0  0  0  0  0  0  0  0  0  0  0
  188.0090  177.3740  143.9400 C   0  0  1  0  0  3  0  0  0  0  0  0
  185.4970  178.7110  144.9560 C   0  0  1  0  0  3  0  0  0  0  0  0
  186.3610  178.3310  147.1630 F   0  0  0  0  0  0  0  0  0  0  0  0
  185.2650  179.9570  145.5090 F   0  0  0  0  0  0  0  0  0  0  0  0
  187.8620  177.8990  145.3780 C   0  0  0  0  0  2  0  0  0  0  0  0
  186.0220  178.8820  143.5230 C   0  0  1  0  0  3  0  0  0  0  0  0
  186.7790  177.6390  143.0600 C   0  0  0  0  0  2  0  0  0  0  0  0
  184.9510  179.1360  142.6610 O   0  0  0  0  0  0  0  0  0  0  0  0
  183.8410  177.4910  141.3020 C   0  0  0  0  0  2  0  0  0  0  0  0
  183.4660  179.0980  139.4390 C   0  0  0  0  0  2  0  0  0  0  0  0
  185.1340  178.2690  141.5780 C   0  0  1  0  0  3  0  0  0  0  0  0
  185.5330  179.0570  140.3270 C   0  0  0  0  0  2  0  0  0  0  0  0
  184.4910  179.9190  139.9440 O   0  0  0  0  0  0  0  0  0  0  0  0
  182.7660  178.3200  140.5790 C   0  0  2  0  0  0  0  0  0  0  0  0
  182.1460  179.2780  141.5960 C   0  0  0  0  0  1  0  0  0  0  0  0
  181.7930  177.4000  140.1060 O   0  0  0  0  0  0  0  0  0  0  0  0
  180.2670  179.5380  139.5750 O   0  0  0  0  0  1  0  0  0  0  0  0
  181.1410  178.1820  137.5150 O   0  0  0  0  0  0  0  0  0  0  0  0
  180.5960  178.1330  139.1160 P   0  0  0  0  0  0  0  0  0  0  0  0
  179.1880  177.1930  139.1810 O   0  0  0  0  0  1  0  0  0  0  0  0
  1  6  1  0  0  0  0
  2  3  1  0  0  0  0
  3  6  1  0  0  0  0
  4  2  1  0  0  0  0
  5  4  1  6  0  0  0
  5  1  1  0  0  0  0
  6 35  1  1  0  0  0
  7 16  1  6  0  0  0
  7  9  1  0  0  0  0
  8  7  1  0  0  0  0
  8  9  1  0  0  0  0
  9 14  1  6  0  0  0
  9  5  1  0  0  0  0
 10 15  1  0  0  0  0
 10 11  2  0  0  0  0
 11 14  1  0  0  0  0
 12 13  1  0  0  0  0
 14 13  2  0  0  0  0
 15 12  1  0  0  0  0
 16 17  1  0  0  0  0
 17 18  1  0  0  0  0
 19 22  2  0  0  0  0
 21 18  1  1  0  0  0
 21 20  1  0  0  0  0
 22 21  1  0  0  0  0
 23 29  2  0  0  0  0
 24 34  1  1  0  0  0
 25 27  1  0  0  0  0
 25 24  1  0  0  0  0
 26 24  1  0  0  0  0
 26 23  1  0  0  0  0
 26 30  1  1  0  0  0
 28 22  1  0  0  0  0
 28 27  1  1  0  0  0
 28 23  1  0  0  0  0
 29 20  1  0  0  0  0
 30 32  1  0  0  0  0
 31 30  2  0  0  0  0
 34 33  1  0  0  0  0
 35 36  1  0  0  0  0
 37 38  1  0  0  0  0
 38 41  1  0  0  0  0
 39 36  1  6  0  0  0
 39 43  1  0  0  0  0
 40 42  1  1  0  0  0
 40 38  1  0  0  0  0
 43 38  1  0  0  0  0
 44 46  1  6  0  0  0
 44 40  1  0  0  0  0
 45 44  1  0  0  0  0
 45 39  1  0  0  0  0
 47 49  1  0  0  0  0
 48 51  1  0  0  0  0
 48 52  1  0  0  0  0
 49 46  1  1  0  0  0
 50 49  1  0  0  0  0
 51 50  1  0  0  0  0
 52 47  1  0  0  0  0
 52 53  1  1  0  0  0
 54 52  1  0  0  0  0
 56 57  2  0  0  0  0
 57 58  1  0  0  0  0
 57 55  1  0  0  0  0
 57 54  1  0  0  0  0
M  END
>  <MODEL>
9

>  <REMARK>
 VINA RESULT:      -7.0      1.770      2.501
  Name = 
  15 active torsions:
  status: ('A' for Active; 'I' for Inactive)
    1  A    between atoms: N_3  and  C_4
    2  A    between atoms: N_3  and  C_15
    3  A    between atoms: C_4  and  C_20
    4  A    between atoms: C_7  and  C_47
    5  A    between atoms: C_11  and  C_34
    6  A    between atoms: N_13  and  C_25
    7  A    between atoms: N_13  and  C_37
    8  A    between atoms: O_19  and  C_26
    9  A    between atoms: O_19  and  C_55
   10  A    between atoms: C_20  and  C_22
   11  A    between atoms: C_25  and  C_53
   12  A    between atoms: P_31  and  O_50
   13  A    between atoms: C_40  and  O_50
   14  A    between atoms: C_42  and  C_57
   15  A    between atoms: C_43  and  C_57
                            x       y       z     vdW  Elec       q    Type
                         _______ _______ _______ _____ _____    ______ ____

>  <TORSDO>
F 15

$$$$
